=
 OpenBabel10272413263D

 32 36  0  0  1  0  0  0  0  0999 V2000
  185.7100  174.0970  136.5720 C   0  0  2  0  0  3  0  0  0  0  0  0
  189.1410  175.7180  137.1670 C   0  0  0  0  0  2  0  0  0  0  0  0
  187.1990  177.2430  139.2490 C   0  0  0  0  0  2  0  0  0  0  0  0
  191.8500  176.7640  141.5160 C   0  0  0  0  0  2  0  0  0  0  0  0
  191.4930  177.6100  142.7300 C   0  0  0  0  0  2  0  0  0  0  0  0
  187.3800  177.9460  136.7970 C   0  0  1  0  0  3  0  0  0  0  0  0
  189.4070  179.0710  138.0200 C   0  0  0  0  0  2  0  0  0  0  0  0
  186.9640  174.4980  137.3380 C   0  0  0  0  0  2  0  0  0  0  0  0
  189.7870  176.9760  136.5990 C   0  0  0  0  0  2  0  0  0  0  0  0
  191.7560  177.5460  140.2470 C   0  0  0  0  0  3  0  0  0  0  0  0
  189.4400  178.3220  139.3170 C   0  0  0  0  0  0  0  0  0  0  0  0
  190.6030  177.9340  139.7760 C   0  0  0  0  0  0  0  0  0  0  0  0
  188.3210  177.5080  141.4930 C   0  0  2  0  0  3  0  0  0  0  0  0
  184.9440  175.3070  136.1130 C   0  0  0  0  0  3  0  0  0  0  0  0
  185.5530  176.4670  135.8290 C   0  0  0  0  0  3  0  0  0  0  0  0
  184.8260  173.2330  137.4450 C   0  0  0  0  0  1  0  0  0  0  0  0
  188.9080  178.2110  136.8540 C   0  0  1  0  0  3  0  0  0  0  0  0
  187.0420  176.6700  136.0050 C   0  0  2  0  0  3  0  0  0  0  0  0
  187.8190  175.4050  136.4610 C   0  0  1  0  0  3  0  0  0  0  0  0
  190.0280  177.4460  143.1040 C   0  0  0  0  0  2  0  0  0  0  0  0
  189.2010  178.3380  142.3070 N   0  0  0  0  0  2  0  0  0  0  0  0
  186.6090  178.0760  138.1220 C   0  0  0  0  0  2  0  0  0  0  0  0
  188.1510  178.0980  140.0790 C   0  0  2  0  0  3  0  0  0  0  0  0
  186.9810  177.2450  142.2140 C   0  0  0  0  0  2  0  0  0  0  0  0
  186.2630  177.8800  144.5870 C   0  0  0  0  0  2  0  0  0  0  0  0
  185.4950  178.8840  145.4030 C   0  0  0  0  0  0  0  0  0  0  0  0
  185.2330  179.0620  142.5870 C   0  0  0  0  0  0  0  0  0  0  0  0
  184.0200  179.2480  143.4550 C   0  0  0  0  0  2  0  0  0  0  0  0
  184.4460  179.5260  144.8710 C   0  0  0  0  0  3  0  0  0  0  0  0
  185.8930  179.1720  146.6690 F   0  0  0  0  0  0  0  0  0  0  0  0
  185.2330  179.4950  141.4470 O   0  0  0  0  0  0  0  0  0  0  0  0
  186.4550  178.3570  143.1370 C   0  0  2  0  0  3  0  0  0  0  0  0
  1  8  1  0  0  0  0
  1 16  1  1  0  0  0
  4  5  1  0  0  0  0
  5 20  1  0  0  0  0
  6 17  1  0  0  0  0
  6 22  1  1  0  0  0
  7 11  1  0  0  0  0
  9  2  1  0  0  0  0
 10  4  1  0  0  0  0
 11 12  2  0  0  0  0
 11 23  1  0  0  0  0
 12 10  2  0  0  0  0
 13 24  1  1  0  0  0
 13 21  1  0  0  0  0
 14  1  1  0  0  0  0
 15 14  2  0  0  0  0
 17  9  1  1  0  0  0
 17  7  1  0  0  0  0
 18 15  1  1  0  0  0
 18 19  1  0  0  0  0
 18  6  1  0  0  0  0
 19  2  1  1  0  0  0
 19  8  1  0  0  0  0
 21 20  1  0  0  0  0
 22  3  1  0  0  0  0
 23  3  1  6  0  0  0
 23 13  1  0  0  0  0
 25 26  1  0  0  0  0
 26 30  1  0  0  0  0
 27 32  1  0  0  0  0
 27 28  1  0  0  0  0
 28 29  1  0  0  0  0
 29 26  2  0  0  0  0
 31 27  2  0  0  0  0
 32 24  1  6  0  0  0
 32 25  1  0  0  0  0
M  END
>  <MODEL>
1

>  <REMARK>
 VINA RESULT:      -7.4      0.000      0.000
  Name = 
  2 active torsions:
  status: ('A' for Active; 'I' for Inactive)
    1  A    between atoms: C_16  and  C_27
    2  A    between atoms: C_27  and  C_32
                            x       y       z     vdW  Elec       q    Type
                         _______ _______ _______ _____ _____    ______ ____

>  <TORSDO>
F 2

$$$$
=
 OpenBabel10272413263D

 32 36  0  0  1  0  0  0  0  0999 V2000
  185.7030  175.1750  135.1120 C   0  0  2  0  0  3  0  0  0  0  0  0
  188.3060  175.5580  137.9100 C   0  0  0  0  0  2  0  0  0  0  0  0
  186.3650  178.1090  138.3110 C   0  0  0  0  0  2  0  0  0  0  0  0
  187.8750  176.5380  143.0280 C   0  0  0  0  0  2  0  0  0  0  0  0
  187.2440  177.7100  143.7670 C   0  0  0  0  0  2  0  0  0  0  0  0
  188.2900  178.1180  136.6280 C   0  0  1  0  0  3  0  0  0  0  0  0
  189.3610  178.6960  138.9490 C   0  0  0  0  0  2  0  0  0  0  0  0
  186.2360  175.2670  136.5360 C   0  0  0  0  0  2  0  0  0  0  0  0
  189.6130  176.3370  137.9870 C   0  0  0  0  0  2  0  0  0  0  0  0
  188.9210  176.9890  142.0620 C   0  0  0  0  0  3  0  0  0  0  0  0
  188.2720  178.3030  139.8990 C   0  0  0  0  0  0  0  0  0  0  0  0
  188.6030  177.6430  140.9790 C   0  0  0  0  0  0  0  0  0  0  0  0
  185.8430  178.4630  140.7540 C   0  0  2  0  0  3  0  0  0  0  0  0
  185.9800  176.4380  134.3460 C   0  0  0  0  0  3  0  0  0  0  0  0
  187.0470  177.2070  134.6060 C   0  0  0  0  0  3  0  0  0  0  0  0
  184.2130  174.9070  135.1350 C   0  0  0  0  0  1  0  0  0  0  0  0
  189.3860  177.8270  137.6860 C   0  0  1  0  0  3  0  0  0  0  0  0
  188.0180  176.9010  135.7250 C   0  0  2  0  0  3  0  0  0  0  0  0
  187.7270  175.5840  136.4930 C   0  0  1  0  0  3  0  0  0  0  0  0
  185.9670  178.1690  143.0800 C   0  0  0  0  0  2  0  0  0  0  0  0
  186.2780  179.0890  141.9980 N   0  0  0  0  0  2  0  0  0  0  0  0
  187.0130  178.8150  137.1320 C   0  0  0  0  0  2  0  0  0  0  0  0
  186.8480  178.7340  139.6160 C   0  0  2  0  0  3  0  0  0  0  0  0
  184.3950  178.8670  140.4040 C   0  0  0  0  0  2  0  0  0  0  0  0
  182.9190  177.0730  139.3300 C   0  0  0  0  0  2  0  0  0  0  0  0
  181.6720  176.2500  139.5070 C   0  0  0  0  0  0  0  0  0  0  0  0
  182.0970  178.3390  141.3740 C   0  0  0  0  0  0  0  0  0  0  0  0
  180.7150  178.1000  140.8360 C   0  0  0  0  0  2  0  0  0  0  0  0
  180.6410  176.7310  140.2150 C   0  0  0  0  0  3  0  0  0  0  0  0
  181.6080  174.9990  138.9840 F   0  0  0  0  0  0  0  0  0  0  0  0
  182.2420  178.9480  142.4210 O   0  0  0  0  0  0  0  0  0  0  0  0
  183.3020  177.8070  140.6260 C   0  0  2  0  0  3  0  0  0  0  0  0
  1 16  1  1  0  0  0
  1  8  1  0  0  0  0
  2  9  1  0  0  0  0
  4  5  1  0  0  0  0
  6 22  1  1  0  0  0
  6 17  1  0  0  0  0
  7 11  1  0  0  0  0
 10  4  1  0  0  0  0
 11 12  2  0  0  0  0
 12 10  2  0  0  0  0
 13 24  1  6  0  0  0
 13 21  1  0  0  0  0
 14 15  2  0  0  0  0
 14  1  1  0  0  0  0
 17  9  1  1  0  0  0
 17  7  1  0  0  0  0
 18 15  1  1  0  0  0
 18 19  1  0  0  0  0
 18  6  1  0  0  0  0
 19  8  1  1  0  0  0
 19  2  1  0  0  0  0
 20  5  1  0  0  0  0
 21 20  1  0  0  0  0
 22  3  1  0  0  0  0
 23  3  1  6  0  0  0
 23 11  1  0  0  0  0
 23 13  1  0  0  0  0
 25 26  1  0  0  0  0
 25 32  1  0  0  0  0
 26 29  2  0  0  0  0
 27 31  2  0  0  0  0
 28 27  1  0  0  0  0
 29 28  1  0  0  0  0
 30 26  1  0  0  0  0
 32 24  1  6  0  0  0
 32 27  1  0  0  0  0
M  END
>  <MODEL>
2

>  <REMARK>
 VINA RESULT:      -7.0      2.805      3.675
  Name = 
  2 active torsions:
  status: ('A' for Active; 'I' for Inactive)
    1  A    between atoms: C_16  and  C_27
    2  A    between atoms: C_27  and  C_32
                            x       y       z     vdW  Elec       q    Type
                         _______ _______ _______ _____ _____    ______ ____

>  <TORSDO>
F 2

$$$$
=
 OpenBabel10272413263D

 32 36  0  0  1  0  0  0  0  0999 V2000
  182.8840  176.0030  138.1230 C   0  0  2  0  0  3  0  0  0  0  0  0
  185.8880  174.6270  136.1660 C   0  0  0  0  0  2  0  0  0  0  0  0
  186.9460  177.4580  137.3080 C   0  0  0  0  0  2  0  0  0  0  0  0
  190.9610  174.1600  137.3450 C   0  0  0  0  0  2  0  0  0  0  0  0
  191.9910  175.2090  137.7430 C   0  0  0  0  0  2  0  0  0  0  0  0
  185.5700  177.2890  135.1600 C   0  0  1  0  0  3  0  0  0  0  0  0
  188.0420  176.7570  134.4740 C   0  0  0  0  0  2  0  0  0  0  0  0
  184.2980  175.4850  137.8950 C   0  0  0  0  0  2  0  0  0  0  0  0
  186.3580  174.8470  134.7330 C   0  0  0  0  0  2  0  0  0  0  0  0
  190.3180  174.4810  136.0350 C   0  0  0  0  0  3  0  0  0  0  0  0
  188.6850  176.5080  135.8030 C   0  0  0  0  0  0  0  0  0  0  0  0
  189.5010  175.4900  135.9140 C   0  0  0  0  0  0  0  0  0  0  0  0
  189.2960  177.2430  138.1990 C   0  0  2  0  0  3  0  0  0  0  0  0
  182.6300  177.2560  137.3330 C   0  0  0  0  0  3  0  0  0  0  0  0
  183.2450  177.4960  136.1660 C   0  0  0  0  0  3  0  0  0  0  0  0
  182.6640  176.2730  139.5960 C   0  0  0  0  0  1  0  0  0  0  0  0
  186.5670  176.3420  134.4430 C   0  0  1  0  0  3  0  0  0  0  0  0
  184.2810  176.5610  135.5840 C   0  0  2  0  0  3  0  0  0  0  0  0
  184.5160  175.2630  136.4030 C   0  0  1  0  0  3  0  0  0  0  0  0
  191.3790  176.2600  138.6560 C   0  0  0  0  0  2  0  0  0  0  0  0
  190.7160  177.2880  137.8690 N   0  0  0  0  0  2  0  0  0  0  0  0
  186.1520  178.2060  136.2500 C   0  0  0  0  0  2  0  0  0  0  0  0
  188.4270  177.4680  136.9450 C   0  0  2  0  0  3  0  0  0  0  0  0
  188.9630  178.2070  139.3580 C   0  0  0  0  0  2  0  0  0  0  0  0
  187.0540  178.4830  141.0410 C   0  0  0  0  0  2  0  0  0  0  0  0
  186.5310  178.0380  142.3790 C   0  0  0  0  0  0  0  0  0  0  0  0
  189.1630  177.2320  141.7060 C   0  0  0  0  0  0  0  0  0  0  0  0
  188.8670  177.6890  143.1060 C   0  0  0  0  0  2  0  0  0  0  0  0
  187.3820  177.6630  143.3450 C   0  0  0  0  0  3  0  0  0  0  0  0
  185.1920  177.9730  142.5940 F   0  0  0  0  0  0  0  0  0  0  0  0
  190.1470  176.5430  141.4900 O   0  0  0  0  0  0  0  0  0  0  0  0
  188.2310  177.6110  140.5730 C   0  0  2  0  0  3  0  0  0  0  0  0
  1 16  1  1  0  0  0
  4  5  1  0  0  0  0
  5 20  1  0  0  0  0
  6 18  1  0  0  0  0
  6 22  1  1  0  0  0
  7 11  1  0  0  0  0
  8  1  1  0  0  0  0
  9  2  1  0  0  0  0
 10  4  1  0  0  0  0
 11 12  2  0  0  0  0
 11 23  1  0  0  0  0
 12 10  2  0  0  0  0
 13 24  1  1  0  0  0
 14  1  1  0  0  0  0
 15 14  2  0  0  0  0
 17  7  1  1  0  0  0
 17  9  1  0  0  0  0
 17  6  1  0  0  0  0
 18 15  1  1  0  0  0
 18 19  1  0  0  0  0
 19  2  1  1  0  0  0
 19  8  1  0  0  0  0
 21 13  1  0  0  0  0
 21 20  1  0  0  0  0
 22  3  1  0  0  0  0
 23  3  1  1  0  0  0
 23 13  1  0  0  0  0
 25 26  1  0  0  0  0
 26 30  1  0  0  0  0
 26 29  2  0  0  0  0
 27 28  1  0  0  0  0
 28 29  1  0  0  0  0
 31 27  2  0  0  0  0
 32 24  1  6  0  0  0
 32 25  1  0  0  0  0
 32 27  1  0  0  0  0
M  END
>  <MODEL>
3

>  <REMARK>
 VINA RESULT:      -6.6      2.345      3.988
  Name = 
  2 active torsions:
  status: ('A' for Active; 'I' for Inactive)
    1  A    between atoms: C_16  and  C_27
    2  A    between atoms: C_27  and  C_32
                            x       y       z     vdW  Elec       q    Type
                         _______ _______ _______ _____ _____    ______ ____

>  <TORSDO>
F 2

$$$$
=
 OpenBabel10272413263D

 32 36  0  0  1  0  0  0  0  0999 V2000
  194.7440  176.2710  134.9920 C   0  0  2  0  0  3  0  0  0  0  0  0
  191.0940  175.2660  134.3460 C   0  0  0  0  0  2  0  0  0  0  0  0
  191.2050  175.7500  137.5390 C   0  0  0  0  0  2  0  0  0  0  0  0
  186.5380  177.3210  135.8830 C   0  0  0  0  0  2  0  0  0  0  0  0
  185.9820  177.5770  137.2770 C   0  0  0  0  0  2  0  0  0  0  0  0
  191.9200  173.5370  136.4740 C   0  0  1  0  0  3  0  0  0  0  0  0
  189.3100  173.4250  136.6840 C   0  0  0  0  0  2  0  0  0  0  0  0
  193.2290  176.4210  134.9500 C   0  0  0  0  0  2  0  0  0  0  0  0
  190.3800  173.9220  134.4120 C   0  0  0  0  0  2  0  0  0  0  0  0
  186.9140  175.8880  135.6900 C   0  0  0  0  0  3  0  0  0  0  0  0
  188.9590  174.8570  136.9480 C   0  0  0  0  0  0  0  0  0  0  0  0
  187.9350  175.3690  136.3130 C   0  0  0  0  0  0  0  0  0  0  0  0
  189.1770  177.0290  138.3230 C   0  0  2  0  0  3  0  0  0  0  0  0
  195.1530  175.1400  135.8940 C   0  0  0  0  0  3  0  0  0  0  0  0
  194.3750  174.0650  136.0820 C   0  0  0  0  0  3  0  0  0  0  0  0
  195.3770  177.5600  135.4690 C   0  0  0  0  0  1  0  0  0  0  0  0
  190.5490  173.2740  135.7960 C   0  0  1  0  0  3  0  0  0  0  0  0
  193.0050  173.9320  135.4560 C   0  0  2  0  0  3  0  0  0  0  0  0
  192.6060  175.0990  134.5130 C   0  0  1  0  0  3  0  0  0  0  0  0
  187.0710  178.0610  138.2220 C   0  0  0  0  0  2  0  0  0  0  0  0
  187.7950  176.9290  138.7780 N   0  0  0  0  0  2  0  0  0  0  0  0
  191.9050  174.4150  137.7380 C   0  0  0  0  0  2  0  0  0  0  0  0
  189.7480  175.6390  137.9760 C   0  0  2  0  0  3  0  0  0  0  0  0
  190.0410  177.8130  139.3330 C   0  0  0  0  0  2  0  0  0  0  0  0
  189.0510  177.5090  141.6740 C   0  0  0  0  0  2  0  0  0  0  0  0
  189.3700  177.1350  143.0960 C   0  0  0  0  0  0  0  0  0  0  0  0
  191.5710  177.4920  141.3470 C   0  0  0  0  0  0  0  0  0  0  0  0
  191.6510  178.0200  142.7520 C   0  0  0  0  0  2  0  0  0  0  0  0
  190.5890  177.3730  143.5990 C   0  0  0  0  0  3  0  0  0  0  0  0
  188.4330  176.5160  143.8580 F   0  0  0  0  0  0  0  0  0  0  0  0
  192.5960  177.2940  140.7160 O   0  0  0  0  0  0  0  0  0  0  0  0
  190.2210  177.1910  140.7280 C   0  0  2  0  0  3  0  0  0  0  0  0
  1 16  1  1  0  0  0
  1 14  1  0  0  0  0
  2  9  1  0  0  0  0
  3 22  1  0  0  0  0
  4  5  1  0  0  0  0
  5 20  1  0  0  0  0
  6 22  1  1  0  0  0
  7 11  1  0  0  0  0
  8  1  1  0  0  0  0
 10  4  1  0  0  0  0
 10 12  2  0  0  0  0
 11 23  1  0  0  0  0
 12 11  2  0  0  0  0
 13 21  1  0  0  0  0
 13 24  1  1  0  0  0
 14 15  2  0  0  0  0
 17  9  1  6  0  0  0
 17  6  1  0  0  0  0
 17  7  1  0  0  0  0
 18 15  1  1  0  0  0
 18  6  1  0  0  0  0
 19  2  1  1  0  0  0
 19  8  1  0  0  0  0
 19 18  1  0  0  0  0
 20 21  1  0  0  0  0
 23  3  1  6  0  0  0
 23 13  1  0  0  0  0
 25 26  1  0  0  0  0
 26 29  2  0  0  0  0
 26 30  1  0  0  0  0
 27 28  1  0  0  0  0
 28 29  1  0  0  0  0
 31 27  2  0  0  0  0
 32 24  1  6  0  0  0
 32 27  1  0  0  0  0
 32 25  1  0  0  0  0
M  END
>  <MODEL>
4

>  <REMARK>
 VINA RESULT:      -6.4      3.301      6.407
  Name = 
  2 active torsions:
  status: ('A' for Active; 'I' for Inactive)
    1  A    between atoms: C_16  and  C_27
    2  A    between atoms: C_27  and  C_32
                            x       y       z     vdW  Elec       q    Type
                         _______ _______ _______ _____ _____    ______ ____

>  <TORSDO>
F 2

$$$$
=
 OpenBabel10272413263D

 32 36  0  0  1  0  0  0  0  0999 V2000
  186.7990  173.0160  135.6150 C   0  0  2  0  0  3  0  0  0  0  0  0
  188.6230  175.2710  138.1330 C   0  0  0  0  0  2  0  0  0  0  0  0
  186.1360  177.0790  137.1420 C   0  0  0  0  0  2  0  0  0  0  0  0
  186.9430  178.1500  142.1620 C   0  0  0  0  0  2  0  0  0  0  0  0
  185.9350  179.2900  142.2180 C   0  0  0  0  0  2  0  0  0  0  0  0
  188.3180  176.9280  135.8170 C   0  0  1  0  0  3  0  0  0  0  0  0
  188.7370  178.7110  137.6920 C   0  0  0  0  0  2  0  0  0  0  0  0
  186.9950  173.8480  136.8750 C   0  0  0  0  0  2  0  0  0  0  0  0
  189.6860  176.3480  137.9540 C   0  0  0  0  0  2  0  0  0  0  0  0
  188.0430  178.4300  141.1900 C   0  0  0  0  0  3  0  0  0  0  0  0
  187.5860  178.4620  138.6180 C   0  0  0  0  0  0  0  0  0  0  0  0
  187.8220  178.4450  139.9050 C   0  0  0  0  0  0  0  0  0  0  0  0
  185.0570  178.2650  139.0900 C   0  0  2  0  0  3  0  0  0  0  0  0
  186.9490  173.8590  134.3790 C   0  0  0  0  0  3  0  0  0  0  0  0
  187.7470  174.9360  134.3460 C   0  0  0  0  0  3  0  0  0  0  0  0
  185.4310  172.3680  135.6300 C   0  0  0  0  0  1  0  0  0  0  0  0
  189.2090  177.4380  136.9810 C   0  0  1  0  0  3  0  0  0  0  0  0
  188.5080  175.4220  135.5590 C   0  0  2  0  0  3  0  0  0  0  0  0
  188.3570  174.5300  136.8200 C   0  0  1  0  0  3  0  0  0  0  0  0
  184.7580  179.0280  141.2900 C   0  0  0  0  0  2  0  0  0  0  0  0
  185.0800  179.4520  139.9360 N   0  0  0  0  0  2  0  0  0  0  0  0
  186.8460  177.3740  135.8300 C   0  0  0  0  0  2  0  0  0  0  0  0
  186.1930  178.3060  138.0470 C   0  0  2  0  0  3  0  0  0  0  0  0
  183.6600  178.0500  138.4690 C   0  0  0  0  0  2  0  0  0  0  0  0
  182.7600  175.8420  137.5390 C   0  0  0  0  0  2  0  0  0  0  0  0
  181.8320  174.6890  137.8120 C   0  0  0  0  0  0  0  0  0  0  0  0
  181.6750  176.8990  139.5790 C   0  0  0  0  0  0  0  0  0  0  0  0
  180.4100  176.2250  139.1250 C   0  0  0  0  0  2  0  0  0  0  0  0
  180.7330  174.8700  138.5570 C   0  0  0  0  0  3  0  0  0  0  0  0
  182.1320  173.4530  137.3370 F   0  0  0  0  0  0  0  0  0  0  0  0
  181.6690  177.5750  140.5940 O   0  0  0  0  0  0  0  0  0  0  0  0
  182.9530  176.7210  138.7860 C   0  0  2  0  0  3  0  0  0  0  0  0
  1 16  1  1  0  0  0
  1  8  1  0  0  0  0
  4  5  1  0  0  0  0
  6 22  1  1  0  0  0
  6 17  1  0  0  0  0
  7 11  1  0  0  0  0
  9  2  1  0  0  0  0
 10  4  1  0  0  0  0
 11 12  2  0  0  0  0
 12 10  2  0  0  0  0
 13 24  1  6  0  0  0
 13 21  1  0  0  0  0
 14  1  1  0  0  0  0
 15 14  2  0  0  0  0
 17  7  1  1  0  0  0
 17  9  1  0  0  0  0
 18 15  1  6  0  0  0
 18  6  1  0  0  0  0
 18 19  1  0  0  0  0
 19  8  1  1  0  0  0
 19  2  1  0  0  0  0
 20  5  1  0  0  0  0
 21 20  1  0  0  0  0
 22  3  1  0  0  0  0
 23  3  1  1  0  0  0
 23 11  1  0  0  0  0
 23 13  1  0  0  0  0
 25 26  1  0  0  0  0
 25 32  1  0  0  0  0
 26 29  2  0  0  0  0
 27 31  2  0  0  0  0
 28 27  1  0  0  0  0
 29 28  1  0  0  0  0
 30 26  1  0  0  0  0
 32 24  1  6  0  0  0
 32 27  1  0  0  0  0
M  END
>  <MODEL>
5

>  <REMARK>
 VINA RESULT:      -6.4      3.217      4.774
  Name = 
  2 active torsions:
  status: ('A' for Active; 'I' for Inactive)
    1  A    between atoms: C_16  and  C_27
    2  A    between atoms: C_27  and  C_32
                            x       y       z     vdW  Elec       q    Type
                         _______ _______ _______ _____ _____    ______ ____

>  <TORSDO>
F 2

$$$$
=
 OpenBabel10272413263D

 32 36  0  0  1  0  0  0  0  0999 V2000
  182.7000  178.2350  140.9540 C   0  0  2  0  0  3  0  0  0  0  0  0
  183.0710  175.3290  138.4710 C   0  0  0  0  0  2  0  0  0  0  0  0
  185.5050  177.3090  137.7050 C   0  0  0  0  0  2  0  0  0  0  0  0
  187.1730  172.4390  136.9980 C   0  0  0  0  0  2  0  0  0  0  0  0
  188.5010  172.8430  136.3720 C   0  0  0  0  0  2  0  0  0  0  0  0
  183.1350  177.6640  136.8140 C   0  0  1  0  0  3  0  0  0  0  0  0
  184.2320  175.8730  135.2460 C   0  0  0  0  0  2  0  0  0  0  0  0
  183.3580  177.0450  140.2670 C   0  0  0  0  0  2  0  0  0  0  0  0
  182.5670  175.1350  137.0460 C   0  0  0  0  0  2  0  0  0  0  0  0
  186.0100  172.9160  136.1900 C   0  0  0  0  0  3  0  0  0  0  0  0
  185.4320  175.4590  136.0420 C   0  0  0  0  0  0  0  0  0  0  0  0
  185.7150  174.1840  136.1140 C   0  0  0  0  0  0  0  0  0  0  0  0
  187.6240  176.0050  137.2870 C   0  0  2  0  0  3  0  0  0  0  0  0
  182.4590  179.3570  139.9830 C   0  0  0  0  0  3  0  0  0  0  0  0
  182.2300  179.1330  138.6810 C   0  0  0  0  0  3  0  0  0  0  0  0
  183.5730  178.7220  142.0910 C   0  0  0  0  0  1  0  0  0  0  0  0
  183.0460  176.2730  136.1310 C   0  0  1  0  0  3  0  0  0  0  0  0
  182.2570  177.7460  138.0770 C   0  0  2  0  0  3  0  0  0  0  0  0
  182.4890  176.5990  139.0970 C   0  0  1  0  0  3  0  0  0  0  0  0
  189.0170  174.1420  136.9710 C   0  0  0  0  0  2  0  0  0  0  0  0
  188.4160  175.2820  136.2980 N   0  0  0  0  0  2  0  0  0  0  0  0
  184.5440  178.2520  136.9980 C   0  0  0  0  0  2  0  0  0  0  0  0
  186.3070  176.5210  136.6730 C   0  0  2  0  0  3  0  0  0  0  0  0
  188.4590  177.1110  137.9670 C   0  0  0  0  0  2  0  0  0  0  0  0
  188.2390  178.0360  140.3440 C   0  0  0  0  0  2  0  0  0  0  0  0
  188.8090  177.9780  141.7350 C   0  0  0  0  0  0  0  0  0  0  0  0
  190.2700  176.6510  139.7020 C   0  0  0  0  0  0  0  0  0  0  0  0
  191.0080  177.4410  140.7450 C   0  0  0  0  0  2  0  0  0  0  0  0
  190.1060  177.6960  141.9220 C   0  0  0  0  0  3  0  0  0  0  0  0
  187.9970  178.1680  142.8060 F   0  0  0  0  0  0  0  0  0  0  0  0
  190.8570  175.7880  139.0690 O   0  0  0  0  0  0  0  0  0  0  0  0
  188.7990  176.9130  139.4550 C   0  0  2  0  0  3  0  0  0  0  0  0
  1 16  1  1  0  0  0
  5 20  1  0  0  0  0
  5  4  1  0  0  0  0
  6 22  1  1  0  0  0
  6 18  1  0  0  0  0
  7 11  1  0  0  0  0
  8  1  1  0  0  0  0
  9  2  1  0  0  0  0
 10  4  1  0  0  0  0
 11 12  2  0  0  0  0
 11 23  1  0  0  0  0
 12 10  2  0  0  0  0
 13 24  1  6  0  0  0
 14  1  1  0  0  0  0
 15 14  2  0  0  0  0
 17  7  1  1  0  0  0
 17  6  1  0  0  0  0
 17  9  1  0  0  0  0
 18 15  1  1  0  0  0
 18 19  1  0  0  0  0
 19  2  1  6  0  0  0
 19  8  1  0  0  0  0
 21 20  1  0  0  0  0
 21 13  1  0  0  0  0
 22  3  1  0  0  0  0
 23 13  1  0  0  0  0
 23  3  1  1  0  0  0
 25 26  1  0  0  0  0
 26 29  2  0  0  0  0
 26 30  1  0  0  0  0
 27 28  1  0  0  0  0
 28 29  1  0  0  0  0
 31 27  2  0  0  0  0
 32 24  1  6  0  0  0
 32 27  1  0  0  0  0
 32 25  1  0  0  0  0
M  END
>  <MODEL>
6

>  <REMARK>
 VINA RESULT:      -6.3      2.927      6.096
  Name = 
  2 active torsions:
  status: ('A' for Active; 'I' for Inactive)
    1  A    between atoms: C_16  and  C_27
    2  A    between atoms: C_27  and  C_32
                            x       y       z     vdW  Elec       q    Type
                         _______ _______ _______ _____ _____    ______ ____

>  <TORSDO>
F 2

$$$$
=
 OpenBabel10272413263D

 32 36  0  0  1  0  0  0  0  0999 V2000
  182.6530  178.2760  141.1200 C   0  0  2  0  0  3  0  0  0  0  0  0
  182.0230  175.2090  138.8970 C   0  0  0  0  0  2  0  0  0  0  0  0
  184.0540  177.0180  137.1530 C   0  0  0  0  0  2  0  0  0  0  0  0
  185.2360  172.0390  136.2550 C   0  0  0  0  0  2  0  0  0  0  0  0
  186.2520  172.3390  135.1610 C   0  0  0  0  0  2  0  0  0  0  0  0
  181.5300  177.4320  137.1600 C   0  0  1  0  0  3  0  0  0  0  0  0
  181.9370  175.4970  135.4400 C   0  0  0  0  0  2  0  0  0  0  0  0
  182.9860  177.0160  140.3320 C   0  0  0  0  0  2  0  0  0  0  0  0
  181.0290  174.9520  137.7700 C   0  0  0  0  0  2  0  0  0  0  0  0
  183.8700  172.5210  135.8910 C   0  0  0  0  0  3  0  0  0  0  0  0
  183.3350  175.0760  135.7730 C   0  0  0  0  0  0  0  0  0  0  0  0
  183.5960  173.7950  135.8330 C   0  0  0  0  0  0  0  0  0  0  0  0
  185.8430  175.5900  136.0930 C   0  0  2  0  0  3  0  0  0  0  0  0
  182.0980  179.3470  140.2220 C   0  0  0  0  0  3  0  0  0  0  0  0
  181.4040  179.0540  139.1130 C   0  0  0  0  0  3  0  0  0  0  0  0
  183.8910  178.7890  141.8230 C   0  0  0  0  0  1  0  0  0  0  0  0
  181.1660  176.0080  136.6620 C   0  0  1  0  0  3  0  0  0  0  0  0
  181.1770  177.6340  138.6450 C   0  0  2  0  0  3  0  0  0  0  0  0
  181.7400  176.5410  139.5940 C   0  0  1  0  0  3  0  0  0  0  0  0
  186.9810  173.6460  135.4330 C   0  0  0  0  0  2  0  0  0  0  0  0
  186.2010  174.7700  134.9410 N   0  0  0  0  0  2  0  0  0  0  0  0
  182.9230  177.9610  136.7760 C   0  0  0  0  0  2  0  0  0  0  0  0
  184.4040  176.1310  135.9630 C   0  0  2  0  0  3  0  0  0  0  0  0
  186.8940  176.6930  136.3390 C   0  0  0  0  0  2  0  0  0  0  0  0
  187.3370  178.0370  138.4720 C   0  0  0  0  0  2  0  0  0  0  0  0
  188.2240  178.1510  139.6820 C   0  0  0  0  0  0  0  0  0  0  0  0
  189.0320  176.3200  137.6760 C   0  0  0  0  0  0  0  0  0  0  0  0
  190.0640  177.1820  138.3480 C   0  0  0  0  0  2  0  0  0  0  0  0
  189.5000  177.7480  139.6240 C   0  0  0  0  0  3  0  0  0  0  0  0
  187.7170  178.6240  140.8490 F   0  0  0  0  0  0  0  0  0  0  0  0
  189.3760  175.2950  137.1110 O   0  0  0  0  0  0  0  0  0  0  0  0
  187.5710  176.7160  137.7210 C   0  0  2  0  0  3  0  0  0  0  0  0
  1 16  1  6  0  0  0
  5 20  1  0  0  0  0
  5  4  1  0  0  0  0
  6 22  1  1  0  0  0
  6 18  1  0  0  0  0
  7 11  1  0  0  0  0
  8  1  1  0  0  0  0
  9  2  1  0  0  0  0
 10  4  1  0  0  0  0
 11 12  2  0  0  0  0
 11 23  1  0  0  0  0
 12 10  2  0  0  0  0
 13 24  1  6  0  0  0
 14  1  1  0  0  0  0
 15 14  2  0  0  0  0
 17  7  1  6  0  0  0
 17  6  1  0  0  0  0
 17  9  1  0  0  0  0
 18 15  1  1  0  0  0
 18 19  1  0  0  0  0
 19  2  1  6  0  0  0
 19  8  1  0  0  0  0
 21 20  1  0  0  0  0
 21 13  1  0  0  0  0
 22  3  1  0  0  0  0
 23 13  1  0  0  0  0
 23  3  1  1  0  0  0
 25 26  1  0  0  0  0
 26 30  1  0  0  0  0
 27 32  1  0  0  0  0
 27 28  1  0  0  0  0
 28 29  1  0  0  0  0
 29 26  2  0  0  0  0
 31 27  2  0  0  0  0
 32 24  1  6  0  0  0
 32 25  1  0  0  0  0
M  END
>  <MODEL>
7

>  <REMARK>
 VINA RESULT:      -5.8      3.539      7.355
  Name = 
  2 active torsions:
  status: ('A' for Active; 'I' for Inactive)
    1  A    between atoms: C_16  and  C_27
    2  A    between atoms: C_27  and  C_32
                            x       y       z     vdW  Elec       q    Type
                         _______ _______ _______ _____ _____    ______ ____

>  <TORSDO>
F 2

$$$$
=
 OpenBabel10272413263D

 32 36  0  0  1  0  0  0  0  0999 V2000
  182.9690  178.2710  138.9600 C   0  0  2  0  0  3  0  0  0  0  0  0
  183.6070  174.6940  137.7170 C   0  0  0  0  0  2  0  0  0  0  0  0
  185.3900  176.5230  135.7400 C   0  0  0  0  0  2  0  0  0  0  0  0
  187.9850  172.0920  136.5300 C   0  0  0  0  0  2  0  0  0  0  0  0
  189.0790  172.3960  135.5150 C   0  0  0  0  0  2  0  0  0  0  0  0
  182.8940  176.1300  135.3450 C   0  0  1  0  0  3  0  0  0  0  0  0
  184.1180  174.0390  134.3480 C   0  0  0  0  0  2  0  0  0  0  0  0
  183.7670  177.0150  138.6330 C   0  0  0  0  0  2  0  0  0  0  0  0
  182.9520  173.8630  136.6200 C   0  0  0  0  0  2  0  0  0  0  0  0
  186.6380  172.0210  135.8900 C   0  0  0  0  0  3  0  0  0  0  0  0
  185.4860  174.1670  134.9440 C   0  0  0  0  0  0  0  0  0  0  0  0
  186.0560  173.0890  135.4180 C   0  0  0  0  0  0  0  0  0  0  0  0
  187.6600  175.4890  135.3650 C   0  0  2  0  0  3  0  0  0  0  0  0
  182.3380  178.8500  137.7240 C   0  0  0  0  0  3  0  0  0  0  0  0
  181.9730  178.0830  136.6870 C   0  0  0  0  0  3  0  0  0  0  0  0
  183.8700  179.3020  139.6050 C   0  0  0  0  0  1  0  0  0  0  0  0
  183.0190  174.5860  135.2660 C   0  0  1  0  0  3  0  0  0  0  0  0
  182.2200  176.5910  136.6510 C   0  0  2  0  0  3  0  0  0  0  0  0
  182.8550  176.0080  137.9420 C   0  0  1  0  0  3  0  0  0  0  0  0
  189.3730  173.8870  135.4550 C   0  0  0  0  0  2  0  0  0  0  0  0
  188.4360  174.5510  134.5630 N   0  0  0  0  0  2  0  0  0  0  0  0
  184.1460  176.9430  134.9730 C   0  0  0  0  0  2  0  0  0  0  0  0
  186.1830  175.5100  134.9210 C   0  0  2  0  0  3  0  0  0  0  0  0
  188.3170  176.8860  135.3790 C   0  0  0  0  0  2  0  0  0  0  0  0
  189.2110  176.2760  137.6980 C   0  0  0  0  0  2  0  0  0  0  0  0
  189.4270  176.7860  139.0970 C   0  0  0  0  0  0  0  0  0  0  0  0
  187.8780  178.4140  137.3720 C   0  0  0  0  0  0  0  0  0  0  0  0
  187.4560  178.2460  138.8040 C   0  0  0  0  0  2  0  0  0  0  0  0
  188.6060  177.7110  139.6130 C   0  0  0  0  0  3  0  0  0  0  0  0
  190.4840  176.3390  139.8230 F   0  0  0  0  0  0  0  0  0  0  0  0
  187.4740  179.3710  136.7310 O   0  0  0  0  0  0  0  0  0  0  0  0
  188.8170  177.4090  136.7360 C   0  0  2  0  0  3  0  0  0  0  0  0
  1 16  1  6  0  0  0
  5  4  1  0  0  0  0
  6 22  1  1  0  0  0
  6 18  1  0  0  0  0
  7 11  1  0  0  0  0
  8  1  1  0  0  0  0
  9  2  1  0  0  0  0
 10  4  1  0  0  0  0
 11 12  2  0  0  0  0
 12 10  2  0  0  0  0
 13 24  1  6  0  0  0
 14  1  1  0  0  0  0
 15 14  2  0  0  0  0
 17  7  1  1  0  0  0
 17  6  1  0  0  0  0
 17  9  1  0  0  0  0
 18 15  1  1  0  0  0
 18 19  1  0  0  0  0
 19  2  1  6  0  0  0
 19  8  1  0  0  0  0
 20  5  1  0  0  0  0
 21 13  1  0  0  0  0
 21 20  1  0  0  0  0
 22  3  1  0  0  0  0
 23 11  1  0  0  0  0
 23 13  1  0  0  0  0
 23  3  1  1  0  0  0
 25 26  1  0  0  0  0
 26 29  2  0  0  0  0
 26 30  1  0  0  0  0
 27 28  1  0  0  0  0
 28 29  1  0  0  0  0
 31 27  2  0  0  0  0
 32 24  1  6  0  0  0
 32 27  1  0  0  0  0
 32 25  1  0  0  0  0
M  END
>  <MODEL>
8

>  <REMARK>
 VINA RESULT:      -5.8      3.585      6.715
  Name = 
  2 active torsions:
  status: ('A' for Active; 'I' for Inactive)
    1  A    between atoms: C_16  and  C_27
    2  A    between atoms: C_27  and  C_32
                            x       y       z     vdW  Elec       q    Type
                         _______ _______ _______ _____ _____    ______ ____

>  <TORSDO>
F 2

$$$$
=
 OpenBabel10272413263D

 32 36  0  0  1  0  0  0  0  0999 V2000
  181.0480  174.3850  137.9420 C   0  0  2  0  0  3  0  0  0  0  0  0
  184.5730  173.9710  136.4750 C   0  0  0  0  0  2  0  0  0  0  0  0
  184.2870  177.1600  136.9000 C   0  0  0  0  0  2  0  0  0  0  0  0
  189.2310  175.8920  137.8730 C   0  0  0  0  0  2  0  0  0  0  0  0
  189.7100  177.3300  138.0230 C   0  0  0  0  0  2  0  0  0  0  0  0
  183.3710  175.9790  134.8260 C   0  0  1  0  0  3  0  0  0  0  0  0
  185.9200  176.3710  134.3630 C   0  0  0  0  0  2  0  0  0  0  0  0
  182.5680  174.4560  137.8900 C   0  0  0  0  0  2  0  0  0  0  0  0
  185.0980  174.0450  135.0470 C   0  0  0  0  0  2  0  0  0  0  0  0
  188.6860  175.6280  136.5070 C   0  0  0  0  0  3  0  0  0  0  0  0
  186.4350  176.7040  135.7300 C   0  0  0  0  0  0  0  0  0  0  0  0
  187.5620  176.1600  136.1140 C   0  0  0  0  0  0  0  0  0  0  0  0
  186.4010  178.1270  137.8810 C   0  0  2  0  0  3  0  0  0  0  0  0
  180.4280  175.2190  136.8570 C   0  0  0  0  0  3  0  0  0  0  0  0
  181.0420  175.4290  135.6840 C   0  0  0  0  0  3  0  0  0  0  0  0
  180.5550  174.8550  139.2940 C   0  0  0  0  0  1  0  0  0  0  0  0
  184.7410  175.3920  134.3970 C   0  0  1  0  0  3  0  0  0  0  0  0
  182.4260  174.8990  135.3830 C   0  0  2  0  0  3  0  0  0  0  0  0
  183.0430  174.0240  136.5080 C   0  0  1  0  0  3  0  0  0  0  0  0
  188.6250  178.2090  138.6260 C   0  0  0  0  0  2  0  0  0  0  0  0
  187.7190  178.6770  137.5890 N   0  0  0  0  0  2  0  0  0  0  0  0
  183.4050  177.2670  135.6670 C   0  0  0  0  0  2  0  0  0  0  0  0
  185.6800  177.6970  136.5870 C   0  0  2  0  0  3  0  0  0  0  0  0
  185.5740  179.0970  138.7520 C   0  0  0  0  0  2  0  0  0  0  0  0
  183.4280  178.9120  140.1340 C   0  0  0  0  0  2  0  0  0  0  0  0
  182.8740  178.5690  141.4910 C   0  0  0  0  0  0  0  0  0  0  0  0
  185.6930  178.7700  141.2770 C   0  0  0  0  0  0  0  0  0  0  0  0
  185.0020  179.3380  142.4850 C   0  0  0  0  0  2  0  0  0  0  0  0
  183.6140  178.7670  142.5910 C   0  0  0  0  0  3  0  0  0  0  0  0
  181.6390  178.0170  141.5970 F   0  0  0  0  0  0  0  0  0  0  0  0
  186.8830  178.5060  141.3300 O   0  0  0  0  0  0  0  0  0  0  0  0
  184.9070  178.5110  140.0080 C   0  0  2  0  0  3  0  0  0  0  0  0
  1 16  1  1  0  0  0
  4  5  1  0  0  0  0
  5 20  1  0  0  0  0
  6 18  1  0  0  0  0
  6 22  1  1  0  0  0
  7 11  1  0  0  0  0
  8  1  1  0  0  0  0
  9  2  1  0  0  0  0
 10  4  1  0  0  0  0
 11 12  2  0  0  0  0
 11 23  1  0  0  0  0
 12 10  2  0  0  0  0
 13 24  1  6  0  0  0
 14  1  1  0  0  0  0
 15 14  2  0  0  0  0
 17  7  1  1  0  0  0
 17  6  1  0  0  0  0
 17  9  1  0  0  0  0
 18 15  1  1  0  0  0
 18 19  1  0  0  0  0
 19  2  1  1  0  0  0
 19  8  1  0  0  0  0
 21 13  1  0  0  0  0
 21 20  1  0  0  0  0
 22  3  1  0  0  0  0
 23  3  1  1  0  0  0
 23 13  1  0  0  0  0
 25 26  1  0  0  0  0
 26 30  1  0  0  0  0
 26 29  2  0  0  0  0
 27 31  2  0  0  0  0
 27 28  1  0  0  0  0
 28 29  1  0  0  0  0
 32 24  1  6  0  0  0
 32 25  1  0  0  0  0
 32 27  1  0  0  0  0
M  END
>  <MODEL>
9

>  <REMARK>
 VINA RESULT:      -5.7      2.657      4.618
  Name = 
  2 active torsions:
  status: ('A' for Active; 'I' for Inactive)
    1  A    between atoms: C_16  and  C_27
    2  A    between atoms: C_27  and  C_32
                            x       y       z     vdW  Elec       q    Type
                         _______ _______ _______ _____ _____    ______ ____

>  <TORSDO>
F 2

$$$$
