=
 OpenBabel10272400103D

 34 37  0  0  1  0  0  0  0  0999 V2000
  191.3080  176.6430  144.5700 N   0  0  0  0  0  0  0  0  0  0  0  0
  188.9480  177.1950  143.8480 C   0  0  2  0  0  3  0  0  0  0  0  0
  186.8180  177.9090  142.8320 C   0  0  0  0  0  0  0  0  0  0  0  0
  187.0510  177.9240  145.3500 C   0  0  0  0  0  2  0  0  0  0  0  0
  190.0410  177.3270  144.9420 C   0  0  2  0  0  3  0  0  0  0  0  0
  185.7570  178.7270  145.3720 C   0  0  0  0  0  2  0  0  0  0  0  0
  185.4910  178.0150  142.9620 C   0  0  0  0  0  3  0  0  0  0  0  0
  189.6070  177.2750  142.4660 C   0  0  2  0  0  3  0  0  0  0  0  0
  191.0920  175.5420  143.6230 C   0  0  0  0  0  2  0  0  0  0  0  0
  187.3740  177.7180  141.5270 N   0  0  0  0  0  0  0  0  0  0  0  0
  188.6280  177.4410  141.3040 C   0  0  0  0  0  0  0  0  0  0  0  0
  184.8140  178.1790  144.2960 C   0  0  2  0  0  3  0  0  0  0  0  0
  187.7490  178.1290  144.0010 C   0  0  1  0  0  3  0  0  0  0  0  0
  190.5140  176.0460  142.2910 C   0  0  0  0  0  2  0  0  0  0  0  0
  189.1450  178.4720  137.6930 C   0  0  0  0  0  0  0  0  0  0  0  0
  190.0910  177.5330  137.2680 C   0  0  0  0  0  3  0  0  0  0  0  0
  189.1130  177.4460  139.9020 C   0  0  0  0  0  0  0  0  0  0  0  0
  190.5460  176.5490  138.1500 C   0  0  0  0  0  3  0  0  0  0  0  0
  188.6580  178.4270  139.0020 C   0  0  0  0  0  3  0  0  0  0  0  0
  190.0660  176.5110  139.4610 C   0  0  0  0  0  3  0  0  0  0  0  0
  188.7090  179.4330  136.8400 F   0  0  0  0  0  0  0  0  0  0  0  0
  191.9950  176.0800  145.7460 C   0  0  0  0  0  3  0  0  0  0  0  0
  191.1810  176.2860  147.0150 C   0  0  0  0  0  1  0  0  0  0  0  0
  192.3900  174.6130  145.5870 C   0  0  0  0  0  1  0  0  0  0  0  0
  190.3150  178.7890  145.3360 C   0  0  0  0  0  2  0  0  0  0  0  0
  191.2930  179.4730  144.3930 C   0  0  0  0  0  1  0  0  0  0  0  0
  183.0590  179.4000  145.4050 O   0  0  0  0  0  1  0  0  0  0  0  0
  183.5390  179.0100  144.1520 C   0  0  2  0  0  3  0  0  0  0  0  0
  182.5040  178.2630  143.4440 N   0  0  0  0  0  2  0  0  0  0  0  0
  181.9040  179.1390  142.4440 C   0  0  0  0  0  3  0  0  0  0  0  0
  182.0960  178.5500  141.0540 C   0  0  0  0  0  2  0  0  0  0  0  0
  183.2890  179.0130  140.4840 O   0  0  0  0  0  1  0  0  0  0  0  0
  180.4250  179.3580  142.7420 C   0  0  0  0  0  2  0  0  0  0  0  0
  180.1820  180.7210  142.9320 O   0  0  0  0  0  1  0  0  0  0  0  0
  1  5  1  0  0  0  0
  1 22  1  0  0  0  0
  2 13  1  0  0  0  0
  2  5  1  0  0  0  0
  3  7  2  0  0  0  0
  3 13  1  0  0  0  0
  4  6  1  0  0  0  0
  5 25  1  0  0  0  0
  7 12  1  0  0  0  0
  8  2  1  0  0  0  0
  9  1  1  0  0  0  0
 10  3  1  0  0  0  0
 11 10  2  0  0  0  0
 11  8  1  0  0  0  0
 12  6  1  0  0  0  0
 13  4  1  0  0  0  0
 14  8  1  0  0  0  0
 14  9  1  0  0  0  0
 15 19  1  0  0  0  0
 16 15  2  0  0  0  0
 16 18  1  0  0  0  0
 17 11  1  0  0  0  0
 18 20  2  0  0  0  0
 19 17  2  0  0  0  0
 20 17  1  0  0  0  0
 21 15  1  0  0  0  0
 22 23  1  0  0  0  0
 24 22  1  0  0  0  0
 26 25  1  0  0  0  0
 28 12  1  0  0  0  0
 28 27  1  0  0  0  0
 29 28  1  0  0  0  0
 30 33  1  0  0  0  0
 30 29  1  0  0  0  0
 31 30  1  0  0  0  0
 32 31  1  0  0  0  0
 33 34  1  0  0  0  0
M  END
>  <MODEL>
1

>  <REMARK>
 VINA RESULT:      -7.8      0.000      0.000
  Name = 
  8 active torsions:
  status: ('A' for Active; 'I' for Inactive)
    1  A    between atoms: N_1  and  C_6
    2  A    between atoms: C_2  and  C_15
    3  A    between atoms: C_11  and  CA_20
    4  A    between atoms: C_12  and  C_28
    5  A    between atoms: N_13  and  CA_20
    6  A    between atoms: N_13  and  C_33
    7  A    between atoms: CB_14  and  CA_20
    8  A    between atoms: C_29  and  C_33
                            x       y       z     vdW  Elec       q    Type
                         _______ _______ _______ _____ _____    ______ ____

>  <TORSDO>
F 8

$$$$
=
 OpenBabel10272400103D

 34 37  0  0  1  0  0  0  0  0999 V2000
  191.9530  175.4490  137.3620 N   0  0  0  0  0  0  0  0  0  0  0  0
  189.9290  176.6860  138.2410 C   0  0  2  0  0  3  0  0  0  0  0  0
  188.0360  177.7110  139.4410 C   0  0  0  0  0  0  0  0  0  0  0  0
  187.7560  177.0710  137.0110 C   0  0  0  0  0  2  0  0  0  0  0  0
  190.4920  175.6790  137.2020 C   0  0  2  0  0  3  0  0  0  0  0  0
  186.2640  177.2970  137.2190 C   0  0  0  0  0  2  0  0  0  0  0  0
  186.9280  178.4560  139.3640 C   0  0  0  0  0  3  0  0  0  0  0  0
  190.6340  176.4680  139.5850 C   0  0  2  0  0  3  0  0  0  0  0  0
  192.6330  176.5870  137.9920 C   0  0  0  0  0  2  0  0  0  0  0  0
  188.8130  177.7470  140.6420 N   0  0  0  0  0  0  0  0  0  0  0  0
  189.9870  177.1930  140.7650 C   0  0  0  0  0  0  0  0  0  0  0  0
  186.0690  178.5130  138.1300 C   0  0  2  0  0  3  0  0  0  0  0  0
  188.4070  176.7290  138.3560 C   0  0  1  0  0  3  0  0  0  0  0  0
  192.1160  176.8360  139.4190 C   0  0  0  0  0  2  0  0  0  0  0  0
  191.7050  178.2890  143.9610 C   0  0  0  0  0  0  0  0  0  0  0  0
  191.7010  177.1020  144.7010 C   0  0  0  0  0  3  0  0  0  0  0  0
  190.6070  177.1460  142.1120 C   0  0  0  0  0  0  0  0  0  0  0  0
  191.1580  175.9370  144.1530 C   0  0  0  0  0  3  0  0  0  0  0  0
  191.1620  178.3100  142.6730 C   0  0  0  0  0  3  0  0  0  0  0  0
  190.6070  175.9600  142.8690 C   0  0  0  0  0  3  0  0  0  0  0  0
  192.2230  179.4230  144.4970 F   0  0  0  0  0  0  0  0  0  0  0  0
  192.6160  175.2030  136.0690 C   0  0  0  0  0  3  0  0  0  0  0  0
  193.7530  176.1870  135.8330 C   0  0  0  0  0  1  0  0  0  0  0  0
  193.0980  173.7650  135.8870 C   0  0  0  0  0  1  0  0  0  0  0  0
  189.7340  174.3410  137.1990 C   0  0  0  0  0  2  0  0  0  0  0  0
  189.2420  173.9530  135.8120 C   0  0  0  0  0  1  0  0  0  0  0  0
  184.3820  180.0740  138.8520 O   0  0  0  0  0  1  0  0  0  0  0  0
  184.6030  178.7380  138.5060 C   0  0  2  0  0  3  0  0  0  0  0  0
  184.2090  177.8750  139.6150 N   0  0  0  0  0  2  0  0  0  0  0  0
  183.5300  178.6900  140.6160 C   0  0  0  0  0  3  0  0  0  0  0  0
  182.0780  178.2530  140.7440 C   0  0  0  0  0  2  0  0  0  0  0  0
  181.2210  179.3570  140.6380 O   0  0  0  0  0  1  0  0  0  0  0  0
  184.2460  178.5960  141.9590 C   0  0  0  0  0  2  0  0  0  0  0  0
  185.2100  179.6030  142.0470 O   0  0  0  0  0  1  0  0  0  0  0  0
  1  9  1  0  0  0  0
  2 13  1  0  0  0  0
  2  8  1  0  0  0  0
  3 10  1  0  0  0  0
  4  6  1  0  0  0  0
  4 13  1  0  0  0  0
  5  1  1  0  0  0  0
  5  2  1  0  0  0  0
  6 12  1  0  0  0  0
  7  3  2  0  0  0  0
  8 11  1  0  0  0  0
  9 14  1  0  0  0  0
 10 11  2  0  0  0  0
 11 17  1  0  0  0  0
 12 28  1  0  0  0  0
 12  7  1  0  0  0  0
 13  3  1  0  0  0  0
 14  8  1  0  0  0  0
 15 21  1  0  0  0  0
 15 16  1  0  0  0  0
 17 19  1  0  0  0  0
 17 20  2  0  0  0  0
 18 16  2  0  0  0  0
 19 15  2  0  0  0  0
 20 18  1  0  0  0  0
 22  1  1  0  0  0  0
 23 22  1  0  0  0  0
 24 22  1  0  0  0  0
 25  5  1  0  0  0  0
 26 25  1  0  0  0  0
 28 27  1  0  0  0  0
 28 29  1  0  0  0  0
 29 30  1  0  0  0  0
 30 31  1  0  0  0  0
 30 33  1  0  0  0  0
 32 31  1  0  0  0  0
 33 34  1  0  0  0  0
M  END
>  <MODEL>
2

>  <REMARK>
 VINA RESULT:      -7.5      2.881      6.347
  Name = 
  8 active torsions:
  status: ('A' for Active; 'I' for Inactive)
    1  A    between atoms: N_1  and  C_6
    2  A    between atoms: C_2  and  C_15
    3  A    between atoms: C_11  and  CA_20
    4  A    between atoms: C_12  and  C_28
    5  A    between atoms: N_13  and  CA_20
    6  A    between atoms: N_13  and  C_33
    7  A    between atoms: CB_14  and  CA_20
    8  A    between atoms: C_29  and  C_33
                            x       y       z     vdW  Elec       q    Type
                         _______ _______ _______ _____ _____    ______ ____

>  <TORSDO>
F 8

$$$$
=
 OpenBabel10272400103D

 34 37  0  0  1  0  0  0  0  0999 V2000
  188.9880  176.9580  145.2340 N   0  0  0  0  0  0  0  0  0  0  0  0
  188.5060  177.7450  142.8790 C   0  0  2  0  0  3  0  0  0  0  0  0
  187.6700  178.3730  140.6460 C   0  0  0  0  0  0  0  0  0  0  0  0
  190.0500  177.5550  140.8880 C   0  0  0  0  0  2  0  0  0  0  0  0
  189.3660  176.8390  143.8000 C   0  0  2  0  0  3  0  0  0  0  0  0
  190.0690  177.4450  139.3690 C   0  0  0  0  0  2  0  0  0  0  0  0
  187.9620  178.8400  139.4270 C   0  0  0  0  0  3  0  0  0  0  0  0
  187.0640  177.7670  143.4000 C   0  0  2  0  0  3  0  0  0  0  0  0
  188.3720  178.2540  145.5440 C   0  0  0  0  0  2  0  0  0  0  0  0
  186.3820  178.6500  141.2040 N   0  0  0  0  0  0  0  0  0  0  0  0
  186.0510  178.3870  142.4370 C   0  0  0  0  0  0  0  0  0  0  0  0
  189.3030  178.6320  138.7760 C   0  0  2  0  0  3  0  0  0  0  0  0
  188.6040  177.4440  141.3850 C   0  0  1  0  0  3  0  0  0  0  0  0
  187.0570  178.4540  144.7740 C   0  0  0  0  0  2  0  0  0  0  0  0
  182.2740  178.6450  142.2370 C   0  0  0  0  0  0  0  0  0  0  0  0
  181.9320  178.7780  143.5860 C   0  0  0  0  0  3  0  0  0  0  0  0
  184.6330  178.5560  142.8390 C   0  0  0  0  0  0  0  0  0  0  0  0
  182.9320  178.8060  144.5630 C   0  0  0  0  0  3  0  0  0  0  0  0
  183.6170  178.5360  141.8650 C   0  0  0  0  0  3  0  0  0  0  0  0
  184.2740  178.6880  144.1920 C   0  0  0  0  0  3  0  0  0  0  0  0
  181.3030  178.6080  141.2890 F   0  0  0  0  0  0  0  0  0  0  0  0
  190.1510  176.8010  146.1250 C   0  0  0  0  0  3  0  0  0  0  0  0
  191.3800  177.4990  145.5600 C   0  0  0  0  0  1  0  0  0  0  0  0
  189.8900  177.2430  147.5630 C   0  0  0  0  0  1  0  0  0  0  0  0
  189.3570  175.3640  143.3620 C   0  0  0  0  0  2  0  0  0  0  0  0
  190.7550  174.7700  143.2880 C   0  0  0  0  0  1  0  0  0  0  0  0
  188.0380  179.2590  136.8240 O   0  0  0  0  0  1  0  0  0  0  0  0
  189.1520  178.5360  137.2570 C   0  0  2  0  0  3  0  0  0  0  0  0
  189.0270  177.1450  136.8300 N   0  0  0  0  0  2  0  0  0  0  0  0
  187.7210  176.9690  136.2070 C   0  0  0  0  0  3  0  0  0  0  0  0
  187.8810  176.3230  134.8380 C   0  0  0  0  0  2  0  0  0  0  0  0
  189.2020  175.8960  134.6470 O   0  0  0  0  0  1  0  0  0  0  0  0
  186.8100  176.1330  137.0980 C   0  0  0  0  0  2  0  0  0  0  0  0
  185.6640  176.8670  137.4160 O   0  0  0  0  0  1  0  0  0  0  0  0
  1  9  1  0  0  0  0
  1 22  1  0  0  0  0
  2  8  1  0  0  0  0
  2  5  1  0  0  0  0
  3 10  1  0  0  0  0
  3 13  1  0  0  0  0
  4 13  1  0  0  0  0
  5  1  1  0  0  0  0
  6  4  1  0  0  0  0
  7  3  2  0  0  0  0
  8 14  1  0  0  0  0
 10 11  2  0  0  0  0
 11 17  1  0  0  0  0
 11  8  1  0  0  0  0
 12  6  1  0  0  0  0
 12  7  1  0  0  0  0
 13  2  1  0  0  0  0
 14  9  1  0  0  0  0
 15 16  1  0  0  0  0
 16 18  2  0  0  0  0
 17 20  2  0  0  0  0
 19 15  2  0  0  0  0
 19 17  1  0  0  0  0
 20 18  1  0  0  0  0
 21 15  1  0  0  0  0
 22 24  1  0  0  0  0
 23 22  1  0  0  0  0
 25  5  1  0  0  0  0
 26 25  1  0  0  0  0
 27 28  1  0  0  0  0
 28 12  1  0  0  0  0
 29 28  1  0  0  0  0
 30 29  1  0  0  0  0
 30 33  1  0  0  0  0
 31 30  1  0  0  0  0
 32 31  1  0  0  0  0
 33 34  1  0  0  0  0
M  END
>  <MODEL>
3

>  <REMARK>
 VINA RESULT:      -7.4      3.075      6.510
  Name = 
  8 active torsions:
  status: ('A' for Active; 'I' for Inactive)
    1  A    between atoms: N_1  and  C_6
    2  A    between atoms: C_2  and  C_15
    3  A    between atoms: C_11  and  CA_20
    4  A    between atoms: C_12  and  C_28
    5  A    between atoms: N_13  and  CA_20
    6  A    between atoms: N_13  and  C_33
    7  A    between atoms: CB_14  and  CA_20
    8  A    between atoms: C_29  and  C_33
                            x       y       z     vdW  Elec       q    Type
                         _______ _______ _______ _____ _____    ______ ____

>  <TORSDO>
F 8

$$$$
=
 OpenBabel10272400103D

 34 37  0  0  1  0  0  0  0  0999 V2000
  192.0960  175.4220  137.3710 N   0  0  0  0  0  0  0  0  0  0  0  0
  190.0300  176.6450  138.1680 C   0  0  2  0  0  3  0  0  0  0  0  0
  188.0860  177.6610  139.2930 C   0  0  0  0  0  0  0  0  0  0  0  0
  187.8950  176.9910  136.8620 C   0  0  0  0  0  2  0  0  0  0  0  0
  190.6390  175.6340  137.1600 C   0  0  2  0  0  3  0  0  0  0  0  0
  186.3950  177.2030  137.0170 C   0  0  0  0  0  2  0  0  0  0  0  0
  186.9730  178.3920  139.1700 C   0  0  0  0  0  3  0  0  0  0  0  0
  190.6910  176.4500  139.5370 C   0  0  2  0  0  3  0  0  0  0  0  0
  192.7410  176.5750  138.0110 C   0  0  0  0  0  2  0  0  0  0  0  0
  188.8220  177.7180  140.5180 N   0  0  0  0  0  0  0  0  0  0  0  0
  189.9970  177.1790  140.6870 C   0  0  0  0  0  0  0  0  0  0  0  0
  186.1550  178.4260  137.9070 C   0  0  2  0  0  3  0  0  0  0  0  0
  188.5040  176.6710  138.2310 C   0  0  1  0  0  3  0  0  0  0  0  0
  192.1740  176.8330  139.4160 C   0  0  0  0  0  2  0  0  0  0  0  0
  191.6560  178.3160  143.9000 C   0  0  0  0  0  0  0  0  0  0  0  0
  191.5810  177.1560  144.6780 C   0  0  0  0  0  3  0  0  0  0  0  0
  190.5710  177.1540  142.0540 C   0  0  0  0  0  0  0  0  0  0  0  0
  191.0080  175.9950  144.1510 C   0  0  0  0  0  3  0  0  0  0  0  0
  191.1560  178.3140  142.5950 C   0  0  0  0  0  3  0  0  0  0  0  0
  190.5000  175.9960  142.8490 C   0  0  0  0  0  3  0  0  0  0  0  0
  192.2040  179.4460  144.4150 F   0  0  0  0  0  0  0  0  0  0  0  0
  192.8050  175.1700  136.1040 C   0  0  0  0  0  3  0  0  0  0  0  0
  193.8780  176.2200  135.8510 C   0  0  0  0  0  1  0  0  0  0  0  0
  193.3870  173.7620  135.9930 C   0  0  0  0  0  1  0  0  0  0  0  0
  189.8970  174.2870  137.1450 C   0  0  0  0  0  2  0  0  0  0  0  0
  189.4610  173.8760  135.7470 C   0  0  0  0  0  1  0  0  0  0  0  0
  184.5110  179.7140  139.1070 O   0  0  0  0  0  1  0  0  0  0  0  0
  184.6750  178.6380  138.2310 C   0  0  2  0  0  3  0  0  0  0  0  0
  184.0910  177.4360  138.8190 N   0  0  0  0  0  2  0  0  0  0  0  0
  182.7630  177.2420  138.2480 C   0  0  0  0  0  3  0  0  0  0  0  0
  182.6050  175.8030  137.7760 C   0  0  0  0  0  2  0  0  0  0  0  0
  183.7490  175.0560  138.0860 O   0  0  0  0  0  1  0  0  0  0  0  0
  181.6850  177.6020  139.2630 C   0  0  0  0  0  2  0  0  0  0  0  0
  181.2020  176.4380  139.8660 O   0  0  0  0  0  1  0  0  0  0  0  0
  1  9  1  0  0  0  0
  2 13  1  0  0  0  0
  2  8  1  0  0  0  0
  3 10  1  0  0  0  0
  4  6  1  0  0  0  0
  4 13  1  0  0  0  0
  5  1  1  0  0  0  0
  5  2  1  0  0  0  0
  6 12  1  0  0  0  0
  7  3  2  0  0  0  0
  8 11  1  0  0  0  0
  9 14  1  0  0  0  0
 10 11  2  0  0  0  0
 11 17  1  0  0  0  0
 12 28  1  0  0  0  0
 12  7  1  0  0  0  0
 13  3  1  0  0  0  0
 14  8  1  0  0  0  0
 15 21  1  0  0  0  0
 15 16  1  0  0  0  0
 17 19  1  0  0  0  0
 17 20  2  0  0  0  0
 18 16  2  0  0  0  0
 19 15  2  0  0  0  0
 20 18  1  0  0  0  0
 22  1  1  0  0  0  0
 23 22  1  0  0  0  0
 24 22  1  0  0  0  0
 25  5  1  0  0  0  0
 26 25  1  0  0  0  0
 28 29  1  0  0  0  0
 28 27  1  0  0  0  0
 30 29  1  0  0  0  0
 30 33  1  0  0  0  0
 31 32  1  0  0  0  0
 31 30  1  0  0  0  0
 33 34  1  0  0  0  0
M  END
>  <MODEL>
4

>  <REMARK>
 VINA RESULT:      -7.1      3.558      6.517
  Name = 
  8 active torsions:
  status: ('A' for Active; 'I' for Inactive)
    1  A    between atoms: N_1  and  C_6
    2  A    between atoms: C_2  and  C_15
    3  A    between atoms: C_11  and  CA_20
    4  A    between atoms: C_12  and  C_28
    5  A    between atoms: N_13  and  CA_20
    6  A    between atoms: N_13  and  C_33
    7  A    between atoms: CB_14  and  CA_20
    8  A    between atoms: C_29  and  C_33
                            x       y       z     vdW  Elec       q    Type
                         _______ _______ _______ _____ _____    ______ ____

>  <TORSDO>
F 8

$$$$
=
 OpenBabel10272400103D

 34 37  0  0  1  0  0  0  0  0999 V2000
  187.5920  177.2560  136.7730 N   0  0  0  0  0  0  0  0  0  0  0  0
  187.3690  177.5430  139.2770 C   0  0  2  0  0  3  0  0  0  0  0  0
  186.9100  178.1240  141.6280 C   0  0  0  0  0  0  0  0  0  0  0  0
  189.2220  177.3310  140.9820 C   0  0  0  0  0  2  0  0  0  0  0  0
  188.3170  177.5100  138.0470 C   0  0  2  0  0  3  0  0  0  0  0  0
  189.6690  177.8070  142.3570 C   0  0  0  0  0  2  0  0  0  0  0  0
  187.2070  177.9160  142.9150 C   0  0  0  0  0  3  0  0  0  0  0  0
  186.0500  178.2150  138.8770 C   0  0  2  0  0  3  0  0  0  0  0  0
  186.3380  176.5210  136.9800 C   0  0  0  0  0  2  0  0  0  0  0  0
  185.5750  178.5000  141.2760 N   0  0  0  0  0  0  0  0  0  0  0  0
  185.1370  178.5680  140.0500 C   0  0  0  0  0  0  0  0  0  0  0  0
  188.5720  177.4820  143.3760 C   0  0  2  0  0  3  0  0  0  0  0  0
  187.9750  178.1150  140.5570 C   0  0  1  0  0  3  0  0  0  0  0  0
  185.3490  177.3230  137.8410 C   0  0  0  0  0  2  0  0  0  0  0  0
  181.4280  179.2740  140.3930 C   0  0  0  0  0  0  0  0  0  0  0  0
  181.2490  180.2870  139.4460 C   0  0  0  0  0  3  0  0  0  0  0  0
  183.7900  179.1440  139.8130 C   0  0  0  0  0  0  0  0  0  0  0  0
  182.3310  180.7280  138.6780 C   0  0  0  0  0  3  0  0  0  0  0  0
  182.6920  178.7040  140.5740 C   0  0  0  0  0  3  0  0  0  0  0  0
  183.5950  180.1650  138.8660 C   0  0  0  0  0  3  0  0  0  0  0  0
  180.3800  178.8520  141.1450 F   0  0  0  0  0  0  0  0  0  0  0  0
  188.4060  176.4760  135.8240 C   0  0  0  0  0  3  0  0  0  0  0  0
  189.0830  175.2990  136.5110 C   0  0  0  0  0  1  0  0  0  0  0  0
  187.6360  176.0130  134.5880 C   0  0  0  0  0  1  0  0  0  0  0  0
  189.1840  178.7750  137.9290 C   0  0  0  0  0  2  0  0  0  0  0  0
  188.6140  179.7830  136.9430 C   0  0  0  0  0  1  0  0  0  0  0  0
  190.2480  178.0410  145.0130 O   0  0  0  0  0  1  0  0  0  0  0  0
  188.8730  178.0440  144.7660 C   0  0  2  0  0  3  0  0  0  0  0  0
  188.1900  177.2730  145.8010 N   0  0  0  0  0  2  0  0  0  0  0  0
  187.4110  178.1920  146.6220 C   0  0  0  0  0  3  0  0  0  0  0  0
  185.9260  178.0030  146.3470 C   0  0  0  0  0  2  0  0  0  0  0  0
  185.1610  178.8310  147.1820 O   0  0  0  0  0  1  0  0  0  0  0  0
  187.7200  177.9850  148.1010 C   0  0  0  0  0  2  0  0  0  0  0  0
  189.0960  178.1070  148.3130 O   0  0  0  0  0  1  0  0  0  0  0  0
  1  9  1  0  0  0  0
  1  5  1  0  0  0  0
  2 13  1  0  0  0  0
  3  7  2  0  0  0  0
  4  6  1  0  0  0  0
  5  2  1  0  0  0  0
  6 12  1  0  0  0  0
  7 12  1  0  0  0  0
  8  2  1  0  0  0  0
  8 11  1  0  0  0  0
  9 14  1  0  0  0  0
 10  3  1  0  0  0  0
 11 10  2  0  0  0  0
 12 28  1  0  0  0  0
 13  4  1  0  0  0  0
 13  3  1  0  0  0  0
 14  8  1  0  0  0  0
 15 19  1  0  0  0  0
 15 21  1  0  0  0  0
 16 15  2  0  0  0  0
 17 11  1  0  0  0  0
 17 19  2  0  0  0  0
 18 20  2  0  0  0  0
 18 16  1  0  0  0  0
 20 17  1  0  0  0  0
 22 23  1  0  0  0  0
 22  1  1  0  0  0  0
 24 22  1  0  0  0  0
 25  5  1  0  0  0  0
 26 25  1  0  0  0  0
 28 27  1  0  0  0  0
 28 29  1  0  0  0  0
 29 30  1  0  0  0  0
 30 33  1  0  0  0  0
 31 30  1  0  0  0  0
 31 32  1  0  0  0  0
 33 34  1  0  0  0  0
M  END
>  <MODEL>
5

>  <REMARK>
 VINA RESULT:      -7.0      3.261      7.278
  Name = 
  8 active torsions:
  status: ('A' for Active; 'I' for Inactive)
    1  A    between atoms: N_1  and  C_6
    2  A    between atoms: C_2  and  C_15
    3  A    between atoms: C_11  and  CA_20
    4  A    between atoms: C_12  and  C_28
    5  A    between atoms: N_13  and  CA_20
    6  A    between atoms: N_13  and  C_33
    7  A    between atoms: CB_14  and  CA_20
    8  A    between atoms: C_29  and  C_33
                            x       y       z     vdW  Elec       q    Type
                         _______ _______ _______ _____ _____    ______ ____

>  <TORSDO>
F 8

$$$$
=
 OpenBabel10272400103D

 34 37  0  0  1  0  0  0  0  0999 V2000
  186.5700  177.2510  136.4120 N   0  0  0  0  0  0  0  0  0  0  0  0
  186.6690  177.6140  138.9130 C   0  0  2  0  0  3  0  0  0  0  0  0
  186.5280  178.2780  141.2830 C   0  0  0  0  0  0  0  0  0  0  0  0
  188.7070  177.3620  140.3860 C   0  0  0  0  0  2  0  0  0  0  0  0
  187.4560  177.5050  137.5790 C   0  0  2  0  0  3  0  0  0  0  0  0
  189.3400  177.8520  141.6810 C   0  0  0  0  0  2  0  0  0  0  0  0
  186.9720  178.0910  142.5310 C   0  0  0  0  0  3  0  0  0  0  0  0
  185.3410  178.3360  138.6560 C   0  0  2  0  0  3  0  0  0  0  0  0
  185.3200  176.5810  136.7930 C   0  0  0  0  0  2  0  0  0  0  0  0
  185.1770  178.7060  141.0850 N   0  0  0  0  0  0  0  0  0  0  0  0
  184.5950  178.7620  139.9200 C   0  0  0  0  0  0  0  0  0  0  0  0
  188.3630  177.6050  142.8350 C   0  0  2  0  0  3  0  0  0  0  0  0
  187.4520  178.1910  140.0920 C   0  0  1  0  0  3  0  0  0  0  0  0
  184.4790  177.4510  137.7420 C   0  0  0  0  0  2  0  0  0  0  0  0
  181.7590  181.0090  138.7900 C   0  0  0  0  0  0  0  0  0  0  0  0
  180.7010  180.5390  139.5750 C   0  0  0  0  0  3  0  0  0  0  0  0
  183.2550  179.3930  139.8300 C   0  0  0  0  0  0  0  0  0  0  0  0
  180.9140  179.5040  140.4900 C   0  0  0  0  0  3  0  0  0  0  0  0
  183.0290  180.4410  138.9180 C   0  0  0  0  0  3  0  0  0  0  0  0
  182.1820  178.9290  140.6110 C   0  0  0  0  0  3  0  0  0  0  0  0
  181.5500  182.0080  137.8950 F   0  0  0  0  0  0  0  0  0  0  0  0
  187.2260  176.4100  135.3960 C   0  0  0  0  0  3  0  0  0  0  0  0
  188.0350  175.2930  136.0390 C   0  0  0  0  0  1  0  0  0  0  0  0
  186.2670  175.8490  134.3470 C   0  0  0  0  0  1  0  0  0  0  0  0
  188.3550  178.7250  137.3170 C   0  0  0  0  0  2  0  0  0  0  0  0
  189.8060  178.3370  137.0710 C   0  0  0  0  0  1  0  0  0  0  0  0
  190.0920  178.8200  143.9920 O   0  0  0  0  0  1  0  0  0  0  0  0
  188.8570  178.1890  144.1600 C   0  0  2  0  0  3  0  0  0  0  0  0
  188.9750  177.1490  145.1780 N   0  0  0  0  0  2  0  0  0  0  0  0
  189.2350  177.7890  146.4630 C   0  0  0  0  0  3  0  0  0  0  0  0
  187.9540  177.8470  147.2840 C   0  0  0  0  0  2  0  0  0  0  0  0
  188.2320  178.2340  148.6020 O   0  0  0  0  0  1  0  0  0  0  0  0
  190.3310  177.0470  147.2190 C   0  0  0  0  0  2  0  0  0  0  0  0
  191.3360  176.6620  146.3280 O   0  0  0  0  0  1  0  0  0  0  0  0
  1  9  1  0  0  0  0
  1  5  1  0  0  0  0
  2 13  1  0  0  0  0
  3  7  2  0  0  0  0
  4  6  1  0  0  0  0
  5  2  1  0  0  0  0
  6 12  1  0  0  0  0
  7 12  1  0  0  0  0
  8  2  1  0  0  0  0
  8 11  1  0  0  0  0
  9 14  1  0  0  0  0
 10  3  1  0  0  0  0
 11 10  2  0  0  0  0
 12 28  1  0  0  0  0
 13  4  1  0  0  0  0
 13  3  1  0  0  0  0
 14  8  1  0  0  0  0
 15 19  2  0  0  0  0
 15 16  1  0  0  0  0
 16 18  2  0  0  0  0
 17 11  1  0  0  0  0
 17 20  2  0  0  0  0
 18 20  1  0  0  0  0
 19 17  1  0  0  0  0
 21 15  1  0  0  0  0
 22 23  1  0  0  0  0
 22  1  1  0  0  0  0
 24 22  1  0  0  0  0
 25  5  1  0  0  0  0
 26 25  1  0  0  0  0
 27 28  1  0  0  0  0
 28 29  1  0  0  0  0
 29 30  1  0  0  0  0
 30 33  1  0  0  0  0
 30 31  1  0  0  0  0
 31 32  1  0  0  0  0
 34 33  1  0  0  0  0
M  END
>  <MODEL>
6

>  <REMARK>
 VINA RESULT:      -6.8      3.572      7.925
  Name = 
  8 active torsions:
  status: ('A' for Active; 'I' for Inactive)
    1  A    between atoms: N_1  and  C_6
    2  A    between atoms: C_2  and  C_15
    3  A    between atoms: C_11  and  CA_20
    4  A    between atoms: C_12  and  C_28
    5  A    between atoms: N_13  and  CA_20
    6  A    between atoms: N_13  and  C_33
    7  A    between atoms: CB_14  and  CA_20
    8  A    between atoms: C_29  and  C_33
                            x       y       z     vdW  Elec       q    Type
                         _______ _______ _______ _____ _____    ______ ____

>  <TORSDO>
F 8

$$$$
=
 OpenBabel10272400103D

 34 37  0  0  1  0  0  0  0  0999 V2000
  187.3480  177.4210  145.1310 N   0  0  0  0  0  0  0  0  0  0  0  0
  187.3560  178.0310  142.6760 C   0  0  2  0  0  3  0  0  0  0  0  0
  187.0080  178.4500  140.2720 C   0  0  0  0  0  0  0  0  0  0  0  0
  189.3330  177.9150  141.1080 C   0  0  0  0  0  2  0  0  0  0  0  0
  188.0600  177.2730  143.8340 C   0  0  2  0  0  3  0  0  0  0  0  0
  189.7170  177.7320  139.6460 C   0  0  0  0  0  2  0  0  0  0  0  0
  187.5310  178.8850  139.1200 C   0  0  0  0  0  3  0  0  0  0  0  0
  185.8360  177.9180  142.8530 C   0  0  2  0  0  3  0  0  0  0  0  0
  186.5540  178.6550  145.1960 C   0  0  0  0  0  2  0  0  0  0  0  0
  185.6050  178.6090  140.5000 N   0  0  0  0  0  0  0  0  0  0  0  0
  185.0220  178.3730  141.6420 C   0  0  0  0  0  0  0  0  0  0  0  0
  189.0000  178.7950  138.8080 C   0  0  2  0  0  3  0  0  0  0  0  0
  187.8290  177.6690  141.2700 C   0  0  1  0  0  3  0  0  0  0  0  0
  185.4420  178.6680  144.1340 C   0  0  0  0  0  2  0  0  0  0  0  0
  181.4910  178.8430  142.9400 C   0  0  0  0  0  0  0  0  0  0  0  0
  180.7350  178.5590  141.7980 C   0  0  0  0  0  3  0  0  0  0  0  0
  183.5390  178.4030  141.6970 C   0  0  0  0  0  0  0  0  0  0  0  0
  181.3720  178.1930  140.6090 C   0  0  0  0  0  3  0  0  0  0  0  0
  182.8860  178.7630  142.8900 C   0  0  0  0  0  3  0  0  0  0  0  0
  182.7660  178.1230  140.5570 C   0  0  0  0  0  3  0  0  0  0  0  0
  180.8740  179.2070  144.0920 F   0  0  0  0  0  0  0  0  0  0  0  0
  188.2800  177.4390  146.2720 C   0  0  0  0  0  3  0  0  0  0  0  0
  189.5830  178.1390  145.9120 C   0  0  0  0  0  1  0  0  0  0  0  0
  187.6820  178.0290  147.5480 C   0  0  0  0  0  1  0  0  0  0  0  0
  188.2960  175.7870  143.5160 C   0  0  0  0  0  2  0  0  0  0  0  0
  189.7670  175.4630  143.3050 C   0  0  0  0  0  1  0  0  0  0  0  0
  188.0180  178.7620  136.6080 O   0  0  0  0  0  1  0  0  0  0  0  0
  189.2190  178.6070  137.3050 C   0  0  2  0  0  3  0  0  0  0  0  0
  189.7830  177.2910  137.0190 N   0  0  0  0  0  2  0  0  0  0  0  0
  188.7990  176.5210  136.2660 C   0  0  0  0  0  3  0  0  0  0  0  0
  189.2870  176.3110  134.8390 C   0  0  0  0  0  2  0  0  0  0  0  0
  190.6580  176.0210  134.8250 O   0  0  0  0  0  1  0  0  0  0  0  0
  188.5250  175.1860  136.9480 C   0  0  0  0  0  2  0  0  0  0  0  0
  189.6880  174.7350  137.5770 O   0  0  0  0  0  1  0  0  0  0  0  0
  1  9  1  0  0  0  0
  1 22  1  0  0  0  0
  2  8  1  0  0  0  0
  2  5  1  0  0  0  0
  3 10  1  0  0  0  0
  3 13  1  0  0  0  0
  4 13  1  0  0  0  0
  5  1  1  0  0  0  0
  6  4  1  0  0  0  0
  7  3  2  0  0  0  0
  8 14  1  0  0  0  0
 10 11  2  0  0  0  0
 11 17  1  0  0  0  0
 11  8  1  0  0  0  0
 12  7  1  0  0  0  0
 12  6  1  0  0  0  0
 13  2  1  0  0  0  0
 14  9  1  0  0  0  0
 15 21  1  0  0  0  0
 16 15  2  0  0  0  0
 17 19  2  0  0  0  0
 18 16  1  0  0  0  0
 19 15  1  0  0  0  0
 20 18  2  0  0  0  0
 20 17  1  0  0  0  0
 22 24  1  0  0  0  0
 23 22  1  0  0  0  0
 25  5  1  0  0  0  0
 26 25  1  0  0  0  0
 27 28  1  0  0  0  0
 28 12  1  0  0  0  0
 29 28  1  0  0  0  0
 30 33  1  0  0  0  0
 30 29  1  0  0  0  0
 31 30  1  0  0  0  0
 32 31  1  0  0  0  0
 33 34  1  0  0  0  0
M  END
>  <MODEL>
7

>  <REMARK>
 VINA RESULT:      -6.7      3.695      7.185
  Name = 
  8 active torsions:
  status: ('A' for Active; 'I' for Inactive)
    1  A    between atoms: N_1  and  C_6
    2  A    between atoms: C_2  and  C_15
    3  A    between atoms: C_11  and  CA_20
    4  A    between atoms: C_12  and  C_28
    5  A    between atoms: N_13  and  CA_20
    6  A    between atoms: N_13  and  C_33
    7  A    between atoms: CB_14  and  CA_20
    8  A    between atoms: C_29  and  C_33
                            x       y       z     vdW  Elec       q    Type
                         _______ _______ _______ _____ _____    ______ ____

>  <TORSDO>
F 8

$$$$
=
 OpenBabel10272400103D

 34 37  0  0  1  0  0  0  0  0999 V2000
  188.3970  176.4120  135.1870 N   0  0  0  0  0  0  0  0  0  0  0  0
  189.6990  176.7590  137.3280 C   0  0  2  0  0  3  0  0  0  0  0  0
  191.1790  176.7810  139.3000 C   0  0  0  0  0  0  0  0  0  0  0  0
  188.7440  177.4050  139.5770 C   0  0  0  0  0  2  0  0  0  0  0  0
  188.3190  176.4900  136.6710 C   0  0  2  0  0  3  0  0  0  0  0  0
  188.9820  177.2920  141.0770 C   0  0  0  0  0  2  0  0  0  0  0  0
  191.4420  177.3070  140.5010 C   0  0  0  0  0  3  0  0  0  0  0  0
  190.7820  175.9980  136.5530 C   0  0  2  0  0  3  0  0  0  0  0  0
  189.5360  177.1660  134.6470 C   0  0  0  0  0  2  0  0  0  0  0  0
  192.2660  176.3200  138.4920 N   0  0  0  0  0  0  0  0  0  0  0  0
  192.1410  175.9440  137.2500 C   0  0  0  0  0  0  0  0  0  0  0  0
  190.3690  177.8530  141.4030 C   0  0  2  0  0  3  0  0  0  0  0  0
  189.7630  176.5310  138.8370 C   0  0  1  0  0  3  0  0  0  0  0  0
  190.8760  176.5980  135.1410 C   0  0  0  0  0  2  0  0  0  0  0  0
  195.4760  175.5390  135.4930 C   0  0  0  0  0  0  0  0  0  0  0  0
  195.5730  174.1470  135.3970 C   0  0  0  0  0  3  0  0  0  0  0  0
  193.3080  175.3170  136.5820 C   0  0  0  0  0  0  0  0  0  0  0  0
  194.5430  173.3380  135.8850 C   0  0  0  0  0  3  0  0  0  0  0  0
  194.3490  176.1210  136.0810 C   0  0  0  0  0  3  0  0  0  0  0  0
  193.4210  173.9190  136.4800 C   0  0  0  0  0  3  0  0  0  0  0  0
  196.4800  176.3250  135.0280 F   0  0  0  0  0  0  0  0  0  0  0  0
  187.1790  176.9360  134.5430 C   0  0  0  0  0  3  0  0  0  0  0  0
  186.1370  175.8420  134.3570 C   0  0  0  0  0  1  0  0  0  0  0  0
  186.5760  178.1440  135.2560 C   0  0  0  0  0  1  0  0  0  0  0  0
  187.6210  175.2430  137.2390 C   0  0  0  0  0  2  0  0  0  0  0  0
  188.1530  173.9520  136.6340 C   0  0  0  0  0  1  0  0  0  0  0  0
  191.9720  176.9870  142.9790 O   0  0  0  0  0  1  0  0  0  0  0  0
  190.7520  177.6600  142.8720 C   0  0  2  0  0  3  0  0  0  0  0  0
  189.7200  176.9170  143.5880 N   0  0  0  0  0  2  0  0  0  0  0  0
  189.5570  177.5110  144.9100 C   0  0  0  0  0  3  0  0  0  0  0  0
  188.0790  177.5910  145.2650 C   0  0  0  0  0  2  0  0  0  0  0  0
  187.3050  177.7830  144.1130 O   0  0  0  0  0  1  0  0  0  0  0  0
  190.3240  176.7100  145.9560 C   0  0  0  0  0  2  0  0  0  0  0  0
  191.6030  177.2500  146.1130 O   0  0  0  0  0  1  0  0  0  0  0  0
  1  5  1  0  0  0  0
  2 13  1  0  0  0  0
  3  7  2  0  0  0  0
  4  6  1  0  0  0  0
  5 25  1  0  0  0  0
  5  2  1  0  0  0  0
  6 12  1  0  0  0  0
  7 12  1  0  0  0  0
  8 11  1  0  0  0  0
  8  2  1  0  0  0  0
  9 14  1  0  0  0  0
  9  1  1  0  0  0  0
 10  3  1  0  0  0  0
 11 10  2  0  0  0  0
 12 28  1  0  0  0  0
 13  3  1  0  0  0  0
 13  4  1  0  0  0  0
 14  8  1  0  0  0  0
 15 19  1  0  0  0  0
 16 15  2  0  0  0  0
 16 18  1  0  0  0  0
 17 11  1  0  0  0  0
 18 20  2  0  0  0  0
 19 17  2  0  0  0  0
 20 17  1  0  0  0  0
 21 15  1  0  0  0  0
 22  1  1  0  0  0  0
 22 24  1  0  0  0  0
 23 22  1  0  0  0  0
 26 25  1  0  0  0  0
 28 27  1  0  0  0  0
 28 29  1  0  0  0  0
 29 30  1  0  0  0  0
 30 31  1  0  0  0  0
 30 33  1  0  0  0  0
 32 31  1  0  0  0  0
 33 34  1  0  0  0  0
M  END
>  <MODEL>
8

>  <REMARK>
 VINA RESULT:      -6.3      4.240      8.176
  Name = 
  8 active torsions:
  status: ('A' for Active; 'I' for Inactive)
    1  A    between atoms: N_1  and  C_6
    2  A    between atoms: C_2  and  C_15
    3  A    between atoms: C_11  and  CA_20
    4  A    between atoms: C_12  and  C_28
    5  A    between atoms: N_13  and  CA_20
    6  A    between atoms: N_13  and  C_33
    7  A    between atoms: CB_14  and  CA_20
    8  A    between atoms: C_29  and  C_33
                            x       y       z     vdW  Elec       q    Type
                         _______ _______ _______ _____ _____    ______ ____

>  <TORSDO>
F 8

$$$$
=
 OpenBabel10272400103D

 34 37  0  0  1  0  0  0  0  0999 V2000
  181.5640  175.7930  136.8930 N   0  0  0  0  0  0  0  0  0  0  0  0
  183.6650  176.7740  137.9040 C   0  0  2  0  0  3  0  0  0  0  0  0
  185.4690  177.9970  139.0550 C   0  0  0  0  0  0  0  0  0  0  0  0
  185.9040  177.0260  136.7600 C   0  0  0  0  0  2  0  0  0  0  0  0
  182.8990  176.3850  136.6110 C   0  0  2  0  0  3  0  0  0  0  0  0
  187.1760  177.8630  136.7480 C   0  0  0  0  0  2  0  0  0  0  0  0
  186.7860  178.1560  139.2280 C   0  0  0  0  0  3  0  0  0  0  0  0
  182.6680  177.3230  138.9320 C   0  0  2  0  0  3  0  0  0  0  0  0
  181.5010  175.1610  138.2170 C   0  0  0  0  0  2  0  0  0  0  0  0
  184.5880  178.2760  140.1460 N   0  0  0  0  0  0  0  0  0  0  0  0
  183.3130  178.0030  140.1400 C   0  0  0  0  0  0  0  0  0  0  0  0
  187.7920  177.8510  138.1510 C   0  0  2  0  0  3  0  0  0  0  0  0
  184.8820  177.6740  137.7010 C   0  0  1  0  0  3  0  0  0  0  0  0
  181.7210  176.1840  139.3420 C   0  0  0  0  0  2  0  0  0  0  0  0
  182.2210  179.0070  143.6280 C   0  0  0  0  0  0  0  0  0  0  0  0
  180.9520  179.5390  143.3800 C   0  0  0  0  0  3  0  0  0  0  0  0
  182.4780  178.5050  141.2590 C   0  0  0  0  0  0  0  0  0  0  0  0
  180.4400  179.5530  142.0800 C   0  0  0  0  0  3  0  0  0  0  0  0
  182.9790  178.4910  142.5740 C   0  0  0  0  0  3  0  0  0  0  0  0
  181.2010  179.0450  141.0240 C   0  0  0  0  0  3  0  0  0  0  0  0
  182.7230  179.0020  144.8890 F   0  0  0  0  0  0  0  0  0  0  0  0
  181.1960  174.7670  135.9000 C   0  0  0  0  0  3  0  0  0  0  0  0
  182.4210  174.0130  135.4020 C   0  0  0  0  0  1  0  0  0  0  0  0
  180.1220  173.7960  136.3860 C   0  0  0  0  0  1  0  0  0  0  0  0
  182.7700  177.5550  135.6210 C   0  0  0  0  0  2  0  0  0  0  0  0
  181.4130  178.2390  135.7010 C   0  0  0  0  0  1  0  0  0  0  0  0
  188.9170  179.8250  137.3510 O   0  0  0  0  0  1  0  0  0  0  0  0
  189.0040  178.7770  138.2700 C   0  0  2  0  0  3  0  0  0  0  0  0
  190.2470  178.0420  138.0570 N   0  0  0  0  0  2  0  0  0  0  0  0
  190.3220  176.9670  139.0400 C   0  0  0  0  0  3  0  0  0  0  0  0
  191.2140  175.8480  138.5190 C   0  0  0  0  0  2  0  0  0  0  0  0
  190.4390  174.7830  138.0410 O   0  0  0  0  0  1  0  0  0  0  0  0
  190.8360  177.4950  140.3740 C   0  0  0  0  0  2  0  0  0  0  0  0
  192.2300  177.5780  140.3390 O   0  0  0  0  0  1  0  0  0  0  0  0
  1  9  1  0  0  0  0
  2  8  1  0  0  0  0
  3  7  2  0  0  0  0
  3 10  1  0  0  0  0
  4 13  1  0  0  0  0
  5  1  1  0  0  0  0
  5  2  1  0  0  0  0
  6  4  1  0  0  0  0
  6 12  1  0  0  0  0
  8 14  1  0  0  0  0
  8 11  1  0  0  0  0
  9 14  1  0  0  0  0
 11 10  2  0  0  0  0
 11 17  1  0  0  0  0
 12 28  1  0  0  0  0
 12  7  1  0  0  0  0
 13  2  1  0  0  0  0
 13  3  1  0  0  0  0
 15 21  1  0  0  0  0
 16 15  1  0  0  0  0
 17 19  1  0  0  0  0
 18 16  2  0  0  0  0
 19 15  2  0  0  0  0
 20 17  2  0  0  0  0
 20 18  1  0  0  0  0
 22 24  1  0  0  0  0
 22  1  1  0  0  0  0
 23 22  1  0  0  0  0
 25 26  1  0  0  0  0
 25  5  1  0  0  0  0
 27 28  1  0  0  0  0
 29 28  1  0  0  0  0
 29 30  1  0  0  0  0
 30 33  1  0  0  0  0
 31 30  1  0  0  0  0
 32 31  1  0  0  0  0
 34 33  1  0  0  0  0
M  END
>  <MODEL>
9

>  <REMARK>
 VINA RESULT:      -6.2      4.714      9.895
  Name = 
  8 active torsions:
  status: ('A' for Active; 'I' for Inactive)
    1  A    between atoms: N_1  and  C_6
    2  A    between atoms: C_2  and  C_15
    3  A    between atoms: C_11  and  CA_20
    4  A    between atoms: C_12  and  C_28
    5  A    between atoms: N_13  and  CA_20
    6  A    between atoms: N_13  and  C_33
    7  A    between atoms: CB_14  and  CA_20
    8  A    between atoms: C_29  and  C_33
                            x       y       z     vdW  Elec       q    Type
                         _______ _______ _______ _____ _____    ______ ____

>  <TORSDO>
F 8

$$$$
