=
 OpenBabel10272401033D

 27 31  0  0  0  0  0  0  0  0999 V2000
  188.2210  176.9580  144.1300 N   0  0  0  0  0  0  0  0  0  0  0  0
  186.1400  178.1620  144.6790 C   0  0  0  0  0  0  0  0  0  0  0  0
  186.2620  178.1730  142.2470 N   0  0  0  0  0  0  0  0  0  0  0  0
  182.1750  179.0420  143.9990 N   0  0  0  0  0  0  0  0  0  0  0  0
  180.9250  179.1920  141.8990 C   0  0  0  0  0  1  0  0  0  0  0  0
  185.2700  178.4870  145.7650 C   0  0  0  0  0  3  0  0  0  0  0  0
  183.3450  178.6170  142.1810 C   0  0  0  0  0  0  0  0  0  0  0  0
  189.5420  178.4390  140.4330 C   0  0  0  0  0  3  0  0  0  0  0  0
  183.6630  178.4460  140.7340 C   0  0  0  0  0  1  0  0  0  0  0  0
  190.3730  177.4080  140.5720 C   0  0  0  0  0  3  0  0  0  0  0  0
  184.2110  178.4800  143.2500 C   0  0  0  0  0  0  0  0  0  0  0  0
  187.4130  177.7740  144.9900 C   0  0  0  0  0  0  0  0  0  0  0  0
  182.1280  178.9480  142.6750 N   0  0  0  0  0  0  0  0  0  0  0  0
  183.4420  178.7540  144.3420 C   0  0  0  0  0  0  0  0  0  0  0  0
  188.3880  177.0110  142.8490 C   0  0  0  0  0  0  0  0  0  0  0  0
  185.5810  178.2080  143.3540 C   0  0  0  0  0  0  0  0  0  0  0  0
  188.1800  178.5710  140.9640 C   0  0  0  0  0  3  0  0  0  0  0  0
  183.9510  178.7810  145.5900 N   0  0  0  0  0  0  0  0  0  0  0  0
  190.1040  176.1950  141.2870 N   0  0  0  0  0  0  0  0  0  0  0  0
  189.2730  175.9990  142.2630 C   0  0  0  0  0  3  0  0  0  0  0  0
  187.6510  177.9640  142.0240 C   0  0  0  0  0  0  0  0  0  0  0  0
  188.9440  178.1610  148.9860 C   0  0  0  0  0  3  0  0  0  0  0  0
  187.9570  177.9410  146.3660 C   0  0  0  0  0  0  0  0  0  0  0  0
  189.3200  177.7330  146.6350 C   0  0  0  0  0  3  0  0  0  0  0  0
  189.8120  177.8490  147.9380 C   0  0  0  0  0  3  0  0  0  0  0  0
  187.5830  178.3520  148.7330 C   0  0  0  0  0  3  0  0  0  0  0  0
  187.0910  178.2360  147.4300 C   0  0  0  0  0  3  0  0  0  0  0  0
  1 12  1  0  0  0  0
  2 12  2  0  0  0  0
  2  6  1  0  0  0  0
  3 16  2  0  0  0  0
  4 14  2  0  0  0  0
  5 13  1  0  0  0  0
  7 13  1  0  0  0  0
  7 11  2  0  0  0  0
  8 10  2  0  0  0  0
  8 17  1  0  0  0  0
  9  7  1  0  0  0  0
 10 19  1  0  0  0  0
 11 16  1  0  0  0  0
 11 14  1  0  0  0  0
 12 23  1  0  0  0  0
 13  4  1  0  0  0  0
 14 18  1  0  0  0  0
 15  1  2  0  0  0  0
 16  2  1  0  0  0  0
 17 21  2  0  0  0  0
 18  6  2  0  0  0  0
 19 20  2  0  0  0  0
 20 15  1  0  0  0  0
 21  3  1  0  0  0  0
 21 15  1  0  0  0  0
 23 24  2  0  0  0  0
 23 27  1  0  0  0  0
 24 25  1  0  0  0  0
 25 22  2  0  0  0  0
 26 22  1  0  0  0  0
 27 26  2  0  0  0  0
M  END
>  <MODEL>
1

>  <REMARK>
 VINA RESULT:     -10.3      0.000      0.000
  Name = 
  1 active torsions:
  status: ('A' for Active; 'I' for Inactive)
    1  A    between atoms: C_9  and  C_15
                            x       y       z     vdW  Elec       q    Type
                         _______ _______ _______ _____ _____    ______ ____

>  <TORSDO>
F 1

$$$$
=
 OpenBabel10272401033D

 27 31  0  0  0  0  0  0  0  0999 V2000
  187.1410  178.7910  141.3440 N   0  0  0  0  0  0  0  0  0  0  0  0
  187.2060  177.8530  143.6230 C   0  0  0  0  0  0  0  0  0  0  0  0
  189.3540  177.2730  142.6320 N   0  0  0  0  0  0  0  0  0  0  0  0
  189.1660  177.0390  147.1530 N   0  0  0  0  0  0  0  0  0  0  0  0
  191.5110  176.4700  147.5660 C   0  0  0  0  0  1  0  0  0  0  0  0
  186.4950  177.8320  144.8620 C   0  0  0  0  0  3  0  0  0  0  0  0
  190.4420  176.9720  145.3590 C   0  0  0  0  0  0  0  0  0  0  0  0
  189.6840  176.4300  138.9850 C   0  0  0  0  0  3  0  0  0  0  0  0
  191.6610  176.7870  144.5180 C   0  0  0  0  0  1  0  0  0  0  0  0
  189.4430  177.4230  138.1310 C   0  0  0  0  0  3  0  0  0  0  0  0
  189.1720  177.3090  144.9290 C   0  0  0  0  0  0  0  0  0  0  0  0
  186.5140  178.2380  142.5100 C   0  0  0  0  0  0  0  0  0  0  0  0
  190.3970  176.8260  146.7040 N   0  0  0  0  0  0  0  0  0  0  0  0
  188.4270  177.3350  146.0690 C   0  0  0  0  0  0  0  0  0  0  0  0
  188.2230  178.4350  140.7330 C   0  0  0  0  0  0  0  0  0  0  0  0
  188.6080  177.5290  143.6660 C   0  0  0  0  0  0  0  0  0  0  0  0
  189.7000  176.4930  140.4520 C   0  0  0  0  0  3  0  0  0  0  0  0
  187.1000  177.5720  146.0550 N   0  0  0  0  0  0  0  0  0  0  0  0
  189.1370  178.7800  138.4760 N   0  0  0  0  0  0  0  0  0  0  0  0
  188.6120  179.2380  139.5690 C   0  0  0  0  0  3  0  0  0  0  0  0
  189.0640  177.3550  141.2420 C   0  0  0  0  0  0  0  0  0  0  0  0
  182.2440  178.7160  142.5520 C   0  0  0  0  0  3  0  0  0  0  0  0
  185.0310  178.3670  142.5280 C   0  0  0  0  0  0  0  0  0  0  0  0
  184.2650  178.0660  141.3900 C   0  0  0  0  0  3  0  0  0  0  0  0
  182.8770  178.2330  141.4040 C   0  0  0  0  0  3  0  0  0  0  0  0
  182.9990  179.0360  143.6840 C   0  0  0  0  0  3  0  0  0  0  0  0
  184.3860  178.8690  143.6690 C   0  0  0  0  0  3  0  0  0  0  0  0
  1 12  1  0  0  0  0
  2 16  1  0  0  0  0
  2  6  1  0  0  0  0
  3 16  2  0  0  0  0
  6 18  2  0  0  0  0
  7 13  1  0  0  0  0
  8 17  1  0  0  0  0
  9  7  1  0  0  0  0
 10 19  1  0  0  0  0
 10  8  2  0  0  0  0
 11  7  2  0  0  0  0
 11 14  1  0  0  0  0
 12 23  1  0  0  0  0
 12  2  2  0  0  0  0
 13  4  1  0  0  0  0
 13  5  1  0  0  0  0
 14  4  2  0  0  0  0
 15 21  1  0  0  0  0
 15  1  2  0  0  0  0
 16 11  1  0  0  0  0
 17 21  2  0  0  0  0
 18 14  1  0  0  0  0
 19 20  2  0  0  0  0
 20 15  1  0  0  0  0
 21  3  1  0  0  0  0
 22 26  1  0  0  0  0
 23 27  1  0  0  0  0
 24 25  1  0  0  0  0
 24 23  2  0  0  0  0
 25 22  2  0  0  0  0
 27 26  2  0  0  0  0
M  END
>  <MODEL>
2

>  <REMARK>
 VINA RESULT:      -9.7      2.168      5.928
  Name = 
  1 active torsions:
  status: ('A' for Active; 'I' for Inactive)
    1  A    between atoms: C_9  and  C_15
                            x       y       z     vdW  Elec       q    Type
                         _______ _______ _______ _____ _____    ______ ____

>  <TORSDO>
F 1

$$$$
=
 OpenBabel10272401033D

 27 31  0  0  0  0  0  0  0  0999 V2000
  189.6000  178.5670  141.8310 N   0  0  0  0  0  0  0  0  0  0  0  0
  187.2250  178.2200  141.2660 C   0  0  0  0  0  0  0  0  0  0  0  0
  187.3380  178.0390  143.6920 N   0  0  0  0  0  0  0  0  0  0  0  0
  183.2090  178.7880  141.9810 N   0  0  0  0  0  0  0  0  0  0  0  0
  181.9910  178.9860  144.0960 C   0  0  0  0  0  1  0  0  0  0  0  0
  186.2950  178.2860  140.1830 C   0  0  0  0  0  3  0  0  0  0  0  0
  184.4550  178.6680  143.7930 C   0  0  0  0  0  0  0  0  0  0  0  0
  190.3050  176.5190  145.4250 C   0  0  0  0  0  3  0  0  0  0  0  0
  184.8160  178.6380  145.2410 C   0  0  0  0  0  1  0  0  0  0  0  0
  191.4510  177.1900  145.3200 C   0  0  0  0  0  3  0  0  0  0  0  0
  185.3120  178.5410  142.7150 C   0  0  0  0  0  0  0  0  0  0  0  0
  188.5520  178.1420  140.9480 C   0  0  0  0  0  0  0  0  0  0  0  0
  183.2010  178.8220  143.3080 N   0  0  0  0  0  0  0  0  0  0  0  0
  184.4950  178.6190  141.6270 C   0  0  0  0  0  0  0  0  0  0  0  0
  189.7390  178.3910  143.1040 C   0  0  0  0  0  0  0  0  0  0  0  0
  186.6880  178.3090  142.5980 C   0  0  0  0  0  0  0  0  0  0  0  0
  188.9860  176.9130  144.9150 C   0  0  0  0  0  3  0  0  0  0  0  0
  184.9590  178.4760  140.3690 N   0  0  0  0  0  0  0  0  0  0  0  0
  191.6350  178.4540  144.6700 N   0  0  0  0  0  0  0  0  0  0  0  0
  190.9290  178.9860  143.7210 C   0  0  0  0  0  3  0  0  0  0  0  0
  188.7100  177.7240  143.8960 C   0  0  0  0  0  0  0  0  0  0  0  0
  189.7480  177.2880  136.9100 C   0  0  0  0  0  3  0  0  0  0  0  0
  188.9980  177.8630  139.5560 C   0  0  0  0  0  0  0  0  0  0  0  0
  188.9780  178.8670  138.5750 C   0  0  0  0  0  3  0  0  0  0  0  0
  189.3570  178.5830  137.2600 C   0  0  0  0  0  3  0  0  0  0  0  0
  189.7550  176.2770  137.8750 C   0  0  0  0  0  3  0  0  0  0  0  0
  189.3750  176.5610  139.1900 C   0  0  0  0  0  3  0  0  0  0  0  0
  1 15  1  0  0  0  0
  2 16  2  0  0  0  0
  3 21  2  0  0  0  0
  4 13  1  0  0  0  0
  6 18  2  0  0  0  0
  6  2  1  0  0  0  0
  7  9  1  0  0  0  0
 10  8  1  0  0  0  0
 11  7  2  0  0  0  0
 12  2  1  0  0  0  0
 12  1  2  0  0  0  0
 13  7  1  0  0  0  0
 13  5  1  0  0  0  0
 14  4  2  0  0  0  0
 14 11  1  0  0  0  0
 15 20  2  0  0  0  0
 15 21  1  0  0  0  0
 16 11  1  0  0  0  0
 16  3  1  0  0  0  0
 17  8  2  0  0  0  0
 18 14  1  0  0  0  0
 19 10  2  0  0  0  0
 20 19  1  0  0  0  0
 21 17  1  0  0  0  0
 22 25  2  0  0  0  0
 22 26  1  0  0  0  0
 23 12  1  0  0  0  0
 24 23  2  0  0  0  0
 25 24  1  0  0  0  0
 26 27  2  0  0  0  0
 27 23  1  0  0  0  0
M  END
>  <MODEL>
3

>  <REMARK>
 VINA RESULT:      -9.3      2.065      5.598
  Name = 
  1 active torsions:
  status: ('A' for Active; 'I' for Inactive)
    1  A    between atoms: C_9  and  C_15
                            x       y       z     vdW  Elec       q    Type
                         _______ _______ _______ _____ _____    ______ ____

>  <TORSDO>
F 1

$$$$
=
 OpenBabel10272401033D

 27 31  0  0  0  0  0  0  0  0999 V2000
  187.6450  177.3230  143.6740 N   0  0  0  0  0  0  0  0  0  0  0  0
  186.8690  178.2440  141.5220 C   0  0  0  0  0  0  0  0  0  0  0  0
  189.2840  178.0280  141.2910 N   0  0  0  0  0  0  0  0  0  0  0  0
  186.9810  178.4350  137.4100 N   0  0  0  0  0  0  0  0  0  0  0  0
  188.8630  178.1790  135.8650 C   0  0  0  0  0  1  0  0  0  0  0  0
  185.6880  178.5410  140.7750 C   0  0  0  0  0  3  0  0  0  0  0  0
  188.9220  178.0130  138.3610 C   0  0  0  0  0  0  0  0  0  0  0  0
  191.6060  178.6080  144.1870 C   0  0  0  0  0  3  0  0  0  0  0  0
  190.3840  177.7470  138.4930 C   0  0  0  0  0  1  0  0  0  0  0  0
  191.5220  177.7340  145.1890 C   0  0  0  0  0  3  0  0  0  0  0  0
  187.9960  178.1180  139.3830 C   0  0  0  0  0  0  0  0  0  0  0  0
  186.7330  178.0890  142.8730 C   0  0  0  0  0  0  0  0  0  0  0  0
  188.2700  178.2020  137.1910 N   0  0  0  0  0  0  0  0  0  0  0  0
  186.8210  178.3800  138.7440 C   0  0  0  0  0  0  0  0  0  0  0  0
  188.9360  177.2710  143.6450 C   0  0  0  0  0  0  0  0  0  0  0  0
  188.0890  178.0700  140.7790 C   0  0  0  0  0  0  0  0  0  0  0  0
  190.8790  178.5820  142.9120 C   0  0  0  0  0  3  0  0  0  0  0  0
  185.6750  178.6110  139.4140 N   0  0  0  0  0  0  0  0  0  0  0  0
  190.6820  176.5730  145.2310 N   0  0  0  0  0  0  0  0  0  0  0  0
  189.5750  176.3520  144.5920 C   0  0  0  0  0  3  0  0  0  0  0  0
  189.7050  178.0120  142.6490 C   0  0  0  0  0  0  0  0  0  0  0  0
  183.0740  179.1040  144.8830 C   0  0  0  0  0  3  0  0  0  0  0  0
  185.4780  178.4750  143.5740 C   0  0  0  0  0  0  0  0  0  0  0  0
  185.4420  178.6120  144.9710 C   0  0  0  0  0  3  0  0  0  0  0  0
  184.2470  178.9310  145.6220 C   0  0  0  0  0  3  0  0  0  0  0  0
  183.0950  178.9520  143.4940 C   0  0  0  0  0  3  0  0  0  0  0  0
  184.2900  178.6330  142.8430 C   0  0  0  0  0  3  0  0  0  0  0  0
  2 12  1  0  0  0  0
  3 21  2  0  0  0  0
  4 14  2  0  0  0  0
  5 13  1  0  0  0  0
  6  2  1  0  0  0  0
  7  9  1  0  0  0  0
  7 11  2  0  0  0  0
  8 10  1  0  0  0  0
 10 19  2  0  0  0  0
 11 16  1  0  0  0  0
 12 23  1  0  0  0  0
 12  1  2  0  0  0  0
 13  4  1  0  0  0  0
 13  7  1  0  0  0  0
 14 11  1  0  0  0  0
 14 18  1  0  0  0  0
 15  1  1  0  0  0  0
 15 20  2  0  0  0  0
 16  3  1  0  0  0  0
 16  2  2  0  0  0  0
 17  8  2  0  0  0  0
 18  6  2  0  0  0  0
 20 19  1  0  0  0  0
 21 17  1  0  0  0  0
 21 15  1  0  0  0  0
 22 25  1  0  0  0  0
 23 24  1  0  0  0  0
 24 25  2  0  0  0  0
 26 22  2  0  0  0  0
 27 26  1  0  0  0  0
 27 23  2  0  0  0  0
M  END
>  <MODEL>
4

>  <REMARK>
 VINA RESULT:      -9.3      2.661      5.406
  Name = 
  1 active torsions:
  status: ('A' for Active; 'I' for Inactive)
    1  A    between atoms: C_9  and  C_15
                            x       y       z     vdW  Elec       q    Type
                         _______ _______ _______ _____ _____    ______ ____

>  <TORSDO>
F 1

$$$$
=
 OpenBabel10272401033D

 27 31  0  0  0  0  0  0  0  0999 V2000
  186.8430  178.7840  140.1870 N   0  0  0  0  0  0  0  0  0  0  0  0
  185.8820  178.2360  142.3910 C   0  0  0  0  0  0  0  0  0  0  0  0
  188.2300  177.6080  142.5440 N   0  0  0  0  0  0  0  0  0  0  0  0
  186.0840  178.1080  146.5030 N   0  0  0  0  0  0  0  0  0  0  0  0
  187.9980  177.7290  147.9820 C   0  0  0  0  0  1  0  0  0  0  0  0
  184.7020  178.3830  143.1830 C   0  0  0  0  0  3  0  0  0  0  0  0
  188.0120  177.8110  145.4800 C   0  0  0  0  0  0  0  0  0  0  0  0
  190.0930  176.1970  139.6020 C   0  0  0  0  0  3  0  0  0  0  0  0
  189.4700  177.5510  145.2960 C   0  0  0  0  0  1  0  0  0  0  0  0
  190.2760  177.0230  138.5740 C   0  0  0  0  0  3  0  0  0  0  0  0
  187.0670  178.0110  144.4910 C   0  0  0  0  0  0  0  0  0  0  0  0
  185.7550  178.3990  141.0410 C   0  0  0  0  0  0  0  0  0  0  0  0
  187.3820  177.8850  146.6760 N   0  0  0  0  0  0  0  0  0  0  0  0
  185.9000  178.1850  145.1730 C   0  0  0  0  0  0  0  0  0  0  0  0
  188.0730  178.3870  140.1760 C   0  0  0  0  0  0  0  0  0  0  0  0
  187.1150  177.9930  143.0920 C   0  0  0  0  0  0  0  0  0  0  0  0
  189.4710  176.5000  140.8960 C   0  0  0  0  0  3  0  0  0  0  0  0
  184.7190  178.3520  144.5450 N   0  0  0  0  0  0  0  0  0  0  0  0
  189.8880  178.4020  138.5170 N   0  0  0  0  0  0  0  0  0  0  0  0
  188.9520  179.0070  139.1800 C   0  0  0  0  0  3  0  0  0  0  0  0
  188.5770  177.4470  141.1740 C   0  0  0  0  0  0  0  0  0  0  0  0
  181.9380  178.5380  139.0740 C   0  0  0  0  0  3  0  0  0  0  0  0
  184.4170  178.4570  140.3910 C   0  0  0  0  0  0  0  0  0  0  0  0
  183.4940  177.4090  140.5430 C   0  0  0  0  0  3  0  0  0  0  0  0
  182.2570  177.4530  139.8920 C   0  0  0  0  0  3  0  0  0  0  0  0
  182.8550  179.5780  138.9020 C   0  0  0  0  0  3  0  0  0  0  0  0
  184.0920  179.5340  139.5520 C   0  0  0  0  0  3  0  0  0  0  0  0
  1 12  1  0  0  0  0
  2 16  1  0  0  0  0
  2  6  1  0  0  0  0
  3 16  2  0  0  0  0
  4 13  1  0  0  0  0
  6 18  2  0  0  0  0
  7 13  1  0  0  0  0
  8 17  1  0  0  0  0
  9  7  1  0  0  0  0
 10  8  2  0  0  0  0
 11 14  1  0  0  0  0
 11  7  2  0  0  0  0
 12  2  2  0  0  0  0
 13  5  1  0  0  0  0
 14  4  2  0  0  0  0
 15  1  2  0  0  0  0
 15 21  1  0  0  0  0
 16 11  1  0  0  0  0
 17 21  2  0  0  0  0
 18 14  1  0  0  0  0
 19 10  1  0  0  0  0
 19 20  2  0  0  0  0
 20 15  1  0  0  0  0
 21  3  1  0  0  0  0
 22 25  1  0  0  0  0
 23 24  1  0  0  0  0
 23 12  1  0  0  0  0
 25 24  2  0  0  0  0
 26 22  2  0  0  0  0
 26 27  1  0  0  0  0
 27 23  2  0  0  0  0
M  END
>  <MODEL>
5

>  <REMARK>
 VINA RESULT:      -8.9      1.719      5.972
  Name = 
  1 active torsions:
  status: ('A' for Active; 'I' for Inactive)
    1  A    between atoms: C_9  and  C_15
                            x       y       z     vdW  Elec       q    Type
                         _______ _______ _______ _____ _____    ______ ____

>  <TORSDO>
F 1

$$$$
=
 OpenBabel10272401033D

 27 31  0  0  0  0  0  0  0  0999 V2000
  184.8850  179.4240  140.8650 N   0  0  0  0  0  0  0  0  0  0  0  0
  187.0320  178.2630  141.2190 C   0  0  0  0  0  0  0  0  0  0  0  0
  186.5530  178.0090  138.8450 N   0  0  0  0  0  0  0  0  0  0  0  0
  190.8590  177.2850  140.0540 N   0  0  0  0  0  0  0  0  0  0  0  0
  191.7860  176.9130  137.8190 C   0  0  0  0  0  1  0  0  0  0  0  0
  188.0550  178.0420  142.1920 C   0  0  0  0  0  3  0  0  0  0  0  0
  189.4310  177.5340  138.3960 C   0  0  0  0  0  0  0  0  0  0  0  0
  183.0430  177.5890  137.5720 C   0  0  0  0  0  3  0  0  0  0  0  0
  188.9020  177.5620  137.0010 C   0  0  0  0  0  1  0  0  0  0  0  0
  182.2350  178.6360  137.7260 C   0  0  0  0  0  3  0  0  0  0  0  0
  188.7310  177.7860  139.5620 C   0  0  0  0  0  0  0  0  0  0  0  0
  185.8170  178.6920  141.6740 C   0  0  0  0  0  0  0  0  0  0  0  0
  190.7090  177.2450  138.7360 N   0  0  0  0  0  0  0  0  0  0  0  0
  189.6540  177.6170  140.5500 C   0  0  0  0  0  0  0  0  0  0  0  0
  184.5310  179.2440  139.6350 C   0  0  0  0  0  0  0  0  0  0  0  0
  187.3900  178.0790  139.8380 C   0  0  0  0  0  0  0  0  0  0  0  0
  184.4690  177.5000  137.9070 C   0  0  0  0  0  3  0  0  0  0  0  0
  189.3350  177.7210  141.8560 N   0  0  0  0  0  0  0  0  0  0  0  0
  182.5990  179.9130  138.2680 N   0  0  0  0  0  0  0  0  0  0  0  0
  183.5630  180.1990  139.0860 C   0  0  0  0  0  3  0  0  0  0  0  0
  185.1450  178.2060  138.8110 C   0  0  0  0  0  0  0  0  0  0  0  0
  184.7810  178.5490  145.8420 C   0  0  0  0  0  3  0  0  0  0  0  0
  185.4820  178.6690  143.1250 C   0  0  0  0  0  0  0  0  0  0  0  0
  186.3280  178.0380  144.0520 C   0  0  0  0  0  3  0  0  0  0  0  0
  185.9820  177.9840  145.4060 C   0  0  0  0  0  3  0  0  0  0  0  0
  183.9240  179.1630  144.9250 C   0  0  0  0  0  3  0  0  0  0  0  0
  184.2700  179.2170  143.5720 C   0  0  0  0  0  3  0  0  0  0  0  0
  1 12  1  0  0  0  0
  2 12  2  0  0  0  0
  2  6  1  0  0  0  0
  3 16  2  0  0  0  0
  4 14  2  0  0  0  0
  5 13  1  0  0  0  0
  7 13  1  0  0  0  0
  7 11  2  0  0  0  0
  8 10  2  0  0  0  0
  8 17  1  0  0  0  0
  9  7  1  0  0  0  0
 10 19  1  0  0  0  0
 11 16  1  0  0  0  0
 11 14  1  0  0  0  0
 12 23  1  0  0  0  0
 13  4  1  0  0  0  0
 14 18  1  0  0  0  0
 15  1  2  0  0  0  0
 16  2  1  0  0  0  0
 17 21  2  0  0  0  0
 18  6  2  0  0  0  0
 19 20  2  0  0  0  0
 20 15  1  0  0  0  0
 21  3  1  0  0  0  0
 21 15  1  0  0  0  0
 23 27  2  0  0  0  0
 23 24  1  0  0  0  0
 24 25  2  0  0  0  0
 25 22  1  0  0  0  0
 26 22  2  0  0  0  0
 27 26  1  0  0  0  0
M  END
>  <MODEL>
6

>  <REMARK>
 VINA RESULT:      -8.9      2.593      6.463
  Name = 
  1 active torsions:
  status: ('A' for Active; 'I' for Inactive)
    1  A    between atoms: C_9  and  C_15
                            x       y       z     vdW  Elec       q    Type
                         _______ _______ _______ _____ _____    ______ ____

>  <TORSDO>
F 1

$$$$
=
 OpenBabel10272401033D

 27 31  0  0  0  0  0  0  0  0999 V2000
  191.0320  177.6840  141.2170 N   0  0  0  0  0  0  0  0  0  0  0  0
  189.0790  177.4840  139.7240 C   0  0  0  0  0  0  0  0  0  0  0  0
  188.1520  177.9070  141.9360 N   0  0  0  0  0  0  0  0  0  0  0  0
  185.3430  178.6740  138.4650 N   0  0  0  0  0  0  0  0  0  0  0  0
  183.4430  179.5380  139.7440 C   0  0  0  0  0  1  0  0  0  0  0  0
  188.7090  177.3830  138.3480 C   0  0  0  0  0  3  0  0  0  0  0  0
  185.6860  178.8710  140.6310 C   0  0  0  0  0  0  0  0  0  0  0  0
  189.7560  176.5380  145.0460 C   0  0  0  0  0  3  0  0  0  0  0  0
  185.4100  179.1640  142.0680 C   0  0  0  0  0  1  0  0  0  0  0  0
  190.9600  177.0230  145.3460 C   0  0  0  0  0  3  0  0  0  0  0  0
  186.8580  178.3780  140.0890 C   0  0  0  0  0  0  0  0  0  0  0  0
  190.3700  177.1750  140.0500 C   0  0  0  0  0  0  0  0  0  0  0  0
  184.8030  179.0420  139.6200 N   0  0  0  0  0  0  0  0  0  0  0  0
  186.5930  178.2740  138.7560 C   0  0  0  0  0  0  0  0  0  0  0  0
  190.5990  177.8190  142.4270 C   0  0  0  0  0  0  0  0  0  0  0  0
  188.0790  177.9660  140.6390 C   0  0  0  0  0  0  0  0  0  0  0  0
  188.8770  176.9410  143.9420 C   0  0  0  0  0  3  0  0  0  0  0  0
  187.4870  177.7670  137.8830 N   0  0  0  0  0  0  0  0  0  0  0  0
  191.6580  178.0530  144.6340 N   0  0  0  0  0  0  0  0  0  0  0  0
  191.5310  178.4080  143.3930 C   0  0  0  0  0  3  0  0  0  0  0  0
  189.2200  177.4960  142.7820 C   0  0  0  0  0  0  0  0  0  0  0  0
  193.0270  175.1910  137.3170 C   0  0  0  0  0  3  0  0  0  0  0  0
  191.2740  176.5050  139.0750 C   0  0  0  0  0  0  0  0  0  0  0  0
  190.8320  175.4120  138.3110 C   0  0  0  0  0  3  0  0  0  0  0  0
  191.7030  174.7630  137.4310 C   0  0  0  0  0  3  0  0  0  0  0  0
  193.4820  176.2660  138.0860 C   0  0  0  0  0  3  0  0  0  0  0  0
  192.6110  176.9150  138.9650 C   0  0  0  0  0  3  0  0  0  0  0  0
  1 15  1  0  0  0  0
  2 12  1  0  0  0  0
  2 16  2  0  0  0  0
  3 21  2  0  0  0  0
  4 14  2  0  0  0  0
  4 13  1  0  0  0  0
  6  2  1  0  0  0  0
  7  9  1  0  0  0  0
  8 10  1  0  0  0  0
 11  7  2  0  0  0  0
 11 16  1  0  0  0  0
 12  1  2  0  0  0  0
 13  5  1  0  0  0  0
 13  7  1  0  0  0  0
 14 11  1  0  0  0  0
 15 21  1  0  0  0  0
 15 20  2  0  0  0  0
 16  3  1  0  0  0  0
 17  8  2  0  0  0  0
 18  6  2  0  0  0  0
 18 14  1  0  0  0  0
 19 10  2  0  0  0  0
 20 19  1  0  0  0  0
 21 17  1  0  0  0  0
 22 25  2  0  0  0  0
 22 26  1  0  0  0  0
 23 12  1  0  0  0  0
 24 23  2  0  0  0  0
 25 24  1  0  0  0  0
 26 27  2  0  0  0  0
 27 23  1  0  0  0  0
M  END
>  <MODEL>
7

>  <REMARK>
 VINA RESULT:      -8.7      2.919      6.571
  Name = 
  1 active torsions:
  status: ('A' for Active; 'I' for Inactive)
    1  A    between atoms: C_9  and  C_15
                            x       y       z     vdW  Elec       q    Type
                         _______ _______ _______ _____ _____    ______ ____

>  <TORSDO>
F 1

$$$$
=
 OpenBabel10272401033D

 27 31  0  0  0  0  0  0  0  0999 V2000
  183.8320  178.8320  142.2390 N   0  0  0  0  0  0  0  0  0  0  0  0
  186.1340  178.3310  141.5120 C   0  0  0  0  0  0  0  0  0  0  0  0
  184.7350  177.8540  139.5760 N   0  0  0  0  0  0  0  0  0  0  0  0
  189.1470  178.4100  138.7040 N   0  0  0  0  0  0  0  0  0  0  0  0
  189.0420  178.2180  136.2660 C   0  0  0  0  0  1  0  0  0  0  0  0
  187.5010  178.4440  141.9140 C   0  0  0  0  0  3  0  0  0  0  0  0
  187.1210  178.1820  137.8700 C   0  0  0  0  0  0  0  0  0  0  0  0
  181.2810  176.4210  139.9400 C   0  0  0  0  0  3  0  0  0  0  0  0
  186.0400  178.0020  136.8570 C   0  0  0  0  0  1  0  0  0  0  0  0
  180.3800  177.2080  140.5250 C   0  0  0  0  0  3  0  0  0  0  0  0
  186.9750  178.2770  139.2410 C   0  0  0  0  0  0  0  0  0  0  0  0
  185.1840  178.4230  142.4890 C   0  0  0  0  0  0  0  0  0  0  0  0
  188.4420  178.2740  137.5870 N   0  0  0  0  0  0  0  0  0  0  0  0
  188.2490  178.4130  139.7060 C   0  0  0  0  0  0  0  0  0  0  0  0
  183.0290  178.5090  141.2780 C   0  0  0  0  0  0  0  0  0  0  0  0
  185.8740  178.1960  140.1030 C   0  0  0  0  0  0  0  0  0  0  0  0
  182.6720  176.7470  139.6060 C   0  0  0  0  0  3  0  0  0  0  0  0
  188.5310  178.4780  141.0220 N   0  0  0  0  0  0  0  0  0  0  0  0
  180.5910  178.5560  140.9630 N   0  0  0  0  0  0  0  0  0  0  0  0
  181.7030  179.1330  141.2970 C   0  0  0  0  0  3  0  0  0  0  0  0
  183.4640  177.6500  140.1800 C   0  0  0  0  0  0  0  0  0  0  0  0
  186.1530  178.2120  146.6700 C   0  0  0  0  0  3  0  0  0  0  0  0
  185.5510  178.3680  143.9310 C   0  0  0  0  0  0  0  0  0  0  0  0
  186.5070  177.4520  144.4000 C   0  0  0  0  0  3  0  0  0  0  0  0
  186.8110  177.3790  145.7630 C   0  0  0  0  0  3  0  0  0  0  0  0
  185.1870  179.1140  146.2170 C   0  0  0  0  0  3  0  0  0  0  0  0
  184.8830  179.1870  144.8540 C   0  0  0  0  0  3  0  0  0  0  0  0
  1 12  1  0  0  0  0
  2  6  1  0  0  0  0
  2 12  2  0  0  0  0
  3 16  2  0  0  0  0
  3 21  1  0  0  0  0
  4 14  2  0  0  0  0
  5 13  1  0  0  0  0
  7 11  2  0  0  0  0
  8 10  2  0  0  0  0
  9  7  1  0  0  0  0
 10 19  1  0  0  0  0
 11 14  1  0  0  0  0
 11 16  1  0  0  0  0
 12 23  1  0  0  0  0
 13  7  1  0  0  0  0
 13  4  1  0  0  0  0
 14 18  1  0  0  0  0
 15 20  1  0  0  0  0
 15  1  2  0  0  0  0
 16  2  1  0  0  0  0
 17  8  1  0  0  0  0
 17 21  2  0  0  0  0
 18  6  2  0  0  0  0
 19 20  2  0  0  0  0
 21 15  1  0  0  0  0
 23 24  2  0  0  0  0
 23 27  1  0  0  0  0
 24 25  1  0  0  0  0
 25 22  2  0  0  0  0
 26 22  1  0  0  0  0
 27 26  2  0  0  0  0
M  END
>  <MODEL>
8

>  <REMARK>
 VINA RESULT:      -8.7      2.380      6.080
  Name = 
  1 active torsions:
  status: ('A' for Active; 'I' for Inactive)
    1  A    between atoms: C_9  and  C_15
                            x       y       z     vdW  Elec       q    Type
                         _______ _______ _______ _____ _____    ______ ____

>  <TORSDO>
F 1

$$$$
=
 OpenBabel10272401033D

 27 31  0  0  0  0  0  0  0  0999 V2000
  189.0500  177.0260  140.7090 N   0  0  0  0  0  0  0  0  0  0  0  0
  187.3170  178.0380  142.1430 C   0  0  0  0  0  0  0  0  0  0  0  0
  186.5310  178.3680  139.8620 N   0  0  0  0  0  0  0  0  0  0  0  0
  183.3800  178.7870  143.0920 N   0  0  0  0  0  0  0  0  0  0  0  0
  181.4430  179.1410  141.6380 C   0  0  0  0  0  1  0  0  0  0  0  0
  186.9110  178.1740  143.5060 C   0  0  0  0  0  3  0  0  0  0  0  0
  183.7960  178.6630  140.9320 C   0  0  0  0  0  0  0  0  0  0  0  0
  188.9070  179.0390  137.0300 C   0  0  0  0  0  3  0  0  0  0  0  0
  183.5570  178.6960  139.4600 C   0  0  0  0  0  1  0  0  0  0  0  0
  189.7320  178.0430  136.7100 C   0  0  0  0  0  3  0  0  0  0  0  0
  184.9960  178.4350  141.5800 C   0  0  0  0  0  0  0  0  0  0  0  0
  188.6160  177.6810  141.9100 C   0  0  0  0  0  0  0  0  0  0  0  0
  182.8480  178.8630  141.8780 N   0  0  0  0  0  0  0  0  0  0  0  0
  184.6860  178.5250  142.9030 C   0  0  0  0  0  0  0  0  0  0  0  0
  188.7310  177.2520  139.4770 C   0  0  0  0  0  0  0  0  0  0  0  0
  186.3080  178.2240  141.1350 C   0  0  0  0  0  0  0  0  0  0  0  0
  187.8380  179.0280  138.0350 C   0  0  0  0  0  3  0  0  0  0  0  0
  185.6200  178.4180  143.8690 N   0  0  0  0  0  0  0  0  0  0  0  0
  189.7480  176.7350  137.2980 N   0  0  0  0  0  0  0  0  0  0  0  0
  189.3380  176.3720  138.4730 C   0  0  0  0  0  3  0  0  0  0  0  0
  187.7400  178.2630  139.1200 C   0  0  0  0  0  0  0  0  0  0  0  0
  191.6070  177.6700  144.9940 C   0  0  0  0  0  3  0  0  0  0  0  0
  189.6300  177.6970  143.0000 C   0  0  0  0  0  0  0  0  0  0  0  0
  190.4430  178.8230  143.2140 C   0  0  0  0  0  3  0  0  0  0  0  0
  191.4230  178.8110  144.2110 C   0  0  0  0  0  3  0  0  0  0  0  0
  190.8160  176.5380  144.7780 C   0  0  0  0  0  3  0  0  0  0  0  0
  189.8360  176.5500  143.7810 C   0  0  0  0  0  3  0  0  0  0  0  0
  1 12  1  0  0  0  0
  2  6  1  0  0  0  0
  3 16  2  0  0  0  0
  5 13  1  0  0  0  0
  6 18  2  0  0  0  0
  7 11  2  0  0  0  0
  7 13  1  0  0  0  0
  8 17  1  0  0  0  0
  9  7  1  0  0  0  0
 10  8  2  0  0  0  0
 10 19  1  0  0  0  0
 11 14  1  0  0  0  0
 12  2  2  0  0  0  0
 12 23  1  0  0  0  0
 13  4  1  0  0  0  0
 14  4  2  0  0  0  0
 14 18  1  0  0  0  0
 15  1  2  0  0  0  0
 16 11  1  0  0  0  0
 16  2  1  0  0  0  0
 17 21  2  0  0  0  0
 19 20  2  0  0  0  0
 20 15  1  0  0  0  0
 21 15  1  0  0  0  0
 21  3  1  0  0  0  0
 23 24  2  0  0  0  0
 23 27  1  0  0  0  0
 24 25  1  0  0  0  0
 25 22  2  0  0  0  0
 26 22  1  0  0  0  0
 27 26  2  0  0  0  0
M  END
>  <MODEL>
9

>  <REMARK>
 VINA RESULT:      -8.5      2.369      3.224
  Name = 
  1 active torsions:
  status: ('A' for Active; 'I' for Inactive)
    1  A    between atoms: C_9  and  C_15
                            x       y       z     vdW  Elec       q    Type
                         _______ _______ _______ _____ _____    ______ ____

>  <TORSDO>
F 1

$$$$
