=
 OpenBabel10272400443D

 25 27  0  0  1  0  0  0  0  0999 V2000
  186.9440  177.9650  145.4780 N   0  0  0  0  0  0  0  0  0  0  0  0
  188.1580  177.4920  145.1150 C   0  0  0  0  0  0  0  0  0  0  0  0
  188.5740  177.9990  148.6930 C   0  0  0  0  0  1  0  0  0  0  0  0
  188.1860  177.8720  147.2620 C   0  0  0  0  0  0  0  0  0  0  0  0
  190.2830  176.9420  146.1360 C   0  0  0  0  0  0  0  0  0  0  0  0
  191.3410  176.8370  147.5310 Cl  0  0  0  0  0  0  0  0  0  0  0  0
  188.5980  177.0890  143.8540 C   0  0  0  0  0  3  0  0  0  0  0  0
  186.9640  178.2000  146.7870 N   0  0  0  0  0  0  0  0  0  0  0  0
  190.7500  176.5370  144.8740 C   0  0  0  0  0  3  0  0  0  0  0  0
  189.9150  176.6070  143.7380 C   0  0  0  0  0  0  0  0  0  0  0  0
  188.9690  177.4150  146.2180 C   0  0  0  0  0  0  0  0  0  0  0  0
  185.8040  178.2190  144.6280 C   0  0  0  0  0  0  0  0  0  0  0  0
  183.6210  178.7400  142.9270 C   0  0  0  0  0  3  0  0  0  0  0  0
  184.5620  178.6380  145.1600 C   0  0  0  0  0  0  0  0  0  0  0  0
  183.4830  178.8930  144.3080 C   0  0  0  0  0  3  0  0  0  0  0  0
  184.8410  178.3280  142.3910 C   0  0  0  0  0  3  0  0  0  0  0  0
  184.3670  178.7790  146.5640 N   0  0  0  0  0  1  0  0  0  0  0  0
  185.9220  178.0700  143.2350 C   0  0  0  0  0  3  0  0  0  0  0  0
  190.4320  176.1630  142.4000 C   0  0  0  0  0  2  0  0  0  0  0  0
  190.5780  177.2560  141.4280 N   0  0  0  0  0  0  0  0  0  0  0  0
  191.8680  177.6730  141.4310 O   0  0  0  0  0  1  0  0  0  0  0  0
  190.2720  176.7750  140.0830 C   0  0  0  0  0  2  0  0  0  0  0  0
  188.5390  177.0010  138.4350 O   0  0  0  0  0  1  0  0  0  0  0  0
  188.3890  178.4060  140.3590 C   0  0  0  0  0  1  0  0  0  0  0  0
  189.3000  177.7070  139.3670 C   0  0  1  0  0  3  0  0  0  0  0  0
  1  8  1  0  0  0  0
  2  1  1  0  0  0  0
  2 11  1  0  0  0  0
  4  3  1  0  0  0  0
  5 11  2  0  0  0  0
  5  6  1  0  0  0  0
  7  2  2  0  0  0  0
  8  4  2  0  0  0  0
  9  5  1  0  0  0  0
 10  7  1  0  0  0  0
 10  9  2  0  0  0  0
 11  4  1  0  0  0  0
 12 14  1  0  0  0  0
 12  1  1  0  0  0  0
 13 15  1  0  0  0  0
 14 17  1  0  0  0  0
 15 14  2  0  0  0  0
 16 13  2  0  0  0  0
 16 18  1  0  0  0  0
 18 12  2  0  0  0  0
 19 10  1  0  0  0  0
 20 21  1  0  0  0  0
 20 19  1  0  0  0  0
 22 20  1  0  0  0  0
 23 25  1  0  0  0  0
 25 22  1  0  0  0  0
 25 24  1  1  0  0  0
M  END
>  <MODEL>
1

>  <REMARK>
 VINA RESULT:      -9.5      0.000      0.000
  Name = 
  5 active torsions:
  status: ('A' for Active; 'I' for Inactive)
    1  A    between atoms: N_1  and  C_5
    2  A    between atoms: C_2  and  N_15
    3  A    between atoms: C_2  and  C_21
    4  A    between atoms: C_6  and  N_15
    5  A    between atoms: C_6  and  C_23
                            x       y       z     vdW  Elec       q    Type
                         _______ _______ _______ _____ _____    ______ ____

>  <TORSDO>
F 5

$$$$
=
 OpenBabel10272400443D

 25 27  0  0  1  0  0  0  0  0999 V2000
  187.8390  178.0710  142.2830 N   0  0  0  0  0  0  0  0  0  0  0  0
  187.2740  178.0350  143.5100 C   0  0  0  0  0  0  0  0  0  0  0  0
  184.4590  178.9650  141.4020 C   0  0  0  0  0  1  0  0  0  0  0  0
  185.7350  178.5840  142.0660 C   0  0  0  0  0  0  0  0  0  0  0  0
  185.1060  178.3750  144.5340 C   0  0  0  0  0  0  0  0  0  0  0  0
  183.4020  178.7770  144.4360 Cl  0  0  0  0  0  0  0  0  0  0  0  0
  187.8600  177.7100  144.7340 C   0  0  0  0  0  3  0  0  0  0  0  0
  186.9010  178.4090  141.4030 N   0  0  0  0  0  0  0  0  0  0  0  0
  185.6770  178.0570  145.7780 C   0  0  0  0  0  3  0  0  0  0  0  0
  187.0460  177.7240  145.8810 C   0  0  0  0  0  0  0  0  0  0  0  0
  185.9430  178.3500  143.4130 C   0  0  0  0  0  0  0  0  0  0  0  0
  189.2200  177.8230  141.9370 C   0  0  0  0  0  0  0  0  0  0  0  0
  191.9290  177.3930  141.3010 C   0  0  0  0  0  3  0  0  0  0  0  0
  189.6000  177.4470  140.6280 C   0  0  0  0  0  0  0  0  0  0  0  0
  190.9470  177.2330  140.3220 C   0  0  0  0  0  3  0  0  0  0  0  0
  191.5660  177.7650  142.5960 C   0  0  0  0  0  3  0  0  0  0  0  0
  188.6300  177.2450  139.6040 N   0  0  0  0  0  1  0  0  0  0  0  0
  190.2230  177.9780  142.9090 C   0  0  0  0  0  3  0  0  0  0  0  0
  187.6340  177.3810  147.2200 C   0  0  0  0  0  2  0  0  0  0  0  0
  189.0410  177.7800  147.3690 N   0  0  0  0  0  0  0  0  0  0  0  0
  189.1930  178.4030  148.5630 O   0  0  0  0  0  1  0  0  0  0  0  0
  189.8990  176.5990  147.3730 C   0  0  0  0  0  2  0  0  0  0  0  0
  192.2020  176.8560  148.0070 O   0  0  0  0  0  1  0  0  0  0  0  0
  191.7740  176.0250  145.8100 C   0  0  0  0  0  1  0  0  0  0  0  0
  191.3180  176.9420  146.9310 C   0  0  1  0  0  3  0  0  0  0  0  0
  1  2  1  0  0  0  0
  2  7  1  0  0  0  0
  3  4  1  0  0  0  0
  4 11  1  0  0  0  0
  5  9  2  0  0  0  0
  6  5  1  0  0  0  0
  7 10  2  0  0  0  0
  8  4  2  0  0  0  0
  8  1  1  0  0  0  0
  9 10  1  0  0  0  0
 10 19  1  0  0  0  0
 11  2  2  0  0  0  0
 11  5  1  0  0  0  0
 12  1  1  0  0  0  0
 12 18  1  0  0  0  0
 13 16  1  0  0  0  0
 14 12  2  0  0  0  0
 15 14  1  0  0  0  0
 15 13  2  0  0  0  0
 16 18  2  0  0  0  0
 17 14  1  0  0  0  0
 19 20  1  0  0  0  0
 20 22  1  0  0  0  0
 20 21  1  0  0  0  0
 25 24  1  6  0  0  0
 25 22  1  0  0  0  0
 25 23  1  0  0  0  0
M  END
>  <MODEL>
2

>  <REMARK>
 VINA RESULT:      -8.8      3.470      6.518
  Name = 
  5 active torsions:
  status: ('A' for Active; 'I' for Inactive)
    1  A    between atoms: N_1  and  C_5
    2  A    between atoms: C_2  and  N_15
    3  A    between atoms: C_2  and  C_21
    4  A    between atoms: C_6  and  N_15
    5  A    between atoms: C_6  and  C_23
                            x       y       z     vdW  Elec       q    Type
                         _______ _______ _______ _____ _____    ______ ____

>  <TORSDO>
F 5

$$$$
=
 OpenBabel10272400443D

 25 27  0  0  1  0  0  0  0  0999 V2000
  186.9930  177.8310  144.9090 N   0  0  0  0  0  0  0  0  0  0  0  0
  188.1500  177.6560  144.2310 C   0  0  0  0  0  0  0  0  0  0  0  0
  189.1790  177.0380  147.6650 C   0  0  0  0  0  1  0  0  0  0  0  0
  188.5450  177.3290  146.3500 C   0  0  0  0  0  0  0  0  0  0  0  0
  190.4600  177.0830  144.6760 C   0  0  0  0  0  0  0  0  0  0  0  0
  191.7610  176.6720  145.7770 Cl  0  0  0  0  0  0  0  0  0  0  0  0
  188.3780  177.7390  142.8570 C   0  0  0  0  0  3  0  0  0  0  0  0
  187.2360  177.6330  146.2020 N   0  0  0  0  0  0  0  0  0  0  0  0
  190.7150  177.1670  143.2960 C   0  0  0  0  0  3  0  0  0  0  0  0
  189.6820  177.4910  142.3890 C   0  0  0  0  0  0  0  0  0  0  0  0
  189.1530  177.3340  145.1080 C   0  0  0  0  0  0  0  0  0  0  0  0
  185.7010  178.1960  144.3760 C   0  0  0  0  0  0  0  0  0  0  0  0
  183.2130  178.9310  143.2820 C   0  0  0  0  0  3  0  0  0  0  0  0
  184.6900  178.7490  145.1970 C   0  0  0  0  0  0  0  0  0  0  0  0
  183.4570  179.1100  144.6440 C   0  0  0  0  0  3  0  0  0  0  0  0
  184.2020  178.3860  142.4630 C   0  0  0  0  0  3  0  0  0  0  0  0
  184.8860  178.9240  146.5970 N   0  0  0  0  0  1  0  0  0  0  0  0
  185.4350  178.0230  143.0070 C   0  0  0  0  0  3  0  0  0  0  0  0
  189.9750  177.5690  140.9180 C   0  0  0  0  0  2  0  0  0  0  0  0
  188.7720  177.6550  140.0780 N   0  0  0  0  0  0  0  0  0  0  0  0
  188.7220  178.8860  139.5120 O   0  0  0  0  0  1  0  0  0  0  0  0
  188.8430  176.6750  138.9980 C   0  0  0  0  0  2  0  0  0  0  0  0
  190.7620  175.2920  138.5750 O   0  0  0  0  0  1  0  0  0  0  0  0
  190.2700  176.9780  136.9590 C   0  0  0  0  0  1  0  0  0  0  0  0
  190.2530  176.5820  138.4240 C   0  0  1  0  0  3  0  0  0  0  0  0
  1  8  1  0  0  0  0
  2  1  1  0  0  0  0
  2 11  1  0  0  0  0
  4  3  1  0  0  0  0
  5 11  2  0  0  0  0
  5  6  1  0  0  0  0
  7  2  2  0  0  0  0
  8  4  2  0  0  0  0
  9  5  1  0  0  0  0
 10  7  1  0  0  0  0
 10  9  2  0  0  0  0
 11  4  1  0  0  0  0
 12  1  1  0  0  0  0
 12 14  1  0  0  0  0
 13 15  1  0  0  0  0
 14 17  1  0  0  0  0
 15 14  2  0  0  0  0
 16 18  1  0  0  0  0
 16 13  2  0  0  0  0
 18 12  2  0  0  0  0
 19 10  1  0  0  0  0
 20 19  1  0  0  0  0
 21 20  1  0  0  0  0
 22 20  1  0  0  0  0
 25 24  1  6  0  0  0
 25 23  1  0  0  0  0
 25 22  1  0  0  0  0
M  END
>  <MODEL>
3

>  <REMARK>
 VINA RESULT:      -8.8      1.390      1.753
  Name = 
  5 active torsions:
  status: ('A' for Active; 'I' for Inactive)
    1  A    between atoms: N_1  and  C_5
    2  A    between atoms: C_2  and  N_15
    3  A    between atoms: C_2  and  C_21
    4  A    between atoms: C_6  and  N_15
    5  A    between atoms: C_6  and  C_23
                            x       y       z     vdW  Elec       q    Type
                         _______ _______ _______ _____ _____    ______ ____

>  <TORSDO>
F 5

$$$$
=
 OpenBabel10272400443D

 25 27  0  0  1  0  0  0  0  0999 V2000
  186.1470  178.2070  144.4620 N   0  0  0  0  0  0  0  0  0  0  0  0
  186.4970  178.2510  143.1570 C   0  0  0  0  0  0  0  0  0  0  0  0
  182.9090  178.8300  143.0030 C   0  0  0  0  0  1  0  0  0  0  0  0
  184.3460  178.5790  143.2980 C   0  0  0  0  0  0  0  0  0  0  0  0
  185.4590  178.5970  140.9980 C   0  0  0  0  0  0  0  0  0  0  0  0
  184.0520  178.8970  139.9950 Cl  0  0  0  0  0  0  0  0  0  0  0  0
  187.7640  178.1180  142.5870 C   0  0  0  0  0  3  0  0  0  0  0  0
  184.8340  178.4050  144.5470 N   0  0  0  0  0  0  0  0  0  0  0  0
  186.7240  178.4610  140.4010 C   0  0  0  0  0  3  0  0  0  0  0  0
  187.8720  178.2240  141.1890 C   0  0  0  0  0  0  0  0  0  0  0  0
  185.3860  178.4880  142.3910 C   0  0  0  0  0  0  0  0  0  0  0  0
  187.0030  177.9640  145.6010 C   0  0  0  0  0  0  0  0  0  0  0  0
  188.6840  177.4290  147.7950 C   0  0  0  0  0  3  0  0  0  0  0  0
  186.6510  178.4020  146.8990 C   0  0  0  0  0  0  0  0  0  0  0  0
  187.4930  178.1330  147.9820 C   0  0  0  0  0  3  0  0  0  0  0  0
  189.0410  176.9910  146.5190 C   0  0  0  0  0  3  0  0  0  0  0  0
  185.4600  179.1480  147.1320 N   0  0  0  0  0  1  0  0  0  0  0  0
  188.2060  177.2570  145.4330 C   0  0  0  0  0  3  0  0  0  0  0  0
  189.2160  178.0880  140.5310 C   0  0  0  0  0  2  0  0  0  0  0  0
  189.9790  176.9150  140.9800 N   0  0  0  0  0  0  0  0  0  0  0  0
  190.3420  176.1890  139.8940 O   0  0  0  0  0  1  0  0  0  0  0  0
  191.2020  177.3410  141.6550 C   0  0  0  0  0  2  0  0  0  0  0  0
  191.8220  176.0960  143.6130 O   0  0  0  0  0  1  0  0  0  0  0  0
  191.5470  178.4520  143.8760 C   0  0  0  0  0  1  0  0  0  0  0  0
  191.0830  177.1920  143.1680 C   0  0  1  0  0  3  0  0  0  0  0  0
  1  8  1  0  0  0  0
  1 12  1  0  0  0  0
  2  1  1  0  0  0  0
  3  4  1  0  0  0  0
  4  8  2  0  0  0  0
  5 11  1  0  0  0  0
  6  5  1  0  0  0  0
  7  2  1  0  0  0  0
  9  5  2  0  0  0  0
  9 10  1  0  0  0  0
 10  7  2  0  0  0  0
 11  2  2  0  0  0  0
 11  4  1  0  0  0  0
 12 14  1  0  0  0  0
 13 15  1  0  0  0  0
 14 17  1  0  0  0  0
 14 15  2  0  0  0  0
 16 13  2  0  0  0  0
 18 12  2  0  0  0  0
 18 16  1  0  0  0  0
 19 20  1  0  0  0  0
 19 10  1  0  0  0  0
 20 22  1  0  0  0  0
 21 20  1  0  0  0  0
 22 25  1  0  0  0  0
 25 23  1  0  0  0  0
 25 24  1  1  0  0  0
M  END
>  <MODEL>
4

>  <REMARK>
 VINA RESULT:      -8.7      2.568      4.919
  Name = 
  5 active torsions:
  status: ('A' for Active; 'I' for Inactive)
    1  A    between atoms: N_1  and  C_5
    2  A    between atoms: C_2  and  N_15
    3  A    between atoms: C_2  and  C_21
    4  A    between atoms: C_6  and  N_15
    5  A    between atoms: C_6  and  C_23
                            x       y       z     vdW  Elec       q    Type
                         _______ _______ _______ _____ _____    ______ ____

>  <TORSDO>
F 5

$$$$
=
 OpenBabel10272400443D

 25 27  0  0  1  0  0  0  0  0999 V2000
  187.7820  177.9370  144.3410 N   0  0  0  0  0  0  0  0  0  0  0  0
  186.7430  178.1980  143.5170 C   0  0  0  0  0  0  0  0  0  0  0  0
  185.1500  178.2330  146.7870 C   0  0  0  0  0  1  0  0  0  0  0  0
  185.9990  178.1710  145.5670 C   0  0  0  0  0  0  0  0  0  0  0  0
  184.3680  178.6500  143.6580 C   0  0  0  0  0  0  0  0  0  0  0  0
  182.8910  178.8540  144.5800 Cl  0  0  0  0  0  0  0  0  0  0  0  0
  186.7410  178.3350  142.1290 C   0  0  0  0  0  3  0  0  0  0  0  0
  187.3270  177.9180  145.5910 N   0  0  0  0  0  0  0  0  0  0  0  0
  184.3420  178.7870  142.2600 C   0  0  0  0  0  3  0  0  0  0  0  0
  185.5200  178.6320  141.4960 C   0  0  0  0  0  0  0  0  0  0  0  0
  185.5990  178.3560  144.2560 C   0  0  0  0  0  0  0  0  0  0  0  0
  189.1580  177.6860  143.9780 C   0  0  0  0  0  0  0  0  0  0  0  0
  191.8450  177.2620  143.2540 C   0  0  0  0  0  3  0  0  0  0  0  0
  189.5430  176.5010  143.3100 C   0  0  0  0  0  0  0  0  0  0  0  0
  190.8810  176.2980  142.9560 C   0  0  0  0  0  3  0  0  0  0  0  0
  191.4770  178.4350  143.9120 C   0  0  0  0  0  3  0  0  0  0  0  0
  188.5980  175.4780  143.0110 N   0  0  0  0  0  1  0  0  0  0  0  0
  190.1440  178.6440  144.2700 C   0  0  0  0  0  3  0  0  0  0  0  0
  185.4700  178.7880  140.0030 C   0  0  0  0  0  2  0  0  0  0  0  0
  184.2020  179.3420  139.5070 N   0  0  0  0  0  0  0  0  0  0  0  0
  184.4600  180.4980  138.8470 O   0  0  0  0  0  1  0  0  0  0  0  0
  183.5900  178.4170  138.5570 C   0  0  0  0  0  2  0  0  0  0  0  0
  181.2990  177.7910  138.1940 O   0  0  0  0  0  1  0  0  0  0  0  0
  182.6010  176.3590  139.5910 C   0  0  0  0  0  1  0  0  0  0  0  0
  182.3300  177.7800  139.1340 C   0  0  1  0  0  3  0  0  0  0  0  0
  1  8  1  0  0  0  0
  2 11  1  0  0  0  0
  2  1  1  0  0  0  0
  4  8  2  0  0  0  0
  4  3  1  0  0  0  0
  5 11  2  0  0  0  0
  5  6  1  0  0  0  0
  7  2  2  0  0  0  0
  9  5  1  0  0  0  0
 10  7  1  0  0  0  0
 10  9  2  0  0  0  0
 11  4  1  0  0  0  0
 12 18  1  0  0  0  0
 12  1  1  0  0  0  0
 13 16  1  0  0  0  0
 14 12  2  0  0  0  0
 15 13  2  0  0  0  0
 15 14  1  0  0  0  0
 16 18  2  0  0  0  0
 17 14  1  0  0  0  0
 19 10  1  0  0  0  0
 20 19  1  0  0  0  0
 21 20  1  0  0  0  0
 22 25  1  0  0  0  0
 22 20  1  0  0  0  0
 23 25  1  0  0  0  0
 25 24  1  6  0  0  0
M  END
>  <MODEL>
5

>  <REMARK>
 VINA RESULT:      -8.7      3.489      5.986
  Name = 
  5 active torsions:
  status: ('A' for Active; 'I' for Inactive)
    1  A    between atoms: N_1  and  C_5
    2  A    between atoms: C_2  and  N_15
    3  A    between atoms: C_2  and  C_21
    4  A    between atoms: C_6  and  N_15
    5  A    between atoms: C_6  and  C_23
                            x       y       z     vdW  Elec       q    Type
                         _______ _______ _______ _____ _____    ______ ____

>  <TORSDO>
F 5

$$$$
=
 OpenBabel10272400443D

 25 27  0  0  1  0  0  0  0  0999 V2000
  186.8060  177.8150  144.4300 N   0  0  0  0  0  0  0  0  0  0  0  0
  187.8820  177.5780  143.6460 C   0  0  0  0  0  0  0  0  0  0  0  0
  189.2320  177.0310  146.9790 C   0  0  0  0  0  1  0  0  0  0  0  0
  188.4780  177.3030  145.7250 C   0  0  0  0  0  0  0  0  0  0  0  0
  190.2050  176.9360  143.8770 C   0  0  0  0  0  0  0  0  0  0  0  0
  191.5960  176.5130  144.8570 Cl  0  0  0  0  0  0  0  0  0  0  0  0
  187.9730  177.6090  142.2540 C   0  0  0  0  0  3  0  0  0  0  0  0
  187.1720  177.6490  145.6980 N   0  0  0  0  0  0  0  0  0  0  0  0
  190.3220  176.9680  142.4770 C   0  0  0  0  0  3  0  0  0  0  0  0
  189.2140  177.3010  141.6670 C   0  0  0  0  0  0  0  0  0  0  0  0
  188.9570  177.2470  144.4290 C   0  0  0  0  0  0  0  0  0  0  0  0
  185.4790  178.2090  144.0160 C   0  0  0  0  0  0  0  0  0  0  0  0
  182.9190  179.0030  143.1530 C   0  0  0  0  0  3  0  0  0  0  0  0
  184.5430  178.7380  144.9350 C   0  0  0  0  0  0  0  0  0  0  0  0
  183.2740  179.1290  144.4970 C   0  0  0  0  0  3  0  0  0  0  0  0
  183.8340  178.4830  142.2380 C   0  0  0  0  0  3  0  0  0  0  0  0
  184.8510  178.8580  146.3210 N   0  0  0  0  0  1  0  0  0  0  0  0
  185.1020  178.0900  142.6670 C   0  0  0  0  0  3  0  0  0  0  0  0
  189.3590  177.3220  140.1720 C   0  0  0  0  0  2  0  0  0  0  0  0
  188.3460  178.1390  139.4900 N   0  0  0  0  0  0  0  0  0  0  0  0
  188.9630  179.1840  138.8850 O   0  0  0  0  0  1  0  0  0  0  0  0
  187.6850  177.3540  138.4510 C   0  0  0  0  0  2  0  0  0  0  0  0
  186.0910  177.4720  136.6580 O   0  0  0  0  0  1  0  0  0  0  0  0
  185.4250  178.3950  138.7560 C   0  0  0  0  0  1  0  0  0  0  0  0
  186.5640  178.1450  137.7850 C   0  0  1  0  0  3  0  0  0  0  0  0
  1  8  1  0  0  0  0
  2 11  1  0  0  0  0
  2  1  1  0  0  0  0
  4  3  1  0  0  0  0
  5 11  2  0  0  0  0
  5  6  1  0  0  0  0
  7  2  2  0  0  0  0
  8  4  2  0  0  0  0
  9  5  1  0  0  0  0
 10  7  1  0  0  0  0
 10  9  2  0  0  0  0
 11  4  1  0  0  0  0
 12  1  1  0  0  0  0
 12 14  1  0  0  0  0
 13 15  1  0  0  0  0
 14 17  1  0  0  0  0
 15 14  2  0  0  0  0
 16 18  1  0  0  0  0
 16 13  2  0  0  0  0
 18 12  2  0  0  0  0
 19 10  1  0  0  0  0
 20 19  1  0  0  0  0
 21 20  1  0  0  0  0
 22 20  1  0  0  0  0
 23 25  1  0  0  0  0
 25 22  1  0  0  0  0
 25 24  1  1  0  0  0
M  END
>  <MODEL>
6

>  <REMARK>
 VINA RESULT:      -8.7      1.683      2.197
  Name = 
  5 active torsions:
  status: ('A' for Active; 'I' for Inactive)
    1  A    between atoms: N_1  and  C_5
    2  A    between atoms: C_2  and  N_15
    3  A    between atoms: C_2  and  C_21
    4  A    between atoms: C_6  and  N_15
    5  A    between atoms: C_6  and  C_23
                            x       y       z     vdW  Elec       q    Type
                         _______ _______ _______ _____ _____    ______ ____

>  <TORSDO>
F 5

$$$$
=
 OpenBabel10272400443D

 25 27  0  0  1  0  0  0  0  0999 V2000
  185.7650  178.3130  144.5750 N   0  0  0  0  0  0  0  0  0  0  0  0
  185.9390  178.4010  143.2380 C   0  0  0  0  0  0  0  0  0  0  0  0
  182.3530  178.9070  143.5760 C   0  0  0  0  0  1  0  0  0  0  0  0
  183.8200  178.6780  143.6710 C   0  0  0  0  0  0  0  0  0  0  0  0
  184.6170  178.7860  141.2460 C   0  0  0  0  0  0  0  0  0  0  0  0
  183.0840  179.0830  140.4470 Cl  0  0  0  0  0  0  0  0  0  0  0  0
  187.1210  178.3120  142.5010 C   0  0  0  0  0  3  0  0  0  0  0  0
  184.4720  178.4790  144.8390 N   0  0  0  0  0  0  0  0  0  0  0  0
  185.7940  178.6940  140.4830 C   0  0  0  0  0  3  0  0  0  0  0  0
  187.0410  178.4600  141.1050 C   0  0  0  0  0  0  0  0  0  0  0  0
  184.7310  178.6350  142.6320 C   0  0  0  0  0  0  0  0  0  0  0  0
  186.7690  178.0550  145.5830 C   0  0  0  0  0  0  0  0  0  0  0  0
  188.7320  177.4930  147.5210 C   0  0  0  0  0  3  0  0  0  0  0  0
  186.6190  178.5160  146.9120 C   0  0  0  0  0  0  0  0  0  0  0  0
  187.6000  178.2330  147.8670 C   0  0  0  0  0  3  0  0  0  0  0  0
  188.8900  177.0330  146.2130 C   0  0  0  0  0  3  0  0  0  0  0  0
  185.4950  179.2980  147.3030 N   0  0  0  0  0  1  0  0  0  0  0  0
  187.9160  177.3130  145.2540 C   0  0  0  0  0  3  0  0  0  0  0  0
  188.2870  178.3710  140.2720 C   0  0  0  0  0  2  0  0  0  0  0  0
  188.0420  178.4670  138.8260 N   0  0  0  0  0  0  0  0  0  0  0  0
  188.9350  179.3330  138.2880 O   0  0  0  0  0  1  0  0  0  0  0  0
  188.2530  177.1670  138.1950 C   0  0  0  0  0  2  0  0  0  0  0  0
  186.1790  177.8150  137.1690 O   0  0  0  0  0  1  0  0  0  0  0  0
  187.9120  177.0570  135.7130 C   0  0  0  0  0  1  0  0  0  0  0  0
  187.2490  176.9250  137.0720 C   0  0  1  0  0  3  0  0  0  0  0  0
  1  8  1  0  0  0  0
  1 12  1  0  0  0  0
  2  1  1  0  0  0  0
  3  4  1  0  0  0  0
  4  8  2  0  0  0  0
  5 11  2  0  0  0  0
  6  5  1  0  0  0  0
  7  2  2  0  0  0  0
  9 10  2  0  0  0  0
  9  5  1  0  0  0  0
 10  7  1  0  0  0  0
 11  2  1  0  0  0  0
 11  4  1  0  0  0  0
 12 14  1  0  0  0  0
 13 15  1  0  0  0  0
 14 17  1  0  0  0  0
 14 15  2  0  0  0  0
 16 13  2  0  0  0  0
 18 12  2  0  0  0  0
 18 16  1  0  0  0  0
 19 10  1  0  0  0  0
 20 19  1  0  0  0  0
 21 20  1  0  0  0  0
 22 20  1  0  0  0  0
 25 24  1  6  0  0  0
 25 23  1  0  0  0  0
 25 22  1  0  0  0  0
M  END
>  <MODEL>
7

>  <REMARK>
 VINA RESULT:      -8.4      2.973      5.053
  Name = 
  5 active torsions:
  status: ('A' for Active; 'I' for Inactive)
    1  A    between atoms: N_1  and  C_5
    2  A    between atoms: C_2  and  N_15
    3  A    between atoms: C_2  and  C_21
    4  A    between atoms: C_6  and  N_15
    5  A    between atoms: C_6  and  C_23
                            x       y       z     vdW  Elec       q    Type
                         _______ _______ _______ _____ _____    ______ ____

>  <TORSDO>
F 5

$$$$
=
 OpenBabel10272400443D

 25 27  0  0  1  0  0  0  0  0999 V2000
  188.0030  177.6710  145.1570 N   0  0  0  0  0  0  0  0  0  0  0  0
  187.6860  177.8660  143.8570 C   0  0  0  0  0  0  0  0  0  0  0  0
  184.5470  178.6260  145.5300 C   0  0  0  0  0  1  0  0  0  0  0  0
  185.9140  178.2720  145.0610 C   0  0  0  0  0  0  0  0  0  0  0  0
  185.7810  178.5360  142.5220 C   0  0  0  0  0  0  0  0  0  0  0  0
  184.1040  179.0270  142.3670 Cl  0  0  0  0  0  0  0  0  0  0  0  0
  188.5020  177.7490  142.7310 C   0  0  0  0  0  3  0  0  0  0  0  0
  186.9210  177.9160  145.8900 N   0  0  0  0  0  0  0  0  0  0  0  0
  186.5820  178.4190  141.3740 C   0  0  0  0  0  3  0  0  0  0  0  0
  187.9360  178.0290  141.4740 C   0  0  0  0  0  0  0  0  0  0  0  0
  186.3750  178.2510  143.7570 C   0  0  0  0  0  0  0  0  0  0  0  0
  189.2710  177.2430  145.7040 C   0  0  0  0  0  0  0  0  0  0  0  0
  191.7490  176.3710  146.7170 C   0  0  0  0  0  3  0  0  0  0  0  0
  189.4280  176.9720  147.0830 C   0  0  0  0  0  0  0  0  0  0  0  0
  190.6630  176.5410  147.5770 C   0  0  0  0  0  3  0  0  0  0  0  0
  191.6050  176.6340  145.3540 C   0  0  0  0  0  3  0  0  0  0  0  0
  188.3560  177.1590  148.0030 N   0  0  0  0  0  1  0  0  0  0  0  0
  190.3760  177.0660  144.8540 C   0  0  0  0  0  3  0  0  0  0  0  0
  188.7760  177.9170  140.2350 C   0  0  0  0  0  2  0  0  0  0  0  0
  188.1040  178.3920  139.0170 N   0  0  0  0  0  0  0  0  0  0  0  0
  188.9200  179.2670  138.3810 O   0  0  0  0  0  1  0  0  0  0  0  0
  187.8610  177.2740  138.1100 C   0  0  0  0  0  2  0  0  0  0  0  0
  186.3520  176.4210  136.4470 O   0  0  0  0  0  1  0  0  0  0  0  0
  185.4890  178.0680  137.9430 C   0  0  0  0  0  1  0  0  0  0  0  0
  186.6940  177.5630  137.1710 C   0  0  1  0  0  3  0  0  0  0  0  0
  1 12  1  0  0  0  0
  1  8  1  0  0  0  0
  2  1  1  0  0  0  0
  4  3  1  0  0  0  0
  4  8  2  0  0  0  0
  5 11  2  0  0  0  0
  6  5  1  0  0  0  0
  7  2  2  0  0  0  0
  9 10  2  0  0  0  0
  9  5  1  0  0  0  0
 10  7  1  0  0  0  0
 11  2  1  0  0  0  0
 11  4  1  0  0  0  0
 12 14  1  0  0  0  0
 13 15  1  0  0  0  0
 14 15  2  0  0  0  0
 14 17  1  0  0  0  0
 16 13  2  0  0  0  0
 18 16  1  0  0  0  0
 18 12  2  0  0  0  0
 19 10  1  0  0  0  0
 20 19  1  0  0  0  0
 21 20  1  0  0  0  0
 22 20  1  0  0  0  0
 23 25  1  0  0  0  0
 25 24  1  1  0  0  0
 25 22  1  0  0  0  0
M  END
>  <MODEL>
8

>  <REMARK>
 VINA RESULT:      -8.3      2.578      4.935
  Name = 
  5 active torsions:
  status: ('A' for Active; 'I' for Inactive)
    1  A    between atoms: N_1  and  C_5
    2  A    between atoms: C_2  and  N_15
    3  A    between atoms: C_2  and  C_21
    4  A    between atoms: C_6  and  N_15
    5  A    between atoms: C_6  and  C_23
                            x       y       z     vdW  Elec       q    Type
                         _______ _______ _______ _____ _____    ______ ____

>  <TORSDO>
F 5

$$$$
=
 OpenBabel10272400443D

 25 27  0  0  1  0  0  0  0  0999 V2000
  189.0780  177.9600  141.6970 N   0  0  0  0  0  0  0  0  0  0  0  0
  187.7390  178.1250  141.7910 C   0  0  0  0  0  0  0  0  0  0  0  0
  188.2880  178.3710  138.2030 C   0  0  0  0  0  1  0  0  0  0  0  0
  188.2960  178.2400  139.6850 C   0  0  0  0  0  0  0  0  0  0  0  0
  185.8360  178.4820  140.3370 C   0  0  0  0  0  0  0  0  0  0  0  0
  185.1340  178.7130  138.7460 Cl  0  0  0  0  0  0  0  0  0  0  0  0
  186.9340  178.1050  142.9300 C   0  0  0  0  0  3  0  0  0  0  0  0
  189.4170  178.0330  140.4120 N   0  0  0  0  0  0  0  0  0  0  0  0
  185.0060  178.4720  141.4710 C   0  0  0  0  0  3  0  0  0  0  0  0
  185.5480  178.2830  142.7610 C   0  0  0  0  0  0  0  0  0  0  0  0
  187.2090  178.3020  140.5390 C   0  0  0  0  0  0  0  0  0  0  0  0
  190.0230  177.7640  142.7720 C   0  0  0  0  0  0  0  0  0  0  0  0
  191.9000  177.4330  144.8440 C   0  0  0  0  0  3  0  0  0  0  0  0
  190.3960  176.4700  143.2040 C   0  0  0  0  0  0  0  0  0  0  0  0
  191.3280  176.3150  144.2350 C   0  0  0  0  0  3  0  0  0  0  0  0
  191.5410  178.7140  144.4260 C   0  0  0  0  0  3  0  0  0  0  0  0
  189.8160  175.3010  142.6310 N   0  0  0  0  0  1  0  0  0  0  0  0
  190.6100  178.8760  143.3990 C   0  0  0  0  0  3  0  0  0  0  0  0
  184.6420  178.2680  143.9590 C   0  0  0  0  0  2  0  0  0  0  0  0
  185.2690  178.7880  145.1830 N   0  0  0  0  0  0  0  0  0  0  0  0
  184.3010  179.2880  145.9890 O   0  0  0  0  0  1  0  0  0  0  0  0
  185.9320  177.7070  145.9050 C   0  0  0  0  0  2  0  0  0  0  0  0
  187.0200  178.1020  148.0100 O   0  0  0  0  0  1  0  0  0  0  0  0
  188.4060  177.4260  146.1890 C   0  0  0  0  0  1  0  0  0  0  0  0
  187.1800  178.2030  146.6280 C   0  0  1  0  0  3  0  0  0  0  0  0
  1  2  1  0  0  0  0
  1 12  1  0  0  0  0
  2  7  1  0  0  0  0
  3  4  1  0  0  0  0
  4  8  2  0  0  0  0
  4 11  1  0  0  0  0
  5 11  1  0  0  0  0
  5  9  2  0  0  0  0
  6  5  1  0  0  0  0
  8  1  1  0  0  0  0
  9 10  1  0  0  0  0
 10  7  2  0  0  0  0
 10 19  1  0  0  0  0
 11  2  2  0  0  0  0
 12 14  2  0  0  0  0
 12 18  1  0  0  0  0
 14 15  1  0  0  0  0
 15 13  2  0  0  0  0
 16 13  1  0  0  0  0
 17 14  1  0  0  0  0
 18 16  2  0  0  0  0
 19 20  1  0  0  0  0
 20 22  1  0  0  0  0
 20 21  1  0  0  0  0
 22 25  1  0  0  0  0
 25 24  1  6  0  0  0
 25 23  1  0  0  0  0
M  END
>  <MODEL>
9

>  <REMARK>
 VINA RESULT:      -8.3      3.567      7.139
  Name = 
  5 active torsions:
  status: ('A' for Active; 'I' for Inactive)
    1  A    between atoms: N_1  and  C_5
    2  A    between atoms: C_2  and  N_15
    3  A    between atoms: C_2  and  C_21
    4  A    between atoms: C_6  and  N_15
    5  A    between atoms: C_6  and  C_23
                            x       y       z     vdW  Elec       q    Type
                         _______ _______ _______ _____ _____    ______ ____

>  <TORSDO>
F 5

$$$$
