=
 OpenBabel10272402113D

 32 38  0  0  1  0  0  0  0  0999 V2000
  189.8200  177.7710  143.0720 C   0  0  0  0  0  0  0  0  0  0  0  0
  188.0520  176.9200  144.7050 C   0  0  1  0  0  3  0  0  0  0  0  0
  191.1250  178.2420  142.8570 C   0  0  0  0  0  3  0  0  0  0  0  0
  189.4170  177.4520  144.3870 C   0  0  0  0  0  0  0  0  0  0  0  0
  187.5870  177.6490  145.9710 C   0  0  1  0  0  3  0  0  0  0  0  0
  184.2110  179.5030  142.7830 C   0  0  0  0  0  2  0  0  0  0  0  0
  187.0310  176.9480  143.5470 C   0  0  2  0  0  3  0  0  0  0  0  0
  184.3940  179.1220  145.2730 C   0  0  0  0  0  2  0  0  0  0  0  0
  185.2410  177.8910  144.9850 C   0  0  2  0  0  3  0  0  0  0  0  0
  190.3050  177.6410  145.4640 C   0  0  0  0  0  0  0  0  0  0  0  0
  186.0790  177.4560  146.2030 C   0  0  0  0  0  2  0  0  0  0  0  0
  189.8420  177.5090  146.9030 C   0  0  0  0  0  2  0  0  0  0  0  0
  191.6050  178.0880  145.2210 C   0  0  0  0  0  3  0  0  0  0  0  0
  187.6760  176.7920  142.1700 C   0  0  0  0  0  2  0  0  0  0  0  0
  188.8090  177.7940  141.9470 C   0  0  2  0  0  3  0  0  0  0  0  0
  186.0600  178.1150  143.7030 C   0  0  2  0  0  3  0  0  0  0  0  0
  188.4100  177.1840  147.0980 N   0  0  0  0  0  0  0  0  0  0  0  0
  192.0190  178.3750  143.9200 C   0  0  0  0  0  3  0  0  0  0  0  0
  183.4410  179.3610  144.0990 C   0  0  0  0  0  2  0  0  0  0  0  0
  185.0950  178.2810  142.5310 C   0  0  0  0  0  2  0  0  0  0  0  0
  188.3320  176.8600  138.3130 C   0  0  1  0  0  3  0  0  0  0  0  0
  191.9290  176.7920  137.0520 C   0  0  0  0  0  1  0  0  0  0  0  0
  187.7230  177.4510  137.2050 O   0  0  0  0  0  1  0  0  0  0  0  0
  190.6670  175.9310  138.9980 C   0  0  2  0  0  3  0  0  0  0  0  0
  189.4390  177.6340  140.5520 C   0  0  1  0  0  3  0  0  0  0  0  0
  189.6670  176.2160  137.8780 C   0  0  2  0  0  3  0  0  0  0  0  0
  190.1690  176.2880  140.4120 C   0  0  0  0  0  2  0  0  0  0  0  0
  188.4310  177.8420  139.4560 C   0  0  0  0  0  0  0  0  0  0  0  0
  187.6880  178.8130  139.4950 O   0  0  0  0  0  0  0  0  0  0  0  0
  190.8720  177.1300  138.0820 C   0  0  2  0  0  3  0  0  0  0  0  0
  188.0100  177.9050  148.3000 C   0  0  0  0  0  2  0  0  0  0  0  0
  189.2340  178.4860  148.9810 C   0  0  0  0  0  1  0  0  0  0  0  0
  1  4  1  0  0  0  0
  2  4  1  6  0  0  0
  2  5  1  0  0  0  0
  3  1  2  0  0  0  0
  3 18  1  0  0  0  0
  4 10  2  0  0  0  0
  5 11  1  1  0  0  0
  5 17  1  0  0  0  0
  6 19  1  0  0  0  0
  7 14  1  6  0  0  0
  7 16  1  0  0  0  0
  7  2  1  0  0  0  0
  9  8  1  1  0  0  0
  9 11  1  0  0  0  0
 10 12  1  0  0  0  0
 12 17  1  0  0  0  0
 13 10  1  0  0  0  0
 15 14  1  1  0  0  0
 15  1  1  0  0  0  0
 16 20  1  6  0  0  0
 16  9  1  0  0  0  0
 17 31  1  0  0  0  0
 18 13  2  0  0  0  0
 19  8  1  0  0  0  0
 20  6  1  0  0  0  0
 21 23  1  6  0  0  0
 21 28  1  0  0  0  0
 22 30  1  0  0  0  0
 24 27  1  1  0  0  0
 25 27  1  1  0  0  0
 25 15  1  0  0  0  0
 26 30  1  0  0  0  0
 26 21  1  0  0  0  0
 26 24  1  0  0  0  0
 28 29  2  0  0  0  0
 28 25  1  0  0  0  0
 30 24  1  0  0  0  0
 31 32  1  0  0  0  0
M  END
>  <MODEL>
1

>  <REMARK>
 VINA RESULT:      -9.9      0.000      0.000
  Name = 
  2 active torsions:
  status: ('A' for Active; 'I' for Inactive)
    1  A    between atoms: C_13  and  N_29
    2  A    between atoms: C_16  and  C_27
                            x       y       z     vdW  Elec       q    Type
                         _______ _______ _______ _____ _____    ______ ____

>  <TORSDO>
F 2

$$$$
=
 OpenBabel10272402113D

 32 38  0  0  1  0  0  0  0  0999 V2000
  186.9170  178.1700  141.9080 C   0  0  0  0  0  0  0  0  0  0  0  0
  187.9340  176.7230  143.7480 C   0  0  1  0  0  3  0  0  0  0  0  0
  187.0450  178.7670  140.6430 C   0  0  0  0  0  3  0  0  0  0  0  0
  187.9940  177.4150  142.4190 C   0  0  0  0  0  0  0  0  0  0  0  0
  189.2880  176.9680  144.4250 C   0  0  1  0  0  3  0  0  0  0  0  0
  186.4110  179.5460  147.6000 C   0  0  0  0  0  2  0  0  0  0  0  0
  186.7130  177.0640  144.6310 C   0  0  2  0  0  3  0  0  0  0  0  0
  188.6540  178.3840  147.6570 C   0  0  0  0  0  2  0  0  0  0  0  0
  188.1120  177.3700  146.6590 C   0  0  2  0  0  3  0  0  0  0  0  0
  189.1880  177.2970  141.6820 C   0  0  0  0  0  0  0  0  0  0  0  0
  189.2340  176.6150  145.9210 C   0  0  0  0  0  2  0  0  0  0  0  0
  190.4320  176.6730  142.2860 C   0  0  0  0  0  2  0  0  0  0  0  0
  189.2820  177.8800  140.4160 C   0  0  0  0  0  3  0  0  0  0  0  0
  185.4620  177.4080  143.8240 C   0  0  0  0  0  2  0  0  0  0  0  0
  185.7280  178.4970  142.7840 C   0  0  2  0  0  3  0  0  0  0  0  0
  187.0930  178.0530  145.7300 C   0  0  2  0  0  3  0  0  0  0  0  0
  190.3130  176.2130  143.6880 N   0  0  0  0  0  0  0  0  0  0  0  0
  188.2100  178.6020  139.8920 C   0  0  0  0  0  3  0  0  0  0  0  0
  187.4950  178.9330  148.4930 C   0  0  0  0  0  2  0  0  0  0  0  0
  185.9120  178.5310  146.5710 C   0  0  0  0  0  2  0  0  0  0  0  0
  181.9510  178.7140  142.7330 C   0  0  1  0  0  3  0  0  0  0  0  0
  181.2630  179.3720  139.0410 C   0  0  0  0  0  1  0  0  0  0  0  0
  180.9960  179.5670  143.2890 O   0  0  0  0  0  1  0  0  0  0  0  0
  182.6570  177.8320  140.3860 C   0  0  2  0  0  3  0  0  0  0  0  0
  184.4550  178.8410  141.9890 C   0  0  1  0  0  3  0  0  0  0  0  0
  181.5410  178.3640  141.2850 C   0  0  2  0  0  3  0  0  0  0  0  0
  184.0250  177.6800  141.0790 C   0  0  0  0  0  2  0  0  0  0  0  0
  183.3380  179.2920  142.8890 C   0  0  0  0  0  0  0  0  0  0  0  0
  183.5580  180.1290  143.7530 O   0  0  0  0  0  0  0  0  0  0  0  0
  182.1820  179.2720  140.2400 C   0  0  2  0  0  3  0  0  0  0  0  0
  191.6130  176.4750  144.2930 C   0  0  0  0  0  2  0  0  0  0  0  0
  191.9450  177.9490  144.1780 C   0  0  0  0  0  1  0  0  0  0  0  0
  1  4  1  0  0  0  0
  1 15  1  0  0  0  0
  2  4  1  6  0  0  0
  2  5  1  0  0  0  0
  2  7  1  0  0  0  0
  3  1  2  0  0  0  0
  5 11  1  1  0  0  0
  6 19  1  0  0  0  0
  7 14  1  6  0  0  0
  7 16  1  0  0  0  0
  8 19  1  0  0  0  0
  9 11  1  6  0  0  0
  9  8  1  0  0  0  0
 10 12  1  0  0  0  0
 10  4  2  0  0  0  0
 12 17  1  0  0  0  0
 13 10  1  0  0  0  0
 15 14  1  1  0  0  0
 16 20  1  1  0  0  0
 16  9  1  0  0  0  0
 17 31  1  0  0  0  0
 17  5  1  0  0  0  0
 18 13  2  0  0  0  0
 18  3  1  0  0  0  0
 20  6  1  0  0  0  0
 21 28  1  0  0  0  0
 21 23  1  6  0  0  0
 22 30  1  0  0  0  0
 24 27  1  1  0  0  0
 24 26  1  0  0  0  0
 25 27  1  1  0  0  0
 25 15  1  0  0  0  0
 25 28  1  0  0  0  0
 26 21  1  0  0  0  0
 28 29  2  0  0  0  0
 30 24  1  0  0  0  0
 30 26  1  0  0  0  0
 32 31  1  0  0  0  0
M  END
>  <MODEL>
2

>  <REMARK>
 VINA RESULT:      -9.1      2.555      5.671
  Name = 
  2 active torsions:
  status: ('A' for Active; 'I' for Inactive)
    1  A    between atoms: C_13  and  N_29
    2  A    between atoms: C_16  and  C_27
                            x       y       z     vdW  Elec       q    Type
                         _______ _______ _______ _____ _____    ______ ____

>  <TORSDO>
F 2

$$$$
=
 OpenBabel10272402113D

 32 38  0  0  1  0  0  0  0  0999 V2000
  188.3370  177.2590  142.1780 C   0  0  0  0  0  0  0  0  0  0  0  0
  187.5930  178.6090  140.1440 C   0  0  1  0  0  3  0  0  0  0  0  0
  189.3070  176.4470  142.7890 C   0  0  0  0  0  3  0  0  0  0  0  0
  188.5620  177.7190  140.8630 C   0  0  0  0  0  0  0  0  0  0  0  0
  187.4960  178.0760  138.7090 C   0  0  1  0  0  3  0  0  0  0  0  0
  182.8160  177.0910  140.1680 C   0  0  0  0  0  2  0  0  0  0  0  0
  186.2280  178.8180  140.8360 C   0  0  2  0  0  3  0  0  0  0  0  0
  184.0320  177.4930  137.9910 C   0  0  0  0  0  2  0  0  0  0  0  0
  184.9670  178.4410  138.7310 C   0  0  2  0  0  3  0  0  0  0  0  0
  189.7250  177.3350  140.1680 C   0  0  0  0  0  0  0  0  0  0  0  0
  186.2870  178.6760  137.9730 C   0  0  0  0  0  2  0  0  0  0  0  0
  189.9000  177.6350  138.6910 C   0  0  0  0  0  2  0  0  0  0  0  0
  190.6850  176.5460  140.8060 C   0  0  0  0  0  3  0  0  0  0  0  0
  186.3070  178.7470  142.3600 C   0  0  0  0  0  2  0  0  0  0  0  0
  186.9950  177.4700  142.8440 C   0  0  2  0  0  3  0  0  0  0  0  0
  185.1480  177.9610  140.1810 C   0  0  2  0  0  3  0  0  0  0  0  0
  188.7760  178.3400  138.0340 N   0  0  0  0  0  0  0  0  0  0  0  0
  190.4840  176.1140  142.1170 C   0  0  0  0  0  3  0  0  0  0  0  0
  182.6720  177.4790  138.6940 C   0  0  0  0  0  2  0  0  0  0  0  0
  183.7950  178.0210  140.8870 C   0  0  0  0  0  2  0  0  0  0  0  0
  185.9950  179.0180  146.1470 C   0  0  1  0  0  3  0  0  0  0  0  0
  188.1150  177.0250  148.6100 C   0  0  0  0  0  1  0  0  0  0  0  0
  184.8170  179.1020  146.8900 O   0  0  0  0  0  1  0  0  0  0  0  0
  188.4450  178.1870  146.4500 C   0  0  2  0  0  3  0  0  0  0  0  0
  187.0550  177.4070  144.3800 C   0  0  1  0  0  3  0  0  0  0  0  0
  187.1810  178.7500  147.0990 C   0  0  2  0  0  3  0  0  0  0  0  0
  188.3600  178.0130  144.9210 C   0  0  0  0  0  2  0  0  0  0  0  0
  185.8420  178.0330  145.0130 C   0  0  0  0  0  0  0  0  0  0  0  0
  184.7280  177.7390  144.6030 O   0  0  0  0  0  0  0  0  0  0  0  0
  187.5200  177.2700  147.2390 C   0  0  2  0  0  3  0  0  0  0  0  0
  188.7140  177.7950  136.6830 C   0  0  0  0  0  2  0  0  0  0  0  0
  188.8260  176.2830  136.7340 C   0  0  0  0  0  1  0  0  0  0  0  0
  1  3  1  0  0  0  0
  1 15  1  0  0  0  0
  2  7  1  0  0  0  0
  2  4  1  1  0  0  0
  4  1  2  0  0  0  0
  5 11  1  6  0  0  0
  5  2  1  0  0  0  0
  6 20  1  0  0  0  0
  7 14  1  1  0  0  0
  8 19  1  0  0  0  0
  8  9  1  0  0  0  0
  9 11  1  6  0  0  0
  9 16  1  0  0  0  0
 10 13  2  0  0  0  0
 10  4  1  0  0  0  0
 12 10  1  0  0  0  0
 13 18  1  0  0  0  0
 15 14  1  1  0  0  0
 15 25  1  0  0  0  0
 16  7  1  0  0  0  0
 16 20  1  1  0  0  0
 17 12  1  0  0  0  0
 17  5  1  0  0  0  0
 18  3  2  0  0  0  0
 19  6  1  0  0  0  0
 21 23  1  1  0  0  0
 21 26  1  0  0  0  0
 24 27  1  6  0  0  0
 24 26  1  0  0  0  0
 24 30  1  0  0  0  0
 25 27  1  1  0  0  0
 25 28  1  0  0  0  0
 26 30  1  0  0  0  0
 28 21  1  0  0  0  0
 29 28  2  0  0  0  0
 30 22  1  0  0  0  0
 31 32  1  0  0  0  0
 31 17  1  0  0  0  0
M  END
>  <MODEL>
3

>  <REMARK>
 VINA RESULT:      -8.1      3.072      6.979
  Name = 
  2 active torsions:
  status: ('A' for Active; 'I' for Inactive)
    1  A    between atoms: C_13  and  N_29
    2  A    between atoms: C_16  and  C_27
                            x       y       z     vdW  Elec       q    Type
                         _______ _______ _______ _____ _____    ______ ____

>  <TORSDO>
F 2

$$$$
=
 OpenBabel10272402113D

 32 38  0  0  1  0  0  0  0  0999 V2000
  189.4580  177.7280  141.9620 C   0  0  0  0  0  0  0  0  0  0  0  0
  188.8600  176.5580  144.1500 C   0  0  1  0  0  3  0  0  0  0  0  0
  190.4500  178.1750  141.0740 C   0  0  0  0  0  3  0  0  0  0  0  0
  189.8510  177.0880  143.1570 C   0  0  0  0  0  0  0  0  0  0  0  0
  189.3890  176.9430  145.5370 C   0  0  1  0  0  3  0  0  0  0  0  0
  185.2490  179.7460  145.5330 C   0  0  0  0  0  2  0  0  0  0  0  0
  187.3860  176.9450  143.9040 C   0  0  2  0  0  3  0  0  0  0  0  0
  186.7780  178.7030  147.2520 C   0  0  0  0  0  2  0  0  0  0  0  0
  187.0220  177.5540  146.2830 C   0  0  2  0  0  3  0  0  0  0  0  0
  191.2170  176.9380  143.4640 C   0  0  0  0  0  0  0  0  0  0  0  0
  188.3050  176.7680  146.6140 C   0  0  0  0  0  2  0  0  0  0  0  0
  191.6740  176.4480  144.8250 C   0  0  0  0  0  2  0  0  0  0  0  0
  192.1840  177.3700  142.5520 C   0  0  0  0  0  3  0  0  0  0  0  0
  187.0500  177.1330  142.4250 C   0  0  0  0  0  2  0  0  0  0  0  0
  188.0100  178.1020  141.7340 C   0  0  2  0  0  3  0  0  0  0  0  0
  186.9550  178.0740  144.8370 C   0  0  2  0  0  3  0  0  0  0  0  0
  190.6020  176.1530  145.8020 N   0  0  0  0  0  0  0  0  0  0  0  0
  191.8020  177.9740  141.3550 C   0  0  0  0  0  3  0  0  0  0  0  0
  185.3910  179.2940  146.9900 C   0  0  0  0  0  2  0  0  0  0  0  0
  185.5440  178.5940  144.5720 C   0  0  0  0  0  2  0  0  0  0  0  0
  185.3630  177.9180  139.0380 C   0  0  1  0  0  3  0  0  0  0  0  0
  187.4400  178.4100  135.8790 C   0  0  0  0  0  1  0  0  0  0  0  0
  184.2470  178.6780  138.6870 O   0  0  0  0  0  1  0  0  0  0  0  0
  187.5680  177.0580  137.9480 C   0  0  2  0  0  3  0  0  0  0  0  0
  187.6510  178.2900  140.2500 C   0  0  1  0  0  3  0  0  0  0  0  0
  186.1140  177.4920  137.7570 C   0  0  2  0  0  3  0  0  0  0  0  0
  188.0550  177.0680  139.4090 C   0  0  0  0  0  2  0  0  0  0  0  0
  186.2000  178.6420  140.0660 C   0  0  0  0  0  0  0  0  0  0  0  0
  185.6990  179.5190  140.7560 O   0  0  0  0  0  0  0  0  0  0  0  0
  187.2510  178.4360  137.3810 C   0  0  2  0  0  3  0  0  0  0  0  0
  191.1420  176.5440  147.0990 C   0  0  0  0  0  2  0  0  0  0  0  0
  192.3480  175.6880  147.4310 C   0  0  0  0  0  1  0  0  0  0  0  0
  1  4  1  0  0  0  0
  2  4  1  6  0  0  0
  2  5  1  0  0  0  0
  3 18  1  0  0  0  0
  3  1  2  0  0  0  0
  4 10  2  0  0  0  0
  5 17  1  0  0  0  0
  5 11  1  1  0  0  0
  6 19  1  0  0  0  0
  7 14  1  6  0  0  0
  7  2  1  0  0  0  0
  7 16  1  0  0  0  0
  9 11  1  1  0  0  0
  9  8  1  0  0  0  0
 10 12  1  0  0  0  0
 12 17  1  0  0  0  0
 13 10  1  0  0  0  0
 15  1  1  0  0  0  0
 15 14  1  6  0  0  0
 16 20  1  6  0  0  0
 16  9  1  0  0  0  0
 17 31  1  0  0  0  0
 18 13  2  0  0  0  0
 19  8  1  0  0  0  0
 20  6  1  0  0  0  0
 21 23  1  6  0  0  0
 21 28  1  0  0  0  0
 22 30  1  0  0  0  0
 24 27  1  1  0  0  0
 25 27  1  6  0  0  0
 25 15  1  0  0  0  0
 26 24  1  0  0  0  0
 26 21  1  0  0  0  0
 28 25  1  0  0  0  0
 28 29  2  0  0  0  0
 30 26  1  0  0  0  0
 30 24  1  0  0  0  0
 31 32  1  0  0  0  0
M  END
>  <MODEL>
4

>  <REMARK>
 VINA RESULT:      -8.0      1.995      2.764
  Name = 
  2 active torsions:
  status: ('A' for Active; 'I' for Inactive)
    1  A    between atoms: C_13  and  N_29
    2  A    between atoms: C_16  and  C_27
                            x       y       z     vdW  Elec       q    Type
                         _______ _______ _______ _____ _____    ______ ____

>  <TORSDO>
F 2

$$$$
=
 OpenBabel10272402113D

 32 38  0  0  1  0  0  0  0  0999 V2000
  188.5520  176.8080  137.5610 C   0  0  0  0  0  0  0  0  0  0  0  0
  187.9240  178.4130  139.4420 C   0  0  1  0  0  3  0  0  0  0  0  0
  188.1780  176.1260  136.3910 C   0  0  0  0  0  3  0  0  0  0  0  0
  187.6030  177.6310  138.2040 C   0  0  0  0  0  0  0  0  0  0  0  0
  186.7170  178.2600  140.3760 C   0  0  1  0  0  3  0  0  0  0  0  0
  190.0960  175.8290  143.1460 C   0  0  0  0  0  2  0  0  0  0  0  0
  189.2820  178.1000  140.1050 C   0  0  2  0  0  3  0  0  0  0  0  0
  187.9240  177.0600  143.5320 C   0  0  0  0  0  2  0  0  0  0  0  0
  188.2850  177.9820  142.3750 C   0  0  2  0  0  3  0  0  0  0  0  0
  186.2930  177.7320  137.6960 C   0  0  0  0  0  0  0  0  0  0  0  0
  187.0570  178.7170  141.8050 C   0  0  0  0  0  2  0  0  0  0  0  0
  185.1960  178.4350  138.4720 C   0  0  0  0  0  2  0  0  0  0  0  0
  185.9530  177.0630  136.5180 C   0  0  0  0  0  3  0  0  0  0  0  0
  190.3540  177.6600  139.1080 C   0  0  0  0  0  2  0  0  0  0  0  0
  189.8790  176.5080  138.2210 C   0  0  2  0  0  3  0  0  0  0  0  0
  189.0990  177.2040  141.3280 C   0  0  2  0  0  3  0  0  0  0  0  0
  185.5840  178.9910  139.7880 N   0  0  0  0  0  0  0  0  0  0  0  0
  186.8960  176.2730  135.8590 C   0  0  0  0  0  3  0  0  0  0  0  0
  189.2100  176.5360  144.1770 C   0  0  0  0  0  2  0  0  0  0  0  0
  190.4100  176.7510  141.9680 C   0  0  0  0  0  2  0  0  0  0  0  0
  192.6840  174.1010  137.4200 C   0  0  1  0  0  3  0  0  0  0  0  0
  194.2470  175.7280  134.3460 C   0  0  0  0  0  1  0  0  0  0  0  0
  192.7660  172.7640  137.0250 O   0  0  0  0  0  1  0  0  0  0  0  0
  193.4780  176.4390  136.5880 C   0  0  2  0  0  3  0  0  0  0  0  0
  190.9730  176.0690  137.2320 C   0  0  1  0  0  3  0  0  0  0  0  0
  193.7210  174.9300  136.6300 C   0  0  2  0  0  3  0  0  0  0  0  0
  192.2480  176.9140  137.3860 C   0  0  0  0  0  2  0  0  0  0  0  0
  191.2610  174.5970  137.3330 C   0  0  0  0  0  0  0  0  0  0  0  0
  190.3330  173.7990  137.3470 O   0  0  0  0  0  0  0  0  0  0  0  0
  193.1460  175.5790  135.3750 C   0  0  2  0  0  3  0  0  0  0  0  0
  184.4170  178.8130  140.6430 C   0  0  0  0  0  2  0  0  0  0  0  0
  183.5770  177.6590  140.1310 C   0  0  0  0  0  1  0  0  0  0  0  0
  1  4  1  0  0  0  0
  1 15  1  0  0  0  0
  2  4  1  6  0  0  0
  2  7  1  0  0  0  0
  2  5  1  0  0  0  0
  3  1  2  0  0  0  0
  5 11  1  1  0  0  0
  6 19  1  0  0  0  0
  7 14  1  6  0  0  0
  7 16  1  0  0  0  0
  8 19  1  0  0  0  0
  9 11  1  6  0  0  0
  9  8  1  0  0  0  0
 10  4  2  0  0  0  0
 10 12  1  0  0  0  0
 12 17  1  0  0  0  0
 13 10  1  0  0  0  0
 15 14  1  6  0  0  0
 16 20  1  1  0  0  0
 16  9  1  0  0  0  0
 17  5  1  0  0  0  0
 17 31  1  0  0  0  0
 18  3  1  0  0  0  0
 18 13  2  0  0  0  0
 20  6  1  0  0  0  0
 21 23  1  6  0  0  0
 22 30  1  0  0  0  0
 24 26  1  0  0  0  0
 24 27  1  1  0  0  0
 25 28  1  0  0  0  0
 25 27  1  1  0  0  0
 25 15  1  0  0  0  0
 26 21  1  0  0  0  0
 28 29  2  0  0  0  0
 28 21  1  0  0  0  0
 30 24  1  0  0  0  0
 30 26  1  0  0  0  0
 32 31  1  0  0  0  0
M  END
>  <MODEL>
5

>  <REMARK>
 VINA RESULT:      -7.9      3.026      6.342
  Name = 
  2 active torsions:
  status: ('A' for Active; 'I' for Inactive)
    1  A    between atoms: C_13  and  N_29
    2  A    between atoms: C_16  and  C_27
                            x       y       z     vdW  Elec       q    Type
                         _______ _______ _______ _____ _____    ______ ____

>  <TORSDO>
F 2

$$$$
=
 OpenBabel10272402113D

 32 38  0  0  1  0  0  0  0  0999 V2000
  185.6630  178.2750  141.3210 C   0  0  0  0  0  0  0  0  0  0  0  0
  188.0400  178.3930  140.3990 C   0  0  1  0  0  3  0  0  0  0  0  0
  184.8120  178.1700  142.4330 C   0  0  0  0  0  3  0  0  0  0  0  0
  187.0590  178.2600  141.5260 C   0  0  0  0  0  0  0  0  0  0  0  0
  189.1490  177.3680  140.6680 C   0  0  1  0  0  3  0  0  0  0  0  0
  187.2870  175.3450  136.4920 C   0  0  0  0  0  2  0  0  0  0  0  0
  187.4450  178.3240  138.9760 C   0  0  2  0  0  3  0  0  0  0  0  0
  189.4830  175.3250  137.7410 C   0  0  0  0  0  2  0  0  0  0  0  0
  189.1980  176.7530  138.1880 C   0  0  2  0  0  3  0  0  0  0  0  0
  187.5820  178.1040  142.8240 C   0  0  0  0  0  0  0  0  0  0  0  0
  190.0260  177.1570  139.4230 C   0  0  0  0  0  2  0  0  0  0  0  0
  189.0630  177.8740  143.0580 C   0  0  0  0  0  2  0  0  0  0  0  0
  186.7150  178.0250  143.9160 C   0  0  0  0  0  3  0  0  0  0  0  0
  186.0170  178.8600  138.8910 C   0  0  0  0  0  2  0  0  0  0  0  0
  185.0930  178.2070  139.9210 C   0  0  2  0  0  3  0  0  0  0  0  0
  187.6820  176.9510  138.3510 C   0  0  2  0  0  3  0  0  0  0  0  0
  189.9110  177.8140  141.8450 N   0  0  0  0  0  0  0  0  0  0  0  0
  185.3340  178.0710  143.7230 C   0  0  0  0  0  3  0  0  0  0  0  0
  188.7920  175.0730  136.3980 C   0  0  0  0  0  2  0  0  0  0  0  0
  187.0170  176.7660  136.9890 C   0  0  0  0  0  2  0  0  0  0  0  0
  181.7090  177.9840  138.2460 C   0  0  1  0  0  3  0  0  0  0  0  0
  179.9820  181.1150  139.5690 C   0  0  0  0  0  1  0  0  0  0  0  0
  180.6300  177.1000  138.2980 O   0  0  0  0  0  1  0  0  0  0  0  0
  182.1780  180.5230  138.5940 C   0  0  2  0  0  3  0  0  0  0  0  0
  183.6570  178.7490  139.8150 C   0  0  1  0  0  3  0  0  0  0  0  0
  181.1790  179.4340  138.2010 C   0  0  2  0  0  3  0  0  0  0  0  0
  183.5890  180.0080  138.9350 C   0  0  0  0  0  2  0  0  0  0  0  0
  182.6930  177.6900  139.3540 C   0  0  0  0  0  0  0  0  0  0  0  0
  182.7100  176.5870  139.8810 O   0  0  0  0  0  0  0  0  0  0  0  0
  181.0960  180.0900  139.5760 C   0  0  2  0  0  3  0  0  0  0  0  0
  190.9390  176.8230  142.1400 C   0  0  0  0  0  2  0  0  0  0  0  0
  190.3450  175.6970  142.9640 C   0  0  0  0  0  1  0  0  0  0  0  0
  1  4  2  0  0  0  0
  1  3  1  0  0  0  0
  2  5  1  0  0  0  0
  2  4  1  1  0  0  0
  3 18  2  0  0  0  0
  4 10  1  0  0  0  0
  5 11  1  6  0  0  0
  5 17  1  0  0  0  0
  6 20  1  0  0  0  0
  7 14  1  1  0  0  0
  7  2  1  0  0  0  0
  9  8  1  1  0  0  0
  9 16  1  0  0  0  0
  9 11  1  0  0  0  0
 10 12  1  0  0  0  0
 10 13  2  0  0  0  0
 15 14  1  6  0  0  0
 15  1  1  0  0  0  0
 16 20  1  6  0  0  0
 16  7  1  0  0  0  0
 17 31  1  0  0  0  0
 17 12  1  0  0  0  0
 18 13  1  0  0  0  0
 19  6  1  0  0  0  0
 19  8  1  0  0  0  0
 21 23  1  1  0  0  0
 21 28  1  0  0  0  0
 22 30  1  0  0  0  0
 24 27  1  1  0  0  0
 24 30  1  0  0  0  0
 25 27  1  6  0  0  0
 25 15  1  0  0  0  0
 26 21  1  0  0  0  0
 26 24  1  0  0  0  0
 26 30  1  0  0  0  0
 28 25  1  0  0  0  0
 28 29  2  0  0  0  0
 31 32  1  0  0  0  0
M  END
>  <MODEL>
6

>  <REMARK>
 VINA RESULT:      -7.7      3.245      7.020
  Name = 
  2 active torsions:
  status: ('A' for Active; 'I' for Inactive)
    1  A    between atoms: C_13  and  N_29
    2  A    between atoms: C_16  and  C_27
                            x       y       z     vdW  Elec       q    Type
                         _______ _______ _______ _____ _____    ______ ____

>  <TORSDO>
F 2

$$$$
=
 OpenBabel10272402113D

 32 38  0  0  1  0  0  0  0  0999 V2000
  187.5560  177.6990  143.5340 C   0  0  0  0  0  0  0  0  0  0  0  0
  188.9610  178.4100  145.5420 C   0  0  1  0  0  3  0  0  0  0  0  0
  186.2850  177.5160  142.9640 C   0  0  0  0  0  3  0  0  0  0  0  0
  187.6470  178.1630  144.8640 C   0  0  0  0  0  0  0  0  0  0  0  0
  188.8260  177.8520  146.9640 C   0  0  1  0  0  3  0  0  0  0  0  0
  192.2900  174.6730  145.2610 C   0  0  0  0  0  2  0  0  0  0  0  0
  190.2140  177.9190  144.7850 C   0  0  2  0  0  3  0  0  0  0  0  0
  191.5320  175.5620  147.5010 C   0  0  0  0  0  2  0  0  0  0  0  0
  191.1850  176.8790  146.8190 C   0  0  2  0  0  3  0  0  0  0  0  0
  186.4780  178.4010  145.6120 C   0  0  0  0  0  0  0  0  0  0  0  0
  190.1990  177.7260  147.6460 C   0  0  0  0  0  2  0  0  0  0  0  0
  186.5370  178.6970  147.0990 C   0  0  0  0  0  2  0  0  0  0  0  0
  185.2260  178.2340  145.0150 C   0  0  0  0  0  3  0  0  0  0  0  0
  190.0530  177.9510  143.2660 C   0  0  0  0  0  2  0  0  0  0  0  0
  188.7910  177.2200  142.8040 C   0  0  2  0  0  3  0  0  0  0  0  0
  190.7300  176.6090  145.3750 C   0  0  2  0  0  3  0  0  0  0  0  0
  187.8870  178.7070  147.7060 N   0  0  0  0  0  0  0  0  0  0  0  0
  185.1300  177.8050  143.6910 C   0  0  0  0  0  3  0  0  0  0  0  0
  192.6670  174.8830  146.7310 C   0  0  0  0  0  2  0  0  0  0  0  0
  191.8960  175.9970  144.6030 C   0  0  0  0  0  2  0  0  0  0  0  0
  190.4750  177.6730  139.4470 C   0  0  1  0  0  3  0  0  0  0  0  0
  187.4810  177.8210  137.0920 C   0  0  0  0  0  1  0  0  0  0  0  0
  191.3380  176.9120  138.6560 O   0  0  0  0  0  1  0  0  0  0  0  0
  188.1490  178.8290  139.2510 C   0  0  2  0  0  3  0  0  0  0  0  0
  188.6500  177.2510  141.2720 C   0  0  1  0  0  3  0  0  0  0  0  0
  189.4160  178.3440  138.5460 C   0  0  2  0  0  3  0  0  0  0  0  0
  188.1410  178.6140  140.7770 C   0  0  0  0  0  2  0  0  0  0  0  0
  189.9250  176.8450  140.5840 C   0  0  0  0  0  0  0  0  0  0  0  0
  190.5160  175.8400  140.9530 O   0  0  0  0  0  0  0  0  0  0  0  0
  188.1220  177.5430  138.4350 C   0  0  2  0  0  3  0  0  0  0  0  0
  187.7120  178.1600  149.0460 C   0  0  0  0  0  2  0  0  0  0  0  0
  187.4030  176.6780  148.9590 C   0  0  0  0  0  1  0  0  0  0  0  0
  1  4  1  0  0  0  0
  2  4  1  6  0  0  0
  2  5  1  0  0  0  0
  3  1  2  0  0  0  0
  3 18  1  0  0  0  0
  4 10  2  0  0  0  0
  5 11  1  1  0  0  0
  5 17  1  0  0  0  0
  6 19  1  0  0  0  0
  7 14  1  6  0  0  0
  7 16  1  0  0  0  0
  7  2  1  0  0  0  0
  9  8  1  1  0  0  0
  9 11  1  0  0  0  0
 10 12  1  0  0  0  0
 12 17  1  0  0  0  0
 13 10  1  0  0  0  0
 15 14  1  6  0  0  0
 15  1  1  0  0  0  0
 16 20  1  6  0  0  0
 16  9  1  0  0  0  0
 17 31  1  0  0  0  0
 18 13  2  0  0  0  0
 19  8  1  0  0  0  0
 20  6  1  0  0  0  0
 21 23  1  6  0  0  0
 21 28  1  0  0  0  0
 22 30  1  0  0  0  0
 24 27  1  1  0  0  0
 25 27  1  6  0  0  0
 25 15  1  0  0  0  0
 26 24  1  0  0  0  0
 26 21  1  0  0  0  0
 28 29  2  0  0  0  0
 28 25  1  0  0  0  0
 30 26  1  0  0  0  0
 30 24  1  0  0  0  0
 32 31  1  0  0  0  0
M  END
>  <MODEL>
7

>  <REMARK>
 VINA RESULT:      -7.4      1.842      4.710
  Name = 
  2 active torsions:
  status: ('A' for Active; 'I' for Inactive)
    1  A    between atoms: C_13  and  N_29
    2  A    between atoms: C_16  and  C_27
                            x       y       z     vdW  Elec       q    Type
                         _______ _______ _______ _____ _____    ______ ____

>  <TORSDO>
F 2

$$$$
=
 OpenBabel10272402113D

 32 38  0  0  1  0  0  0  0  0999 V2000
  186.4580  177.7920  143.6550 C   0  0  0  0  0  0  0  0  0  0  0  0
  188.5300  178.7110  142.4820 C   0  0  1  0  0  3  0  0  0  0  0  0
  185.8790  177.2400  144.8090 C   0  0  0  0  0  3  0  0  0  0  0  0
  187.8350  178.0970  143.6610 C   0  0  0  0  0  0  0  0  0  0  0  0
  189.8690  177.9770  142.3380 C   0  0  1  0  0  3  0  0  0  0  0  0
  187.7400  176.4550  138.0770 C   0  0  0  0  0  2  0  0  0  0  0  0
  187.7050  178.7880  141.1790 C   0  0  2  0  0  3  0  0  0  0  0  0
  190.0820  176.7470  138.9770 C   0  0  0  0  0  2  0  0  0  0  0  0
  189.5800  177.9260  139.7990 C   0  0  2  0  0  3  0  0  0  0  0  0
  188.6180  177.8150  144.7980 C   0  0  0  0  0  0  0  0  0  0  0  0
  190.5170  178.2660  140.9730 C   0  0  0  0  0  2  0  0  0  0  0  0
  190.1300  177.9350  144.7670 C   0  0  0  0  0  2  0  0  0  0  0  0
  188.0140  177.2880  145.9420 C   0  0  0  0  0  3  0  0  0  0  0  0
  186.2040  178.9410  141.4220 C   0  0  0  0  0  2  0  0  0  0  0  0
  185.6620  177.8710  142.3710 C   0  0  2  0  0  3  0  0  0  0  0  0
  188.1170  177.6850  140.2070 C   0  0  2  0  0  3  0  0  0  0  0  0
  190.7230  178.3500  143.4760 N   0  0  0  0  0  0  0  0  0  0  0  0
  186.6460  177.0140  145.9530 C   0  0  0  0  0  3  0  0  0  0  0  0
  189.2220  176.6090  137.7180 C   0  0  0  0  0  2  0  0  0  0  0  0
  187.2620  177.6220  138.9430 C   0  0  0  0  0  2  0  0  0  0  0  0
  182.3560  179.1630  141.0640 C   0  0  1  0  0  3  0  0  0  0  0  0
  180.0910  178.7040  144.0960 C   0  0  0  0  0  1  0  0  0  0  0  0
  181.4620  178.7780  140.0630 O   0  0  0  0  0  1  0  0  0  0  0  0
  182.3450  179.6130  143.6290 C   0  0  2  0  0  3  0  0  0  0  0  0
  184.1480  178.0310  142.5950 C   0  0  1  0  0  3  0  0  0  0  0  0
  181.5620  179.5970  142.3160 C   0  0  2  0  0  3  0  0  0  0  0  0
  183.8330  179.2360  143.4960 C   0  0  0  0  0  2  0  0  0  0  0  0
  183.3930  178.0900  141.2960 C   0  0  0  0  0  0  0  0  0  0  0  0
  183.6250  177.2640  140.4240 O   0  0  0  0  0  0  0  0  0  0  0  0
  181.3780  178.4740  143.3320 C   0  0  2  0  0  3  0  0  0  0  0  0
  191.9820  177.6220  143.3760 C   0  0  0  0  0  2  0  0  0  0  0  0
  191.7590  176.1620  143.7210 C   0  0  0  0  0  1  0  0  0  0  0  0
  1  4  2  0  0  0  0
  1  3  1  0  0  0  0
  2  4  1  1  0  0  0
  3 18  2  0  0  0  0
  4 10  1  0  0  0  0
  5 11  1  6  0  0  0
  5  2  1  0  0  0  0
  5 17  1  0  0  0  0
  6 20  1  0  0  0  0
  7 14  1  1  0  0  0
  7  2  1  0  0  0  0
  9  8  1  1  0  0  0
  9 16  1  0  0  0  0
  9 11  1  0  0  0  0
 10 13  2  0  0  0  0
 12 10  1  0  0  0  0
 13 18  1  0  0  0  0
 15 14  1  6  0  0  0
 15 25  1  0  0  0  0
 15  1  1  0  0  0  0
 16 20  1  6  0  0  0
 16  7  1  0  0  0  0
 17 12  1  0  0  0  0
 19  6  1  0  0  0  0
 19  8  1  0  0  0  0
 21 23  1  6  0  0  0
 21 28  1  0  0  0  0
 21 26  1  0  0  0  0
 24 27  1  6  0  0  0
 25 27  1  6  0  0  0
 26 30  1  0  0  0  0
 26 24  1  0  0  0  0
 28 25  1  0  0  0  0
 29 28  2  0  0  0  0
 30 24  1  0  0  0  0
 30 22  1  0  0  0  0
 31 17  1  0  0  0  0
 31 32  1  0  0  0  0
M  END
>  <MODEL>
8

>  <REMARK>
 VINA RESULT:      -7.2      2.113      6.471
  Name = 
  2 active torsions:
  status: ('A' for Active; 'I' for Inactive)
    1  A    between atoms: C_13  and  N_29
    2  A    between atoms: C_16  and  C_27
                            x       y       z     vdW  Elec       q    Type
                         _______ _______ _______ _____ _____    ______ ____

>  <TORSDO>
F 2

$$$$
=
 OpenBabel10272402113D

 32 38  0  0  1  0  0  0  0  0999 V2000
  188.2940  177.1280  142.0920 C   0  0  0  0  0  0  0  0  0  0  0  0
  188.9450  178.2030  139.8710 C   0  0  1  0  0  3  0  0  0  0  0  0
  188.6590  176.3400  143.1960 C   0  0  0  0  0  3  0  0  0  0  0  0
  189.2420  177.3550  141.0720 C   0  0  0  0  0  0  0  0  0  0  0  0
  189.5290  177.4610  138.6620 C   0  0  1  0  0  3  0  0  0  0  0  0
  184.6900  177.1300  137.4490 C   0  0  0  0  0  2  0  0  0  0  0  0
  187.4730  178.6350  139.6980 C   0  0  2  0  0  3  0  0  0  0  0  0
  186.9100  177.0780  136.2440 C   0  0  0  0  0  2  0  0  0  0  0  0
  187.4560  178.0450  137.2870 C   0  0  2  0  0  3  0  0  0  0  0  0
  190.5190  176.7660  141.1480 C   0  0  0  0  0  0  0  0  0  0  0  0
  188.9950  178.0420  137.3420 C   0  0  0  0  0  2  0  0  0  0  0  0
  191.4840  176.8150  139.9790 C   0  0  0  0  0  2  0  0  0  0  0  0
  190.8660  176.0070  142.2680 C   0  0  0  0  0  3  0  0  0  0  0  0
  186.7310  178.7980  141.0240 C   0  0  0  0  0  2  0  0  0  0  0  0
  186.8550  177.5570  141.9100 C   0  0  2  0  0  3  0  0  0  0  0  0
  186.7740  177.7840  138.6410 C   0  0  2  0  0  3  0  0  0  0  0  0
  190.9960  177.5040  138.7620 N   0  0  0  0  0  0  0  0  0  0  0  0
  189.9440  175.8050  143.2950 C   0  0  0  0  0  3  0  0  0  0  0  0
  185.4010  177.2940  136.1020 C   0  0  0  0  0  2  0  0  0  0  0  0
  185.2820  178.0720  138.4990 C   0  0  0  0  0  2  0  0  0  0  0  0
  184.2820  179.5020  143.8850 C   0  0  1  0  0  3  0  0  0  0  0  0
  184.7520  178.0730  147.3880 C   0  0  0  0  0  1  0  0  0  0  0  0
  182.8900  179.6050  143.8760 O   0  0  0  0  0  1  0  0  0  0  0  0
  186.1890  178.9180  145.5600 C   0  0  2  0  0  3  0  0  0  0  0  0
  186.0930  177.7310  143.2350 C   0  0  1  0  0  3  0  0  0  0  0  0
  184.7810  179.4730  145.3470 C   0  0  2  0  0  3  0  0  0  0  0  0
  186.9230  178.5110  144.2680 C   0  0  0  0  0  2  0  0  0  0  0  0
  184.7370  178.3480  143.0240 C   0  0  0  0  0  0  0  0  0  0  0  0
  184.0040  177.9110  142.1480 O   0  0  0  0  0  0  0  0  0  0  0  0
  184.9740  178.0620  145.8910 C   0  0  2  0  0  3  0  0  0  0  0  0
  191.5640  176.7610  137.6430 C   0  0  0  0  0  2  0  0  0  0  0  0
  191.4330  175.2720  137.8970 C   0  0  0  0  0  1  0  0  0  0  0  0
  1  3  1  0  0  0  0
  2  4  1  1  0  0  0
  3 18  2  0  0  0  0
  4 10  1  0  0  0  0
  4  1  2  0  0  0  0
  5 11  1  6  0  0  0
  5 17  1  0  0  0  0
  5  2  1  0  0  0  0
  6 20  1  0  0  0  0
  7  2  1  0  0  0  0
  7 14  1  1  0  0  0
  9  8  1  6  0  0  0
  9 11  1  0  0  0  0
  9 16  1  0  0  0  0
 10 13  2  0  0  0  0
 12 10  1  0  0  0  0
 13 18  1  0  0  0  0
 15 14  1  1  0  0  0
 15  1  1  0  0  0  0
 15 25  1  0  0  0  0
 16 20  1  6  0  0  0
 16  7  1  0  0  0  0
 17 12  1  0  0  0  0
 19  8  1  0  0  0  0
 19  6  1  0  0  0  0
 21 23  1  1  0  0  0
 21 26  1  0  0  0  0
 24 27  1  6  0  0  0
 24 30  1  0  0  0  0
 25 27  1  1  0  0  0
 26 24  1  0  0  0  0
 26 30  1  0  0  0  0
 28 25  1  0  0  0  0
 28 21  1  0  0  0  0
 29 28  2  0  0  0  0
 30 22  1  0  0  0  0
 31 32  1  0  0  0  0
 31 17  1  0  0  0  0
M  END
>  <MODEL>
9

>  <REMARK>
 VINA RESULT:      -7.2      2.800      7.089
  Name = 
  2 active torsions:
  status: ('A' for Active; 'I' for Inactive)
    1  A    between atoms: C_13  and  N_29
    2  A    between atoms: C_16  and  C_27
                            x       y       z     vdW  Elec       q    Type
                         _______ _______ _______ _____ _____    ______ ____

>  <TORSDO>
F 2

$$$$
