=
 OpenBabel10272400083D

 34 38  0  0  1  0  0  0  0  0999 V2000
  192.0520  175.4890  136.1420 C   0  0  2  0  0  3  0  0  0  0  0  0
  193.1050  176.5750  138.1420 C   0  0  1  0  0  3  0  0  0  0  0  0
  190.5170  176.2220  137.8690 C   0  0  2  0  0  3  0  0  0  0  0  0
  194.1580  174.8320  136.6280 C   0  0  0  0  0  2  0  0  0  0  0  0
  188.0280  176.0060  137.2790 C   0  0  1  0  0  3  0  0  0  0  0  0
  185.6610  176.4180  137.0360 O   0  0  0  0  0  1  0  0  0  0  0  0
  193.9370  175.2940  138.0960 C   0  0  0  0  0  2  0  0  0  0  0  0
  191.5190  176.6380  140.1120 C   0  0  0  0  0  2  0  0  0  0  0  0
  186.3800  178.8010  137.8230 O   0  0  0  0  0  1  0  0  0  0  0  0
  191.8710  176.5220  137.2270 C   0  0  2  0  0  3  0  0  0  0  0  0
  186.7770  178.9650  135.6020 F   0  0  0  0  0  0  0  0  0  0  0  0
  193.3700  175.5240  135.6690 O   0  0  0  0  0  0  0  0  0  0  0  0
  189.4330  176.4310  136.7480 C   0  0  1  0  0  0  0  0  0  0  0  0
  186.9270  176.8020  136.5790 C   0  0  1  0  0  3  0  0  0  0  0  0
  191.0080  175.8130  135.0910 C   0  0  0  0  0  2  0  0  0  0  0  0
  192.8430  177.1250  139.5420 C   0  0  0  0  0  2  0  0  0  0  0  0
  188.6210  178.6130  137.0560 C   0  0  0  0  0  2  0  0  0  0  0  0
  187.1480  178.3140  136.7640 C   0  0  2  0  0  0  0  0  0  0  0  0
  189.4570  177.7850  136.2810 O   0  0  0  0  0  0  0  0  0  0  0  0
  187.7850  174.5010  137.2180 C   0  0  0  0  0  1  0  0  0  0  0  0
  190.3610  177.0100  139.1870 C   0  0  2  0  0  3  0  0  0  0  0  0
  189.7180  175.5780  135.6310 O   0  0  0  0  0  0  0  0  0  0  0  0
  189.0630  176.6720  139.9120 C   0  0  0  0  0  2  0  0  0  0  0  0
  189.2870  177.0320  143.4890 C   0  0  0  0  0  3  0  0  0  0  0  0
  189.0290  177.3430  142.2500 C   0  0  0  0  0  0  0  0  0  0  0  0
  188.7750  177.6470  141.0070 C   0  0  0  0  0  0  0  0  0  0  0  0
  188.3080  179.0170  140.6670 C   0  0  0  0  0  1  0  0  0  0  0  0
  191.6940  178.8320  143.8030 C   0  0  0  0  0  1  0  0  0  0  0  0
  189.3860  178.1040  144.5310 C   0  0  2  0  0  3  0  0  0  0  0  0
  190.8320  178.3790  144.9680 C   0  0  1  0  0  3  0  0  0  0  0  0
  190.6290  176.8730  147.2520 S   0  0  0  0  0  0  0  0  0  0  0  0
  189.0100  176.5400  146.4850 C   0  0  0  0  0  2  0  0  0  0  0  0
  188.5050  177.7690  145.7350 C   0  0  0  0  0  2  0  0  0  0  0  0
  191.4580  177.1730  145.6570 C   0  0  0  0  0  2  0  0  0  0  0  0
  1 15  1  6  0  0  0
  1 10  1  0  0  0  0
  2  7  1  1  0  0  0
  2 16  1  0  0  0  0
  3 21  1  0  0  0  0
  4  7  1  0  0  0  0
 10  3  1  0  0  0  0
 10  2  1  0  0  0  0
 11 18  1  0  0  0  0
 12  1  1  0  0  0  0
 12  4  1  0  0  0  0
 13  5  1  0  0  0  0
 13  3  1  0  0  0  0
 14 18  1  0  0  0  0
 14  6  1  0  0  0  0
 14  5  1  0  0  0  0
 15 22  1  0  0  0  0
 16  8  1  0  0  0  0
 18 17  1  0  0  0  0
 18  9  1  0  0  0  0
 19 13  1  0  0  0  0
 19 17  1  0  0  0  0
 20  5  1  0  0  0  0
 21 23  1  0  0  0  0
 21  8  1  0  0  0  0
 22 13  1  0  0  0  0
 23 26  1  0  0  0  0
 24 29  1  0  0  0  0
 25 24  2  0  0  0  0
 26 25  2  0  0  0  0
 27 26  1  0  0  0  0
 28 30  1  0  0  0  0
 29 30  1  0  0  0  0
 29 33  1  0  0  0  0
 30 34  1  0  0  0  0
 32 31  1  0  0  0  0
 33 32  1  0  0  0  0
 34 31  1  0  0  0  0
M  END
>  <MODEL>
1

>  <REMARK>
 VINA RESULT:      -7.8      0.000      0.000
  Name = 
  3 active torsions:
  status: ('A' for Active; 'I' for Inactive)
    1  A    between atoms: C_3  and  C_13
    2  A    between atoms: C_5  and  C_18
    3  A    between atoms: C_5  and  C_31
                            x       y       z     vdW  Elec       q    Type
                         _______ _______ _______ _____ _____    ______ ____

>  <TORSDO>
F 3

$$$$
=
 OpenBabel10272400083D

 34 38  0  0  1  0  0  0  0  0999 V2000
  183.0600  177.8260  136.7070 C   0  0  2  0  0  3  0  0  0  0  0  0
  183.4000  178.2140  139.1610 C   0  0  1  0  0  3  0  0  0  0  0  0
  185.3580  177.7510  137.4730 C   0  0  2  0  0  3  0  0  0  0  0  0
  181.5110  179.1160  137.7280 C   0  0  0  0  0  2  0  0  0  0  0  0
  187.0740  177.0340  135.7030 C   0  0  1  0  0  3  0  0  0  0  0  0
  188.9460  176.0100  134.5730 O   0  0  0  0  0  1  0  0  0  0  0  0
  182.5490  179.4420  138.8380 C   0  0  0  0  0  2  0  0  0  0  0  0
  185.8030  178.8030  139.6870 C   0  0  0  0  0  2  0  0  0  0  0  0
  189.0350  174.6250  136.7850 O   0  0  0  0  0  1  0  0  0  0  0  0
  183.9150  177.4930  137.9050 C   0  0  2  0  0  3  0  0  0  0  0  0
  187.5040  173.4380  135.6180 F   0  0  0  0  0  0  0  0  0  0  0  0
  181.7110  177.8650  137.0850 O   0  0  0  0  0  0  0  0  0  0  0  0
  185.6620  176.7430  136.3040 C   0  0  1  0  0  0  0  0  0  0  0  0
  187.6870  175.7580  135.1290 C   0  0  1  0  0  3  0  0  0  0  0  0
  183.3820  176.7700  135.6690 C   0  0  0  0  0  2  0  0  0  0  0  0
  184.4450  178.4220  140.2550 C   0  0  0  0  0  2  0  0  0  0  0  0
  186.7360  174.9140  137.3120 C   0  0  0  0  0  2  0  0  0  0  0  0
  187.7650  174.6610  136.2070 C   0  0  2  0  0  0  0  0  0  0  0  0
  185.5300  175.3940  136.7640 O   0  0  0  0  0  0  0  0  0  0  0  0
  187.0830  178.1840  134.7010 C   0  0  0  0  0  1  0  0  0  0  0  0
  186.2940  177.7450  138.7000 C   0  0  2  0  0  3  0  0  0  0  0  0
  184.7230  176.9370  135.2380 O   0  0  0  0  0  0  0  0  0  0  0  0
  187.7330  178.0910  138.3300 C   0  0  0  0  0  2  0  0  0  0  0  0
  188.3270  177.5560  141.8420 C   0  0  0  0  0  3  0  0  0  0  0  0
  188.5220  177.5030  140.5540 C   0  0  0  0  0  0  0  0  0  0  0  0
  188.7090  177.4520  139.2640 C   0  0  0  0  0  0  0  0  0  0  0  0
  189.8360  176.6530  138.7160 C   0  0  0  0  0  1  0  0  0  0  0  0
  187.5640  177.1250  144.7340 C   0  0  0  0  0  1  0  0  0  0  0  0
  189.0460  176.6090  142.7530 C   0  0  2  0  0  3  0  0  0  0  0  0
  188.9920  177.0410  144.2260 C   0  0  1  0  0  3  0  0  0  0  0  0
  191.5080  178.1340  144.1940 S   0  0  0  0  0  0  0  0  0  0  0  0
  191.3140  177.6870  142.4380 C   0  0  0  0  0  2  0  0  0  0  0  0
  190.4910  176.4100  142.2950 C   0  0  0  0  0  2  0  0  0  0  0  0
  189.7190  178.3590  144.4590 C   0  0  0  0  0  2  0  0  0  0  0  0
  1 15  1  6  0  0  0
  1 12  1  0  0  0  0
  1 10  1  0  0  0  0
  2  7  1  6  0  0  0
  2 16  1  0  0  0  0
  3 10  1  0  0  0  0
  3 21  1  0  0  0  0
  4  7  1  0  0  0  0
  5 13  1  0  0  0  0
  6 14  1  0  0  0  0
  8 16  1  0  0  0  0
 10  2  1  0  0  0  0
 11 18  1  0  0  0  0
 12  4  1  0  0  0  0
 13 19  1  0  0  0  0
 13  3  1  0  0  0  0
 14  5  1  0  0  0  0
 14 18  1  0  0  0  0
 18  9  1  0  0  0  0
 18 17  1  0  0  0  0
 19 17  1  0  0  0  0
 20  5  1  0  0  0  0
 21  8  1  0  0  0  0
 22 15  1  0  0  0  0
 22 13  1  0  0  0  0
 23 21  1  0  0  0  0
 23 26  1  0  0  0  0
 24 29  1  0  0  0  0
 25 24  2  0  0  0  0
 26 25  2  0  0  0  0
 27 26  1  0  0  0  0
 29 30  1  0  0  0  0
 30 34  1  0  0  0  0
 30 28  1  0  0  0  0
 31 34  1  0  0  0  0
 32 31  1  0  0  0  0
 33 32  1  0  0  0  0
 33 29  1  0  0  0  0
M  END
>  <MODEL>
2

>  <REMARK>
 VINA RESULT:      -6.9      2.719      6.065
  Name = 
  3 active torsions:
  status: ('A' for Active; 'I' for Inactive)
    1  A    between atoms: C_3  and  C_13
    2  A    between atoms: C_5  and  C_18
    3  A    between atoms: C_5  and  C_31
                            x       y       z     vdW  Elec       q    Type
                         _______ _______ _______ _____ _____    ______ ____

>  <TORSDO>
F 3

$$$$
=
 OpenBabel10272400083D

 34 38  0  0  1  0  0  0  0  0999 V2000
  182.5570  179.0270  142.7370 C   0  0  2  0  0  3  0  0  0  0  0  0
  184.9220  178.1980  142.8130 C   0  0  1  0  0  3  0  0  0  0  0  0
  183.6680  178.8280  140.5930 C   0  0  2  0  0  3  0  0  0  0  0  0
  183.7040  179.4840  144.6300 C   0  0  0  0  0  2  0  0  0  0  0  0
  182.1760  179.2530  138.5480 C   0  0  1  0  0  3  0  0  0  0  0  0
  181.1250  179.1150  136.3780 O   0  0  0  0  0  1  0  0  0  0  0  0
  185.0300  179.3310  143.8340 C   0  0  0  0  0  2  0  0  0  0  0  0
  186.1550  178.7020  140.6630 C   0  0  0  0  0  2  0  0  0  0  0  0
  182.4100  176.8420  136.3210 O   0  0  0  0  0  1  0  0  0  0  0  0
  183.6150  178.2430  142.0030 C   0  0  2  0  0  3  0  0  0  0  0  0
  180.5330  176.2260  137.4220 F   0  0  0  0  0  0  0  0  0  0  0  0
  182.6140  178.7360  144.1070 O   0  0  0  0  0  0  0  0  0  0  0  0
  182.2600  178.5600  139.9440 C   0  0  1  0  0  0  0  0  0  0  0  0
  181.2220  178.4930  137.6270 C   0  0  1  0  0  3  0  0  0  0  0  0
  181.2430  178.6550  142.0800 C   0  0  0  0  0  2  0  0  0  0  0  0
  186.1810  177.9520  141.9860 C   0  0  0  0  0  2  0  0  0  0  0  0
  182.5120  176.5950  138.6820 C   0  0  0  0  0  2  0  0  0  0  0  0
  181.6600  177.0230  137.4850 C   0  0  2  0  0  0  0  0  0  0  0  0
  182.0060  177.1520  139.8740 O   0  0  0  0  0  0  0  0  0  0  0  0
  181.8440  180.7400  138.6260 C   0  0  0  0  0  1  0  0  0  0  0  0
  184.9200  178.3210  139.8470 C   0  0  2  0  0  3  0  0  0  0  0  0
  181.2320  179.1500  140.7510 O   0  0  0  0  0  0  0  0  0  0  0  0
  185.0660  178.9510  138.4660 C   0  0  0  0  0  2  0  0  0  0  0  0
  185.5640  175.7290  136.9380 C   0  0  0  0  0  3  0  0  0  0  0  0
  185.8060  176.9630  137.2760 C   0  0  0  0  0  0  0  0  0  0  0  0
  186.0410  178.2000  137.6190 C   0  0  0  0  0  0  0  0  0  0  0  0
  187.2260  178.9040  137.0640 C   0  0  0  0  0  1  0  0  0  0  0  0
  184.6560  173.1970  135.5590 C   0  0  0  0  0  1  0  0  0  0  0  0
  186.2990  175.1030  135.7920 C   0  0  2  0  0  3  0  0  0  0  0  0
  186.1160  173.5800  135.7260 C   0  0  1  0  0  3  0  0  0  0  0  0
  188.5280  173.0460  136.9170 S   0  0  0  0  0  0  0  0  0  0  0  0
  188.4850  174.8630  137.0460 C   0  0  0  0  0  2  0  0  0  0  0  0
  187.7820  175.4730  135.8360 C   0  0  0  0  0  2  0  0  0  0  0  0
  186.7140  172.8800  136.9400 C   0  0  0  0  0  2  0  0  0  0  0  0
  1 15  1  6  0  0  0
  1 12  1  0  0  0  0
  2 16  1  6  0  0  0
  2  7  1  0  0  0  0
  3 10  1  0  0  0  0
  5 20  1  0  0  0  0
  5 13  1  0  0  0  0
  6 14  1  0  0  0  0
  7  4  1  0  0  0  0
  8 16  1  0  0  0  0
  9 18  1  0  0  0  0
 10  1  1  0  0  0  0
 10  2  1  0  0  0  0
 11 18  1  0  0  0  0
 12  4  1  0  0  0  0
 13  3  1  0  0  0  0
 13 22  1  0  0  0  0
 14  5  1  0  0  0  0
 17 19  1  0  0  0  0
 18 14  1  0  0  0  0
 18 17  1  0  0  0  0
 19 13  1  0  0  0  0
 21  3  1  0  0  0  0
 21  8  1  0  0  0  0
 22 15  1  0  0  0  0
 23 21  1  0  0  0  0
 24 25  2  0  0  0  0
 25 26  2  0  0  0  0
 26 23  1  0  0  0  0
 27 26  1  0  0  0  0
 28 30  1  0  0  0  0
 29 33  1  0  0  0  0
 29 24  1  0  0  0  0
 30 29  1  0  0  0  0
 30 34  1  0  0  0  0
 31 34  1  0  0  0  0
 31 32  1  0  0  0  0
 33 32  1  0  0  0  0
M  END
>  <MODEL>
3

>  <REMARK>
 VINA RESULT:      -6.7      5.042      8.956
  Name = 
  3 active torsions:
  status: ('A' for Active; 'I' for Inactive)
    1  A    between atoms: C_3  and  C_13
    2  A    between atoms: C_5  and  C_18
    3  A    between atoms: C_5  and  C_31
                            x       y       z     vdW  Elec       q    Type
                         _______ _______ _______ _____ _____    ______ ____

>  <TORSDO>
F 3

$$$$
=
 OpenBabel10272400083D

 34 38  0  0  1  0  0  0  0  0999 V2000
  185.9680  178.0300  144.6900 C   0  0  2  0  0  3  0  0  0  0  0  0
  185.3280  179.2950  142.6210 C   0  0  1  0  0  3  0  0  0  0  0  0
  187.4650  177.7790  142.8000 C   0  0  2  0  0  3  0  0  0  0  0  0
  183.7590  178.4130  144.4100 C   0  0  0  0  0  2  0  0  0  0  0  0
  189.6150  176.4600  143.2790 C   0  0  1  0  0  3  0  0  0  0  0  0
  191.9110  175.7150  143.3370 O   0  0  0  0  0  1  0  0  0  0  0  0
  184.0050  178.5750  142.8840 C   0  0  0  0  0  2  0  0  0  0  0  0
  186.5310  178.4120  140.5790 C   0  0  0  0  0  2  0  0  0  0  0  0
  192.3040  178.0680  142.2760 O   0  0  0  0  0  1  0  0  0  0  0  0
  186.4880  178.7460  143.4680 C   0  0  2  0  0  3  0  0  0  0  0  0
  192.2780  178.6070  144.4730 F   0  0  0  0  0  0  0  0  0  0  0  0
  184.8800  178.7320  145.2230 O   0  0  0  0  0  0  0  0  0  0  0  0
  188.6380  177.5500  143.8230 C   0  0  1  0  0  0  0  0  0  0  0  0
  191.0300  176.6960  143.8050 C   0  0  1  0  0  3  0  0  0  0  0  0
  187.1520  177.9140  145.6300 C   0  0  0  0  0  2  0  0  0  0  0  0
  185.6590  179.5210  141.1480 C   0  0  0  0  0  2  0  0  0  0  0  0
  190.3350  179.0430  143.1810 C   0  0  0  0  0  2  0  0  0  0  0  0
  191.5200  178.1070  143.4310 C   0  0  2  0  0  0  0  0  0  0  0  0
  189.3000  178.7880  144.1040 O   0  0  0  0  0  0  0  0  0  0  0  0
  189.1340  175.0340  143.5290 C   0  0  0  0  0  1  0  0  0  0  0  0
  187.8230  178.2710  141.3820 C   0  0  2  0  0  3  0  0  0  0  0  0
  188.1150  177.0440  145.0580 O   0  0  0  0  0  0  0  0  0  0  0  0
  188.7240  177.2900  140.6400 C   0  0  0  0  0  2  0  0  0  0  0  0
  187.6870  175.9720  137.4530 C   0  0  0  0  0  3  0  0  0  0  0  0
  188.2350  176.7840  138.3120 C   0  0  0  0  0  0  0  0  0  0  0  0
  188.7810  177.5930  139.1780 C   0  0  0  0  0  0  0  0  0  0  0  0
  189.3570  178.8830  138.7160 C   0  0  0  0  0  1  0  0  0  0  0  0
  185.0820  177.2880  136.6700 C   0  0  0  0  0  1  0  0  0  0  0  0
  187.3830  176.4380  136.0620 C   0  0  2  0  0  3  0  0  0  0  0  0
  185.8830  176.4000  135.7350 C   0  0  1  0  0  3  0  0  0  0  0  0
  186.0470  174.0270  134.3690 S   0  0  0  0  0  0  0  0  0  0  0  0
  187.7530  174.1740  134.9910 C   0  0  0  0  0  2  0  0  0  0  0  0
  188.1860  175.6370  135.0360 C   0  0  0  0  0  2  0  0  0  0  0  0
  185.3330  174.9790  135.7480 C   0  0  0  0  0  2  0  0  0  0  0  0
  1 12  1  0  0  0  0
  1 15  1  1  0  0  0
  2 16  1  6  0  0  0
  2  7  1  0  0  0  0
  2 10  1  0  0  0  0
  3 10  1  0  0  0  0
  3 13  1  0  0  0  0
  4 12  1  0  0  0  0
  5 20  1  0  0  0  0
  5 14  1  0  0  0  0
  5 13  1  0  0  0  0
  6 14  1  0  0  0  0
  7  4  1  0  0  0  0
  8 16  1  0  0  0  0
  8 21  1  0  0  0  0
  9 18  1  0  0  0  0
 10  1  1  0  0  0  0
 13 19  1  0  0  0  0
 13 22  1  0  0  0  0
 17 18  1  0  0  0  0
 17 19  1  0  0  0  0
 18 14  1  0  0  0  0
 18 11  1  0  0  0  0
 21  3  1  0  0  0  0
 22 15  1  0  0  0  0
 23 21  1  0  0  0  0
 24 25  2  0  0  0  0
 25 26  2  0  0  0  0
 26 23  1  0  0  0  0
 27 26  1  0  0  0  0
 29 24  1  0  0  0  0
 30 34  1  0  0  0  0
 30 29  1  0  0  0  0
 30 28  1  0  0  0  0
 31 32  1  0  0  0  0
 31 34  1  0  0  0  0
 32 33  1  0  0  0  0
 33 29  1  0  0  0  0
M  END
>  <MODEL>
4

>  <REMARK>
 VINA RESULT:      -5.8      4.767      8.890
  Name = 
  3 active torsions:
  status: ('A' for Active; 'I' for Inactive)
    1  A    between atoms: C_3  and  C_13
    2  A    between atoms: C_5  and  C_18
    3  A    between atoms: C_5  and  C_31
                            x       y       z     vdW  Elec       q    Type
                         _______ _______ _______ _____ _____    ______ ____

>  <TORSDO>
F 3

$$$$
=
 OpenBabel10272400083D

 34 38  0  0  1  0  0  0  0  0999 V2000
  182.4470  178.9810  142.7820 C   0  0  2  0  0  3  0  0  0  0  0  0
  184.8690  178.3340  142.8480 C   0  0  1  0  0  3  0  0  0  0  0  0
  183.5230  178.7170  140.6260 C   0  0  2  0  0  3  0  0  0  0  0  0
  183.5990  179.6480  144.6080 C   0  0  0  0  0  2  0  0  0  0  0  0
  181.9570  178.8900  138.5980 C   0  0  1  0  0  3  0  0  0  0  0  0
  180.8730  178.5270  136.4720 O   0  0  0  0  0  1  0  0  0  0  0  0
  184.9140  179.5390  143.7880 C   0  0  0  0  0  2  0  0  0  0  0  0
  186.0130  178.7790  140.6360 C   0  0  0  0  0  2  0  0  0  0  0  0
  182.3230  176.3570  136.5320 O   0  0  0  0  0  1  0  0  0  0  0  0
  183.5450  178.2270  142.0730 C   0  0  2  0  0  3  0  0  0  0  0  0
  180.5220  175.6810  137.7220 F   0  0  0  0  0  0  0  0  0  0  0  0
  182.5570  178.7890  144.1650 O   0  0  0  0  0  0  0  0  0  0  0  0
  182.1240  178.3020  140.0350 C   0  0  1  0  0  0  0  0  0  0  0  0
  181.0430  178.0010  137.7570 C   0  0  1  0  0  3  0  0  0  0  0  0
  181.1510  178.4690  142.1870 C   0  0  0  0  0  2  0  0  0  0  0  0
  186.1250  178.1250  142.0050 C   0  0  0  0  0  2  0  0  0  0  0  0
  182.4950  176.2790  138.9010 C   0  0  0  0  0  2  0  0  0  0  0  0
  181.5880  176.5610  137.7010 C   0  0  2  0  0  0  0  0  0  0  0  0
  181.9760  176.8780  140.0660 O   0  0  0  0  0  0  0  0  0  0  0  0
  181.5170  180.3510  138.5870 C   0  0  0  0  0  1  0  0  0  0  0  0
  184.7930  178.2530  139.8820 C   0  0  2  0  0  3  0  0  0  0  0  0
  181.0740  178.8700  140.8290 O   0  0  0  0  0  0  0  0  0  0  0  0
  184.8590  178.7970  138.4580 C   0  0  0  0  0  2  0  0  0  0  0  0
  187.9690  177.0170  138.1000 C   0  0  0  0  0  3  0  0  0  0  0  0
  186.7670  177.4310  137.8170 C   0  0  0  0  0  0  0  0  0  0  0  0
  185.5620  177.8500  137.5410 C   0  0  0  0  0  0  0  0  0  0  0  0
  184.8400  177.2880  136.3700 C   0  0  0  0  0  1  0  0  0  0  0  0
  190.6940  175.8660  138.7250 C   0  0  0  0  0  1  0  0  0  0  0  0
  188.5220  175.7940  137.4340 C   0  0  2  0  0  3  0  0  0  0  0  0
  190.0550  175.8020  137.3490 C   0  0  1  0  0  3  0  0  0  0  0  0
  190.0950  176.6340  134.7360 S   0  0  0  0  0  0  0  0  0  0  0  0
  188.3080  176.7130  135.0860 C   0  0  0  0  0  2  0  0  0  0  0  0
  187.8990  175.6040  136.0510 C   0  0  0  0  0  2  0  0  0  0  0  0
  190.5710  176.9330  136.4690 C   0  0  0  0  0  2  0  0  0  0  0  0
  1 15  1  6  0  0  0
  1 12  1  0  0  0  0
  2 16  1  6  0  0  0
  2  7  1  0  0  0  0
  3 10  1  0  0  0  0
  5 13  1  0  0  0  0
  6 14  1  0  0  0  0
  7  4  1  0  0  0  0
  8 16  1  0  0  0  0
  9 18  1  0  0  0  0
 10  1  1  0  0  0  0
 10  2  1  0  0  0  0
 12  4  1  0  0  0  0
 13 19  1  0  0  0  0
 13  3  1  0  0  0  0
 13 22  1  0  0  0  0
 14  5  1  0  0  0  0
 17 19  1  0  0  0  0
 18 11  1  0  0  0  0
 18 14  1  0  0  0  0
 18 17  1  0  0  0  0
 20  5  1  0  0  0  0
 21  3  1  0  0  0  0
 21  8  1  0  0  0  0
 22 15  1  0  0  0  0
 23 21  1  0  0  0  0
 25 24  2  0  0  0  0
 26 25  2  0  0  0  0
 26 23  1  0  0  0  0
 27 26  1  0  0  0  0
 29 24  1  0  0  0  0
 30 29  1  0  0  0  0
 30 28  1  0  0  0  0
 31 32  1  0  0  0  0
 31 34  1  0  0  0  0
 32 33  1  0  0  0  0
 33 29  1  0  0  0  0
 34 30  1  0  0  0  0
M  END
>  <MODEL>
5

>  <REMARK>
 VINA RESULT:      -5.8      4.929      8.691
  Name = 
  3 active torsions:
  status: ('A' for Active; 'I' for Inactive)
    1  A    between atoms: C_3  and  C_13
    2  A    between atoms: C_5  and  C_18
    3  A    between atoms: C_5  and  C_31
                            x       y       z     vdW  Elec       q    Type
                         _______ _______ _______ _____ _____    ______ ____

>  <TORSDO>
F 3

$$$$
=
 OpenBabel10272400083D

 34 38  0  0  1  0  0  0  0  0999 V2000
  186.0500  178.0940  144.7370 C   0  0  2  0  0  3  0  0  0  0  0  0
  185.3390  179.1770  142.5910 C   0  0  1  0  0  3  0  0  0  0  0  0
  187.4550  177.6390  142.8160 C   0  0  2  0  0  3  0  0  0  0  0  0
  183.8380  178.4970  144.5200 C   0  0  0  0  0  2  0  0  0  0  0  0
  189.6010  176.3230  143.3210 C   0  0  1  0  0  3  0  0  0  0  0  0
  191.8840  175.5380  143.3490 O   0  0  0  0  0  1  0  0  0  0  0  0
  184.0170  178.5130  142.9760 C   0  0  0  0  0  2  0  0  0  0  0  0
  186.4330  178.0860  140.5880 C   0  0  0  0  0  2  0  0  0  0  0  0
  192.2700  177.7750  142.0590 O   0  0  0  0  0  1  0  0  0  0  0  0
  186.5270  178.6840  143.4330 C   0  0  2  0  0  3  0  0  0  0  0  0
  192.3530  178.5130  144.1950 F   0  0  0  0  0  0  0  0  0  0  0  0
  184.9990  178.8650  145.2510 O   0  0  0  0  0  0  0  0  0  0  0  0
  188.6690  177.4790  143.8040 C   0  0  1  0  0  0  0  0  0  0  0  0
  191.0430  176.5760  143.7620 C   0  0  1  0  0  3  0  0  0  0  0  0
  187.2720  178.0390  145.6320 C   0  0  0  0  0  2  0  0  0  0  0  0
  185.6070  179.2610  141.0900 C   0  0  0  0  0  2  0  0  0  0  0  0
  190.3610  178.8700  142.9540 C   0  0  0  0  0  2  0  0  0  0  0  0
  191.5400  177.9370  143.2380 C   0  0  2  0  0  0  0  0  0  0  0  0
  189.3650  178.7240  143.9410 O   0  0  0  0  0  0  0  0  0  0  0  0
  189.1070  174.9370  143.7220 C   0  0  0  0  0  1  0  0  0  0  0  0
  187.7580  177.9920  141.3440 C   0  0  2  0  0  3  0  0  0  0  0  0
  188.1930  177.1000  145.1020 O   0  0  0  0  0  0  0  0  0  0  0  0
  188.6070  176.9270  140.6580 C   0  0  0  0  0  2  0  0  0  0  0  0
  191.4320  176.1760  138.5540 C   0  0  0  0  0  3  0  0  0  0  0  0
  190.4280  176.8440  139.0470 C   0  0  0  0  0  0  0  0  0  0  0  0
  189.4200  177.5060  139.5460 C   0  0  0  0  0  0  0  0  0  0  0  0
  189.0060  178.7910  138.9230 C   0  0  0  0  0  1  0  0  0  0  0  0
  189.9610  175.7240  135.9530 C   0  0  0  0  0  1  0  0  0  0  0  0
  191.9940  176.5390  137.2130 C   0  0  2  0  0  3  0  0  0  0  0  0
  191.4720  175.6400  136.0840 C   0  0  1  0  0  3  0  0  0  0  0  0
  193.7160  174.0630  136.0430 S   0  0  0  0  0  0  0  0  0  0  0  0
  194.0850  175.1350  137.4690 C   0  0  0  0  0  2  0  0  0  0  0  0
  193.5220  176.5370  137.2500 C   0  0  0  0  0  2  0  0  0  0  0  0
  191.9110  174.1920  136.2590 C   0  0  0  0  0  2  0  0  0  0  0  0
  1 12  1  0  0  0  0
  1 15  1  1  0  0  0
  2 16  1  6  0  0  0
  2  7  1  0  0  0  0
  2 10  1  0  0  0  0
  3 10  1  0  0  0  0
  3 13  1  0  0  0  0
  4 12  1  0  0  0  0
  5 20  1  0  0  0  0
  5 14  1  0  0  0  0
  5 13  1  0  0  0  0
  6 14  1  0  0  0  0
  7  4  1  0  0  0  0
  8 16  1  0  0  0  0
  8 21  1  0  0  0  0
  9 18  1  0  0  0  0
 10  1  1  0  0  0  0
 13 19  1  0  0  0  0
 13 22  1  0  0  0  0
 17 18  1  0  0  0  0
 17 19  1  0  0  0  0
 18 14  1  0  0  0  0
 18 11  1  0  0  0  0
 21  3  1  0  0  0  0
 22 15  1  0  0  0  0
 23 21  1  0  0  0  0
 24 25  2  0  0  0  0
 25 26  2  0  0  0  0
 26 23  1  0  0  0  0
 27 26  1  0  0  0  0
 28 30  1  0  0  0  0
 29 33  1  0  0  0  0
 29 24  1  0  0  0  0
 30 34  1  0  0  0  0
 30 29  1  0  0  0  0
 31 34  1  0  0  0  0
 31 32  1  0  0  0  0
 33 32  1  0  0  0  0
M  END
>  <MODEL>
6

>  <REMARK>
 VINA RESULT:      -5.5      4.311      8.480
  Name = 
  3 active torsions:
  status: ('A' for Active; 'I' for Inactive)
    1  A    between atoms: C_3  and  C_13
    2  A    between atoms: C_5  and  C_18
    3  A    between atoms: C_5  and  C_31
                            x       y       z     vdW  Elec       q    Type
                         _______ _______ _______ _____ _____    ______ ____

>  <TORSDO>
F 3

$$$$
=
 OpenBabel10272400083D

 34 38  0  0  1  0  0  0  0  0999 V2000
  190.8330  174.2090  135.3370 C   0  0  2  0  0  3  0  0  0  0  0  0
  189.2360  172.3690  135.9320 C   0  0  1  0  0  3  0  0  0  0  0  0
  188.5640  174.9050  135.8270 C   0  0  2  0  0  3  0  0  0  0  0  0
  191.2850  172.1830  134.4470 C   0  0  0  0  0  2  0  0  0  0  0  0
  188.1960  177.4450  135.9130 C   0  0  1  0  0  3  0  0  0  0  0  0
  187.4620  179.6590  136.5340 O   0  0  0  0  0  1  0  0  0  0  0  0
  189.7910  171.7960  134.6280 C   0  0  0  0  0  2  0  0  0  0  0  0
  186.8300  173.1190  135.7240 C   0  0  0  0  0  2  0  0  0  0  0  0
  186.6460  178.3810  138.6590 O   0  0  0  0  0  1  0  0  0  0  0  0
  189.6150  173.8430  136.1490 C   0  0  2  0  0  3  0  0  0  0  0  0
  188.7980  178.7860  139.2250 F   0  0  0  0  0  0  0  0  0  0  0  0
  191.7570  173.1560  135.3690 O   0  0  0  0  0  0  0  0  0  0  0  0
  189.1460  176.2780  136.3300 C   0  0  1  0  0  0  0  0  0  0  0  0
  188.2970  178.6010  136.9070 C   0  0  1  0  0  3  0  0  0  0  0  0
  191.3480  175.5030  135.9350 C   0  0  0  0  0  2  0  0  0  0  0  0
  187.7740  172.0330  136.2150 C   0  0  0  0  0  2  0  0  0  0  0  0
  188.2210  176.6120  138.4630 C   0  0  0  0  0  2  0  0  0  0  0  0
  187.9780  178.1180  138.3350 C   0  0  2  0  0  0  0  0  0  0  0  0
  189.3720  176.2340  137.7430 O   0  0  0  0  0  0  0  0  0  0  0  0
  188.3930  177.9020  134.4710 C   0  0  0  0  0  1  0  0  0  0  0  0
  187.1800  174.4670  136.3520 C   0  0  2  0  0  3  0  0  0  0  0  0
  190.4050  176.5340  135.6930 O   0  0  0  0  0  0  0  0  0  0  0  0
  186.0800  175.4540  135.9740 C   0  0  0  0  0  2  0  0  0  0  0  0
  183.4490  177.5080  137.3270 C   0  0  0  0  0  3  0  0  0  0  0  0
  184.1930  176.4550  137.1370 C   0  0  0  0  0  0  0  0  0  0  0  0
  184.9410  175.4040  136.9400 C   0  0  0  0  0  0  0  0  0  0  0  0
  184.5850  174.1170  137.5920 C   0  0  0  0  0  1  0  0  0  0  0  0
  181.2130  179.5010  136.9250 C   0  0  0  0  0  1  0  0  0  0  0  0
  182.0990  177.3730  137.9620 C   0  0  2  0  0  3  0  0  0  0  0  0
  181.4210  178.7270  138.2150 C   0  0  1  0  0  3  0  0  0  0  0  0
  182.1110  178.7910  140.8690 S   0  0  0  0  0  0  0  0  0  0  0  0
  182.9840  177.2850  140.3320 C   0  0  0  0  0  2  0  0  0  0  0  0
  182.1880  176.5570  139.2520 C   0  0  0  0  0  2  0  0  0  0  0  0
  182.1910  179.5700  139.2240 C   0  0  0  0  0  2  0  0  0  0  0  0
  1 12  1  0  0  0  0
  1 15  1  1  0  0  0
  1 10  1  0  0  0  0
  2  7  1  6  0  0  0
  2 10  1  0  0  0  0
  2 16  1  0  0  0  0
  3 10  1  0  0  0  0
  3 13  1  0  0  0  0
  3 21  1  0  0  0  0
  4  7  1  0  0  0  0
  4 12  1  0  0  0  0
  5 13  1  0  0  0  0
  5 14  1  0  0  0  0
  6 14  1  0  0  0  0
  8 16  1  0  0  0  0
  8 21  1  0  0  0  0
 13 19  1  0  0  0  0
 14 18  1  0  0  0  0
 18 17  1  0  0  0  0
 18  9  1  0  0  0  0
 18 11  1  0  0  0  0
 19 17  1  0  0  0  0
 20  5  1  0  0  0  0
 22 15  1  0  0  0  0
 22 13  1  0  0  0  0
 23 21  1  0  0  0  0
 23 26  1  0  0  0  0
 24 29  1  0  0  0  0
 25 24  2  0  0  0  0
 26 25  2  0  0  0  0
 26 27  1  0  0  0  0
 28 30  1  0  0  0  0
 29 30  1  0  0  0  0
 29 33  1  0  0  0  0
 30 34  1  0  0  0  0
 32 31  1  0  0  0  0
 33 32  1  0  0  0  0
 34 31  1  0  0  0  0
M  END
>  <MODEL>
7

>  <REMARK>
 VINA RESULT:      -5.5      4.252      6.374
  Name = 
  3 active torsions:
  status: ('A' for Active; 'I' for Inactive)
    1  A    between atoms: C_3  and  C_13
    2  A    between atoms: C_5  and  C_18
    3  A    between atoms: C_5  and  C_31
                            x       y       z     vdW  Elec       q    Type
                         _______ _______ _______ _____ _____    ______ ____

>  <TORSDO>
F 3

$$$$
=
 OpenBabel10272400083D

 34 38  0  0  1  0  0  0  0  0999 V2000
  189.2770  177.3390  147.0840 C   0  0  2  0  0  3  0  0  0  0  0  0
  187.2040  178.7490  147.0280 C   0  0  1  0  0  3  0  0  0  0  0  0
  188.1360  177.4430  144.9490 C   0  0  2  0  0  3  0  0  0  0  0  0
  188.1570  177.5280  149.0380 C   0  0  0  0  0  2  0  0  0  0  0  0
  189.3600  176.3020  143.0020 C   0  0  1  0  0  3  0  0  0  0  0  0
  190.2910  175.7880  140.8340 O   0  0  0  0  0  1  0  0  0  0  0  0
  186.8710  177.8760  148.2380 C   0  0  0  0  0  2  0  0  0  0  0  0
  185.7680  178.2150  145.0150 C   0  0  0  0  0  2  0  0  0  0  0  0
  189.6170  178.2690  140.3770 O   0  0  0  0  0  1  0  0  0  0  0  0
  188.4110  178.2310  146.2290 C   0  0  2  0  0  3  0  0  0  0  0  0
  191.6460  178.5630  141.3330 F   0  0  0  0  0  0  0  0  0  0  0  0
  189.3690  177.8680  148.3780 O   0  0  0  0  0  0  0  0  0  0  0  0
  189.5290  177.2240  144.2500 C   0  0  1  0  0  0  0  0  0  0  0  0
  190.4230  176.6200  141.9510 C   0  0  1  0  0  3  0  0  0  0  0  0
  190.6040  177.2420  146.3590 C   0  0  0  0  0  2  0  0  0  0  0  0
  186.0040  179.1640  146.1810 C   0  0  0  0  0  2  0  0  0  0  0  0
  189.7110  178.9390  142.6550 C   0  0  0  0  0  2  0  0  0  0  0  0
  190.3600  178.1060  141.5480 C   0  0  2  0  0  0  0  0  0  0  0  0
  190.1240  178.4850  143.9240 O   0  0  0  0  0  0  0  0  0  0  0  0
  189.3110  174.8170  143.3460 C   0  0  0  0  0  1  0  0  0  0  0  0
  187.0130  178.1190  144.1340 C   0  0  2  0  0  3  0  0  0  0  0  0
  190.4170  176.5380  145.1420 O   0  0  0  0  0  0  0  0  0  0  0  0
  186.6390  177.3180  142.8910 C   0  0  0  0  0  2  0  0  0  0  0  0
  183.2480  177.9330  141.8450 C   0  0  0  0  0  3  0  0  0  0  0  0
  184.5460  178.0380  141.8820 C   0  0  0  0  0  0  0  0  0  0  0  0
  185.8470  178.1390  141.9260 C   0  0  0  0  0  0  0  0  0  0  0  0
  186.5330  179.1620  141.0950 C   0  0  0  0  0  1  0  0  0  0  0  0
  180.7470  179.0930  143.0850 C   0  0  0  0  0  1  0  0  0  0  0  0
  182.4230  179.0020  141.1950 C   0  0  2  0  0  3  0  0  0  0  0  0
  180.9400  178.9330  141.5870 C   0  0  1  0  0  3  0  0  0  0  0  0
  180.1940  177.6500  139.2800 S   0  0  0  0  0  0  0  0  0  0  0  0
  182.0040  177.6890  139.0720 C   0  0  0  0  0  2  0  0  0  0  0  0
  182.5880  178.9630  139.6760 C   0  0  0  0  0  2  0  0  0  0  0  0
  180.2820  177.6480  141.1000 C   0  0  0  0  0  2  0  0  0  0  0  0
  1 15  1  6  0  0  0
  1 12  1  0  0  0  0
  2 16  1  6  0  0  0
  2  7  1  0  0  0  0
  3 10  1  0  0  0  0
  5 20  1  0  0  0  0
  5 13  1  0  0  0  0
  6 14  1  0  0  0  0
  7  4  1  0  0  0  0
  8 16  1  0  0  0  0
  9 18  1  0  0  0  0
 10  2  1  0  0  0  0
 10  1  1  0  0  0  0
 11 18  1  0  0  0  0
 12  4  1  0  0  0  0
 13  3  1  0  0  0  0
 13 22  1  0  0  0  0
 14  5  1  0  0  0  0
 17 19  1  0  0  0  0
 18 14  1  0  0  0  0
 18 17  1  0  0  0  0
 19 13  1  0  0  0  0
 21  3  1  0  0  0  0
 21  8  1  0  0  0  0
 22 15  1  0  0  0  0
 23 21  1  0  0  0  0
 24 25  2  0  0  0  0
 25 26  2  0  0  0  0
 26 23  1  0  0  0  0
 27 26  1  0  0  0  0
 29 30  1  0  0  0  0
 29 24  1  0  0  0  0
 30 28  1  0  0  0  0
 31 34  1  0  0  0  0
 32 31  1  0  0  0  0
 32 33  1  0  0  0  0
 33 29  1  0  0  0  0
 34 30  1  0  0  0  0
M  END
>  <MODEL>
8

>  <REMARK>
 VINA RESULT:      -5.5      5.211      8.811
  Name = 
  3 active torsions:
  status: ('A' for Active; 'I' for Inactive)
    1  A    between atoms: C_3  and  C_13
    2  A    between atoms: C_5  and  C_18
    3  A    between atoms: C_5  and  C_31
                            x       y       z     vdW  Elec       q    Type
                         _______ _______ _______ _____ _____    ______ ____

>  <TORSDO>
F 3

$$$$
=
 OpenBabel10272400083D

 34 38  0  0  1  0  0  0  0  0999 V2000
  189.3820  177.1050  140.6860 C   0  0  2  0  0  3  0  0  0  0  0  0
  187.6690  178.7050  141.5760 C   0  0  1  0  0  3  0  0  0  0  0  0
  187.4200  177.4220  139.2990 C   0  0  2  0  0  3  0  0  0  0  0  0
  189.2890  177.3020  142.9350 C   0  0  0  0  0  2  0  0  0  0  0  0
  187.5060  176.2670  137.0070 C   0  0  1  0  0  3  0  0  0  0  0  0
  187.3010  175.7750  134.6520 O   0  0  0  0  0  1  0  0  0  0  0  0
  187.8250  177.8100  142.8050 C   0  0  0  0  0  2  0  0  0  0  0  0
  185.4330  178.4090  140.4310 C   0  0  0  0  0  2  0  0  0  0  0  0
  186.7630  178.3280  134.5530 O   0  0  0  0  0  1  0  0  0  0  0  0
  188.3240  178.1150  140.3170 C   0  0  2  0  0  3  0  0  0  0  0  0
  189.0230  178.3820  134.4860 F   0  0  0  0  0  0  0  0  0  0  0  0
  190.1030  177.5590  141.7980 O   0  0  0  0  0  0  0  0  0  0  0  0
  188.3170  177.1070  138.0450 C   0  0  1  0  0  0  0  0  0  0  0  0
  188.0090  176.5350  135.5890 C   0  0  1  0  0  3  0  0  0  0  0  0
  190.2220  176.9180  139.4380 C   0  0  0  0  0  2  0  0  0  0  0  0
  186.2670  179.2730  141.3650 C   0  0  0  0  0  2  0  0  0  0  0  0
  187.9430  178.8730  136.5420 C   0  0  0  0  0  2  0  0  0  0  0  0
  187.9310  178.0370  135.2600 C   0  0  2  0  0  0  0  0  0  0  0  0
  188.8320  178.3200  137.4860 O   0  0  0  0  0  0  0  0  0  0  0  0
  187.4600  174.7780  137.3350 C   0  0  0  0  0  1  0  0  0  0  0  0
  186.1290  178.2400  139.0820 C   0  0  2  0  0  3  0  0  0  0  0  0
  189.4330  176.2970  138.4370 O   0  0  0  0  0  0  0  0  0  0  0  0
  185.1520  177.5400  138.1420 C   0  0  0  0  0  2  0  0  0  0  0  0
  182.5290  179.9980  138.3430 C   0  0  0  0  0  3  0  0  0  0  0  0
  183.1300  178.8500  138.4730 C   0  0  0  0  0  0  0  0  0  0  0  0
  183.7390  177.7020  138.5980 C   0  0  0  0  0  0  0  0  0  0  0  0
  182.9830  176.5200  139.0870 C   0  0  0  0  0  1  0  0  0  0  0  0
  180.6880  178.4580  136.5060 C   0  0  0  0  0  1  0  0  0  0  0  0
  181.0340  180.0800  138.4140 C   0  0  2  0  0  3  0  0  0  0  0  0
  180.3590  179.8340  137.0570 C   0  0  1  0  0  3  0  0  0  0  0  0
  179.9820  182.5030  136.5480 S   0  0  0  0  0  0  0  0  0  0  0  0
  180.9400  182.5890  138.0950 C   0  0  0  0  0  2  0  0  0  0  0  0
  180.5940  181.4170  139.0090 C   0  0  0  0  0  2  0  0  0  0  0  0
  180.7130  180.9130  136.0410 C   0  0  0  0  0  2  0  0  0  0  0  0
  1 15  1  6  0  0  0
  1 12  1  0  0  0  0
  2 16  1  6  0  0  0
  2  7  1  0  0  0  0
  3 10  1  0  0  0  0
  5 20  1  0  0  0  0
  5 13  1  0  0  0  0
  6 14  1  0  0  0  0
  7  4  1  0  0  0  0
  8 16  1  0  0  0  0
  9 18  1  0  0  0  0
 10  1  1  0  0  0  0
 10  2  1  0  0  0  0
 11 18  1  0  0  0  0
 12  4  1  0  0  0  0
 13 22  1  0  0  0  0
 13  3  1  0  0  0  0
 14  5  1  0  0  0  0
 17 19  1  0  0  0  0
 18 14  1  0  0  0  0
 18 17  1  0  0  0  0
 19 13  1  0  0  0  0
 21  3  1  0  0  0  0
 21  8  1  0  0  0  0
 22 15  1  0  0  0  0
 23 26  1  0  0  0  0
 23 21  1  0  0  0  0
 24 29  1  0  0  0  0
 24 25  2  0  0  0  0
 25 26  2  0  0  0  0
 26 27  1  0  0  0  0
 28 30  1  0  0  0  0
 29 33  1  0  0  0  0
 30 29  1  0  0  0  0
 31 32  1  0  0  0  0
 32 33  1  0  0  0  0
 34 31  1  0  0  0  0
 34 30  1  0  0  0  0
M  END
>  <MODEL>
9

>  <REMARK>
 VINA RESULT:      -5.4      4.691      7.544
  Name = 
  3 active torsions:
  status: ('A' for Active; 'I' for Inactive)
    1  A    between atoms: C_3  and  C_13
    2  A    between atoms: C_5  and  C_18
    3  A    between atoms: C_5  and  C_31
                            x       y       z     vdW  Elec       q    Type
                         _______ _______ _______ _____ _____    ______ ____

>  <TORSDO>
F 3

$$$$
