=
 OpenBabel10272413543D

 30 32  0  0  1  0  0  0  0  0999 V2000
  186.6460  177.8770  142.9460 N   0  0  0  0  0  0  0  0  0  0  0  0
  184.4600  178.6650  142.0880 C   0  0  0  0  0  0  0  0  0  0  0  0
  185.6130  178.6110  146.9220 C   0  0  0  0  0  3  0  0  0  0  0  0
  187.5660  177.6280  143.9180 C   0  0  0  0  0  0  0  0  0  0  0  0
  186.5410  178.3730  147.9380 C   0  0  0  0  0  3  0  0  0  0  0  0
  183.1120  178.8640  142.5260 O   0  0  0  0  0  0  0  0  0  0  0  0
  184.4910  177.6580  141.1220 O   0  0  0  0  0  0  0  0  0  0  0  0
  185.9450  178.3630  145.5800 C   0  0  0  0  0  0  0  0  0  0  0  0
  182.7740  179.2090  143.8400 C   0  0  0  0  0  3  0  0  0  0  0  0
  185.3950  178.3320  143.2210 C   0  0  0  0  0  0  0  0  0  0  0  0
  187.2350  177.8690  145.2640 C   0  0  0  0  0  0  0  0  0  0  0  0
  187.8110  177.8840  147.6260 C   0  0  0  0  0  3  0  0  0  0  0  0
  188.1560  177.6340  146.2960 C   0  0  0  0  0  3  0  0  0  0  0  0
  183.6630  179.1020  144.8250 C   0  0  0  0  0  3  0  0  0  0  0  0
  185.0200  178.5980  144.5470 C   0  0  0  0  0  0  0  0  0  0  0  0
  188.9390  177.1350  143.5350 C   0  0  2  0  0  3  0  0  0  0  0  0
  190.0420  179.2400  143.6130 O   0  0  0  0  0  0  0  0  0  0  0  0
  190.0690  178.0320  143.9630 C   0  0  0  0  0  0  0  0  0  0  0  0
  191.1280  177.5820  144.8150 N   0  0  0  0  0  2  0  0  0  0  0  0
  191.4050  176.2640  145.0080 O   0  0  0  0  0  0  0  0  0  0  0  0
  192.5840  174.8650  146.4310 O   0  0  0  0  0  1  0  0  0  0  0  0
  192.0740  176.1530  146.2460 C   0  0  2  0  0  3  0  0  0  0  0  0
  191.2130  176.5660  147.4300 C   0  0  0  0  0  1  0  0  0  0  0  0
  189.0580  176.6510  142.1160 C   0  0  0  0  0  3  0  0  0  0  0  0
  189.8150  177.2710  141.2090 C   0  0  0  0  0  3  0  0  0  0  0  0
  189.8950  176.7640  139.8080 C   0  0  0  0  0  2  0  0  0  0  0  0
  190.0010  177.8800  138.8820 N   0  0  0  0  0  2  0  0  0  0  0  0
  187.5570  178.2800  138.9280 N   0  0  0  0  0  1  0  0  0  0  0  0
  188.8570  178.6180  138.4540 C   0  0  0  0  0  0  0  0  0  0  0  0
  188.9990  179.5750  137.6510 O   0  0  0  0  0  0  0  0  0  0  0  0
  1 10  2  0  0  0  0
  1  4  1  0  0  0  0
  2  6  1  0  0  0  0
  2 10  1  0  0  0  0
  3  5  2  0  0  0  0
  4 11  2  0  0  0  0
  6  9  1  0  0  0  0
  7  2  2  0  0  0  0
  8  3  1  0  0  0  0
  9 14  2  0  0  0  0
 10 15  1  0  0  0  0
 11  8  1  0  0  0  0
 11 13  1  0  0  0  0
 12  5  1  0  0  0  0
 13 12  2  0  0  0  0
 15 14  1  0  0  0  0
 15  8  2  0  0  0  0
 16 24  1  6  0  0  0
 16  4  1  0  0  0  0
 16 18  1  0  0  0  0
 17 18  2  0  0  0  0
 18 19  1  0  0  0  0
 19 20  1  0  0  0  0
 20 22  1  0  0  0  0
 22 21  1  0  0  0  0
 22 23  1  1  0  0  0
 25 24  2  0  0  0  0
 26 25  1  0  0  0  0
 27 26  1  0  0  0  0
 29 27  1  0  0  0  0
 29 28  1  0  0  0  0
 30 29  2  0  0  0  0
M  END
>  <MODEL>
1

>  <REMARK>
 VINA RESULT:      -9.4      0.000      0.000
  Name = 
  7 active torsions:
  status: ('A' for Active; 'I' for Inactive)
    1  A    between atoms: C_4  and  C_13
    2  A    between atoms: N_7  and  C_16
    3  A    between atoms: C_8  and  C_13
    4  A    between atoms: O_9  and  N_12
    5  A    between atoms: O_9  and  C_17
    6  A    between atoms: C_13  and  C_27
    7  A    between atoms: C_16  and  C_30
                            x       y       z     vdW  Elec       q    Type
                         _______ _______ _______ _____ _____    ______ ____

>  <TORSDO>
F 7

$$$$
=
 OpenBabel10272413543D

 30 32  0  0  1  0  0  0  0  0999 V2000
  188.9230  176.9740  144.9830 N   0  0  0  0  0  0  0  0  0  0  0  0
  189.2980  177.0480  147.4300 C   0  0  0  0  0  0  0  0  0  0  0  0
  185.1300  178.6890  145.2760 C   0  0  0  0  0  3  0  0  0  0  0  0
  188.1970  177.1530  143.8460 C   0  0  0  0  0  0  0  0  0  0  0  0
  184.3590  178.8750  144.1270 C   0  0  0  0  0  3  0  0  0  0  0  0
  188.8360  177.7420  148.5950 O   0  0  0  0  0  0  0  0  0  0  0  0
  190.6390  177.3640  147.2030 O   0  0  0  0  0  0  0  0  0  0  0  0
  186.4100  178.1180  145.1920 C   0  0  0  0  0  0  0  0  0  0  0  0
  187.5310  178.2300  148.7310 C   0  0  0  0  0  3  0  0  0  0  0  0
  188.4730  177.3550  146.2080 C   0  0  0  0  0  0  0  0  0  0  0  0
  186.9150  177.7300  143.9260 C   0  0  0  0  0  0  0  0  0  0  0  0
  184.8580  178.4930  142.8800 C   0  0  0  0  0  3  0  0  0  0  0  0
  186.1290  177.9240  142.7800 C   0  0  0  0  0  3  0  0  0  0  0  0
  186.7220  178.3210  147.6790 C   0  0  0  0  0  3  0  0  0  0  0  0
  187.1980  177.9250  146.3410 C   0  0  0  0  0  0  0  0  0  0  0  0
  188.7570  176.6940  142.5230 C   0  0  2  0  0  3  0  0  0  0  0  0
  190.1710  174.8170  142.8820 O   0  0  0  0  0  0  0  0  0  0  0  0
  190.1110  176.0440  142.6080 C   0  0  0  0  0  0  0  0  0  0  0  0
  191.3220  176.7480  142.3130 N   0  0  0  0  0  2  0  0  0  0  0  0
  191.3950  178.1050  142.2920 O   0  0  0  0  0  0  0  0  0  0  0  0
  191.9980  177.4360  144.4290 O   0  0  0  0  0  1  0  0  0  0  0  0
  191.8680  178.5200  143.5560 C   0  0  2  0  0  3  0  0  0  0  0  0
  191.0170  179.6160  144.1820 C   0  0  0  0  0  1  0  0  0  0  0  0
  188.6400  177.7010  141.4110 C   0  0  0  0  0  3  0  0  0  0  0  0
  188.7160  177.3570  140.1230 C   0  0  0  0  0  3  0  0  0  0  0  0
  188.6060  178.3890  139.0520 C   0  0  0  0  0  2  0  0  0  0  0  0
  187.7620  177.8970  137.9740 N   0  0  0  0  0  2  0  0  0  0  0  0
  185.7110  178.7950  139.0350 N   0  0  0  0  0  1  0  0  0  0  0  0
  186.3500  178.0970  137.9690 C   0  0  0  0  0  0  0  0  0  0  0  0
  185.6620  177.6520  137.0150 O   0  0  0  0  0  0  0  0  0  0  0  0
  1 10  1  0  0  0  0
  2  6  1  0  0  0  0
  4 11  1  0  0  0  0
  4  1  2  0  0  0  0
  5  3  2  0  0  0  0
  6  9  1  0  0  0  0
  7  2  2  0  0  0  0
  8  3  1  0  0  0  0
  8 15  1  0  0  0  0
 10 15  2  0  0  0  0
 10  2  1  0  0  0  0
 11  8  2  0  0  0  0
 12  5  1  0  0  0  0
 13 12  2  0  0  0  0
 13 11  1  0  0  0  0
 14  9  2  0  0  0  0
 15 14  1  0  0  0  0
 16 24  1  6  0  0  0
 16 18  1  0  0  0  0
 16  4  1  0  0  0  0
 18 17  2  0  0  0  0
 19 18  1  0  0  0  0
 20 19  1  0  0  0  0
 20 22  1  0  0  0  0
 22 23  1  1  0  0  0
 22 21  1  0  0  0  0
 25 24  2  0  0  0  0
 26 25  1  0  0  0  0
 27 26  1  0  0  0  0
 29 27  1  0  0  0  0
 29 28  1  0  0  0  0
 30 29  2  0  0  0  0
M  END
>  <MODEL>
2

>  <REMARK>
 VINA RESULT:      -9.0      2.195      4.110
  Name = 
  7 active torsions:
  status: ('A' for Active; 'I' for Inactive)
    1  A    between atoms: C_4  and  C_13
    2  A    between atoms: N_7  and  C_16
    3  A    between atoms: C_8  and  C_13
    4  A    between atoms: O_9  and  N_12
    5  A    between atoms: O_9  and  C_17
    6  A    between atoms: C_13  and  C_27
    7  A    between atoms: C_16  and  C_30
                            x       y       z     vdW  Elec       q    Type
                         _______ _______ _______ _____ _____    ______ ____

>  <TORSDO>
F 7

$$$$
=
 OpenBabel10272413543D

 30 32  0  0  1  0  0  0  0  0999 V2000
  186.7840  177.9630  142.9370 N   0  0  0  0  0  0  0  0  0  0  0  0
  184.4770  178.7660  142.5220 C   0  0  0  0  0  0  0  0  0  0  0  0
  186.3830  178.2360  147.0820 C   0  0  0  0  0  3  0  0  0  0  0  0
  187.8500  177.6410  143.7200 C   0  0  0  0  0  0  0  0  0  0  0  0
  187.4640  177.9220  147.9080 C   0  0  0  0  0  3  0  0  0  0  0  0
  183.2130  178.8740  143.1850 O   0  0  0  0  0  0  0  0  0  0  0  0
  184.3700  177.8690  141.4580 O   0  0  0  0  0  0  0  0  0  0  0  0
  186.5020  178.1440  145.6860 C   0  0  0  0  0  0  0  0  0  0  0  0
  183.0830  179.0660  144.5660 C   0  0  0  0  0  3  0  0  0  0  0  0
  185.5850  178.3450  143.4520 C   0  0  0  0  0  0  0  0  0  0  0  0
  187.7330  177.7270  145.1200 C   0  0  0  0  0  0  0  0  0  0  0  0
  188.6760  177.5110  147.3490 C   0  0  0  0  0  3  0  0  0  0  0  0
  188.8100  177.4140  145.9630 C   0  0  0  0  0  3  0  0  0  0  0  0
  184.1180  178.8850  145.3820 C   0  0  0  0  0  3  0  0  0  0  0  0
  185.4210  178.4570  144.8420 C   0  0  0  0  0  0  0  0  0  0  0  0
  189.1520  177.2370  143.0760 C   0  0  2  0  0  3  0  0  0  0  0  0
  190.2040  179.3350  143.4560 O   0  0  0  0  0  0  0  0  0  0  0  0
  190.3330  178.0830  143.4650 C   0  0  0  0  0  0  0  0  0  0  0  0
  191.5680  177.5180  143.9180 N   0  0  0  0  0  2  0  0  0  0  0  0
  191.9070  176.2200  143.6960 O   0  0  0  0  0  0  0  0  0  0  0  0
  192.0760  176.3060  146.0070 O   0  0  0  0  0  1  0  0  0  0  0  0
  191.7140  175.5220  144.9070 C   0  0  2  0  0  3  0  0  0  0  0  0
  192.4290  174.1790  144.9450 C   0  0  0  0  0  1  0  0  0  0  0  0
  189.0630  176.9680  141.5980 C   0  0  0  0  0  3  0  0  0  0  0  0
  190.0350  177.3070  140.7490 C   0  0  0  0  0  3  0  0  0  0  0  0
  189.9000  177.0330  139.2890 C   0  0  0  0  0  2  0  0  0  0  0  0
  190.6590  175.8430  138.9360 N   0  0  0  0  0  2  0  0  0  0  0  0
  189.3330  175.4850  136.8750 N   0  0  0  0  0  1  0  0  0  0  0  0
  190.3800  175.0900  137.7570 C   0  0  0  0  0  0  0  0  0  0  0  0
  191.0640  174.0680  137.4950 O   0  0  0  0  0  0  0  0  0  0  0  0
  1 10  2  0  0  0  0
  1  4  1  0  0  0  0
  2  6  1  0  0  0  0
  2 10  1  0  0  0  0
  3  5  2  0  0  0  0
  4 11  2  0  0  0  0
  6  9  1  0  0  0  0
  7  2  2  0  0  0  0
  8  3  1  0  0  0  0
  9 14  2  0  0  0  0
 10 15  1  0  0  0  0
 11  8  1  0  0  0  0
 11 13  1  0  0  0  0
 12  5  1  0  0  0  0
 13 12  2  0  0  0  0
 15 14  1  0  0  0  0
 15  8  2  0  0  0  0
 16 24  1  6  0  0  0
 16 18  1  0  0  0  0
 16  4  1  0  0  0  0
 17 18  2  0  0  0  0
 18 19  1  0  0  0  0
 20 19  1  0  0  0  0
 20 22  1  0  0  0  0
 22 23  1  6  0  0  0
 22 21  1  0  0  0  0
 25 24  2  0  0  0  0
 26 25  1  0  0  0  0
 27 26  1  0  0  0  0
 28 29  1  0  0  0  0
 29 27  1  0  0  0  0
 30 29  2  0  0  0  0
M  END
>  <MODEL>
3

>  <REMARK>
 VINA RESULT:      -9.0      1.636      1.816
  Name = 
  7 active torsions:
  status: ('A' for Active; 'I' for Inactive)
    1  A    between atoms: C_4  and  C_13
    2  A    between atoms: N_7  and  C_16
    3  A    between atoms: C_8  and  C_13
    4  A    between atoms: O_9  and  N_12
    5  A    between atoms: O_9  and  C_17
    6  A    between atoms: C_13  and  C_27
    7  A    between atoms: C_16  and  C_30
                            x       y       z     vdW  Elec       q    Type
                         _______ _______ _______ _____ _____    ______ ____

>  <TORSDO>
F 7

$$$$
=
 OpenBabel10272413543D

 30 32  0  0  1  0  0  0  0  0999 V2000
  185.9730  178.3500  142.2020 N   0  0  0  0  0  0  0  0  0  0  0  0
  183.7390  178.8310  141.2460 C   0  0  0  0  0  0  0  0  0  0  0  0
  184.5870  178.5220  146.1340 C   0  0  0  0  0  3  0  0  0  0  0  0
  186.8620  178.1710  143.2170 C   0  0  0  0  0  0  0  0  0  0  0  0
  185.4790  178.3510  147.1950 C   0  0  0  0  0  3  0  0  0  0  0  0
  182.3530  178.7560  141.5950 O   0  0  0  0  0  0  0  0  0  0  0  0
  184.0050  177.9390  140.2060 O   0  0  0  0  0  0  0  0  0  0  0  0
  185.0380  178.4610  144.8050 C   0  0  0  0  0  0  0  0  0  0  0  0
  181.8800  178.9140  142.9040 C   0  0  0  0  0  3  0  0  0  0  0  0
  184.6470  178.5580  142.4160 C   0  0  0  0  0  0  0  0  0  0  0  0
  186.4120  178.2250  144.5490 C   0  0  0  0  0  0  0  0  0  0  0  0
  186.8320  178.1170  146.9410 C   0  0  0  0  0  3  0  0  0  0  0  0
  187.2960  178.0550  145.6260 C   0  0  0  0  0  3  0  0  0  0  0  0
  182.7120  178.8690  143.9410 C   0  0  0  0  0  3  0  0  0  0  0  0
  184.1510  178.6310  143.7270 C   0  0  0  0  0  0  0  0  0  0  0  0
  188.3210  177.9570  142.9010 C   0  0  2  0  0  3  0  0  0  0  0  0
  188.4260  175.5820  142.8630 O   0  0  0  0  0  0  0  0  0  0  0  0
  188.6310  176.6480  142.2270 C   0  0  0  0  0  0  0  0  0  0  0  0
  189.0750  176.5690  140.8690 N   0  0  0  0  0  2  0  0  0  0  0  0
  189.5940  177.6350  140.2020 O   0  0  0  0  0  0  0  0  0  0  0  0
  190.7760  175.8840  139.2450 O   0  0  0  0  0  1  0  0  0  0  0  0
  190.8230  177.2230  139.6440 C   0  0  2  0  0  3  0  0  0  0  0  0
  192.0100  177.4680  140.5650 C   0  0  0  0  0  1  0  0  0  0  0  0
  189.2610  178.2930  144.0270 C   0  0  0  0  0  3  0  0  0  0  0  0
  190.5210  177.8550  144.0630 C   0  0  0  0  0  3  0  0  0  0  0  0
  191.4160  178.2030  145.2040 C   0  0  0  0  0  2  0  0  0  0  0  0
  191.8910  176.9890  145.8500 N   0  0  0  0  0  2  0  0  0  0  0  0
  190.2820  177.2320  147.7170 N   0  0  0  0  0  1  0  0  0  0  0  0
  191.3350  176.5190  147.0760 C   0  0  0  0  0  0  0  0  0  0  0  0
  191.7800  175.4640  147.5970 O   0  0  0  0  0  0  0  0  0  0  0  0
  1 10  2  0  0  0  0
  1  4  1  0  0  0  0
  2  6  1  0  0  0  0
  2 10  1  0  0  0  0
  3  5  2  0  0  0  0
  4 11  2  0  0  0  0
  6  9  1  0  0  0  0
  7  2  2  0  0  0  0
  8  3  1  0  0  0  0
  9 14  2  0  0  0  0
 10 15  1  0  0  0  0
 11  8  1  0  0  0  0
 11 13  1  0  0  0  0
 12  5  1  0  0  0  0
 13 12  2  0  0  0  0
 15 14  1  0  0  0  0
 15  8  2  0  0  0  0
 16  4  1  0  0  0  0
 16 24  1  1  0  0  0
 18 17  2  0  0  0  0
 18 16  1  0  0  0  0
 19 18  1  0  0  0  0
 20 19  1  0  0  0  0
 21 22  1  0  0  0  0
 22 20  1  0  0  0  0
 22 23  1  1  0  0  0
 24 25  2  0  0  0  0
 25 26  1  0  0  0  0
 26 27  1  0  0  0  0
 27 29  1  0  0  0  0
 29 30  2  0  0  0  0
 29 28  1  0  0  0  0
M  END
>  <MODEL>
4

>  <REMARK>
 VINA RESULT:      -8.6      1.741      4.628
  Name = 
  7 active torsions:
  status: ('A' for Active; 'I' for Inactive)
    1  A    between atoms: C_4  and  C_13
    2  A    between atoms: N_7  and  C_16
    3  A    between atoms: C_8  and  C_13
    4  A    between atoms: O_9  and  N_12
    5  A    between atoms: O_9  and  C_17
    6  A    between atoms: C_13  and  C_27
    7  A    between atoms: C_16  and  C_30
                            x       y       z     vdW  Elec       q    Type
                         _______ _______ _______ _____ _____    ______ ____

>  <TORSDO>
F 7

$$$$
=
 OpenBabel10272413543D

 30 32  0  0  1  0  0  0  0  0999 V2000
  187.7840  177.8060  144.9130 N   0  0  0  0  0  0  0  0  0  0  0  0
  185.8960  177.9960  146.5060 C   0  0  0  0  0  0  0  0  0  0  0  0
  185.3930  178.6890  141.6090 C   0  0  0  0  0  3  0  0  0  0  0  0
  188.3530  177.8100  143.6760 C   0  0  0  0  0  0  0  0  0  0  0  0
  185.9480  178.6910  140.3280 C   0  0  0  0  0  3  0  0  0  0  0  0
  184.6000  178.5960  146.6100 O   0  0  0  0  0  0  0  0  0  0  0  0
  186.7560  178.5830  147.4360 O   0  0  0  0  0  0  0  0  0  0  0  0
  186.1870  178.3990  142.7310 C   0  0  0  0  0  0  0  0  0  0  0  0
  183.7570  178.8010  145.5120 C   0  0  0  0  0  3  0  0  0  0  0  0
  186.4740  178.1030  145.1180 C   0  0  0  0  0  0  0  0  0  0  0  0
  187.5610  178.1060  142.5510 C   0  0  0  0  0  0  0  0  0  0  0  0
  187.3030  178.4030  140.1530 C   0  0  0  0  0  3  0  0  0  0  0  0
  188.1050  178.1110  141.2570 C   0  0  0  0  0  3  0  0  0  0  0  0
  184.2190  178.7030  144.2680 C   0  0  0  0  0  3  0  0  0  0  0  0
  185.6400  178.3940  144.0270 C   0  0  0  0  0  0  0  0  0  0  0  0
  189.8110  177.4580  143.5260 C   0  0  2  0  0  3  0  0  0  0  0  0
  190.8110  179.5910  143.8480 O   0  0  0  0  0  0  0  0  0  0  0  0
  190.7570  178.3930  144.2280 C   0  0  0  0  0  0  0  0  0  0  0  0
  191.5380  177.9900  145.3590 N   0  0  0  0  0  2  0  0  0  0  0  0
  191.7720  176.6850  145.6630 O   0  0  0  0  0  0  0  0  0  0  0  0
  191.9720  175.2770  147.4940 O   0  0  0  0  0  1  0  0  0  0  0  0
  191.5340  176.5270  147.0450 C   0  0  2  0  0  3  0  0  0  0  0  0
  190.0810  176.7580  147.4320 C   0  0  0  0  0  1  0  0  0  0  0  0
  190.2310  177.1180  142.1210 C   0  0  0  0  0  3  0  0  0  0  0  0
  191.4450  177.4050  141.6470 C   0  0  0  0  0  3  0  0  0  0  0  0
  191.8160  177.0600  140.2450 C   0  0  0  0  0  2  0  0  0  0  0  0
  190.7000  177.3370  139.3540 N   0  0  0  0  0  2  0  0  0  0  0  0
  190.8370  175.0910  138.3180 N   0  0  0  0  0  1  0  0  0  0  0  0
  190.2250  176.3740  138.4150 C   0  0  0  0  0  0  0  0  0  0  0  0
  189.2570  176.6610  137.6650 O   0  0  0  0  0  0  0  0  0  0  0  0
  1 10  1  0  0  0  0
  2  6  1  0  0  0  0
  2  7  2  0  0  0  0
  3  8  1  0  0  0  0
  4  1  2  0  0  0  0
  5  3  2  0  0  0  0
  8 15  1  0  0  0  0
  9  6  1  0  0  0  0
 10  2  1  0  0  0  0
 11  8  2  0  0  0  0
 11  4  1  0  0  0  0
 12  5  1  0  0  0  0
 12 13  2  0  0  0  0
 13 11  1  0  0  0  0
 14  9  2  0  0  0  0
 15 14  1  0  0  0  0
 15 10  2  0  0  0  0
 16 24  1  6  0  0  0
 16  4  1  0  0  0  0
 16 18  1  0  0  0  0
 17 18  2  0  0  0  0
 18 19  1  0  0  0  0
 19 20  1  0  0  0  0
 20 22  1  0  0  0  0
 22 23  1  6  0  0  0
 22 21  1  0  0  0  0
 25 24  2  0  0  0  0
 26 25  1  0  0  0  0
 27 26  1  0  0  0  0
 28 29  1  0  0  0  0
 29 27  1  0  0  0  0
 30 29  2  0  0  0  0
M  END
>  <MODEL>
5

>  <REMARK>
 VINA RESULT:      -8.5      1.937      3.373
  Name = 
  7 active torsions:
  status: ('A' for Active; 'I' for Inactive)
    1  A    between atoms: C_4  and  C_13
    2  A    between atoms: N_7  and  C_16
    3  A    between atoms: C_8  and  C_13
    4  A    between atoms: O_9  and  N_12
    5  A    between atoms: O_9  and  C_17
    6  A    between atoms: C_13  and  C_27
    7  A    between atoms: C_16  and  C_30
                            x       y       z     vdW  Elec       q    Type
                         _______ _______ _______ _____ _____    ______ ____

>  <TORSDO>
F 7

$$$$
=
 OpenBabel10272413543D

 30 32  0  0  1  0  0  0  0  0999 V2000
  189.7550  177.2090  141.1470 N   0  0  0  0  0  0  0  0  0  0  0  0
  190.3490  177.1730  138.7420 C   0  0  0  0  0  0  0  0  0  0  0  0
  185.9510  178.7650  140.4240 C   0  0  0  0  0  3  0  0  0  0  0  0
  188.9440  177.4730  142.2080 C   0  0  0  0  0  0  0  0  0  0  0  0
  185.1020  179.0540  141.4940 C   0  0  0  0  0  3  0  0  0  0  0  0
  189.7250  177.1570  137.4540 O   0  0  0  0  0  0  0  0  0  0  0  0
  191.0320  175.9720  138.9420 O   0  0  0  0  0  0  0  0  0  0  0  0
  187.2320  178.2360  140.6520 C   0  0  0  0  0  0  0  0  0  0  0  0
  188.4930  177.7680  137.1900 C   0  0  0  0  0  3  0  0  0  0  0  0
  189.3670  177.4080  139.8600 C   0  0  0  0  0  0  0  0  0  0  0  0
  187.6580  177.9980  141.9820 C   0  0  0  0  0  0  0  0  0  0  0  0
  185.5220  178.8180  142.8040 C   0  0  0  0  0  3  0  0  0  0  0  0
  186.7930  178.2930  143.0480 C   0  0  0  0  0  3  0  0  0  0  0  0
  187.6980  178.1610  138.1810 C   0  0  0  0  0  3  0  0  0  0  0  0
  188.0980  177.9400  139.5840 C   0  0  0  0  0  0  0  0  0  0  0  0
  189.4490  177.2370  143.6090 C   0  0  2  0  0  3  0  0  0  0  0  0
  190.5080  175.2050  142.9740 O   0  0  0  0  0  0  0  0  0  0  0  0
  190.5530  176.2210  143.7150 C   0  0  0  0  0  0  0  0  0  0  0  0
  191.6880  176.4050  144.5670 N   0  0  0  0  0  2  0  0  0  0  0  0
  191.6980  177.2960  145.5950 O   0  0  0  0  0  0  0  0  0  0  0  0
  191.7820  177.3590  147.9120 O   0  0  0  0  0  1  0  0  0  0  0  0
  191.5430  176.5600  146.7900 C   0  0  2  0  0  3  0  0  0  0  0  0
  192.3990  175.3030  146.8330 C   0  0  0  0  0  1  0  0  0  0  0  0
  188.3690  177.0640  144.6430 C   0  0  0  0  0  3  0  0  0  0  0  0
  188.4620  177.5840  145.8690 C   0  0  0  0  0  3  0  0  0  0  0  0
  187.3730  177.3780  146.8670 C   0  0  0  0  0  2  0  0  0  0  0  0
  186.0780  177.6020  146.2410 N   0  0  0  0  0  2  0  0  0  0  0  0
  185.7310  179.7180  147.4810 N   0  0  0  0  0  1  0  0  0  0  0  0
  185.2800  178.7450  146.5440 C   0  0  0  0  0  0  0  0  0  0  0  0
  184.1670  178.8940  145.9770 O   0  0  0  0  0  0  0  0  0  0  0  0
  1  4  1  0  0  0  0
  2  7  2  0  0  0  0
  2 10  1  0  0  0  0
  3  8  1  0  0  0  0
  3  5  2  0  0  0  0
  4 16  1  0  0  0  0
  5 12  1  0  0  0  0
  6  2  1  0  0  0  0
  8 11  1  0  0  0  0
  9  6  1  0  0  0  0
  9 14  2  0  0  0  0
 10  1  2  0  0  0  0
 11  4  2  0  0  0  0
 11 13  1  0  0  0  0
 12 13  2  0  0  0  0
 14 15  1  0  0  0  0
 15 10  1  0  0  0  0
 15  8  2  0  0  0  0
 16 18  1  0  0  0  0
 16 24  1  1  0  0  0
 17 18  2  0  0  0  0
 18 19  1  0  0  0  0
 19 20  1  0  0  0  0
 20 22  1  0  0  0  0
 22 23  1  6  0  0  0
 22 21  1  0  0  0  0
 24 25  2  0  0  0  0
 25 26  1  0  0  0  0
 27 29  1  0  0  0  0
 27 26  1  0  0  0  0
 29 28  1  0  0  0  0
 30 29  2  0  0  0  0
M  END
>  <MODEL>
6

>  <REMARK>
 VINA RESULT:      -8.3      2.126      5.778
  Name = 
  7 active torsions:
  status: ('A' for Active; 'I' for Inactive)
    1  A    between atoms: C_4  and  C_13
    2  A    between atoms: N_7  and  C_16
    3  A    between atoms: C_8  and  C_13
    4  A    between atoms: O_9  and  N_12
    5  A    between atoms: O_9  and  C_17
    6  A    between atoms: C_13  and  C_27
    7  A    between atoms: C_16  and  C_30
                            x       y       z     vdW  Elec       q    Type
                         _______ _______ _______ _____ _____    ______ ____

>  <TORSDO>
F 7

$$$$
=
 OpenBabel10272413543D

 30 32  0  0  1  0  0  0  0  0999 V2000
  186.8780  178.0880  144.5770 N   0  0  0  0  0  0  0  0  0  0  0  0
  184.7960  178.3870  145.8870 C   0  0  0  0  0  0  0  0  0  0  0  0
  184.9660  178.7920  140.9350 C   0  0  0  0  0  3  0  0  0  0  0  0
  187.6070  178.0140  143.4310 C   0  0  0  0  0  0  0  0  0  0  0  0
  185.6880  178.7130  139.7430 C   0  0  0  0  0  3  0  0  0  0  0  0
  183.5070  179.0020  145.7800 O   0  0  0  0  0  0  0  0  0  0  0  0
  185.5320  179.0210  146.8890 O   0  0  0  0  0  0  0  0  0  0  0  0
  185.5970  178.5620  142.1690 C   0  0  0  0  0  0  0  0  0  0  0  0
  182.8220  179.1470  144.5680 C   0  0  0  0  0  3  0  0  0  0  0  0
  185.5560  178.4070  144.5860 C   0  0  0  0  0  0  0  0  0  0  0  0
  186.9780  178.2490  142.1930 C   0  0  0  0  0  0  0  0  0  0  0  0
  187.0490  178.4040  139.7690 C   0  0  0  0  0  3  0  0  0  0  0  0
  187.6910  178.1730  140.9870 C   0  0  0  0  0  3  0  0  0  0  0  0
  183.4460  178.9720  143.4060 C   0  0  0  0  0  3  0  0  0  0  0  0
  184.8820  178.6390  143.3770 C   0  0  0  0  0  0  0  0  0  0  0  0
  189.0670  177.6430  143.4990 C   0  0  2  0  0  3  0  0  0  0  0  0
  188.6800  175.3390  143.0570 O   0  0  0  0  0  0  0  0  0  0  0  0
  189.4130  176.3370  142.8370 C   0  0  0  0  0  0  0  0  0  0  0  0
  190.4960  176.2090  141.9090 N   0  0  0  0  0  2  0  0  0  0  0  0
  191.5020  177.1200  141.8230 O   0  0  0  0  0  0  0  0  0  0  0  0
  190.7250  176.7700  139.6670 O   0  0  0  0  0  1  0  0  0  0  0  0
  191.6520  177.4530  140.4600 C   0  0  2  0  0  3  0  0  0  0  0  0
  193.0660  177.2330  139.9430 C   0  0  0  0  0  1  0  0  0  0  0  0
  189.6950  177.8170  144.8550 C   0  0  0  0  0  3  0  0  0  0  0  0
  190.1730  176.7900  145.5600 C   0  0  0  0  0  3  0  0  0  0  0  0
  190.7770  177.0060  146.9070 C   0  0  0  0  0  2  0  0  0  0  0  0
  189.9750  177.9540  147.6640 N   0  0  0  0  0  2  0  0  0  0  0  0
  188.1680  176.2970  148.0190 N   0  0  0  0  0  1  0  0  0  0  0  0
  188.7020  177.6050  148.2050 C   0  0  0  0  0  0  0  0  0  0  0  0
  188.0450  178.4600  148.8520 O   0  0  0  0  0  0  0  0  0  0  0  0
  1 10  1  0  0  0  0
  2  7  2  0  0  0  0
  3  8  1  0  0  0  0
  4 16  1  0  0  0  0
  4  1  2  0  0  0  0
  5 12  1  0  0  0  0
  5  3  2  0  0  0  0
  6  2  1  0  0  0  0
  8 11  2  0  0  0  0
  8 15  1  0  0  0  0
  9  6  1  0  0  0  0
 10  2  1  0  0  0  0
 11  4  1  0  0  0  0
 12 13  2  0  0  0  0
 13 11  1  0  0  0  0
 14  9  2  0  0  0  0
 15 14  1  0  0  0  0
 15 10  2  0  0  0  0
 16 24  1  1  0  0  0
 18 17  2  0  0  0  0
 18 16  1  0  0  0  0
 19 18  1  0  0  0  0
 20 19  1  0  0  0  0
 21 22  1  0  0  0  0
 22 23  1  6  0  0  0
 22 20  1  0  0  0  0
 24 25  2  0  0  0  0
 25 26  1  0  0  0  0
 26 27  1  0  0  0  0
 27 29  1  0  0  0  0
 28 29  1  0  0  0  0
 29 30  2  0  0  0  0
M  END
>  <MODEL>
7

>  <REMARK>
 VINA RESULT:      -8.3      2.562      5.619
  Name = 
  7 active torsions:
  status: ('A' for Active; 'I' for Inactive)
    1  A    between atoms: C_4  and  C_13
    2  A    between atoms: N_7  and  C_16
    3  A    between atoms: C_8  and  C_13
    4  A    between atoms: O_9  and  N_12
    5  A    between atoms: O_9  and  C_17
    6  A    between atoms: C_13  and  C_27
    7  A    between atoms: C_16  and  C_30
                            x       y       z     vdW  Elec       q    Type
                         _______ _______ _______ _____ _____    ______ ____

>  <TORSDO>
F 7

$$$$
=
 OpenBabel10272413543D

 30 32  0  0  1  0  0  0  0  0999 V2000
  188.0320  178.0320  141.4660 N   0  0  0  0  0  0  0  0  0  0  0  0
  185.9300  178.4250  140.2160 C   0  0  0  0  0  0  0  0  0  0  0  0
  190.2240  177.2570  138.0010 C   0  0  0  0  0  3  0  0  0  0  0  0
  189.3480  177.7060  141.5840 C   0  0  0  0  0  0  0  0  0  0  0  0
  191.5730  176.9100  138.0930 C   0  0  0  0  0  3  0  0  0  0  0  0
  185.4790  178.7790  138.9040 O   0  0  0  0  0  0  0  0  0  0  0  0
  185.6020  179.4440  141.1110 O   0  0  0  0  0  0  0  0  0  0  0  0
  189.4750  177.5260  139.1580 C   0  0  0  0  0  0  0  0  0  0  0  0
  186.1650  178.4300  137.7350 C   0  0  0  0  0  3  0  0  0  0  0  0
  187.4080  178.1410  140.2630 C   0  0  0  0  0  0  0  0  0  0  0  0
  190.1030  177.4410  140.4250 C   0  0  0  0  0  0  0  0  0  0  0  0
  192.1900  176.8280  139.3420 C   0  0  0  0  0  3  0  0  0  0  0  0
  191.4600  177.0920  140.5020 C   0  0  0  0  0  3  0  0  0  0  0  0
  187.4190  177.9890  137.7840 C   0  0  0  0  0  3  0  0  0  0  0  0
  188.1150  177.8770  139.0790 C   0  0  0  0  0  0  0  0  0  0  0  0
  189.9680  177.5930  142.9540 C   0  0  2  0  0  3  0  0  0  0  0  0
  190.1190  175.2410  142.6390 O   0  0  0  0  0  0  0  0  0  0  0  0
  190.5490  176.2410  143.2690 C   0  0  0  0  0  0  0  0  0  0  0  0
  191.6230  176.0640  144.1990 N   0  0  0  0  0  2  0  0  0  0  0  0
  191.9570  177.0040  145.1230 O   0  0  0  0  0  0  0  0  0  0  0  0
  192.3420  175.0150  146.2520 O   0  0  0  0  0  1  0  0  0  0  0  0
  191.9940  176.3630  146.3800 C   0  0  2  0  0  3  0  0  0  0  0  0
  190.6990  176.5120  147.1660 C   0  0  0  0  0  1  0  0  0  0  0  0
  189.1350  178.1660  144.0680 C   0  0  0  0  0  3  0  0  0  0  0  0
  188.4270  177.3990  144.9000 C   0  0  0  0  0  3  0  0  0  0  0  0
  187.6040  178.0100  145.9840 C   0  0  0  0  0  2  0  0  0  0  0  0
  186.2080  178.0600  145.5790 N   0  0  0  0  0  2  0  0  0  0  0  0
  185.6070  179.5370  147.4740 N   0  0  0  0  0  1  0  0  0  0  0  0
  185.2360  178.8070  146.3090 C   0  0  0  0  0  0  0  0  0  0  0  0
  184.0400  178.8190  145.9190 O   0  0  0  0  0  0  0  0  0  0  0  0
  1  4  1  0  0  0  0
  2 10  1  0  0  0  0
  2  7  2  0  0  0  0
  3  5  2  0  0  0  0
  3  8  1  0  0  0  0
  4 16  1  0  0  0  0
  5 12  1  0  0  0  0
  6  2  1  0  0  0  0
  8 11  1  0  0  0  0
  9 14  2  0  0  0  0
  9  6  1  0  0  0  0
 10  1  2  0  0  0  0
 11 13  1  0  0  0  0
 11  4  2  0  0  0  0
 12 13  2  0  0  0  0
 14 15  1  0  0  0  0
 15  8  2  0  0  0  0
 15 10  1  0  0  0  0
 16 18  1  0  0  0  0
 16 24  1  1  0  0  0
 17 18  2  0  0  0  0
 18 19  1  0  0  0  0
 19 20  1  0  0  0  0
 20 22  1  0  0  0  0
 21 22  1  0  0  0  0
 22 23  1  6  0  0  0
 24 25  2  0  0  0  0
 25 26  1  0  0  0  0
 27 26  1  0  0  0  0
 27 29  1  0  0  0  0
 29 28  1  0  0  0  0
 30 29  2  0  0  0  0
M  END
>  <MODEL>
8

>  <REMARK>
 VINA RESULT:      -8.2      2.038      5.931
  Name = 
  7 active torsions:
  status: ('A' for Active; 'I' for Inactive)
    1  A    between atoms: C_4  and  C_13
    2  A    between atoms: N_7  and  C_16
    3  A    between atoms: C_8  and  C_13
    4  A    between atoms: O_9  and  N_12
    5  A    between atoms: O_9  and  C_17
    6  A    between atoms: C_13  and  C_27
    7  A    between atoms: C_16  and  C_30
                            x       y       z     vdW  Elec       q    Type
                         _______ _______ _______ _____ _____    ______ ____

>  <TORSDO>
F 7

$$$$
=
 OpenBabel10272413543D

 30 32  0  0  1  0  0  0  0  0999 V2000
  189.5770  177.1000  144.0420 N   0  0  0  0  0  0  0  0  0  0  0  0
  190.3910  176.8380  146.3670 C   0  0  0  0  0  0  0  0  0  0  0  0
  185.7580  178.2570  145.2610 C   0  0  0  0  0  3  0  0  0  0  0  0
  188.6380  177.3610  143.0920 C   0  0  0  0  0  0  0  0  0  0  0  0
  184.7720  178.5210  144.3080 C   0  0  0  0  0  3  0  0  0  0  0  0
  190.0890  177.2780  147.6960 O   0  0  0  0  0  0  0  0  0  0  0  0
  191.6300  177.3520  145.9780 O   0  0  0  0  0  0  0  0  0  0  0  0
  187.0490  177.8710  144.8660 C   0  0  0  0  0  0  0  0  0  0  0  0
  188.7910  177.5700  148.1320 C   0  0  0  0  0  3  0  0  0  0  0  0
  189.3280  177.2260  145.3730 C   0  0  0  0  0  0  0  0  0  0  0  0
  187.3450  177.7530  143.4850 C   0  0  0  0  0  0  0  0  0  0  0  0
  185.0660  178.4040  142.9480 C   0  0  0  0  0  3  0  0  0  0  0  0
  186.3440  178.0220  142.5380 C   0  0  0  0  0  3  0  0  0  0  0  0
  187.7960  177.7220  147.2630 C   0  0  0  0  0  3  0  0  0  0  0  0
  188.0510  177.6030  145.8160 C   0  0  0  0  0  0  0  0  0  0  0  0
  188.9850  177.1890  141.6340 C   0  0  2  0  0  3  0  0  0  0  0  0
  191.1860  178.0050  142.0120 O   0  0  0  0  0  0  0  0  0  0  0  0
  190.4570  177.2380  141.3310 C   0  0  0  0  0  0  0  0  0  0  0  0
  191.0690  176.3930  140.3510 N   0  0  0  0  0  2  0  0  0  0  0  0
  190.3570  175.7570  139.3820 O   0  0  0  0  0  0  0  0  0  0  0  0
  191.4110  174.3840  137.8390 O   0  0  0  0  0  1  0  0  0  0  0  0
  191.1700  175.7050  138.2290 C   0  0  2  0  0  3  0  0  0  0  0  0
  192.4780  176.4670  138.3840 C   0  0  0  0  0  1  0  0  0  0  0  0
  188.1460  178.0060  140.6900 C   0  0  0  0  0  3  0  0  0  0  0  0
  188.1270  177.7850  139.3740 C   0  0  0  0  0  3  0  0  0  0  0  0
  187.2890  178.6280  138.4730 C   0  0  0  0  0  2  0  0  0  0  0  0
  186.0150  177.9720  138.2250 N   0  0  0  0  0  2  0  0  0  0  0  0
  184.7720  179.6720  139.5300 N   0  0  0  0  0  1  0  0  0  0  0  0
  184.7880  178.4850  138.7430 C   0  0  0  0  0  0  0  0  0  0  0  0
  183.7110  177.8820  138.5020 O   0  0  0  0  0  0  0  0  0  0  0  0
  1 10  1  0  0  0  0
  2  6  1  0  0  0  0
  4 11  1  0  0  0  0
  4  1  2  0  0  0  0
  5  3  2  0  0  0  0
  6  9  1  0  0  0  0
  7  2  2  0  0  0  0
  8  3  1  0  0  0  0
  8 15  1  0  0  0  0
 10 15  2  0  0  0  0
 10  2  1  0  0  0  0
 11  8  2  0  0  0  0
 12  5  1  0  0  0  0
 13 12  2  0  0  0  0
 13 11  1  0  0  0  0
 14  9  2  0  0  0  0
 15 14  1  0  0  0  0
 16 24  1  6  0  0  0
 16  4  1  0  0  0  0
 18 16  1  0  0  0  0
 18 17  2  0  0  0  0
 19 18  1  0  0  0  0
 20 19  1  0  0  0  0
 21 22  1  0  0  0  0
 22 23  1  1  0  0  0
 22 20  1  0  0  0  0
 25 24  2  0  0  0  0
 26 25  1  0  0  0  0
 27 26  1  0  0  0  0
 27 29  1  0  0  0  0
 29 28  1  0  0  0  0
 30 29  2  0  0  0  0
M  END
>  <MODEL>
9

>  <REMARK>
 VINA RESULT:      -8.2      2.177      5.170
  Name = 
  7 active torsions:
  status: ('A' for Active; 'I' for Inactive)
    1  A    between atoms: C_4  and  C_13
    2  A    between atoms: N_7  and  C_16
    3  A    between atoms: C_8  and  C_13
    4  A    between atoms: O_9  and  N_12
    5  A    between atoms: O_9  and  C_17
    6  A    between atoms: C_13  and  C_27
    7  A    between atoms: C_16  and  C_30
                            x       y       z     vdW  Elec       q    Type
                         _______ _______ _______ _____ _____    ______ ____

>  <TORSDO>
F 7

$$$$
