=
 OpenBabel10272401153D

 27 29  0  0  1  0  0  0  0  0999 V2000
  187.3770  178.1580  142.0030 C   0  0  2  0  0  3  0  0  0  0  0  0
  186.8640  178.3070  140.5630 C   0  0  0  0  0  2  0  0  0  0  0  0
  189.6820  178.1600  141.0060 C   0  0  2  0  0  3  0  0  0  0  0  0
  190.8220  177.8850  143.4000 N   0  0  0  0  0  0  0  0  0  0  0  0
  191.0040  176.3320  140.1730 O   0  0  0  0  0  1  0  0  0  0  0  0
  191.4540  177.6340  144.6870 C   0  0  0  0  0  1  0  0  0  0  0  0
  187.8850  177.7540  139.5470 C   0  0  2  0  0  3  0  0  0  0  0  0
  188.7570  177.5030  142.0490 C   0  0  1  0  0  3  0  0  0  0  0  0
  189.1440  178.3830  139.7070 O   0  0  0  0  0  0  0  0  0  0  0  0
  191.5180  177.0880  142.3840 C   0  0  0  0  0  2  0  0  0  0  0  0
  189.2070  176.2570  144.0370 O   0  0  0  0  0  1  0  0  0  0  0  0
  189.3900  177.5160  143.4510 C   0  0  1  0  0  3  0  0  0  0  0  0
  191.0530  177.4760  140.9710 C   0  0  2  0  0  3  0  0  0  0  0  0
  187.5650  176.4370  137.4350 C   0  0  0  0  0  1  0  0  0  0  0  0
  187.4030  177.8130  138.0780 C   0  0  2  0  0  0  0  0  0  0  0  0
  189.0070  178.1420  136.2850 O   0  0  0  0  0  1  0  0  0  0  0  0
  187.5430  179.8300  136.7260 O   0  0  0  0  0  1  0  0  0  0  0  0
  188.2920  178.7980  137.2930 C   0  0  0  0  0  3  0  0  0  0  0  0
  185.1560  177.3220  137.2950 O   0  0  0  0  0  1  0  0  0  0  0  0
  185.9360  178.2590  137.9780 C   0  0  0  0  0  2  0  0  0  0  0  0
  186.4300  177.4640  142.8210 O   0  0  0  0  0  0  0  0  0  0  0  0
  184.1710  179.1910  145.8760 N   0  0  0  0  0  0  0  0  0  0  0  0
  185.6500  178.0520  143.8310 C   0  0  0  0  0  0  0  0  0  0  0  0
  186.1540  178.0850  145.1330 C   0  0  0  0  0  3  0  0  0  0  0  0
  185.3940  178.6630  146.1520 C   0  0  0  0  0  3  0  0  0  0  0  0
  183.6560  179.1710  144.6180 C   0  0  0  0  0  3  0  0  0  0  0  0
  184.3860  178.6020  143.5720 C   0  0  0  0  0  3  0  0  0  0  0  0
  1  8  1  0  0  0  0
  1 21  1  1  0  0  0
  2  1  1  0  0  0  0
  3  9  1  6  0  0  0
  3  8  1  0  0  0  0
  4 12  1  0  0  0  0
  4  6  1  0  0  0  0
  5 13  1  0  0  0  0
  7 15  1  6  0  0  0
  7  9  1  0  0  0  0
  7  2  1  0  0  0  0
  8 12  1  0  0  0  0
 10  4  1  0  0  0  0
 12 11  1  0  0  0  0
 13  3  1  0  0  0  0
 13 10  1  0  0  0  0
 14 15  1  0  0  0  0
 16 18  1  0  0  0  0
 17 18  1  0  0  0  0
 18 15  1  0  0  0  0
 19 20  1  0  0  0  0
 20 15  1  0  0  0  0
 21 23  1  0  0  0  0
 22 25  1  0  0  0  0
 23 24  1  0  0  0  0
 24 25  2  0  0  0  0
 26 22  2  0  0  0  0
 27 23  2  0  0  0  0
 27 26  1  0  0  0  0
M  END
>  <MODEL>
1

>  <REMARK>
 VINA RESULT:      -7.4      0.000      0.000
  Name = 
  5 active torsions:
  status: ('A' for Active; 'I' for Inactive)
    1  A    between atoms: C_1  and  O_15
    2  A    between atoms: C_9  and  O_15
    3  A    between atoms: C_14  and  C_17
    4  A    between atoms: C_16  and  C_17
    5  A    between atoms: C_17  and  C_21
                            x       y       z     vdW  Elec       q    Type
                         _______ _______ _______ _____ _____    ______ ____

>  <TORSDO>
F 5

$$$$
=
 OpenBabel10272401153D

 27 29  0  0  1  0  0  0  0  0999 V2000
  187.3460  178.1740  141.9510 C   0  0  2  0  0  3  0  0  0  0  0  0
  186.8360  178.3150  140.5090 C   0  0  0  0  0  2  0  0  0  0  0  0
  189.6530  178.1610  140.9580 C   0  0  2  0  0  3  0  0  0  0  0  0
  190.7880  177.8970  143.3550 N   0  0  0  0  0  0  0  0  0  0  0  0
  190.9690  176.3220  140.1390 O   0  0  0  0  0  1  0  0  0  0  0  0
  191.4170  177.6530  144.6440 C   0  0  0  0  0  1  0  0  0  0  0  0
  187.8560  177.7520  139.4990 C   0  0  2  0  0  3  0  0  0  0  0  0
  188.7230  177.5140  142.0040 C   0  0  1  0  0  3  0  0  0  0  0  0
  189.1170  178.3770  139.6560 O   0  0  0  0  0  0  0  0  0  0  0  0
  191.4820  177.0910  142.3460 C   0  0  0  0  0  2  0  0  0  0  0  0
  189.1650  176.2800  144.0000 O   0  0  0  0  0  1  0  0  0  0  0  0
  189.3540  177.5340  143.4060 C   0  0  1  0  0  3  0  0  0  0  0  0
  191.0210  177.4720  140.9290 C   0  0  2  0  0  3  0  0  0  0  0  0
  185.9200  178.2640  137.9850 C   0  0  0  0  0  1  0  0  0  0  0  0
  187.3770  177.8030  138.0280 C   0  0  2  0  0  0  0  0  0  0  0  0
  186.9880  176.3790  136.1010 O   0  0  0  0  0  1  0  0  0  0  0  0
  188.7200  175.8500  137.4830 O   0  0  0  0  0  1  0  0  0  0  0  0
  187.4310  176.3840  137.4280 C   0  0  0  0  0  3  0  0  0  0  0  0
  187.5090  179.8460  136.7180 O   0  0  0  0  0  1  0  0  0  0  0  0
  188.2420  178.7500  137.1810 C   0  0  0  0  0  2  0  0  0  0  0  0
  186.3950  177.4890  142.7720 O   0  0  0  0  0  0  0  0  0  0  0  0
  184.2180  179.2230  145.8810 N   0  0  0  0  0  0  0  0  0  0  0  0
  185.6420  178.0780  143.8000 C   0  0  0  0  0  0  0  0  0  0  0  0
  186.1940  178.1460  145.0820 C   0  0  0  0  0  3  0  0  0  0  0  0
  185.4620  178.7260  146.1200 C   0  0  0  0  0  3  0  0  0  0  0  0
  183.6560  179.1700  144.6450 C   0  0  0  0  0  3  0  0  0  0  0  0
  184.3580  178.5970  143.5820 C   0  0  0  0  0  3  0  0  0  0  0  0
  1  8  1  0  0  0  0
  1 21  1  1  0  0  0
  2  1  1  0  0  0  0
  3  9  1  6  0  0  0
  3  8  1  0  0  0  0
  4 12  1  0  0  0  0
  4  6  1  0  0  0  0
  5 13  1  0  0  0  0
  7 15  1  6  0  0  0
  7  9  1  0  0  0  0
  7  2  1  0  0  0  0
  8 12  1  0  0  0  0
 10  4  1  0  0  0  0
 12 11  1  0  0  0  0
 13  3  1  0  0  0  0
 13 10  1  0  0  0  0
 14 15  1  0  0  0  0
 16 18  1  0  0  0  0
 18 17  1  0  0  0  0
 18 15  1  0  0  0  0
 19 20  1  0  0  0  0
 20 15  1  0  0  0  0
 21 23  1  0  0  0  0
 22 25  1  0  0  0  0
 23 24  1  0  0  0  0
 24 25  2  0  0  0  0
 26 22  2  0  0  0  0
 27 23  2  0  0  0  0
 27 26  1  0  0  0  0
M  END
>  <MODEL>
2

>  <REMARK>
 VINA RESULT:      -7.3      0.682      1.446
  Name = 
  5 active torsions:
  status: ('A' for Active; 'I' for Inactive)
    1  A    between atoms: C_1  and  O_15
    2  A    between atoms: C_9  and  O_15
    3  A    between atoms: C_14  and  C_17
    4  A    between atoms: C_16  and  C_17
    5  A    between atoms: C_17  and  C_21
                            x       y       z     vdW  Elec       q    Type
                         _______ _______ _______ _____ _____    ______ ____

>  <TORSDO>
F 5

$$$$
=
 OpenBabel10272401153D

 27 29  0  0  1  0  0  0  0  0999 V2000
  188.7140  177.3710  143.2570 C   0  0  2  0  0  3  0  0  0  0  0  0
  187.2430  177.7850  143.0990 C   0  0  0  0  0  2  0  0  0  0  0  0
  188.1780  177.0080  145.6840 C   0  0  2  0  0  3  0  0  0  0  0  0
  190.6810  176.2650  146.2250 N   0  0  0  0  0  0  0  0  0  0  0  0
  188.2450  178.5530  147.5270 O   0  0  0  0  0  1  0  0  0  0  0  0
  192.0640  175.9550  146.5550 C   0  0  0  0  0  1  0  0  0  0  0  0
  186.6610  178.2950  144.4340 C   0  0  2  0  0  3  0  0  0  0  0  0
  189.2100  177.5740  144.6880 C   0  0  1  0  0  3  0  0  0  0  0  0
  186.8090  177.3210  145.4520 O   0  0  0  0  0  0  0  0  0  0  0  0
  190.1260  177.0900  147.3030 C   0  0  0  0  0  2  0  0  0  0  0  0
  191.5470  178.0290  144.8820 O   0  0  0  0  0  1  0  0  0  0  0  0
  190.6110  176.9890  144.9360 C   0  0  1  0  0  3  0  0  0  0  0  0
  188.6070  177.2630  147.1340 C   0  0  2  0  0  3  0  0  0  0  0  0
  185.1900  180.2870  144.0230 C   0  0  0  0  0  1  0  0  0  0  0  0
  185.1980  178.7910  144.3310 C   0  0  2  0  0  0  0  0  0  0  0  0
  185.1570  179.3030  146.7040 O   0  0  0  0  0  1  0  0  0  0  0  0
  183.1630  178.9920  145.6480 O   0  0  0  0  0  1  0  0  0  0  0  0
  184.5010  178.5950  145.6920 C   0  0  0  0  0  3  0  0  0  0  0  0
  183.9650  178.8980  142.2400 O   0  0  0  0  0  1  0  0  0  0  0  0
  184.4170  178.0370  143.2430 C   0  0  0  0  0  2  0  0  0  0  0  0
  189.5460  178.0400  142.3050 O   0  0  0  0  0  0  0  0  0  0  0  0
  189.8730  177.0280  138.2700 N   0  0  0  0  0  0  0  0  0  0  0  0
  189.6350  177.7160  140.9420 C   0  0  0  0  0  0  0  0  0  0  0  0
  190.5760  176.7670  140.5380 C   0  0  0  0  0  3  0  0  0  0  0  0
  190.6830  176.4320  139.1860 C   0  0  0  0  0  3  0  0  0  0  0  0
  188.9490  177.9560  138.6350 C   0  0  0  0  0  3  0  0  0  0  0  0
  188.8120  178.3170  139.9770 C   0  0  0  0  0  3  0  0  0  0  0  0
  1 21  1  6  0  0  0
  1  8  1  0  0  0  0
  2  1  1  0  0  0  0
  2  7  1  0  0  0  0
  3  9  1  6  0  0  0
  3 13  1  0  0  0  0
  4  6  1  0  0  0  0
  4 10  1  0  0  0  0
  7 15  1  6  0  0  0
  7  9  1  0  0  0  0
  8 12  1  0  0  0  0
  8  3  1  0  0  0  0
 11 12  1  0  0  0  0
 12  4  1  0  0  0  0
 13 10  1  0  0  0  0
 13  5  1  0  0  0  0
 14 15  1  0  0  0  0
 15 18  1  0  0  0  0
 17 18  1  0  0  0  0
 18 16  1  0  0  0  0
 19 20  1  0  0  0  0
 20 15  1  0  0  0  0
 22 26  2  0  0  0  0
 22 25  1  0  0  0  0
 23 21  1  0  0  0  0
 24 23  1  0  0  0  0
 25 24  2  0  0  0  0
 26 27  1  0  0  0  0
 27 23  2  0  0  0  0
M  END
>  <MODEL>
3

>  <REMARK>
 VINA RESULT:      -7.3      2.962      6.394
  Name = 
  5 active torsions:
  status: ('A' for Active; 'I' for Inactive)
    1  A    between atoms: C_1  and  O_15
    2  A    between atoms: C_9  and  O_15
    3  A    between atoms: C_14  and  C_17
    4  A    between atoms: C_16  and  C_17
    5  A    between atoms: C_17  and  C_21
                            x       y       z     vdW  Elec       q    Type
                         _______ _______ _______ _____ _____    ______ ____

>  <TORSDO>
F 5

$$$$
=
 OpenBabel10272401153D

 27 29  0  0  1  0  0  0  0  0999 V2000
  187.9500  177.6770  141.6380 C   0  0  2  0  0  3  0  0  0  0  0  0
  188.5480  177.4860  143.0390 C   0  0  0  0  0  2  0  0  0  0  0  0
  190.0440  176.5900  140.7760 C   0  0  2  0  0  3  0  0  0  0  0  0
  189.2370  176.8210  138.2460 N   0  0  0  0  0  0  0  0  0  0  0  0
  192.1600  177.5700  140.1850 O   0  0  0  0  0  1  0  0  0  0  0  0
  188.8580  177.0290  136.8570 C   0  0  0  0  0  1  0  0  0  0  0  0
  190.0880  177.4010  142.9820 C   0  0  2  0  0  3  0  0  0  0  0  0
  189.0330  177.7340  140.5610 C   0  0  1  0  0  3  0  0  0  0  0  0
  190.5010  176.3680  142.1060 O   0  0  0  0  0  0  0  0  0  0  0  0
  190.6750  177.0840  138.3730 C   0  0  0  0  0  2  0  0  0  0  0  0
  188.4680  179.0380  138.6410 O   0  0  0  0  0  1  0  0  0  0  0  0
  188.4700  177.7250  139.1300 C   0  0  1  0  0  3  0  0  0  0  0  0
  191.1890  176.6620  139.7600 C   0  0  2  0  0  3  0  0  0  0  0  0
  191.6000  175.9970  144.4100 C   0  0  0  0  0  1  0  0  0  0  0  0
  190.7610  177.2730  144.3690 C   0  0  2  0  0  0  0  0  0  0  0  0
  190.1330  176.4140  146.5510 O   0  0  0  0  0  1  0  0  0  0  0  0
  189.2250  178.3950  145.8860 O   0  0  0  0  0  1  0  0  0  0  0  0
  189.6700  177.1440  145.4510 C   0  0  0  0  0  3  0  0  0  0  0  0
  191.4230  179.5400  143.7950 O   0  0  0  0  0  1  0  0  0  0  0  0
  191.6520  178.4850  144.6830 C   0  0  0  0  0  2  0  0  0  0  0  0
  187.0920  178.8220  141.5920 O   0  0  0  0  0  0  0  0  0  0  0  0
  182.9250  178.7260  141.7860 N   0  0  0  0  0  0  0  0  0  0  0  0
  185.6920  178.7870  141.6850 C   0  0  0  0  0  0  0  0  0  0  0  0
  184.9410  178.8320  140.5080 C   0  0  0  0  0  3  0  0  0  0  0  0
  183.5460  178.8000  140.5780 C   0  0  0  0  0  3  0  0  0  0  0  0
  183.6320  178.6830  142.9470 C   0  0  0  0  0  3  0  0  0  0  0  0
  185.0280  178.7120  142.9180 C   0  0  0  0  0  3  0  0  0  0  0  0
  1 21  1  1  0  0  0
  1  2  1  0  0  0  0
  3  9  1  1  0  0  0
  4 10  1  0  0  0  0
  4 12  1  0  0  0  0
  6  4  1  0  0  0  0
  7  2  1  0  0  0  0
  7 15  1  1  0  0  0
  8  3  1  0  0  0  0
  8  1  1  0  0  0  0
  9  7  1  0  0  0  0
 10 13  1  0  0  0  0
 11 12  1  0  0  0  0
 12  8  1  0  0  0  0
 13  5  1  0  0  0  0
 13  3  1  0  0  0  0
 15 14  1  0  0  0  0
 15 20  1  0  0  0  0
 15 18  1  0  0  0  0
 18 17  1  0  0  0  0
 18 16  1  0  0  0  0
 19 20  1  0  0  0  0
 21 23  1  0  0  0  0
 22 26  1  0  0  0  0
 23 27  1  0  0  0  0
 24 25  1  0  0  0  0
 24 23  2  0  0  0  0
 25 22  2  0  0  0  0
 27 26  2  0  0  0  0
M  END
>  <MODEL>
4

>  <REMARK>
 VINA RESULT:      -7.2      2.280      5.645
  Name = 
  5 active torsions:
  status: ('A' for Active; 'I' for Inactive)
    1  A    between atoms: C_1  and  O_15
    2  A    between atoms: C_9  and  O_15
    3  A    between atoms: C_14  and  C_17
    4  A    between atoms: C_16  and  C_17
    5  A    between atoms: C_17  and  C_21
                            x       y       z     vdW  Elec       q    Type
                         _______ _______ _______ _____ _____    ______ ____

>  <TORSDO>
F 5

$$$$
=
 OpenBabel10272401153D

 27 29  0  0  1  0  0  0  0  0999 V2000
  187.2010  177.6310  144.1170 C   0  0  2  0  0  3  0  0  0  0  0  0
  187.5350  177.3630  145.5920 C   0  0  0  0  0  2  0  0  0  0  0  0
  189.4440  176.6280  143.5980 C   0  0  2  0  0  3  0  0  0  0  0  0
  189.1130  177.0010  140.9800 N   0  0  0  0  0  0  0  0  0  0  0  0
  191.6070  177.6730  143.4680 O   0  0  0  0  0  1  0  0  0  0  0  0
  188.9910  177.2890  139.5590 C   0  0  0  0  0  1  0  0  0  0  0  0
  189.0600  177.3040  145.8170 C   0  0  2  0  0  3  0  0  0  0  0  0
  188.4620  177.7690  143.2650 C   0  0  1  0  0  3  0  0  0  0  0  0
  189.6540  176.3320  144.9750 O   0  0  0  0  0  0  0  0  0  0  0  0
  190.4960  177.2770  141.3860 C   0  0  0  0  0  2  0  0  0  0  0  0
  188.2280  179.1790  141.3520 O   0  0  0  0  0  1  0  0  0  0  0  0
  188.1730  177.8390  141.7560 C   0  0  1  0  0  3  0  0  0  0  0  0
  190.7550  176.7780  142.8180 C   0  0  2  0  0  3  0  0  0  0  0  0
  188.7780  175.8540  147.8460 C   0  0  0  0  0  1  0  0  0  0  0  0
  189.4690  177.1010  147.2960 C   0  0  2  0  0  0  0  0  0  0  0  0
  187.8570  177.9720  148.8880 O   0  0  0  0  0  1  0  0  0  0  0  0
  189.9820  178.7880  148.9710 O   0  0  0  0  0  1  0  0  0  0  0  0
  188.9810  178.3050  148.1250 C   0  0  0  0  0  3  0  0  0  0  0  0
  191.3740  175.6190  147.5740 O   0  0  0  0  0  1  0  0  0  0  0  0
  190.9910  176.9570  147.4500 C   0  0  0  0  0  2  0  0  0  0  0  0
  186.3380  178.7640  143.9790 O   0  0  0  0  0  0  0  0  0  0  0  0
  182.3490  178.6320  142.7600 N   0  0  0  0  0  0  0  0  0  0  0  0
  185.0040  178.7160  143.5430 C   0  0  0  0  0  0  0  0  0  0  0  0
  183.9860  178.9350  144.4740 C   0  0  0  0  0  3  0  0  0  0  0  0
  182.6520  178.8890  144.0620 C   0  0  0  0  0  3  0  0  0  0  0  0
  183.3190  178.4140  141.8340 C   0  0  0  0  0  3  0  0  0  0  0  0
  184.6640  178.4520  142.2080 C   0  0  0  0  0  3  0  0  0  0  0  0
  1 21  1  1  0  0  0
  1  2  1  0  0  0  0
  2  7  1  0  0  0  0
  3  9  1  1  0  0  0
  4 10  1  0  0  0  0
  4 12  1  0  0  0  0
  6  4  1  0  0  0  0
  7 15  1  1  0  0  0
  8  3  1  0  0  0  0
  8  1  1  0  0  0  0
  9  7  1  0  0  0  0
 10 13  1  0  0  0  0
 11 12  1  0  0  0  0
 12  8  1  0  0  0  0
 13  5  1  0  0  0  0
 13  3  1  0  0  0  0
 15 20  1  0  0  0  0
 15 14  1  0  0  0  0
 15 18  1  0  0  0  0
 18 16  1  0  0  0  0
 18 17  1  0  0  0  0
 20 19  1  0  0  0  0
 22 25  1  0  0  0  0
 23 21  1  0  0  0  0
 23 24  1  0  0  0  0
 25 24  2  0  0  0  0
 26 27  1  0  0  0  0
 26 22  2  0  0  0  0
 27 23  2  0  0  0  0
M  END
>  <MODEL>
5

>  <REMARK>
 VINA RESULT:      -7.0      2.694      6.505
  Name = 
  5 active torsions:
  status: ('A' for Active; 'I' for Inactive)
    1  A    between atoms: C_1  and  O_15
    2  A    between atoms: C_9  and  O_15
    3  A    between atoms: C_14  and  C_17
    4  A    between atoms: C_16  and  C_17
    5  A    between atoms: C_17  and  C_21
                            x       y       z     vdW  Elec       q    Type
                         _______ _______ _______ _____ _____    ______ ____

>  <TORSDO>
F 5

$$$$
=
 OpenBabel10272401153D

 27 29  0  0  1  0  0  0  0  0999 V2000
  187.0360  178.0740  142.9470 C   0  0  2  0  0  3  0  0  0  0  0  0
  185.6410  178.4270  142.4090 C   0  0  0  0  0  2  0  0  0  0  0  0
  187.8460  178.4120  140.5930 C   0  0  2  0  0  3  0  0  0  0  0  0
  190.3560  177.8190  141.2700 N   0  0  0  0  0  0  0  0  0  0  0  0
  187.9760  176.8510  138.7680 O   0  0  0  0  0  1  0  0  0  0  0  0
  191.7090  177.4020  141.6020 C   0  0  0  0  0  1  0  0  0  0  0  0
  185.5330  178.1280  140.8990 C   0  0  2  0  0  3  0  0  0  0  0  0
  187.9440  177.5220  141.8490 C   0  0  1  0  0  3  0  0  0  0  0  0
  186.5440  178.8110  140.1790 O   0  0  0  0  0  0  0  0  0  0  0  0
  190.0110  177.2580  139.9600 C   0  0  0  0  0  2  0  0  0  0  0  0
  189.6170  175.9950  142.6080 O   0  0  0  0  0  1  0  0  0  0  0  0
  189.4040  177.3440  142.2990 C   0  0  1  0  0  3  0  0  0  0  0  0
  188.6860  177.8440  139.4440 C   0  0  2  0  0  3  0  0  0  0  0  0
  183.4200  177.0700  140.0530 C   0  0  0  0  0  1  0  0  0  0  0  0
  184.1300  178.4000  140.3050 C   0  0  2  0  0  0  0  0  0  0  0  0
  183.3770  178.6040  138.0060 O   0  0  0  0  0  1  0  0  0  0  0  0
  184.1120  180.4870  139.0560 O   0  0  0  0  0  1  0  0  0  0  0  0
  184.2860  179.1060  138.9430 C   0  0  0  0  0  3  0  0  0  0  0  0
  182.0700  178.6490  141.5680 O   0  0  0  0  0  1  0  0  0  0  0  0
  183.2760  179.2720  141.2380 C   0  0  0  0  0  2  0  0  0  0  0  0
  186.9510  177.1850  144.0650 O   0  0  0  0  0  0  0  0  0  0  0  0
  187.8080  178.2000  148.0210 N   0  0  0  0  0  0  0  0  0  0  0  0
  187.2140  177.5370  145.3980 C   0  0  0  0  0  0  0  0  0  0  0  0
  188.4870  177.2920  145.9180 C   0  0  0  0  0  3  0  0  0  0  0  0
  188.7690  177.6320  147.2430 C   0  0  0  0  0  3  0  0  0  0  0  0
  186.5600  178.4490  147.5410 C   0  0  0  0  0  3  0  0  0  0  0  0
  186.2410  178.1230  146.2220 C   0  0  0  0  0  3  0  0  0  0  0  0
  1 21  1  1  0  0  0
  2  1  1  0  0  0  0
  3  9  1  6  0  0  0
  3  8  1  0  0  0  0
  4  6  1  0  0  0  0
  4 12  1  0  0  0  0
  5 13  1  0  0  0  0
  7 15  1  6  0  0  0
  7  2  1  0  0  0  0
  8 12  1  0  0  0  0
  8  1  1  0  0  0  0
  9  7  1  0  0  0  0
 10  4  1  0  0  0  0
 12 11  1  0  0  0  0
 13 10  1  0  0  0  0
 13  3  1  0  0  0  0
 14 15  1  0  0  0  0
 15 20  1  0  0  0  0
 16 18  1  0  0  0  0
 18 17  1  0  0  0  0
 18 15  1  0  0  0  0
 20 19  1  0  0  0  0
 21 23  1  0  0  0  0
 23 24  2  0  0  0  0
 23 27  1  0  0  0  0
 24 25  1  0  0  0  0
 25 22  2  0  0  0  0
 26 22  1  0  0  0  0
 27 26  2  0  0  0  0
M  END
>  <MODEL>
6

>  <REMARK>
 VINA RESULT:      -7.0      2.332      3.361
  Name = 
  5 active torsions:
  status: ('A' for Active; 'I' for Inactive)
    1  A    between atoms: C_1  and  O_15
    2  A    between atoms: C_9  and  O_15
    3  A    between atoms: C_14  and  C_17
    4  A    between atoms: C_16  and  C_17
    5  A    between atoms: C_17  and  C_21
                            x       y       z     vdW  Elec       q    Type
                         _______ _______ _______ _____ _____    ______ ____

>  <TORSDO>
F 5

$$$$
=
 OpenBabel10272401153D

 27 29  0  0  1  0  0  0  0  0999 V2000
  187.7950  177.0410  143.4390 C   0  0  2  0  0  3  0  0  0  0  0  0
  188.0260  176.8990  144.9500 C   0  0  0  0  0  2  0  0  0  0  0  0
  190.2770  176.7450  143.1980 C   0  0  2  0  0  3  0  0  0  0  0  0
  190.1440  176.9760  140.5450 N   0  0  0  0  0  0  0  0  0  0  0  0
  192.0380  178.3830  143.2460 O   0  0  0  0  0  1  0  0  0  0  0  0
  190.1010  177.2000  139.1080 C   0  0  0  0  0  1  0  0  0  0  0  0
  189.4670  177.2980  145.3340 C   0  0  2  0  0  3  0  0  0  0  0  0
  189.0460  177.5390  142.7170 C   0  0  1  0  0  3  0  0  0  0  0  0
  190.4100  176.5380  144.6000 O   0  0  0  0  0  0  0  0  0  0  0  0
  191.3300  177.6530  141.0800 C   0  0  0  0  0  2  0  0  0  0  0  0
  188.6220  178.7960  140.7310 O   0  0  0  0  0  1  0  0  0  0  0  0
  188.9180  177.5050  141.1840 C   0  0  1  0  0  3  0  0  0  0  0  0
  191.5640  177.2690  142.5510 C   0  0  2  0  0  3  0  0  0  0  0  0
  189.8510  178.6620  147.4050 C   0  0  0  0  0  1  0  0  0  0  0  0
  189.7500  177.2410  146.8540 C   0  0  2  0  0  0  0  0  0  0  0  0
  191.8950  177.2840  147.9910 O   0  0  0  0  0  1  0  0  0  0  0  0
  190.9570  175.2520  147.5650 O   0  0  0  0  0  1  0  0  0  0  0  0
  191.1110  176.5560  147.0900 C   0  0  0  0  0  3  0  0  0  0  0  0
  187.9100  177.3140  148.4390 O   0  0  0  0  0  1  0  0  0  0  0  0
  188.6530  176.4720  147.6080 C   0  0  0  0  0  2  0  0  0  0  0  0
  186.6570  177.8650  143.1640 O   0  0  0  0  0  0  0  0  0  0  0  0
  183.7330  178.8330  145.9790 N   0  0  0  0  0  0  0  0  0  0  0  0
  185.6550  178.1940  144.0900 C   0  0  0  0  0  0  0  0  0  0  0  0
  185.9850  178.2390  145.4470 C   0  0  0  0  0  3  0  0  0  0  0  0
  185.0020  178.5620  146.3860 C   0  0  0  0  0  3  0  0  0  0  0  0
  183.3840  178.7960  144.6650 C   0  0  0  0  0  3  0  0  0  0  0  0
  184.3390  178.4760  143.6970 C   0  0  0  0  0  3  0  0  0  0  0  0
  1 21  1  1  0  0  0
  1  2  1  0  0  0  0
  2  7  1  0  0  0  0
  3  9  1  1  0  0  0
  4 10  1  0  0  0  0
  4 12  1  0  0  0  0
  6  4  1  0  0  0  0
  7 15  1  1  0  0  0
  8  3  1  0  0  0  0
  8  1  1  0  0  0  0
  9  7  1  0  0  0  0
 10 13  1  0  0  0  0
 11 12  1  0  0  0  0
 12  8  1  0  0  0  0
 13  3  1  0  0  0  0
 13  5  1  0  0  0  0
 15 18  1  0  0  0  0
 15 14  1  0  0  0  0
 15 20  1  0  0  0  0
 18 17  1  0  0  0  0
 18 16  1  0  0  0  0
 20 19  1  0  0  0  0
 21 23  1  0  0  0  0
 22 25  1  0  0  0  0
 23 24  1  0  0  0  0
 24 25  2  0  0  0  0
 26 22  2  0  0  0  0
 27 23  2  0  0  0  0
 27 26  1  0  0  0  0
M  END
>  <MODEL>
7

>  <REMARK>
 VINA RESULT:      -6.8      2.416      6.141
  Name = 
  5 active torsions:
  status: ('A' for Active; 'I' for Inactive)
    1  A    between atoms: C_1  and  O_15
    2  A    between atoms: C_9  and  O_15
    3  A    between atoms: C_14  and  C_17
    4  A    between atoms: C_16  and  C_17
    5  A    between atoms: C_17  and  C_21
                            x       y       z     vdW  Elec       q    Type
                         _______ _______ _______ _____ _____    ______ ____

>  <TORSDO>
F 5

$$$$
=
 OpenBabel10272401153D

 27 29  0  0  1  0  0  0  0  0999 V2000
  187.5830  177.7950  141.2170 C   0  0  2  0  0  3  0  0  0  0  0  0
  188.1210  177.6960  142.6520 C   0  0  0  0  0  2  0  0  0  0  0  0
  189.7050  176.6470  140.5190 C   0  0  2  0  0  3  0  0  0  0  0  0
  189.0070  176.7100  137.9470 N   0  0  0  0  0  0  0  0  0  0  0  0
  191.8490  177.5780  139.9540 O   0  0  0  0  0  1  0  0  0  0  0  0
  188.6860  176.8270  136.5330 C   0  0  0  0  0  1  0  0  0  0  0  0
  189.6610  177.6030  142.6660 C   0  0  2  0  0  3  0  0  0  0  0  0
  188.7110  177.7770  140.1860 C   0  0  1  0  0  3  0  0  0  0  0  0
  190.1050  176.5120  141.8790 O   0  0  0  0  0  0  0  0  0  0  0  0
  190.4390  176.9770  138.1170 C   0  0  0  0  0  2  0  0  0  0  0  0
  188.2340  178.9510  138.1610 O   0  0  0  0  0  1  0  0  0  0  0  0
  188.2080  177.6740  138.7360 C   0  0  1  0  0  3  0  0  0  0  0  0
  190.8920  176.6470  139.5490 C   0  0  2  0  0  3  0  0  0  0  0  0
  189.2100  177.9540  145.1100 C   0  0  0  0  0  1  0  0  0  0  0  0
  190.2750  177.5660  144.0860 C   0  0  2  0  0  0  0  0  0  0  0  0
  192.3560  178.4160  143.1680 O   0  0  0  0  0  1  0  0  0  0  0  0
  190.9120  179.9140  144.0950 O   0  0  0  0  0  1  0  0  0  0  0  0
  191.4060  178.6100  144.1760 C   0  0  0  0  0  3  0  0  0  0  0  0
  191.6880  176.2180  145.5330 O   0  0  0  0  0  1  0  0  0  0  0  0
  190.8350  176.1760  144.4270 C   0  0  0  0  0  2  0  0  0  0  0  0
  186.7350  178.9380  141.0600 O   0  0  0  0  0  0  0  0  0  0  0  0
  182.5760  178.7870  140.7690 N   0  0  0  0  0  0  0  0  0  0  0  0
  185.3380  178.8950  140.9350 C   0  0  0  0  0  0  0  0  0  0  0  0
  184.5740  178.5710  142.0590 C   0  0  0  0  0  3  0  0  0  0  0  0
  183.1820  178.5210  141.9570 C   0  0  0  0  0  3  0  0  0  0  0  0
  183.2940  179.1040  139.6590 C   0  0  0  0  0  3  0  0  0  0  0  0
  184.6880  179.1640  139.7220 C   0  0  0  0  0  3  0  0  0  0  0  0
  1 21  1  1  0  0  0
  1  2  1  0  0  0  0
  2  7  1  0  0  0  0
  3  9  1  1  0  0  0
  4 10  1  0  0  0  0
  4 12  1  0  0  0  0
  6  4  1  0  0  0  0
  7 15  1  1  0  0  0
  8  3  1  0  0  0  0
  8  1  1  0  0  0  0
  9  7  1  0  0  0  0
 10 13  1  0  0  0  0
 11 12  1  0  0  0  0
 12  8  1  0  0  0  0
 13  5  1  0  0  0  0
 13  3  1  0  0  0  0
 15 18  1  0  0  0  0
 15 20  1  0  0  0  0
 15 14  1  0  0  0  0
 16 18  1  0  0  0  0
 17 18  1  0  0  0  0
 20 19  1  0  0  0  0
 22 25  1  0  0  0  0
 23 21  1  0  0  0  0
 23 24  1  0  0  0  0
 25 24  2  0  0  0  0
 26 27  1  0  0  0  0
 26 22  2  0  0  0  0
 27 23  2  0  0  0  0
M  END
>  <MODEL>
8

>  <REMARK>
 VINA RESULT:      -6.8      2.517      5.527
  Name = 
  5 active torsions:
  status: ('A' for Active; 'I' for Inactive)
    1  A    between atoms: C_1  and  O_15
    2  A    between atoms: C_9  and  O_15
    3  A    between atoms: C_14  and  C_17
    4  A    between atoms: C_16  and  C_17
    5  A    between atoms: C_17  and  C_21
                            x       y       z     vdW  Elec       q    Type
                         _______ _______ _______ _____ _____    ______ ____

>  <TORSDO>
F 5

$$$$
=
 OpenBabel10272401153D

 27 29  0  0  1  0  0  0  0  0999 V2000
  190.4180  177.0260  139.9460 C   0  0  2  0  0  3  0  0  0  0  0  0
  190.9280  177.1110  141.3930 C   0  0  0  0  0  2  0  0  0  0  0  0
  188.5260  178.4950  140.7010 C   0  0  2  0  0  3  0  0  0  0  0  0
  187.4270  178.4910  138.2730 N   0  0  0  0  0  0  0  0  0  0  0  0
  186.4010  177.9020  141.6580 O   0  0  0  0  0  1  0  0  0  0  0  0
  186.7610  178.4160  136.9810 C   0  0  0  0  0  1  0  0  0  0  0  0
  189.7760  177.4140  142.3730 C   0  0  2  0  0  3  0  0  0  0  0  0
  188.9110  177.2610  139.8610 C   0  0  1  0  0  3  0  0  0  0  0  0
  189.0990  178.6010  142.0010 O   0  0  0  0  0  0  0  0  0  0  0  0
  186.4030  178.4140  139.3210 C   0  0  0  0  0  2  0  0  0  0  0  0
  187.8270  176.1560  138.0410 O   0  0  0  0  0  1  0  0  0  0  0  0
  188.3940  177.3800  138.4170 C   0  0  1  0  0  3  0  0  0  0  0  0
  187.0090  178.7160  140.7020 C   0  0  2  0  0  3  0  0  0  0  0  0
  191.3800  176.4910  144.0690 C   0  0  0  0  0  1  0  0  0  0  0  0
  190.2100  177.4500  143.8580 C   0  0  2  0  0  0  0  0  0  0  0  0
  188.4660  178.0130  145.4510 O   0  0  0  0  0  1  0  0  0  0  0  0
  188.0570  176.3230  143.9790 O   0  0  0  0  0  1  0  0  0  0  0  0
  189.0430  176.9570  144.7380 C   0  0  0  0  0  3  0  0  0  0  0  0
  191.9810  179.0960  144.0960 O   0  0  0  0  0  1  0  0  0  0  0  0
  190.6180  178.8650  144.2970 C   0  0  0  0  0  2  0  0  0  0  0  0
  190.8010  175.7900  139.3350 O   0  0  0  0  0  0  0  0  0  0  0  0
  193.0730  175.4910  135.8470 N   0  0  0  0  0  0  0  0  0  0  0  0
  191.5470  175.6700  138.1520 C   0  0  0  0  0  0  0  0  0  0  0  0
  192.7310  176.4010  138.0300 C   0  0  0  0  0  3  0  0  0  0  0  0
  193.4880  176.2990  136.8600 C   0  0  0  0  0  3  0  0  0  0  0  0
  191.9240  174.7700  135.9390 C   0  0  0  0  0  3  0  0  0  0  0  0
  191.1400  174.8460  137.0920 C   0  0  0  0  0  3  0  0  0  0  0  0
  1 21  1  1  0  0  0
  1  2  1  0  0  0  0
  2  7  1  0  0  0  0
  3 13  1  0  0  0  0
  3  9  1  1  0  0  0
  4 12  1  0  0  0  0
  4 10  1  0  0  0  0
  6  4  1  0  0  0  0
  7 15  1  1  0  0  0
  8  1  1  0  0  0  0
  8  3  1  0  0  0  0
  9  7  1  0  0  0  0
 10 13  1  0  0  0  0
 11 12  1  0  0  0  0
 12  8  1  0  0  0  0
 13  5  1  0  0  0  0
 15 14  1  0  0  0  0
 15 20  1  0  0  0  0
 15 18  1  0  0  0  0
 17 18  1  0  0  0  0
 18 16  1  0  0  0  0
 19 20  1  0  0  0  0
 22 26  2  0  0  0  0
 22 25  1  0  0  0  0
 23 21  1  0  0  0  0
 24 23  1  0  0  0  0
 25 24  2  0  0  0  0
 26 27  1  0  0  0  0
 27 23  2  0  0  0  0
M  END
>  <MODEL>
9

>  <REMARK>
 VINA RESULT:      -6.7      3.048      7.718
  Name = 
  5 active torsions:
  status: ('A' for Active; 'I' for Inactive)
    1  A    between atoms: C_1  and  O_15
    2  A    between atoms: C_9  and  O_15
    3  A    between atoms: C_14  and  C_17
    4  A    between atoms: C_16  and  C_17
    5  A    between atoms: C_17  and  C_21
                            x       y       z     vdW  Elec       q    Type
                         _______ _______ _______ _____ _____    ______ ____

>  <TORSDO>
F 5

$$$$
