=
 OpenBabel10272415053D

 37 36  0  0  1  0  0  0  0  0999 V2000
  191.4620  177.9810  140.1350 O   0  0  0  0  0  1  0  0  0  0  0  0
  190.3500  177.2970  140.6540 C   0  0  1  0  0  0  0  0  0  0  0  0
  191.6150  177.8300  142.6570 O   0  0  0  0  0  1  0  0  0  0  0  0
  190.3570  177.4420  142.1870 C   0  0  2  0  0  3  0  0  0  0  0  0
  189.8600  176.2030  142.9360 C   0  0  0  0  0  2  0  0  0  0  0  0
  188.7660  176.5350  143.9460 C   0  0  0  0  0  2  0  0  0  0  0  0
  189.4040  178.4720  145.1730 F   0  0  0  0  0  0  0  0  0  0  0  0
  189.3560  177.0910  145.2330 C   0  0  0  0  0  0  0  0  0  0  0  0
  190.6380  176.6010  145.3890 F   0  0  0  0  0  0  0  0  0  0  0  0
  188.5900  176.7000  146.3170 F   0  0  0  0  0  0  0  0  0  0  0  0
  189.0540  177.9370  140.1120 C   0  0  2  0  0  3  0  0  0  0  0  0
  188.8040  178.3280  137.5670 C   0  0  0  0  0  0  0  0  0  0  0  0
  189.2760  178.6880  138.8710 N   0  0  0  0  0  2  0  0  0  0  0  0
  188.1410  177.0870  137.3400 N   0  0  0  0  0  1  0  0  0  0  0  0
  188.9970  179.1110  136.6020 O   0  0  0  0  0  0  0  0  0  0  0  0
  188.2680  178.7400  141.1500 C   0  0  0  0  0  2  0  0  0  0  0  0
  186.8570  178.1930  141.2700 C   0  0  0  0  0  2  0  0  0  0  0  0
  185.9480  179.2380  141.8750 C   0  0  0  0  0  2  0  0  0  0  0  0
  184.2440  178.6080  141.8710 S   0  0  0  0  0  0  0  0  0  0  0  0
  182.7020  178.9160  144.1810 S   0  0  0  0  0  0  0  0  0  0  0  0
  184.0250  178.9030  143.6240 C   0  0  0  0  0  0  0  0  0  0  0  0
  185.2200  178.8380  144.5260 C   0  0  0  0  0  2  0  0  0  0  0  0
  186.0420  178.6790  146.8760 C   0  0  0  0  0  1  0  0  0  0  0  0
  184.8220  178.6130  145.9750 C   0  0  0  0  0  2  0  0  0  0  0  0
  190.3980  175.9220  140.3340 O   0  0  0  0  0  0  0  0  0  0  0  0
  191.1680  175.7770  139.2420 O   0  0  0  0  0  0  0  0  0  0  0  0
  190.8060  174.8840  138.2600 N   0  0  0  0  0  0  0  0  0  0  0  0
  191.6600  174.4410  137.3940 C   0  0  0  0  0  0  0  0  0  0  0  0
  191.2400  173.5870  136.4270 F   0  0  0  0  0  0  0  0  0  0  0  0
  193.8740  173.8340  137.9600 O   0  0  0  0  0  1  0  0  0  0  0  0
  193.0930  174.8660  137.4370 C   0  0  1  0  0  3  0  0  0  0  0  0
  193.5390  175.1900  136.1250 O   0  0  0  0  0  0  0  0  0  0  0  0
  194.6650  175.9840  135.8950 C   0  0  0  0  0  0  0  0  0  0  0  0
  194.6410  177.2180  136.1650 O   0  0  0  0  0  0  0  0  0  0  0  0
  195.8200  175.3910  135.3880 O   0  0  0  0  0  0  0  0  0  0  0  0
  196.8730  174.9640  136.2390 C   0  0  0  0  0  2  0  0  0  0  0  0
  198.0040  175.7420  136.0040 O   0  0  0  0  0  1  0  0  0  0  0  0
  2  1  1  6  0  0  0
  2  4  1  0  0  0  0
  4  3  1  1  0  0  0
  4  5  1  0  0  0  0
  5  6  1  0  0  0  0
  6  8  1  0  0  0  0
  7  8  1  0  0  0  0
  8  9  1  0  0  0  0
  8 10  1  0  0  0  0
 11  2  1  0  0  0  0
 11 16  1  1  0  0  0
 12 13  1  0  0  0  0
 13 11  1  0  0  0  0
 14 12  1  0  0  0  0
 15 12  2  0  0  0  0
 16 17  1  0  0  0  0
 17 18  1  0  0  0  0
 19 18  1  0  0  0  0
 19 21  1  0  0  0  0
 21 20  2  0  0  0  0
 21 22  1  0  0  0  0
 22 24  1  0  0  0  0
 24 23  1  0  0  0  0
 25  2  1  0  0  0  0
 26 25  1  0  0  0  0
 27 26  1  0  0  0  0
 28 31  1  0  0  0  0
 28 27  2  0  0  0  0
 29 28  1  0  0  0  0
 31 30  1  6  0  0  0
 32 31  1  0  0  0  0
 33 32  1  0  0  0  0
 33 34  2  0  0  0  0
 35 33  1  0  0  0  0
 35 36  1  0  0  0  0
 37 36  1  0  0  0  0
M  END
>  <MODEL>
1

>  <REMARK>
 VINA RESULT:      -6.2      0.000      0.000
  Name = 
  21 active torsions:
  status: ('A' for Active; 'I' for Inactive)
    1  A    between atoms: N_1  and  O_36
    2  A    between atoms: C_5  and  C_17
    3  A    between atoms: C_6  and  S_8
    4  A    between atoms: C_6  and  C_31
    5  A    between atoms: C_7  and  O_33
    6  A    between atoms: S_8  and  C_19
    7  A    between atoms: C_10  and  C_14
    8  A    between atoms: C_10  and  C_20
    9  A    between atoms: C_10  and  N_22
   10  A    between atoms: C_11  and  O_26
   11  A    between atoms: C_11  and  O_33
   12  A    between atoms: C_14  and  C_31
   13  A    between atoms: C_16  and  C_21
   14  A    between atoms: C_16  and  C_30
   15  A    between atoms: C_17  and  O_26
   16  A    between atoms: C_18  and  C_19
   17  A    between atoms: C_18  and  C_35
   18  A    between atoms: C_20  and  C_24
   19  A    between atoms: C_20  and  O_29
   20  A    between atoms: C_24  and  C_30
   21  A    between atoms: O_29  and  O_36
                            x       y       z     vdW  Elec       q    Type
                         _______ _______ _______ _____ _____    ______ ____

>  <TORSDO>
F 21

$$$$
=
 OpenBabel10272415053D

 37 36  0  0  1  0  0  0  0  0999 V2000
  188.8680  178.5380  142.9940 O   0  0  0  0  0  1  0  0  0  0  0  0
  189.1260  177.6810  144.0760 C   0  0  1  0  0  0  0  0  0  0  0  0
  191.1190  179.0650  143.9680 O   0  0  0  0  0  1  0  0  0  0  0  0
  190.4430  178.1190  144.7450 C   0  0  2  0  0  3  0  0  0  0  0  0
  191.3720  176.9610  145.1150 C   0  0  0  0  0  2  0  0  0  0  0  0
  191.6490  176.8940  146.6130 C   0  0  0  0  0  2  0  0  0  0  0  0
  192.4270  174.7650  145.8870 F   0  0  0  0  0  0  0  0  0  0  0  0
  192.1780  175.5250  147.0150 C   0  0  0  0  0  0  0  0  0  0  0  0
  191.2300  174.8870  147.7900 F   0  0  0  0  0  0  0  0  0  0  0  0
  193.3430  175.6610  147.7490 F   0  0  0  0  0  0  0  0  0  0  0  0
  187.9900  177.8080  145.1140 C   0  0  2  0  0  3  0  0  0  0  0  0
  188.1370  177.2940  147.6450 C   0  0  0  0  0  0  0  0  0  0  0  0
  188.1790  176.9160  146.2640 N   0  0  0  0  0  2  0  0  0  0  0  0
  188.0110  178.6600  148.0310 N   0  0  0  0  0  1  0  0  0  0  0  0
  188.2320  176.4080  148.5320 O   0  0  0  0  0  0  0  0  0  0  0  0
  186.5830  177.7100  144.5220 C   0  0  0  0  0  2  0  0  0  0  0  0
  185.6320  178.6070  145.2910 C   0  0  0  0  0  2  0  0  0  0  0  0
  184.4230  178.9280  144.4420 C   0  0  0  0  0  2  0  0  0  0  0  0
  184.8830  178.7940  142.6890 S   0  0  0  0  0  0  0  0  0  0  0  0
  182.1210  178.9680  143.0760 S   0  0  0  0  0  0  0  0  0  0  0  0
  183.1790  178.6800  142.1490 C   0  0  0  0  0  0  0  0  0  0  0  0
  182.8870  178.5790  140.6830 C   0  0  0  0  0  2  0  0  0  0  0  0
  181.5900  176.7160  139.6500 C   0  0  0  0  0  1  0  0  0  0  0  0
  182.9410  177.1420  140.1940 C   0  0  0  0  0  2  0  0  0  0  0  0
  189.2630  176.3420  143.6500 O   0  0  0  0  0  0  0  0  0  0  0  0
  189.1790  176.3240  142.3090 O   0  0  0  0  0  0  0  0  0  0  0  0
  190.3260  176.2830  141.5500 N   0  0  0  0  0  0  0  0  0  0  0  0
  190.3420  176.6830  140.3190 C   0  0  0  0  0  0  0  0  0  0  0  0
  191.4950  176.5890  139.6080 F   0  0  0  0  0  0  0  0  0  0  0  0
  189.1400  178.6290  139.7190 O   0  0  0  0  0  1  0  0  0  0  0  0
  189.1130  177.2330  139.6700 C   0  0  1  0  0  3  0  0  0  0  0  0
  189.0480  176.8010  138.3160 O   0  0  0  0  0  0  0  0  0  0  0  0
  187.8360  176.6490  137.6390 C   0  0  0  0  0  0  0  0  0  0  0  0
  187.3630  175.4970  137.4270 O   0  0  0  0  0  0  0  0  0  0  0  0
  187.1440  177.7860  137.2250 O   0  0  0  0  0  0  0  0  0  0  0  0
  185.8420  178.0830  137.7050 C   0  0  0  0  0  2  0  0  0  0  0  0
  185.9350  178.6690  138.9650 O   0  0  0  0  0  1  0  0  0  0  0  0
  2  1  1  6  0  0  0
  2  4  1  0  0  0  0
  2 11  1  0  0  0  0
  4  3  1  6  0  0  0
  4  5  1  0  0  0  0
  5  6  1  0  0  0  0
  6  8  1  0  0  0  0
  7  8  1  0  0  0  0
  8 10  1  0  0  0  0
  8  9  1  0  0  0  0
 11 16  1  6  0  0  0
 11 13  1  0  0  0  0
 12 14  1  0  0  0  0
 12 15  2  0  0  0  0
 13 12  1  0  0  0  0
 16 17  1  0  0  0  0
 18 17  1  0  0  0  0
 19 18  1  0  0  0  0
 21 19  1  0  0  0  0
 21 20  2  0  0  0  0
 22 21  1  0  0  0  0
 23 24  1  0  0  0  0
 24 22  1  0  0  0  0
 25  2  1  0  0  0  0
 26 25  1  0  0  0  0
 27 26  1  0  0  0  0
 28 27  2  0  0  0  0
 29 28  1  0  0  0  0
 31 30  1  6  0  0  0
 31 28  1  0  0  0  0
 32 31  1  0  0  0  0
 33 32  1  0  0  0  0
 34 33  2  0  0  0  0
 35 33  1  0  0  0  0
 35 36  1  0  0  0  0
 36 37  1  0  0  0  0
M  END
>  <MODEL>
2

>  <REMARK>
 VINA RESULT:      -6.2      3.887      6.232
  Name = 
  21 active torsions:
  status: ('A' for Active; 'I' for Inactive)
    1  A    between atoms: N_1  and  O_36
    2  A    between atoms: C_5  and  C_17
    3  A    between atoms: C_6  and  S_8
    4  A    between atoms: C_6  and  C_31
    5  A    between atoms: C_7  and  O_33
    6  A    between atoms: S_8  and  C_19
    7  A    between atoms: C_10  and  C_14
    8  A    between atoms: C_10  and  C_20
    9  A    between atoms: C_10  and  N_22
   10  A    between atoms: C_11  and  O_26
   11  A    between atoms: C_11  and  O_33
   12  A    between atoms: C_14  and  C_31
   13  A    between atoms: C_16  and  C_21
   14  A    between atoms: C_16  and  C_30
   15  A    between atoms: C_17  and  O_26
   16  A    between atoms: C_18  and  C_19
   17  A    between atoms: C_18  and  C_35
   18  A    between atoms: C_20  and  C_24
   19  A    between atoms: C_20  and  O_29
   20  A    between atoms: C_24  and  C_30
   21  A    between atoms: O_29  and  O_36
                            x       y       z     vdW  Elec       q    Type
                         _______ _______ _______ _____ _____    ______ ____

>  <TORSDO>
F 21

$$$$
=
 OpenBabel10272415053D

 37 36  0  0  1  0  0  0  0  0999 V2000
  189.2690  175.8180  143.3510 O   0  0  0  0  0  1  0  0  0  0  0  0
  189.3520  177.1970  143.0930 C   0  0  1  0  0  0  0  0  0  0  0  0
  191.3610  178.5550  142.9590 O   0  0  0  0  0  1  0  0  0  0  0  0
  190.5930  177.7570  143.8130 C   0  0  2  0  0  3  0  0  0  0  0  0
  191.4630  176.6900  144.4810 C   0  0  0  0  0  2  0  0  0  0  0  0
  191.6700  176.9570  145.9690 C   0  0  0  0  0  2  0  0  0  0  0  0
  190.9260  175.2580  147.4590 F   0  0  0  0  0  0  0  0  0  0  0  0
  192.0130  175.6760  146.7160 C   0  0  0  0  0  0  0  0  0  0  0  0
  193.0740  175.9220  147.5650 F   0  0  0  0  0  0  0  0  0  0  0  0
  192.3730  174.6850  145.8210 F   0  0  0  0  0  0  0  0  0  0  0  0
  189.5260  177.4270  141.5760 C   0  0  2  0  0  3  0  0  0  0  0  0
  188.0450  178.3520  139.6670 C   0  0  0  0  0  0  0  0  0  0  0  0
  188.2460  177.6300  140.8890 N   0  0  0  0  0  2  0  0  0  0  0  0
  189.1140  179.0620  139.0480 N   0  0  0  0  0  1  0  0  0  0  0  0
  186.9020  178.3750  139.1440 O   0  0  0  0  0  0  0  0  0  0  0  0
  190.4060  176.3870  140.8800 C   0  0  0  0  0  2  0  0  0  0  0  0
  191.4210  177.0780  139.9890 C   0  0  0  0  0  2  0  0  0  0  0  0
  191.4270  176.4400  138.6190 C   0  0  0  0  0  2  0  0  0  0  0  0
  193.1250  176.4500  137.9720 S   0  0  0  0  0  0  0  0  0  0  0  0
  191.7790  174.1340  137.1760 S   0  0  0  0  0  0  0  0  0  0  0  0
  193.0510  174.7310  137.4730 C   0  0  0  0  0  0  0  0  0  0  0  0
  194.3190  174.0310  137.0890 C   0  0  0  0  0  2  0  0  0  0  0  0
  196.3840  172.9190  137.9360 C   0  0  0  0  0  1  0  0  0  0  0  0
  194.9710  173.3510  138.2820 C   0  0  0  0  0  2  0  0  0  0  0  0
  188.2110  177.8780  143.5720 O   0  0  0  0  0  0  0  0  0  0  0  0
  187.7660  177.2260  144.6590 O   0  0  0  0  0  0  0  0  0  0  0  0
  187.9970  177.7450  145.9130 N   0  0  0  0  0  0  0  0  0  0  0  0
  187.0300  178.1590  146.6670 C   0  0  0  0  0  0  0  0  0  0  0  0
  187.3190  178.6920  147.8810 F   0  0  0  0  0  0  0  0  0  0  0  0
  184.7560  178.3660  147.2830 O   0  0  0  0  0  1  0  0  0  0  0  0
  185.6070  178.0690  146.2160 C   0  0  1  0  0  3  0  0  0  0  0  0
  185.3800  178.9840  145.1510 O   0  0  0  0  0  0  0  0  0  0  0  0
  184.3560  178.8030  144.2180 C   0  0  0  0  0  0  0  0  0  0  0  0
  183.2090  179.2880  144.4290 O   0  0  0  0  0  0  0  0  0  0  0  0
  184.6250  178.1050  143.0430 O   0  0  0  0  0  0  0  0  0  0  0  0
  184.6390  178.7500  141.7780 C   0  0  0  0  0  2  0  0  0  0  0  0
  185.6200  179.7370  141.7710 O   0  0  0  0  0  1  0  0  0  0  0  0
  2  1  1  1  0  0  0
  2 25  1  0  0  0  0
  2  4  1  0  0  0  0
  4  3  1  6  0  0  0
  4  5  1  0  0  0  0
  5  6  1  0  0  0  0
  6  8  1  0  0  0  0
  8  7  1  0  0  0  0
  8  9  1  0  0  0  0
 10  8  1  0  0  0  0
 11 16  1  6  0  0  0
 11  2  1  0  0  0  0
 12 13  1  0  0  0  0
 13 11  1  0  0  0  0
 14 12  1  0  0  0  0
 15 12  2  0  0  0  0
 17 16  1  0  0  0  0
 18 17  1  0  0  0  0
 19 18  1  0  0  0  0
 20 21  2  0  0  0  0
 21 19  1  0  0  0  0
 22 21  1  0  0  0  0
 22 24  1  0  0  0  0
 23 24  1  0  0  0  0
 25 26  1  0  0  0  0
 26 27  1  0  0  0  0
 27 28  2  0  0  0  0
 28 29  1  0  0  0  0
 31 28  1  0  0  0  0
 31 30  1  1  0  0  0
 32 31  1  0  0  0  0
 33 34  2  0  0  0  0
 33 32  1  0  0  0  0
 35 33  1  0  0  0  0
 36 35  1  0  0  0  0
 37 36  1  0  0  0  0
M  END
>  <MODEL>
3

>  <REMARK>
 VINA RESULT:      -6.1      4.801      9.132
  Name = 
  21 active torsions:
  status: ('A' for Active; 'I' for Inactive)
    1  A    between atoms: N_1  and  O_36
    2  A    between atoms: C_5  and  C_17
    3  A    between atoms: C_6  and  S_8
    4  A    between atoms: C_6  and  C_31
    5  A    between atoms: C_7  and  O_33
    6  A    between atoms: S_8  and  C_19
    7  A    between atoms: C_10  and  C_14
    8  A    between atoms: C_10  and  C_20
    9  A    between atoms: C_10  and  N_22
   10  A    between atoms: C_11  and  O_26
   11  A    between atoms: C_11  and  O_33
   12  A    between atoms: C_14  and  C_31
   13  A    between atoms: C_16  and  C_21
   14  A    between atoms: C_16  and  C_30
   15  A    between atoms: C_17  and  O_26
   16  A    between atoms: C_18  and  C_19
   17  A    between atoms: C_18  and  C_35
   18  A    between atoms: C_20  and  C_24
   19  A    between atoms: C_20  and  O_29
   20  A    between atoms: C_24  and  C_30
   21  A    between atoms: O_29  and  O_36
                            x       y       z     vdW  Elec       q    Type
                         _______ _______ _______ _____ _____    ______ ____

>  <TORSDO>
F 21

$$$$
=
 OpenBabel10272415053D

 37 36  0  0  1  0  0  0  0  0999 V2000
  189.2810  179.1670  138.4370 O   0  0  0  0  0  1  0  0  0  0  0  0
  189.2580  177.7740  138.6140 C   0  0  1  0  0  0  0  0  0  0  0  0
  189.1090  178.0550  136.2060 O   0  0  0  0  0  1  0  0  0  0  0  0
  189.1110  177.1070  137.2330 C   0  0  2  0  0  3  0  0  0  0  0  0
  187.9000  176.1780  137.1130 C   0  0  0  0  0  2  0  0  0  0  0  0
  186.9090  176.6500  136.0530 C   0  0  0  0  0  2  0  0  0  0  0  0
  185.2190  176.5490  137.7260 F   0  0  0  0  0  0  0  0  0  0  0  0
  185.7030  177.3250  136.6900 C   0  0  0  0  0  0  0  0  0  0  0  0
  184.7150  177.4730  135.7360 F   0  0  0  0  0  0  0  0  0  0  0  0
  186.0550  178.5740  137.1710 F   0  0  0  0  0  0  0  0  0  0  0  0
  190.5940  177.3120  139.2360 C   0  0  2  0  0  3  0  0  0  0  0  0
  192.7960  176.3360  138.2920 C   0  0  0  0  0  0  0  0  0  0  0  0
  191.3680  176.4570  138.3290 N   0  0  0  0  0  2  0  0  0  0  0  0
  193.6260  177.1620  139.1030 N   0  0  0  0  0  1  0  0  0  0  0  0
  193.3250  175.4990  137.5180 O   0  0  0  0  0  0  0  0  0  0  0  0
  190.4600  176.7110  140.6360 C   0  0  0  0  0  2  0  0  0  0  0  0
  191.3220  177.4840  141.6170 C   0  0  0  0  0  2  0  0  0  0  0  0
  191.3190  176.7950  142.9620 C   0  0  0  0  0  2  0  0  0  0  0  0
  189.5990  176.5280  143.4830 S   0  0  0  0  0  0  0  0  0  0  0  0
  191.2820  177.0550  145.6510 S   0  0  0  0  0  0  0  0  0  0  0  0
  189.9280  177.0270  145.1720 C   0  0  0  0  0  0  0  0  0  0  0  0
  188.8370  177.6840  145.9610 C   0  0  0  0  0  2  0  0  0  0  0  0
  186.3790  178.0000  146.2430 C   0  0  0  0  0  1  0  0  0  0  0  0
  187.4680  177.4190  145.3590 C   0  0  0  0  0  2  0  0  0  0  0  0
  188.1690  177.3760  139.4220 O   0  0  0  0  0  0  0  0  0  0  0  0
  187.5070  178.4840  139.7980 O   0  0  0  0  0  0  0  0  0  0  0  0
  187.2910  178.7330  141.1340 N   0  0  0  0  0  0  0  0  0  0  0  0
  186.0970  178.7950  141.6300 C   0  0  0  0  0  0  0  0  0  0  0  0
  185.9420  179.0770  142.9480 F   0  0  0  0  0  0  0  0  0  0  0  0
  183.7750  178.3500  141.5800 O   0  0  0  0  0  1  0  0  0  0  0  0
  184.8930  178.5730  140.7730 C   0  0  1  0  0  3  0  0  0  0  0  0
  184.6710  179.7120  139.9490 O   0  0  0  0  0  0  0  0  0  0  0  0
  183.5610  179.8190  139.1070 C   0  0  0  0  0  0  0  0  0  0  0  0
  183.1190  180.9550  138.7760 O   0  0  0  0  0  0  0  0  0  0  0  0
  182.9660  178.6570  138.6190 O   0  0  0  0  0  0  0  0  0  0  0  0
  182.1500  178.6680  137.4580 C   0  0  0  0  0  2  0  0  0  0  0  0
  180.8100  178.6480  137.8320 O   0  0  0  0  0  1  0  0  0  0  0  0
  2  1  1  6  0  0  0
  2 11  1  0  0  0  0
  2 25  1  0  0  0  0
  4  3  1  6  0  0  0
  4  2  1  0  0  0  0
  5  4  1  0  0  0  0
  6  8  1  0  0  0  0
  6  5  1  0  0  0  0
  8 10  1  0  0  0  0
  8  7  1  0  0  0  0
  9  8  1  0  0  0  0
 11 16  1  1  0  0  0
 12 13  1  0  0  0  0
 12 14  1  0  0  0  0
 13 11  1  0  0  0  0
 15 12  2  0  0  0  0
 16 17  1  0  0  0  0
 17 18  1  0  0  0  0
 18 19  1  0  0  0  0
 19 21  1  0  0  0  0
 21 20  2  0  0  0  0
 21 22  1  0  0  0  0
 24 22  1  0  0  0  0
 24 23  1  0  0  0  0
 25 26  1  0  0  0  0
 26 27  1  0  0  0  0
 27 28  2  0  0  0  0
 28 29  1  0  0  0  0
 31 30  1  1  0  0  0
 31 28  1  0  0  0  0
 32 31  1  0  0  0  0
 33 32  1  0  0  0  0
 34 33  2  0  0  0  0
 35 33  1  0  0  0  0
 36 37  1  0  0  0  0
 36 35  1  0  0  0  0
M  END
>  <MODEL>
4

>  <REMARK>
 VINA RESULT:      -6.0      4.217      8.264
  Name = 
  21 active torsions:
  status: ('A' for Active; 'I' for Inactive)
    1  A    between atoms: N_1  and  O_36
    2  A    between atoms: C_5  and  C_17
    3  A    between atoms: C_6  and  S_8
    4  A    between atoms: C_6  and  C_31
    5  A    between atoms: C_7  and  O_33
    6  A    between atoms: S_8  and  C_19
    7  A    between atoms: C_10  and  C_14
    8  A    between atoms: C_10  and  C_20
    9  A    between atoms: C_10  and  N_22
   10  A    between atoms: C_11  and  O_26
   11  A    between atoms: C_11  and  O_33
   12  A    between atoms: C_14  and  C_31
   13  A    between atoms: C_16  and  C_21
   14  A    between atoms: C_16  and  C_30
   15  A    between atoms: C_17  and  O_26
   16  A    between atoms: C_18  and  C_19
   17  A    between atoms: C_18  and  C_35
   18  A    between atoms: C_20  and  C_24
   19  A    between atoms: C_20  and  O_29
   20  A    between atoms: C_24  and  C_30
   21  A    between atoms: O_29  and  O_36
                            x       y       z     vdW  Elec       q    Type
                         _______ _______ _______ _____ _____    ______ ____

>  <TORSDO>
F 21

$$$$
=
 OpenBabel10272415053D

 37 36  0  0  1  0  0  0  0  0999 V2000
  190.8060  177.8460  138.6780 O   0  0  0  0  0  1  0  0  0  0  0  0
  190.2330  177.2030  139.7870 C   0  0  1  0  0  0  0  0  0  0  0  0
  192.4300  177.7060  140.6930 O   0  0  0  0  0  1  0  0  0  0  0  0
  191.0860  177.5180  141.0310 C   0  0  2  0  0  3  0  0  0  0  0  0
  190.9510  176.4930  142.1590 C   0  0  0  0  0  2  0  0  0  0  0  0
  191.6790  176.9250  143.4270 C   0  0  0  0  0  2  0  0  0  0  0  0
  190.3110  178.4910  144.5840 F   0  0  0  0  0  0  0  0  0  0  0  0
  190.7020  177.1650  144.5690 C   0  0  0  0  0  0  0  0  0  0  0  0
  191.3240  176.8630  145.7640 F   0  0  0  0  0  0  0  0  0  0  0  0
  189.5900  176.3540  144.4220 F   0  0  0  0  0  0  0  0  0  0  0  0
  188.8100  177.7540  140.0230 C   0  0  2  0  0  3  0  0  0  0  0  0
  187.6000  178.1750  137.7760 C   0  0  0  0  0  0  0  0  0  0  0  0
  188.3490  178.6040  138.9200 N   0  0  0  0  0  2  0  0  0  0  0  0
  187.3250  176.7950  137.5510 N   0  0  0  0  0  1  0  0  0  0  0  0
  187.1970  179.0290  136.9460 O   0  0  0  0  0  0  0  0  0  0  0  0
  188.6080  178.4090  141.3900 C   0  0  0  0  0  2  0  0  0  0  0  0
  187.1300  178.4540  141.7320 C   0  0  0  0  0  2  0  0  0  0  0  0
  186.8940  177.8370  143.0910 C   0  0  0  0  0  2  0  0  0  0  0  0
  185.2270  178.2830  143.6580 S   0  0  0  0  0  0  0  0  0  0  0  0
  184.7450  178.6550  146.3850 S   0  0  0  0  0  0  0  0  0  0  0  0
  185.7160  178.3210  145.3810 C   0  0  0  0  0  0  0  0  0  0  0  0
  187.0330  177.7260  145.7750 C   0  0  0  0  0  2  0  0  0  0  0  0
  188.7150  177.4570  147.5970 C   0  0  0  0  0  1  0  0  0  0  0  0
  187.2920  177.8680  147.2660 C   0  0  0  0  0  2  0  0  0  0  0  0
  190.2010  175.8020  139.6090 O   0  0  0  0  0  0  0  0  0  0  0  0
  191.0080  175.4980  138.5780 O   0  0  0  0  0  0  0  0  0  0  0  0
  190.7500  174.3850  137.8110 N   0  0  0  0  0  0  0  0  0  0  0  0
  191.6000  173.9480  136.9380 C   0  0  0  0  0  0  0  0  0  0  0  0
  191.2790  172.8650  136.1860 F   0  0  0  0  0  0  0  0  0  0  0  0
  192.7230  175.9920  136.5450 O   0  0  0  0  0  1  0  0  0  0  0  0
  192.9190  174.6230  136.7410 C   0  0  1  0  0  3  0  0  0  0  0  0
  193.7440  174.4130  137.8810 O   0  0  0  0  0  0  0  0  0  0  0  0
  194.7730  173.4690  137.8930 C   0  0  0  0  0  0  0  0  0  0  0  0
  194.6170  172.3470  137.3350 O   0  0  0  0  0  0  0  0  0  0  0  0
  195.9820  173.7940  138.5060 O   0  0  0  0  0  0  0  0  0  0  0  0
  196.0400  174.6600  139.6300 C   0  0  0  0  0  2  0  0  0  0  0  0
  197.3130  175.2180  139.7200 O   0  0  0  0  0  1  0  0  0  0  0  0
  2  1  1  6  0  0  0
  2 11  1  0  0  0  0
  2  4  1  0  0  0  0
  4  3  1  6  0  0  0
  4  5  1  0  0  0  0
  5  6  1  0  0  0  0
  6  8  1  0  0  0  0
  8  7  1  0  0  0  0
  8  9  1  0  0  0  0
 10  8  1  0  0  0  0
 11 16  1  1  0  0  0
 12 13  1  0  0  0  0
 13 11  1  0  0  0  0
 14 12  1  0  0  0  0
 15 12  2  0  0  0  0
 16 17  1  0  0  0  0
 17 18  1  0  0  0  0
 18 19  1  0  0  0  0
 19 21  1  0  0  0  0
 21 22  1  0  0  0  0
 21 20  2  0  0  0  0
 22 24  1  0  0  0  0
 24 23  1  0  0  0  0
 25  2  1  0  0  0  0
 26 25  1  0  0  0  0
 27 26  1  0  0  0  0
 28 27  2  0  0  0  0
 29 28  1  0  0  0  0
 31 30  1  1  0  0  0
 31 28  1  0  0  0  0
 31 32  1  0  0  0  0
 32 33  1  0  0  0  0
 33 35  1  0  0  0  0
 34 33  2  0  0  0  0
 35 36  1  0  0  0  0
 36 37  1  0  0  0  0
M  END
>  <MODEL>
5

>  <REMARK>
 VINA RESULT:      -5.9      1.690      2.166
  Name = 
  21 active torsions:
  status: ('A' for Active; 'I' for Inactive)
    1  A    between atoms: N_1  and  O_36
    2  A    between atoms: C_5  and  C_17
    3  A    between atoms: C_6  and  S_8
    4  A    between atoms: C_6  and  C_31
    5  A    between atoms: C_7  and  O_33
    6  A    between atoms: S_8  and  C_19
    7  A    between atoms: C_10  and  C_14
    8  A    between atoms: C_10  and  C_20
    9  A    between atoms: C_10  and  N_22
   10  A    between atoms: C_11  and  O_26
   11  A    between atoms: C_11  and  O_33
   12  A    between atoms: C_14  and  C_31
   13  A    between atoms: C_16  and  C_21
   14  A    between atoms: C_16  and  C_30
   15  A    between atoms: C_17  and  O_26
   16  A    between atoms: C_18  and  C_19
   17  A    between atoms: C_18  and  C_35
   18  A    between atoms: C_20  and  C_24
   19  A    between atoms: C_20  and  O_29
   20  A    between atoms: C_24  and  C_30
   21  A    between atoms: O_29  and  O_36
                            x       y       z     vdW  Elec       q    Type
                         _______ _______ _______ _____ _____    ______ ____

>  <TORSDO>
F 21

$$$$
=
 OpenBabel10272415053D

 37 36  0  0  1  0  0  0  0  0999 V2000
  190.4750  175.9010  141.1210 O   0  0  0  0  0  1  0  0  0  0  0  0
  190.5270  176.9950  140.2420 C   0  0  1  0  0  0  0  0  0  0  0  0
  190.6460  175.2370  138.5710 O   0  0  0  0  0  1  0  0  0  0  0  0
  191.1060  176.5160  138.8970 C   0  0  2  0  0  3  0  0  0  0  0  0
  192.6330  176.5790  138.8150 C   0  0  0  0  0  2  0  0  0  0  0  0
  193.1590  176.1560  137.4470 C   0  0  0  0  0  2  0  0  0  0  0  0
  193.2480  173.7930  137.7170 F   0  0  0  0  0  0  0  0  0  0  0  0
  194.0360  174.9170  137.5540 C   0  0  0  0  0  0  0  0  0  0  0  0
  194.8680  175.0480  138.6480 F   0  0  0  0  0  0  0  0  0  0  0  0
  194.8080  174.7810  136.4140 F   0  0  0  0  0  0  0  0  0  0  0  0
  189.0980  177.5240  139.9940 C   0  0  2  0  0  3  0  0  0  0  0  0
  188.5730  178.6750  137.7380 C   0  0  0  0  0  0  0  0  0  0  0  0
  189.0760  178.6720  139.0800 N   0  0  0  0  0  2  0  0  0  0  0  0
  188.1310  177.4730  137.1140 N   0  0  0  0  0  1  0  0  0  0  0  0
  188.5380  179.7540  137.0940 O   0  0  0  0  0  0  0  0  0  0  0  0
  188.2920  177.7760  141.2690 C   0  0  0  0  0  2  0  0  0  0  0  0
  187.0070  178.5110  140.9340 C   0  0  0  0  0  2  0  0  0  0  0  0
  186.1830  178.7080  142.1860 C   0  0  0  0  0  2  0  0  0  0  0  0
  184.4400  178.3650  141.8040 S   0  0  0  0  0  0  0  0  0  0  0  0
  182.4840  178.8840  143.7300 S   0  0  0  0  0  0  0  0  0  0  0  0
  183.8630  179.0370  143.3610 C   0  0  0  0  0  0  0  0  0  0  0  0
  184.8700  179.4810  144.3770 C   0  0  0  0  0  2  0  0  0  0  0  0
  186.0250  178.1120  146.1130 C   0  0  0  0  0  1  0  0  0  0  0  0
  184.7080  178.7390  145.6940 C   0  0  0  0  0  2  0  0  0  0  0  0
  191.3570  178.0210  140.7470 O   0  0  0  0  0  0  0  0  0  0  0  0
  191.6030  177.7540  142.0410 O   0  0  0  0  0  0  0  0  0  0  0  0
  191.2620  178.6720  143.0070 N   0  0  0  0  0  0  0  0  0  0  0  0
  190.6610  178.3210  144.0990 C   0  0  0  0  0  0  0  0  0  0  0  0
  190.3190  179.2740  145.0020 F   0  0  0  0  0  0  0  0  0  0  0  0
  191.5060  176.1730  144.6130 O   0  0  0  0  0  1  0  0  0  0  0  0
  190.3320  176.8880  144.3710 C   0  0  1  0  0  3  0  0  0  0  0  0
  189.4710  176.7980  145.5000 O   0  0  0  0  0  0  0  0  0  0  0  0
  189.9490  176.8840  146.8100 C   0  0  0  0  0  0  0  0  0  0  0  0
  189.5150  177.7790  147.5900 O   0  0  0  0  0  0  0  0  0  0  0  0
  190.8890  175.9550  147.2520 O   0  0  0  0  0  0  0  0  0  0  0  0
  192.0440  176.3500  147.9760 C   0  0  0  0  0  2  0  0  0  0  0  0
  193.0720  175.4410  147.7410 O   0  0  0  0  0  1  0  0  0  0  0  0
  2 25  1  0  0  0  0
  2  1  1  1  0  0  0
  4  3  1  1  0  0  0
  4  2  1  0  0  0  0
  5  4  1  0  0  0  0
  6  8  1  0  0  0  0
  6  5  1  0  0  0  0
  8  7  1  0  0  0  0
  8  9  1  0  0  0  0
 10  8  1  0  0  0  0
 11  2  1  0  0  0  0
 11 16  1  1  0  0  0
 12 13  1  0  0  0  0
 13 11  1  0  0  0  0
 14 12  1  0  0  0  0
 15 12  2  0  0  0  0
 17 16  1  0  0  0  0
 17 18  1  0  0  0  0
 19 18  1  0  0  0  0
 19 21  1  0  0  0  0
 21 20  2  0  0  0  0
 21 22  1  0  0  0  0
 22 24  1  0  0  0  0
 24 23  1  0  0  0  0
 25 26  1  0  0  0  0
 26 27  1  0  0  0  0
 27 28  2  0  0  0  0
 28 31  1  0  0  0  0
 28 29  1  0  0  0  0
 31 30  1  1  0  0  0
 31 32  1  0  0  0  0
 32 33  1  0  0  0  0
 33 35  1  0  0  0  0
 33 34  2  0  0  0  0
 35 36  1  0  0  0  0
 37 36  1  0  0  0  0
M  END
>  <MODEL>
6

>  <REMARK>
 VINA RESULT:      -5.8      2.500      6.883
  Name = 
  21 active torsions:
  status: ('A' for Active; 'I' for Inactive)
    1  A    between atoms: N_1  and  O_36
    2  A    between atoms: C_5  and  C_17
    3  A    between atoms: C_6  and  S_8
    4  A    between atoms: C_6  and  C_31
    5  A    between atoms: C_7  and  O_33
    6  A    between atoms: S_8  and  C_19
    7  A    between atoms: C_10  and  C_14
    8  A    between atoms: C_10  and  C_20
    9  A    between atoms: C_10  and  N_22
   10  A    between atoms: C_11  and  O_26
   11  A    between atoms: C_11  and  O_33
   12  A    between atoms: C_14  and  C_31
   13  A    between atoms: C_16  and  C_21
   14  A    between atoms: C_16  and  C_30
   15  A    between atoms: C_17  and  O_26
   16  A    between atoms: C_18  and  C_19
   17  A    between atoms: C_18  and  C_35
   18  A    between atoms: C_20  and  C_24
   19  A    between atoms: C_20  and  O_29
   20  A    between atoms: C_24  and  C_30
   21  A    between atoms: O_29  and  O_36
                            x       y       z     vdW  Elec       q    Type
                         _______ _______ _______ _____ _____    ______ ____

>  <TORSDO>
F 21

$$$$
=
 OpenBabel10272415053D

 37 36  0  0  1  0  0  0  0  0999 V2000
  188.8780  175.7100  142.6970 O   0  0  0  0  0  1  0  0  0  0  0  0
  188.9560  177.1030  142.5400 C   0  0  1  0  0  0  0  0  0  0  0  0
  190.3500  178.9830  143.1900 O   0  0  0  0  0  1  0  0  0  0  0  0
  190.0750  177.6380  143.4540 C   0  0  2  0  0  3  0  0  0  0  0  0
  191.3600  176.8070  143.4210 C   0  0  0  0  0  2  0  0  0  0  0  0
  191.4510  175.8300  144.5890 C   0  0  0  0  0  2  0  0  0  0  0  0
  191.9950  177.8600  145.7050 F   0  0  0  0  0  0  0  0  0  0  0  0
  191.5530  176.5670  145.9160 C   0  0  0  0  0  0  0  0  0  0  0  0
  192.4550  175.9080  146.7280 F   0  0  0  0  0  0  0  0  0  0  0  0
  190.3200  176.5940  146.5420 F   0  0  0  0  0  0  0  0  0  0  0  0
  189.3230  177.4370  141.0780 C   0  0  2  0  0  3  0  0  0  0  0  0
  188.0510  178.3150  139.0040 C   0  0  0  0  0  0  0  0  0  0  0  0
  188.1410  177.5570  140.2170 N   0  0  0  0  0  2  0  0  0  0  0  0
  189.1250  179.1450  138.5730 N   0  0  0  0  0  1  0  0  0  0  0  0
  186.9980  178.2600  138.3190 O   0  0  0  0  0  0  0  0  0  0  0  0
  190.3960  176.5280  140.4770 C   0  0  0  0  0  2  0  0  0  0  0  0
  191.5720  177.3590  139.9990 C   0  0  0  0  0  2  0  0  0  0  0  0
  192.2300  176.6900  138.8140 C   0  0  0  0  0  2  0  0  0  0  0  0
  191.0200  175.6040  138.0040 S   0  0  0  0  0  0  0  0  0  0  0  0
  193.1360  175.8740  136.1990 S   0  0  0  0  0  0  0  0  0  0  0  0
  191.7110  175.8820  136.3750 C   0  0  0  0  0  0  0  0  0  0  0  0
  190.8060  175.8260  135.1830 C   0  0  0  0  0  2  0  0  0  0  0  0
  189.1010  177.6390  135.3420 C   0  0  0  0  0  1  0  0  0  0  0  0
  189.3690  176.1600  135.5480 C   0  0  0  0  0  2  0  0  0  0  0  0
  187.7430  177.7290  142.9040 O   0  0  0  0  0  0  0  0  0  0  0  0
  187.2610  177.0980  143.9880 O   0  0  0  0  0  0  0  0  0  0  0  0
  187.4660  177.6310  145.2400 N   0  0  0  0  0  0  0  0  0  0  0  0
  186.5240  178.2440  145.8820 C   0  0  0  0  0  0  0  0  0  0  0  0
  186.7930  178.7790  147.1000 F   0  0  0  0  0  0  0  0  0  0  0  0
  184.2540  178.7640  146.2940 O   0  0  0  0  0  1  0  0  0  0  0  0
  185.1550  178.3820  145.2970 C   0  0  1  0  0  3  0  0  0  0  0  0
  185.1690  179.3570  144.2620 O   0  0  0  0  0  0  0  0  0  0  0  0
  184.4510  179.1940  143.0750 C   0  0  0  0  0  0  0  0  0  0  0  0
  183.2580  178.7770  143.1020 O   0  0  0  0  0  0  0  0  0  0  0  0
  185.0580  179.5240  141.8640 O   0  0  0  0  0  0  0  0  0  0  0  0
  184.6220  178.9650  140.6340 C   0  0  0  0  0  2  0  0  0  0  0  0
  184.6050  179.9550  139.6550 O   0  0  0  0  0  1  0  0  0  0  0  0
  2  1  1  1  0  0  0
  2 25  1  0  0  0  0
  2  4  1  0  0  0  0
  4  3  1  6  0  0  0
  5  4  1  0  0  0  0
  5  6  1  0  0  0  0
  6  8  1  0  0  0  0
  7  8  1  0  0  0  0
  8 10  1  0  0  0  0
  8  9  1  0  0  0  0
 11 16  1  6  0  0  0
 11  2  1  0  0  0  0
 12 13  1  0  0  0  0
 13 11  1  0  0  0  0
 14 12  1  0  0  0  0
 15 12  2  0  0  0  0
 17 16  1  0  0  0  0
 18 17  1  0  0  0  0
 19 18  1  0  0  0  0
 20 21  2  0  0  0  0
 21 19  1  0  0  0  0
 22 24  1  0  0  0  0
 22 21  1  0  0  0  0
 23 24  1  0  0  0  0
 25 26  1  0  0  0  0
 26 27  1  0  0  0  0
 27 28  2  0  0  0  0
 28 29  1  0  0  0  0
 31 28  1  0  0  0  0
 31 30  1  1  0  0  0
 32 31  1  0  0  0  0
 33 34  2  0  0  0  0
 33 32  1  0  0  0  0
 35 33  1  0  0  0  0
 36 35  1  0  0  0  0
 37 36  1  0  0  0  0
M  END
>  <MODEL>
7

>  <REMARK>
 VINA RESULT:      -5.8      4.758      8.612
  Name = 
  21 active torsions:
  status: ('A' for Active; 'I' for Inactive)
    1  A    between atoms: N_1  and  O_36
    2  A    between atoms: C_5  and  C_17
    3  A    between atoms: C_6  and  S_8
    4  A    between atoms: C_6  and  C_31
    5  A    between atoms: C_7  and  O_33
    6  A    between atoms: S_8  and  C_19
    7  A    between atoms: C_10  and  C_14
    8  A    between atoms: C_10  and  C_20
    9  A    between atoms: C_10  and  N_22
   10  A    between atoms: C_11  and  O_26
   11  A    between atoms: C_11  and  O_33
   12  A    between atoms: C_14  and  C_31
   13  A    between atoms: C_16  and  C_21
   14  A    between atoms: C_16  and  C_30
   15  A    between atoms: C_17  and  O_26
   16  A    between atoms: C_18  and  C_19
   17  A    between atoms: C_18  and  C_35
   18  A    between atoms: C_20  and  C_24
   19  A    between atoms: C_20  and  O_29
   20  A    between atoms: C_24  and  C_30
   21  A    between atoms: O_29  and  O_36
                            x       y       z     vdW  Elec       q    Type
                         _______ _______ _______ _____ _____    ______ ____

>  <TORSDO>
F 21

$$$$
=
 OpenBabel10272415053D

 37 36  0  0  1  0  0  0  0  0999 V2000
  185.5070  180.2340  142.1670 O   0  0  0  0  0  1  0  0  0  0  0  0
  185.0290  178.9340  141.9340 C   0  0  1  0  0  0  0  0  0  0  0  0
  183.2860  179.4960  143.5290 O   0  0  0  0  0  1  0  0  0  0  0  0
  184.1860  178.4970  143.1470 C   0  0  2  0  0  3  0  0  0  0  0  0
  185.0130  178.0280  144.3470 C   0  0  0  0  0  2  0  0  0  0  0  0
  185.4000  179.1790  145.2710 C   0  0  0  0  0  2  0  0  0  0  0  0
  184.5710  178.0580  147.2000 F   0  0  0  0  0  0  0  0  0  0  0  0
  185.6910  178.6800  146.6790 C   0  0  0  0  0  0  0  0  0  0  0  0
  186.0230  179.7560  147.4780 F   0  0  0  0  0  0  0  0  0  0  0  0
  186.7490  177.7890  146.6590 F   0  0  0  0  0  0  0  0  0  0  0  0
  184.1190  178.9360  140.6870 C   0  0  2  0  0  3  0  0  0  0  0  0
  181.8130  177.7850  140.4590 C   0  0  0  0  0  0  0  0  0  0  0  0
  183.2360  177.7650  140.6350 N   0  0  0  0  0  2  0  0  0  0  0  0
  181.0920  179.0130  140.4290 N   0  0  0  0  0  1  0  0  0  0  0  0
  181.1900  176.6990  140.3490 O   0  0  0  0  0  0  0  0  0  0  0  0
  184.8590  179.1690  139.3690 C   0  0  0  0  0  2  0  0  0  0  0  0
  184.5370  178.0570  138.3880 C   0  0  0  0  0  2  0  0  0  0  0  0
  185.6880  177.8660  137.4270 C   0  0  0  0  0  2  0  0  0  0  0  0
  185.7910  176.1090  136.9740 S   0  0  0  0  0  0  0  0  0  0  0  0
  188.3860  175.2600  136.3800 S   0  0  0  0  0  0  0  0  0  0  0  0
  187.5580  176.0380  137.2580 C   0  0  0  0  0  0  0  0  0  0  0  0
  188.1810  177.0120  138.2110 C   0  0  0  0  0  2  0  0  0  0  0  0
  188.9850  179.0670  137.0490 C   0  0  0  0  0  1  0  0  0  0  0  0
  189.3840  177.7100  137.6000 C   0  0  0  0  0  2  0  0  0  0  0  0
  186.0920  178.0170  141.7730 O   0  0  0  0  0  0  0  0  0  0  0  0
  187.2440  178.7050  141.8310 O   0  0  0  0  0  0  0  0  0  0  0  0
  188.4010  178.1490  141.3340 N   0  0  0  0  0  0  0  0  0  0  0  0
  189.1110  177.3200  142.0300 C   0  0  0  0  0  0  0  0  0  0  0  0
  190.2600  176.8280  141.5020 F   0  0  0  0  0  0  0  0  0  0  0  0
  187.8680  175.7810  143.3260 O   0  0  0  0  0  1  0  0  0  0  0  0
  188.6900  176.9070  143.4040 C   0  0  1  0  0  3  0  0  0  0  0  0
  189.8370  176.6120  144.1910 O   0  0  0  0  0  0  0  0  0  0  0  0
  190.3400  177.5050  145.1410 C   0  0  0  0  0  0  0  0  0  0  0  0
  190.9850  178.5280  144.7760 O   0  0  0  0  0  0  0  0  0  0  0  0
  190.0970  177.2640  146.4920 O   0  0  0  0  0  0  0  0  0  0  0  0
  191.0320  176.5720  147.3060 C   0  0  0  0  0  2  0  0  0  0  0  0
  192.0360  176.0350  146.5050 O   0  0  0  0  0  1  0  0  0  0  0  0
  2  1  1  1  0  0  0
  2  4  1  0  0  0  0
  4  3  1  1  0  0  0
  4  5  1  0  0  0  0
  5  6  1  0  0  0  0
  6  8  1  0  0  0  0
  8  7  1  0  0  0  0
  8  9  1  0  0  0  0
 10  8  1  0  0  0  0
 11 16  1  6  0  0  0
 11  2  1  0  0  0  0
 12 13  1  0  0  0  0
 13 11  1  0  0  0  0
 14 12  1  0  0  0  0
 15 12  2  0  0  0  0
 17 16  1  0  0  0  0
 18 17  1  0  0  0  0
 19 21  1  0  0  0  0
 19 18  1  0  0  0  0
 20 21  2  0  0  0  0
 21 22  1  0  0  0  0
 23 24  1  0  0  0  0
 24 22  1  0  0  0  0
 25 26  1  0  0  0  0
 25  2  1  0  0  0  0
 27 26  1  0  0  0  0
 27 28  2  0  0  0  0
 28 31  1  0  0  0  0
 29 28  1  0  0  0  0
 31 30  1  6  0  0  0
 31 32  1  0  0  0  0
 32 33  1  0  0  0  0
 33 35  1  0  0  0  0
 34 33  2  0  0  0  0
 35 36  1  0  0  0  0
 37 36  1  0  0  0  0
M  END
>  <MODEL>
8

>  <REMARK>
 VINA RESULT:      -5.6      5.095      7.564
  Name = 
  21 active torsions:
  status: ('A' for Active; 'I' for Inactive)
    1  A    between atoms: N_1  and  O_36
    2  A    between atoms: C_5  and  C_17
    3  A    between atoms: C_6  and  S_8
    4  A    between atoms: C_6  and  C_31
    5  A    between atoms: C_7  and  O_33
    6  A    between atoms: S_8  and  C_19
    7  A    between atoms: C_10  and  C_14
    8  A    between atoms: C_10  and  C_20
    9  A    between atoms: C_10  and  N_22
   10  A    between atoms: C_11  and  O_26
   11  A    between atoms: C_11  and  O_33
   12  A    between atoms: C_14  and  C_31
   13  A    between atoms: C_16  and  C_21
   14  A    between atoms: C_16  and  C_30
   15  A    between atoms: C_17  and  O_26
   16  A    between atoms: C_18  and  C_19
   17  A    between atoms: C_18  and  C_35
   18  A    between atoms: C_20  and  C_24
   19  A    between atoms: C_20  and  O_29
   20  A    between atoms: C_24  and  C_30
   21  A    between atoms: O_29  and  O_36
                            x       y       z     vdW  Elec       q    Type
                         _______ _______ _______ _____ _____    ______ ____

>  <TORSDO>
F 21

$$$$
=
 OpenBabel10272415053D

 37 36  0  0  1  0  0  0  0  0999 V2000
  188.7090  179.2970  138.5090 O   0  0  0  0  0  1  0  0  0  0  0  0
  188.5170  177.9120  138.6500 C   0  0  1  0  0  0  0  0  0  0  0  0
  188.7120  178.2290  136.2490 O   0  0  0  0  0  1  0  0  0  0  0  0
  188.5800  177.2650  137.2530 C   0  0  2  0  0  3  0  0  0  0  0  0
  187.4130  176.3230  136.9470 C   0  0  0  0  0  2  0  0  0  0  0  0
  187.8110  175.1940  136.0010 C   0  0  0  0  0  2  0  0  0  0  0  0
  186.6640  173.9360  137.6640 F   0  0  0  0  0  0  0  0  0  0  0  0
  187.5940  173.8330  136.6460 C   0  0  0  0  0  0  0  0  0  0  0  0
  188.7910  173.3890  137.1720 F   0  0  0  0  0  0  0  0  0  0  0  0
  187.1510  172.9230  135.7030 F   0  0  0  0  0  0  0  0  0  0  0  0
  189.6540  177.3200  139.5100 C   0  0  2  0  0  3  0  0  0  0  0  0
  191.4320  175.7890  138.4210 C   0  0  0  0  0  0  0  0  0  0  0  0
  190.1400  176.0370  138.9910 N   0  0  0  0  0  2  0  0  0  0  0  0
  192.3560  176.8500  138.2020 N   0  0  0  0  0  1  0  0  0  0  0  0
  191.7470  174.6170  138.0920 O   0  0  0  0  0  0  0  0  0  0  0  0
  189.3450  177.2660  141.0070 C   0  0  0  0  0  2  0  0  0  0  0  0
  190.5460  176.7310  141.7660 C   0  0  0  0  0  2  0  0  0  0  0  0
  190.8140  177.5880  142.9810 C   0  0  0  0  0  2  0  0  0  0  0  0
  191.5530  176.5540  144.2800 S   0  0  0  0  0  0  0  0  0  0  0  0
  190.4990  176.9070  146.8440 S   0  0  0  0  0  0  0  0  0  0  0  0
  190.2230  176.8810  145.4350 C   0  0  0  0  0  0  0  0  0  0  0  0
  188.9220  177.4100  144.9130 C   0  0  0  0  0  2  0  0  0  0  0  0
  186.7350  177.3440  146.1120 C   0  0  0  0  0  1  0  0  0  0  0  0
  188.0840  178.0340  146.0160 C   0  0  0  0  0  2  0  0  0  0  0  0
  187.2580  177.6240  139.2210 O   0  0  0  0  0  0  0  0  0  0  0  0
  186.5780  178.7780  139.3280 O   0  0  0  0  0  0  0  0  0  0  0  0
  185.5000  179.0170  138.5070 N   0  0  0  0  0  0  0  0  0  0  0  0
  184.2980  179.1230  138.9760 C   0  0  0  0  0  0  0  0  0  0  0  0
  183.2680  179.3260  138.1160 F   0  0  0  0  0  0  0  0  0  0  0  0
  183.8250  177.6730  140.7830 O   0  0  0  0  0  1  0  0  0  0  0  0
  184.0280  179.0120  140.4420 C   0  0  1  0  0  3  0  0  0  0  0  0
  185.1310  179.5330  141.1750 O   0  0  0  0  0  0  0  0  0  0  0  0
  185.3870  179.1660  142.4980 C   0  0  0  0  0  0  0  0  0  0  0  0
  186.3440  178.3860  142.7700 O   0  0  0  0  0  0  0  0  0  0  0  0
  184.5910  179.6910  143.5140 O   0  0  0  0  0  0  0  0  0  0  0  0
  183.6670  178.8850  144.2290 C   0  0  0  0  0  2  0  0  0  0  0  0
  183.7620  179.1670  145.5890 O   0  0  0  0  0  1  0  0  0  0  0  0
  2  1  1  6  0  0  0
  2 25  1  0  0  0  0
  2 11  1  0  0  0  0
  4  3  1  6  0  0  0
  4  2  1  0  0  0  0
  5  4  1  0  0  0  0
  6  8  1  0  0  0  0
  6  5  1  0  0  0  0
  8  9  1  0  0  0  0
  8  7  1  0  0  0  0
 10  8  1  0  0  0  0
 11 16  1  1  0  0  0
 12 13  1  0  0  0  0
 13 11  1  0  0  0  0
 14 12  1  0  0  0  0
 15 12  2  0  0  0  0
 16 17  1  0  0  0  0
 17 18  1  0  0  0  0
 18 19  1  0  0  0  0
 19 21  1  0  0  0  0
 21 20  2  0  0  0  0
 22 21  1  0  0  0  0
 22 24  1  0  0  0  0
 24 23  1  0  0  0  0
 25 26  1  0  0  0  0
 27 28  2  0  0  0  0
 27 26  1  0  0  0  0
 28 31  1  0  0  0  0
 29 28  1  0  0  0  0
 31 30  1  1  0  0  0
 31 32  1  0  0  0  0
 32 33  1  0  0  0  0
 33 34  2  0  0  0  0
 33 35  1  0  0  0  0
 35 36  1  0  0  0  0
 36 37  1  0  0  0  0
M  END
>  <MODEL>
9

>  <REMARK>
 VINA RESULT:      -5.5      4.197      8.310
  Name = 
  21 active torsions:
  status: ('A' for Active; 'I' for Inactive)
    1  A    between atoms: N_1  and  O_36
    2  A    between atoms: C_5  and  C_17
    3  A    between atoms: C_6  and  S_8
    4  A    between atoms: C_6  and  C_31
    5  A    between atoms: C_7  and  O_33
    6  A    between atoms: S_8  and  C_19
    7  A    between atoms: C_10  and  C_14
    8  A    between atoms: C_10  and  C_20
    9  A    between atoms: C_10  and  N_22
   10  A    between atoms: C_11  and  O_26
   11  A    between atoms: C_11  and  O_33
   12  A    between atoms: C_14  and  C_31
   13  A    between atoms: C_16  and  C_21
   14  A    between atoms: C_16  and  C_30
   15  A    between atoms: C_17  and  O_26
   16  A    between atoms: C_18  and  C_19
   17  A    between atoms: C_18  and  C_35
   18  A    between atoms: C_20  and  C_24
   19  A    between atoms: C_20  and  O_29
   20  A    between atoms: C_24  and  C_30
   21  A    between atoms: O_29  and  O_36
                            x       y       z     vdW  Elec       q    Type
                         _______ _______ _______ _____ _____    ______ ____

>  <TORSDO>
F 21

$$$$
