=
 OpenBabel10272413183D

 32 33  0  0  1  0  0  0  0  0999 V2000
  188.9780  177.3440  143.6620 C   0  0  1  0  0  3  0  0  0  0  0  0
  187.5570  177.6950  143.9780 C   0  0  0  0  0  0  0  0  0  0  0  0
  187.1970  177.9790  145.3030 C   0  0  0  0  0  3  0  0  0  0  0  0
  183.0480  178.7520  142.5420 C   0  0  0  0  0  3  0  0  0  0  0  0
  186.6080  177.8280  142.9530 C   0  0  0  0  0  3  0  0  0  0  0  0
  183.6380  178.9160  144.8920 C   0  0  0  0  0  3  0  0  0  0  0  0
  184.9430  178.5100  144.5930 C   0  0  0  0  0  0  0  0  0  0  0  0
  185.8930  178.3830  145.6110 C   0  0  0  0  0  3  0  0  0  0  0  0
  185.3020  178.2230  143.2540 C   0  0  0  0  0  0  0  0  0  0  0  0
  182.6920  179.0360  143.8670 C   0  0  0  0  0  3  0  0  0  0  0  0
  184.3510  178.3470  142.2350 C   0  0  0  0  0  3  0  0  0  0  0  0
  189.3590  177.9210  142.4430 O   0  0  0  0  0  0  0  0  0  0  0  0
  189.8030  176.8580  141.6460 C   0  0  0  0  0  2  0  0  0  0  0  0
  190.9660  177.2880  140.8140 C   0  0  0  0  0  0  0  0  0  0  0  0
  192.0590  177.5630  141.3760 O   0  0  0  0  0  0  0  0  0  0  0  0
  190.8460  177.3290  139.4230 O   0  0  0  0  0  0  0  0  0  0  0  0
  189.5980  177.1560  138.7610 C   0  0  0  0  0  2  0  0  0  0  0  0
  189.7750  177.0710  137.2400 C   0  0  1  0  0  3  0  0  0  0  0  0
  189.1960  175.8080  136.6900 C   0  0  0  0  0  0  0  0  0  0  0  0
  188.1770  175.8520  135.7440 O   0  0  0  0  0  1  0  0  0  0  0  0
  189.6580  174.6540  137.0890 C   0  0  0  0  0  0  0  0  0  0  0  0
  190.0920  173.5550  137.4640 O   0  0  0  0  0  0  0  0  0  0  0  0
  189.1950  178.2850  136.5180 C   0  0  0  0  0  2  0  0  0  0  0  0
  187.3550  179.5310  136.9200 O   0  0  0  0  0  1  0  0  0  0  0  0
  188.5460  179.1800  137.4620 N   0  0  0  0  0  2  0  0  0  0  0  0
  189.8550  177.8250  144.7250 N   0  0  0  0  0  2  0  0  0  0  0  0
  191.7210  176.6560  144.5210 O   0  0  0  0  0  1  0  0  0  0  0  0
  190.5640  176.7220  145.2210 N   0  0  0  0  0  0  0  0  0  0  0  0
  190.9310  177.0430  146.5890 C   0  0  0  0  0  2  0  0  0  0  0  0
  189.7530  176.8040  147.5260 C   0  0  0  0  0  2  0  0  0  0  0  0
  187.9790  177.9670  148.8310 C   0  0  0  0  0  1  0  0  0  0  0  0
  189.3920  178.0640  148.2910 C   0  0  0  0  0  2  0  0  0  0  0  0
  1 12  1  6  0  0  0
  1  2  1  0  0  0  0
  1 26  1  0  0  0  0
  2  3  1  0  0  0  0
  3  8  2  0  0  0  0
  4 10  1  0  0  0  0
  5  9  1  0  0  0  0
  5  2  2  0  0  0  0
  7  6  1  0  0  0  0
  7  8  1  0  0  0  0
  9  7  2  0  0  0  0
 10  6  2  0  0  0  0
 11  4  2  0  0  0  0
 11  9  1  0  0  0  0
 13 12  1  0  0  0  0
 14 15  2  0  0  0  0
 14 13  1  0  0  0  0
 16 14  1  0  0  0  0
 17 16  1  0  0  0  0
 18 23  1  6  0  0  0
 18 17  1  0  0  0  0
 19 21  2  0  0  0  0
 19 18  1  0  0  0  0
 20 19  1  0  0  0  0
 21 22  2  0  0  0  0
 23 25  1  0  0  0  0
 24 25  1  0  0  0  0
 26 28  1  0  0  0  0
 27 28  1  0  0  0  0
 28 29  1  0  0  0  0
 29 30  1  0  0  0  0
 30 32  1  0  0  0  0
 32 31  1  0  0  0  0
M  END
>  <MODEL>
1

>  <REMARK>
 VINA RESULT:      -7.9      0.000      0.000
  Name = 
  15 active torsions:
  status: ('A' for Active; 'I' for Inactive)
    1  A    between atoms: O_1  and  C_4
    2  A    between atoms: O_1  and  C_5
    3  A    between atoms: C_2  and  C_5
    4  A    between atoms: C_3  and  C_20
    5  A    between atoms: C_4  and  C_24
    6  A    between atoms: C_5  and  N_14
    7  A    between atoms: C_13  and  C_18
    8  A    between atoms: C_13  and  C_29
    9  A    between atoms: N_14  and  N_30
   10  A    between atoms: C_15  and  O_16
   11  A    between atoms: C_15  and  C_20
   12  A    between atoms: O_16  and  C_24
   13  A    between atoms: C_18  and  N_30
   14  A    between atoms: N_19  and  C_26
   15  A    between atoms: C_20  and  C_26
                            x       y       z     vdW  Elec       q    Type
                         _______ _______ _______ _____ _____    ______ ____

>  <TORSDO>
F 15

$$$$
=
 OpenBabel10272413183D

 32 33  0  0  1  0  0  0  0  0999 V2000
  188.8420  177.5000  142.1690 C   0  0  1  0  0  3  0  0  0  0  0  0
  187.6870  177.7130  143.0980 C   0  0  0  0  0  0  0  0  0  0  0  0
  187.8850  177.5900  144.4810 C   0  0  0  0  0  3  0  0  0  0  0  0
  183.0920  179.0470  143.8870 C   0  0  0  0  0  3  0  0  0  0  0  0
  186.4380  178.1190  142.6050 C   0  0  0  0  0  3  0  0  0  0  0  0
  184.5420  178.5310  145.7660 C   0  0  0  0  0  3  0  0  0  0  0  0
  185.5910  178.2570  144.8820 C   0  0  0  0  0  0  0  0  0  0  0  0
  186.8390  177.8590  145.3710 C   0  0  0  0  0  3  0  0  0  0  0  0
  185.3870  178.3810  143.4870 C   0  0  0  0  0  0  0  0  0  0  0  0
  183.2940  178.9240  145.2680 C   0  0  0  0  0  3  0  0  0  0  0  0
  184.1380  178.7770  142.9970 C   0  0  0  0  0  3  0  0  0  0  0  0
  188.7680  178.3930  141.0920 O   0  0  0  0  0  0  0  0  0  0  0  0
  188.5520  177.5980  139.9580 C   0  0  0  0  0  2  0  0  0  0  0  0
  189.3330  178.1270  138.8010 C   0  0  0  0  0  0  0  0  0  0  0  0
  189.0220  179.2410  138.3040 O   0  0  0  0  0  0  0  0  0  0  0  0
  190.4300  177.4090  138.3190 O   0  0  0  0  0  0  0  0  0  0  0  0
  190.8100  176.1470  138.8560 C   0  0  0  0  0  2  0  0  0  0  0  0
  191.6720  175.3530  137.8690 C   0  0  1  0  0  3  0  0  0  0  0  0
  190.8700  174.8750  136.7020 C   0  0  0  0  0  0  0  0  0  0  0  0
  191.1140  175.3720  135.4250 O   0  0  0  0  0  1  0  0  0  0  0  0
  189.9420  173.9730  136.8770 C   0  0  0  0  0  0  0  0  0  0  0  0
  189.0600  173.1170  137.0370 O   0  0  0  0  0  0  0  0  0  0  0  0
  192.8900  176.1410  137.3930 C   0  0  0  0  0  2  0  0  0  0  0  0
  194.7080  175.5640  138.6030 O   0  0  0  0  0  1  0  0  0  0  0  0
  193.7360  176.5040  138.5190 N   0  0  0  0  0  2  0  0  0  0  0  0
  190.0970  177.7020  142.8860 N   0  0  0  0  0  2  0  0  0  0  0  0
  192.0180  177.2540  141.8860 O   0  0  0  0  0  1  0  0  0  0  0  0
  190.9700  176.6710  142.5140 N   0  0  0  0  0  0  0  0  0  0  0  0
  191.4930  176.1020  143.7440 C   0  0  0  0  0  2  0  0  0  0  0  0
  191.4980  177.1460  144.8530 C   0  0  0  0  0  2  0  0  0  0  0  0
  190.4780  176.8160  147.1010 C   0  0  0  0  0  1  0  0  0  0  0  0
  191.6680  176.5030  146.2170 C   0  0  0  0  0  2  0  0  0  0  0  0
  1 12  1  6  0  0  0
  1 26  1  0  0  0  0
  1  2  1  0  0  0  0
  2  3  1  0  0  0  0
  3  8  2  0  0  0  0
  4 10  1  0  0  0  0
  5  2  2  0  0  0  0
  5  9  1  0  0  0  0
  7  8  1  0  0  0  0
  7  6  1  0  0  0  0
  9  7  2  0  0  0  0
 10  6  2  0  0  0  0
 11  9  1  0  0  0  0
 11  4  2  0  0  0  0
 13 12  1  0  0  0  0
 14 13  1  0  0  0  0
 15 14  2  0  0  0  0
 16 14  1  0  0  0  0
 16 17  1  0  0  0  0
 18 23  1  6  0  0  0
 18 17  1  0  0  0  0
 19 21  2  0  0  0  0
 19 18  1  0  0  0  0
 20 19  1  0  0  0  0
 21 22  2  0  0  0  0
 23 25  1  0  0  0  0
 25 24  1  0  0  0  0
 27 28  1  0  0  0  0
 28 26  1  0  0  0  0
 28 29  1  0  0  0  0
 29 30  1  0  0  0  0
 30 32  1  0  0  0  0
 32 31  1  0  0  0  0
M  END
>  <MODEL>
2

>  <REMARK>
 VINA RESULT:      -7.7      1.994      2.863
  Name = 
  15 active torsions:
  status: ('A' for Active; 'I' for Inactive)
    1  A    between atoms: O_1  and  C_4
    2  A    between atoms: O_1  and  C_5
    3  A    between atoms: C_2  and  C_5
    4  A    between atoms: C_3  and  C_20
    5  A    between atoms: C_4  and  C_24
    6  A    between atoms: C_5  and  N_14
    7  A    between atoms: C_13  and  C_18
    8  A    between atoms: C_13  and  C_29
    9  A    between atoms: N_14  and  N_30
   10  A    between atoms: C_15  and  O_16
   11  A    between atoms: C_15  and  C_20
   12  A    between atoms: O_16  and  C_24
   13  A    between atoms: C_18  and  N_30
   14  A    between atoms: N_19  and  C_26
   15  A    between atoms: C_20  and  C_26
                            x       y       z     vdW  Elec       q    Type
                         _______ _______ _______ _____ _____    ______ ____

>  <TORSDO>
F 15

$$$$
=
 OpenBabel10272413183D

 32 33  0  0  1  0  0  0  0  0999 V2000
  187.9970  178.3830  141.6730 C   0  0  1  0  0  3  0  0  0  0  0  0
  188.8800  177.9200  142.7890 C   0  0  0  0  0  0  0  0  0  0  0  0
  190.2450  177.7090  142.5430 C   0  0  0  0  0  3  0  0  0  0  0  0
  189.5820  176.9110  147.4800 C   0  0  0  0  0  3  0  0  0  0  0  0
  188.3760  177.7830  144.0920 C   0  0  0  0  0  3  0  0  0  0  0  0
  191.4560  176.8490  145.9360 C   0  0  0  0  0  3  0  0  0  0  0  0
  190.6030  177.2040  144.8850 C   0  0  0  0  0  0  0  0  0  0  0  0
  191.1040  177.3490  143.5880 C   0  0  0  0  0  3  0  0  0  0  0  0
  189.2260  177.4170  145.1370 C   0  0  0  0  0  0  0  0  0  0  0  0
  190.9450  176.7020  147.2310 C   0  0  0  0  0  3  0  0  0  0  0  0
  188.7240  177.2690  146.4340 C   0  0  0  0  0  3  0  0  0  0  0  0
  188.3080  177.6960  140.4920 O   0  0  0  0  0  0  0  0  0  0  0  0
  188.8890  178.6500  139.6440 C   0  0  0  0  0  2  0  0  0  0  0  0
  188.5960  178.3180  138.2180 C   0  0  0  0  0  0  0  0  0  0  0  0
  187.5020  178.6840  137.7120 O   0  0  0  0  0  0  0  0  0  0  0  0
  189.5550  177.6560  137.4490 O   0  0  0  0  0  0  0  0  0  0  0  0
  190.3920  176.6380  137.9860 C   0  0  0  0  0  2  0  0  0  0  0  0
  191.5640  176.3220  137.0500 C   0  0  1  0  0  3  0  0  0  0  0  0
  192.8780  176.4950  137.7390 C   0  0  0  0  0  0  0  0  0  0  0  0
  194.0670  176.2050  137.0770 O   0  0  0  0  0  1  0  0  0  0  0  0
  192.9140  176.9370  138.9670 C   0  0  0  0  0  0  0  0  0  0  0  0
  192.9550  177.3550  140.1340 O   0  0  0  0  0  0  0  0  0  0  0  0
  191.4610  174.9270  136.4380 C   0  0  0  0  0  2  0  0  0  0  0  0
  190.0180  173.4540  137.3590 O   0  0  0  0  0  1  0  0  0  0  0  0
  191.2830  173.9250  137.4770 N   0  0  0  0  0  2  0  0  0  0  0  0
  186.5980  178.1490  142.0190 N   0  0  0  0  0  2  0  0  0  0  0  0
  185.5190  179.4000  140.5490 O   0  0  0  0  0  1  0  0  0  0  0  0
  185.9100  179.3570  141.8440 N   0  0  0  0  0  0  0  0  0  0  0  0
  184.6950  179.2640  142.6350 C   0  0  0  0  0  2  0  0  0  0  0  0
  184.9120  178.3550  143.8390 C   0  0  0  0  0  2  0  0  0  0  0  0
  185.2760  178.4630  146.3010 C   0  0  0  0  0  1  0  0  0  0  0  0
  184.5080  179.0430  145.1300 C   0  0  0  0  0  2  0  0  0  0  0  0
  1 12  1  6  0  0  0
  1 26  1  0  0  0  0
  1  2  1  0  0  0  0
  2  5  1  0  0  0  0
  3  2  2  0  0  0  0
  3  8  1  0  0  0  0
  5  9  2  0  0  0  0
  6 10  2  0  0  0  0
  7  9  1  0  0  0  0
  7  6  1  0  0  0  0
  8  7  2  0  0  0  0
  9 11  1  0  0  0  0
 10  4  1  0  0  0  0
 11  4  2  0  0  0  0
 13 12  1  0  0  0  0
 14 13  1  0  0  0  0
 15 14  2  0  0  0  0
 16 17  1  0  0  0  0
 16 14  1  0  0  0  0
 18 23  1  1  0  0  0
 18 19  1  0  0  0  0
 18 17  1  0  0  0  0
 19 21  2  0  0  0  0
 20 19  1  0  0  0  0
 21 22  2  0  0  0  0
 23 25  1  0  0  0  0
 24 25  1  0  0  0  0
 27 28  1  0  0  0  0
 28 26  1  0  0  0  0
 28 29  1  0  0  0  0
 29 30  1  0  0  0  0
 30 32  1  0  0  0  0
 32 31  1  0  0  0  0
M  END
>  <MODEL>
3

>  <REMARK>
 VINA RESULT:      -7.6      2.398      5.341
  Name = 
  15 active torsions:
  status: ('A' for Active; 'I' for Inactive)
    1  A    between atoms: O_1  and  C_4
    2  A    between atoms: O_1  and  C_5
    3  A    between atoms: C_2  and  C_5
    4  A    between atoms: C_3  and  C_20
    5  A    between atoms: C_4  and  C_24
    6  A    between atoms: C_5  and  N_14
    7  A    between atoms: C_13  and  C_18
    8  A    between atoms: C_13  and  C_29
    9  A    between atoms: N_14  and  N_30
   10  A    between atoms: C_15  and  O_16
   11  A    between atoms: C_15  and  C_20
   12  A    between atoms: O_16  and  C_24
   13  A    between atoms: C_18  and  N_30
   14  A    between atoms: N_19  and  C_26
   15  A    between atoms: C_20  and  C_26
                            x       y       z     vdW  Elec       q    Type
                         _______ _______ _______ _____ _____    ______ ____

>  <TORSDO>
F 15

$$$$
=
 OpenBabel10272413183D

 32 33  0  0  1  0  0  0  0  0999 V2000
  188.8230  177.1880  143.7480 C   0  0  1  0  0  3  0  0  0  0  0  0
  187.4100  177.5900  144.0380 C   0  0  0  0  0  0  0  0  0  0  0  0
  187.0390  177.8980  145.3550 C   0  0  0  0  0  3  0  0  0  0  0  0
  182.9640  178.7890  142.5190 C   0  0  0  0  0  3  0  0  0  0  0  0
  186.4830  177.7470  142.9970 C   0  0  0  0  0  3  0  0  0  0  0  0
  183.5210  178.9520  144.8770 C   0  0  0  0  0  3  0  0  0  0  0  0
  184.8160  178.4990  144.6030 C   0  0  0  0  0  0  0  0  0  0  0  0
  185.7450  178.3480  145.6380 C   0  0  0  0  0  3  0  0  0  0  0  0
  185.1870  178.1890  143.2730 C   0  0  0  0  0  0  0  0  0  0  0  0
  182.5970  179.0960  143.8360 C   0  0  0  0  0  3  0  0  0  0  0  0
  184.2580  178.3370  142.2380 C   0  0  0  0  0  3  0  0  0  0  0  0
  189.1870  177.5950  142.4570 O   0  0  0  0  0  0  0  0  0  0  0  0
  189.6250  176.4330  141.8070 C   0  0  0  0  0  2  0  0  0  0  0  0
  190.6630  176.7730  140.7890 C   0  0  0  0  0  0  0  0  0  0  0  0
  191.5880  177.5710  141.0940 O   0  0  0  0  0  0  0  0  0  0  0  0
  190.6280  176.1640  139.5330 O   0  0  0  0  0  0  0  0  0  0  0  0
  190.5140  176.9110  138.3270 C   0  0  0  0  0  2  0  0  0  0  0  0
  189.1090  176.7930  137.7250 C   0  0  1  0  0  3  0  0  0  0  0  0
  188.3170  178.0440  137.9320 C   0  0  0  0  0  0  0  0  0  0  0  0
  188.9580  179.2720  138.0640 O   0  0  0  0  0  1  0  0  0  0  0  0
  187.0130  177.9870  137.9760 C   0  0  0  0  0  0  0  0  0  0  0  0
  185.7750  177.9400  138.0190 O   0  0  0  0  0  0  0  0  0  0  0  0
  189.1390  176.4190  136.2450 C   0  0  0  0  0  2  0  0  0  0  0  0
  190.4920  176.7230  134.4620 O   0  0  0  0  0  1  0  0  0  0  0  0
  190.5090  176.3460  135.7630 N   0  0  0  0  0  2  0  0  0  0  0  0
  189.7210  177.7990  144.7230 N   0  0  0  0  0  2  0  0  0  0  0  0
  191.7870  177.0600  144.4440 O   0  0  0  0  0  1  0  0  0  0  0  0
  190.6410  176.8210  145.1240 N   0  0  0  0  0  0  0  0  0  0  0  0
  190.9350  177.0730  146.5240 C   0  0  0  0  0  2  0  0  0  0  0  0
  189.7040  176.8100  147.3830 C   0  0  0  0  0  2  0  0  0  0  0  0
  187.9610  177.8860  148.7990 C   0  0  0  0  0  1  0  0  0  0  0  0
  189.3660  178.0120  148.2450 C   0  0  0  0  0  2  0  0  0  0  0  0
  1 12  1  6  0  0  0
  1  2  1  0  0  0  0
  1 26  1  0  0  0  0
  2  3  1  0  0  0  0
  3  8  2  0  0  0  0
  4 10  1  0  0  0  0
  5  9  1  0  0  0  0
  5  2  2  0  0  0  0
  7  6  1  0  0  0  0
  7  8  1  0  0  0  0
  9  7  2  0  0  0  0
 10  6  2  0  0  0  0
 11  4  2  0  0  0  0
 11  9  1  0  0  0  0
 13 12  1  0  0  0  0
 14 15  2  0  0  0  0
 14 13  1  0  0  0  0
 16 14  1  0  0  0  0
 17 16  1  0  0  0  0
 18 23  1  6  0  0  0
 18 19  1  0  0  0  0
 18 17  1  0  0  0  0
 19 21  2  0  0  0  0
 19 20  1  0  0  0  0
 21 22  2  0  0  0  0
 24 25  1  0  0  0  0
 25 23  1  0  0  0  0
 26 28  1  0  0  0  0
 27 28  1  0  0  0  0
 28 29  1  0  0  0  0
 29 30  1  0  0  0  0
 30 32  1  0  0  0  0
 32 31  1  0  0  0  0
M  END
>  <MODEL>
4

>  <REMARK>
 VINA RESULT:      -7.6      1.252      2.008
  Name = 
  15 active torsions:
  status: ('A' for Active; 'I' for Inactive)
    1  A    between atoms: O_1  and  C_4
    2  A    between atoms: O_1  and  C_5
    3  A    between atoms: C_2  and  C_5
    4  A    between atoms: C_3  and  C_20
    5  A    between atoms: C_4  and  C_24
    6  A    between atoms: C_5  and  N_14
    7  A    between atoms: C_13  and  C_18
    8  A    between atoms: C_13  and  C_29
    9  A    between atoms: N_14  and  N_30
   10  A    between atoms: C_15  and  O_16
   11  A    between atoms: C_15  and  C_20
   12  A    between atoms: O_16  and  C_24
   13  A    between atoms: C_18  and  N_30
   14  A    between atoms: N_19  and  C_26
   15  A    between atoms: C_20  and  C_26
                            x       y       z     vdW  Elec       q    Type
                         _______ _______ _______ _____ _____    ______ ____

>  <TORSDO>
F 15

$$$$
=
 OpenBabel10272413183D

 32 33  0  0  1  0  0  0  0  0999 V2000
  189.6090  177.2580  142.9290 C   0  0  1  0  0  3  0  0  0  0  0  0
  188.2250  177.7150  143.2730 C   0  0  0  0  0  0  0  0  0  0  0  0
  187.3400  178.0640  142.2420 C   0  0  0  0  0  3  0  0  0  0  0  0
  184.7000  178.4340  146.5240 C   0  0  0  0  0  3  0  0  0  0  0  0
  187.7790  177.7100  144.6040 C   0  0  0  0  0  3  0  0  0  0  0  0
  184.2540  178.7770  144.1610 C   0  0  0  0  0  3  0  0  0  0  0  0
  185.5740  178.4250  143.8610 C   0  0  0  0  0  0  0  0  0  0  0  0
  186.0190  178.4210  142.5340 C   0  0  0  0  0  3  0  0  0  0  0  0
  186.4640  178.0730  144.9040 C   0  0  0  0  0  0  0  0  0  0  0  0
  183.8180  178.7830  145.4910 C   0  0  0  0  0  3  0  0  0  0  0  0
  186.0210  178.0790  146.2300 C   0  0  0  0  0  3  0  0  0  0  0  0
  189.9960  177.7780  141.6870 O   0  0  0  0  0  0  0  0  0  0  0  0
  190.2590  176.6650  140.8780 C   0  0  0  0  0  2  0  0  0  0  0  0
  190.5180  177.0980  139.4730 C   0  0  0  0  0  0  0  0  0  0  0  0
  191.4530  176.5600  138.8240 O   0  0  0  0  0  0  0  0  0  0  0  0
  189.6910  178.0540  138.8780 O   0  0  0  0  0  0  0  0  0  0  0  0
  188.2710  177.9820  138.9490 C   0  0  0  0  0  2  0  0  0  0  0  0
  187.6390  177.9640  137.5520 C   0  0  1  0  0  3  0  0  0  0  0  0
  187.9520  176.6970  136.8250 C   0  0  0  0  0  0  0  0  0  0  0  0
  188.9960  176.6480  135.9070 O   0  0  0  0  0  1  0  0  0  0  0  0
  187.2510  175.6210  137.0640 C   0  0  0  0  0  0  0  0  0  0  0  0
  186.5890  174.5970  137.2860 O   0  0  0  0  0  0  0  0  0  0  0  0
  186.1310  178.1990  137.5920 C   0  0  0  0  0  2  0  0  0  0  0  0
  184.8010  179.5460  138.8240 O   0  0  0  0  0  1  0  0  0  0  0  0
  185.7020  178.5410  138.9390 N   0  0  0  0  0  2  0  0  0  0  0  0
  190.5460  177.7000  143.9570 N   0  0  0  0  0  2  0  0  0  0  0  0
  191.7730  175.8640  144.0730 O   0  0  0  0  0  1  0  0  0  0  0  0
  190.8550  176.5900  144.7550 N   0  0  0  0  0  0  0  0  0  0  0  0
  191.5300  177.0990  145.9360 C   0  0  0  0  0  2  0  0  0  0  0  0
  190.9580  176.4580  147.1940 C   0  0  0  0  0  2  0  0  0  0  0  0
  189.1710  177.8980  148.1590 C   0  0  0  0  0  1  0  0  0  0  0  0
  189.4620  176.6850  147.2980 C   0  0  0  0  0  2  0  0  0  0  0  0
  1 12  1  6  0  0  0
  1  2  1  0  0  0  0
  1 26  1  0  0  0  0
  2  5  1  0  0  0  0
  3  8  1  0  0  0  0
  3  2  2  0  0  0  0
  5  9  2  0  0  0  0
  6 10  2  0  0  0  0
  7  6  1  0  0  0  0
  7  9  1  0  0  0  0
  8  7  2  0  0  0  0
  9 11  1  0  0  0  0
 10  4  1  0  0  0  0
 11  4  2  0  0  0  0
 13 12  1  0  0  0  0
 14 13  1  0  0  0  0
 15 14  2  0  0  0  0
 16 17  1  0  0  0  0
 16 14  1  0  0  0  0
 18 23  1  1  0  0  0
 18 17  1  0  0  0  0
 19 21  2  0  0  0  0
 19 18  1  0  0  0  0
 20 19  1  0  0  0  0
 21 22  2  0  0  0  0
 23 25  1  0  0  0  0
 24 25  1  0  0  0  0
 26 28  1  0  0  0  0
 27 28  1  0  0  0  0
 28 29  1  0  0  0  0
 29 30  1  0  0  0  0
 30 32  1  0  0  0  0
 32 31  1  0  0  0  0
M  END
>  <MODEL>
5

>  <REMARK>
 VINA RESULT:      -7.6      1.587      2.228
  Name = 
  15 active torsions:
  status: ('A' for Active; 'I' for Inactive)
    1  A    between atoms: O_1  and  C_4
    2  A    between atoms: O_1  and  C_5
    3  A    between atoms: C_2  and  C_5
    4  A    between atoms: C_3  and  C_20
    5  A    between atoms: C_4  and  C_24
    6  A    between atoms: C_5  and  N_14
    7  A    between atoms: C_13  and  C_18
    8  A    between atoms: C_13  and  C_29
    9  A    between atoms: N_14  and  N_30
   10  A    between atoms: C_15  and  O_16
   11  A    between atoms: C_15  and  C_20
   12  A    between atoms: O_16  and  C_24
   13  A    between atoms: C_18  and  N_30
   14  A    between atoms: N_19  and  C_26
   15  A    between atoms: C_20  and  C_26
                            x       y       z     vdW  Elec       q    Type
                         _______ _______ _______ _____ _____    ______ ____

>  <TORSDO>
F 15

$$$$
=
 OpenBabel10272413183D

 32 33  0  0  1  0  0  0  0  0999 V2000
  189.4560  177.4430  143.8940 C   0  0  1  0  0  3  0  0  0  0  0  0
  188.0160  177.8130  143.7160 C   0  0  0  0  0  0  0  0  0  0  0  0
  187.4690  177.8430  142.4250 C   0  0  0  0  0  3  0  0  0  0  0  0
  183.6530  178.8220  145.5760 C   0  0  0  0  0  3  0  0  0  0  0  0
  187.1930  178.0410  144.8290 C   0  0  0  0  0  3  0  0  0  0  0  0
  183.9240  178.6120  143.1710 C   0  0  0  0  0  3  0  0  0  0  0  0
  185.2860  178.3460  143.3470 C   0  0  0  0  0  0  0  0  0  0  0  0
  186.1080  178.1120  142.2400 C   0  0  0  0  0  3  0  0  0  0  0  0
  185.8350  178.3170  144.6520 C   0  0  0  0  0  0  0  0  0  0  0  0
  183.1100  178.8510  144.2840 C   0  0  0  0  0  3  0  0  0  0  0  0
  185.0140  178.5550  145.7590 C   0  0  0  0  0  3  0  0  0  0  0  0
  190.2350  178.0280  142.8870 O   0  0  0  0  0  0  0  0  0  0  0  0
  191.1020  177.0190  142.4470 C   0  0  0  0  0  2  0  0  0  0  0  0
  191.2820  177.1020  140.9680 C   0  0  0  0  0  0  0  0  0  0  0  0
  192.3250  177.6330  140.5020 O   0  0  0  0  0  0  0  0  0  0  0  0
  190.3220  176.5450  140.1200 O   0  0  0  0  0  0  0  0  0  0  0  0
  189.5010  177.3410  139.2730 C   0  0  0  0  0  2  0  0  0  0  0  0
  190.1240  177.5100  137.8830 C   0  0  1  0  0  3  0  0  0  0  0  0
  190.7630  176.2440  137.4110 C   0  0  0  0  0  0  0  0  0  0  0  0
  189.9960  175.1020  137.1990 O   0  0  0  0  0  1  0  0  0  0  0  0
  192.0470  176.2110  137.1800 C   0  0  0  0  0  0  0  0  0  0  0  0
  193.2660  176.1740  136.9600 O   0  0  0  0  0  0  0  0  0  0  0  0
  189.1200  178.0190  136.8510 C   0  0  0  0  0  2  0  0  0  0  0  0
  187.2860  179.2940  137.1860 O   0  0  0  0  0  1  0  0  0  0  0  0
  188.6390  179.3430  137.2160 N   0  0  0  0  0  2  0  0  0  0  0  0
  189.9260  177.8970  145.2000 N   0  0  0  0  0  2  0  0  0  0  0  0
  191.7830  177.1560  146.1450 O   0  0  0  0  0  1  0  0  0  0  0  0
  190.5110  176.7990  145.8450 N   0  0  0  0  0  0  0  0  0  0  0  0
  189.8200  176.6420  147.1130 C   0  0  0  0  0  2  0  0  0  0  0  0
  190.1440  177.8050  148.0430 C   0  0  0  0  0  2  0  0  0  0  0  0
  187.6730  177.5750  148.2560 C   0  0  0  0  0  1  0  0  0  0  0  0
  188.8830  178.4040  148.6380 C   0  0  0  0  0  2  0  0  0  0  0  0
  1 12  1  6  0  0  0
  1 26  1  0  0  0  0
  2  1  1  0  0  0  0
  2  5  1  0  0  0  0
  3  2  2  0  0  0  0
  4 11  2  0  0  0  0
  6  7  1  0  0  0  0
  6 10  2  0  0  0  0
  7  9  1  0  0  0  0
  8  3  1  0  0  0  0
  8  7  2  0  0  0  0
  9  5  2  0  0  0  0
  9 11  1  0  0  0  0
 10  4  1  0  0  0  0
 13 12  1  0  0  0  0
 14 13  1  0  0  0  0
 15 14  2  0  0  0  0
 16 14  1  0  0  0  0
 17 16  1  0  0  0  0
 18 23  1  6  0  0  0
 18 17  1  0  0  0  0
 19 18  1  0  0  0  0
 20 19  1  0  0  0  0
 21 19  2  0  0  0  0
 22 21  2  0  0  0  0
 23 25  1  0  0  0  0
 24 25  1  0  0  0  0
 26 28  1  0  0  0  0
 28 27  1  0  0  0  0
 28 29  1  0  0  0  0
 29 30  1  0  0  0  0
 30 32  1  0  0  0  0
 31 32  1  0  0  0  0
M  END
>  <MODEL>
6

>  <REMARK>
 VINA RESULT:      -7.6      1.150      1.799
  Name = 
  15 active torsions:
  status: ('A' for Active; 'I' for Inactive)
    1  A    between atoms: O_1  and  C_4
    2  A    between atoms: O_1  and  C_5
    3  A    between atoms: C_2  and  C_5
    4  A    between atoms: C_3  and  C_20
    5  A    between atoms: C_4  and  C_24
    6  A    between atoms: C_5  and  N_14
    7  A    between atoms: C_13  and  C_18
    8  A    between atoms: C_13  and  C_29
    9  A    between atoms: N_14  and  N_30
   10  A    between atoms: C_15  and  O_16
   11  A    between atoms: C_15  and  C_20
   12  A    between atoms: O_16  and  C_24
   13  A    between atoms: C_18  and  N_30
   14  A    between atoms: N_19  and  C_26
   15  A    between atoms: C_20  and  C_26
                            x       y       z     vdW  Elec       q    Type
                         _______ _______ _______ _____ _____    ______ ____

>  <TORSDO>
F 15

$$$$
=
 OpenBabel10272413183D

 32 33  0  0  1  0  0  0  0  0999 V2000
  188.9200  177.3810  142.6100 C   0  0  1  0  0  3  0  0  0  0  0  0
  187.6930  177.6580  143.4220 C   0  0  0  0  0  0  0  0  0  0  0  0
  187.7660  177.5980  144.8220 C   0  0  0  0  0  3  0  0  0  0  0  0
  183.0760  179.1070  143.7390 C   0  0  0  0  0  3  0  0  0  0  0  0
  186.5000  178.0620  142.8020 C   0  0  0  0  0  3  0  0  0  0  0  0
  184.3430  178.6560  145.7610 C   0  0  0  0  0  3  0  0  0  0  0  0
  185.4600  178.3220  144.9870 C   0  0  0  0  0  0  0  0  0  0  0  0
  186.6520  177.9270  145.6030 C   0  0  0  0  0  3  0  0  0  0  0  0
  185.3830  178.3840  143.5750 C   0  0  0  0  0  0  0  0  0  0  0  0
  183.1530  179.0470  145.1370 C   0  0  0  0  0  3  0  0  0  0  0  0
  184.1900  178.7760  142.9590 C   0  0  0  0  0  3  0  0  0  0  0  0
  188.9750  178.2430  141.5070 O   0  0  0  0  0  0  0  0  0  0  0  0
  188.7980  177.4270  140.3820 C   0  0  0  0  0  2  0  0  0  0  0  0
  189.4720  178.0320  139.1950 C   0  0  0  0  0  0  0  0  0  0  0  0
  188.9790  179.0610  138.6640 O   0  0  0  0  0  0  0  0  0  0  0  0
  190.6660  177.4840  138.7210 O   0  0  0  0  0  0  0  0  0  0  0  0
  190.8750  176.0790  138.6300 C   0  0  0  0  0  2  0  0  0  0  0  0
  191.8070  175.7250  137.4640 C   0  0  1  0  0  3  0  0  0  0  0  0
  193.2280  175.6150  137.9130 C   0  0  0  0  0  0  0  0  0  0  0  0
  193.8470  176.6770  138.5650 O   0  0  0  0  0  1  0  0  0  0  0  0
  193.8910  174.5090  137.7060 C   0  0  0  0  0  0  0  0  0  0  0  0
  194.5250  173.4620  137.5110 O   0  0  0  0  0  0  0  0  0  0  0  0
  191.3750  174.4520  136.7400 C   0  0  0  0  0  2  0  0  0  0  0  0
  189.1770  174.0220  136.4440 O   0  0  0  0  0  1  0  0  0  0  0  0
  190.1770  173.8970  137.3500 N   0  0  0  0  0  2  0  0  0  0  0  0
  190.1110  177.5650  143.4350 N   0  0  0  0  0  2  0  0  0  0  0  0
  191.9890  177.0590  142.3840 O   0  0  0  0  0  1  0  0  0  0  0  0
  190.9990  176.5240  143.1360 N   0  0  0  0  0  0  0  0  0  0  0  0
  191.6100  176.1220  144.3910 C   0  0  0  0  0  2  0  0  0  0  0  0
  191.3710  177.1810  145.4610 C   0  0  0  0  0  2  0  0  0  0  0  0
  192.3590  175.5740  147.0870 C   0  0  0  0  0  1  0  0  0  0  0  0
  191.2310  176.5550  146.8360 C   0  0  0  0  0  2  0  0  0  0  0  0
  1 12  1  6  0  0  0
  1  2  1  0  0  0  0
  1 26  1  0  0  0  0
  2  3  1  0  0  0  0
  3  8  2  0  0  0  0
  4 10  1  0  0  0  0
  5  2  2  0  0  0  0
  5  9  1  0  0  0  0
  7  8  1  0  0  0  0
  7  6  1  0  0  0  0
  9  7  2  0  0  0  0
 10  6  2  0  0  0  0
 11  9  1  0  0  0  0
 11  4  2  0  0  0  0
 13 12  1  0  0  0  0
 14 13  1  0  0  0  0
 15 14  2  0  0  0  0
 16 14  1  0  0  0  0
 17 16  1  0  0  0  0
 18 23  1  1  0  0  0
 18 19  1  0  0  0  0
 18 17  1  0  0  0  0
 19 20  1  0  0  0  0
 21 19  2  0  0  0  0
 22 21  2  0  0  0  0
 23 25  1  0  0  0  0
 24 25  1  0  0  0  0
 27 28  1  0  0  0  0
 28 26  1  0  0  0  0
 28 29  1  0  0  0  0
 29 30  1  0  0  0  0
 30 32  1  0  0  0  0
 32 31  1  0  0  0  0
M  END
>  <MODEL>
7

>  <REMARK>
 VINA RESULT:      -7.5      2.124      2.998
  Name = 
  15 active torsions:
  status: ('A' for Active; 'I' for Inactive)
    1  A    between atoms: O_1  and  C_4
    2  A    between atoms: O_1  and  C_5
    3  A    between atoms: C_2  and  C_5
    4  A    between atoms: C_3  and  C_20
    5  A    between atoms: C_4  and  C_24
    6  A    between atoms: C_5  and  N_14
    7  A    between atoms: C_13  and  C_18
    8  A    between atoms: C_13  and  C_29
    9  A    between atoms: N_14  and  N_30
   10  A    between atoms: C_15  and  O_16
   11  A    between atoms: C_15  and  C_20
   12  A    between atoms: O_16  and  C_24
   13  A    between atoms: C_18  and  N_30
   14  A    between atoms: N_19  and  C_26
   15  A    between atoms: C_20  and  C_26
                            x       y       z     vdW  Elec       q    Type
                         _______ _______ _______ _____ _____    ______ ____

>  <TORSDO>
F 15

$$$$
=
 OpenBabel10272413183D

 32 33  0  0  1  0  0  0  0  0999 V2000
  188.9170  177.4490  143.6780 C   0  0  1  0  0  3  0  0  0  0  0  0
  187.4800  177.7440  143.9760 C   0  0  0  0  0  0  0  0  0  0  0  0
  187.0780  177.9310  145.3070 C   0  0  0  0  0  3  0  0  0  0  0  0
  182.9860  178.7890  142.4840 C   0  0  0  0  0  3  0  0  0  0  0  0
  186.5550  177.9240  142.9350 C   0  0  0  0  0  3  0  0  0  0  0  0
  183.5090  178.8100  144.8560 C   0  0  0  0  0  3  0  0  0  0  0  0
  184.8310  178.4550  144.5690 C   0  0  0  0  0  0  0  0  0  0  0  0
  185.7560  178.2830  145.6030 C   0  0  0  0  0  3  0  0  0  0  0  0
  185.2330  178.2670  143.2240 C   0  0  0  0  0  0  0  0  0  0  0  0
  182.5880  178.9760  143.8150 C   0  0  0  0  0  3  0  0  0  0  0  0
  184.3070  178.4360  142.1900 C   0  0  0  0  0  3  0  0  0  0  0  0
  189.3130  178.1020  142.5030 O   0  0  0  0  0  0  0  0  0  0  0  0
  189.8200  177.0990  141.6670 C   0  0  0  0  0  2  0  0  0  0  0  0
  189.4260  177.3610  140.2510 C   0  0  0  0  0  0  0  0  0  0  0  0
  188.7180  178.3670  139.9830 O   0  0  0  0  0  0  0  0  0  0  0  0
  189.8900  176.5210  139.2350 O   0  0  0  0  0  0  0  0  0  0  0  0
  191.2340  176.5610  138.7690 C   0  0  0  0  0  2  0  0  0  0  0  0
  191.6030  175.2810  138.0110 C   0  0  1  0  0  3  0  0  0  0  0  0
  190.5110  174.8600  137.0810 C   0  0  0  0  0  0  0  0  0  0  0  0
  189.7560  173.7220  137.3470 O   0  0  0  0  0  1  0  0  0  0  0  0
  190.2520  175.5740  136.0190 C   0  0  0  0  0  0  0  0  0  0  0  0
  190.0010  176.2470  135.0090 O   0  0  0  0  0  0  0  0  0  0  0  0
  192.9250  175.4110  137.2580 C   0  0  0  0  0  2  0  0  0  0  0  0
  195.1350  175.4100  137.7270 O   0  0  0  0  0  1  0  0  0  0  0  0
  193.9910  174.7270  137.9740 N   0  0  0  0  0  2  0  0  0  0  0  0
  189.7540  177.8920  144.7890 N   0  0  0  0  0  2  0  0  0  0  0  0
  191.8040  177.1090  144.5140 O   0  0  0  0  0  1  0  0  0  0  0  0
  190.6200  176.8400  145.1140 N   0  0  0  0  0  0  0  0  0  0  0  0
  190.8580  176.9220  146.5450 C   0  0  0  0  0  2  0  0  0  0  0  0
  189.5430  176.8320  147.3090 C   0  0  0  0  0  2  0  0  0  0  0  0
  187.9470  178.0400  148.7900 C   0  0  0  0  0  1  0  0  0  0  0  0
  189.3520  178.0280  148.2230 C   0  0  0  0  0  2  0  0  0  0  0  0
  1 12  1  6  0  0  0
  1  2  1  0  0  0  0
  1 26  1  0  0  0  0
  2  3  1  0  0  0  0
  3  8  2  0  0  0  0
  4 10  1  0  0  0  0
  5  9  1  0  0  0  0
  5  2  2  0  0  0  0
  7  6  1  0  0  0  0
  7  8  1  0  0  0  0
  9  7  2  0  0  0  0
 10  6  2  0  0  0  0
 11  4  2  0  0  0  0
 11  9  1  0  0  0  0
 13 12  1  0  0  0  0
 14 13  1  0  0  0  0
 15 14  2  0  0  0  0
 16 14  1  0  0  0  0
 17 16  1  0  0  0  0
 18 23  1  6  0  0  0
 18 17  1  0  0  0  0
 19 20  1  0  0  0  0
 19 18  1  0  0  0  0
 21 19  2  0  0  0  0
 22 21  2  0  0  0  0
 23 25  1  0  0  0  0
 24 25  1  0  0  0  0
 26 28  1  0  0  0  0
 27 28  1  0  0  0  0
 28 29  1  0  0  0  0
 29 30  1  0  0  0  0
 30 32  1  0  0  0  0
 32 31  1  0  0  0  0
M  END
>  <MODEL>
8

>  <REMARK>
 VINA RESULT:      -7.4      1.863      2.546
  Name = 
  15 active torsions:
  status: ('A' for Active; 'I' for Inactive)
    1  A    between atoms: O_1  and  C_4
    2  A    between atoms: O_1  and  C_5
    3  A    between atoms: C_2  and  C_5
    4  A    between atoms: C_3  and  C_20
    5  A    between atoms: C_4  and  C_24
    6  A    between atoms: C_5  and  N_14
    7  A    between atoms: C_13  and  C_18
    8  A    between atoms: C_13  and  C_29
    9  A    between atoms: N_14  and  N_30
   10  A    between atoms: C_15  and  O_16
   11  A    between atoms: C_15  and  C_20
   12  A    between atoms: O_16  and  C_24
   13  A    between atoms: C_18  and  N_30
   14  A    between atoms: N_19  and  C_26
   15  A    between atoms: C_20  and  C_26
                            x       y       z     vdW  Elec       q    Type
                         _______ _______ _______ _____ _____    ______ ____

>  <TORSDO>
F 15

$$$$
=
 OpenBabel10272413183D

 32 33  0  0  1  0  0  0  0  0999 V2000
  188.9190  177.3700  142.3960 C   0  0  1  0  0  3  0  0  0  0  0  0
  187.6940  177.6730  143.2020 C   0  0  0  0  0  0  0  0  0  0  0  0
  187.7730  177.6660  144.6030 C   0  0  0  0  0  3  0  0  0  0  0  0
  183.0730  179.1160  143.4840 C   0  0  0  0  0  3  0  0  0  0  0  0
  186.4970  178.0490  142.5730 C   0  0  0  0  0  3  0  0  0  0  0  0
  184.3500  178.7450  145.5160 C   0  0  0  0  0  3  0  0  0  0  0  0
  185.4650  178.3870  144.7510 C   0  0  0  0  0  0  0  0  0  0  0  0
  186.6610  178.0190  145.3760 C   0  0  0  0  0  3  0  0  0  0  0  0
  185.3820  178.3950  143.3370 C   0  0  0  0  0  0  0  0  0  0  0  0
  183.1560  179.1080  144.8820 C   0  0  0  0  0  3  0  0  0  0  0  0
  184.1850  178.7600  142.7120 C   0  0  0  0  0  3  0  0  0  0  0  0
  188.9420  178.1560  141.2360 O   0  0  0  0  0  0  0  0  0  0  0  0
  189.1200  177.2570  140.1760 C   0  0  0  0  0  2  0  0  0  0  0  0
  189.3480  178.0020  138.9020 C   0  0  0  0  0  0  0  0  0  0  0  0
  188.9090  179.1760  138.7870 O   0  0  0  0  0  0  0  0  0  0  0  0
  190.0880  177.4100  137.8760 O   0  0  0  0  0  0  0  0  0  0  0  0
  189.4830  176.9260  136.6820 C   0  0  0  0  0  2  0  0  0  0  0  0
  188.9350  175.5060  136.8660 C   0  0  1  0  0  3  0  0  0  0  0  0
  187.4400  175.4950  136.8910 C   0  0  0  0  0  0  0  0  0  0  0  0
  186.7210  176.6640  136.6620 O   0  0  0  0  0  1  0  0  0  0  0  0
  186.8030  174.3770  137.1140 C   0  0  0  0  0  0  0  0  0  0  0  0
  186.1930  173.3200  137.3250 O   0  0  0  0  0  0  0  0  0  0  0  0
  189.4590  174.5380  135.8090 C   0  0  0  0  0  2  0  0  0  0  0  0
  190.4810  173.8940  137.7170 O   0  0  0  0  0  1  0  0  0  0  0  0
  190.3720  173.5750  136.4050 N   0  0  0  0  0  2  0  0  0  0  0  0
  190.1130  177.6380  143.1920 N   0  0  0  0  0  2  0  0  0  0  0  0
  192.0650  177.1510  142.2720 O   0  0  0  0  0  1  0  0  0  0  0  0
  191.0260  176.6040  142.9480 N   0  0  0  0  0  0  0  0  0  0  0  0
  191.5490  176.1950  144.2400 C   0  0  0  0  0  2  0  0  0  0  0  0
  191.3870  177.3170  145.2590 C   0  0  0  0  0  2  0  0  0  0  0  0
  192.0470  175.7880  147.1110 C   0  0  0  0  0  1  0  0  0  0  0  0
  191.0040  176.7730  146.6220 C   0  0  0  0  0  2  0  0  0  0  0  0
  1 12  1  6  0  0  0
  1 26  1  0  0  0  0
  1  2  1  0  0  0  0
  2  3  1  0  0  0  0
  3  8  2  0  0  0  0
  4 10  1  0  0  0  0
  5  2  2  0  0  0  0
  5  9  1  0  0  0  0
  7  8  1  0  0  0  0
  7  6  1  0  0  0  0
  9  7  2  0  0  0  0
 10  6  2  0  0  0  0
 11  9  1  0  0  0  0
 11  4  2  0  0  0  0
 13 12  1  0  0  0  0
 14 13  1  0  0  0  0
 15 14  2  0  0  0  0
 16 14  1  0  0  0  0
 17 18  1  0  0  0  0
 17 16  1  0  0  0  0
 18 23  1  6  0  0  0
 18 19  1  0  0  0  0
 19 21  2  0  0  0  0
 20 19  1  0  0  0  0
 21 22  2  0  0  0  0
 23 25  1  0  0  0  0
 25 24  1  0  0  0  0
 27 28  1  0  0  0  0
 28 26  1  0  0  0  0
 28 29  1  0  0  0  0
 29 30  1  0  0  0  0
 30 32  1  0  0  0  0
 32 31  1  0  0  0  0
M  END
>  <MODEL>
9

>  <REMARK>
 VINA RESULT:      -7.4      1.820      2.690
  Name = 
  15 active torsions:
  status: ('A' for Active; 'I' for Inactive)
    1  A    between atoms: O_1  and  C_4
    2  A    between atoms: O_1  and  C_5
    3  A    between atoms: C_2  and  C_5
    4  A    between atoms: C_3  and  C_20
    5  A    between atoms: C_4  and  C_24
    6  A    between atoms: C_5  and  N_14
    7  A    between atoms: C_13  and  C_18
    8  A    between atoms: C_13  and  C_29
    9  A    between atoms: N_14  and  N_30
   10  A    between atoms: C_15  and  O_16
   11  A    between atoms: C_15  and  C_20
   12  A    between atoms: O_16  and  C_24
   13  A    between atoms: C_18  and  N_30
   14  A    between atoms: N_19  and  C_26
   15  A    between atoms: C_20  and  C_26
                            x       y       z     vdW  Elec       q    Type
                         _______ _______ _______ _____ _____    ______ ____

>  <TORSDO>
F 15

$$$$
