=
 OpenBabel10272414443D

 37 44  0  0  1  0  0  0  0  0999 V2000
  187.3430  175.4540  136.7570 C   0  0  0  0  0  2  0  0  0  0  0  0
  189.8690  177.0430  139.8300 C   0  0  0  0  0  0  0  0  0  0  0  0
  186.6820  174.1010  136.6010 C   0  0  1  0  0  3  0  0  0  0  0  0
  191.8810  175.0560  137.3090 C   0  0  0  0  0  2  0  0  0  0  0  0
  187.9190  178.2280  140.7030 C   0  0  0  0  0  0  0  0  0  0  0  0
  190.3350  176.5450  138.6850 C   0  0  0  0  0  0  0  0  0  0  0  0
  189.5270  174.5670  135.0310 C   0  0  1  0  0  3  0  0  0  0  0  0
  188.6170  177.7480  139.6510 C   0  0  0  0  0  0  0  0  0  0  0  0
  191.6880  175.9360  138.5120 C   0  0  0  0  0  0  0  0  0  0  0  0
  188.4740  178.0330  142.0610 C   0  0  0  0  0  3  0  0  0  0  0  0
  187.4320  173.3390  135.5260 C   0  0  0  0  0  2  0  0  0  0  0  0
  188.3190  177.6550  138.1950 C   0  0  0  0  0  0  0  0  0  0  0  0
  188.5780  179.0110  137.5540 C   0  0  0  0  0  2  0  0  0  0  0  0
  191.8210  177.6660  141.1280 C   0  0  0  0  0  3  0  0  0  0  0  0
  189.6600  177.4450  142.2760 C   0  0  0  0  0  3  0  0  0  0  0  0
  187.2200  178.3680  137.4200 C   0  0  0  0  0  2  0  0  0  0  0  0
  188.9510  173.3260  135.7210 C   0  0  2  0  0  3  0  0  0  0  0  0
  190.8450  173.9510  137.2530 C   0  0  0  0  0  2  0  0  0  0  0  0
  190.5370  176.9230  141.1620 C   0  0  1  0  0  3  0  0  0  0  0  0
  189.3010  176.6440  137.5720 C   0  0  2  0  0  3  0  0  0  0  0  0
  192.7870  176.2830  139.2520 C   0  0  0  0  0  0  0  0  0  0  0  0
  189.5830  174.4510  136.5550 C   0  0  1  0  0  0  0  0  0  0  0  0
  190.8320  174.1960  134.3460 C   0  0  0  0  0  1  0  0  0  0  0  0
  188.6760  175.3140  137.3600 N   0  0  2  0  0  0  0  0  0  0  0  0
  192.8040  177.3500  140.2870 C   0  0  0  0  0  3  0  0  0  0  0  0
  194.3360  174.9750  137.8610 C   0  0  0  0  0  3  0  0  0  0  0  0
  194.1200  175.6870  138.9780 C   0  0  0  0  0  0  0  0  0  0  0  0
  195.1960  175.7880  139.9910 C   0  0  0  0  0  3  0  0  0  0  0  0
  197.2850  175.1440  140.8680 O   0  0  0  0  0  1  0  0  0  0  0  0
  196.4030  173.9660  138.8440 C   0  0  0  0  0  2  0  0  0  0  0  0
  196.2850  175.0170  139.9150 C   0  0  0  0  0  0  0  0  0  0  0  0
  195.6950  174.4070  137.5600 C   0  0  0  0  0  2  0  0  0  0  0  0
  185.7120  178.8630  141.5890 C   0  0  0  0  0  3  0  0  0  0  0  0
  186.6130  178.8980  140.6180 C   0  0  0  0  0  3  0  0  0  0  0  0
  184.5010  179.5210  141.4370 O   0  0  0  0  0  1  0  0  0  0  0  0
  185.4470  172.7890  137.8870 C   0  0  0  0  0  1  0  0  0  0  0  0
  186.7020  173.3960  137.8080 O   0  0  0  0  0  0  0  0  0  0  0  0
  2 19  1  0  0  0  0
  3  1  1  0  0  0  0
  3 37  1  1  0  0  0
  4  9  1  0  0  0  0
  5 10  1  0  0  0  0
  6  2  2  0  0  0  0
  7 23  1  6  0  0  0
  7 17  1  0  0  0  0
  7 22  1  0  0  0  0
  8  2  1  0  0  0  0
  8  5  2  0  0  0  0
  9  6  1  0  0  0  0
  9 21  2  0  0  0  0
 10 15  2  0  0  0  0
 11  3  1  0  0  0  0
 12  8  1  0  0  0  0
 13 12  1  0  0  0  0
 16 13  1  0  0  0  0
 16 12  1  0  0  0  0
 17 11  1  1  0  0  0
 17 22  1  0  0  0  0
 18  4  1  0  0  0  0
 19 14  1  6  0  0  0
 19 15  1  0  0  0  0
 20 12  1  0  0  0  0
 20  6  1  1  0  0  0
 21 25  1  0  0  0  0
 22 18  1  1  0  0  0
 22 24  1  0  0  0  0
 24  1  1  6  0  0  0
 24 20  1  0  0  0  0
 25 14  2  0  0  0  0
 26 27  2  0  0  0  0
 27 21  1  0  0  0  0
 27 28  1  0  0  0  0
 30 31  1  0  0  0  0
 31 28  2  0  0  0  0
 31 29  1  0  0  0  0
 32 26  1  0  0  0  0
 32 30  1  0  0  0  0
 34  5  1  0  0  0  0
 34 33  2  0  0  0  0
 35 33  1  0  0  0  0
 37 36  1  0  0  0  0
M  END
>  <MODEL>
1

>  <REMARK>
 VINA RESULT:      -6.8      0.000      0.000
  Name = 
  3 active torsions:
  status: ('A' for Active; 'I' for Inactive)
    1  A    between atoms: C_5  and  O_23
    2  A    between atoms: C_6  and  C_31
    3  A    between atoms: C_9  and  C_30
                            x       y       z     vdW  Elec       q    Type
                         _______ _______ _______ _____ _____    ______ ____

>  <TORSDO>
F 3

$$$$
=
 OpenBabel10272414443D

 37 44  0  0  1  0  0  0  0  0999 V2000
  186.9950  178.8500  140.1760 C   0  0  0  0  0  2  0  0  0  0  0  0
  187.3070  175.7830  137.2020 C   0  0  0  0  0  0  0  0  0  0  0  0
  186.6520  178.7880  141.6490 C   0  0  1  0  0  3  0  0  0  0  0  0
  183.7170  176.9240  137.6060 C   0  0  0  0  0  2  0  0  0  0  0  0
  189.7330  175.8920  137.4640 C   0  0  0  0  0  0  0  0  0  0  0  0
  186.2260  176.5480  137.3520 C   0  0  0  0  0  0  0  0  0  0  0  0
  184.2190  179.5370  139.5770 C   0  0  1  0  0  3  0  0  0  0  0  0
  188.5330  176.5120  137.4510 C   0  0  2  0  0  3  0  0  0  0  0  0
  184.8370  176.1390  136.9840 C   0  0  0  0  0  0  0  0  0  0  0  0
  189.7760  174.4370  137.1980 C   0  0  0  0  0  3  0  0  0  0  0  0
  185.2480  179.3310  141.8220 C   0  0  0  0  0  2  0  0  0  0  0  0
  188.1050  177.8990  137.7820 C   0  0  0  0  0  0  0  0  0  0  0  0
  188.4140  178.8040  136.5980 C   0  0  0  0  0  2  0  0  0  0  0  0
  186.7720  174.2180  135.4270 C   0  0  0  0  0  3  0  0  0  0  0  0
  188.6770  173.7290  136.8990 C   0  0  0  0  0  3  0  0  0  0  0  0
  188.9820  179.1290  137.9570 C   0  0  0  0  0  2  0  0  0  0  0  0
  184.2230  178.7120  140.8690 C   0  0  2  0  0  3  0  0  0  0  0  0
  183.8260  176.9510  139.1170 C   0  0  0  0  0  2  0  0  0  0  0  0
  187.2990  174.3410  136.8090 C   0  0  0  0  0  0  0  0  0  0  0  0
  186.5760  177.8900  137.9810 C   0  0  2  0  0  3  0  0  0  0  0  0
  184.5380  175.2480  135.9870 C   0  0  0  0  0  0  0  0  0  0  0  0
  184.7330  178.0970  139.5560 C   0  0  1  0  0  0  0  0  0  0  0  0
  182.7900  179.6780  139.0800 C   0  0  0  0  0  1  0  0  0  0  0  0
  186.1980  177.8760  139.4170 N   0  0  2  0  0  0  0  0  0  0  0  0
  185.5430  174.6110  135.0970 C   0  0  0  0  0  3  0  0  0  0  0  0
  182.4660  175.7060  134.7460 C   0  0  0  0  0  3  0  0  0  0  0  0
  183.1300  174.9410  135.6260 C   0  0  0  0  0  0  0  0  0  0  0  0
  182.4140  173.8450  136.3170 C   0  0  0  0  0  3  0  0  0  0  0  0
  180.4380  172.6930  136.8860 O   0  0  0  0  0  1  0  0  0  0  0  0
  180.2740  174.7860  135.5250 C   0  0  0  0  0  2  0  0  0  0  0  0
  181.0830  173.7400  136.2430 C   0  0  0  0  0  0  0  0  0  0  0  0
  181.0560  175.3730  134.3460 C   0  0  0  0  0  2  0  0  0  0  0  0
  192.1770  175.9000  137.7630 C   0  0  0  0  0  3  0  0  0  0  0  0
  191.0180  176.5420  137.7680 C   0  0  0  0  0  3  0  0  0  0  0  0
  193.3480  176.5800  138.0600 O   0  0  0  0  0  1  0  0  0  0  0  0
  187.0510  177.6050  143.4780 C   0  0  0  0  0  1  0  0  0  0  0  0
  186.7350  177.4770  142.1240 O   0  0  0  0  0  0  0  0  0  0  0  0
  1  3  1  0  0  0  0
  2  6  2  0  0  0  0
  3 11  1  0  0  0  0
  3 37  1  6  0  0  0
  4 18  1  0  0  0  0
  5 34  1  0  0  0  0
  7 23  1  6  0  0  0
  7 17  1  0  0  0  0
  8  2  1  1  0  0  0
  8  5  1  0  0  0  0
  8 12  1  0  0  0  0
  9  6  1  0  0  0  0
  9  4  1  0  0  0  0
 10  5  2  0  0  0  0
 12 16  1  0  0  0  0
 12 20  1  0  0  0  0
 13 12  1  0  0  0  0
 13 16  1  0  0  0  0
 14 19  1  0  0  0  0
 15 10  1  0  0  0  0
 17 11  1  1  0  0  0
 19 15  2  0  0  0  0
 19  2  1  0  0  0  0
 20  6  1  6  0  0  0
 20 24  1  0  0  0  0
 21  9  2  0  0  0  0
 22 18  1  6  0  0  0
 22  7  1  0  0  0  0
 22 17  1  0  0  0  0
 24 22  1  0  0  0  0
 24  1  1  1  0  0  0
 25 14  2  0  0  0  0
 25 21  1  0  0  0  0
 26 27  2  0  0  0  0
 27 21  1  0  0  0  0
 27 28  1  0  0  0  0
 30 31  1  0  0  0  0
 31 28  2  0  0  0  0
 31 29  1  0  0  0  0
 32 26  1  0  0  0  0
 32 30  1  0  0  0  0
 33 34  2  0  0  0  0
 33 35  1  0  0  0  0
 37 36  1  0  0  0  0
M  END
>  <MODEL>
2

>  <REMARK>
 VINA RESULT:      -6.5      3.006      8.845
  Name = 
  3 active torsions:
  status: ('A' for Active; 'I' for Inactive)
    1  A    between atoms: C_5  and  O_23
    2  A    between atoms: C_6  and  C_31
    3  A    between atoms: C_9  and  C_30
                            x       y       z     vdW  Elec       q    Type
                         _______ _______ _______ _____ _____    ______ ____

>  <TORSDO>
F 3

$$$$
=
 OpenBabel10272414443D

 37 44  0  0  1  0  0  0  0  0999 V2000
  180.5350  175.1290  137.3480 C   0  0  0  0  0  2  0  0  0  0  0  0
  184.0490  177.5620  137.6440 C   0  0  0  0  0  0  0  0  0  0  0  0
  179.9820  174.0510  138.2550 C   0  0  1  0  0  3  0  0  0  0  0  0
  184.8470  174.2070  136.0760 C   0  0  0  0  0  2  0  0  0  0  0  0
  182.6220  179.3790  138.4360 C   0  0  0  0  0  0  0  0  0  0  0  0
  183.9820  176.4610  136.8950 C   0  0  0  0  0  0  0  0  0  0  0  0
  181.7620  173.0690  135.6770 C   0  0  1  0  0  3  0  0  0  0  0  0
  182.8010  178.2970  137.6480 C   0  0  0  0  0  0  0  0  0  0  0  0
  185.1530  175.6020  136.5410 C   0  0  0  0  0  0  0  0  0  0  0  0
  183.7450  179.8180  139.2940 C   0  0  0  0  0  3  0  0  0  0  0  0
  180.2200  172.7130  137.5840 C   0  0  0  0  0  2  0  0  0  0  0  0
  181.8840  177.5190  136.7700 C   0  0  0  0  0  0  0  0  0  0  0  0
  181.7200  178.2620  135.4520 C   0  0  0  0  0  2  0  0  0  0  0  0
  186.3230  178.3770  137.4270 C   0  0  0  0  0  3  0  0  0  0  0  0
  184.9400  179.2100  139.2790 C   0  0  0  0  0  3  0  0  0  0  0  0
  180.5030  177.9210  136.2750 C   0  0  0  0  0  2  0  0  0  0  0  0
  181.6580  172.5090  137.1000 C   0  0  2  0  0  3  0  0  0  0  0  0
  183.9860  173.4600  137.0750 C   0  0  0  0  0  2  0  0  0  0  0  0
  185.2540  178.0270  138.3950 C   0  0  1  0  0  3  0  0  0  0  0  0
  182.5520  176.1640  136.4660 C   0  0  2  0  0  3  0  0  0  0  0  0
  186.4370  176.0630  136.4280 C   0  0  0  0  0  0  0  0  0  0  0  0
  182.5110  173.7560  136.8200 C   0  0  1  0  0  0  0  0  0  0  0  0
  182.6390  172.1520  134.8420 C   0  0  0  0  0  1  0  0  0  0  0  0
  182.0030  175.0690  137.3060 N   0  0  2  0  0  0  0  0  0  0  0  0
  186.8390  177.4860  136.5820 C   0  0  0  0  0  3  0  0  0  0  0  0
  187.4830  174.5130  134.8320 C   0  0  0  0  0  3  0  0  0  0  0  0
  187.5430  175.1670  136.0020 C   0  0  0  0  0  0  0  0  0  0  0  0
  188.6760  174.9070  136.9190 C   0  0  0  0  0  3  0  0  0  0  0  0
  190.5800  173.6790  137.5680 O   0  0  0  0  0  1  0  0  0  0  0  0
  189.2750  172.9310  135.5670 C   0  0  0  0  0  2  0  0  0  0  0  0
  189.5160  173.8890  136.7030 C   0  0  0  0  0  0  0  0  0  0  0  0
  188.6180  173.6390  134.3790 C   0  0  0  0  0  2  0  0  0  0  0  0
  181.2090  181.3540  138.0320 C   0  0  0  0  0  3  0  0  0  0  0  0
  181.3710  180.1450  138.5500 C   0  0  0  0  0  3  0  0  0  0  0  0
  179.9980  182.0160  138.1790 O   0  0  0  0  0  1  0  0  0  0  0  0
  180.0090  175.1710  140.1640 C   0  0  0  0  0  1  0  0  0  0  0  0
  180.6000  174.0900  139.5080 O   0  0  0  0  0  0  0  0  0  0  0  0
  1  3  1  0  0  0  0
  2  8  1  0  0  0  0
  2 19  1  0  0  0  0
  3 37  1  1  0  0  0
  4  9  1  0  0  0  0
  4 18  1  0  0  0  0
  5 34  1  0  0  0  0
  5 10  1  0  0  0  0
  6  2  2  0  0  0  0
  7 23  1  6  0  0  0
  7 22  1  0  0  0  0
  7 17  1  0  0  0  0
  8  5  2  0  0  0  0
  9  6  1  0  0  0  0
 11  3  1  0  0  0  0
 12  8  1  0  0  0  0
 13 16  1  0  0  0  0
 13 12  1  0  0  0  0
 15 10  2  0  0  0  0
 16 12  1  0  0  0  0
 17 11  1  1  0  0  0
 19 14  1  6  0  0  0
 19 15  1  0  0  0  0
 20 12  1  0  0  0  0
 20  6  1  1  0  0  0
 20 24  1  0  0  0  0
 21  9  2  0  0  0  0
 21 25  1  0  0  0  0
 22 18  1  1  0  0  0
 22 17  1  0  0  0  0
 22 24  1  0  0  0  0
 24  1  1  6  0  0  0
 25 14  2  0  0  0  0
 26 27  2  0  0  0  0
 27 21  1  0  0  0  0
 27 28  1  0  0  0  0
 30 31  1  0  0  0  0
 31 28  2  0  0  0  0
 31 29  1  0  0  0  0
 32 26  1  0  0  0  0
 32 30  1  0  0  0  0
 33 35  1  0  0  0  0
 33 34  2  0  0  0  0
 37 36  1  0  0  0  0
M  END
>  <MODEL>
3

>  <REMARK>
 VINA RESULT:      -6.4      4.313      6.904
  Name = 
  3 active torsions:
  status: ('A' for Active; 'I' for Inactive)
    1  A    between atoms: C_5  and  O_23
    2  A    between atoms: C_6  and  C_31
    3  A    between atoms: C_9  and  C_30
                            x       y       z     vdW  Elec       q    Type
                         _______ _______ _______ _____ _____    ______ ____

>  <TORSDO>
F 3

$$$$
=
 OpenBabel10272414443D

 37 44  0  0  1  0  0  0  0  0999 V2000
  182.6460  177.0710  137.2700 C   0  0  0  0  0  2  0  0  0  0  0  0
  185.3080  178.2010  140.4290 C   0  0  0  0  0  0  0  0  0  0  0  0
  182.1200  175.7200  136.8350 C   0  0  1  0  0  3  0  0  0  0  0  0
  187.2330  177.1470  137.3420 C   0  0  0  0  0  2  0  0  0  0  0  0
  183.3510  178.8810  141.7230 C   0  0  0  0  0  0  0  0  0  0  0  0
  185.6970  178.0540  139.1630 C   0  0  0  0  0  0  0  0  0  0  0  0
  184.7110  176.9110  135.2090 C   0  0  1  0  0  3  0  0  0  0  0  0
  183.9760  178.7590  140.5320 C   0  0  0  0  0  0  0  0  0  0  0  0
  187.0810  177.6840  138.7360 C   0  0  0  0  0  0  0  0  0  0  0  0
  184.0680  178.4440  142.9410 C   0  0  0  0  0  3  0  0  0  0  0  0
  182.8250  175.3390  135.5490 C   0  0  0  0  0  2  0  0  0  0  0  0
  183.5330  178.9760  139.1270 C   0  0  0  0  0  0  0  0  0  0  0  0
  183.5750  180.4680  138.8250 C   0  0  0  0  0  2  0  0  0  0  0  0
  187.3130  178.7460  141.6810 C   0  0  0  0  0  3  0  0  0  0  0  0
  185.3270  177.9810  142.9070 C   0  0  0  0  0  3  0  0  0  0  0  0
  182.2870  179.7040  138.6440 C   0  0  0  0  0  2  0  0  0  0  0  0
  184.3480  175.4770  135.6130 C   0  0  2  0  0  3  0  0  0  0  0  0
  186.3210  175.9620  137.0960 C   0  0  0  0  0  2  0  0  0  0  0  0
  186.1260  177.8570  141.6320 C   0  0  1  0  0  3  0  0  0  0  0  0
  184.5430  178.2790  138.1960 C   0  0  2  0  0  3  0  0  0  0  0  0
  188.2100  177.9850  139.4490 C   0  0  0  0  0  0  0  0  0  0  0  0
  184.9450  176.4450  136.6470 C   0  0  1  0  0  0  0  0  0  0  0  0
  185.9650  176.8850  134.3510 C   0  0  0  0  0  1  0  0  0  0  0  0
  184.0440  176.9670  137.7110 N   0  0  2  0  0  0  0  0  0  0  0  0
  188.2260  178.7700  140.7120 C   0  0  0  0  0  3  0  0  0  0  0  0
  189.7280  177.2530  137.6590 C   0  0  0  0  0  3  0  0  0  0  0  0
  189.5610  177.6500  138.9300 C   0  0  0  0  0  0  0  0  0  0  0  0
  190.7250  177.6510  139.8460 C   0  0  0  0  0  3  0  0  0  0  0  0
  192.9560  177.0990  140.3660 O   0  0  0  0  0  1  0  0  0  0  0  0
  191.9870  176.3220  138.1940 C   0  0  0  0  0  2  0  0  0  0  0  0
  191.8760  177.0680  139.4960 C   0  0  0  0  0  0  0  0  0  0  0  0
  191.0980  176.9540  137.1190 C   0  0  0  0  0  2  0  0  0  0  0  0
  181.2720  179.1620  143.0110 C   0  0  0  0  0  3  0  0  0  0  0  0
  181.9790  179.3770  141.9110 C   0  0  0  0  0  3  0  0  0  0  0  0
  179.9830  179.6630  143.1170 O   0  0  0  0  0  1  0  0  0  0  0  0
  181.2810  173.8640  137.7030 C   0  0  0  0  0  1  0  0  0  0  0  0
  182.3460  174.7580  137.8240 O   0  0  0  0  0  0  0  0  0  0  0  0
  2  8  1  0  0  0  0
  2 19  1  0  0  0  0
  3  1  1  0  0  0  0
  3 37  1  1  0  0  0
  4  9  1  0  0  0  0
  5 34  1  0  0  0  0
  5 10  1  0  0  0  0
  6  2  2  0  0  0  0
  7 23  1  6  0  0  0
  7 17  1  0  0  0  0
  7 22  1  0  0  0  0
  8  5  2  0  0  0  0
  9  6  1  0  0  0  0
  9 21  2  0  0  0  0
 11  3  1  0  0  0  0
 12  8  1  0  0  0  0
 13 12  1  0  0  0  0
 15 10  2  0  0  0  0
 16 13  1  0  0  0  0
 16 12  1  0  0  0  0
 17 11  1  1  0  0  0
 17 22  1  0  0  0  0
 18  4  1  0  0  0  0
 19 14  1  1  0  0  0
 19 15  1  0  0  0  0
 20 12  1  0  0  0  0
 20  6  1  1  0  0  0
 21 25  1  0  0  0  0
 22 18  1  1  0  0  0
 22 24  1  0  0  0  0
 24  1  1  6  0  0  0
 24 20  1  0  0  0  0
 25 14  2  0  0  0  0
 26 27  2  0  0  0  0
 27 21  1  0  0  0  0
 27 28  1  0  0  0  0
 30 31  1  0  0  0  0
 31 28  2  0  0  0  0
 31 29  1  0  0  0  0
 32 26  1  0  0  0  0
 32 30  1  0  0  0  0
 33 35  1  0  0  0  0
 34 33  2  0  0  0  0
 36 37  1  0  0  0  0
M  END
>  <MODEL>
4

>  <REMARK>
 VINA RESULT:      -6.0      3.015      4.919
  Name = 
  3 active torsions:
  status: ('A' for Active; 'I' for Inactive)
    1  A    between atoms: C_5  and  O_23
    2  A    between atoms: C_6  and  C_31
    3  A    between atoms: C_9  and  C_30
                            x       y       z     vdW  Elec       q    Type
                         _______ _______ _______ _____ _____    ______ ____

>  <TORSDO>
F 3

$$$$
=
 OpenBabel10272414443D

 37 44  0  0  1  0  0  0  0  0999 V2000
  185.5570  178.4510  138.4710 C   0  0  0  0  0  2  0  0  0  0  0  0
  186.2790  174.5110  136.9530 C   0  0  0  0  0  0  0  0  0  0  0  0
  185.2990  178.9540  139.8760 C   0  0  1  0  0  3  0  0  0  0  0  0
  182.5650  175.1820  137.2800 C   0  0  0  0  0  2  0  0  0  0  0  0
  188.6550  175.0710  136.8670 C   0  0  0  0  0  0  0  0  0  0  0  0
  185.0860  175.1040  136.9090 C   0  0  0  0  0  0  0  0  0  0  0  0
  182.6770  178.4190  137.9740 C   0  0  1  0  0  3  0  0  0  0  0  0
  187.3630  175.4480  136.7470 C   0  0  0  0  0  0  0  0  0  0  0  0
  183.7780  174.3820  136.8980 C   0  0  0  0  0  0  0  0  0  0  0  0
  188.9460  173.6590  137.2000 C   0  0  0  0  0  3  0  0  0  0  0  0
  183.8300  179.3090  139.9800 C   0  0  0  0  0  2  0  0  0  0  0  0
  186.7080  176.7700  136.5450 C   0  0  0  0  0  0  0  0  0  0  0  0
  186.7950  177.1400  135.0710 C   0  0  0  0  0  2  0  0  0  0  0  0
  185.9530  172.2940  136.0240 C   0  0  0  0  0  3  0  0  0  0  0  0
  187.9800  172.7390  137.3380 C   0  0  0  0  0  3  0  0  0  0  0  0
  187.3570  178.0760  136.1120 C   0  0  0  0  0  2  0  0  0  0  0  0
  182.8890  178.2100  139.4780 C   0  0  2  0  0  3  0  0  0  0  0  0
  182.7360  175.8460  138.6320 C   0  0  0  0  0  2  0  0  0  0  0  0
  186.5120  173.0510  137.1710 C   0  0  1  0  0  3  0  0  0  0  0  0
  185.2170  176.6210  136.9050 C   0  0  2  0  0  3  0  0  0  0  0  0
  183.5980  173.1270  136.3810 C   0  0  0  0  0  0  0  0  0  0  0  0
  183.4410  177.1890  138.4700 C   0  0  1  0  0  0  0  0  0  0  0  0
  181.2250  178.1320  137.6300 C   0  0  0  0  0  1  0  0  0  0  0  0
  184.9140  177.1460  138.2610 N   0  0  2  0  0  0  0  0  0  0  0  0
  184.6590  172.3320  135.7090 C   0  0  0  0  0  3  0  0  0  0  0  0
  181.3580  172.7260  137.3090 C   0  0  0  0  0  3  0  0  0  0  0  0
  182.2540  172.4970  136.3370 C   0  0  0  0  0  0  0  0  0  0  0  0
  181.9290  171.5250  135.2680 C   0  0  0  0  0  3  0  0  0  0  0  0
  180.5740  169.8320  134.3460 O   0  0  0  0  0  1  0  0  0  0  0  0
  180.0200  170.7290  136.6150 C   0  0  0  0  0  2  0  0  0  0  0  0
  180.8650  170.7220  135.3700 C   0  0  0  0  0  0  0  0  0  0  0  0
  179.9820  172.1240  137.2460 C   0  0  0  0  0  2  0  0  0  0  0  0
  190.8790  175.8990  137.5230 C   0  0  0  0  0  3  0  0  0  0  0  0
  189.8140  175.9670  136.7360 C   0  0  0  0  0  3  0  0  0  0  0  0
  191.9350  176.7790  137.3380 O   0  0  0  0  0  1  0  0  0  0  0  0
  185.8710  178.6940  141.9990 C   0  0  0  0  0  1  0  0  0  0  0  0
  185.6390  177.9820  140.8210 O   0  0  0  0  0  0  0  0  0  0  0  0
  1  3  1  0  0  0  0
  2 19  1  0  0  0  0
  3 11  1  0  0  0  0
  3 37  1  1  0  0  0
  4 18  1  0  0  0  0
  5 10  1  0  0  0  0
  6  2  2  0  0  0  0
  7 23  1  1  0  0  0
  7 22  1  0  0  0  0
  7 17  1  0  0  0  0
  8  5  2  0  0  0  0
  8  2  1  0  0  0  0
  9  6  1  0  0  0  0
  9  4  1  0  0  0  0
 10 15  2  0  0  0  0
 12  8  1  0  0  0  0
 12 20  1  0  0  0  0
 13 16  1  0  0  0  0
 13 12  1  0  0  0  0
 16 12  1  0  0  0  0
 17 11  1  6  0  0  0
 19 14  1  6  0  0  0
 19 15  1  0  0  0  0
 20  6  1  1  0  0  0
 20 24  1  0  0  0  0
 21  9  2  0  0  0  0
 22 18  1  6  0  0  0
 22 17  1  0  0  0  0
 24 22  1  0  0  0  0
 24  1  1  6  0  0  0
 25 14  2  0  0  0  0
 25 21  1  0  0  0  0
 27 21  1  0  0  0  0
 27 26  2  0  0  0  0
 28 31  2  0  0  0  0
 28 27  1  0  0  0  0
 29 31  1  0  0  0  0
 30 32  1  0  0  0  0
 31 30  1  0  0  0  0
 32 26  1  0  0  0  0
 34  5  1  0  0  0  0
 34 33  2  0  0  0  0
 35 33  1  0  0  0  0
 37 36  1  0  0  0  0
M  END
>  <MODEL>
5

>  <REMARK>
 VINA RESULT:      -5.9      3.508      9.327
  Name = 
  3 active torsions:
  status: ('A' for Active; 'I' for Inactive)
    1  A    between atoms: C_5  and  O_23
    2  A    between atoms: C_6  and  C_31
    3  A    between atoms: C_9  and  C_30
                            x       y       z     vdW  Elec       q    Type
                         _______ _______ _______ _____ _____    ______ ____

>  <TORSDO>
F 3

$$$$
=
 OpenBabel10272414443D

 37 44  0  0  1  0  0  0  0  0999 V2000
  191.2640  177.0850  146.0320 C   0  0  0  0  0  2  0  0  0  0  0  0
  189.1380  177.7960  142.3820 C   0  0  0  0  0  0  0  0  0  0  0  0
  191.4010  175.8450  146.8880 C   0  0  1  0  0  3  0  0  0  0  0  0
  186.8600  178.2000  145.3820 C   0  0  0  0  0  2  0  0  0  0  0  0
  191.2640  177.5810  141.1990 C   0  0  0  0  0  0  0  0  0  0  0  0
  188.6640  178.1330  143.5810 C   0  0  0  0  0  0  0  0  0  0  0  0
  189.1310  178.0380  147.7870 C   0  0  1  0  0  3  0  0  0  0  0  0
  190.5730  177.9720  142.2910 C   0  0  2  0  0  3  0  0  0  0  0  0
  187.2130  178.2410  143.9220 C   0  0  0  0  0  0  0  0  0  0  0  0
  190.5180  176.9760  140.0740 C   0  0  0  0  0  3  0  0  0  0  0  0
  190.5610  176.0440  148.1330 C   0  0  0  0  0  2  0  0  0  0  0  0
  190.9890  178.4930  143.6220 C   0  0  0  0  0  0  0  0  0  0  0  0
  191.3190  179.9730  143.4880 C   0  0  0  0  0  2  0  0  0  0  0  0
  187.4050  178.3890  140.7920 C   0  0  0  0  0  3  0  0  0  0  0  0
  189.1830  176.8500  140.0820 C   0  0  0  0  0  3  0  0  0  0  0  0
  192.3560  179.0220  144.0310 C   0  0  0  0  0  2  0  0  0  0  0  0
  189.1300  176.5070  147.8480 C   0  0  2  0  0  3  0  0  0  0  0  0
  187.4230  176.9660  146.0590 C   0  0  0  0  0  2  0  0  0  0  0  0
  188.3180  177.3060  141.2330 C   0  0  0  0  0  0  0  0  0  0  0  0
  189.7890  178.3640  144.5810 C   0  0  2  0  0  3  0  0  0  0  0  0
  186.2350  178.5670  143.0210 C   0  0  0  0  0  0  0  0  0  0  0  0
  188.8540  177.2290  146.5200 C   0  0  1  0  0  0  0  0  0  0  0  0
  187.8730  178.5650  148.4580 C   0  0  0  0  0  1  0  0  0  0  0  0
  189.9090  177.1810  145.4710 N   0  0  2  0  0  0  0  0  0  0  0  0
  186.4830  178.9160  141.5970 C   0  0  0  0  0  3  0  0  0  0  0  0
  184.4700  178.5850  144.7310 C   0  0  0  0  0  3  0  0  0  0  0  0
  184.8200  178.7280  143.4440 C   0  0  0  0  0  0  0  0  0  0  0  0
  183.7660  178.9450  142.4260 C   0  0  0  0  0  3  0  0  0  0  0  0
  181.5060  179.0150  141.7640 O   0  0  0  0  0  1  0  0  0  0  0  0
  182.0660  178.3030  144.0960 C   0  0  0  0  0  2  0  0  0  0  0  0
  182.4740  178.7880  142.7310 C   0  0  0  0  0  0  0  0  0  0  0  0
  183.0460  178.7880  145.1680 C   0  0  0  0  0  2  0  0  0  0  0  0
  193.4130  176.9130  140.2000 C   0  0  0  0  0  3  0  0  0  0  0  0
  192.7250  177.6630  141.0480 C   0  0  0  0  0  3  0  0  0  0  0  0
  194.7910  177.0480  140.1130 O   0  0  0  0  0  1  0  0  0  0  0  0
  191.9920  174.4730  145.2540 C   0  0  0  0  0  1  0  0  0  0  0  0
  190.9820  174.7100  146.1880 O   0  0  0  0  0  0  0  0  0  0  0  0
  1  3  1  0  0  0  0
  2  6  2  0  0  0  0
  3 37  1  6  0  0  0
  3 11  1  0  0  0  0
  4 18  1  0  0  0  0
  6  9  1  0  0  0  0
  7 17  1  0  0  0  0
  7 23  1  1  0  0  0
  8  5  1  1  0  0  0
  8  2  1  0  0  0  0
  8 12  1  0  0  0  0
  9  4  1  0  0  0  0
 10 15  1  0  0  0  0
 10  5  2  0  0  0  0
 12 16  1  0  0  0  0
 12 20  1  0  0  0  0
 13 12  1  0  0  0  0
 13 16  1  0  0  0  0
 14 19  1  0  0  0  0
 14 25  2  0  0  0  0
 15 19  2  0  0  0  0
 17 11  1  6  0  0  0
 19  2  1  0  0  0  0
 20  6  1  6  0  0  0
 20 24  1  0  0  0  0
 21 27  1  0  0  0  0
 21  9  2  0  0  0  0
 22 18  1  6  0  0  0
 22  7  1  0  0  0  0
 22 17  1  0  0  0  0
 24  1  1  1  0  0  0
 24 22  1  0  0  0  0
 25 21  1  0  0  0  0
 26 32  1  0  0  0  0
 27 26  2  0  0  0  0
 28 31  2  0  0  0  0
 28 27  1  0  0  0  0
 29 31  1  0  0  0  0
 30 32  1  0  0  0  0
 31 30  1  0  0  0  0
 33 34  2  0  0  0  0
 34  5  1  0  0  0  0
 35 33  1  0  0  0  0
 36 37  1  0  0  0  0
M  END
>  <MODEL>
6

>  <REMARK>
 VINA RESULT:      -5.7      3.847      9.872
  Name = 
  3 active torsions:
  status: ('A' for Active; 'I' for Inactive)
    1  A    between atoms: C_5  and  O_23
    2  A    between atoms: C_6  and  C_31
    3  A    between atoms: C_9  and  C_30
                            x       y       z     vdW  Elec       q    Type
                         _______ _______ _______ _____ _____    ______ ____

>  <TORSDO>
F 3

$$$$
=
 OpenBabel10272414443D

 37 44  0  0  1  0  0  0  0  0999 V2000
  184.0050  173.4520  135.2740 C   0  0  0  0  0  2  0  0  0  0  0  0
  185.2520  176.9100  137.4730 C   0  0  0  0  0  0  0  0  0  0  0  0
  183.6650  172.0460  135.7210 C   0  0  1  0  0  3  0  0  0  0  0  0
  188.2050  174.6850  136.6480 C   0  0  0  0  0  2  0  0  0  0  0  0
  182.9580  177.7350  137.3130 C   0  0  0  0  0  0  0  0  0  0  0  0
  186.0990  176.1110  136.8240 C   0  0  0  0  0  0  0  0  0  0  0  0
  186.7040  172.5640  134.5950 C   0  0  1  0  0  3  0  0  0  0  0  0
  183.9940  177.0600  136.7700 C   0  0  0  0  0  0  0  0  0  0  0  0
  187.5330  175.9130  137.1950 C   0  0  0  0  0  0  0  0  0  0  0  0
  183.1390  178.3420  138.6500 C   0  0  0  0  0  3  0  0  0  0  0  0
  184.8070  171.1390  135.3100 C   0  0  0  0  0  2  0  0  0  0  0  0
  184.1350  176.2410  135.5340 C   0  0  0  0  0  0  0  0  0  0  0  0
  184.3170  177.1740  134.3460 C   0  0  0  0  0  2  0  0  0  0  0  0
  186.6230  178.5870  138.5630 C   0  0  0  0  0  3  0  0  0  0  0  0
  184.3030  178.2870  139.3140 C   0  0  0  0  0  3  0  0  0  0  0  0
  183.1870  176.1750  134.3460 C   0  0  0  0  0  2  0  0  0  0  0  0
  186.1880  171.6580  135.7180 C   0  0  2  0  0  3  0  0  0  0  0  0
  187.4390  173.4250  136.9980 C   0  0  0  0  0  2  0  0  0  0  0  0
  185.5330  177.6010  138.7670 C   0  0  1  0  0  3  0  0  0  0  0  0
  185.4150  175.3940  135.6680 C   0  0  2  0  0  3  0  0  0  0  0  0
  188.3020  176.8580  137.8180 C   0  0  0  0  0  0  0  0  0  0  0  0
  186.3540  173.1670  135.9560 C   0  0  1  0  0  0  0  0  0  0  0  0
  188.1930  172.3230  134.4030 C   0  0  0  0  0  1  0  0  0  0  0  0
  185.1200  173.9930  136.0630 N   0  0  2  0  0  0  0  0  0  0  0  0
  187.8410  178.2290  138.1610 C   0  0  0  0  0  3  0  0  0  0  0  0
  190.2480  176.8180  139.3200 C   0  0  0  0  0  3  0  0  0  0  0  0
  189.7430  176.6200  138.0930 C   0  0  0  0  0  0  0  0  0  0  0  0
  190.6560  176.2610  136.9840 C   0  0  0  0  0  3  0  0  0  0  0  0
  192.8150  175.9810  136.0830 O   0  0  0  0  0  1  0  0  0  0  0  0
  192.5750  176.8790  138.4060 C   0  0  0  0  0  2  0  0  0  0  0  0
  191.9820  176.3400  137.1330 C   0  0  0  0  0  0  0  0  0  0  0  0
  191.6960  176.5370  139.6110 C   0  0  0  0  0  2  0  0  0  0  0  0
  181.2850  178.9190  135.9480 C   0  0  0  0  0  3  0  0  0  0  0  0
  181.6290  177.8820  136.6990 C   0  0  0  0  0  3  0  0  0  0  0  0
  180.0130  178.9880  135.4020 O   0  0  0  0  0  1  0  0  0  0  0  0
  182.1560  171.5640  137.2680 C   0  0  0  0  0  1  0  0  0  0  0  0
  183.4730  171.9990  137.1050 O   0  0  0  0  0  0  0  0  0  0  0  0
  1  3  1  0  0  0  0
  2 19  1  0  0  0  0
  3 37  1  1  0  0  0
  4 18  1  0  0  0  0
  4  9  1  0  0  0  0
  5 10  1  0  0  0  0
  6  9  1  0  0  0  0
  6  2  2  0  0  0  0
  7 23  1  1  0  0  0
  7 17  1  0  0  0  0
  7 22  1  0  0  0  0
  8  5  2  0  0  0  0
  8  2  1  0  0  0  0
  9 21  2  0  0  0  0
 10 15  2  0  0  0  0
 11  3  1  0  0  0  0
 12 20  1  0  0  0  0
 12  8  1  0  0  0  0
 13 12  1  0  0  0  0
 16 13  1  0  0  0  0
 16 12  1  0  0  0  0
 17 11  1  6  0  0  0
 17 22  1  0  0  0  0
 19 14  1  6  0  0  0
 19 15  1  0  0  0  0
 20 24  1  0  0  0  0
 20  6  1  1  0  0  0
 21 27  1  0  0  0  0
 21 25  1  0  0  0  0
 22 24  1  0  0  0  0
 22 18  1  1  0  0  0
 24  1  1  6  0  0  0
 25 14  2  0  0  0  0
 26 32  1  0  0  0  0
 27 26  2  0  0  0  0
 28 31  2  0  0  0  0
 28 27  1  0  0  0  0
 29 31  1  0  0  0  0
 30 32  1  0  0  0  0
 31 30  1  0  0  0  0
 33 34  2  0  0  0  0
 34  5  1  0  0  0  0
 35 33  1  0  0  0  0
 37 36  1  0  0  0  0
M  END
>  <MODEL>
7

>  <REMARK>
 VINA RESULT:      -5.6      3.233      5.036
  Name = 
  3 active torsions:
  status: ('A' for Active; 'I' for Inactive)
    1  A    between atoms: C_5  and  O_23
    2  A    between atoms: C_6  and  C_31
    3  A    between atoms: C_9  and  C_30
                            x       y       z     vdW  Elec       q    Type
                         _______ _______ _______ _____ _____    ______ ____

>  <TORSDO>
F 3

$$$$
=
 OpenBabel10272414443D

 37 44  0  0  1  0  0  0  0  0999 V2000
  185.2050  173.6280  135.7330 C   0  0  0  0  0  2  0  0  0  0  0  0
  186.9050  177.1280  137.5240 C   0  0  0  0  0  0  0  0  0  0  0  0
  184.8740  172.2670  136.3060 C   0  0  1  0  0  3  0  0  0  0  0  0
  189.6100  174.7150  136.4230 C   0  0  0  0  0  2  0  0  0  0  0  0
  184.6510  178.0600  137.6420 C   0  0  0  0  0  0  0  0  0  0  0  0
  187.6150  176.2540  136.8100 C   0  0  0  0  0  0  0  0  0  0  0  0
  187.7380  172.5680  134.7320 C   0  0  1  0  0  3  0  0  0  0  0  0
  185.5680  177.3050  136.9990 C   0  0  0  0  0  0  0  0  0  0  0  0
  189.0770  176.0020  136.9850 C   0  0  0  0  0  0  0  0  0  0  0  0
  185.0490  178.7270  138.9020 C   0  0  0  0  0  3  0  0  0  0  0  0
  185.9040  171.2820  135.7920 C   0  0  0  0  0  2  0  0  0  0  0  0
  185.4920  176.4160  135.8070 C   0  0  0  0  0  0  0  0  0  0  0  0
  185.5420  177.2760  134.5510 C   0  0  0  0  0  2  0  0  0  0  0  0
  188.4910  178.7880  138.3080 C   0  0  0  0  0  3  0  0  0  0  0  0
  186.2930  178.6460  139.3960 C   0  0  0  0  0  3  0  0  0  0  0  0
  184.3810  176.3380  134.7710 C   0  0  0  0  0  2  0  0  0  0  0  0
  187.3510  171.7500  135.9690 C   0  0  2  0  0  3  0  0  0  0  0  0
  188.8490  173.5160  136.9510 C   0  0  0  0  0  2  0  0  0  0  0  0
  187.4000  177.8710  138.7220 C   0  0  1  0  0  3  0  0  0  0  0  0
  186.7410  175.5130  135.8070 C   0  0  2  0  0  3  0  0  0  0  0  0
  189.9690  176.9380  137.4370 C   0  0  0  0  0  0  0  0  0  0  0  0
  187.6140  173.2590  136.0910 C   0  0  1  0  0  0  0  0  0  0  0  0
  189.1710  172.2420  134.3460 C   0  0  0  0  0  1  0  0  0  0  0  0
  186.4460  174.1520  136.3220 N   0  0  2  0  0  0  0  0  0  0  0  0
  189.6210  178.3470  137.7590 C   0  0  0  0  0  3  0  0  0  0  0  0
  192.0520  176.0200  136.5100 C   0  0  0  0  0  3  0  0  0  0  0  0
  191.4220  176.6410  137.5180 C   0  0  0  0  0  0  0  0  0  0  0  0
  192.1670  176.9370  138.7640 C   0  0  0  0  0  3  0  0  0  0  0  0
  194.0600  176.7210  140.1500 O   0  0  0  0  0  1  0  0  0  0  0  0
  193.9740  175.4390  138.0030 C   0  0  0  0  0  2  0  0  0  0  0  0
  193.3770  176.4130  138.9820 C   0  0  0  0  0  0  0  0  0  0  0  0
  193.5310  175.7560  136.5720 C   0  0  0  0  0  2  0  0  0  0  0  0
  182.2640  178.4980  138.0570 C   0  0  0  0  0  3  0  0  0  0  0  0
  183.2550  178.2430  137.2150 C   0  0  0  0  0  3  0  0  0  0  0  0
  180.9720  178.6600  137.5800 O   0  0  0  0  0  1  0  0  0  0  0  0
  184.1920  173.4700  138.0360 C   0  0  0  0  0  1  0  0  0  0  0  0
  184.8810  172.3020  137.7030 O   0  0  0  0  0  0  0  0  0  0  0  0
  1  3  1  0  0  0  0
  2 19  1  0  0  0  0
  3 37  1  1  0  0  0
  4 18  1  0  0  0  0
  4  9  1  0  0  0  0
  5 10  1  0  0  0  0
  6  9  1  0  0  0  0
  6  2  2  0  0  0  0
  7 23  1  1  0  0  0
  7 17  1  0  0  0  0
  7 22  1  0  0  0  0
  8  2  1  0  0  0  0
  8  5  2  0  0  0  0
  9 21  2  0  0  0  0
 10 15  2  0  0  0  0
 11  3  1  0  0  0  0
 12 20  1  0  0  0  0
 12  8  1  0  0  0  0
 13 16  1  0  0  0  0
 13 12  1  0  0  0  0
 16 12  1  0  0  0  0
 17 11  1  6  0  0  0
 17 22  1  0  0  0  0
 19 14  1  6  0  0  0
 19 15  1  0  0  0  0
 20 24  1  0  0  0  0
 20  6  1  1  0  0  0
 21 27  1  0  0  0  0
 21 25  1  0  0  0  0
 22 24  1  0  0  0  0
 22 18  1  1  0  0  0
 24  1  1  6  0  0  0
 25 14  2  0  0  0  0
 26 32  1  0  0  0  0
 26 27  2  0  0  0  0
 27 28  1  0  0  0  0
 28 31  2  0  0  0  0
 30 31  1  0  0  0  0
 31 29  1  0  0  0  0
 32 30  1  0  0  0  0
 34  5  1  0  0  0  0
 34 33  2  0  0  0  0
 35 33  1  0  0  0  0
 37 36  1  0  0  0  0
M  END
>  <MODEL>
8

>  <REMARK>
 VINA RESULT:      -5.4      2.219      3.546
  Name = 
  3 active torsions:
  status: ('A' for Active; 'I' for Inactive)
    1  A    between atoms: C_5  and  O_23
    2  A    between atoms: C_6  and  C_31
    3  A    between atoms: C_9  and  C_30
                            x       y       z     vdW  Elec       q    Type
                         _______ _______ _______ _____ _____    ______ ____

>  <TORSDO>
F 3

$$$$
=
 OpenBabel10272414443D

 37 44  0  0  1  0  0  0  0  0999 V2000
  191.4930  176.9990  137.9210 C   0  0  0  0  0  2  0  0  0  0  0  0
  192.4120  173.2290  136.1080 C   0  0  0  0  0  0  0  0  0  0  0  0
  191.0360  177.3560  139.3200 C   0  0  1  0  0  3  0  0  0  0  0  0
  188.6920  173.9330  135.9690 C   0  0  0  0  0  2  0  0  0  0  0  0
  194.7770  173.7480  136.4240 C   0  0  0  0  0  0  0  0  0  0  0  0
  191.2400  173.8460  135.9570 C   0  0  0  0  0  0  0  0  0  0  0  0
  188.7160  177.0760  137.0140 C   0  0  1  0  0  3  0  0  0  0  0  0
  193.5190  174.1610  136.1610 C   0  0  0  0  0  0  0  0  0  0  0  0
  189.9450  173.1550  135.6810 C   0  0  0  0  0  0  0  0  0  0  0  0
  195.0120  172.3040  136.6430 C   0  0  0  0  0  3  0  0  0  0  0  0
  189.5690  177.7270  139.2490 C   0  0  0  0  0  2  0  0  0  0  0  0
  192.9050  175.5090  136.0110 C   0  0  0  0  0  0  0  0  0  0  0  0
  193.2060  176.0310  134.6130 C   0  0  0  0  0  2  0  0  0  0  0  0
  192.2150  171.1290  134.9090 C   0  0  0  0  0  3  0  0  0  0  0  0
  194.0330  171.3930  136.5410 C   0  0  0  0  0  3  0  0  0  0  0  0
  193.6140  176.8410  135.8180 C   0  0  0  0  0  2  0  0  0  0  0  0
  188.7070  176.7050  138.5020 C   0  0  2  0  0  3  0  0  0  0  0  0
  188.6680  174.4470  137.3940 C   0  0  0  0  0  2  0  0  0  0  0  0
  192.6060  171.7500  136.1990 C   0  0  1  0  0  3  0  0  0  0  0  0
  191.3760  175.3520  136.1350 C   0  0  2  0  0  3  0  0  0  0  0  0
  189.8370  171.9650  135.0110 C   0  0  0  0  0  0  0  0  0  0  0  0
  189.3950  175.7860  137.4800 C   0  0  1  0  0  0  0  0  0  0  0  0
  187.3280  176.8560  136.4370 C   0  0  0  0  0  1  0  0  0  0  0  0
  190.8830  175.7360  137.4820 N   0  0  2  0  0  0  0  0  0  0  0  0
  190.9810  171.2260  134.4170 C   0  0  0  0  0  3  0  0  0  0  0  0
  187.4040  172.1290  134.6980 C   0  0  0  0  0  3  0  0  0  0  0  0
  188.5100  171.3700  134.7080 C   0  0  0  0  0  0  0  0  0  0  0  0
  188.3860  169.9070  134.5150 C   0  0  0  0  0  3  0  0  0  0  0  0
  187.1000  167.9390  134.3460 O   0  0  0  0  0  1  0  0  0  0  0  0
  185.9500  170.1000  134.8650 C   0  0  0  0  0  2  0  0  0  0  0  0
  187.1900  169.3090  134.5470 C   0  0  0  0  0  0  0  0  0  0  0  0
  186.0670  171.5370  134.3490 C   0  0  0  0  0  2  0  0  0  0  0  0
  196.8710  174.4760  137.4960 C   0  0  0  0  0  3  0  0  0  0  0  0
  195.9470  174.6300  136.5590 C   0  0  0  0  0  3  0  0  0  0  0  0
  197.9470  175.3490  137.5600 O   0  0  0  0  0  1  0  0  0  0  0  0
  190.6460  176.6890  141.3940 C   0  0  0  0  0  1  0  0  0  0  0  0
  191.2310  176.2830  140.1940 O   0  0  0  0  0  0  0  0  0  0  0  0
  1  3  1  0  0  0  0
  2  8  1  0  0  0  0
  2 19  1  0  0  0  0
  3 37  1  1  0  0  0
  4 18  1  0  0  0  0
  5 34  1  0  0  0  0
  5 10  1  0  0  0  0
  6  2  2  0  0  0  0
  7 23  1  6  0  0  0
  7 22  1  0  0  0  0
  7 17  1  0  0  0  0
  8  5  2  0  0  0  0
  9  6  1  0  0  0  0
  9  4  1  0  0  0  0
 11  3  1  0  0  0  0
 12 20  1  0  0  0  0
 12  8  1  0  0  0  0
 13 16  1  0  0  0  0
 13 12  1  0  0  0  0
 15 10  2  0  0  0  0
 16 12  1  0  0  0  0
 17 11  1  1  0  0  0
 19 14  1  6  0  0  0
 19 15  1  0  0  0  0
 20  6  1  1  0  0  0
 20 24  1  0  0  0  0
 21  9  2  0  0  0  0
 22 18  1  6  0  0  0
 22 24  1  0  0  0  0
 22 17  1  0  0  0  0
 24  1  1  6  0  0  0
 25 14  2  0  0  0  0
 25 21  1  0  0  0  0
 26 27  2  0  0  0  0
 27 21  1  0  0  0  0
 28 31  2  0  0  0  0
 28 27  1  0  0  0  0
 29 31  1  0  0  0  0
 31 30  1  0  0  0  0
 32 26  1  0  0  0  0
 32 30  1  0  0  0  0
 33 35  1  0  0  0  0
 34 33  2  0  0  0  0
 37 36  1  0  0  0  0
M  END
>  <MODEL>
9

>  <REMARK>
 VINA RESULT:      -4.7      2.605      8.016
  Name = 
  3 active torsions:
  status: ('A' for Active; 'I' for Inactive)
    1  A    between atoms: C_5  and  O_23
    2  A    between atoms: C_6  and  C_31
    3  A    between atoms: C_9  and  C_30
                            x       y       z     vdW  Elec       q    Type
                         _______ _______ _______ _____ _____    ______ ____

>  <TORSDO>
F 3

$$$$
