=
 OpenBabel10272400503D

 25 29  0  0  0  0  0  0  0  0999 V2000
  187.0710  178.0050  145.5260 N   0  0  0  0  0  0  0  0  0  0  0  0
  188.3380  177.6850  145.1400 C   0  0  0  0  0  0  0  0  0  0  0  0
  187.5870  177.7610  147.8480 C   0  0  0  0  0  3  0  0  0  0  0  0
  185.9830  178.3290  144.8080 C   0  0  0  0  0  0  0  0  0  0  0  0
  183.5110  179.0380  143.7810 C   0  0  0  0  0  3  0  0  0  0  0  0
  188.9020  177.4260  147.4920 C   0  0  0  0  0  3  0  0  0  0  0  0
  184.9280  178.5730  145.6560 C   0  0  0  0  0  0  0  0  0  0  0  0
  183.6710  178.9310  145.1730 C   0  0  0  0  0  3  0  0  0  0  0  0
  190.5900  177.0550  145.7330 C   0  0  0  0  0  0  0  0  0  0  0  0
  191.6570  176.7240  146.7220 C   0  0  0  0  0  1  0  0  0  0  0  0
  188.6950  177.6490  143.8290 N   0  0  0  0  0  0  0  0  0  0  0  0
  184.5940  178.7880  142.9110 C   0  0  0  0  0  3  0  0  0  0  0  0
  186.6880  178.0480  146.8220 C   0  0  0  0  0  0  0  0  0  0  0  0
  185.3470  178.4010  146.9680 C   0  0  0  0  0  3  0  0  0  0  0  0
  190.8930  177.0340  144.4070 N   0  0  0  0  0  0  0  0  0  0  0  0
  185.8520  178.4280  143.4220 C   0  0  0  0  0  3  0  0  0  0  0  0
  189.9630  177.3260  143.4560 C   0  0  0  0  0  0  0  0  0  0  0  0
  189.2900  177.3840  146.1380 C   0  0  0  0  0  0  0  0  0  0  0  0
  191.9970  177.3070  140.2780 C   0  0  0  0  0  0  0  0  0  0  0  0
  190.3280  177.2940  142.0270 C   0  0  0  0  0  0  0  0  0  0  0  0
  191.6720  177.3390  141.6360 C   0  0  0  0  0  3  0  0  0  0  0  0
  193.3590  177.3520  139.8730 N   0  0  0  0  0  1  0  0  0  0  0  0
  189.3350  177.2190  141.0420 C   0  0  0  0  0  3  0  0  0  0  0  0
  191.0120  177.2340  139.3430 N   0  0  0  0  0  0  0  0  0  0  0  0
  189.7000  177.1900  139.6940 C   0  0  0  0  0  3  0  0  0  0  0  0
  1 13  1  0  0  0  0
  2  1  1  0  0  0  0
  2 18  2  0  0  0  0
  4  1  1  0  0  0  0
  4  7  1  0  0  0  0
  5  8  1  0  0  0  0
  6  3  2  0  0  0  0
  7 14  1  0  0  0  0
  8  7  2  0  0  0  0
  9 18  1  0  0  0  0
  9 10  1  0  0  0  0
 11  2  1  0  0  0  0
 12 16  1  0  0  0  0
 12  5  2  0  0  0  0
 13 14  2  0  0  0  0
 13  3  1  0  0  0  0
 15  9  2  0  0  0  0
 16  4  2  0  0  0  0
 17 11  2  0  0  0  0
 17 15  1  0  0  0  0
 18  6  1  0  0  0  0
 19 21  1  0  0  0  0
 20 17  1  0  0  0  0
 21 20  2  0  0  0  0
 22 19  1  0  0  0  0
 23 20  1  0  0  0  0
 24 25  1  0  0  0  0
 24 19  2  0  0  0  0
 25 23  2  0  0  0  0
M  END
>  <MODEL>
1

>  <REMARK>
 VINA RESULT:     -11.6      0.000      0.000
  Name = 
  1 active torsions:
  status: ('A' for Active; 'I' for Inactive)
    1  A    between atoms: C_6  and  C_23
                            x       y       z     vdW  Elec       q    Type
                         _______ _______ _______ _____ _____    ______ ____

>  <TORSDO>
F 1

$$$$
=
 OpenBabel10272400503D

 25 29  0  0  0  0  0  0  0  0999 V2000
  186.8460  178.0240  145.0540 N   0  0  0  0  0  0  0  0  0  0  0  0
  188.0580  177.7300  144.5060 C   0  0  0  0  0  0  0  0  0  0  0  0
  187.6490  177.7250  147.2870 C   0  0  0  0  0  3  0  0  0  0  0  0
  185.6740  178.3530  144.4870 C   0  0  0  0  0  0  0  0  0  0  0  0
  183.0870  179.0590  143.7940 C   0  0  0  0  0  3  0  0  0  0  0  0
  188.9120  177.4150  146.7610 C   0  0  0  0  0  3  0  0  0  0  0  0
  184.7310  178.5610  145.4650 C   0  0  0  0  0  0  0  0  0  0  0  0
  183.4210  178.9170  145.1530 C   0  0  0  0  0  3  0  0  0  0  0  0
  190.3710  177.1120  144.7960 C   0  0  0  0  0  0  0  0  0  0  0  0
  191.5560  176.7680  145.6360 C   0  0  0  0  0  1  0  0  0  0  0  0
  188.2490  177.7340  143.1600 N   0  0  0  0  0  0  0  0  0  0  0  0
  184.0560  178.8460  142.7900 C   0  0  0  0  0  3  0  0  0  0  0  0
  186.6270  178.0280  146.3890 C   0  0  0  0  0  0  0  0  0  0  0  0
  185.3110  178.3590  146.7100 C   0  0  0  0  0  3  0  0  0  0  0  0
  190.5080  177.1310  143.4430 N   0  0  0  0  0  0  0  0  0  0  0  0
  185.3710  178.4870  143.1310 C   0  0  0  0  0  3  0  0  0  0  0  0
  189.4640  177.4370  142.6230 C   0  0  0  0  0  0  0  0  0  0  0  0
  189.1290  177.4140  145.3690 C   0  0  0  0  0  0  0  0  0  0  0  0
  188.9030  178.0760  138.9470 C   0  0  0  0  0  0  0  0  0  0  0  0
  189.6480  177.4470  141.1600 C   0  0  0  0  0  0  0  0  0  0  0  0
  188.7100  178.0760  140.3300 C   0  0  0  0  0  3  0  0  0  0  0  0
  187.9560  178.7110  138.0990 N   0  0  0  0  0  1  0  0  0  0  0  0
  190.7630  176.8300  140.5800 C   0  0  0  0  0  3  0  0  0  0  0  0
  189.9950  177.4670  138.4110 N   0  0  0  0  0  0  0  0  0  0  0  0
  190.9210  176.8510  139.1930 C   0  0  0  0  0  3  0  0  0  0  0  0
  1 13  1  0  0  0  0
  2  1  1  0  0  0  0
  2 18  2  0  0  0  0
  4  1  1  0  0  0  0
  4  7  1  0  0  0  0
  5  8  1  0  0  0  0
  6  3  2  0  0  0  0
  7 14  1  0  0  0  0
  8  7  2  0  0  0  0
  9 18  1  0  0  0  0
  9 10  1  0  0  0  0
 11  2  1  0  0  0  0
 12 16  1  0  0  0  0
 12  5  2  0  0  0  0
 13 14  2  0  0  0  0
 13  3  1  0  0  0  0
 15  9  2  0  0  0  0
 16  4  2  0  0  0  0
 17 11  2  0  0  0  0
 17 15  1  0  0  0  0
 18  6  1  0  0  0  0
 19 21  1  0  0  0  0
 20 17  1  0  0  0  0
 21 20  2  0  0  0  0
 22 19  1  0  0  0  0
 23 20  1  0  0  0  0
 24 19  2  0  0  0  0
 24 25  1  0  0  0  0
 25 23  2  0  0  0  0
M  END
>  <MODEL>
2

>  <REMARK>
 VINA RESULT:     -11.6      1.113      1.709
  Name = 
  1 active torsions:
  status: ('A' for Active; 'I' for Inactive)
    1  A    between atoms: C_6  and  C_23
                            x       y       z     vdW  Elec       q    Type
                         _______ _______ _______ _____ _____    ______ ____

>  <TORSDO>
F 1

$$$$
=
 OpenBabel10272400503D

 25 29  0  0  0  0  0  0  0  0999 V2000
  187.6940  177.7630  145.6140 N   0  0  0  0  0  0  0  0  0  0  0  0
  186.7900  178.0910  144.6500 C   0  0  0  0  0  0  0  0  0  0  0  0
  186.1180  178.1060  147.3790 C   0  0  0  0  0  3  0  0  0  0  0  0
  188.9830  177.3930  145.5300 C   0  0  0  0  0  0  0  0  0  0  0  0
  191.6150  176.6000  145.8640 C   0  0  0  0  0  3  0  0  0  0  0  0
  185.1580  178.4510  146.4170 C   0  0  0  0  0  3  0  0  0  0  0  0
  189.4800  177.1630  146.7920 C   0  0  0  0  0  0  0  0  0  0  0  0
  190.7980  176.7640  146.9960 C   0  0  0  0  0  3  0  0  0  0  0  0
  184.5590  178.7840  144.0480 C   0  0  0  0  0  0  0  0  0  0  0  0
  183.1570  179.1720  144.3790 C   0  0  0  0  0  1  0  0  0  0  0  0
  187.1210  178.0820  143.3320 N   0  0  0  0  0  0  0  0  0  0  0  0
  191.1050  176.8350  144.5690 C   0  0  0  0  0  3  0  0  0  0  0  0
  187.3930  177.7640  146.9330 C   0  0  0  0  0  0  0  0  0  0  0  0
  188.4790  177.3930  147.7260 C   0  0  0  0  0  3  0  0  0  0  0  0
  184.9440  178.7580  142.7430 N   0  0  0  0  0  0  0  0  0  0  0  0
  189.7710  177.2380  144.3890 C   0  0  0  0  0  3  0  0  0  0  0  0
  186.2100  178.4130  142.3770 C   0  0  0  0  0  0  0  0  0  0  0  0
  185.4830  178.4470  145.0460 C   0  0  0  0  0  0  0  0  0  0  0  0
  188.2770  178.2620  139.2250 C   0  0  0  0  0  0  0  0  0  0  0  0
  186.5910  178.3960  140.9520 C   0  0  0  0  0  0  0  0  0  0  0  0
  187.9360  178.2770  140.5790 C   0  0  0  0  0  3  0  0  0  0  0  0
  189.6400  178.1430  138.8370 N   0  0  0  0  0  1  0  0  0  0  0  0
  185.6140  178.4980  139.9540 C   0  0  0  0  0  3  0  0  0  0  0  0
  187.3080  178.3640  138.2760 N   0  0  0  0  0  0  0  0  0  0  0  0
  185.9950  178.4790  138.6110 C   0  0  0  0  0  3  0  0  0  0  0  0
  1 13  1  0  0  0  0
  2 18  2  0  0  0  0
  2  1  1  0  0  0  0
  4  1  1  0  0  0  0
  4  7  1  0  0  0  0
  5  8  1  0  0  0  0
  6  3  2  0  0  0  0
  7  8  2  0  0  0  0
  7 14  1  0  0  0  0
  9 10  1  0  0  0  0
  9 18  1  0  0  0  0
 11  2  1  0  0  0  0
 12  5  2  0  0  0  0
 13  3  1  0  0  0  0
 13 14  2  0  0  0  0
 15  9  2  0  0  0  0
 16 12  1  0  0  0  0
 16  4  2  0  0  0  0
 17 15  1  0  0  0  0
 17 11  2  0  0  0  0
 18  6  1  0  0  0  0
 19 21  1  0  0  0  0
 20 17  1  0  0  0  0
 21 20  2  0  0  0  0
 22 19  1  0  0  0  0
 23 20  1  0  0  0  0
 24 25  1  0  0  0  0
 24 19  2  0  0  0  0
 25 23  2  0  0  0  0
M  END
>  <MODEL>
3

>  <REMARK>
 VINA RESULT:     -10.8      1.855      4.842
  Name = 
  1 active torsions:
  status: ('A' for Active; 'I' for Inactive)
    1  A    between atoms: C_6  and  C_23
                            x       y       z     vdW  Elec       q    Type
                         _______ _______ _______ _____ _____    ______ ____

>  <TORSDO>
F 1

$$$$
=
 OpenBabel10272400503D

 25 29  0  0  0  0  0  0  0  0999 V2000
  188.1050  177.5930  145.2820 N   0  0  0  0  0  0  0  0  0  0  0  0
  187.6000  177.8260  144.0380 C   0  0  0  0  0  0  0  0  0  0  0  0
  186.0260  178.0940  146.3510 C   0  0  0  0  0  3  0  0  0  0  0  0
  189.3320  177.2200  145.6840 C   0  0  0  0  0  0  0  0  0  0  0  0
  191.6620  176.4710  146.9790 C   0  0  0  0  0  3  0  0  0  0  0  0
  185.4690  178.3440  145.0890 C   0  0  0  0  0  3  0  0  0  0  0  0
  189.3550  177.1110  147.0540 C   0  0  0  0  0  0  0  0  0  0  0  0
  190.5090  176.7380  147.7380 C   0  0  0  0  0  3  0  0  0  0  0  0
  185.7370  178.4520  142.6400 C   0  0  0  0  0  0  0  0  0  0  0  0
  184.3190  178.8650  142.4280 C   0  0  0  0  0  1  0  0  0  0  0  0
  188.3670  177.6950  142.9230 N   0  0  0  0  0  0  0  0  0  0  0  0
  191.6390  176.5820  145.5720 C   0  0  0  0  0  3  0  0  0  0  0  0
  187.3670  177.7150  146.4090 C   0  0  0  0  0  0  0  0  0  0  0  0
  188.1000  177.4250  147.5580 C   0  0  0  0  0  3  0  0  0  0  0  0
  186.5480  178.3060  141.5580 N   0  0  0  0  0  0  0  0  0  0  0  0
  190.4610  176.9620  144.9050 C   0  0  0  0  0  3  0  0  0  0  0  0
  187.8520  177.9320  141.6860 C   0  0  0  0  0  0  0  0  0  0  0  0
  186.2480  178.2130  143.9220 C   0  0  0  0  0  0  0  0  0  0  0  0
  189.1940  178.2910  138.1780 C   0  0  0  0  0  0  0  0  0  0  0  0
  188.7030  177.7830  140.4900 C   0  0  0  0  0  0  0  0  0  0  0  0
  188.3760  178.4440  139.2990 C   0  0  0  0  0  3  0  0  0  0  0  0
  188.8690  178.9590  136.9660 N   0  0  0  0  0  1  0  0  0  0  0  0
  189.8480  176.9790  140.5290 C   0  0  0  0  0  3  0  0  0  0  0  0
  190.3010  177.5030  138.2440 N   0  0  0  0  0  0  0  0  0  0  0  0
  190.6410  176.8510  139.3870 C   0  0  0  0  0  3  0  0  0  0  0  0
  1  4  1  0  0  0  0
  1 13  1  0  0  0  0
  2  1  1  0  0  0  0
  3 13  1  0  0  0  0
  4  7  1  0  0  0  0
  5  8  1  0  0  0  0
  6  3  2  0  0  0  0
  7 14  1  0  0  0  0
  7  8  2  0  0  0  0
  9 18  1  0  0  0  0
 10  9  1  0  0  0  0
 11  2  1  0  0  0  0
 12  5  2  0  0  0  0
 13 14  2  0  0  0  0
 15 17  1  0  0  0  0
 15  9  2  0  0  0  0
 16 12  1  0  0  0  0
 16  4  2  0  0  0  0
 17 11  2  0  0  0  0
 18  2  2  0  0  0  0
 18  6  1  0  0  0  0
 19 24  2  0  0  0  0
 19 21  1  0  0  0  0
 20 23  1  0  0  0  0
 20 17  1  0  0  0  0
 21 20  2  0  0  0  0
 22 19  1  0  0  0  0
 24 25  1  0  0  0  0
 25 23  2  0  0  0  0
M  END
>  <MODEL>
4

>  <REMARK>
 VINA RESULT:     -10.7      1.440      4.632
  Name = 
  1 active torsions:
  status: ('A' for Active; 'I' for Inactive)
    1  A    between atoms: C_6  and  C_23
                            x       y       z     vdW  Elec       q    Type
                         _______ _______ _______ _____ _____    ______ ____

>  <TORSDO>
F 1

$$$$
=
 OpenBabel10272400503D

 25 29  0  0  0  0  0  0  0  0999 V2000
  189.7920  177.4540  143.5830 N   0  0  0  0  0  0  0  0  0  0  0  0
  188.7630  177.6260  144.4580 C   0  0  0  0  0  0  0  0  0  0  0  0
  191.3570  176.9890  145.3300 C   0  0  0  0  0  3  0  0  0  0  0  0
  189.8380  177.5320  142.2430 C   0  0  0  0  0  0  0  0  0  0  0  0
  190.4230  177.5770  139.5360 C   0  0  0  0  0  3  0  0  0  0  0  0
  190.3240  177.1590  146.2630 C   0  0  0  0  0  3  0  0  0  0  0  0
  191.1170  177.2740  141.8090 C   0  0  0  0  0  0  0  0  0  0  0  0
  191.4460  177.2880  140.4560 C   0  0  0  0  0  3  0  0  0  0  0  0
  187.9550  177.6590  146.7300 C   0  0  0  0  0  0  0  0  0  0  0  0
  188.1400  177.5210  148.2050 C   0  0  0  0  0  1  0  0  0  0  0  0
  187.5100  177.9350  144.0290 N   0  0  0  0  0  0  0  0  0  0  0  0
  189.1100  177.8410  139.9810 C   0  0  0  0  0  3  0  0  0  0  0  0
  191.0490  177.1470  143.9800 C   0  0  0  0  0  0  0  0  0  0  0  0
  191.9290  177.0200  142.9060 C   0  0  0  0  0  3  0  0  0  0  0  0
  186.7210  177.9660  146.2480 N   0  0  0  0  0  0  0  0  0  0  0  0
  188.8020  177.8210  141.3520 C   0  0  0  0  0  3  0  0  0  0  0  0
  186.4890  178.1060  144.9130 C   0  0  0  0  0  0  0  0  0  0  0  0
  189.0200  177.4790  145.8370 C   0  0  0  0  0  0  0  0  0  0  0  0
  183.5640  178.7320  142.6130 C   0  0  0  0  0  0  0  0  0  0  0  0
  185.1380  178.4400  144.4250 C   0  0  0  0  0  0  0  0  0  0  0  0
  184.8500  178.4130  143.0540 C   0  0  0  0  0  3  0  0  0  0  0  0
  183.2650  178.7080  141.2230 N   0  0  0  0  0  1  0  0  0  0  0  0
  184.1240  178.7880  145.3260 C   0  0  0  0  0  3  0  0  0  0  0  0
  182.5990  179.0680  143.5110 N   0  0  0  0  0  0  0  0  0  0  0  0
  182.8500  179.1010  144.8460 C   0  0  0  0  0  3  0  0  0  0  0  0
  1 13  1  0  0  0  0
  1  2  1  0  0  0  0
  2 18  2  0  0  0  0
  3  6  2  0  0  0  0
  4  1  1  0  0  0  0
  5 12  2  0  0  0  0
  5  8  1  0  0  0  0
  7  4  1  0  0  0  0
  7 14  1  0  0  0  0
  8  7  2  0  0  0  0
  9 10  1  0  0  0  0
 11  2  1  0  0  0  0
 11 17  2  0  0  0  0
 12 16  1  0  0  0  0
 13  3  1  0  0  0  0
 14 13  2  0  0  0  0
 15  9  2  0  0  0  0
 16  4  2  0  0  0  0
 17 15  1  0  0  0  0
 18  6  1  0  0  0  0
 18  9  1  0  0  0  0
 19 21  2  0  0  0  0
 19 24  1  0  0  0  0
 20 17  1  0  0  0  0
 20 23  2  0  0  0  0
 21 20  1  0  0  0  0
 22 19  1  0  0  0  0
 24 25  2  0  0  0  0
 25 23  1  0  0  0  0
M  END
>  <MODEL>
5

>  <REMARK>
 VINA RESULT:     -10.6      1.746      6.152
  Name = 
  1 active torsions:
  status: ('A' for Active; 'I' for Inactive)
    1  A    between atoms: C_6  and  C_23
                            x       y       z     vdW  Elec       q    Type
                         _______ _______ _______ _____ _____    ______ ____

>  <TORSDO>
F 1

$$$$
=
 OpenBabel10272400503D

 25 29  0  0  0  0  0  0  0  0999 V2000
  186.3500  178.2870  144.6460 N   0  0  0  0  0  0  0  0  0  0  0  0
  186.3950  178.3520  143.2850 C   0  0  0  0  0  0  0  0  0  0  0  0
  184.0620  178.9800  144.7210 C   0  0  0  0  0  3  0  0  0  0  0  0
  187.2850  177.9500  145.5480 C   0  0  0  0  0  0  0  0  0  0  0  0
  188.8510  177.3430  147.7510 C   0  0  0  0  0  3  0  0  0  0  0  0
  184.0690  179.0590  143.3210 C   0  0  0  0  0  3  0  0  0  0  0  0
  186.7570  178.0370  146.8140 C   0  0  0  0  0  0  0  0  0  0  0  0
  187.5160  177.7400  147.9440 C   0  0  0  0  0  3  0  0  0  0  0  0
  185.2890  178.8120  141.1920 C   0  0  0  0  0  0  0  0  0  0  0  0
  184.1060  179.2210  140.3800 C   0  0  0  0  0  1  0  0  0  0  0  0
  187.5270  178.0470  142.5970 N   0  0  0  0  0  0  0  0  0  0  0  0
  189.3930  177.2540  146.4500 C   0  0  0  0  0  3  0  0  0  0  0  0
  185.2380  178.5850  145.3570 C   0  0  0  0  0  0  0  0  0  0  0  0
  185.4340  178.4450  146.7300 C   0  0  0  0  0  3  0  0  0  0  0  0
  186.4470  178.4960  140.5530 N   0  0  0  0  0  0  0  0  0  0  0  0
  188.6070  177.5600  145.3260 C   0  0  0  0  0  3  0  0  0  0  0  0
  187.5620  178.1170  141.2380 C   0  0  0  0  0  0  0  0  0  0  0  0
  185.2330  178.7480  142.5910 C   0  0  0  0  0  0  0  0  0  0  0  0
  189.9860  177.3700  138.4460 C   0  0  0  0  0  0  0  0  0  0  0  0
  188.8010  177.7810  140.5120 C   0  0  0  0  0  0  0  0  0  0  0  0
  188.8030  177.6890  139.1150 C   0  0  0  0  0  3  0  0  0  0  0  0
  189.9960  177.2740  137.0270 N   0  0  0  0  0  1  0  0  0  0  0  0
  189.9930  177.5500  141.2110 C   0  0  0  0  0  3  0  0  0  0  0  0
  191.1290  177.1510  139.1490 N   0  0  0  0  0  0  0  0  0  0  0  0
  191.1560  177.2340  140.5060 C   0  0  0  0  0  3  0  0  0  0  0  0
  1 13  1  0  0  0  0
  1  4  1  0  0  0  0
  2  1  1  0  0  0  0
  3 13  1  0  0  0  0
  4  7  1  0  0  0  0
  5  8  1  0  0  0  0
  6  3  2  0  0  0  0
  7  8  2  0  0  0  0
  9 18  1  0  0  0  0
 10  9  1  0  0  0  0
 11  2  1  0  0  0  0
 12  5  2  0  0  0  0
 13 14  2  0  0  0  0
 14  7  1  0  0  0  0
 15  9  2  0  0  0  0
 15 17  1  0  0  0  0
 16  4  2  0  0  0  0
 16 12  1  0  0  0  0
 17 11  2  0  0  0  0
 18  2  2  0  0  0  0
 18  6  1  0  0  0  0
 19 21  2  0  0  0  0
 19 24  1  0  0  0  0
 20 23  2  0  0  0  0
 20 17  1  0  0  0  0
 21 20  1  0  0  0  0
 22 19  1  0  0  0  0
 24 25  2  0  0  0  0
 25 23  1  0  0  0  0
M  END
>  <MODEL>
6

>  <REMARK>
 VINA RESULT:     -10.5      1.422      4.455
  Name = 
  1 active torsions:
  status: ('A' for Active; 'I' for Inactive)
    1  A    between atoms: C_6  and  C_23
                            x       y       z     vdW  Elec       q    Type
                         _______ _______ _______ _____ _____    ______ ____

>  <TORSDO>
F 1

$$$$
=
 OpenBabel10272400503D

 25 29  0  0  0  0  0  0  0  0999 V2000
  187.2330  177.9200  144.2810 N   0  0  0  0  0  0  0  0  0  0  0  0
  188.1420  177.7890  143.2740 C   0  0  0  0  0  0  0  0  0  0  0  0
  188.8180  177.2890  145.9560 C   0  0  0  0  0  3  0  0  0  0  0  0
  185.9380  178.2760  144.2630 C   0  0  0  0  0  0  0  0  0  0  0  0
  183.2920  178.9470  144.7310 C   0  0  0  0  0  3  0  0  0  0  0  0
  189.7830  177.1430  144.9490 C   0  0  0  0  0  3  0  0  0  0  0  0
  185.4390  178.2630  145.5440 C   0  0  0  0  0  0  0  0  0  0  0  0
  184.1130  178.5940  145.8150 C   0  0  0  0  0  3  0  0  0  0  0  0
  190.3830  177.2580  142.5600 C   0  0  0  0  0  0  0  0  0  0  0  0
  191.7930  176.8420  142.8170 C   0  0  0  0  0  1  0  0  0  0  0  0
  187.8080  178.0320  141.9790 N   0  0  0  0  0  0  0  0  0  0  0  0
  183.8040  178.9610  143.4160 C   0  0  0  0  0  3  0  0  0  0  0  0
  187.5360  177.6840  145.5780 C   0  0  0  0  0  0  0  0  0  0  0  0
  186.4450  177.8840  146.4220 C   0  0  0  0  0  3  0  0  0  0  0  0
  189.9960  177.5140  141.2810 N   0  0  0  0  0  0  0  0  0  0  0  0
  185.1450  178.6220  143.1680 C   0  0  0  0  0  3  0  0  0  0  0  0
  188.7240  177.8980  140.9810 C   0  0  0  0  0  0  0  0  0  0  0  0
  189.4550  177.3910  143.6010 C   0  0  0  0  0  0  0  0  0  0  0  0
  186.6900  178.1750  137.8160 C   0  0  0  0  0  0  0  0  0  0  0  0
  188.3400  178.1670  139.5830 C   0  0  0  0  0  0  0  0  0  0  0  0
  187.0340  177.9120  139.1430 C   0  0  0  0  0  3  0  0  0  0  0  0
  185.3670  177.9180  137.3620 N   0  0  0  0  0  1  0  0  0  0  0  0
  189.2750  178.6820  138.6770 C   0  0  0  0  0  3  0  0  0  0  0  0
  187.6190  178.6740  136.9570 N   0  0  0  0  0  0  0  0  0  0  0  0
  188.8920  178.9310  137.3570 C   0  0  0  0  0  3  0  0  0  0  0  0
  1 13  1  0  0  0  0
  2 18  2  0  0  0  0
  2  1  1  0  0  0  0
  4  1  1  0  0  0  0
  4  7  1  0  0  0  0
  5  8  1  0  0  0  0
  6  3  2  0  0  0  0
  7  8  2  0  0  0  0
  7 14  1  0  0  0  0
  9 10  1  0  0  0  0
  9 18  1  0  0  0  0
 11  2  1  0  0  0  0
 12  5  2  0  0  0  0
 13  3  1  0  0  0  0
 13 14  2  0  0  0  0
 15  9  2  0  0  0  0
 16 12  1  0  0  0  0
 16  4  2  0  0  0  0
 17 15  1  0  0  0  0
 17 11  2  0  0  0  0
 18  6  1  0  0  0  0
 19 21  1  0  0  0  0
 20 17  1  0  0  0  0
 21 20  2  0  0  0  0
 22 19  1  0  0  0  0
 23 20  1  0  0  0  0
 24 25  1  0  0  0  0
 24 19  2  0  0  0  0
 25 23  2  0  0  0  0
M  END
>  <MODEL>
7

>  <REMARK>
 VINA RESULT:     -10.4      2.143      3.232
  Name = 
  1 active torsions:
  status: ('A' for Active; 'I' for Inactive)
    1  A    between atoms: C_6  and  C_23
                            x       y       z     vdW  Elec       q    Type
                         _______ _______ _______ _____ _____    ______ ____

>  <TORSDO>
F 1

$$$$
=
 OpenBabel10272400503D

 25 29  0  0  0  0  0  0  0  0999 V2000
  189.4890  177.4710  143.4460 N   0  0  0  0  0  0  0  0  0  0  0  0
  188.4810  177.7920  142.5880 C   0  0  0  0  0  0  0  0  0  0  0  0
  191.0940  177.2920  141.6820 C   0  0  0  0  0  3  0  0  0  0  0  0
  189.5030  177.3260  144.7810 C   0  0  0  0  0  0  0  0  0  0  0  0
  190.0240  176.9230  147.4710 C   0  0  0  0  0  3  0  0  0  0  0  0
  190.0840  177.6200  140.7670 C   0  0  0  0  0  3  0  0  0  0  0  0
  190.7710  176.9930  145.1950 C   0  0  0  0  0  0  0  0  0  0  0  0
  191.0680  176.7830  146.5400 C   0  0  0  0  0  3  0  0  0  0  0  0
  187.7270  178.2020  140.3340 C   0  0  0  0  0  0  0  0  0  0  0  0
  187.9460  178.3080  138.8610 C   0  0  0  0  0  1  0  0  0  0  0  0
  187.2190  178.0330  143.0320 N   0  0  0  0  0  0  0  0  0  0  0  0
  188.7230  177.2650  147.0460 C   0  0  0  0  0  3  0  0  0  0  0  0
  190.7540  177.2260  143.0330 C   0  0  0  0  0  0  0  0  0  0  0  0
  191.6080  176.9190  144.0910 C   0  0  0  0  0  3  0  0  0  0  0  0
  186.4830  178.4330  140.8320 N   0  0  0  0  0  0  0  0  0  0  0  0
  188.4480  177.4710  145.6830 C   0  0  0  0  0  3  0  0  0  0  0  0
  186.2190  178.3520  142.1660 C   0  0  0  0  0  0  0  0  0  0  0  0
  188.7700  177.8720  141.2090 C   0  0  0  0  0  0  0  0  0  0  0  0
  182.4740  178.7890  142.3050 C   0  0  0  0  0  0  0  0  0  0  0  0
  184.8570  178.6090  142.6710 C   0  0  0  0  0  0  0  0  0  0  0  0
  183.7560  178.5420  141.8080 C   0  0  0  0  0  3  0  0  0  0  0  0
  181.3510  178.7230  141.4360 N   0  0  0  0  0  1  0  0  0  0  0  0
  184.6480  178.9230  144.0190 C   0  0  0  0  0  3  0  0  0  0  0  0
  182.3000  179.0920  143.6200 N   0  0  0  0  0  0  0  0  0  0  0  0
  183.3510  179.1630  144.4790 C   0  0  0  0  0  3  0  0  0  0  0  0
  1  4  1  0  0  0  0
  2 11  1  0  0  0  0
  2  1  1  0  0  0  0
  3 13  1  0  0  0  0
  4  7  2  0  0  0  0
  4 16  1  0  0  0  0
  6 18  1  0  0  0  0
  6  3  2  0  0  0  0
  7  8  1  0  0  0  0
  8  5  2  0  0  0  0
  9 15  2  0  0  0  0
  9 18  1  0  0  0  0
 10  9  1  0  0  0  0
 12  5  1  0  0  0  0
 13  1  1  0  0  0  0
 13 14  2  0  0  0  0
 14  7  1  0  0  0  0
 15 17  1  0  0  0  0
 16 12  2  0  0  0  0
 17 20  1  0  0  0  0
 17 11  2  0  0  0  0
 18  2  2  0  0  0  0
 19 24  1  0  0  0  0
 20 23  2  0  0  0  0
 21 19  2  0  0  0  0
 21 20  1  0  0  0  0
 22 19  1  0  0  0  0
 23 25  1  0  0  0  0
 24 25  2  0  0  0  0
M  END
>  <MODEL>
8

>  <REMARK>
 VINA RESULT:     -10.1      2.258      6.789
  Name = 
  1 active torsions:
  status: ('A' for Active; 'I' for Inactive)
    1  A    between atoms: C_6  and  C_23
                            x       y       z     vdW  Elec       q    Type
                         _______ _______ _______ _____ _____    ______ ____

>  <TORSDO>
F 1

$$$$
=
 OpenBabel10272400503D

 25 29  0  0  0  0  0  0  0  0999 V2000
  186.4710  178.2970  142.2180 N   0  0  0  0  0  0  0  0  0  0  0  0
  187.7770  177.9290  142.3420 C   0  0  0  0  0  0  0  0  0  0  0  0
  186.6050  178.4150  139.8330 C   0  0  0  0  0  3  0  0  0  0  0  0
  185.5170  178.5000  143.1420 C   0  0  0  0  0  0  0  0  0  0  0  0
  183.2530  179.0240  144.6490 C   0  0  0  0  0  3  0  0  0  0  0  0
  187.9540  178.0380  139.9190 C   0  0  0  0  0  3  0  0  0  0  0  0
  184.3450  178.8620  142.5220 C   0  0  0  0  0  0  0  0  0  0  0  0
  183.1880  179.1330  143.2480 C   0  0  0  0  0  3  0  0  0  0  0  0
  189.8940  177.4150  141.3070 C   0  0  0  0  0  0  0  0  0  0  0  0
  190.7840  177.2480  140.1200 C   0  0  0  0  0  1  0  0  0  0  0  0
  188.3380  177.6970  143.5580 N   0  0  0  0  0  0  0  0  0  0  0  0
  184.4570  178.6520  145.2850 C   0  0  0  0  0  3  0  0  0  0  0  0
  185.8860  178.5360  141.0220 C   0  0  0  0  0  0  0  0  0  0  0  0
  184.5460  178.8960  141.1490 C   0  0  0  0  0  3  0  0  0  0  0  0
  190.4050  177.1940  142.5480 N   0  0  0  0  0  0  0  0  0  0  0  0
  185.6110  178.3840  144.5300 C   0  0  0  0  0  3  0  0  0  0  0  0
  189.6440  177.3310  143.6700 C   0  0  0  0  0  0  0  0  0  0  0  0
  188.5520  177.7930  141.1700 C   0  0  0  0  0  0  0  0  0  0  0  0
  190.1590  177.2930  147.4070 C   0  0  0  0  0  0  0  0  0  0  0  0
  190.2310  177.0830  144.9990 C   0  0  0  0  0  0  0  0  0  0  0  0
  189.5870  177.5390  146.1570 C   0  0  0  0  0  3  0  0  0  0  0  0
  189.5120  177.7530  148.5860 N   0  0  0  0  0  1  0  0  0  0  0  0
  191.4410  176.3880  145.1230 C   0  0  0  0  0  3  0  0  0  0  0  0
  191.3360  176.6160  147.4970 N   0  0  0  0  0  0  0  0  0  0  0  0
  191.9820  176.1630  146.3910 C   0  0  0  0  0  3  0  0  0  0  0  0
  1  2  1  0  0  0  0
  1  4  1  0  0  0  0
  2 11  1  0  0  0  0
  3  6  2  0  0  0  0
  3 13  1  0  0  0  0
  4 16  1  0  0  0  0
  5 12  1  0  0  0  0
  6 18  1  0  0  0  0
  7  4  2  0  0  0  0
  7  8  1  0  0  0  0
  8  5  2  0  0  0  0
  9 15  2  0  0  0  0
 10  9  1  0  0  0  0
 11 17  2  0  0  0  0
 13 14  2  0  0  0  0
 13  1  1  0  0  0  0
 14  7  1  0  0  0  0
 15 17  1  0  0  0  0
 16 12  2  0  0  0  0
 17 20  1  0  0  0  0
 18  9  1  0  0  0  0
 18  2  2  0  0  0  0
 19 24  1  0  0  0  0
 19 22  1  0  0  0  0
 20 23  2  0  0  0  0
 20 21  1  0  0  0  0
 21 19  2  0  0  0  0
 23 25  1  0  0  0  0
 25 24  2  0  0  0  0
M  END
>  <MODEL>
9

>  <REMARK>
 VINA RESULT:     -10.0      1.716      5.103
  Name = 
  1 active torsions:
  status: ('A' for Active; 'I' for Inactive)
    1  A    between atoms: C_6  and  C_23
                            x       y       z     vdW  Elec       q    Type
                         _______ _______ _______ _____ _____    ______ ____

>  <TORSDO>
F 1

$$$$
