=
 OpenBabel10272400213D

 31 35  0  0  1  0  0  0  0  0999 V2000
  185.5320  178.2510  145.0890 C   0  0  0  0  0  0  0  0  0  0  0  0
  189.0420  177.7170  143.8640 C   0  0  0  0  0  0  0  0  0  0  0  0
  189.8710  177.4750  145.0950 C   0  0  0  0  0  0  0  0  0  0  0  0
  189.7350  176.6440  147.4130 C   0  0  0  0  0  2  0  0  0  0  0  0
  187.6410  177.9670  143.8920 C   0  0  0  0  0  0  0  0  0  0  0  0
  184.8610  178.4540  143.8830 C   0  0  0  0  0  3  0  0  0  0  0  0
  189.3720  177.7840  146.4760 C   0  0  0  0  0  2  0  0  0  0  0  0
  188.9800  177.8490  141.4130 C   0  0  0  0  0  0  0  0  0  0  0  0
  184.7860  178.2940  146.3730 C   0  0  0  0  0  1  0  0  0  0  0  0
  191.6460  176.7370  143.6990 O   0  0  0  0  0  0  0  0  0  0  0  0
  191.2520  176.4560  147.4710 C   0  0  1  0  0  3  0  0  0  0  0  0
  187.6100  178.1090  141.4600 C   0  0  0  0  0  3  0  0  0  0  0  0
  189.6910  177.6430  142.6070 C   0  0  0  0  0  0  0  0  0  0  0  0
  186.9070  178.0080  145.0890 C   0  0  0  0  0  3  0  0  0  0  0  0
  191.6120  175.3630  146.6580 O   0  0  0  0  0  0  0  0  0  0  0  0
  186.9390  178.1640  142.6750 C   0  0  0  0  0  0  0  0  0  0  0  0
  185.5620  178.4090  142.6790 C   0  0  0  0  0  3  0  0  0  0  0  0
  191.1770  177.4300  142.5460 C   0  0  0  0  0  2  0  0  0  0  0  0
  191.1140  176.9710  144.9680 C   0  0  0  0  0  0  0  0  0  0  0  0
  191.9720  176.6310  146.1650 C   0  0  1  0  0  3  0  0  0  0  0  0
  189.6650  177.8010  140.1540 N   0  0  0  0  0  2  0  0  0  0  0  0
  190.7540  176.0300  138.4700 S   0  0  0  0  0  1  0  0  0  0  0  0
  189.2780  176.9230  139.0540 C   0  0  2  0  0  3  0  0  0  0  0  0
  188.6470  179.0890  138.2240 O   0  0  0  0  0  1  0  0  0  0  0  0
  188.6550  177.7280  137.9040 C   0  0  2  0  0  3  0  0  0  0  0  0
  187.1330  176.6750  136.2870 N   0  0  0  0  0  1  0  0  0  0  0  0
  187.2200  177.2580  137.6140 C   0  0  2  0  0  3  0  0  0  0  0  0
  186.2280  178.4130  137.6950 C   0  0  0  0  0  2  0  0  0  0  0  0
  184.9890  178.0230  138.4840 C   0  0  0  0  0  3  0  0  0  0  0  0
  184.4820  179.2270  139.2470 C   0  0  0  0  0  1  0  0  0  0  0  0
  183.9010  177.5340  137.5470 C   0  0  0  0  0  1  0  0  0  0  0  0
  1 14  1  0  0  0  0
  1  9  1  0  0  0  0
  2  5  1  0  0  0  0
  2  3  1  0  0  0  0
  3  7  1  0  0  0  0
  5 14  2  0  0  0  0
  6  1  2  0  0  0  0
  7  4  1  0  0  0  0
  8 12  2  0  0  0  0
  8 13  1  0  0  0  0
 10 19  1  0  0  0  0
 11  4  1  6  0  0  0
 12 16  1  0  0  0  0
 13  2  2  0  0  0  0
 15 11  1  0  0  0  0
 16 17  2  0  0  0  0
 16  5  1  0  0  0  0
 17  6  1  0  0  0  0
 18 13  1  0  0  0  0
 18 10  1  0  0  0  0
 19  3  2  0  0  0  0
 20 19  1  6  0  0  0
 20 15  1  0  0  0  0
 20 11  1  0  0  0  0
 21  8  1  0  0  0  0
 23 22  1  6  0  0  0
 23 21  1  0  0  0  0
 25 24  1  1  0  0  0
 25 23  1  0  0  0  0
 27 26  1  6  0  0  0
 27 28  1  0  0  0  0
 27 25  1  0  0  0  0
 28 29  1  0  0  0  0
 29 30  1  0  0  0  0
 31 29  1  0  0  0  0
M  END
>  <MODEL>
1

>  <REMARK>
 VINA RESULT:      -9.5      0.000      0.000
  Name = 
  6 active torsions:
  status: ('A' for Active; 'I' for Inactive)
    1  A    between atoms: C_1  and  C_24
    2  A    between atoms: C_9  and  C_22
    3  A    between atoms: C_9  and  N_23
    4  A    between atoms: C_15  and  N_23
    5  A    between atoms: C_19  and  C_22
    6  A    between atoms: C_19  and  C_24
                            x       y       z     vdW  Elec       q    Type
                         _______ _______ _______ _____ _____    ______ ____

>  <TORSDO>
F 6

$$$$
=
 OpenBabel10272400213D

 31 35  0  0  1  0  0  0  0  0999 V2000
  189.7680  177.1520  146.3550 C   0  0  0  0  0  0  0  0  0  0  0  0
  187.7490  177.9210  143.2830 C   0  0  0  0  0  0  0  0  0  0  0  0
  186.3340  178.0990  143.7580 C   0  0  0  0  0  0  0  0  0  0  0  0
  185.0000  178.7400  145.7310 C   0  0  0  0  0  2  0  0  0  0  0  0
  188.8400  177.6140  144.1450 C   0  0  0  0  0  0  0  0  0  0  0  0
  191.0430  177.0180  145.8050 C   0  0  0  0  0  3  0  0  0  0  0  0
  185.8820  177.6630  145.1210 C   0  0  0  0  0  2  0  0  0  0  0  0
  189.3110  177.9800  141.3880 C   0  0  0  0  0  0  0  0  0  0  0  0
  189.5660  176.9790  147.8160 C   0  0  0  0  0  1  0  0  0  0  0  0
  185.7840  179.0160  141.6360 O   0  0  0  0  0  0  0  0  0  0  0  0
  183.7660  178.9840  144.8600 C   0  0  1  0  0  3  0  0  0  0  0  0
  190.3650  177.6620  142.2450 C   0  0  0  0  0  3  0  0  0  0  0  0
  188.0120  178.1200  141.9050 C   0  0  0  0  0  0  0  0  0  0  0  0
  188.6810  177.4500  145.5310 C   0  0  0  0  0  3  0  0  0  0  0  0
  183.9650  180.1510  144.0960 O   0  0  0  0  0  0  0  0  0  0  0  0
  190.1460  177.4850  143.6050 C   0  0  0  0  0  0  0  0  0  0  0  0
  191.2310  177.1850  144.4340 C   0  0  0  0  0  3  0  0  0  0  0  0
  186.8760  178.3970  140.9620 C   0  0  0  0  0  2  0  0  0  0  0  0
  185.4250  178.6620  142.9390 C   0  0  0  0  0  0  0  0  0  0  0  0
  184.0070  178.9400  143.3790 C   0  0  1  0  0  3  0  0  0  0  0  0
  189.5460  178.1540  139.9840 N   0  0  0  0  0  2  0  0  0  0  0  0
  190.9020  176.2760  138.6450 S   0  0  0  0  0  1  0  0  0  0  0  0
  189.3200  177.1090  138.9900 C   0  0  2  0  0  3  0  0  0  0  0  0
  188.5080  179.0720  137.8620 O   0  0  0  0  0  1  0  0  0  0  0  0
  188.7380  177.7020  137.6980 C   0  0  2  0  0  3  0  0  0  0  0  0
  187.5720  176.3150  136.0380 N   0  0  0  0  0  1  0  0  0  0  0  0
  187.4260  177.0020  137.3100 C   0  0  2  0  0  3  0  0  0  0  0  0
  186.2780  177.9970  137.1870 C   0  0  0  0  0  2  0  0  0  0  0  0
  184.9780  177.4090  137.7120 C   0  0  0  0  0  3  0  0  0  0  0  0
  184.2180  178.4730  138.4720 C   0  0  0  0  0  1  0  0  0  0  0  0
  184.1230  176.9130  136.5610 C   0  0  0  0  0  1  0  0  0  0  0  0
  1  9  1  0  0  0  0
  2  3  1  0  0  0  0
  2  5  1  0  0  0  0
  3  7  1  0  0  0  0
  5 14  1  0  0  0  0
  6  1  1  0  0  0  0
  7  4  1  0  0  0  0
  8 13  1  0  0  0  0
  8 12  2  0  0  0  0
 10 19  1  0  0  0  0
 11  4  1  1  0  0  0
 12 16  1  0  0  0  0
 13  2  2  0  0  0  0
 14  1  2  0  0  0  0
 15 11  1  0  0  0  0
 16  5  2  0  0  0  0
 16 17  1  0  0  0  0
 17  6  2  0  0  0  0
 18 10  1  0  0  0  0
 18 13  1  0  0  0  0
 19  3  2  0  0  0  0
 20 19  1  1  0  0  0
 20 15  1  0  0  0  0
 20 11  1  0  0  0  0
 21  8  1  0  0  0  0
 23 22  1  6  0  0  0
 23 21  1  0  0  0  0
 25 24  1  1  0  0  0
 25 23  1  0  0  0  0
 27 26  1  6  0  0  0
 27 25  1  0  0  0  0
 28 27  1  0  0  0  0
 28 29  1  0  0  0  0
 29 30  1  0  0  0  0
 31 29  1  0  0  0  0
M  END
>  <MODEL>
2

>  <REMARK>
 VINA RESULT:      -8.9      2.090      4.256
  Name = 
  6 active torsions:
  status: ('A' for Active; 'I' for Inactive)
    1  A    between atoms: C_1  and  C_24
    2  A    between atoms: C_9  and  C_22
    3  A    between atoms: C_9  and  N_23
    4  A    between atoms: C_15  and  N_23
    5  A    between atoms: C_19  and  C_22
    6  A    between atoms: C_19  and  C_24
                            x       y       z     vdW  Elec       q    Type
                         _______ _______ _______ _____ _____    ______ ____

>  <TORSDO>
F 6

$$$$
=
 OpenBabel10272400213D

 31 35  0  0  1  0  0  0  0  0999 V2000
  189.9810  177.0910  146.0090 C   0  0  0  0  0  0  0  0  0  0  0  0
  187.6940  177.9560  143.1590 C   0  0  0  0  0  0  0  0  0  0  0  0
  186.3200  178.0700  143.7590 C   0  0  0  0  0  0  0  0  0  0  0  0
  185.1400  178.5730  145.8660 C   0  0  0  0  0  2  0  0  0  0  0  0
  188.8600  177.6370  143.9110 C   0  0  0  0  0  0  0  0  0  0  0  0
  191.2080  177.0210  145.3500 C   0  0  0  0  0  3  0  0  0  0  0  0
  185.9940  177.5540  145.1290 C   0  0  0  0  0  2  0  0  0  0  0  0
  189.0890  178.1530  141.1480 C   0  0  0  0  0  0  0  0  0  0  0  0
  189.9060  176.8400  147.4710 C   0  0  0  0  0  1  0  0  0  0  0  0
  185.5720  179.0760  141.7400 O   0  0  0  0  0  0  0  0  0  0  0  0
  183.8330  178.8260  145.1130 C   0  0  1  0  0  3  0  0  0  0  0  0
  190.2190  177.8230  141.8970 C   0  0  0  0  0  3  0  0  0  0  0  0
  187.8350  178.2310  141.7760 C   0  0  0  0  0  0  0  0  0  0  0  0
  188.8220  177.3990  145.2950 C   0  0  0  0  0  3  0  0  0  0  0  0
  183.9390  180.0350  144.3970 O   0  0  0  0  0  0  0  0  0  0  0  0
  190.1180  177.5720  143.2590 C   0  0  0  0  0  0  0  0  0  0  0  0
  191.2770  177.2620  143.9790 C   0  0  0  0  0  3  0  0  0  0  0  0
  186.6170  178.5220  140.9460 C   0  0  0  0  0  2  0  0  0  0  0  0
  185.3310  178.6470  143.0470 C   0  0  0  0  0  0  0  0  0  0  0  0
  183.9490  178.8630  143.6170 C   0  0  1  0  0  3  0  0  0  0  0  0
  189.2020  178.4030  139.7400 N   0  0  0  0  0  2  0  0  0  0  0  0
  190.6080  176.3910  138.6770 S   0  0  0  0  0  1  0  0  0  0  0  0
  189.0710  177.3670  138.7200 C   0  0  2  0  0  3  0  0  0  0  0  0
  189.0310  179.3650  137.3840 O   0  0  0  0  0  1  0  0  0  0  0  0
  188.7960  177.9870  137.3430 C   0  0  2  0  0  3  0  0  0  0  0  0
  186.4500  178.7080  137.4750 N   0  0  0  0  0  1  0  0  0  0  0  0
  187.3490  177.7240  136.8960 C   0  0  2  0  0  3  0  0  0  0  0  0
  186.8780  176.3370  137.3190 C   0  0  0  0  0  2  0  0  0  0  0  0
  186.2330  175.5960  136.1590 C   0  0  0  0  0  3  0  0  0  0  0  0
  184.7280  175.6460  136.3080 C   0  0  0  0  0  1  0  0  0  0  0  0
  186.6240  176.2380  134.8420 C   0  0  0  0  0  1  0  0  0  0  0  0
  1  9  1  0  0  0  0
  2  3  1  0  0  0  0
  2  5  1  0  0  0  0
  3  7  1  0  0  0  0
  5 14  1  0  0  0  0
  6  1  1  0  0  0  0
  7  4  1  0  0  0  0
  8 13  1  0  0  0  0
  8 12  2  0  0  0  0
 10 19  1  0  0  0  0
 11  4  1  1  0  0  0
 12 16  1  0  0  0  0
 13  2  2  0  0  0  0
 14  1  2  0  0  0  0
 15 11  1  0  0  0  0
 16  5  2  0  0  0  0
 16 17  1  0  0  0  0
 17  6  2  0  0  0  0
 18 10  1  0  0  0  0
 18 13  1  0  0  0  0
 19  3  2  0  0  0  0
 20 19  1  1  0  0  0
 20 15  1  0  0  0  0
 20 11  1  0  0  0  0
 21  8  1  0  0  0  0
 23 22  1  6  0  0  0
 23 21  1  0  0  0  0
 25 24  1  1  0  0  0
 25 23  1  0  0  0  0
 27 28  1  0  0  0  0
 27 25  1  0  0  0  0
 27 26  1  1  0  0  0
 29 30  1  0  0  0  0
 29 28  1  0  0  0  0
 31 29  1  0  0  0  0
M  END
>  <MODEL>
3

>  <REMARK>
 VINA RESULT:      -8.7      2.320      4.476
  Name = 
  6 active torsions:
  status: ('A' for Active; 'I' for Inactive)
    1  A    between atoms: C_1  and  C_24
    2  A    between atoms: C_9  and  C_22
    3  A    between atoms: C_9  and  N_23
    4  A    between atoms: C_15  and  N_23
    5  A    between atoms: C_19  and  C_22
    6  A    between atoms: C_19  and  C_24
                            x       y       z     vdW  Elec       q    Type
                         _______ _______ _______ _____ _____    ______ ____

>  <TORSDO>
F 6

$$$$
=
 OpenBabel10272400213D

 31 35  0  0  1  0  0  0  0  0999 V2000
  185.4050  178.4270  145.9900 C   0  0  0  0  0  0  0  0  0  0  0  0
  187.6070  178.2310  142.9540 C   0  0  0  0  0  0  0  0  0  0  0  0
  188.9760  177.8760  143.4650 C   0  0  0  0  0  0  0  0  0  0  0  0
  190.1380  176.7510  145.3270 C   0  0  0  0  0  2  0  0  0  0  0  0
  186.4710  178.4040  143.7940 C   0  0  0  0  0  0  0  0  0  0  0  0
  184.1800  178.7470  145.4070 C   0  0  0  0  0  3  0  0  0  0  0  0
  189.3460  177.9810  144.9150 C   0  0  0  0  0  2  0  0  0  0  0  0
  186.1850  178.6710  141.0010 C   0  0  0  0  0  0  0  0  0  0  0  0
  185.5090  178.2680  147.4630 C   0  0  0  0  0  1  0  0  0  0  0  0
  189.6400  177.4120  141.2310 O   0  0  0  0  0  0  0  0  0  0  0  0
  191.4200  176.6330  144.5000 C   0  0  1  0  0  3  0  0  0  0  0  0
  185.0860  178.8530  141.8410 C   0  0  0  0  0  3  0  0  0  0  0  0
  187.4360  178.3500  141.5530 C   0  0  0  0  0  0  0  0  0  0  0  0
  186.5360  178.2550  145.1890 C   0  0  0  0  0  3  0  0  0  0  0  0
  191.2290  175.6720  143.4880 O   0  0  0  0  0  0  0  0  0  0  0  0
  185.2140  178.7190  143.2170 C   0  0  0  0  0  0  0  0  0  0  0  0
  184.0840  178.8920  144.0230 C   0  0  0  0  0  3  0  0  0  0  0  0
  188.6260  178.2220  140.6440 C   0  0  0  0  0  2  0  0  0  0  0  0
  189.9180  177.4550  142.5990 C   0  0  0  0  0  0  0  0  0  0  0  0
  191.2890  177.0100  143.0530 C   0  0  1  0  0  3  0  0  0  0  0  0
  186.0440  178.8190  139.5810 N   0  0  0  0  0  2  0  0  0  0  0  0
  185.8740  177.5310  137.2420 S   0  0  0  0  0  1  0  0  0  0  0  0
  185.0710  178.0800  138.7820 C   0  0  2  0  0  3  0  0  0  0  0  0
  184.0470  180.2480  138.9550 O   0  0  0  0  0  1  0  0  0  0  0  0
  183.8500  178.9540  138.4630 C   0  0  2  0  0  3  0  0  0  0  0  0
  182.0080  179.2660  140.0590 N   0  0  0  0  0  1  0  0  0  0  0  0
  182.5700  178.3600  139.0730 C   0  0  2  0  0  3  0  0  0  0  0  0
  182.8440  177.0230  139.7520 C   0  0  0  0  0  2  0  0  0  0  0  0
  182.1080  175.8890  139.0560 C   0  0  0  0  0  3  0  0  0  0  0  0
  181.0340  176.4650  138.1600 C   0  0  0  0  0  1  0  0  0  0  0  0
  183.0730  175.0740  138.2170 C   0  0  0  0  0  1  0  0  0  0  0  0
  1  9  1  0  0  0  0
  2  3  1  0  0  0  0
  2  5  1  0  0  0  0
  3  7  1  0  0  0  0
  5 14  1  0  0  0  0
  6  1  1  0  0  0  0
  7  4  1  0  0  0  0
  8 13  1  0  0  0  0
  8 12  2  0  0  0  0
 10 19  1  0  0  0  0
 11  4  1  1  0  0  0
 12 16  1  0  0  0  0
 13  2  2  0  0  0  0
 14  1  2  0  0  0  0
 15 11  1  0  0  0  0
 16  5  2  0  0  0  0
 16 17  1  0  0  0  0
 17  6  2  0  0  0  0
 18 10  1  0  0  0  0
 18 13  1  0  0  0  0
 19  3  2  0  0  0  0
 20 19  1  1  0  0  0
 20 15  1  0  0  0  0
 20 11  1  0  0  0  0
 21  8  1  0  0  0  0
 23 22  1  6  0  0  0
 23 21  1  0  0  0  0
 25 23  1  0  0  0  0
 25 24  1  1  0  0  0
 25 27  1  0  0  0  0
 27 28  1  0  0  0  0
 27 26  1  1  0  0  0
 29 28  1  0  0  0  0
 30 29  1  0  0  0  0
 31 29  1  0  0  0  0
M  END
>  <MODEL>
4

>  <REMARK>
 VINA RESULT:      -8.7      2.380      3.357
  Name = 
  6 active torsions:
  status: ('A' for Active; 'I' for Inactive)
    1  A    between atoms: C_1  and  C_24
    2  A    between atoms: C_9  and  C_22
    3  A    between atoms: C_9  and  N_23
    4  A    between atoms: C_15  and  N_23
    5  A    between atoms: C_19  and  C_22
    6  A    between atoms: C_19  and  C_24
                            x       y       z     vdW  Elec       q    Type
                         _______ _______ _______ _____ _____    ______ ____

>  <TORSDO>
F 6

$$$$
=
 OpenBabel10272400213D

 31 35  0  0  1  0  0  0  0  0999 V2000
  185.5730  178.3870  146.0720 C   0  0  0  0  0  0  0  0  0  0  0  0
  187.6700  178.2630  142.9590 C   0  0  0  0  0  0  0  0  0  0  0  0
  189.0630  177.9350  143.4180 C   0  0  0  0  0  0  0  0  0  0  0  0
  190.3150  176.8220  145.2280 C   0  0  0  0  0  2  0  0  0  0  0  0
  186.5600  178.4040  143.8390 C   0  0  0  0  0  0  0  0  0  0  0  0
  184.3210  178.6840  145.5350 C   0  0  0  0  0  3  0  0  0  0  0  0
  189.4820  178.0370  144.8550 C   0  0  0  0  0  2  0  0  0  0  0  0
  186.1700  178.6860  141.0610 C   0  0  0  0  0  0  0  0  0  0  0  0
  185.7320  178.2180  147.5390 C   0  0  0  0  0  1  0  0  0  0  0  0
  189.6580  177.5030  141.1580 O   0  0  0  0  0  0  0  0  0  0  0  0
  191.5690  176.7390  144.3560 C   0  0  1  0  0  3  0  0  0  0  0  0
  185.0970  178.8370  141.9400 C   0  0  0  0  0  3  0  0  0  0  0  0
  187.4470  178.3900  141.5650 C   0  0  0  0  0  0  0  0  0  0  0  0
  186.6780  178.2460  145.2300 C   0  0  0  0  0  3  0  0  0  0  0  0
  191.3640  175.7820  143.3420 O   0  0  0  0  0  0  0  0  0  0  0  0
  185.2770  178.6960  143.3100 C   0  0  0  0  0  0  0  0  0  0  0  0
  184.1730  178.8360  144.1570 C   0  0  0  0  0  3  0  0  0  0  0  0
  188.6060  178.2950  140.6140 C   0  0  0  0  0  2  0  0  0  0  0  0
  189.9840  177.5420  142.5150 C   0  0  0  0  0  0  0  0  0  0  0  0
  191.3790  177.1240  142.9170 C   0  0  1  0  0  3  0  0  0  0  0  0
  185.9760  178.8420  139.6480 N   0  0  0  0  0  2  0  0  0  0  0  0
  185.8450  177.4560  137.3640 S   0  0  0  0  0  1  0  0  0  0  0  0
  185.0200  178.0590  138.8710 C   0  0  2  0  0  3  0  0  0  0  0  0
  183.9190  180.1900  139.0380 O   0  0  0  0  0  1  0  0  0  0  0  0
  183.7930  178.9040  138.5020 C   0  0  2  0  0  3  0  0  0  0  0  0
  181.5920  177.9790  137.9170 N   0  0  0  0  0  1  0  0  0  0  0  0
  182.4980  178.2560  139.0180 C   0  0  2  0  0  3  0  0  0  0  0  0
  181.7800  179.1610  140.0130 C   0  0  0  0  0  2  0  0  0  0  0  0
  181.3230  178.3830  141.2380 C   0  0  0  0  0  3  0  0  0  0  0  0
  181.1910  179.3300  142.4110 C   0  0  0  0  0  1  0  0  0  0  0  0
  179.9820  177.7270  140.9730 C   0  0  0  0  0  1  0  0  0  0  0  0
  1  9  1  0  0  0  0
  2  3  1  0  0  0  0
  2  5  1  0  0  0  0
  3  7  1  0  0  0  0
  5 14  1  0  0  0  0
  6  1  1  0  0  0  0
  7  4  1  0  0  0  0
  8 13  1  0  0  0  0
  8 12  2  0  0  0  0
 10 19  1  0  0  0  0
 11  4  1  1  0  0  0
 12 16  1  0  0  0  0
 13  2  2  0  0  0  0
 14  1  2  0  0  0  0
 15 11  1  0  0  0  0
 16  5  2  0  0  0  0
 16 17  1  0  0  0  0
 17  6  2  0  0  0  0
 18 10  1  0  0  0  0
 18 13  1  0  0  0  0
 19  3  2  0  0  0  0
 20 19  1  1  0  0  0
 20 15  1  0  0  0  0
 20 11  1  0  0  0  0
 21  8  1  0  0  0  0
 23 22  1  6  0  0  0
 23 21  1  0  0  0  0
 25 23  1  0  0  0  0
 25 27  1  0  0  0  0
 25 24  1  1  0  0  0
 27 26  1  6  0  0  0
 27 28  1  0  0  0  0
 28 29  1  0  0  0  0
 29 30  1  0  0  0  0
 31 29  1  0  0  0  0
M  END
>  <MODEL>
5

>  <REMARK>
 VINA RESULT:      -8.6      2.531      3.506
  Name = 
  6 active torsions:
  status: ('A' for Active; 'I' for Inactive)
    1  A    between atoms: C_1  and  C_24
    2  A    between atoms: C_9  and  C_22
    3  A    between atoms: C_9  and  N_23
    4  A    between atoms: C_15  and  N_23
    5  A    between atoms: C_19  and  C_22
    6  A    between atoms: C_19  and  C_24
                            x       y       z     vdW  Elec       q    Type
                         _______ _______ _______ _____ _____    ______ ____

>  <TORSDO>
F 6

$$$$
=
 OpenBabel10272400213D

 31 35  0  0  1  0  0  0  0  0999 V2000
  185.4830  178.2900  145.6970 C   0  0  0  0  0  0  0  0  0  0  0  0
  188.7600  177.5820  144.0050 C   0  0  0  0  0  0  0  0  0  0  0  0
  189.7580  177.3870  145.1130 C   0  0  0  0  0  0  0  0  0  0  0  0
  189.9500  176.6950  147.4730 C   0  0  0  0  0  2  0  0  0  0  0  0
  187.3840  177.8740  144.2230 C   0  0  0  0  0  0  0  0  0  0  0  0
  184.6440  178.4420  144.5930 C   0  0  0  0  0  3  0  0  0  0  0  0
  189.4750  177.7890  146.5310 C   0  0  0  0  0  2  0  0  0  0  0  0
  188.3380  177.5740  141.5860 C   0  0  0  0  0  0  0  0  0  0  0  0
  184.9360  178.4280  147.0710 C   0  0  0  0  0  1  0  0  0  0  0  0
  191.2900  176.5170  143.5190 O   0  0  0  0  0  0  0  0  0  0  0  0
  191.4540  176.4660  147.3190 C   0  0  1  0  0  3  0  0  0  0  0  0
  186.9950  177.8770  141.8180 C   0  0  0  0  0  3  0  0  0  0  0  0
  189.2130  177.4160  142.6730 C   0  0  0  0  0  0  0  0  0  0  0  0
  186.8370  178.0060  145.5100 C   0  0  0  0  0  3  0  0  0  0  0  0
  191.6670  175.3180  146.5300 O   0  0  0  0  0  0  0  0  0  0  0  0
  186.5140  178.0220  143.1130 C   0  0  0  0  0  0  0  0  0  0  0  0
  185.1580  178.3070  143.3040 C   0  0  0  0  0  3  0  0  0  0  0  0
  190.6690  177.1570  142.4080 C   0  0  0  0  0  2  0  0  0  0  0  0
  190.9580  176.8390  144.8370 C   0  0  0  0  0  0  0  0  0  0  0  0
  191.9760  176.5450  145.9130 C   0  0  1  0  0  3  0  0  0  0  0  0
  188.8270  177.4340  140.2450 N   0  0  0  0  0  2  0  0  0  0  0  0
  187.0170  178.0130  138.3620 S   0  0  0  0  0  1  0  0  0  0  0  0
  188.5890  178.4140  139.1890 C   0  0  2  0  0  3  0  0  0  0  0  0
  189.3140  178.9830  136.9690 O   0  0  0  0  0  1  0  0  0  0  0  0
  189.7400  178.4130  138.1730 C   0  0  2  0  0  3  0  0  0  0  0  0
  191.6850  176.9120  138.1220 N   0  0  0  0  0  1  0  0  0  0  0  0
  190.2490  176.9860  137.9160 C   0  0  2  0  0  3  0  0  0  0  0  0
  189.9460  176.5340  136.4920 C   0  0  0  0  0  2  0  0  0  0  0  0
  189.0090  175.3360  136.4790 C   0  0  0  0  0  3  0  0  0  0  0  0
  188.5170  175.1010  135.0680 C   0  0  0  0  0  1  0  0  0  0  0  0
  189.7350  174.0970  136.9670 C   0  0  0  0  0  1  0  0  0  0  0  0
  1  9  1  0  0  0  0
  2  5  1  0  0  0  0
  2  3  1  0  0  0  0
  3  7  1  0  0  0  0
  5 14  2  0  0  0  0
  6  1  2  0  0  0  0
  7  4  1  0  0  0  0
  8 12  2  0  0  0  0
  8 13  1  0  0  0  0
 10 19  1  0  0  0  0
 11  4  1  6  0  0  0
 12 16  1  0  0  0  0
 13  2  2  0  0  0  0
 14  1  1  0  0  0  0
 15 11  1  0  0  0  0
 16 17  2  0  0  0  0
 16  5  1  0  0  0  0
 17  6  1  0  0  0  0
 18 13  1  0  0  0  0
 18 10  1  0  0  0  0
 19  3  2  0  0  0  0
 20 19  1  6  0  0  0
 20 15  1  0  0  0  0
 20 11  1  0  0  0  0
 21  8  1  0  0  0  0
 23 22  1  6  0  0  0
 23 21  1  0  0  0  0
 25 24  1  6  0  0  0
 25 23  1  0  0  0  0
 27 26  1  6  0  0  0
 27 25  1  0  0  0  0
 28 27  1  0  0  0  0
 29 28  1  0  0  0  0
 29 31  1  0  0  0  0
 30 29  1  0  0  0  0
M  END
>  <MODEL>
6

>  <REMARK>
 VINA RESULT:      -8.5      1.936      2.584
  Name = 
  6 active torsions:
  status: ('A' for Active; 'I' for Inactive)
    1  A    between atoms: C_1  and  C_24
    2  A    between atoms: C_9  and  C_22
    3  A    between atoms: C_9  and  N_23
    4  A    between atoms: C_15  and  N_23
    5  A    between atoms: C_19  and  C_22
    6  A    between atoms: C_19  and  C_24
                            x       y       z     vdW  Elec       q    Type
                         _______ _______ _______ _____ _____    ______ ____

>  <TORSDO>
F 6

$$$$
=
 OpenBabel10272400213D

 31 35  0  0  1  0  0  0  0  0999 V2000
  190.6100  176.7790  143.2210 C   0  0  0  0  0  0  0  0  0  0  0  0
  187.0560  177.9930  143.1780 C   0  0  0  0  0  0  0  0  0  0  0  0
  186.5760  177.9020  144.6000 C   0  0  0  0  0  0  0  0  0  0  0  0
  187.3660  177.9310  146.9360 C   0  0  0  0  0  2  0  0  0  0  0  0
  188.3650  177.6220  142.7600 C   0  0  0  0  0  0  0  0  0  0  0  0
  190.9500  176.9140  141.8750 C   0  0  0  0  0  3  0  0  0  0  0  0
  187.3130  177.1230  145.6500 C   0  0  0  0  0  2  0  0  0  0  0  0
  186.5450  178.6480  140.8670 C   0  0  0  0  0  0  0  0  0  0  0  0
  191.6060  176.2610  144.1930 C   0  0  0  0  0  1  0  0  0  0  0  0
  184.6840  179.2070  143.9970 O   0  0  0  0  0  0  0  0  0  0  0  0
  185.9550  178.2280  147.4460 C   0  0  1  0  0  3  0  0  0  0  0  0
  187.8270  178.2640  140.4730 C   0  0  0  0  0  3  0  0  0  0  0  0
  186.1640  178.5250  142.2130 C   0  0  0  0  0  0  0  0  0  0  0  0
  189.3310  177.1330  143.6560 C   0  0  0  0  0  3  0  0  0  0  0  0
  185.6110  179.5510  147.1070 O   0  0  0  0  0  0  0  0  0  0  0  0
  188.7330  177.7620  141.3970 C   0  0  0  0  0  0  0  0  0  0  0  0
  190.0150  177.4050  140.9660 C   0  0  0  0  0  3  0  0  0  0  0  0
  184.7600  178.8790  142.6130 C   0  0  0  0  0  2  0  0  0  0  0  0
  185.4400  178.5310  144.9580 C   0  0  0  0  0  0  0  0  0  0  0  0
  184.9420  178.5450  146.3840 C   0  0  1  0  0  3  0  0  0  0  0  0
  185.6130  179.1580  139.9030 N   0  0  0  0  0  2  0  0  0  0  0  0
  185.8510  178.0350  137.4870 S   0  0  0  0  0  1  0  0  0  0  0  0
  184.8540  178.3140  138.9850 C   0  0  2  0  0  3  0  0  0  0  0  0
  183.5410  180.3290  138.9580 O   0  0  0  0  0  1  0  0  0  0  0  0
  183.5160  178.9720  138.6180 C   0  0  2  0  0  3  0  0  0  0  0  0
  181.8030  179.1460  140.3720 N   0  0  0  0  0  1  0  0  0  0  0  0
  182.3450  178.2830  139.3360 C   0  0  2  0  0  3  0  0  0  0  0  0
  182.7820  176.9740  139.9850 C   0  0  0  0  0  2  0  0  0  0  0  0
  182.0540  175.7860  139.3760 C   0  0  0  0  0  3  0  0  0  0  0  0
  180.5640  175.9560  139.5770 C   0  0  0  0  0  1  0  0  0  0  0  0
  182.3480  175.6930  137.8910 C   0  0  0  0  0  1  0  0  0  0  0  0
  1 14  1  0  0  0  0
  1  9  1  0  0  0  0
  2  3  1  0  0  0  0
  3 19  2  0  0  0  0
  3  7  1  0  0  0  0
  5  2  1  0  0  0  0
  5 14  2  0  0  0  0
  6  1  2  0  0  0  0
  7  4  1  0  0  0  0
  8 13  1  0  0  0  0
 10 19  1  0  0  0  0
 11  4  1  6  0  0  0
 12  8  2  0  0  0  0
 12 16  1  0  0  0  0
 13 18  1  0  0  0  0
 13  2  2  0  0  0  0
 15 11  1  0  0  0  0
 16  5  1  0  0  0  0
 17 16  2  0  0  0  0
 17  6  1  0  0  0  0
 18 10  1  0  0  0  0
 20 19  1  6  0  0  0
 20 15  1  0  0  0  0
 20 11  1  0  0  0  0
 21  8  1  0  0  0  0
 23 22  1  6  0  0  0
 23 21  1  0  0  0  0
 25 24  1  1  0  0  0
 25 23  1  0  0  0  0
 25 27  1  0  0  0  0
 27 28  1  0  0  0  0
 27 26  1  1  0  0  0
 29 30  1  0  0  0  0
 29 28  1  0  0  0  0
 31 29  1  0  0  0  0
M  END
>  <MODEL>
7

>  <REMARK>
 VINA RESULT:      -8.5      3.097      4.953
  Name = 
  6 active torsions:
  status: ('A' for Active; 'I' for Inactive)
    1  A    between atoms: C_1  and  C_24
    2  A    between atoms: C_9  and  C_22
    3  A    between atoms: C_9  and  N_23
    4  A    between atoms: C_15  and  N_23
    5  A    between atoms: C_19  and  C_22
    6  A    between atoms: C_19  and  C_24
                            x       y       z     vdW  Elec       q    Type
                         _______ _______ _______ _____ _____    ______ ____

>  <TORSDO>
F 6

$$$$
=
 OpenBabel10272400213D

 31 35  0  0  1  0  0  0  0  0999 V2000
  184.0930  178.7800  141.4860 C   0  0  0  0  0  0  0  0  0  0  0  0
  187.6730  177.8440  140.8440 C   0  0  0  0  0  0  0  0  0  0  0  0
  187.8460  177.8910  139.3510 C   0  0  0  0  0  0  0  0  0  0  0  0
  186.9560  178.9550  137.3120 C   0  0  0  0  0  2  0  0  0  0  0  0
  186.4480  178.1350  141.5070 C   0  0  0  0  0  0  0  0  0  0  0  0
  184.0490  178.7140  142.8780 C   0  0  0  0  0  3  0  0  0  0  0  0
  186.6810  177.9370  138.4070 C   0  0  0  0  0  2  0  0  0  0  0  0
  188.7290  177.4850  143.0320 C   0  0  0  0  0  0  0  0  0  0  0  0
  182.8770  179.1540  140.7200 C   0  0  0  0  0  1  0  0  0  0  0  0
  190.1980  177.7670  139.6650 O   0  0  0  0  0  0  0  0  0  0  0  0
  188.2110  178.5730  136.5240 C   0  0  1  0  0  3  0  0  0  0  0  0
  187.5150  177.7570  143.6640 C   0  0  0  0  0  3  0  0  0  0  0  0
  188.8110  177.5390  141.6310 C   0  0  0  0  0  0  0  0  0  0  0  0
  185.2820  178.4960  140.8110 C   0  0  0  0  0  3  0  0  0  0  0  0
  189.2910  179.3620  136.9670 O   0  0  0  0  0  0  0  0  0  0  0  0
  186.3870  178.0840  142.9240 C   0  0  0  0  0  0  0  0  0  0  0  0
  185.1940  178.3680  143.5950 C   0  0  0  0  0  3  0  0  0  0  0  0
  190.1060  177.1780  140.9600 C   0  0  0  0  0  2  0  0  0  0  0  0
  189.0870  177.8830  138.8270 C   0  0  0  0  0  0  0  0  0  0  0  0
  189.3350  178.0060  137.3420 C   0  0  1  0  0  3  0  0  0  0  0  0
  189.8870  177.1410  143.8060 N   0  0  0  0  0  2  0  0  0  0  0  0
  191.2560  179.4250  144.0690 S   0  0  0  0  0  1  0  0  0  0  0  0
  190.4450  177.9940  144.8510 C   0  0  2  0  0  3  0  0  0  0  0  0
  191.8280  176.0380  145.0570 O   0  0  0  0  0  1  0  0  0  0  0  0
  191.4530  177.2170  145.7100 C   0  0  2  0  0  3  0  0  0  0  0  0
  191.5630  175.7540  147.6820 N   0  0  0  0  0  1  0  0  0  0  0  0
  190.8600  176.8770  147.0870 C   0  0  2  0  0  3  0  0  0  0  0  0
  189.3820  176.5160  146.9840 C   0  0  0  0  0  2  0  0  0  0  0  0
  188.5450  177.3310  147.9570 C   0  0  0  0  0  3  0  0  0  0  0  0
  189.4070  178.4090  148.5770 C   0  0  0  0  0  1  0  0  0  0  0  0
  187.3810  177.9800  147.2330 C   0  0  0  0  0  1  0  0  0  0  0  0
  1  6  1  0  0  0  0
  2  5  2  0  0  0  0
  2 13  1  0  0  0  0
  3  2  1  0  0  0  0
  4  7  1  0  0  0  0
  5 16  1  0  0  0  0
  6 17  2  0  0  0  0
  7  3  1  0  0  0  0
  8 12  1  0  0  0  0
  8 21  1  0  0  0  0
  9  1  1  0  0  0  0
 10 18  1  0  0  0  0
 11 15  1  0  0  0  0
 11  4  1  1  0  0  0
 11 20  1  0  0  0  0
 13  8  2  0  0  0  0
 14  1  2  0  0  0  0
 14  5  1  0  0  0  0
 16 17  1  0  0  0  0
 16 12  2  0  0  0  0
 18 13  1  0  0  0  0
 19  3  2  0  0  0  0
 19 10  1  0  0  0  0
 20 15  1  1  0  0  0
 20 19  1  0  0  0  0
 21 23  1  0  0  0  0
 23 22  1  6  0  0  0
 23 25  1  0  0  0  0
 25 24  1  6  0  0  0
 25 27  1  0  0  0  0
 27 26  1  6  0  0  0
 28 27  1  0  0  0  0
 28 29  1  0  0  0  0
 29 30  1  0  0  0  0
 31 29  1  0  0  0  0
M  END
>  <MODEL>
8

>  <REMARK>
 VINA RESULT:      -8.2      2.370      7.256
  Name = 
  6 active torsions:
  status: ('A' for Active; 'I' for Inactive)
    1  A    between atoms: C_1  and  C_24
    2  A    between atoms: C_9  and  C_22
    3  A    between atoms: C_9  and  N_23
    4  A    between atoms: C_15  and  N_23
    5  A    between atoms: C_19  and  C_22
    6  A    between atoms: C_19  and  C_24
                            x       y       z     vdW  Elec       q    Type
                         _______ _______ _______ _____ _____    ______ ____

>  <TORSDO>
F 6

$$$$
=
 OpenBabel10272400213D

 31 35  0  0  1  0  0  0  0  0999 V2000
  187.0430  178.2920  147.4500 C   0  0  0  0  0  0  0  0  0  0  0  0
  187.6780  178.0380  143.7570 C   0  0  0  0  0  0  0  0  0  0  0  0
  189.1670  177.8950  143.6080 C   0  0  0  0  0  0  0  0  0  0  0  0
  191.1830  177.1020  144.7870 C   0  0  0  0  0  2  0  0  0  0  0  0
  187.0180  178.1660  145.0120 C   0  0  0  0  0  0  0  0  0  0  0  0
  185.6540  178.4110  147.4710 C   0  0  0  0  0  3  0  0  0  0  0  0
  190.1200  178.1870  144.7290 C   0  0  0  0  0  2  0  0  0  0  0  0
  185.4910  178.1140  142.6420 C   0  0  0  0  0  0  0  0  0  0  0  0
  187.8090  178.2960  148.7230 C   0  0  0  0  0  1  0  0  0  0  0  0
  188.8340  177.2840  141.3360 O   0  0  0  0  0  0  0  0  0  0  0  0
  191.9690  177.0470  143.4760 C   0  0  1  0  0  3  0  0  0  0  0  0
  184.8630  178.2550  143.8800 C   0  0  0  0  0  3  0  0  0  0  0  0
  186.8890  177.9950  142.5810 C   0  0  0  0  0  0  0  0  0  0  0  0
  187.7150  178.1690  146.2320 C   0  0  0  0  0  3  0  0  0  0  0  0
  191.4940  175.9730  142.6980 O   0  0  0  0  0  0  0  0  0  0  0  0
  185.6040  178.2770  145.0540 C   0  0  0  0  0  0  0  0  0  0  0  0
  184.9360  178.4020  146.2760 C   0  0  0  0  0  3  0  0  0  0  0  0
  187.5580  177.9100  141.2380 C   0  0  0  0  0  2  0  0  0  0  0  0
  189.6790  177.4970  142.4270 C   0  0  0  0  0  0  0  0  0  0  0  0
  191.1580  177.2570  142.2300 C   0  0  1  0  0  3  0  0  0  0  0  0
  184.7170  178.1000  141.4340 N   0  0  0  0  0  2  0  0  0  0  0  0
  182.1340  178.7880  141.3090 S   0  0  0  0  0  1  0  0  0  0  0  0
  183.8780  179.2120  140.9980 C   0  0  2  0  0  3  0  0  0  0  0  0
  182.8670  179.7620  138.8860 O   0  0  0  0  0  1  0  0  0  0  0  0
  184.0940  179.5070  139.5060 C   0  0  2  0  0  3  0  0  0  0  0  0
  185.9710  178.7880  138.0920 N   0  0  0  0  0  1  0  0  0  0  0  0
  184.7910  178.3310  138.8050 C   0  0  2  0  0  3  0  0  0  0  0  0
  183.8630  177.6480  137.8060 C   0  0  0  0  0  2  0  0  0  0  0  0
  183.3550  176.3190  138.3440 C   0  0  0  0  0  3  0  0  0  0  0  0
  181.8430  176.3450  138.3930 C   0  0  0  0  0  1  0  0  0  0  0  0
  183.8040  175.1830  137.4450 C   0  0  0  0  0  1  0  0  0  0  0  0
  1  6  1  0  0  0  0
  1  9  1  0  0  0  0
  2  5  1  0  0  0  0
  3  2  1  0  0  0  0
  3  7  1  0  0  0  0
  5 16  2  0  0  0  0
  5 14  1  0  0  0  0
  7  4  1  0  0  0  0
  8 12  2  0  0  0  0
 10 19  1  0  0  0  0
 11  4  1  1  0  0  0
 12 16  1  0  0  0  0
 13  8  1  0  0  0  0
 13  2  2  0  0  0  0
 14  1  2  0  0  0  0
 15 11  1  0  0  0  0
 16 17  1  0  0  0  0
 17  6  2  0  0  0  0
 18 10  1  0  0  0  0
 18 13  1  0  0  0  0
 19  3  2  0  0  0  0
 20 19  1  1  0  0  0
 20 15  1  0  0  0  0
 20 11  1  0  0  0  0
 21  8  1  0  0  0  0
 23 22  1  6  0  0  0
 23 21  1  0  0  0  0
 25 24  1  6  0  0  0
 25 23  1  0  0  0  0
 27 26  1  6  0  0  0
 27 25  1  0  0  0  0
 28 29  1  0  0  0  0
 28 27  1  0  0  0  0
 29 30  1  0  0  0  0
 31 29  1  0  0  0  0
M  END
>  <MODEL>
9

>  <REMARK>
 VINA RESULT:      -8.1      2.621      3.879
  Name = 
  6 active torsions:
  status: ('A' for Active; 'I' for Inactive)
    1  A    between atoms: C_1  and  C_24
    2  A    between atoms: C_9  and  C_22
    3  A    between atoms: C_9  and  N_23
    4  A    between atoms: C_15  and  N_23
    5  A    between atoms: C_19  and  C_22
    6  A    between atoms: C_19  and  C_24
                            x       y       z     vdW  Elec       q    Type
                         _______ _______ _______ _____ _____    ______ ____

>  <TORSDO>
F 6

$$$$
