=
 OpenBabel10272401563D

 28 32  0  0  1  0  0  0  0  0999 V2000
  190.2330  176.3800  143.9660 N   0  0  0  0  0  0  0  0  0  0  0  0
  185.3010  178.2500  142.9850 C   0  0  0  0  0  3  0  0  0  0  0  0
  188.7090  177.6920  148.0820 O   0  0  0  0  0  0  0  0  0  0  0  0
  184.5240  178.5870  145.2630 C   0  0  0  0  0  0  0  0  0  0  0  0
  186.9600  177.9810  144.8670 C   0  0  2  0  0  3  0  0  0  0  0  0
  183.0030  178.8830  143.3960 C   0  0  0  0  0  0  0  0  0  0  0  0
  185.5570  178.2260  144.3640 C   0  0  0  0  0  0  0  0  0  0  0  0
  186.1970  178.6700  147.1490 C   0  0  0  0  0  2  0  0  0  0  0  0
  183.2510  178.8920  144.7710 C   0  0  0  0  0  3  0  0  0  0  0  0
  189.4130  177.0190  145.9140 C   0  0  0  0  0  0  0  0  0  0  0  0
  187.7440  176.9560  144.0210 C   0  0  0  0  0  2  0  0  0  0  0  0
  184.7260  178.5690  146.7550 C   0  0  0  0  0  2  0  0  0  0  0  0
  190.7590  176.7320  146.0330 C   0  0  0  0  0  0  0  0  0  0  0  0
  188.4110  177.4910  146.8740 C   0  0  0  0  0  0  0  0  0  0  0  0
  191.5850  176.8300  147.2670 C   0  0  0  0  0  1  0  0  0  0  0  0
  181.4070  179.2730  142.7940 Cl  0  0  0  0  0  0  0  0  0  0  0  0
  184.0290  178.5680  142.5040 C   0  0  0  0  0  3  0  0  0  0  0  0
  186.9900  177.6270  146.3750 C   0  0  2  0  0  3  0  0  0  0  0  0
  191.2400  176.3450  144.8310 N   0  0  0  0  0  0  0  0  0  0  0  0
  189.1190  176.7970  144.5960 C   0  0  0  0  0  0  0  0  0  0  0  0
  190.3660  176.0660  142.5480 C   0  0  0  0  0  2  0  0  0  0  0  0
  190.4520  177.3320  141.6930 C   0  0  2  0  0  3  0  0  0  0  0  0
  190.1320  177.4940  138.8290 C   0  0  0  0  0  0  0  0  0  0  0  0
  189.1240  177.6400  141.0360 C   0  0  0  0  0  3  0  0  0  0  0  0
  191.6210  177.2640  140.7350 C   0  0  0  0  0  3  0  0  0  0  0  0
  191.4670  177.3200  139.4120 C   0  0  0  0  0  3  0  0  0  0  0  0
  189.9810  177.4940  137.5800 O   0  0  0  0  0  0  0  0  0  0  0  0
  188.9770  177.6970  139.7110 C   0  0  0  0  0  3  0  0  0  0  0  0
  1 20  1  0  0  0  0
  1 19  1  0  0  0  0
  2  7  1  0  0  0  0
  4 12  1  0  0  0  0
  5 11  1  6  0  0  0
  5 18  1  0  0  0  0
  6  9  2  0  0  0  0
  7  5  1  0  0  0  0
  7  4  2  0  0  0  0
  9  4  1  0  0  0  0
 10 13  1  0  0  0  0
 10 14  1  0  0  0  0
 11 20  1  0  0  0  0
 12  8  1  0  0  0  0
 13 15  1  0  0  0  0
 14  3  2  0  0  0  0
 16  6  1  0  0  0  0
 17  2  2  0  0  0  0
 17  6  1  0  0  0  0
 18 14  1  0  0  0  0
 18  8  1  1  0  0  0
 19 13  2  0  0  0  0
 20 10  2  0  0  0  0
 21  1  1  0  0  0  0
 22 21  1  6  0  0  0
 23 26  1  0  0  0  0
 23 28  1  0  0  0  0
 24 22  1  0  0  0  0
 25 22  1  0  0  0  0
 26 25  2  0  0  0  0
 27 23  2  0  0  0  0
 28 24  2  0  0  0  0
M  END
>  <MODEL>
1

>  <REMARK>
 VINA RESULT:     -12.0      0.000      0.000
  Name = 
  2 active torsions:
  status: ('A' for Active; 'I' for Inactive)
    1  A    between atoms: N_1  and  C_2
    2  A    between atoms: C_2  and  C_3
                            x       y       z     vdW  Elec       q    Type
                         _______ _______ _______ _____ _____    ______ ____

>  <TORSDO>
F 2

$$$$
=
 OpenBabel10272401563D

 28 32  0  0  1  0  0  0  0  0999 V2000
  187.4720  178.5120  140.4980 N   0  0  0  0  0  0  0  0  0  0  0  0
  190.5380  176.8240  144.5650 C   0  0  0  0  0  3  0  0  0  0  0  0
  184.5940  178.3450  144.0580 O   0  0  0  0  0  0  0  0  0  0  0  0
  188.9770  177.1040  146.4060 C   0  0  0  0  0  0  0  0  0  0  0  0
  188.1460  177.4180  144.0250 C   0  0  2  0  0  3  0  0  0  0  0  0
  191.2800  176.4780  146.8410 C   0  0  0  0  0  0  0  0  0  0  0  0
  189.2550  177.1620  145.0190 C   0  0  0  0  0  0  0  0  0  0  0  0
  186.5140  177.3550  145.9210 C   0  0  0  0  0  2  0  0  0  0  0  0
  189.9980  176.7820  147.3060 C   0  0  0  0  0  3  0  0  0  0  0  0
  186.1580  178.4230  142.2710 C   0  0  0  0  0  0  0  0  0  0  0  0
  188.6220  178.1490  142.7520 C   0  0  0  0  0  2  0  0  0  0  0  0
  187.6260  177.4660  146.9620 C   0  0  0  0  0  2  0  0  0  0  0  0
  185.4080  178.6310  141.1290 C   0  0  0  0  0  0  0  0  0  0  0  0
  185.7950  178.2690  143.6820 C   0  0  0  0  0  0  0  0  0  0  0  0
  183.9290  178.7740  141.0500 C   0  0  0  0  0  1  0  0  0  0  0  0
  192.5470  176.0710  147.9770 Cl  0  0  0  0  0  0  0  0  0  0  0  0
  191.5480  176.4930  145.4710 C   0  0  0  0  0  3  0  0  0  0  0  0
  186.9270  178.1210  144.6730 C   0  0  2  0  0  3  0  0  0  0  0  0
  186.2310  178.6820  140.0590 N   0  0  0  0  0  0  0  0  0  0  0  0
  187.4530  178.3410  141.8340 C   0  0  0  0  0  0  0  0  0  0  0  0
  188.6440  178.4650  139.6320 C   0  0  0  0  0  2  0  0  0  0  0  0
  189.0370  177.0270  139.2880 C   0  0  2  0  0  3  0  0  0  0  0  0
  191.0340  176.2050  137.3730 C   0  0  0  0  0  0  0  0  0  0  0  0
  190.4720  176.7450  139.6760 C   0  0  0  0  0  3  0  0  0  0  0  0
  188.7030  176.7000  137.8500 C   0  0  0  0  0  3  0  0  0  0  0  0
  189.6310  176.3390  136.9630 C   0  0  0  0  0  3  0  0  0  0  0  0
  191.9170  175.9150  136.5250 O   0  0  0  0  0  0  0  0  0  0  0  0
  191.3960  176.3820  138.7840 C   0  0  0  0  0  3  0  0  0  0  0  0
  1 20  1  0  0  0  0
  2  7  2  0  0  0  0
  2 17  1  0  0  0  0
  4 12  1  0  0  0  0
  4  9  2  0  0  0  0
  5 11  1  6  0  0  0
  5 18  1  0  0  0  0
  5  7  1  0  0  0  0
  6  9  1  0  0  0  0
  6 16  1  0  0  0  0
  7  4  1  0  0  0  0
  8 12  1  0  0  0  0
 10 14  1  0  0  0  0
 13 10  1  0  0  0  0
 14  3  2  0  0  0  0
 14 18  1  0  0  0  0
 15 13  1  0  0  0  0
 17  6  2  0  0  0  0
 18  8  1  1  0  0  0
 19  1  1  0  0  0  0
 19 13  2  0  0  0  0
 20 10  2  0  0  0  0
 20 11  1  0  0  0  0
 21  1  1  0  0  0  0
 22 21  1  6  0  0  0
 22 24  1  0  0  0  0
 23 28  1  0  0  0  0
 25 22  1  0  0  0  0
 26 23  1  0  0  0  0
 26 25  2  0  0  0  0
 27 23  2  0  0  0  0
 28 24  2  0  0  0  0
M  END
>  <MODEL>
2

>  <REMARK>
 VINA RESULT:     -11.1      3.362      5.569
  Name = 
  2 active torsions:
  status: ('A' for Active; 'I' for Inactive)
    1  A    between atoms: N_1  and  C_2
    2  A    between atoms: C_2  and  C_3
                            x       y       z     vdW  Elec       q    Type
                         _______ _______ _______ _____ _____    ______ ____

>  <TORSDO>
F 2

$$$$
=
 OpenBabel10272401563D

 28 32  0  0  1  0  0  0  0  0999 V2000
  188.8900  177.0160  144.9450 N   0  0  0  0  0  0  0  0  0  0  0  0
  185.0820  178.1520  141.3400 C   0  0  0  0  0  3  0  0  0  0  0  0
  185.4480  178.6910  147.4620 O   0  0  0  0  0  0  0  0  0  0  0  0
  183.2460  178.7030  142.8340 C   0  0  0  0  0  0  0  0  0  0  0  0
  185.5640  178.3350  143.8100 C   0  0  2  0  0  3  0  0  0  0  0  0
  182.8750  178.5640  140.4410 C   0  0  0  0  0  0  0  0  0  0  0  0
  184.6030  178.3450  142.6440 C   0  0  0  0  0  0  0  0  0  0  0  0
  183.7280  179.2360  145.2520 C   0  0  0  0  0  2  0  0  0  0  0  0
  182.3900  178.7890  141.7320 C   0  0  0  0  0  3  0  0  0  0  0  0
  187.1750  177.8150  146.0840 C   0  0  0  0  0  0  0  0  0  0  0  0
  186.7000  177.3020  143.6580 C   0  0  0  0  0  2  0  0  0  0  0  0
  182.6640  178.9110  144.2070 C   0  0  0  0  0  2  0  0  0  0  0  0
  188.2830  177.7050  146.9030 C   0  0  0  0  0  0  0  0  0  0  0  0
  185.8100  178.2940  146.3220 C   0  0  0  0  0  0  0  0  0  0  0  0
  188.3640  178.0650  148.3440 C   0  0  0  0  0  1  0  0  0  0  0  0
  181.7940  178.6810  139.0700 Cl  0  0  0  0  0  0  0  0  0  0  0  0
  184.2210  178.2510  140.2450 C   0  0  0  0  0  3  0  0  0  0  0  0
  184.8350  178.1950  145.1710 C   0  0  2  0  0  3  0  0  0  0  0  0
  189.3190  177.2160  146.1860 N   0  0  0  0  0  0  0  0  0  0  0  0
  187.5980  177.3830  144.8560 C   0  0  0  0  0  0  0  0  0  0  0  0
  189.7330  176.5300  143.8590 C   0  0  0  0  0  2  0  0  0  0  0  0
  190.0660  177.6390  142.8600 C   0  0  2  0  0  3  0  0  0  0  0  0
  191.1170  177.2880  140.1950 C   0  0  0  0  0  0  0  0  0  0  0  0
  189.1790  177.5570  141.6370 C   0  0  0  0  0  3  0  0  0  0  0  0
  191.5470  177.6720  142.5560 C   0  0  0  0  0  3  0  0  0  0  0  0
  192.0300  177.4900  141.3260 C   0  0  0  0  0  3  0  0  0  0  0  0
  191.5750  177.0650  139.0440 O   0  0  0  0  0  0  0  0  0  0  0  0
  189.6680  177.3770  140.4090 C   0  0  0  0  0  3  0  0  0  0  0  0
  1 19  1  0  0  0  0
  2  7  1  0  0  0  0
  4 12  1  0  0  0  0
  5 11  1  6  0  0  0
  5 18  1  0  0  0  0
  6  9  2  0  0  0  0
  7  4  2  0  0  0  0
  7  5  1  0  0  0  0
  9  4  1  0  0  0  0
 10 14  1  0  0  0  0
 10 13  1  0  0  0  0
 11 20  1  0  0  0  0
 12  8  1  0  0  0  0
 13 15  1  0  0  0  0
 14  3  2  0  0  0  0
 16  6  1  0  0  0  0
 17  6  1  0  0  0  0
 17  2  2  0  0  0  0
 18  8  1  1  0  0  0
 18 14  1  0  0  0  0
 19 13  2  0  0  0  0
 20  1  1  0  0  0  0
 20 10  2  0  0  0  0
 21  1  1  0  0  0  0
 22 21  1  1  0  0  0
 23 28  1  0  0  0  0
 23 26  1  0  0  0  0
 24 22  1  0  0  0  0
 25 22  1  0  0  0  0
 26 25  2  0  0  0  0
 27 23  2  0  0  0  0
 28 24  2  0  0  0  0
M  END
>  <MODEL>
3

>  <REMARK>
 VINA RESULT:     -10.7      1.669      2.417
  Name = 
  2 active torsions:
  status: ('A' for Active; 'I' for Inactive)
    1  A    between atoms: N_1  and  C_2
    2  A    between atoms: C_2  and  C_3
                            x       y       z     vdW  Elec       q    Type
                         _______ _______ _______ _____ _____    ______ ____

>  <TORSDO>
F 2

$$$$
=
 OpenBabel10272401563D

 28 32  0  0  1  0  0  0  0  0999 V2000
  189.5150  176.8920  142.0570 N   0  0  0  0  0  0  0  0  0  0  0  0
  184.4240  178.5110  142.5460 C   0  0  0  0  0  3  0  0  0  0  0  0
  189.0320  177.6810  146.5430 O   0  0  0  0  0  0  0  0  0  0  0  0
  184.2360  178.5660  144.9690 C   0  0  0  0  0  0  0  0  0  0  0  0
  186.5150  178.1690  143.9160 C   0  0  2  0  0  3  0  0  0  0  0  0
  182.2810  178.9430  143.5820 C   0  0  0  0  0  0  0  0  0  0  0  0
  185.0210  178.3670  143.8070 C   0  0  0  0  0  0  0  0  0  0  0  0
  186.3280  178.5750  146.3780 C   0  0  0  0  0  2  0  0  0  0  0  0
  182.8680  178.8320  144.8450 C   0  0  0  0  0  3  0  0  0  0  0  0
  189.1900  177.2760  144.2070 C   0  0  0  0  0  0  0  0  0  0  0  0
  187.0990  177.2890  142.7910 C   0  0  0  0  0  2  0  0  0  0  0  0
  184.8100  178.4140  146.3520 C   0  0  0  0  0  2  0  0  0  0  0  0
  190.5330  177.0710  143.9560 C   0  0  0  0  0  0  0  0  0  0  0  0
  188.4460  177.5820  145.4320 C   0  0  0  0  0  0  0  0  0  0  0  0
  191.6390  177.1010  144.9500 C   0  0  0  0  0  1  0  0  0  0  0  0
  180.5700  179.2820  143.4420 Cl  0  0  0  0  0  0  0  0  0  0  0  0
  183.0590  178.7880  142.4340 C   0  0  0  0  0  3  0  0  0  0  0  0
  186.9400  177.6700  145.3200 C   0  0  2  0  0  3  0  0  0  0  0  0
  190.7090  176.8390  142.6360 N   0  0  0  0  0  0  0  0  0  0  0  0
  188.5810  177.1670  142.9860 C   0  0  0  0  0  0  0  0  0  0  0  0
  189.2960  176.7300  140.6240 C   0  0  0  0  0  2  0  0  0  0  0  0
  188.8670  178.0420  139.9650 C   0  0  2  0  0  3  0  0  0  0  0  0
  187.8410  178.3610  137.2860 C   0  0  0  0  0  0  0  0  0  0  0  0
  187.3870  178.0390  139.6530 C   0  0  0  0  0  3  0  0  0  0  0  0
  189.7530  178.3740  138.7850 C   0  0  0  0  0  3  0  0  0  0  0  0
  189.2780  178.5010  137.5450 C   0  0  0  0  0  3  0  0  0  0  0  0
  187.4000  178.4300  136.1100 O   0  0  0  0  0  0  0  0  0  0  0  0
  186.9180  178.1690  138.4100 C   0  0  0  0  0  3  0  0  0  0  0  0
  1 19  1  0  0  0  0
  1 20  1  0  0  0  0
  2  7  1  0  0  0  0
  4 12  1  0  0  0  0
  5 11  1  6  0  0  0
  5 18  1  0  0  0  0
  6  9  2  0  0  0  0
  7  5  1  0  0  0  0
  7  4  2  0  0  0  0
  9  4  1  0  0  0  0
 10 14  1  0  0  0  0
 11 20  1  0  0  0  0
 12  8  1  0  0  0  0
 13 10  1  0  0  0  0
 13 15  1  0  0  0  0
 14  3  2  0  0  0  0
 16  6  1  0  0  0  0
 17  2  2  0  0  0  0
 17  6  1  0  0  0  0
 18 14  1  0  0  0  0
 18  8  1  1  0  0  0
 19 13  2  0  0  0  0
 20 10  2  0  0  0  0
 21  1  1  0  0  0  0
 22 21  1  6  0  0  0
 23 26  1  0  0  0  0
 23 28  1  0  0  0  0
 24 22  1  0  0  0  0
 25 22  1  0  0  0  0
 26 25  2  0  0  0  0
 27 23  2  0  0  0  0
 28 24  2  0  0  0  0
M  END
>  <MODEL>
4

>  <REMARK>
 VINA RESULT:     -10.3      1.427      1.879
  Name = 
  2 active torsions:
  status: ('A' for Active; 'I' for Inactive)
    1  A    between atoms: N_1  and  C_2
    2  A    between atoms: C_2  and  C_3
                            x       y       z     vdW  Elec       q    Type
                         _______ _______ _______ _____ _____    ______ ____

>  <TORSDO>
F 2

$$$$
=
 OpenBabel10272401563D

 28 32  0  0  1  0  0  0  0  0999 V2000
  187.0790  178.5230  140.5080 N   0  0  0  0  0  0  0  0  0  0  0  0
  190.2230  176.8290  144.5110 C   0  0  0  0  0  3  0  0  0  0  0  0
  184.3570  178.6690  144.1890 O   0  0  0  0  0  0  0  0  0  0  0  0
  188.7640  177.2740  146.4030 C   0  0  0  0  0  0  0  0  0  0  0  0
  187.8470  177.5370  144.0470 C   0  0  2  0  0  3  0  0  0  0  0  0
  191.0460  176.5340  146.7670 C   0  0  0  0  0  0  0  0  0  0  0  0
  188.9830  177.2580  145.0040 C   0  0  0  0  0  0  0  0  0  0  0  0
  186.3000  177.6480  146.0110 C   0  0  0  0  0  2  0  0  0  0  0  0
  189.8050  176.9310  147.2710 C   0  0  0  0  0  3  0  0  0  0  0  0
  185.8430  178.5830  142.3360 C   0  0  0  0  0  0  0  0  0  0  0  0
  188.3060  178.1870  142.7250 C   0  0  0  0  0  2  0  0  0  0  0  0
  187.4610  177.7360  146.9980 C   0  0  0  0  0  2  0  0  0  0  0  0
  185.0550  178.7870  141.2190 C   0  0  0  0  0  0  0  0  0  0  0  0
  185.5340  178.5090  143.7670 C   0  0  0  0  0  0  0  0  0  0  0  0
  183.5840  179.0120  141.1960 C   0  0  0  0  0  1  0  0  0  0  0  0
  192.3370  176.1020  147.8650 Cl  0  0  0  0  0  0  0  0  0  0  0  0
  191.2530  176.4780  145.3880 C   0  0  0  0  0  3  0  0  0  0  0  0
  186.6990  178.3370  144.7150 C   0  0  2  0  0  3  0  0  0  0  0  0
  185.8310  178.7450  140.1130 N   0  0  0  0  0  0  0  0  0  0  0  0
  187.1090  178.4080  141.8490 C   0  0  0  0  0  0  0  0  0  0  0  0
  188.2070  178.3720  139.5950 C   0  0  0  0  0  2  0  0  0  0  0  0
  187.7510  178.3070  138.1370 C   0  0  2  0  0  3  0  0  0  0  0  0
  188.9940  176.7950  136.0160 C   0  0  0  0  0  0  0  0  0  0  0  0
  187.3080  176.9100  137.7640 C   0  0  0  0  0  3  0  0  0  0  0  0
  188.7930  178.8990  137.2140 C   0  0  0  0  0  3  0  0  0  0  0  0
  189.3790  178.1920  136.2470 C   0  0  0  0  0  3  0  0  0  0  0  0
  189.5830  176.1120  135.1380 O   0  0  0  0  0  0  0  0  0  0  0  0
  187.8970  176.2070  136.7940 C   0  0  0  0  0  3  0  0  0  0  0  0
  1 20  1  0  0  0  0
  2  7  2  0  0  0  0
  2 17  1  0  0  0  0
  4 12  1  0  0  0  0
  4  9  2  0  0  0  0
  5 11  1  6  0  0  0
  5 18  1  0  0  0  0
  5  7  1  0  0  0  0
  6  9  1  0  0  0  0
  6 16  1  0  0  0  0
  7  4  1  0  0  0  0
  8 12  1  0  0  0  0
 10 14  1  0  0  0  0
 13 10  1  0  0  0  0
 14  3  2  0  0  0  0
 14 18  1  0  0  0  0
 15 13  1  0  0  0  0
 17  6  2  0  0  0  0
 18  8  1  1  0  0  0
 19  1  1  0  0  0  0
 19 13  2  0  0  0  0
 20 10  2  0  0  0  0
 20 11  1  0  0  0  0
 21  1  1  0  0  0  0
 22 21  1  1  0  0  0
 23 26  1  0  0  0  0
 23 28  1  0  0  0  0
 24 22  1  0  0  0  0
 25 22  1  0  0  0  0
 26 25  2  0  0  0  0
 27 23  2  0  0  0  0
 28 24  2  0  0  0  0
M  END
>  <MODEL>
5

>  <REMARK>
 VINA RESULT:     -10.3      3.486      5.682
  Name = 
  2 active torsions:
  status: ('A' for Active; 'I' for Inactive)
    1  A    between atoms: N_1  and  C_2
    2  A    between atoms: C_2  and  C_3
                            x       y       z     vdW  Elec       q    Type
                         _______ _______ _______ _____ _____    ______ ____

>  <TORSDO>
F 2

$$$$
=
 OpenBabel10272401563D

 28 32  0  0  1  0  0  0  0  0999 V2000
  183.5710  178.4630  141.1290 N   0  0  0  0  0  0  0  0  0  0  0  0
  188.2420  177.0160  143.3360 C   0  0  0  0  0  3  0  0  0  0  0  0
  182.9390  179.1630  145.6110 O   0  0  0  0  0  0  0  0  0  0  0  0
  187.8650  177.7470  145.6230 C   0  0  0  0  0  0  0  0  0  0  0  0
  185.9340  177.8140  143.9710 C   0  0  2  0  0  3  0  0  0  0  0  0
  190.0410  176.9130  144.9490 C   0  0  0  0  0  0  0  0  0  0  0  0
  187.3880  177.5700  144.3010 C   0  0  0  0  0  0  0  0  0  0  0  0
  185.5140  178.2250  146.4040 C   0  0  0  0  0  2  0  0  0  0  0  0
  189.1930  177.4360  145.9290 C   0  0  0  0  0  3  0  0  0  0  0  0
  183.3580  178.7910  143.3020 C   0  0  0  0  0  0  0  0  0  0  0  0
  185.7070  178.2910  142.5210 C   0  0  0  0  0  2  0  0  0  0  0  0
  187.0060  178.3470  146.7030 C   0  0  0  0  0  2  0  0  0  0  0  0
  182.1330  178.9230  142.6760 C   0  0  0  0  0  0  0  0  0  0  0  0
  183.7710  178.8880  144.7050 C   0  0  0  0  0  0  0  0  0  0  0  0
  180.8310  179.2330  143.3260 C   0  0  0  0  0  1  0  0  0  0  0  0
  191.6990  176.5230  145.3470 Cl  0  0  0  0  0  0  0  0  0  0  0  0
  189.5640  176.6980  143.6550 C   0  0  0  0  0  3  0  0  0  0  0  0
  185.2470  178.7470  145.0000 C   0  0  2  0  0  3  0  0  0  0  0  0
  182.2860  178.7180  141.3490 N   0  0  0  0  0  0  0  0  0  0  0  0
  184.2380  178.4900  142.2970 C   0  0  0  0  0  0  0  0  0  0  0  0
  184.1250  178.1490  139.8170 C   0  0  0  0  0  2  0  0  0  0  0  0
  183.0740  177.5360  138.8890 C   0  0  2  0  0  3  0  0  0  0  0  0
  183.5580  175.6580  136.7520 C   0  0  0  0  0  0  0  0  0  0  0  0
  182.9810  176.0380  139.0830 C   0  0  0  0  0  3  0  0  0  0  0  0
  183.2930  177.9680  137.4570 C   0  0  0  0  0  3  0  0  0  0  0  0
  183.5350  177.0990  136.4750 C   0  0  0  0  0  3  0  0  0  0  0  0
  183.8380  174.8410  135.8360 O   0  0  0  0  0  0  0  0  0  0  0  0
  183.2230  175.1730  138.0960 C   0  0  0  0  0  3  0  0  0  0  0  0
  1 19  1  0  0  0  0
  1 20  1  0  0  0  0
  2 17  2  0  0  0  0
  2  7  1  0  0  0  0
  4  9  1  0  0  0  0
  4 12  1  0  0  0  0
  5 11  1  6  0  0  0
  5  7  1  0  0  0  0
  5 18  1  0  0  0  0
  6 16  1  0  0  0  0
  6  9  2  0  0  0  0
  7  4  2  0  0  0  0
  8 12  1  0  0  0  0
 10 14  1  0  0  0  0
 13 10  1  0  0  0  0
 13 15  1  0  0  0  0
 14 18  1  0  0  0  0
 14  3  2  0  0  0  0
 17  6  1  0  0  0  0
 18  8  1  1  0  0  0
 19 13  2  0  0  0  0
 20 11  1  0  0  0  0
 20 10  2  0  0  0  0
 21  1  1  0  0  0  0
 22 24  1  0  0  0  0
 22 21  1  1  0  0  0
 23 28  1  0  0  0  0
 25 22  1  0  0  0  0
 26 23  1  0  0  0  0
 26 25  2  0  0  0  0
 27 23  2  0  0  0  0
 28 24  2  0  0  0  0
M  END
>  <MODEL>
6

>  <REMARK>
 VINA RESULT:     -10.0      4.377      6.760
  Name = 
  2 active torsions:
  status: ('A' for Active; 'I' for Inactive)
    1  A    between atoms: N_1  and  C_2
    2  A    between atoms: C_2  and  C_3
                            x       y       z     vdW  Elec       q    Type
                         _______ _______ _______ _____ _____    ______ ____

>  <TORSDO>
F 2

$$$$
=
 OpenBabel10272401563D

 28 32  0  0  1  0  0  0  0  0999 V2000
  187.0570  178.4160  139.5560 N   0  0  0  0  0  0  0  0  0  0  0  0
  187.9590  177.7580  144.8030 C   0  0  0  0  0  3  0  0  0  0  0  0
  182.9190  178.9040  141.4590 O   0  0  0  0  0  0  0  0  0  0  0  0
  185.7760  178.3650  145.6800 C   0  0  0  0  0  0  0  0  0  0  0  0
  186.0750  178.1290  143.1670 C   0  0  2  0  0  3  0  0  0  0  0  0
  187.6240  177.9360  147.1920 C   0  0  0  0  0  0  0  0  0  0  0  0
  186.6280  178.1350  144.5730 C   0  0  0  0  0  0  0  0  0  0  0  0
  183.7840  178.4120  144.1330 C   0  0  0  0  0  2  0  0  0  0  0  0
  186.2870  178.2830  146.9790 C   0  0  0  0  0  3  0  0  0  0  0  0
  185.1040  178.6580  140.5570 C   0  0  0  0  0  0  0  0  0  0  0  0
  187.0960  178.5890  142.1050 C   0  0  0  0  0  2  0  0  0  0  0  0
  184.3410  178.7850  145.5040 C   0  0  0  0  0  2  0  0  0  0  0  0
  184.9340  178.5880  139.1870 C   0  0  0  0  0  0  0  0  0  0  0  0
  184.1580  178.7960  141.6670 C   0  0  0  0  0  0  0  0  0  0  0  0
  183.6460  178.6530  138.4460 C   0  0  0  0  0  1  0  0  0  0  0  0
  188.2490  177.8310  148.8230 Cl  0  0  0  0  0  0  0  0  0  0  0  0
  188.4570  177.6680  146.1060 C   0  0  0  0  0  3  0  0  0  0  0  0
  184.7400  178.9080  143.0580 C   0  0  2  0  0  3  0  0  0  0  0  0
  186.1400  178.4390  138.5960 N   0  0  0  0  0  0  0  0  0  0  0  0
  186.4530  178.5340  140.7530 C   0  0  0  0  0  0  0  0  0  0  0  0
  188.4840  178.2290  139.3160 C   0  0  0  0  0  2  0  0  0  0  0  0
  188.7660  176.9300  138.5580 C   0  0  2  0  0  3  0  0  0  0  0  0
  191.1050  176.3410  136.9740 C   0  0  0  0  0  0  0  0  0  0  0  0
  189.9750  176.2190  139.1240 C   0  0  0  0  0  3  0  0  0  0  0  0
  188.8230  177.1710  137.0660 C   0  0  0  0  0  3  0  0  0  0  0  0
  189.9130  176.9150  136.3410 C   0  0  0  0  0  3  0  0  0  0  0  0
  192.1500  176.1480  136.3000 O   0  0  0  0  0  0  0  0  0  0  0  0
  191.0620  175.9640  138.3920 C   0  0  0  0  0  3  0  0  0  0  0  0
  1 20  1  0  0  0  0
  2 17  1  0  0  0  0
  3 14  2  0  0  0  0
  4  9  2  0  0  0  0
  5 11  1  6  0  0  0
  5  7  1  0  0  0  0
  6 16  1  0  0  0  0
  7  2  2  0  0  0  0
  7  4  1  0  0  0  0
  8 12  1  0  0  0  0
  9  6  1  0  0  0  0
 10 20  2  0  0  0  0
 10 14  1  0  0  0  0
 12  4  1  0  0  0  0
 13 10  1  0  0  0  0
 14 18  1  0  0  0  0
 15 13  1  0  0  0  0
 17  6  2  0  0  0  0
 18  5  1  0  0  0  0
 18  8  1  1  0  0  0
 19 13  2  0  0  0  0
 19  1  1  0  0  0  0
 20 11  1  0  0  0  0
 21  1  1  0  0  0  0
 22 24  1  0  0  0  0
 22 21  1  1  0  0  0
 23 28  1  0  0  0  0
 25 22  1  0  0  0  0
 26 23  1  0  0  0  0
 26 25  2  0  0  0  0
 27 23  2  0  0  0  0
 28 24  2  0  0  0  0
M  END
>  <MODEL>
7

>  <REMARK>
 VINA RESULT:     -10.0      3.397      5.524
  Name = 
  2 active torsions:
  status: ('A' for Active; 'I' for Inactive)
    1  A    between atoms: N_1  and  C_2
    2  A    between atoms: C_2  and  C_3
                            x       y       z     vdW  Elec       q    Type
                         _______ _______ _______ _____ _____    ______ ____

>  <TORSDO>
F 2

$$$$
=
 OpenBabel10272401563D

 28 32  0  0  1  0  0  0  0  0999 V2000
  186.1250  178.8490  145.6680 N   0  0  0  0  0  0  0  0  0  0  0  0
  188.2810  177.7400  140.8830 C   0  0  0  0  0  3  0  0  0  0  0  0
  190.0880  176.7930  146.6910 O   0  0  0  0  0  0  0  0  0  0  0  0
  190.4780  176.9740  141.5840 C   0  0  0  0  0  0  0  0  0  0  0  0
  188.7020  177.4130  143.3490 C   0  0  2  0  0  3  0  0  0  0  0  0
  189.9780  177.2590  139.2270 C   0  0  0  0  0  0  0  0  0  0  0  0
  189.1780  177.4270  141.9140 C   0  0  0  0  0  0  0  0  0  0  0  0
  190.8520  176.3010  143.9860 C   0  0  0  0  0  2  0  0  0  0  0  0
  190.8720  176.9130  140.2440 C   0  0  0  0  0  3  0  0  0  0  0  0
  188.0610  177.8680  146.0720 C   0  0  0  0  0  0  0  0  0  0  0  0
  187.6770  178.5220  143.6640 C   0  0  0  0  0  2  0  0  0  0  0  0
  191.4930  176.6330  142.6420 C   0  0  0  0  0  2  0  0  0  0  0  0
  187.3330  177.9880  147.2410 C   0  0  0  0  0  0  0  0  0  0  0  0
  189.3760  177.2900  145.7780 C   0  0  0  0  0  0  0  0  0  0  0  0
  187.7440  177.5330  148.5960 C   0  0  0  0  0  1  0  0  0  0  0  0
  190.4820  177.1730  137.5540 Cl  0  0  0  0  0  0  0  0  0  0  0  0
  188.6820  177.6660  139.5460 C   0  0  0  0  0  3  0  0  0  0  0  0
  189.8780  177.4110  144.3570 C   0  0  2  0  0  3  0  0  0  0  0  0
  186.1530  178.5890  146.9700 N   0  0  0  0  0  0  0  0  0  0  0  0
  187.2640  178.4110  145.1010 C   0  0  0  0  0  0  0  0  0  0  0  0
  184.9920  179.4620  144.9850 C   0  0  0  0  0  2  0  0  0  0  0  0
  184.0890  178.4130  144.3320 C   0  0  2  0  0  3  0  0  0  0  0  0
  182.3600  178.8150  142.0560 C   0  0  0  0  0  0  0  0  0  0  0  0
  184.5260  178.1220  142.9140 C   0  0  0  0  0  3  0  0  0  0  0  0
  182.6300  178.7880  144.4710 C   0  0  0  0  0  3  0  0  0  0  0  0
  181.8390  178.9920  143.4160 C   0  0  0  0  0  3  0  0  0  0  0  0
  181.6280  179.0570  141.0620 O   0  0  0  0  0  0  0  0  0  0  0  0
  183.7300  178.3260  141.8630 C   0  0  0  0  0  3  0  0  0  0  0  0
  1 19  1  0  0  0  0
  2  7  1  0  0  0  0
  4  7  2  0  0  0  0
  4 12  1  0  0  0  0
  5 11  1  1  0  0  0
  5 18  1  0  0  0  0
  6 17  1  0  0  0  0
  6  9  2  0  0  0  0
  7  5  1  0  0  0  0
  9  4  1  0  0  0  0
 10 13  1  0  0  0  0
 11 20  1  0  0  0  0
 12  8  1  0  0  0  0
 13 15  1  0  0  0  0
 14 10  1  0  0  0  0
 14  3  2  0  0  0  0
 16  6  1  0  0  0  0
 17  2  2  0  0  0  0
 18  8  1  6  0  0  0
 18 14  1  0  0  0  0
 19 13  2  0  0  0  0
 20  1  1  0  0  0  0
 20 10  2  0  0  0  0
 21  1  1  0  0  0  0
 22 25  1  0  0  0  0
 22 21  1  6  0  0  0
 23 26  1  0  0  0  0
 24 22  1  0  0  0  0
 26 25  2  0  0  0  0
 27 23  2  0  0  0  0
 28 23  1  0  0  0  0
 28 24  2  0  0  0  0
M  END
>  <MODEL>
8

>  <REMARK>
 VINA RESULT:      -9.7      3.234      6.361
  Name = 
  2 active torsions:
  status: ('A' for Active; 'I' for Inactive)
    1  A    between atoms: N_1  and  C_2
    2  A    between atoms: C_2  and  C_3
                            x       y       z     vdW  Elec       q    Type
                         _______ _______ _______ _____ _____    ______ ____

>  <TORSDO>
F 2

$$$$
=
 OpenBabel10272401563D

 28 32  0  0  1  0  0  0  0  0999 V2000
  185.1030  178.4670  140.0660 N   0  0  0  0  0  0  0  0  0  0  0  0
  188.2510  177.3360  144.2600 C   0  0  0  0  0  3  0  0  0  0  0  0
  182.3820  179.1080  143.6960 O   0  0  0  0  0  0  0  0  0  0  0  0
  186.7920  178.0320  146.0750 C   0  0  0  0  0  0  0  0  0  0  0  0
  185.8730  177.9720  143.7060 C   0  0  2  0  0  3  0  0  0  0  0  0
  189.0750  177.3510  146.5350 C   0  0  0  0  0  0  0  0  0  0  0  0
  187.0100  177.8270  144.6910 C   0  0  0  0  0  0  0  0  0  0  0  0
  184.3280  178.3450  145.6380 C   0  0  0  0  0  2  0  0  0  0  0  0
  187.8340  177.8110  146.9820 C   0  0  0  0  0  3  0  0  0  0  0  0
  183.8670  178.7730  141.8700 C   0  0  0  0  0  0  0  0  0  0  0  0
  186.3310  178.4370  142.3070 C   0  0  0  0  0  2  0  0  0  0  0  0
  185.4890  178.5690  146.6030 C   0  0  0  0  0  2  0  0  0  0  0  0
  183.0790  178.8230  140.7370 C   0  0  0  0  0  0  0  0  0  0  0  0
  183.5590  178.8930  143.2980 C   0  0  0  0  0  0  0  0  0  0  0  0
  181.6080  179.0400  140.6840 C   0  0  0  0  0  1  0  0  0  0  0  0
  190.3670  177.0740  147.6810 Cl  0  0  0  0  0  0  0  0  0  0  0  0
  189.2820  177.1080  145.1760 C   0  0  0  0  0  3  0  0  0  0  0  0
  184.7250  178.8530  144.2600 C   0  0  2  0  0  3  0  0  0  0  0  0
  183.8540  178.6330  139.6460 N   0  0  0  0  0  0  0  0  0  0  0  0
  185.1340  178.5360  141.4100 C   0  0  0  0  0  0  0  0  0  0  0  0
  186.2310  178.1960  139.1820 C   0  0  0  0  0  2  0  0  0  0  0  0
  185.7940  178.1030  137.7190 C   0  0  2  0  0  3  0  0  0  0  0  0
  186.9070  176.3640  135.7030 C   0  0  0  0  0  0  0  0  0  0  0  0
  185.2150  176.7410  137.4060 C   0  0  0  0  0  3  0  0  0  0  0  0
  186.9060  178.5370  136.7900 C   0  0  0  0  0  3  0  0  0  0  0  0
  187.4310  177.7240  135.8720 C   0  0  0  0  0  3  0  0  0  0  0  0
  187.4370  175.5800  134.8730 O   0  0  0  0  0  0  0  0  0  0  0  0
  185.7430  175.9330  136.4850 C   0  0  0  0  0  3  0  0  0  0  0  0
  1 20  1  0  0  0  0
  2  7  2  0  0  0  0
  2 17  1  0  0  0  0
  4 12  1  0  0  0  0
  4  9  2  0  0  0  0
  5 11  1  6  0  0  0
  5 18  1  0  0  0  0
  5  7  1  0  0  0  0
  6  9  1  0  0  0  0
  6 16  1  0  0  0  0
  7  4  1  0  0  0  0
  8 12  1  0  0  0  0
 10 14  1  0  0  0  0
 13 10  1  0  0  0  0
 14  3  2  0  0  0  0
 14 18  1  0  0  0  0
 15 13  1  0  0  0  0
 17  6  2  0  0  0  0
 18  8  1  1  0  0  0
 19  1  1  0  0  0  0
 19 13  2  0  0  0  0
 20 10  2  0  0  0  0
 20 11  1  0  0  0  0
 21  1  1  0  0  0  0
 22 21  1  1  0  0  0
 23 26  1  0  0  0  0
 23 28  1  0  0  0  0
 24 22  1  0  0  0  0
 25 22  1  0  0  0  0
 26 25  2  0  0  0  0
 27 23  2  0  0  0  0
 28 24  2  0  0  0  0
M  END
>  <MODEL>
9

>  <REMARK>
 VINA RESULT:      -9.5      3.959      6.127
  Name = 
  2 active torsions:
  status: ('A' for Active; 'I' for Inactive)
    1  A    between atoms: N_1  and  C_2
    2  A    between atoms: C_2  and  C_3
                            x       y       z     vdW  Elec       q    Type
                         _______ _______ _______ _____ _____    ______ ____

>  <TORSDO>
F 2

$$$$
