=
 OpenBabel10262423533D

 34 38  0  0  1  0  0  0  0  0999 V2000
  187.4560  176.4110  136.9570 C   0  0  0  0  0  0  0  0  0  0  0  0
  187.6610  177.9230  138.8560 C   0  0  0  0  0  0  0  0  0  0  0  0
  189.5750  176.2360  138.2700 C   0  0  2  0  0  3  0  0  0  0  0  0
  191.7790  176.9980  139.0960 C   0  0  0  0  0  0  0  0  0  0  0  0
  185.6170  177.8690  137.5520 C   0  0  0  0  0  3  0  0  0  0  0  0
  186.3670  178.3880  138.6050 C   0  0  0  0  0  3  0  0  0  0  0  0
  190.1320  176.8810  140.7000 N   0  0  0  0  0  0  0  0  0  0  0  0
  188.2170  176.8980  138.0490 C   0  0  0  0  0  0  0  0  0  0  0  0
  191.2580  177.3220  142.7880 C   0  0  0  0  0  2  0  0  0  0  0  0
  192.7600  177.5150  140.5060 S   0  0  0  0  0  0  0  0  0  0  0  0
  186.1670  176.8950  136.7230 C   0  0  0  0  0  3  0  0  0  0  0  0
  189.4270  174.9490  136.3460 C   0  0  0  0  0  2  0  0  0  0  0  0
  188.0460  175.4680  135.9420 C   0  0  0  0  0  2  0  0  0  0  0  0
  188.3520  178.5250  139.8480 F   0  0  0  0  0  0  0  0  0  0  0  0
  192.3700  176.5080  137.9010 N   0  0  0  0  0  2  0  0  0  0  0  0
  191.6230  175.5790  137.0560 C   0  0  1  0  0  3  0  0  0  0  0  0
  191.2780  177.2300  141.4630 C   0  0  0  0  0  0  0  0  0  0  0  0
  190.4890  176.8180  139.3260 C   0  0  0  0  0  0  0  0  0  0  0  0
  190.2160  176.0200  136.9520 N   0  0  2  0  0  0  0  0  0  0  0  0
  193.6580  173.1520  136.7870 C   0  0  0  0  0  2  0  0  0  0  0  0
  194.8360  173.8710  136.1420 C   0  0  0  0  0  2  0  0  0  0  0  0
  192.2950  175.4970  135.6610 C   0  0  2  0  0  3  0  0  0  0  0  0
  194.7350  175.3540  136.4630 C   0  0  0  0  0  2  0  0  0  0  0  0
  192.2390  174.1150  134.9920 C   0  0  0  0  0  2  0  0  0  0  0  0
  193.7190  176.0660  135.5720 C   0  0  0  0  0  2  0  0  0  0  0  0
  192.5080  172.9800  135.8890 N   0  0  0  0  0  2  0  0  0  0  0  0
  190.0620  177.0810  143.5230 N   0  0  0  0  0  0  0  0  0  0  0  0
  189.7810  177.8040  144.5550 C   0  0  0  0  0  3  0  0  0  0  0  0
  188.5290  177.5510  145.3220 C   0  0  0  0  0  2  0  0  0  0  0  0
  190.1220  176.9510  147.1580 C   0  0  0  0  0  1  0  0  0  0  0  0
  188.8250  177.4630  146.7430 N   0  0  0  0  0  0  0  0  0  0  0  0
  188.1480  177.8740  148.9440 O   0  0  0  0  0  1  0  0  0  0  0  0
  186.6490  178.4330  147.3080 O   0  0  0  0  0  0  0  0  0  0  0  0
  187.8780  177.9250  147.7140 C   0  0  0  0  0  0  0  0  0  0  0  0
  1  8  1  0  0  0  0
  2 14  1  0  0  0  0
  3  8  1  6  0  0  0
  3 18  1  0  0  0  0
  4 18  2  0  0  0  0
  4 10  1  0  0  0  0
  5  6  2  0  0  0  0
  6  2  1  0  0  0  0
  7 17  2  0  0  0  0
  8  2  2  0  0  0  0
  9 27  1  0  0  0  0
 10 17  1  0  0  0  0
 11  1  2  0  0  0  0
 11  5  1  0  0  0  0
 13 12  1  0  0  0  0
 13  1  1  0  0  0  0
 15  4  1  0  0  0  0
 16 15  1  1  0  0  0
 17  9  1  0  0  0  0
 18  7  1  0  0  0  0
 19 12  1  1  0  0  0
 19 16  1  0  0  0  0
 19  3  1  0  0  0  0
 21 23  1  0  0  0  0
 21 20  1  0  0  0  0
 22 24  1  1  0  0  0
 22 16  1  0  0  0  0
 24 26  1  0  0  0  0
 25 22  1  0  0  0  0
 25 23  1  0  0  0  0
 26 20  1  0  0  0  0
 27 28  2  0  0  0  0
 28 29  1  0  0  0  0
 29 31  1  0  0  0  0
 31 30  1  0  0  0  0
 31 34  1  0  0  0  0
 33 34  2  0  0  0  0
 34 32  1  0  0  0  0
M  END
>  <MODEL>
1

>  <REMARK>
 VINA RESULT:      -7.8      0.000      0.000
  Name = 
  4 active torsions:
  status: ('A' for Active; 'I' for Inactive)
    1  A    between atoms: N_3  and  C_17
    2  A    between atoms: C_12  and  C_28
    3  A    between atoms: C_13  and  C_33
    4  A    between atoms: N_14  and  C_33
                            x       y       z     vdW  Elec       q    Type
                         _______ _______ _______ _____ _____    ______ ____

>  <TORSDO>
F 4

$$$$
=
 OpenBabel10262423533D

 34 38  0  0  1  0  0  0  0  0999 V2000
  187.4940  176.3390  136.4670 C   0  0  0  0  0  0  0  0  0  0  0  0
  187.3670  177.7410  138.4550 C   0  0  0  0  0  0  0  0  0  0  0  0
  189.4170  176.1630  138.0530 C   0  0  2  0  0  3  0  0  0  0  0  0
  191.4500  176.9540  139.2220 C   0  0  0  0  0  0  0  0  0  0  0  0
  185.5280  177.6910  136.8750 C   0  0  0  0  0  3  0  0  0  0  0  0
  186.1000  178.1720  138.0500 C   0  0  0  0  0  3  0  0  0  0  0  0
  189.6030  176.6810  140.5690 N   0  0  0  0  0  0  0  0  0  0  0  0
  188.0740  176.7880  137.6800 C   0  0  0  0  0  0  0  0  0  0  0  0
  190.4080  177.0380  142.8160 C   0  0  0  0  0  2  0  0  0  0  0  0
  192.2010  177.4220  140.7810 S   0  0  0  0  0  0  0  0  0  0  0  0
  186.2290  176.7890  136.0800 C   0  0  0  0  0  3  0  0  0  0  0  0
  189.5940  174.9890  136.0600 C   0  0  0  0  0  2  0  0  0  0  0  0
  188.2600  175.4810  135.4950 C   0  0  0  0  0  2  0  0  0  0  0  0
  187.8860  178.3080  139.5660 F   0  0  0  0  0  0  0  0  0  0  0  0
  192.2210  176.5600  138.0970 N   0  0  0  0  0  2  0  0  0  0  0  0
  191.6400  175.6560  137.1060 C   0  0  1  0  0  3  0  0  0  0  0  0
  190.6160  177.0260  141.5030 C   0  0  0  0  0  0  0  0  0  0  0  0
  190.1490  176.7140  139.2570 C   0  0  0  0  0  0  0  0  0  0  0  0
  190.2430  176.0510  136.8290 N   0  0  2  0  0  0  0  0  0  0  0  0
  193.5980  173.1640  136.8560 C   0  0  0  0  0  2  0  0  0  0  0  0
  194.8830  173.8820  136.4630 C   0  0  0  0  0  2  0  0  0  0  0  0
  192.5020  175.6820  135.8170 C   0  0  2  0  0  3  0  0  0  0  0  0
  194.7940  175.3270  136.9280 C   0  0  0  0  0  2  0  0  0  0  0  0
  192.4890  174.3820  134.9990 C   0  0  0  0  0  2  0  0  0  0  0  0
  193.9450  176.1810  135.9890 C   0  0  0  0  0  2  0  0  0  0  0  0
  192.5830  173.1480  135.7930 N   0  0  0  0  0  2  0  0  0  0  0  0
  189.1340  176.7090  143.3600 N   0  0  0  0  0  0  0  0  0  0  0  0
  188.4220  177.6200  143.9340 C   0  0  0  0  0  3  0  0  0  0  0  0
  187.0900  177.2750  144.5020 C   0  0  0  0  0  2  0  0  0  0  0  0
  187.9100  177.7420  146.8210 C   0  0  0  0  0  1  0  0  0  0  0  0
  186.9080  177.9380  145.7840 N   0  0  0  0  0  0  0  0  0  0  0  0
  185.6530  179.4050  147.1040 O   0  0  0  0  0  1  0  0  0  0  0  0
  184.8510  179.0070  144.9990 O   0  0  0  0  0  0  0  0  0  0  0  0
  185.7920  178.8100  146.0020 C   0  0  0  0  0  0  0  0  0  0  0  0
  1  8  1  0  0  0  0
  2 14  1  0  0  0  0
  3  8  1  6  0  0  0
  3 18  1  0  0  0  0
  4 18  2  0  0  0  0
  4 10  1  0  0  0  0
  5  6  2  0  0  0  0
  6  2  1  0  0  0  0
  7 17  2  0  0  0  0
  8  2  2  0  0  0  0
  9 27  1  0  0  0  0
 10 17  1  0  0  0  0
 11  1  2  0  0  0  0
 11  5  1  0  0  0  0
 13 12  1  0  0  0  0
 13  1  1  0  0  0  0
 15  4  1  0  0  0  0
 16 15  1  1  0  0  0
 17  9  1  0  0  0  0
 18  7  1  0  0  0  0
 19 12  1  6  0  0  0
 19 16  1  0  0  0  0
 19  3  1  0  0  0  0
 21 20  1  0  0  0  0
 21 23  1  0  0  0  0
 22 24  1  1  0  0  0
 22 25  1  0  0  0  0
 22 16  1  0  0  0  0
 24 26  1  0  0  0  0
 25 23  1  0  0  0  0
 26 20  1  0  0  0  0
 27 28  2  0  0  0  0
 28 29  1  0  0  0  0
 29 31  1  0  0  0  0
 31 34  1  0  0  0  0
 31 30  1  0  0  0  0
 33 34  2  0  0  0  0
 34 32  1  0  0  0  0
M  END
>  <MODEL>
2

>  <REMARK>
 VINA RESULT:      -7.7      1.036      1.231
  Name = 
  4 active torsions:
  status: ('A' for Active; 'I' for Inactive)
    1  A    between atoms: N_3  and  C_17
    2  A    between atoms: C_12  and  C_28
    3  A    between atoms: C_13  and  C_33
    4  A    between atoms: N_14  and  C_33
                            x       y       z     vdW  Elec       q    Type
                         _______ _______ _______ _____ _____    ______ ____

>  <TORSDO>
F 4

$$$$
=
 OpenBabel10262423533D

 34 38  0  0  1  0  0  0  0  0999 V2000
  184.4950  178.5040  145.1120 C   0  0  0  0  0  0  0  0  0  0  0  0
  186.9220  178.7070  145.1630 C   0  0  0  0  0  0  0  0  0  0  0  0
  185.6790  177.9980  142.9700 C   0  0  2  0  0  3  0  0  0  0  0  0
  186.9840  178.5380  140.9390 C   0  0  0  0  0  0  0  0  0  0  0  0
  185.6250  179.0350  147.1850 C   0  0  0  0  0  3  0  0  0  0  0  0
  186.8530  178.9980  146.5280 C   0  0  0  0  0  3  0  0  0  0  0  0
  188.1000  177.2620  142.4950 N   0  0  0  0  0  0  0  0  0  0  0  0
  185.7380  178.4220  144.4360 C   0  0  0  0  0  0  0  0  0  0  0  0
  190.1780  176.6500  141.4300 C   0  0  0  0  0  2  0  0  0  0  0  0
  188.5270  178.3420  140.0460 S   0  0  0  0  0  0  0  0  0  0  0  0
  184.4500  178.8030  146.4760 C   0  0  0  0  0  3  0  0  0  0  0  0
  183.3600  178.0020  142.9080 C   0  0  0  0  0  2  0  0  0  0  0  0
  183.1860  178.4080  144.3720 C   0  0  0  0  0  2  0  0  0  0  0  0
  188.1390  178.7610  144.5800 F   0  0  0  0  0  0  0  0  0  0  0  0
  185.7760  178.9110  140.2910 N   0  0  0  0  0  2  0  0  0  0  0  0
  184.4960  178.4990  140.8610 C   0  0  1  0  0  3  0  0  0  0  0  0
  189.0300  177.3180  141.4230 C   0  0  0  0  0  0  0  0  0  0  0  0
  186.9590  178.0400  142.1640 C   0  0  0  0  0  0  0  0  0  0  0  0
  184.5250  178.6700  142.3290 N   0  0  2  0  0  0  0  0  0  0  0  0
  182.6330  176.7850  138.9390 C   0  0  0  0  0  2  0  0  0  0  0  0
  182.5600  177.7240  137.7430 C   0  0  0  0  0  2  0  0  0  0  0  0
  183.3540  179.3270  140.2180 C   0  0  2  0  0  3  0  0  0  0  0  0
  183.7700  178.6450  137.7730 C   0  0  0  0  0  2  0  0  0  0  0  0
  181.9520  178.7130  140.3460 C   0  0  0  0  0  2  0  0  0  0  0  0
  183.5970  179.7870  138.7720 C   0  0  0  0  0  2  0  0  0  0  0  0
  181.8860  177.2630  140.1110 N   0  0  0  0  0  2  0  0  0  0  0  0
  190.5460  175.8360  142.5390 N   0  0  0  0  0  0  0  0  0  0  0  0
  191.2530  176.3330  143.4990 C   0  0  0  0  0  3  0  0  0  0  0  0
  191.6360  175.4810  144.6580 C   0  0  0  0  0  2  0  0  0  0  0  0
  190.3710  177.1960  145.9710 C   0  0  0  0  0  1  0  0  0  0  0  0
  191.4400  176.2120  145.9000 N   0  0  0  0  0  0  0  0  0  0  0  0
  192.0590  176.5440  148.1310 O   0  0  0  0  0  1  0  0  0  0  0  0
  193.2550  174.9710  146.9780 O   0  0  0  0  0  0  0  0  0  0  0  0
  192.2500  175.9280  147.0480 C   0  0  0  0  0  0  0  0  0  0  0  0
  1 11  1  0  0  0  0
  2  6  2  0  0  0  0
  3 18  1  6  0  0  0
  3  8  1  0  0  0  0
  4 18  2  0  0  0  0
  6  5  1  0  0  0  0
  8  1  2  0  0  0  0
  8  2  1  0  0  0  0
  9 27  1  0  0  0  0
 10  4  1  0  0  0  0
 10 17  1  0  0  0  0
 11  5  2  0  0  0  0
 12 13  1  0  0  0  0
 13  1  1  0  0  0  0
 14  2  1  0  0  0  0
 15  4  1  0  0  0  0
 16 15  1  6  0  0  0
 16 19  1  0  0  0  0
 17  9  1  0  0  0  0
 17  7  2  0  0  0  0
 18  7  1  0  0  0  0
 19 12  1  1  0  0  0
 19  3  1  0  0  0  0
 20 26  1  0  0  0  0
 21 23  1  0  0  0  0
 21 20  1  0  0  0  0
 22 25  1  6  0  0  0
 22 24  1  0  0  0  0
 22 16  1  0  0  0  0
 23 25  1  0  0  0  0
 26 24  1  0  0  0  0
 27 28  2  0  0  0  0
 28 29  1  0  0  0  0
 29 31  1  0  0  0  0
 31 30  1  0  0  0  0
 31 34  1  0  0  0  0
 33 34  2  0  0  0  0
 34 32  1  0  0  0  0
M  END
>  <MODEL>
3

>  <REMARK>
 VINA RESULT:      -7.4      4.501      7.829
  Name = 
  4 active torsions:
  status: ('A' for Active; 'I' for Inactive)
    1  A    between atoms: N_3  and  C_17
    2  A    between atoms: C_12  and  C_28
    3  A    between atoms: C_13  and  C_33
    4  A    between atoms: N_14  and  C_33
                            x       y       z     vdW  Elec       q    Type
                         _______ _______ _______ _____ _____    ______ ____

>  <TORSDO>
F 4

$$$$
=
 OpenBabel10262423533D

 34 38  0  0  1  0  0  0  0  0999 V2000
  188.7170  177.7560  143.7880 C   0  0  0  0  0  0  0  0  0  0  0  0
  190.6540  177.9500  142.3230 C   0  0  0  0  0  0  0  0  0  0  0  0
  188.2700  177.4880  141.3440 C   0  0  2  0  0  3  0  0  0  0  0  0
  188.0580  178.2480  138.9990 C   0  0  0  0  0  0  0  0  0  0  0  0
  190.9270  178.0550  144.7300 C   0  0  0  0  0  3  0  0  0  0  0  0
  191.4710  178.0900  143.4480 C   0  0  0  0  0  3  0  0  0  0  0  0
  189.8080  176.8070  139.3950 N   0  0  0  0  0  0  0  0  0  0  0  0
  189.2590  177.7480  142.4780 C   0  0  0  0  0  0  0  0  0  0  0  0
  190.7210  176.3150  137.2150 C   0  0  0  0  0  2  0  0  0  0  0  0
  188.6900  178.1500  137.3240 S   0  0  0  0  0  0  0  0  0  0  0  0
  189.5530  177.9030  144.8970 C   0  0  0  0  0  3  0  0  0  0  0  0
  186.4250  177.5000  142.7500 C   0  0  0  0  0  2  0  0  0  0  0  0
  187.2300  177.7420  144.0280 C   0  0  0  0  0  2  0  0  0  0  0  0
  191.2430  178.0680  141.1130 F   0  0  0  0  0  0  0  0  0  0  0  0
  186.7390  178.6910  139.2860 N   0  0  0  0  0  2  0  0  0  0  0  0
  186.0690  178.2190  140.4960 C   0  0  1  0  0  3  0  0  0  0  0  0
  189.8680  176.9810  137.9860 C   0  0  0  0  0  0  0  0  0  0  0  0
  188.7670  177.6180  139.9210 C   0  0  0  0  0  0  0  0  0  0  0  0
  187.0180  178.2270  141.6290 N   0  0  2  0  0  0  0  0  0  0  0  0
  183.3310  176.9370  139.5130 C   0  0  0  0  0  2  0  0  0  0  0  0
  182.7180  178.1410  138.8100 C   0  0  0  0  0  2  0  0  0  0  0  0
  184.8360  179.1140  140.7840 C   0  0  2  0  0  3  0  0  0  0  0  0
  183.8350  179.0940  138.4150 C   0  0  0  0  0  2  0  0  0  0  0  0
  183.6670  178.4060  141.4850 C   0  0  0  0  0  2  0  0  0  0  0  0
  184.3160  179.9360  139.5950 C   0  0  0  0  0  2  0  0  0  0  0  0
  183.3610  177.0600  140.9760 N   0  0  0  0  0  2  0  0  0  0  0  0
  191.6420  175.3840  137.7740 N   0  0  0  0  0  0  0  0  0  0  0  0
  192.7210  175.0800  137.1340 C   0  0  0  0  0  3  0  0  0  0  0  0
  193.6850  174.1070  137.7200 C   0  0  0  0  0  2  0  0  0  0  0  0
  195.2950  174.9140  135.9810 C   0  0  0  0  0  1  0  0  0  0  0  0
  195.0430  174.4610  137.3410 N   0  0  0  0  0  0  0  0  0  0  0  0
  197.2740  174.7520  137.9810 O   0  0  0  0  0  0  0  0  0  0  0  0
  195.8500  174.0030  139.6070 O   0  0  0  0  0  1  0  0  0  0  0  0
  196.1030  174.4170  138.3050 C   0  0  0  0  0  0  0  0  0  0  0  0
  1 13  1  0  0  0  0
  1 11  1  0  0  0  0
  2  8  1  0  0  0  0
  2  6  2  0  0  0  0
  3 18  1  6  0  0  0
  3 19  1  0  0  0  0
  3  8  1  0  0  0  0
  4 15  1  0  0  0  0
  4 18  2  0  0  0  0
  5 11  2  0  0  0  0
  6  5  1  0  0  0  0
  7 18  1  0  0  0  0
  8  1  2  0  0  0  0
  9 27  1  0  0  0  0
  9 17  1  0  0  0  0
 10 17  1  0  0  0  0
 10  4  1  0  0  0  0
 12 13  1  0  0  0  0
 14  2  1  0  0  0  0
 16 15  1  6  0  0  0
 16 22  1  0  0  0  0
 16 19  1  0  0  0  0
 17  7  2  0  0  0  0
 19 12  1  1  0  0  0
 20 26  1  0  0  0  0
 21 20  1  0  0  0  0
 22 25  1  6  0  0  0
 22 24  1  0  0  0  0
 23 21  1  0  0  0  0
 23 25  1  0  0  0  0
 26 24  1  0  0  0  0
 28 29  1  0  0  0  0
 28 27  2  0  0  0  0
 30 31  1  0  0  0  0
 31 29  1  0  0  0  0
 31 34  1  0  0  0  0
 32 34  2  0  0  0  0
 34 33  1  0  0  0  0
M  END
>  <MODEL>
4

>  <REMARK>
 VINA RESULT:      -7.3      4.226      8.789
  Name = 
  4 active torsions:
  status: ('A' for Active; 'I' for Inactive)
    1  A    between atoms: N_3  and  C_17
    2  A    between atoms: C_12  and  C_28
    3  A    between atoms: C_13  and  C_33
    4  A    between atoms: N_14  and  C_33
                            x       y       z     vdW  Elec       q    Type
                         _______ _______ _______ _____ _____    ______ ____

>  <TORSDO>
F 4

$$$$
=
 OpenBabel10262423533D

 34 38  0  0  1  0  0  0  0  0999 V2000
  191.7150  177.5330  141.3080 C   0  0  0  0  0  0  0  0  0  0  0  0
  189.3090  177.1520  141.3730 C   0  0  0  0  0  0  0  0  0  0  0  0
  190.6480  176.9050  139.1370 C   0  0  2  0  0  3  0  0  0  0  0  0
  189.5250  175.3880  137.5370 C   0  0  0  0  0  0  0  0  0  0  0  0
  190.4840  177.8940  143.3610 C   0  0  0  0  0  3  0  0  0  0  0  0
  189.3050  177.5160  142.7230 C   0  0  0  0  0  3  0  0  0  0  0  0
  188.2190  177.1200  138.3070 N   0  0  0  0  0  0  0  0  0  0  0  0
  190.5170  177.1850  140.6320 C   0  0  0  0  0  0  0  0  0  0  0  0
  186.1820  176.9910  137.0190 C   0  0  0  0  0  2  0  0  0  0  0  0
  188.0360  175.0170  136.6080 S   0  0  0  0  0  0  0  0  0  0  0  0
  191.6860  177.8870  142.6580 C   0  0  0  0  0  3  0  0  0  0  0  0
  192.9600  177.0880  139.1520 C   0  0  0  0  0  2  0  0  0  0  0  0
  193.0610  177.4050  140.6450 C   0  0  0  0  0  2  0  0  0  0  0  0
  188.1410  176.7280  140.8440 F   0  0  0  0  0  0  0  0  0  0  0  0
  190.7960  174.8760  137.1670 N   0  0  0  0  0  2  0  0  0  0  0  0
  192.0030  175.6180  137.5240 C   0  0  1  0  0  3  0  0  0  0  0  0
  187.3710  176.5000  137.3510 C   0  0  0  0  0  0  0  0  0  0  0  0
  189.4320  176.3850  138.4010 C   0  0  0  0  0  0  0  0  0  0  0  0
  191.8860  176.1260  138.9070 N   0  0  2  0  0  0  0  0  0  0  0  0
  193.5880  176.1100  134.8130 C   0  0  0  0  0  2  0  0  0  0  0  0
  193.7750  174.6690  134.3560 C   0  0  0  0  0  2  0  0  0  0  0  0
  193.2410  174.6970  137.3630 C   0  0  2  0  0  3  0  0  0  0  0  0
  192.7050  173.8090  135.0090 C   0  0  0  0  0  2  0  0  0  0  0  0
  194.5460  175.4190  136.9960 C   0  0  0  0  0  2  0  0  0  0  0  0
  193.0460  173.4700  136.4590 C   0  0  0  0  0  2  0  0  0  0  0  0
  194.4080  176.4710  135.9770 N   0  0  0  0  0  2  0  0  0  0  0  0
  185.6840  178.1800  137.6240 N   0  0  0  0  0  0  0  0  0  0  0  0
  184.6610  178.1260  138.4090 C   0  0  0  0  0  3  0  0  0  0  0  0
  184.1420  179.3700  139.0420 C   0  0  0  0  0  2  0  0  0  0  0  0
  182.3800  178.7510  140.7100 C   0  0  0  0  0  1  0  0  0  0  0  0
  183.7610  179.1070  140.4200 N   0  0  0  0  0  0  0  0  0  0  0  0
  184.4130  178.8860  142.6560 O   0  0  0  0  0  1  0  0  0  0  0  0
  186.0620  179.4630  141.1780 O   0  0  0  0  0  0  0  0  0  0  0  0
  184.7410  179.1430  141.4660 C   0  0  0  0  0  0  0  0  0  0  0  0
  1 11  1  0  0  0  0
  2  6  2  0  0  0  0
  3 18  1  1  0  0  0
  3  8  1  0  0  0  0
  4 18  2  0  0  0  0
  6  5  1  0  0  0  0
  7 18  1  0  0  0  0
  8  1  2  0  0  0  0
  8  2  1  0  0  0  0
  9 17  1  0  0  0  0
  9 27  1  0  0  0  0
 10 17  1  0  0  0  0
 10  4  1  0  0  0  0
 11  5  2  0  0  0  0
 12 13  1  0  0  0  0
 13  1  1  0  0  0  0
 14  2  1  0  0  0  0
 15  4  1  0  0  0  0
 16 15  1  1  0  0  0
 16 19  1  0  0  0  0
 17  7  2  0  0  0  0
 19  3  1  0  0  0  0
 19 12  1  6  0  0  0
 20 26  1  0  0  0  0
 21 20  1  0  0  0  0
 21 23  1  0  0  0  0
 22 25  1  6  0  0  0
 22 16  1  0  0  0  0
 23 25  1  0  0  0  0
 24 22  1  0  0  0  0
 26 24  1  0  0  0  0
 27 28  2  0  0  0  0
 28 29  1  0  0  0  0
 29 31  1  0  0  0  0
 31 30  1  0  0  0  0
 31 34  1  0  0  0  0
 33 34  2  0  0  0  0
 34 32  1  0  0  0  0
M  END
>  <MODEL>
5

>  <REMARK>
 VINA RESULT:      -7.1      3.057      5.495
  Name = 
  4 active torsions:
  status: ('A' for Active; 'I' for Inactive)
    1  A    between atoms: N_3  and  C_17
    2  A    between atoms: C_12  and  C_28
    3  A    between atoms: C_13  and  C_33
    4  A    between atoms: N_14  and  C_33
                            x       y       z     vdW  Elec       q    Type
                         _______ _______ _______ _____ _____    ______ ____

>  <TORSDO>
F 4

$$$$
=
 OpenBabel10262423533D

 34 38  0  0  1  0  0  0  0  0999 V2000
  183.1200  178.4610  141.6120 C   0  0  0  0  0  0  0  0  0  0  0  0
  184.7740  179.1490  143.2630 C   0  0  0  0  0  0  0  0  0  0  0  0
  185.4990  177.9180  141.0680 C   0  0  2  0  0  3  0  0  0  0  0  0
  187.8350  178.4310  140.4360 C   0  0  0  0  0  0  0  0  0  0  0  0
  182.4100  179.4800  143.6900 C   0  0  0  0  0  3  0  0  0  0  0  0
  183.7400  179.6010  144.0870 C   0  0  0  0  0  3  0  0  0  0  0  0
  187.5660  177.6240  142.5750 N   0  0  0  0  0  0  0  0  0  0  0  0
  184.4760  178.5390  142.0180 C   0  0  0  0  0  0  0  0  0  0  0  0
  189.8070  177.3020  143.4110 C   0  0  0  0  0  2  0  0  0  0  0  0
  189.5600  178.4280  140.9260 S   0  0  0  0  0  0  0  0  0  0  0  0
  182.1040  178.9250  142.4500 C   0  0  0  0  0  3  0  0  0  0  0  0
  183.9190  177.4510  139.4350 C   0  0  0  0  0  2  0  0  0  0  0  0
  182.7350  178.0060  140.2290 C   0  0  0  0  0  2  0  0  0  0  0  0
  186.0390  179.3670  143.6840 F   0  0  0  0  0  0  0  0  0  0  0  0
  187.4340  178.4650  139.0740 N   0  0  0  0  0  2  0  0  0  0  0  0
  186.1500  177.8850  138.6870 C   0  0  1  0  0  3  0  0  0  0  0  0
  188.9780  177.7200  142.4600 C   0  0  0  0  0  0  0  0  0  0  0  0
  186.9670  178.1070  141.3800 C   0  0  0  0  0  0  0  0  0  0  0  0
  185.1170  178.2540  139.6770 N   0  0  2  0  0  0  0  0  0  0  0  0
  186.8400  175.7770  136.4100 C   0  0  0  0  0  2  0  0  0  0  0  0
  187.5130  176.6970  135.4000 C   0  0  0  0  0  2  0  0  0  0  0  0
  185.7720  178.3750  137.2650 C   0  0  2  0  0  3  0  0  0  0  0  0
  188.0360  177.9230  136.1320 C   0  0  0  0  0  2  0  0  0  0  0  0
  184.9460  177.3820  136.4330 C   0  0  0  0  0  2  0  0  0  0  0  0
  186.9280  178.9340  136.4230 C   0  0  0  0  0  2  0  0  0  0  0  0
  185.3890  175.9820  136.5190 N   0  0  0  0  0  2  0  0  0  0  0  0
  189.3110  176.7340  144.6190 N   0  0  0  0  0  0  0  0  0  0  0  0
  189.4190  177.3840  145.7290 C   0  0  0  0  0  3  0  0  0  0  0  0
  188.9000  176.7890  146.9920 C   0  0  0  0  0  2  0  0  0  0  0  0
  188.2760  178.3840  148.8190 C   0  0  0  0  0  1  0  0  0  0  0  0
  187.9210  177.6800  147.5960 N   0  0  0  0  0  0  0  0  0  0  0  0
  185.8180  178.6960  147.4790 O   0  0  0  0  0  1  0  0  0  0  0  0
  186.3290  177.2410  145.7890 O   0  0  0  0  0  0  0  0  0  0  0  0
  186.6520  177.9020  146.9680 C   0  0  0  0  0  0  0  0  0  0  0  0
  1  8  2  0  0  0  0
  1 11  1  0  0  0  0
  2 14  1  0  0  0  0
  2  6  2  0  0  0  0
  3 18  1  1  0  0  0
  3  8  1  0  0  0  0
  4 10  1  0  0  0  0
  4 18  2  0  0  0  0
  5  6  1  0  0  0  0
  8  2  1  0  0  0  0
  9 27  1  0  0  0  0
 10 17  1  0  0  0  0
 11  5  2  0  0  0  0
 12 13  1  0  0  0  0
 13  1  1  0  0  0  0
 15  4  1  0  0  0  0
 16 15  1  1  0  0  0
 16 19  1  0  0  0  0
 17  7  2  0  0  0  0
 17  9  1  0  0  0  0
 18  7  1  0  0  0  0
 19 12  1  6  0  0  0
 19  3  1  0  0  0  0
 20 26  1  0  0  0  0
 21 23  1  0  0  0  0
 21 20  1  0  0  0  0
 22 25  1  6  0  0  0
 22 16  1  0  0  0  0
 23 25  1  0  0  0  0
 24 26  1  0  0  0  0
 24 22  1  0  0  0  0
 27 28  2  0  0  0  0
 28 29  1  0  0  0  0
 29 31  1  0  0  0  0
 31 30  1  0  0  0  0
 33 34  2  0  0  0  0
 34 32  1  0  0  0  0
 34 31  1  0  0  0  0
M  END
>  <MODEL>
6

>  <REMARK>
 VINA RESULT:      -6.7      3.880      5.432
  Name = 
  4 active torsions:
  status: ('A' for Active; 'I' for Inactive)
    1  A    between atoms: N_3  and  C_17
    2  A    between atoms: C_12  and  C_28
    3  A    between atoms: C_13  and  C_33
    4  A    between atoms: N_14  and  C_33
                            x       y       z     vdW  Elec       q    Type
                         _______ _______ _______ _____ _____    ______ ____

>  <TORSDO>
F 4

$$$$
=
 OpenBabel10262423533D

 34 38  0  0  1  0  0  0  0  0999 V2000
  189.7470  177.0690  137.6320 C   0  0  0  0  0  0  0  0  0  0  0  0
  187.6530  178.2690  137.2980 C   0  0  0  0  0  0  0  0  0  0  0  0
  188.3840  177.4820  139.6860 C   0  0  2  0  0  3  0  0  0  0  0  0
  187.3720  178.8580  141.4760 C   0  0  0  0  0  0  0  0  0  0  0  0
  189.0350  177.6710  135.3980 C   0  0  0  0  0  3  0  0  0  0  0  0
  187.8910  178.2690  135.9210 C   0  0  0  0  0  3  0  0  0  0  0  0
  185.8680  177.9320  140.0000 N   0  0  0  0  0  0  0  0  0  0  0  0
  188.5680  177.6370  138.1780 C   0  0  0  0  0  0  0  0  0  0  0  0
  183.6950  178.4470  140.9130 C   0  0  0  0  0  2  0  0  0  0  0  0
  185.8660  179.4880  142.2190 S   0  0  0  0  0  0  0  0  0  0  0  0
  189.9660  177.0870  136.2520 C   0  0  0  0  0  3  0  0  0  0  0  0
  190.4700  176.5140  139.9910 C   0  0  0  0  0  2  0  0  0  0  0  0
  190.8560  176.5540  138.5110 C   0  0  0  0  0  2  0  0  0  0  0  0
  186.5600  178.9320  137.7360 F   0  0  0  0  0  0  0  0  0  0  0  0
  188.5980  178.7880  142.1900 N   0  0  0  0  0  2  0  0  0  0  0  0
  189.5910  177.7830  141.8190 C   0  0  1  0  0  3  0  0  0  0  0  0
  185.0180  178.5570  140.9500 C   0  0  0  0  0  0  0  0  0  0  0  0
  187.2220  178.1980  140.3400 C   0  0  0  0  0  0  0  0  0  0  0  0
  189.6920  177.7000  140.3470 N   0  0  2  0  0  0  0  0  0  0  0  0
  190.1990  176.1530  144.4790 C   0  0  0  0  0  2  0  0  0  0  0  0
  190.6710  177.2890  145.3780 C   0  0  0  0  0  2  0  0  0  0  0  0
  190.9550  178.1460  142.4600 C   0  0  2  0  0  3  0  0  0  0  0  0
  190.1060  178.5960  144.8460 C   0  0  0  0  0  2  0  0  0  0  0  0
  191.8510  176.9470  142.8060 C   0  0  0  0  0  2  0  0  0  0  0  0
  190.8970  179.1180  143.6480 C   0  0  0  0  0  2  0  0  0  0  0  0
  191.1530  175.8050  143.4170 N   0  0  0  0  0  2  0  0  0  0  0  0
  183.0500  177.6910  139.8930 N   0  0  0  0  0  0  0  0  0  0  0  0
  182.6540  178.2730  138.8100 C   0  0  0  0  0  3  0  0  0  0  0  0
  181.9810  177.4810  137.7440 C   0  0  0  0  0  2  0  0  0  0  0  0
  184.1000  176.9070  136.5400 C   0  0  0  0  0  1  0  0  0  0  0  0
  182.8900  176.4730  137.2220 N   0  0  0  0  0  0  0  0  0  0  0  0
  183.4310  174.2090  136.9960 O   0  0  0  0  0  0  0  0  0  0  0  0
  181.4790  174.6730  138.0960 O   0  0  0  0  0  1  0  0  0  0  0  0
  182.6270  175.0790  137.4250 C   0  0  0  0  0  0  0  0  0  0  0  0
  1  8  1  0  0  0  0
  1 13  1  0  0  0  0
  2 14  1  0  0  0  0
  2  8  2  0  0  0  0
  3  8  1  6  0  0  0
  3 18  1  0  0  0  0
  3 19  1  0  0  0  0
  4 15  1  0  0  0  0
  4 10  1  0  0  0  0
  5  6  2  0  0  0  0
  5 11  1  0  0  0  0
  6  2  1  0  0  0  0
  7 18  1  0  0  0  0
  7 17  2  0  0  0  0
  9 17  1  0  0  0  0
 11  1  2  0  0  0  0
 13 12  1  0  0  0  0
 16 15  1  6  0  0  0
 16 22  1  0  0  0  0
 17 10  1  0  0  0  0
 18  4  2  0  0  0  0
 19 12  1  1  0  0  0
 19 16  1  0  0  0  0
 20 21  1  0  0  0  0
 22 24  1  1  0  0  0
 22 25  1  0  0  0  0
 23 21  1  0  0  0  0
 24 26  1  0  0  0  0
 25 23  1  0  0  0  0
 26 20  1  0  0  0  0
 27  9  1  0  0  0  0
 28 27  2  0  0  0  0
 29 28  1  0  0  0  0
 30 31  1  0  0  0  0
 31 34  1  0  0  0  0
 31 29  1  0  0  0  0
 32 34  2  0  0  0  0
 34 33  1  0  0  0  0
M  END
>  <MODEL>
7

>  <REMARK>
 VINA RESULT:      -6.4      4.316      7.549
  Name = 
  4 active torsions:
  status: ('A' for Active; 'I' for Inactive)
    1  A    between atoms: N_3  and  C_17
    2  A    between atoms: C_12  and  C_28
    3  A    between atoms: C_13  and  C_33
    4  A    between atoms: N_14  and  C_33
                            x       y       z     vdW  Elec       q    Type
                         _______ _______ _______ _____ _____    ______ ____

>  <TORSDO>
F 4

$$$$
=
 OpenBabel10262423533D

 34 38  0  0  1  0  0  0  0  0999 V2000
  182.8770  178.6560  142.8350 C   0  0  0  0  0  0  0  0  0  0  0  0
  185.2180  179.3040  142.6470 C   0  0  0  0  0  0  0  0  0  0  0  0
  183.9660  178.1920  140.6340 C   0  0  2  0  0  3  0  0  0  0  0  0
  184.9830  178.7850  138.4580 C   0  0  0  0  0  0  0  0  0  0  0  0
  184.0430  179.5630  144.7530 C   0  0  0  0  0  3  0  0  0  0  0  0
  185.2010  179.6950  143.9890 C   0  0  0  0  0  3  0  0  0  0  0  0
  186.4390  177.8740  139.9900 N   0  0  0  0  0  0  0  0  0  0  0  0
  184.0570  178.7450  142.0550 C   0  0  0  0  0  0  0  0  0  0  0  0
  188.5060  177.5630  138.7840 C   0  0  0  0  0  2  0  0  0  0  0  0
  186.4610  178.7980  137.4430 S   0  0  0  0  0  0  0  0  0  0  0  0
  182.8820  179.0590  144.1730 C   0  0  0  0  0  3  0  0  0  0  0  0
  181.6910  177.7660  140.7860 C   0  0  0  0  0  2  0  0  0  0  0  0
  181.5570  178.2580  142.2290 C   0  0  0  0  0  2  0  0  0  0  0  0
  186.3540  179.5300  141.9520 F   0  0  0  0  0  0  0  0  0  0  0  0
  183.6800  178.8720  137.9000 N   0  0  0  0  0  2  0  0  0  0  0  0
  182.5490  178.2830  138.6140 C   0  0  1  0  0  3  0  0  0  0  0  0
  187.2540  178.0070  138.8360 C   0  0  0  0  0  0  0  0  0  0  0  0
  185.1480  178.3980  139.7120 C   0  0  0  0  0  0  0  0  0  0  0  0
  182.6590  178.5830  140.0570 N   0  0  2  0  0  0  0  0  0  0  0  0
  181.0550  176.1920  136.7440 C   0  0  0  0  0  2  0  0  0  0  0  0
  180.7240  177.0920  135.5610 C   0  0  0  0  0  2  0  0  0  0  0  0
  181.2250  178.8300  138.0210 C   0  0  2  0  0  3  0  0  0  0  0  0
  181.6910  178.2650  135.5560 C   0  0  0  0  0  2  0  0  0  0  0  0
  180.0060  177.9110  138.1950 C   0  0  0  0  0  2  0  0  0  0  0  0
  181.3000  179.3350  136.5730 C   0  0  0  0  0  2  0  0  0  0  0  0
  180.2640  176.4840  137.9470 N   0  0  0  0  0  2  0  0  0  0  0  0
  189.1060  176.9300  139.9090 N   0  0  0  0  0  0  0  0  0  0  0  0
  189.7150  177.6380  140.8010 C   0  0  0  0  0  3  0  0  0  0  0  0
  190.3420  176.9740  141.9780 C   0  0  0  0  0  2  0  0  0  0  0  0
  190.8740  178.6900  143.7210 C   0  0  0  0  0  1  0  0  0  0  0  0
  189.9740  177.6740  143.1990 N   0  0  0  0  0  0  0  0  0  0  0  0
  188.3940  178.0330  144.8850 O   0  0  0  0  0  1  0  0  0  0  0  0
  187.8590  176.4470  143.3260 O   0  0  0  0  0  0  0  0  0  0  0  0
  188.7230  177.4050  143.8430 C   0  0  0  0  0  0  0  0  0  0  0  0
  1 11  1  0  0  0  0
  2  6  2  0  0  0  0
  3 18  1  6  0  0  0
  3  8  1  0  0  0  0
  4 18  2  0  0  0  0
  6  5  1  0  0  0  0
  8  2  1  0  0  0  0
  8  1  2  0  0  0  0
  9 17  1  0  0  0  0
  9 27  1  0  0  0  0
 10  4  1  0  0  0  0
 10 17  1  0  0  0  0
 11  5  2  0  0  0  0
 12 13  1  0  0  0  0
 13  1  1  0  0  0  0
 14  2  1  0  0  0  0
 15  4  1  0  0  0  0
 16 15  1  6  0  0  0
 16 19  1  0  0  0  0
 17  7  2  0  0  0  0
 18  7  1  0  0  0  0
 19  3  1  0  0  0  0
 19 12  1  1  0  0  0
 20 26  1  0  0  0  0
 21 20  1  0  0  0  0
 22 25  1  6  0  0  0
 22 24  1  0  0  0  0
 22 16  1  0  0  0  0
 23 21  1  0  0  0  0
 23 25  1  0  0  0  0
 26 24  1  0  0  0  0
 27 28  2  0  0  0  0
 28 29  1  0  0  0  0
 29 31  1  0  0  0  0
 31 30  1  0  0  0  0
 31 34  1  0  0  0  0
 33 34  2  0  0  0  0
 34 32  1  0  0  0  0
M  END
>  <MODEL>
8

>  <REMARK>
 VINA RESULT:      -6.2      4.557      8.183
  Name = 
  4 active torsions:
  status: ('A' for Active; 'I' for Inactive)
    1  A    between atoms: N_3  and  C_17
    2  A    between atoms: C_12  and  C_28
    3  A    between atoms: C_13  and  C_33
    4  A    between atoms: N_14  and  C_33
                            x       y       z     vdW  Elec       q    Type
                         _______ _______ _______ _____ _____    ______ ____

>  <TORSDO>
F 4

$$$$
=
 OpenBabel10262423533D

 34 38  0  0  1  0  0  0  0  0999 V2000
  189.8030  176.9140  141.3110 C   0  0  0  0  0  0  0  0  0  0  0  0
  187.9950  178.3910  140.6170 C   0  0  0  0  0  0  0  0  0  0  0  0
  187.9560  177.2310  142.9640 C   0  0  2  0  0  3  0  0  0  0  0  0
  186.5970  178.4880  144.6060 C   0  0  0  0  0  0  0  0  0  0  0  0
  189.8030  177.8700  139.0870 C   0  0  0  0  0  3  0  0  0  0  0  0
  188.6110  178.5330  139.3710 C   0  0  0  0  0  3  0  0  0  0  0  0
  185.5000  177.9420  142.6580 N   0  0  0  0  0  0  0  0  0  0  0  0
  188.5690  177.5490  141.6020 C   0  0  0  0  0  0  0  0  0  0  0  0
  183.2070  178.6010  143.0240 C   0  0  0  0  0  2  0  0  0  0  0  0
  185.0000  179.1980  145.0070 S   0  0  0  0  0  0  0  0  0  0  0  0
  190.4030  177.0750  140.0600 C   0  0  0  0  0  3  0  0  0  0  0  0
  189.7830  175.9860  143.6640 C   0  0  0  0  0  2  0  0  0  0  0  0
  190.5730  176.1620  142.3660 C   0  0  0  0  0  2  0  0  0  0  0  0
  186.8820  179.1230  140.8430 F   0  0  0  0  0  0  0  0  0  0  0  0
  187.5610  178.1810  145.6030 N   0  0  0  0  0  2  0  0  0  0  0  0
  188.5320  177.1150  145.3620 C   0  0  1  0  0  3  0  0  0  0  0  0
  184.4710  178.5430  143.4300 C   0  0  0  0  0  0  0  0  0  0  0  0
  186.7200  177.9960  143.3840 C   0  0  0  0  0  0  0  0  0  0  0  0
  189.0370  177.2040  143.9760 N   0  0  2  0  0  0  0  0  0  0  0  0
  187.5540  176.8320  148.3730 C   0  0  0  0  0  2  0  0  0  0  0  0
  188.2960  178.0060  148.9990 C   0  0  0  0  0  2  0  0  0  0  0  0
  189.6850  177.2270  146.3930 C   0  0  2  0  0  3  0  0  0  0  0  0
  188.6220  179.0130  147.9070 C   0  0  0  0  0  2  0  0  0  0  0  0
  189.7340  176.1030  147.4390 C   0  0  0  0  0  2  0  0  0  0  0  0
  189.8350  178.5920  147.0810 C   0  0  0  0  0  2  0  0  0  0  0  0
  188.4290  175.7140  147.9950 N   0  0  0  0  0  2  0  0  0  0  0  0
  182.8160  178.0610  141.7650 N   0  0  0  0  0  0  0  0  0  0  0  0
  182.5440  178.8510  140.7810 C   0  0  0  0  0  3  0  0  0  0  0  0
  182.1360  178.2860  139.4650 C   0  0  0  0  0  2  0  0  0  0  0  0
  183.2340  176.3530  138.3140 C   0  0  0  0  0  1  0  0  0  0  0  0
  183.2930  177.7300  138.7810 N   0  0  0  0  0  0  0  0  0  0  0  0
  185.4360  178.0640  137.9060 O   0  0  0  0  0  0  0  0  0  0  0  0
  184.4850  179.8610  138.9550 O   0  0  0  0  0  1  0  0  0  0  0  0
  184.4460  178.5410  138.5230 C   0  0  0  0  0  0  0  0  0  0  0  0
  1  8  1  0  0  0  0
  1 13  1  0  0  0  0
  2 14  1  0  0  0  0
  2  8  2  0  0  0  0
  3  8  1  6  0  0  0
  3 18  1  0  0  0  0
  3 19  1  0  0  0  0
  4 10  1  0  0  0  0
  4 15  1  0  0  0  0
  5  6  2  0  0  0  0
  5 11  1  0  0  0  0
  6  2  1  0  0  0  0
  7 18  1  0  0  0  0
  7 17  2  0  0  0  0
  9 17  1  0  0  0  0
 11  1  2  0  0  0  0
 13 12  1  0  0  0  0
 16 15  1  1  0  0  0
 16 22  1  0  0  0  0
 17 10  1  0  0  0  0
 18  4  2  0  0  0  0
 19 12  1  6  0  0  0
 19 16  1  0  0  0  0
 20 21  1  0  0  0  0
 22 25  1  1  0  0  0
 22 24  1  0  0  0  0
 23 21  1  0  0  0  0
 24 26  1  0  0  0  0
 25 23  1  0  0  0  0
 26 20  1  0  0  0  0
 27  9  1  0  0  0  0
 28 27  2  0  0  0  0
 29 28  1  0  0  0  0
 30 31  1  0  0  0  0
 31 29  1  0  0  0  0
 32 34  2  0  0  0  0
 34 31  1  0  0  0  0
 34 33  1  0  0  0  0
M  END
>  <MODEL>
9

>  <REMARK>
 VINA RESULT:      -6.2      4.846      8.903
  Name = 
  4 active torsions:
  status: ('A' for Active; 'I' for Inactive)
    1  A    between atoms: N_3  and  C_17
    2  A    between atoms: C_12  and  C_28
    3  A    between atoms: C_13  and  C_33
    4  A    between atoms: N_14  and  C_33
                            x       y       z     vdW  Elec       q    Type
                         _______ _______ _______ _____ _____    ______ ____

>  <TORSDO>
F 4

$$$$
