=
 OpenBabel10272413303D

 32 36  0  0  1  0  0  0  0  0999 V2000
  188.8750  177.3170  146.9170 C   0  0  0  0  0  3  0  0  0  0  0  0
  186.3410  178.2850  142.3950 C   0  0  0  0  0  0  0  0  0  0  0  0
  181.7600  178.8220  143.9520 C   0  0  0  0  0  3  0  0  0  0  0  0
  181.3530  179.0480  142.6370 C   0  0  0  0  0  3  0  0  0  0  0  0
  188.1850  177.8010  143.8950 N   0  0  0  0  0  0  0  0  0  0  0  0
  185.8540  178.0750  144.7290 C   0  0  0  0  0  3  0  0  0  0  0  0
  187.5880  177.6030  146.2850 C   0  0  0  0  0  3  0  0  0  0  0  0
  183.1050  178.5750  144.2360 C   0  0  0  0  0  3  0  0  0  0  0  0
  185.4270  178.2990  143.4750 C   0  0  0  0  0  0  0  0  0  0  0  0
  184.0640  178.5510  143.2060 C   0  0  0  0  0  0  0  0  0  0  0  0
  184.5990  178.7630  140.8400 C   0  0  0  0  0  0  0  0  0  0  0  0
  190.3850  177.3160  144.9510 C   0  0  0  0  0  3  0  0  0  0  0  0
  187.2710  177.8110  145.0110 C   0  0  0  0  0  0  0  0  0  0  0  0
  189.5970  177.5720  143.9110 C   0  0  0  0  0  3  0  0  0  0  0  0
  190.0840  177.1880  146.3830 C   0  0  0  0  0  0  0  0  0  0  0  0
  182.2900  179.0280  141.6030 C   0  0  0  0  0  3  0  0  0  0  0  0
  183.6450  178.7840  141.8720 C   0  0  0  0  0  0  0  0  0  0  0  0
  187.6450  178.0500  142.5890 C   0  0  0  0  0  3  0  0  0  0  0  0
  185.9030  178.5140  141.1310 N   0  0  0  0  0  0  0  0  0  0  0  0
  192.1530  175.8860  147.1870 C   0  0  0  0  0  0  0  0  0  0  0  0
  191.1480  176.9030  147.3030 N   0  0  0  0  0  2  0  0  0  0  0  0
  192.1840  175.1060  146.1990 O   0  0  0  0  0  0  0  0  0  0  0  0
  193.1320  175.7560  148.2090 N   0  0  0  0  0  1  0  0  0  0  0  0
  184.2150  179.0220  139.4140 C   0  0  0  0  0  2  0  0  0  0  0  0
  185.3420  177.4890  137.7690 C   0  0  0  0  0  0  0  0  0  0  0  0
  183.3700  176.7050  138.5110 C   0  0  0  0  0  0  0  0  0  0  0  0
  183.7760  175.7830  137.6530 C   0  0  0  0  0  3  0  0  0  0  0  0
  185.1010  176.1870  137.0800 C   0  0  0  0  0  3  0  0  0  0  0  0
  182.0950  176.6270  139.2730 C   0  0  0  0  0  1  0  0  0  0  0  0
  184.3480  177.7740  138.5950 C   0  0  2  0  0  3  0  0  0  0  0  0
  186.4950  178.3200  137.5410 C   0  0  0  0  0  0  0  0  0  0  0  0
  187.4240  178.9860  137.3600 N   0  0  0  0  0  0  0  0  0  0  0  0
  2 18  2  0  0  0  0
  2  9  1  0  0  0  0
  3  8  1  0  0  0  0
  4  3  2  0  0  0  0
  5 14  1  0  0  0  0
  5 13  1  0  0  0  0
  6 13  1  0  0  0  0
  7  1  1  0  0  0  0
  9  6  2  0  0  0  0
 10  9  1  0  0  0  0
 10  8  2  0  0  0  0
 11 19  2  0  0  0  0
 11 17  1  0  0  0  0
 12 15  1  0  0  0  0
 13  7  2  0  0  0  0
 14 12  2  0  0  0  0
 15  1  2  0  0  0  0
 15 21  1  0  0  0  0
 16 17  2  0  0  0  0
 16  4  1  0  0  0  0
 17 10  1  0  0  0  0
 18  5  1  0  0  0  0
 19  2  1  0  0  0  0
 20 21  1  0  0  0  0
 20 23  1  0  0  0  0
 22 20  2  0  0  0  0
 24 11  1  0  0  0  0
 25 30  1  0  0  0  0
 26 30  1  0  0  0  0
 26 29  1  0  0  0  0
 27 26  2  0  0  0  0
 28 27  1  0  0  0  0
 28 25  2  0  0  0  0
 30 24  1  6  0  0  0
 31 25  1  0  0  0  0
 32 31  3  0  0  0  0
M  END
>  <MODEL>
1

>  <REMARK>
 VINA RESULT:     -10.5      0.000      0.000
  Name = 
  4 active torsions:
  status: ('A' for Active; 'I' for Inactive)
    1  A    between atoms: C_6  and  C_7
    2  A    between atoms: N_10  and  C_24
    3  A    between atoms: C_16  and  C_27
    4  A    between atoms: C_27  and  C_32
                            x       y       z     vdW  Elec       q    Type
                         _______ _______ _______ _____ _____    ______ ____

>  <TORSDO>
F 4

$$$$
=
 OpenBabel10272413303D

 32 36  0  0  1  0  0  0  0  0999 V2000
  188.7740  177.3710  146.8050 C   0  0  0  0  0  3  0  0  0  0  0  0
  186.3410  178.3320  142.2270 C   0  0  0  0  0  0  0  0  0  0  0  0
  181.7240  178.8550  143.6780 C   0  0  0  0  0  3  0  0  0  0  0  0
  181.3460  179.0800  142.3540 C   0  0  0  0  0  3  0  0  0  0  0  0
  188.1520  177.8530  143.7690 N   0  0  0  0  0  0  0  0  0  0  0  0
  185.8010  178.1200  144.5490 C   0  0  0  0  0  3  0  0  0  0  0  0
  187.5000  177.6530  146.1440 C   0  0  0  0  0  3  0  0  0  0  0  0
  183.0620  178.6110  143.9930 C   0  0  0  0  0  3  0  0  0  0  0  0
  185.4020  178.3430  143.2860 C   0  0  0  0  0  0  0  0  0  0  0  0
  184.0450  178.5910  142.9850 C   0  0  0  0  0  0  0  0  0  0  0  0
  184.6340  178.8050  140.6320 C   0  0  0  0  0  0  0  0  0  0  0  0
  190.3280  177.3750  144.8740 C   0  0  0  0  0  3  0  0  0  0  0  0
  187.2120  177.8600  144.8630 C   0  0  0  0  0  0  0  0  0  0  0  0
  189.5640  177.6290  143.8170 C   0  0  0  0  0  3  0  0  0  0  0  0
  189.9950  177.2450  146.2990 C   0  0  0  0  0  0  0  0  0  0  0  0
  182.3070  179.0630  141.3420 C   0  0  0  0  0  3  0  0  0  0  0  0
  183.6560  178.8230  141.6420 C   0  0  0  0  0  0  0  0  0  0  0  0
  187.6410  178.1010  142.4510 C   0  0  0  0  0  3  0  0  0  0  0  0
  185.9310  178.5610  140.9520 N   0  0  0  0  0  0  0  0  0  0  0  0
  192.0810  175.9860  147.1250 C   0  0  0  0  0  0  0  0  0  0  0  0
  191.0380  176.9630  147.2430 N   0  0  0  0  0  2  0  0  0  0  0  0
  192.1710  175.2440  146.1120 O   0  0  0  0  0  0  0  0  0  0  0  0
  193.0310  175.8520  148.1730 N   0  0  0  0  0  1  0  0  0  0  0  0
  184.2820  179.0630  139.1980 C   0  0  0  0  0  2  0  0  0  0  0  0
  183.7500  176.8280  138.1750 C   0  0  0  0  0  0  0  0  0  0  0  0
  185.8090  177.5730  137.6660 C   0  0  0  0  0  0  0  0  0  0  0  0
  185.7400  176.3960  137.0660 C   0  0  0  0  0  3  0  0  0  0  0  0
  184.3960  175.7840  137.3270 C   0  0  0  0  0  3  0  0  0  0  0  0
  187.0000  178.4630  137.6150 C   0  0  0  0  0  1  0  0  0  0  0  0
  184.5640  177.8550  138.3580 C   0  0  2  0  0  3  0  0  0  0  0  0
  182.4260  176.7110  138.7280 C   0  0  0  0  0  0  0  0  0  0  0  0
  181.3610  176.6170  139.1710 N   0  0  0  0  0  0  0  0  0  0  0  0
  2 18  2  0  0  0  0
  2  9  1  0  0  0  0
  3  8  1  0  0  0  0
  4  3  2  0  0  0  0
  5 14  1  0  0  0  0
  5 13  1  0  0  0  0
  6 13  1  0  0  0  0
  7  1  1  0  0  0  0
  9  6  2  0  0  0  0
 10  9  1  0  0  0  0
 10  8  2  0  0  0  0
 11 19  2  0  0  0  0
 11 17  1  0  0  0  0
 12 15  1  0  0  0  0
 13  7  2  0  0  0  0
 14 12  2  0  0  0  0
 15  1  2  0  0  0  0
 15 21  1  0  0  0  0
 16 17  2  0  0  0  0
 16  4  1  0  0  0  0
 17 10  1  0  0  0  0
 18  5  1  0  0  0  0
 19  2  1  0  0  0  0
 20 21  1  0  0  0  0
 20 23  1  0  0  0  0
 22 20  2  0  0  0  0
 24 11  1  0  0  0  0
 25 30  1  0  0  0  0
 25 31  1  0  0  0  0
 26 30  1  0  0  0  0
 27 28  1  0  0  0  0
 27 26  2  0  0  0  0
 28 25  2  0  0  0  0
 29 26  1  0  0  0  0
 30 24  1  1  0  0  0
 31 32  3  0  0  0  0
M  END
>  <MODEL>
2

>  <REMARK>
 VINA RESULT:      -9.9      0.988      1.881
  Name = 
  4 active torsions:
  status: ('A' for Active; 'I' for Inactive)
    1  A    between atoms: C_6  and  C_7
    2  A    between atoms: N_10  and  C_24
    3  A    between atoms: C_16  and  C_27
    4  A    between atoms: C_27  and  C_32
                            x       y       z     vdW  Elec       q    Type
                         _______ _______ _______ _____ _____    ______ ____

>  <TORSDO>
F 4

$$$$
=
 OpenBabel10272413303D

 32 36  0  0  0  0  0  0  0  0999 V2000
  191.7920  176.8400  144.1840 C   0  0  0  0  0  3  0  0  0  0  0  0
  188.5630  177.8290  140.1340 C   0  0  0  0  0  0  0  0  0  0  0  0
  191.2270  176.2670  136.3720 C   0  0  0  0  0  3  0  0  0  0  0  0
  190.1950  176.6310  135.5060 C   0  0  0  0  0  3  0  0  0  0  0  0
  189.3500  177.7270  142.4270 N   0  0  0  0  0  0  0  0  0  0  0  0
  190.7400  176.9130  140.5260 C   0  0  0  0  0  3  0  0  0  0  0  0
  191.6060  176.7670  142.7360 C   0  0  0  0  0  3  0  0  0  0  0  0
  191.0910  176.4680  137.7470 C   0  0  0  0  0  3  0  0  0  0  0  0
  189.7660  177.2500  139.6640 C   0  0  0  0  0  0  0  0  0  0  0  0
  189.9180  177.0360  138.2770 C   0  0  0  0  0  0  0  0  0  0  0  0
  187.6970  177.9680  137.9180 C   0  0  0  0  0  0  0  0  0  0  0  0
  189.6460  177.8590  144.8940 C   0  0  0  0  0  3  0  0  0  0  0  0
  190.5830  177.1360  141.9700 C   0  0  0  0  0  0  0  0  0  0  0  0
  188.9620  178.0400  143.7680 C   0  0  0  0  0  3  0  0  0  0  0  0
  190.9820  177.2960  145.1320 C   0  0  0  0  0  0  0  0  0  0  0  0
  189.0250  177.1960  136.0140 C   0  0  0  0  0  3  0  0  0  0  0  0
  188.8720  177.4020  137.3940 C   0  0  0  0  0  0  0  0  0  0  0  0
  188.3620  178.0560  141.4390 C   0  0  0  0  0  3  0  0  0  0  0  0
  187.5820  178.1640  139.2570 N   0  0  0  0  0  0  0  0  0  0  0  0
  192.1470  176.1090  147.0950 C   0  0  0  0  0  0  0  0  0  0  0  0
  191.4840  177.2190  146.4750 N   0  0  0  0  0  2  0  0  0  0  0  0
  192.3570  175.0380  146.4680 O   0  0  0  0  0  0  0  0  0  0  0  0
  192.5740  176.2210  148.4460 N   0  0  0  0  0  1  0  0  0  0  0  0
  186.5520  178.3550  137.0320 C   0  0  0  0  0  2  0  0  0  0  0  0
  184.3210  177.9470  138.1180 C   0  0  0  0  0  0  0  0  0  0  0  0
  185.0910  176.1740  136.9710 C   0  0  0  0  0  0  0  0  0  0  0  0
  183.9440  175.7500  137.4770 C   0  0  0  0  0  3  0  0  0  0  0  0
  183.3160  176.8540  138.2740 C   0  0  0  0  0  2  0  0  0  0  0  0
  185.9810  175.3400  136.1190 C   0  0  0  0  0  1  0  0  0  0  0  0
  185.3320  177.5500  137.3620 C   0  0  0  0  0  0  0  0  0  0  0  0
  184.2010  179.2440  138.7300 C   0  0  0  0  0  0  0  0  0  0  0  0
  184.1070  180.2880  139.2210 N   0  0  0  0  0  0  0  0  0  0  0  0
  1 15  2  0  0  0  0
  2 18  2  0  0  0  0
  3  8  1  0  0  0  0
  4 16  1  0  0  0  0
  4  3  2  0  0  0  0
  5 14  1  0  0  0  0
  6 13  1  0  0  0  0
  7  1  1  0  0  0  0
  8 10  2  0  0  0  0
  9  2  1  0  0  0  0
  9  6  2  0  0  0  0
 10  9  1  0  0  0  0
 11 19  2  0  0  0  0
 12 15  1  0  0  0  0
 13  5  1  0  0  0  0
 13  7  2  0  0  0  0
 14 12  2  0  0  0  0
 15 21  1  0  0  0  0
 16 17  2  0  0  0  0
 17 11  1  0  0  0  0
 17 10  1  0  0  0  0
 18  5  1  0  0  0  0
 19  2  1  0  0  0  0
 20 23  1  0  0  0  0
 21 20  1  0  0  0  0
 22 20  2  0  0  0  0
 24 30  1  0  0  0  0
 24 11  1  0  0  0  0
 25 28  1  0  0  0  0
 25 31  1  0  0  0  0
 26 30  1  0  0  0  0
 26 27  2  0  0  0  0
 27 28  1  0  0  0  0
 29 26  1  0  0  0  0
 30 25  2  0  0  0  0
 31 32  3  0  0  0  0
M  END
>  <MODEL>
3

>  <REMARK>
 VINA RESULT:      -8.9      2.534      5.171
  Name = 
  4 active torsions:
  status: ('A' for Active; 'I' for Inactive)
    1  A    between atoms: C_6  and  C_7
    2  A    between atoms: N_10  and  C_24
    3  A    between atoms: C_16  and  C_27
    4  A    between atoms: C_27  and  C_32
                            x       y       z     vdW  Elec       q    Type
                         _______ _______ _______ _____ _____    ______ ____

>  <TORSDO>
F 4

$$$$
=
 OpenBabel10272413303D

 32 36  0  0  0  0  0  0  0  0999 V2000
  191.8380  176.8440  144.2580 C   0  0  0  0  0  3  0  0  0  0  0  0
  188.4800  177.8630  140.3230 C   0  0  0  0  0  0  0  0  0  0  0  0
  191.0300  176.3500  136.4620 C   0  0  0  0  0  3  0  0  0  0  0  0
  189.9700  176.7190  135.6330 C   0  0  0  0  0  3  0  0  0  0  0  0
  189.3390  177.7400  142.5880 N   0  0  0  0  0  0  0  0  0  0  0  0
  190.6710  176.9510  140.6360 C   0  0  0  0  0  3  0  0  0  0  0  0
  191.6070  176.7860  142.8160 C   0  0  0  0  0  3  0  0  0  0  0  0
  190.9360  176.5360  137.8420 C   0  0  0  0  0  3  0  0  0  0  0  0
  189.6690  177.2930  139.8090 C   0  0  0  0  0  0  0  0  0  0  0  0
  189.7780  177.0940  138.4150 C   0  0  0  0  0  0  0  0  0  0  0  0
  187.5440  178.0220  138.1360 C   0  0  0  0  0  0  0  0  0  0  0  0
  189.7130  177.8480  145.0460 C   0  0  0  0  0  3  0  0  0  0  0  0
  190.5600  177.1580  142.0860 C   0  0  0  0  0  0  0  0  0  0  0  0
  188.9930  178.0370  143.9440 C   0  0  0  0  0  3  0  0  0  0  0  0
  191.0570  177.2880  145.2360 C   0  0  0  0  0  0  0  0  0  0  0  0
  188.8140  177.2740  136.1840 C   0  0  0  0  0  3  0  0  0  0  0  0
  188.7040  177.4650  137.5690 C   0  0  0  0  0  0  0  0  0  0  0  0
  188.3200  178.0750  141.6350 C   0  0  0  0  0  3  0  0  0  0  0  0
  187.4700  178.2030  139.4810 N   0  0  0  0  0  0  0  0  0  0  0  0
  192.2260  176.0620  147.1730 C   0  0  0  0  0  0  0  0  0  0  0  0
  191.6010  177.1980  146.5610 N   0  0  0  0  0  2  0  0  0  0  0  0
  192.3570  174.9740  146.5520 O   0  0  0  0  0  0  0  0  0  0  0  0
  192.7060  176.1650  148.5060 N   0  0  0  0  0  1  0  0  0  0  0  0
  186.3700  178.4130  137.2910 C   0  0  0  0  0  2  0  0  0  0  0  0
  184.7840  176.4620  137.3320 C   0  0  0  0  0  0  0  0  0  0  0  0
  184.0890  178.2010  138.5740 C   0  0  0  0  0  0  0  0  0  0  0  0
  183.1200  177.3090  138.7060 C   0  0  0  0  0  3  0  0  0  0  0  0
  183.4660  176.0820  137.9180 C   0  0  0  0  0  2  0  0  0  0  0  0
  184.0810  179.5380  139.2260 C   0  0  0  0  0  1  0  0  0  0  0  0
  185.1380  177.6760  137.7210 C   0  0  0  0  0  0  0  0  0  0  0  0
  185.5470  175.6180  136.4500 C   0  0  0  0  0  0  0  0  0  0  0  0
  186.1590  174.9390  135.7390 N   0  0  0  0  0  0  0  0  0  0  0  0
  1 15  2  0  0  0  0
  2 18  2  0  0  0  0
  3  8  1  0  0  0  0
  4 16  1  0  0  0  0
  4  3  2  0  0  0  0
  5 14  1  0  0  0  0
  6 13  1  0  0  0  0
  7  1  1  0  0  0  0
  8 10  2  0  0  0  0
  9  2  1  0  0  0  0
  9  6  2  0  0  0  0
 10  9  1  0  0  0  0
 11 19  2  0  0  0  0
 12 15  1  0  0  0  0
 13  5  1  0  0  0  0
 13  7  2  0  0  0  0
 14 12  2  0  0  0  0
 15 21  1  0  0  0  0
 16 17  2  0  0  0  0
 17 11  1  0  0  0  0
 17 10  1  0  0  0  0
 18  5  1  0  0  0  0
 19  2  1  0  0  0  0
 20 23  1  0  0  0  0
 21 20  1  0  0  0  0
 22 20  2  0  0  0  0
 24 30  1  0  0  0  0
 24 11  1  0  0  0  0
 25 30  2  0  0  0  0
 25 28  1  0  0  0  0
 26 27  2  0  0  0  0
 26 29  1  0  0  0  0
 28 27  1  0  0  0  0
 30 26  1  0  0  0  0
 31 25  1  0  0  0  0
 32 31  3  0  0  0  0
M  END
>  <MODEL>
4

>  <REMARK>
 VINA RESULT:      -8.6      2.348      5.017
  Name = 
  4 active torsions:
  status: ('A' for Active; 'I' for Inactive)
    1  A    between atoms: C_6  and  C_7
    2  A    between atoms: N_10  and  C_24
    3  A    between atoms: C_16  and  C_27
    4  A    between atoms: C_27  and  C_32
                            x       y       z     vdW  Elec       q    Type
                         _______ _______ _______ _____ _____    ______ ____

>  <TORSDO>
F 4

$$$$
=
 OpenBabel10272413303D

 32 36  0  0  0  0  0  0  0  0999 V2000
  182.8110  178.5610  141.0200 C   0  0  0  0  0  3  0  0  0  0  0  0
  187.6370  178.3120  143.1310 C   0  0  0  0  0  0  0  0  0  0  0  0
  186.5960  177.7700  147.8560 C   0  0  0  0  0  3  0  0  0  0  0  0
  187.9620  177.7380  148.1400 C   0  0  0  0  0  3  0  0  0  0  0  0
  185.9210  178.5120  141.4280 N   0  0  0  0  0  0  0  0  0  0  0  0
  185.3510  178.2310  143.8370 C   0  0  0  0  0  3  0  0  0  0  0  0
  183.5920  178.4170  142.2480 C   0  0  0  0  0  3  0  0  0  0  0  0
  186.1590  177.9190  146.5380 C   0  0  0  0  0  3  0  0  0  0  0  0
  186.6570  178.1940  144.1460 C   0  0  0  0  0  0  0  0  0  0  0  0
  187.0830  178.0380  145.4840 C   0  0  0  0  0  0  0  0  0  0  0  0
  189.3970  178.1200  144.7270 C   0  0  0  0  0  0  0  0  0  0  0  0
  184.6110  178.7580  139.3270 C   0  0  0  0  0  3  0  0  0  0  0  0
  184.9060  178.3940  142.4470 C   0  0  0  0  0  0  0  0  0  0  0  0
  185.7440  178.6770  140.0180 C   0  0  0  0  0  3  0  0  0  0  0  0
  183.2090  178.7080  139.7620 C   0  0  0  0  0  0  0  0  0  0  0  0
  188.8930  177.8550  147.1070 C   0  0  0  0  0  3  0  0  0  0  0  0
  188.4690  178.0030  145.7770 C   0  0  0  0  0  0  0  0  0  0  0  0
  187.2930  178.4630  141.8460 C   0  0  0  0  0  3  0  0  0  0  0  0
  188.9560  178.2710  143.4510 N   0  0  0  0  0  0  0  0  0  0  0  0
  181.6670  180.0220  138.1760 C   0  0  0  0  0  0  0  0  0  0  0  0
  182.1640  178.8220  138.7840 N   0  0  0  0  0  2  0  0  0  0  0  0
  182.1390  181.1500  138.4710 O   0  0  0  0  0  0  0  0  0  0  0  0
  180.6180  179.9340  137.2200 N   0  0  0  0  0  1  0  0  0  0  0  0
  190.8730  178.0690  144.9780 C   0  0  0  0  0  2  0  0  0  0  0  0
  191.8720  175.9880  145.9770 C   0  0  0  0  0  0  0  0  0  0  0  0
  191.4460  175.8040  143.7780 C   0  0  0  0  0  0  0  0  0  0  0  0
  191.9820  174.6370  144.0960 C   0  0  0  0  0  3  0  0  0  0  0  0
  192.3140  174.6260  145.5580 C   0  0  0  0  0  2  0  0  0  0  0  0
  190.9900  176.1630  142.4080 C   0  0  0  0  0  1  0  0  0  0  0  0
  191.3670  176.6540  144.9510 C   0  0  0  0  0  0  0  0  0  0  0  0
  192.0010  176.5000  147.3160 C   0  0  0  0  0  0  0  0  0  0  0  0
  192.1070  176.9130  148.3920 N   0  0  0  0  0  0  0  0  0  0  0  0
  1  7  1  0  0  0  0
  2 19  1  0  0  0  0
  2  9  1  0  0  0  0
  3  4  1  0  0  0  0
  5 18  1  0  0  0  0
  5 13  1  0  0  0  0
  6  9  2  0  0  0  0
  7 13  2  0  0  0  0
  8  3  2  0  0  0  0
  9 10  1  0  0  0  0
 10 17  2  0  0  0  0
 10  8  1  0  0  0  0
 11 24  1  0  0  0  0
 11 17  1  0  0  0  0
 12 15  1  0  0  0  0
 12 14  2  0  0  0  0
 13  6  1  0  0  0  0
 14  5  1  0  0  0  0
 15  1  2  0  0  0  0
 16  4  2  0  0  0  0
 17 16  1  0  0  0  0
 18  2  2  0  0  0  0
 19 11  2  0  0  0  0
 20 22  2  0  0  0  0
 20 21  1  0  0  0  0
 21 15  1  0  0  0  0
 23 20  1  0  0  0  0
 25 31  1  0  0  0  0
 26 27  2  0  0  0  0
 26 30  1  0  0  0  0
 27 28  1  0  0  0  0
 28 25  1  0  0  0  0
 29 26  1  0  0  0  0
 30 24  1  0  0  0  0
 30 25  2  0  0  0  0
 31 32  3  0  0  0  0
M  END
>  <MODEL>
5

>  <REMARK>
 VINA RESULT:      -8.6      3.179      8.792
  Name = 
  4 active torsions:
  status: ('A' for Active; 'I' for Inactive)
    1  A    between atoms: C_6  and  C_7
    2  A    between atoms: N_10  and  C_24
    3  A    between atoms: C_16  and  C_27
    4  A    between atoms: C_27  and  C_32
                            x       y       z     vdW  Elec       q    Type
                         _______ _______ _______ _____ _____    ______ ____

>  <TORSDO>
F 4

$$$$
=
 OpenBabel10272413303D

 32 36  0  0  1  0  0  0  0  0999 V2000
  183.0100  178.4930  140.9790 C   0  0  0  0  0  3  0  0  0  0  0  0
  187.8110  178.2810  143.1490 C   0  0  0  0  0  0  0  0  0  0  0  0
  186.7180  177.8020  147.8680 C   0  0  0  0  0  3  0  0  0  0  0  0
  188.0800  177.7760  148.1690 C   0  0  0  0  0  3  0  0  0  0  0  0
  186.1150  178.4550  141.4230 N   0  0  0  0  0  0  0  0  0  0  0  0
  185.5170  178.2050  143.8290 C   0  0  0  0  0  3  0  0  0  0  0  0
  183.7770  178.3670  142.2180 C   0  0  0  0  0  3  0  0  0  0  0  0
  186.2950  177.9320  146.5440 C   0  0  0  0  0  3  0  0  0  0  0  0
  186.8200  178.1750  144.1540 C   0  0  0  0  0  0  0  0  0  0  0  0
  187.2310  178.0380  145.4980 C   0  0  0  0  0  0  0  0  0  0  0  0
  189.5530  178.1130  144.7680 C   0  0  0  0  0  0  0  0  0  0  0  0
  184.8290  178.6700  139.3050 C   0  0  0  0  0  3  0  0  0  0  0  0
  185.0890  178.3490  142.4320 C   0  0  0  0  0  0  0  0  0  0  0  0
  185.9540  178.6000  140.0090 C   0  0  0  0  0  3  0  0  0  0  0  0
  183.4220  178.6240  139.7240 C   0  0  0  0  0  0  0  0  0  0  0  0
  189.0220  177.8800  147.1440 C   0  0  0  0  0  3  0  0  0  0  0  0
  188.6140  178.0090  145.8080 C   0  0  0  0  0  0  0  0  0  0  0  0
  187.4820  178.4130  141.8570 C   0  0  0  0  0  3  0  0  0  0  0  0
  189.1270  178.2470  143.4850 N   0  0  0  0  0  0  0  0  0  0  0  0
  181.8430  179.9180  138.1580 C   0  0  0  0  0  0  0  0  0  0  0  0
  182.3880  178.7230  138.7330 N   0  0  0  0  0  2  0  0  0  0  0  0
  182.2560  181.0570  138.5010 O   0  0  0  0  0  0  0  0  0  0  0  0
  180.8150  179.8150  137.1820 N   0  0  0  0  0  1  0  0  0  0  0  0
  191.0270  178.0680  145.0360 C   0  0  0  0  0  2  0  0  0  0  0  0
  191.5850  175.8280  144.0410 C   0  0  0  0  0  0  0  0  0  0  0  0
  191.9200  175.9240  146.2620 C   0  0  0  0  0  0  0  0  0  0  0  0
  192.2400  174.6790  145.9460 C   0  0  0  0  0  3  0  0  0  0  0  0
  192.0620  174.4800  144.4710 C   0  0  0  0  0  3  0  0  0  0  0  0
  191.9840  176.4740  147.6430 C   0  0  0  0  0  1  0  0  0  0  0  0
  191.5150  176.6520  145.0730 C   0  0  2  0  0  3  0  0  0  0  0  0
  191.2350  176.1630  142.6860 C   0  0  0  0  0  0  0  0  0  0  0  0
  190.9520  176.4330  141.5960 N   0  0  0  0  0  0  0  0  0  0  0  0
  1  7  1  0  0  0  0
  2 19  1  0  0  0  0
  2  9  1  0  0  0  0
  3  4  1  0  0  0  0
  5 18  1  0  0  0  0
  5 13  1  0  0  0  0
  6  9  2  0  0  0  0
  7 13  2  0  0  0  0
  8  3  2  0  0  0  0
  9 10  1  0  0  0  0
 10 17  2  0  0  0  0
 10  8  1  0  0  0  0
 11 24  1  0  0  0  0
 11 17  1  0  0  0  0
 12 15  1  0  0  0  0
 12 14  2  0  0  0  0
 13  6  1  0  0  0  0
 14  5  1  0  0  0  0
 15  1  2  0  0  0  0
 16  4  2  0  0  0  0
 17 16  1  0  0  0  0
 18  2  2  0  0  0  0
 19 11  2  0  0  0  0
 20 22  2  0  0  0  0
 20 21  1  0  0  0  0
 21 15  1  0  0  0  0
 23 20  1  0  0  0  0
 25 28  2  0  0  0  0
 25 30  1  0  0  0  0
 26 29  1  0  0  0  0
 27 26  2  0  0  0  0
 28 27  1  0  0  0  0
 30 24  1  1  0  0  0
 30 26  1  0  0  0  0
 31 25  1  0  0  0  0
 32 31  3  0  0  0  0
M  END
>  <MODEL>
6

>  <REMARK>
 VINA RESULT:      -8.5      3.339      8.617
  Name = 
  4 active torsions:
  status: ('A' for Active; 'I' for Inactive)
    1  A    between atoms: C_6  and  C_7
    2  A    between atoms: N_10  and  C_24
    3  A    between atoms: C_16  and  C_27
    4  A    between atoms: C_27  and  C_32
                            x       y       z     vdW  Elec       q    Type
                         _______ _______ _______ _____ _____    ______ ____

>  <TORSDO>
F 4

$$$$
=
 OpenBabel10272413303D

 32 36  0  0  1  0  0  0  0  0999 V2000
  189.6630  177.5490  145.7540 C   0  0  0  0  0  3  0  0  0  0  0  0
  188.5420  177.6990  140.6040 C   0  0  0  0  0  0  0  0  0  0  0  0
  183.8870  179.1190  140.6700 C   0  0  0  0  0  3  0  0  0  0  0  0
  183.8650  179.0710  139.2750 C   0  0  0  0  0  3  0  0  0  0  0  0
  189.8410  177.3760  142.6270 N   0  0  0  0  0  0  0  0  0  0  0  0
  187.4610  178.1090  142.6990 C   0  0  0  0  0  3  0  0  0  0  0  0
  188.6440  177.8230  144.7420 C   0  0  0  0  0  3  0  0  0  0  0  0
  185.0530  178.7930  141.3630 C   0  0  0  0  0  3  0  0  0  0  0  0
  187.4050  178.0760  141.3580 C   0  0  0  0  0  0  0  0  0  0  0  0
  186.2180  178.4130  140.6710 C   0  0  0  0  0  0  0  0  0  0  0  0
  187.3540  177.9910  138.5580 C   0  0  0  0  0  0  0  0  0  0  0  0
  191.5890  176.9040  144.3330 C   0  0  0  0  0  3  0  0  0  0  0  0
  188.6950  177.7570  143.4150 C   0  0  0  0  0  0  0  0  0  0  0  0
  191.1420  176.9950  143.0840 C   0  0  0  0  0  3  0  0  0  0  0  0
  190.9240  177.1570  145.6180 C   0  0  0  0  0  0  0  0  0  0  0  0
  185.0110  178.6970  138.5730 C   0  0  0  0  0  3  0  0  0  0  0  0
  186.1920  178.3680  139.2550 C   0  0  0  0  0  0  0  0  0  0  0  0
  189.6950  177.3670  141.1990 C   0  0  0  0  0  3  0  0  0  0  0  0
  188.4790  177.6700  139.2470 N   0  0  0  0  0  0  0  0  0  0  0  0
  192.4060  175.8230  147.2450 C   0  0  0  0  0  0  0  0  0  0  0  0
  191.6590  176.9770  146.8380 N   0  0  0  0  0  2  0  0  0  0  0  0
  192.4810  174.8010  146.5140 O   0  0  0  0  0  0  0  0  0  0  0  0
  193.0720  175.8320  148.5000 N   0  0  0  0  0  1  0  0  0  0  0  0
  187.3880  177.9460  137.0610 C   0  0  0  0  0  2  0  0  0  0  0  0
  186.8420  175.5750  136.4260 C   0  0  0  0  0  0  0  0  0  0  0  0
  189.0330  176.0550  136.2770 C   0  0  0  0  0  0  0  0  0  0  0  0
  188.9640  174.7780  135.9350 C   0  0  0  0  0  3  0  0  0  0  0  0
  187.5360  174.3270  135.9900 C   0  0  0  0  0  3  0  0  0  0  0  0
  190.3000  176.8340  136.3270 C   0  0  0  0  0  1  0  0  0  0  0  0
  187.7080  176.5640  136.5800 C   0  0  2  0  0  3  0  0  0  0  0  0
  185.4250  175.6680  136.6610 C   0  0  0  0  0  0  0  0  0  0  0  0
  184.2860  175.7450  136.8510 N   0  0  0  0  0  0  0  0  0  0  0  0
  2 18  2  0  0  0  0
  2  9  1  0  0  0  0
  3  8  1  0  0  0  0
  4  3  2  0  0  0  0
  5 14  1  0  0  0  0
  5 13  1  0  0  0  0
  6 13  1  0  0  0  0
  7  1  1  0  0  0  0
  9  6  2  0  0  0  0
 10  9  1  0  0  0  0
 10  8  2  0  0  0  0
 11 19  2  0  0  0  0
 11 17  1  0  0  0  0
 12 15  1  0  0  0  0
 13  7  2  0  0  0  0
 14 12  2  0  0  0  0
 15  1  2  0  0  0  0
 15 21  1  0  0  0  0
 16 17  2  0  0  0  0
 16  4  1  0  0  0  0
 17 10  1  0  0  0  0
 18  5  1  0  0  0  0
 19  2  1  0  0  0  0
 20 23  1  0  0  0  0
 21 20  1  0  0  0  0
 22 20  2  0  0  0  0
 24 11  1  0  0  0  0
 25 30  1  0  0  0  0
 25 31  1  0  0  0  0
 26 29  1  0  0  0  0
 26 30  1  0  0  0  0
 27 28  1  0  0  0  0
 27 26  2  0  0  0  0
 28 25  2  0  0  0  0
 30 24  1  1  0  0  0
 31 32  3  0  0  0  0
M  END
>  <MODEL>
7

>  <REMARK>
 VINA RESULT:      -8.3      2.066      3.486
  Name = 
  4 active torsions:
  status: ('A' for Active; 'I' for Inactive)
    1  A    between atoms: C_6  and  C_7
    2  A    between atoms: N_10  and  C_24
    3  A    between atoms: C_16  and  C_27
    4  A    between atoms: C_27  and  C_32
                            x       y       z     vdW  Elec       q    Type
                         _______ _______ _______ _____ _____    ______ ____

>  <TORSDO>
F 4

$$$$
=
 OpenBabel10272413303D

 32 36  0  0  0  0  0  0  0  0999 V2000
  193.5000  177.0340  139.4640 C   0  0  0  0  0  3  0  0  0  0  0  0
  189.1330  176.9260  142.4170 C   0  0  0  0  0  0  0  0  0  0  0  0
  190.9880  177.3420  146.8990 C   0  0  0  0  0  3  0  0  0  0  0  0
  189.6970  177.2850  147.4250 C   0  0  0  0  0  3  0  0  0  0  0  0
  190.5180  176.8900  140.4260 N   0  0  0  0  0  0  0  0  0  0  0  0
  191.5030  177.1100  142.7040 C   0  0  0  0  0  3  0  0  0  0  0  0
  192.9500  177.0850  140.8180 C   0  0  0  0  0  3  0  0  0  0  0  0
  191.1850  177.2690  145.5180 C   0  0  0  0  0  3  0  0  0  0  0  0
  190.2740  177.0600  143.2450 C   0  0  0  0  0  0  0  0  0  0  0  0
  190.0910  177.1390  144.6420 C   0  0  0  0  0  0  0  0  0  0  0  0
  187.6860  176.9550  144.3110 C   0  0  0  0  0  0  0  0  0  0  0  0
  191.4340  176.8000  138.1140 C   0  0  0  0  0  3  0  0  0  0  0  0
  191.6940  177.0260  141.2500 C   0  0  0  0  0  0  0  0  0  0  0  0
  190.4430  176.7900  139.0010 C   0  0  0  0  0  3  0  0  0  0  0  0
  192.8880  176.9140  138.2920 C   0  0  0  0  0  0  0  0  0  0  0  0
  188.6010  177.1560  146.5710 C   0  0  0  0  0  3  0  0  0  0  0  0
  188.7820  177.0840  145.1810 C   0  0  0  0  0  0  0  0  0  0  0  0
  189.2440  176.8450  141.0850 C   0  0  0  0  0  3  0  0  0  0  0  0
  187.8940  176.8790  142.9710 N   0  0  0  0  0  0  0  0  0  0  0  0
  194.2500  175.7480  136.4460 C   0  0  0  0  0  0  0  0  0  0  0  0
  193.7420  176.8970  137.1380 N   0  0  0  0  0  2  0  0  0  0  0  0
  193.9690  174.5800  136.8210 O   0  0  0  0  0  0  0  0  0  0  0  0
  195.0890  175.9340  135.3140 N   0  0  0  0  0  1  0  0  0  0  0  0
  186.2790  176.9120  144.8250 C   0  0  0  0  0  2  0  0  0  0  0  0
  185.2800  179.1640  145.3280 C   0  0  0  0  0  0  0  0  0  0  0  0
  184.9590  178.5020  143.2040 C   0  0  0  0  0  0  0  0  0  0  0  0
  184.3460  179.6730  143.2680 C   0  0  0  0  0  3  0  0  0  0  0  0
  184.4890  180.2340  144.6510 C   0  0  0  0  0  2  0  0  0  0  0  0
  185.0240  177.6640  141.9770 C   0  0  0  0  0  1  0  0  0  0  0  0
  185.5530  178.1790  144.4890 C   0  0  0  0  0  0  0  0  0  0  0  0
  185.6690  179.2060  146.7140 C   0  0  0  0  0  0  0  0  0  0  0  0
  185.9820  179.2410  147.8280 N   0  0  0  0  0  0  0  0  0  0  0  0
  1  7  1  0  0  0  0
  2 19  1  0  0  0  0
  2  9  1  0  0  0  0
  3  4  1  0  0  0  0
  5 18  1  0  0  0  0
  5 13  1  0  0  0  0
  6  9  2  0  0  0  0
  7 13  2  0  0  0  0
  8  3  2  0  0  0  0
  9 10  1  0  0  0  0
 10 17  2  0  0  0  0
 10  8  1  0  0  0  0
 11 24  1  0  0  0  0
 11 17  1  0  0  0  0
 12 15  1  0  0  0  0
 12 14  2  0  0  0  0
 13  6  1  0  0  0  0
 14  5  1  0  0  0  0
 15  1  2  0  0  0  0
 16  4  2  0  0  0  0
 17 16  1  0  0  0  0
 18  2  2  0  0  0  0
 19 11  2  0  0  0  0
 20 22  2  0  0  0  0
 20 21  1  0  0  0  0
 21 15  1  0  0  0  0
 23 20  1  0  0  0  0
 25 31  1  0  0  0  0
 26 27  2  0  0  0  0
 26 30  1  0  0  0  0
 27 28  1  0  0  0  0
 28 25  1  0  0  0  0
 29 26  1  0  0  0  0
 30 24  1  0  0  0  0
 30 25  2  0  0  0  0
 31 32  3  0  0  0  0
M  END
>  <MODEL>
8

>  <REMARK>
 VINA RESULT:      -8.2      4.020      7.595
  Name = 
  4 active torsions:
  status: ('A' for Active; 'I' for Inactive)
    1  A    between atoms: C_6  and  C_7
    2  A    between atoms: N_10  and  C_24
    3  A    between atoms: C_16  and  C_27
    4  A    between atoms: C_27  and  C_32
                            x       y       z     vdW  Elec       q    Type
                         _______ _______ _______ _____ _____    ______ ____

>  <TORSDO>
F 4

$$$$
=
 OpenBabel10272413303D

 32 36  0  0  1  0  0  0  0  0999 V2000
  190.9370  177.2840  140.7340 C   0  0  0  0  0  3  0  0  0  0  0  0
  185.7860  178.3920  140.5130 C   0  0  0  0  0  0  0  0  0  0  0  0
  184.6490  178.6430  145.2390 C   0  0  0  0  0  3  0  0  0  0  0  0
  183.3270  178.9240  144.8930 C   0  0  0  0  0  3  0  0  0  0  0  0
  188.0310  177.9050  139.7300 N   0  0  0  0  0  0  0  0  0  0  0  0
  187.4870  178.0310  142.1580 C   0  0  0  0  0  3  0  0  0  0  0  0
  189.7190  177.5480  141.4990 C   0  0  0  0  0  3  0  0  0  0  0  0
  185.6050  178.4380  144.2420 C   0  0  0  0  0  3  0  0  0  0  0  0
  186.2060  178.3060  141.8620 C   0  0  0  0  0  0  0  0  0  0  0  0
  185.2520  178.5140  142.8820 C   0  0  0  0  0  0  0  0  0  0  0  0
  183.5510  178.8800  141.1790 C   0  0  0  0  0  0  0  0  0  0  0  0
  190.0920  177.4580  138.4100 C   0  0  0  0  0  3  0  0  0  0  0  0
  188.4800  177.8140  141.0990 C   0  0  0  0  0  0  0  0  0  0  0  0
  188.7980  177.7370  138.5350 C   0  0  0  0  0  3  0  0  0  0  0  0
  191.1340  177.2370  139.4220 C   0  0  0  0  0  0  0  0  0  0  0  0
  182.9590  179.0020  143.5490 C   0  0  0  0  0  3  0  0  0  0  0  0
  183.9080  178.8020  142.5360 C   0  0  0  0  0  0  0  0  0  0  0  0
  186.6460  178.2030  139.5030 C   0  0  0  0  0  3  0  0  0  0  0  0
  184.4900  178.6730  140.2200 N   0  0  0  0  0  0  0  0  0  0  0  0
  192.9230  175.8240  138.2300 C   0  0  0  0  0  0  0  0  0  0  0  0
  192.4740  176.9470  139.0000 N   0  0  0  0  0  2  0  0  0  0  0  0
  192.1200  174.9380  137.8360 O   0  0  0  0  0  0  0  0  0  0  0  0
  194.3020  175.7070  137.9070 N   0  0  0  0  0  1  0  0  0  0  0  0
  182.1490  179.2010  140.7560 C   0  0  0  0  0  2  0  0  0  0  0  0
  181.7430  179.5750  138.3020 C   0  0  0  0  0  0  0  0  0  0  0  0
  181.7460  177.4030  138.8840 C   0  0  0  0  0  0  0  0  0  0  0  0
  181.4940  177.3840  137.5850 C   0  0  0  0  0  3  0  0  0  0  0  0
  181.4670  178.7890  137.0640 C   0  0  0  0  0  3  0  0  0  0  0  0
  181.8500  176.1830  139.7290 C   0  0  0  0  0  1  0  0  0  0  0  0
  181.9110  178.7710  139.3410 C   0  0  2  0  0  3  0  0  0  0  0  0
  181.7980  181.0120  138.3490 C   0  0  0  0  0  0  0  0  0  0  0  0
  181.8400  182.1690  138.3840 N   0  0  0  0  0  0  0  0  0  0  0  0
  1  7  1  0  0  0  0
  2  9  1  0  0  0  0
  4  3  1  0  0  0  0
  5 13  1  0  0  0  0
  8  3  2  0  0  0  0
  9  6  2  0  0  0  0
  9 10  1  0  0  0  0
 10  8  1  0  0  0  0
 11 17  1  0  0  0  0
 12 14  2  0  0  0  0
 12 15  1  0  0  0  0
 13  7  2  0  0  0  0
 13  6  1  0  0  0  0
 14  5  1  0  0  0  0
 15  1  2  0  0  0  0
 16  4  2  0  0  0  0
 17 10  2  0  0  0  0
 17 16  1  0  0  0  0
 18  5  1  0  0  0  0
 18  2  2  0  0  0  0
 19  2  1  0  0  0  0
 19 11  2  0  0  0  0
 20 21  1  0  0  0  0
 21 15  1  0  0  0  0
 22 20  2  0  0  0  0
 23 20  1  0  0  0  0
 24 11  1  0  0  0  0
 25 31  1  0  0  0  0
 25 30  1  0  0  0  0
 26 30  1  0  0  0  0
 26 29  1  0  0  0  0
 27 26  2  0  0  0  0
 28 27  1  0  0  0  0
 28 25  2  0  0  0  0
 30 24  1  1  0  0  0
 31 32  3  0  0  0  0
M  END
>  <MODEL>
9

>  <REMARK>
 VINA RESULT:      -8.1      3.622      4.850
  Name = 
  4 active torsions:
  status: ('A' for Active; 'I' for Inactive)
    1  A    between atoms: C_6  and  C_7
    2  A    between atoms: N_10  and  C_24
    3  A    between atoms: C_16  and  C_27
    4  A    between atoms: C_27  and  C_32
                            x       y       z     vdW  Elec       q    Type
                         _______ _______ _______ _____ _____    ______ ____

>  <TORSDO>
F 4

$$$$
