=
 OpenBabel10272414493D

 37 41  0  0  1  0  0  0  0  0999 V2000
  184.6920  178.5040  139.3510 C   0  0  0  0  0  0  0  0  0  0  0  0
  183.8700  176.2250  136.6860 C   0  0  2  0  0  3  0  0  0  0  0  0
  182.7550  177.0430  138.9980 C   0  0  0  0  0  2  0  0  0  0  0  0
  184.4410  175.0640  137.5250 C   0  0  0  0  0  2  0  0  0  0  0  0
  184.3330  177.6090  137.1910 C   0  0  2  0  0  3  0  0  0  0  0  0
  183.6100  173.7830  137.4380 C   0  0  1  0  0  3  0  0  0  0  0  0
  180.5900  177.3890  137.8060 C   0  0  0  0  0  1  0  0  0  0  0  0
  185.8350  177.8430  137.3720 C   0  0  1  0  0  3  0  0  0  0  0  0
  184.4550  178.0880  140.6670 O   0  0  0  0  0  1  0  0  0  0  0  0
  181.4960  175.2480  134.5970 C   0  0  0  0  0  1  0  0  0  0  0  0
  181.7770  176.4580  137.9650 C   0  0  1  0  0  3  0  0  0  0  0  0
  186.0060  177.9230  138.8670 C   0  0  0  0  0  2  0  0  0  0  0  0
  182.3970  176.2190  136.6490 N   0  0  2  0  0  0  0  0  0  0  0  0
  183.6330  178.0750  138.4120 N   0  0  2  0  0  0  0  0  0  0  0  0
  182.7300  173.7430  136.1770 C   0  0  2  0  0  3  0  0  0  0  0  0
  184.7790  179.8970  139.3300 O   0  0  0  0  0  1  0  0  0  0  0  0
  181.8370  174.9950  136.0540 C   0  0  2  0  0  3  0  0  0  0  0  0
  180.7810  172.3880  136.9760 C   0  0  0  0  0  3  0  0  0  0  0  0
  181.8840  172.5020  136.1240 C   0  0  0  0  0  0  0  0  0  0  0  0
  182.1870  171.4580  135.2360 C   0  0  0  0  0  3  0  0  0  0  0  0
  181.6830  169.3060  134.3460 F   0  0  0  0  0  0  0  0  0  0  0  0
  180.2860  170.2030  136.0560 C   0  0  0  0  0  3  0  0  0  0  0  0
  181.3890  170.3110  135.2030 C   0  0  0  0  0  0  0  0  0  0  0  0
  179.9820  171.2400  136.9420 C   0  0  0  0  0  3  0  0  0  0  0  0
  187.8710  176.4140  137.6690 C   0  0  0  0  0  2  0  0  0  0  0  0
  189.0760  177.2770  137.3390 C   0  0  1  0  0  3  0  0  0  0  0  0
  187.5330  177.4880  135.5680 C   0  0  0  0  0  2  0  0  0  0  0  0
  188.7970  177.9930  136.0960 N   0  0  0  0  0  0  0  0  0  0  0  0
  186.7810  176.8320  136.7080 C   0  0  2  0  0  3  0  0  0  0  0  0
  189.3280  178.2780  138.4550 C   0  0  0  0  0  2  0  0  0  0  0  0
  189.0850  179.5740  137.9970 O   0  0  0  0  0  1  0  0  0  0  0  0
  189.8740  177.7790  135.1190 C   0  0  0  0  0  2  0  0  0  0  0  0
  190.3590  176.3580  135.0460 C   0  0  0  0  0  0  0  0  0  0  0  0
  189.5830  175.4490  134.6510 O   0  0  0  0  0  0  0  0  0  0  0  0
  191.6660  176.0480  135.3960 O   0  0  0  0  0  1  0  0  0  0  0  0
  184.5070  172.5830  137.5570 C   0  0  0  0  0  3  0  0  0  0  0  0
  185.8340  172.6970  137.6460 C   0  0  0  0  0  2  0  0  0  0  0  0
  1  9  1  0  0  0  0
  2  5  1  0  0  0  0
  2  4  1  1  0  0  0
  5  8  1  0  0  0  0
  5 14  1  0  0  0  0
  6  4  1  0  0  0  0
  6 36  1  0  0  0  0
  7 11  1  0  0  0  0
  8 12  1  0  0  0  0
 10 17  1  0  0  0  0
 11  3  1  0  0  0  0
 12  1  1  0  0  0  0
 13  2  1  0  0  0  0
 13 11  1  0  0  0  0
 14  3  1  0  0  0  0
 14  1  1  0  0  0  0
 15  6  1  0  0  0  0
 16  1  1  0  0  0  0
 17 15  1  0  0  0  0
 17 13  1  0  0  0  0
 19 15  1  0  0  0  0
 19 18  2  0  0  0  0
 20 19  1  0  0  0  0
 21 23  1  0  0  0  0
 22 24  2  0  0  0  0
 23 20  2  0  0  0  0
 23 22  1  0  0  0  0
 24 18  1  0  0  0  0
 26 25  1  0  0  0  0
 26 30  1  0  0  0  0
 27 28  1  0  0  0  0
 27 29  1  0  0  0  0
 28 26  1  0  0  0  0
 29  8  1  0  0  0  0
 29 25  1  0  0  0  0
 31 30  1  0  0  0  0
 32 28  1  0  0  0  0
 33 32  1  0  0  0  0
 33 35  1  0  0  0  0
 34 33  2  0  0  0  0
 36 37  2  0  0  0  0
M  END
>  <MODEL>
1

>  <REMARK>
 VINA RESULT:      -5.3      0.000      0.000
  Name = 
  6 active torsions:
  status: ('A' for Active; 'I' for Inactive)
    1  A    between atoms: C_5  and  C_12
    2  A    between atoms: C_6  and  C_31
    3  A    between atoms: C_7  and  C_14
    4  A    between atoms: C_11  and  C_26
    5  A    between atoms: C_20  and  C_36
    6  A    between atoms: C_26  and  N_33
                            x       y       z     vdW  Elec       q    Type
                         _______ _______ _______ _____ _____    ______ ____

>  <TORSDO>
F 6

$$$$
=
 OpenBabel10272414493D

 37 41  0  0  1  0  0  0  0  0999 V2000
  181.2520  179.9040  137.7320 C   0  0  0  0  0  0  0  0  0  0  0  0
  182.8610  176.6960  138.0220 C   0  0  2  0  0  3  0  0  0  0  0  0
  181.6030  178.1060  136.1030 C   0  0  0  0  0  2  0  0  0  0  0  0
  181.4840  176.0450  138.2630 C   0  0  0  0  0  2  0  0  0  0  0  0
  182.8420  178.2260  138.2300 C   0  0  2  0  0  3  0  0  0  0  0  0
  181.3140  174.7010  137.5550 C   0  0  1  0  0  3  0  0  0  0  0  0
  183.4810  177.6060  134.5360 C   0  0  0  0  0  1  0  0  0  0  0  0
  182.2820  178.7660  139.5490 C   0  0  1  0  0  3  0  0  0  0  0  0
  180.0430  179.9710  137.0270 O   0  0  0  0  0  1  0  0  0  0  0  0
  185.0310  174.6210  136.6300 C   0  0  0  0  0  1  0  0  0  0  0  0
  182.5690  177.0210  135.5980 C   0  0  1  0  0  3  0  0  0  0  0  0
  180.9870  179.4220  139.1440 C   0  0  0  0  0  2  0  0  0  0  0  0
  183.3830  176.4220  136.6720 N   0  0  2  0  0  0  0  0  0  0  0  0
  182.2290  178.9820  137.1120 N   0  0  2  0  0  0  0  0  0  0  0  0
  182.6630  174.0450  137.2140 C   0  0  2  0  0  3  0  0  0  0  0  0
  181.8080  181.1830  137.7880 O   0  0  0  0  0  1  0  0  0  0  0  0
  183.5760  174.9880  136.4040 C   0  0  2  0  0  3  0  0  0  0  0  0
  181.6160  172.6940  135.3840 C   0  0  0  0  0  3  0  0  0  0  0  0
  182.4840  172.7470  136.4790 C   0  0  0  0  0  0  0  0  0  0  0  0
  183.1720  171.5900  136.8770 C   0  0  0  0  0  3  0  0  0  0  0  0
  183.6550  169.2770  136.5680 F   0  0  0  0  0  0  0  0  0  0  0  0
  182.1230  170.3430  135.0860 C   0  0  0  0  0  3  0  0  0  0  0  0
  182.9910  170.3910  136.1810 C   0  0  0  0  0  0  0  0  0  0  0  0
  181.4350  171.4940  134.6870 C   0  0  0  0  0  3  0  0  0  0  0  0
  180.7010  177.7850  141.2270 C   0  0  0  0  0  2  0  0  0  0  0  0
  180.7240  178.6920  142.4460 C   0  0  1  0  0  3  0  0  0  0  0  0
  182.9580  178.1810  141.8860 C   0  0  0  0  0  2  0  0  0  0  0  0
  182.1180  178.9910  142.7650 N   0  0  0  0  0  0  0  0  0  0  0  0
  182.1170  177.7600  140.6980 C   0  0  2  0  0  3  0  0  0  0  0  0
  179.9820  179.9850  142.1530 C   0  0  0  0  0  2  0  0  0  0  0  0
  180.2400  180.9210  143.1560 O   0  0  0  0  0  1  0  0  0  0  0  0
  182.4080  178.6750  144.1710 C   0  0  0  0  0  2  0  0  0  0  0  0
  183.7380  179.1860  144.6500 C   0  0  0  0  0  0  0  0  0  0  0  0
  184.4370  179.9180  143.9020 O   0  0  0  0  0  0  0  0  0  0  0  0
  184.1900  178.8650  145.9240 O   0  0  0  0  0  1  0  0  0  0  0  0
  180.4230  173.8040  138.3690 C   0  0  0  0  0  3  0  0  0  0  0  0
  180.0760  174.1000  139.6240 C   0  0  0  0  0  2  0  0  0  0  0  0
  1 16  1  0  0  0  0
  1 12  1  0  0  0  0
  2  5  1  0  0  0  0
  2  4  1  6  0  0  0
  3 14  1  0  0  0  0
  5  8  1  0  0  0  0
  6  4  1  0  0  0  0
  6 36  1  0  0  0  0
  7 11  1  0  0  0  0
  8 29  1  0  0  0  0
  9  1  1  0  0  0  0
 11  3  1  0  0  0  0
 11 13  1  0  0  0  0
 12  8  1  0  0  0  0
 13  2  1  0  0  0  0
 14  1  1  0  0  0  0
 14  5  1  0  0  0  0
 15  6  1  0  0  0  0
 17 10  1  0  0  0  0
 17 13  1  0  0  0  0
 17 15  1  0  0  0  0
 18 19  1  0  0  0  0
 19 20  2  0  0  0  0
 19 15  1  0  0  0  0
 22 23  2  0  0  0  0
 23 21  1  0  0  0  0
 23 20  1  0  0  0  0
 24 22  1  0  0  0  0
 24 18  2  0  0  0  0
 25 26  1  0  0  0  0
 26 28  1  0  0  0  0
 27 28  1  0  0  0  0
 28 32  1  0  0  0  0
 29 25  1  0  0  0  0
 29 27  1  0  0  0  0
 30 26  1  0  0  0  0
 30 31  1  0  0  0  0
 32 33  1  0  0  0  0
 33 35  1  0  0  0  0
 34 33  2  0  0  0  0
 36 37  2  0  0  0  0
M  END
>  <MODEL>
2

>  <REMARK>
 VINA RESULT:      -5.1      4.018      6.240
  Name = 
  6 active torsions:
  status: ('A' for Active; 'I' for Inactive)
    1  A    between atoms: C_5  and  C_12
    2  A    between atoms: C_6  and  C_31
    3  A    between atoms: C_7  and  C_14
    4  A    between atoms: C_11  and  C_26
    5  A    between atoms: C_20  and  C_36
    6  A    between atoms: C_26  and  N_33
                            x       y       z     vdW  Elec       q    Type
                         _______ _______ _______ _____ _____    ______ ____

>  <TORSDO>
F 6

$$$$
=
 OpenBabel10272414493D

 37 41  0  0  1  0  0  0  0  0999 V2000
  188.5060  178.2570  138.7620 C   0  0  0  0  0  0  0  0  0  0  0  0
  186.8990  176.2030  136.2790 C   0  0  2  0  0  3  0  0  0  0  0  0
  186.2060  177.4290  138.5760 C   0  0  0  0  0  2  0  0  0  0  0  0
  187.1460  174.9660  137.1660 C   0  0  0  0  0  2  0  0  0  0  0  0
  187.7790  177.4080  136.6780 C   0  0  2  0  0  3  0  0  0  0  0  0
  185.9680  173.9910  137.1910 C   0  0  1  0  0  3  0  0  0  0  0  0
  184.1790  178.3480  137.4480 C   0  0  0  0  0  1  0  0  0  0  0  0
  189.2910  177.1900  136.7860 C   0  0  1  0  0  3  0  0  0  0  0  0
  188.2290  177.9960  140.1100 O   0  0  0  0  0  1  0  0  0  0  0  0
  184.2310  175.8810  134.3470 C   0  0  0  0  0  1  0  0  0  0  0  0
  185.0430  177.1130  137.6190 C   0  0  1  0  0  3  0  0  0  0  0  0
  189.5600  177.2880  138.2660 C   0  0  0  0  0  2  0  0  0  0  0  0
  185.4910  176.6360  136.2980 N   0  0  2  0  0  0  0  0  0  0  0  0
  187.3170  178.1210  137.8930 N   0  0  2  0  0  0  0  0  0  0  0  0
  185.0480  174.1550  135.9700 C   0  0  2  0  0  3  0  0  0  0  0  0
  189.0010  179.5580  138.6510 O   0  0  0  0  0  1  0  0  0  0  0  0
  184.5620  175.6090  135.8030 C   0  0  2  0  0  3  0  0  0  0  0  0
  183.8190  172.1310  135.1520 C   0  0  0  0  0  3  0  0  0  0  0  0
  183.8710  173.2230  136.0270 C   0  0  0  0  0  0  0  0  0  0  0  0
  182.8250  173.4310  136.9380 C   0  0  0  0  0  3  0  0  0  0  0  0
  180.7300  172.7580  137.8540 F   0  0  0  0  0  0  0  0  0  0  0  0
  181.6920  171.4640  136.0990 C   0  0  0  0  0  3  0  0  0  0  0  0
  181.7380  172.5530  136.9740 C   0  0  0  0  0  0  0  0  0  0  0  0
  182.7320  171.2520  135.1880 C   0  0  0  0  0  3  0  0  0  0  0  0
  190.7740  175.1990  137.1190 C   0  0  0  0  0  2  0  0  0  0  0  0
  192.1850  175.6250  136.7510 C   0  0  1  0  0  3  0  0  0  0  0  0
  190.7570  176.2600  134.9840 C   0  0  0  0  0  2  0  0  0  0  0  0
  192.1250  176.3540  135.4860 N   0  0  0  0  0  0  0  0  0  0  0  0
  189.8560  175.9110  136.1510 C   0  0  2  0  0  3  0  0  0  0  0  0
  192.7590  176.5280  137.8300 C   0  0  0  0  0  2  0  0  0  0  0  0
  193.9140  175.9560  138.3660 O   0  0  0  0  0  1  0  0  0  0  0  0
  193.0610  175.7790  134.5100 C   0  0  0  0  0  2  0  0  0  0  0  0
  194.5080  175.9330  134.8870 C   0  0  0  0  0  0  0  0  0  0  0  0
  195.2210  174.9120  135.0710 O   0  0  0  0  0  1  0  0  0  0  0  0
  195.0650  177.1980  135.0140 O   0  0  0  0  0  0  0  0  0  0  0  0
  186.4740  172.5840  137.3510 C   0  0  0  0  0  3  0  0  0  0  0  0
  187.6750  172.2080  136.9040 C   0  0  0  0  0  2  0  0  0  0  0  0
  1  9  1  0  0  0  0
  2 13  1  0  0  0  0
  2  5  1  0  0  0  0
  2  4  1  1  0  0  0
  4  6  1  0  0  0  0
  5  8  1  0  0  0  0
  5 14  1  0  0  0  0
  6 36  1  0  0  0  0
  7 11  1  0  0  0  0
  8 12  1  0  0  0  0
 10 17  1  0  0  0  0
 11  3  1  0  0  0  0
 12  1  1  0  0  0  0
 13 11  1  0  0  0  0
 14  3  1  0  0  0  0
 14  1  1  0  0  0  0
 15 19  1  0  0  0  0
 15  6  1  0  0  0  0
 16  1  1  0  0  0  0
 17 15  1  0  0  0  0
 17 13  1  0  0  0  0
 18 24  2  0  0  0  0
 18 19  1  0  0  0  0
 19 20  2  0  0  0  0
 20 23  1  0  0  0  0
 22 23  2  0  0  0  0
 23 21  1  0  0  0  0
 24 22  1  0  0  0  0
 26 25  1  0  0  0  0
 26 30  1  0  0  0  0
 27 28  1  0  0  0  0
 27 29  1  0  0  0  0
 28 26  1  0  0  0  0
 29  8  1  0  0  0  0
 29 25  1  0  0  0  0
 30 31  1  0  0  0  0
 32 33  1  0  0  0  0
 32 28  1  0  0  0  0
 33 35  2  0  0  0  0
 33 34  1  0  0  0  0
 37 36  2  0  0  0  0
M  END
>  <MODEL>
3

>  <REMARK>
 VINA RESULT:      -5.1      2.353      3.526
  Name = 
  6 active torsions:
  status: ('A' for Active; 'I' for Inactive)
    1  A    between atoms: C_5  and  C_12
    2  A    between atoms: C_6  and  C_31
    3  A    between atoms: C_7  and  C_14
    4  A    between atoms: C_11  and  C_26
    5  A    between atoms: C_20  and  C_36
    6  A    between atoms: C_26  and  N_33
                            x       y       z     vdW  Elec       q    Type
                         _______ _______ _______ _____ _____    ______ ____

>  <TORSDO>
F 6

$$$$
=
 OpenBabel10272414493D

 37 41  0  0  1  0  0  0  0  0999 V2000
  188.5020  178.9170  137.5160 C   0  0  0  0  0  0  0  0  0  0  0  0
  189.0680  176.6790  140.2790 C   0  0  2  0  0  3  0  0  0  0  0  0
  188.2750  179.2300  139.9370 C   0  0  0  0  0  2  0  0  0  0  0  0
  190.4780  177.2780  140.4550 C   0  0  0  0  0  2  0  0  0  0  0  0
  188.4500  177.0000  138.9010 C   0  0  2  0  0  3  0  0  0  0  0  0
  190.8790  177.4730  141.9180 C   0  0  1  0  0  3  0  0  0  0  0  0
  186.3790  178.8290  141.5100 C   0  0  0  0  0  1  0  0  0  0  0  0
  189.2700  176.6700  137.6510 C   0  0  1  0  0  3  0  0  0  0  0  0
  188.9550  180.2370  137.6370 O   0  0  0  0  0  1  0  0  0  0  0  0
  187.8170  175.5000  143.1080 C   0  0  0  0  0  1  0  0  0  0  0  0
  187.8560  178.5830  141.2680 C   0  0  1  0  0  3  0  0  0  0  0  0
  189.6550  178.0230  137.1090 C   0  0  0  0  0  2  0  0  0  0  0  0
  188.1300  177.1350  141.3200 N   0  0  2  0  0  0  0  0  0  0  0  0
  187.9360  178.3850  138.7750 N   0  0  2  0  0  0  0  0  0  0  0  0
  190.0670  176.5780  142.8700 C   0  0  2  0  0  3  0  0  0  0  0  0
  187.5210  178.8690  136.5230 O   0  0  0  0  0  1  0  0  0  0  0  0
  188.5480  176.7610  142.6810 C   0  0  2  0  0  3  0  0  0  0  0  0
  189.7700  177.7990  145.0360 C   0  0  0  0  0  3  0  0  0  0  0  0
  190.4380  176.8090  144.3070 C   0  0  0  0  0  0  0  0  0  0  0  0
  191.4440  176.0510  144.9270 C   0  0  0  0  0  3  0  0  0  0  0  0
  192.7450  175.5500  146.8590 F   0  0  0  0  0  0  0  0  0  0  0  0
  191.1030  177.2720  146.9890 C   0  0  0  0  0  3  0  0  0  0  0  0
  191.7750  176.2820  146.2650 C   0  0  0  0  0  0  0  0  0  0  0  0
  190.1010  178.0300  146.3750 C   0  0  0  0  0  3  0  0  0  0  0  0
  191.6090  176.1360  136.9290 C   0  0  0  0  0  2  0  0  0  0  0  0
  191.5070  175.2500  135.6990 C   0  0  1  0  0  3  0  0  0  0  0  0
  190.1150  174.3310  137.3660 C   0  0  0  0  0  2  0  0  0  0  0  0
  190.5140  174.2130  135.9670 N   0  0  0  0  0  0  0  0  0  0  0  0
  190.4690  175.7280  137.8350 C   0  0  2  0  0  3  0  0  0  0  0  0
  191.0720  176.0700  134.4960 C   0  0  0  0  0  2  0  0  0  0  0  0
  189.6840  176.0120  134.3560 O   0  0  0  0  0  1  0  0  0  0  0  0
  191.0770  172.8780  135.7150 C   0  0  0  0  0  2  0  0  0  0  0  0
  190.2330  172.0190  134.8150 C   0  0  0  0  0  0  0  0  0  0  0  0
  189.1180  172.4390  134.4090 O   0  0  0  0  0  0  0  0  0  0  0  0
  190.6890  170.7700  134.4160 O   0  0  0  0  0  1  0  0  0  0  0  0
  192.3630  177.2850  142.0690 C   0  0  0  0  0  3  0  0  0  0  0  0
  193.1860  177.2760  141.0190 C   0  0  0  0  0  2  0  0  0  0  0  0
  1  9  1  0  0  0  0
  1 14  1  0  0  0  0
  2  4  1  1  0  0  0
  2 13  1  0  0  0  0
  3 11  1  0  0  0  0
  4  6  1  0  0  0  0
  5  2  1  0  0  0  0
  6 36  1  0  0  0  0
  6 15  1  0  0  0  0
  8 29  1  0  0  0  0
  8  5  1  0  0  0  0
 11 13  1  0  0  0  0
 11  7  1  0  0  0  0
 12  1  1  0  0  0  0
 12  8  1  0  0  0  0
 13 17  1  0  0  0  0
 14  5  1  0  0  0  0
 14  3  1  0  0  0  0
 15 19  1  0  0  0  0
 16  1  1  0  0  0  0
 17 15  1  0  0  0  0
 17 10  1  0  0  0  0
 18 24  1  0  0  0  0
 19 20  1  0  0  0  0
 19 18  2  0  0  0  0
 20 23  2  0  0  0  0
 23 21  1  0  0  0  0
 23 22  1  0  0  0  0
 24 22  2  0  0  0  0
 25 29  1  0  0  0  0
 26 28  1  0  0  0  0
 26 25  1  0  0  0  0
 27 29  1  0  0  0  0
 28 27  1  0  0  0  0
 30 26  1  0  0  0  0
 31 30  1  0  0  0  0
 32 28  1  0  0  0  0
 33 32  1  0  0  0  0
 34 33  2  0  0  0  0
 35 33  1  0  0  0  0
 37 36  2  0  0  0  0
M  END
>  <MODEL>
4

>  <REMARK>
 VINA RESULT:      -4.8      6.241      8.800
  Name = 
  6 active torsions:
  status: ('A' for Active; 'I' for Inactive)
    1  A    between atoms: C_5  and  C_12
    2  A    between atoms: C_6  and  C_31
    3  A    between atoms: C_7  and  C_14
    4  A    between atoms: C_11  and  C_26
    5  A    between atoms: C_20  and  C_36
    6  A    between atoms: C_26  and  N_33
                            x       y       z     vdW  Elec       q    Type
                         _______ _______ _______ _____ _____    ______ ____

>  <TORSDO>
F 6

$$$$
=
 OpenBabel10272414493D

 37 41  0  0  1  0  0  0  0  0999 V2000
  188.5980  178.8150  137.6040 C   0  0  0  0  0  0  0  0  0  0  0  0
  189.1130  176.6320  140.4210 C   0  0  2  0  0  3  0  0  0  0  0  0
  188.3100  179.1710  140.0120 C   0  0  0  0  0  2  0  0  0  0  0  0
  190.5140  177.2460  140.6200 C   0  0  0  0  0  2  0  0  0  0  0  0
  188.5280  176.9240  139.0230 C   0  0  2  0  0  3  0  0  0  0  0  0
  190.8780  177.4710  142.0880 C   0  0  1  0  0  3  0  0  0  0  0  0
  186.3790  178.7830  141.5460 C   0  0  0  0  0  1  0  0  0  0  0  0
  189.3800  176.5770  137.7990 C   0  0  1  0  0  3  0  0  0  0  0  0
  189.0380  180.1410  137.7110 O   0  0  0  0  0  1  0  0  0  0  0  0
  187.8030  175.4960  143.2400 C   0  0  0  0  0  1  0  0  0  0  0  0
  187.8640  178.5440  141.3450 C   0  0  1  0  0  3  0  0  0  0  0  0
  189.7680  177.9230  137.2420 C   0  0  0  0  0  2  0  0  0  0  0  0
  188.1480  177.0990  141.4300 N   0  0  2  0  0  0  0  0  0  0  0  0
  188.0060  178.3020  138.8590 N   0  0  2  0  0  0  0  0  0  0  0  0
  190.0510  176.5870  143.0360 C   0  0  2  0  0  3  0  0  0  0  0  0
  187.6420  178.7410  136.5890 O   0  0  0  0  0  1  0  0  0  0  0  0
  188.5350  176.7540  142.8070 C   0  0  2  0  0  3  0  0  0  0  0  0
  189.6430  177.7950  145.1920 C   0  0  0  0  0  3  0  0  0  0  0  0
  190.3840  176.8470  144.4780 C   0  0  0  0  0  0  0  0  0  0  0  0
  191.4280  176.1580  145.1160 C   0  0  0  0  0  3  0  0  0  0  0  0
  192.7300  175.7500  147.0690 F   0  0  0  0  0  0  0  0  0  0  0  0
  190.9780  177.3620  147.1670 C   0  0  0  0  0  3  0  0  0  0  0  0
  191.7230  176.4160  146.4570 C   0  0  0  0  0  0  0  0  0  0  0  0
  189.9390  178.0520  146.5350 C   0  0  0  0  0  3  0  0  0  0  0  0
  191.7780  176.1200  137.2330 C   0  0  0  0  0  2  0  0  0  0  0  0
  191.7870  175.2940  135.9590 C   0  0  1  0  0  3  0  0  0  0  0  0
  190.2930  174.2700  137.4700 C   0  0  0  0  0  2  0  0  0  0  0  0
  190.7990  174.2270  136.1010 N   0  0  0  0  0  0  0  0  0  0  0  0
  190.5820  175.6480  138.0290 C   0  0  2  0  0  3  0  0  0  0  0  0
  191.4270  176.1640  134.7660 C   0  0  0  0  0  2  0  0  0  0  0  0
  190.1260  175.8810  134.3460 O   0  0  0  0  0  1  0  0  0  0  0  0
  191.4070  172.9160  135.8290 C   0  0  0  0  0  2  0  0  0  0  0  0
  192.9100  172.9290  135.8220 C   0  0  0  0  0  0  0  0  0  0  0  0
  193.5440  172.8700  136.9070 O   0  0  0  0  0  1  0  0  0  0  0  0
  193.6010  172.9880  134.6180 O   0  0  0  0  0  0  0  0  0  0  0  0
  192.3590  177.2980  142.2790 C   0  0  0  0  0  3  0  0  0  0  0  0
  193.2100  177.2890  141.2500 C   0  0  0  0  0  2  0  0  0  0  0  0
  1  9  1  0  0  0  0
  1 14  1  0  0  0  0
  2  4  1  1  0  0  0
  2 13  1  0  0  0  0
  3 11  1  0  0  0  0
  4  6  1  0  0  0  0
  5  2  1  0  0  0  0
  6 36  1  0  0  0  0
  6 15  1  0  0  0  0
  8 29  1  0  0  0  0
  8  5  1  0  0  0  0
 11 13  1  0  0  0  0
 11  7  1  0  0  0  0
 12  1  1  0  0  0  0
 12  8  1  0  0  0  0
 13 17  1  0  0  0  0
 14  5  1  0  0  0  0
 14  3  1  0  0  0  0
 15 19  1  0  0  0  0
 16  1  1  0  0  0  0
 17 15  1  0  0  0  0
 17 10  1  0  0  0  0
 18 24  1  0  0  0  0
 19 20  1  0  0  0  0
 19 18  2  0  0  0  0
 20 23  2  0  0  0  0
 23 21  1  0  0  0  0
 23 22  1  0  0  0  0
 24 22  2  0  0  0  0
 25 29  1  0  0  0  0
 26 28  1  0  0  0  0
 26 25  1  0  0  0  0
 27 29  1  0  0  0  0
 28 27  1  0  0  0  0
 30 26  1  0  0  0  0
 31 30  1  0  0  0  0
 32 28  1  0  0  0  0
 33 32  1  0  0  0  0
 33 34  1  0  0  0  0
 35 33  2  0  0  0  0
 37 36  2  0  0  0  0
M  END
>  <MODEL>
5

>  <REMARK>
 VINA RESULT:      -4.7      6.395      8.878
  Name = 
  6 active torsions:
  status: ('A' for Active; 'I' for Inactive)
    1  A    between atoms: C_5  and  C_12
    2  A    between atoms: C_6  and  C_31
    3  A    between atoms: C_7  and  C_14
    4  A    between atoms: C_11  and  C_26
    5  A    between atoms: C_20  and  C_36
    6  A    between atoms: C_26  and  N_33
                            x       y       z     vdW  Elec       q    Type
                         _______ _______ _______ _____ _____    ______ ____

>  <TORSDO>
F 6

$$$$
=
 OpenBabel10272414493D

 37 41  0  0  1  0  0  0  0  0999 V2000
  191.5380  176.9820  140.2690 C   0  0  0  0  0  0  0  0  0  0  0  0
  189.6700  176.5940  137.2150 C   0  0  2  0  0  3  0  0  0  0  0  0
  189.1260  176.9130  139.8340 C   0  0  0  0  0  2  0  0  0  0  0  0
  189.5380  175.0850  137.5060 C   0  0  0  0  0  2  0  0  0  0  0  0
  190.7840  177.2660  138.0450 C   0  0  2  0  0  3  0  0  0  0  0  0
  188.1600  174.5170  137.1660 C   0  0  1  0  0  3  0  0  0  0  0  0
  187.4760  178.6920  139.2530 C   0  0  0  0  0  1  0  0  0  0  0  0
  192.1840  176.6470  138.0040 C   0  0  1  0  0  3  0  0  0  0  0  0
  191.1050  176.2750  141.3980 O   0  0  0  0  0  1  0  0  0  0  0  0
  187.1570  177.7730  135.4110 C   0  0  0  0  0  1  0  0  0  0  0  0
  187.9970  177.3190  138.8720 C   0  0  1  0  0  3  0  0  0  0  0  0
  192.3570  176.0640  139.3830 C   0  0  0  0  0  2  0  0  0  0  0  0
  188.4130  177.3230  137.4570 N   0  0  2  0  0  0  0  0  0  0  0  0
  190.4210  177.5160  139.4600 N   0  0  2  0  0  0  0  0  0  0  0  0
  187.4020  175.3900  136.1520 C   0  0  2  0  0  3  0  0  0  0  0  0
  192.3430  178.0430  140.6870 O   0  0  0  0  0  1  0  0  0  0  0  0
  187.3000  176.8580  136.6150 C   0  0  2  0  0  3  0  0  0  0  0  0
  185.8150  174.1420  134.6700 C   0  0  0  0  0  3  0  0  0  0  0  0
  186.0320  174.8480  135.8590 C   0  0  0  0  0  0  0  0  0  0  0  0
  184.9700  175.0400  136.7560 C   0  0  0  0  0  3  0  0  0  0  0  0
  182.6800  174.7160  137.3310 F   0  0  0  0  0  0  0  0  0  0  0  0
  183.4910  173.8230  135.2750 C   0  0  0  0  0  3  0  0  0  0  0  0
  183.7020  174.5280  136.4640 C   0  0  0  0  0  0  0  0  0  0  0  0
  184.5470  173.6300  134.3780 C   0  0  0  0  0  3  0  0  0  0  0  0
  193.0370  174.3580  137.4470 C   0  0  0  0  0  2  0  0  0  0  0  0
  194.5440  174.4670  137.2950 C   0  0  1  0  0  3  0  0  0  0  0  0
  193.5640  176.1570  135.9750 C   0  0  0  0  0  2  0  0  0  0  0  0
  194.8350  175.6340  136.4660 N   0  0  0  0  0  0  0  0  0  0  0  0
  192.4660  175.6390  136.8810 C   0  0  2  0  0  3  0  0  0  0  0  0
  195.1990  174.6360  138.6560 C   0  0  0  0  0  2  0  0  0  0  0  0
  195.4430  173.3860  139.2270 O   0  0  0  0  0  1  0  0  0  0  0  0
  195.7000  175.2660  135.3350 C   0  0  0  0  0  2  0  0  0  0  0  0
  197.0850  175.8450  135.4100 C   0  0  0  0  0  0  0  0  0  0  0  0
  197.7170  176.1010  134.3520 O   0  0  0  0  0  0  0  0  0  0  0  0
  197.6610  176.1160  136.6440 O   0  0  0  0  0  1  0  0  0  0  0  0
  188.2930  173.0890  136.7160 C   0  0  0  0  0  3  0  0  0  0  0  0
  187.5400  172.1120  137.2270 C   0  0  0  0  0  2  0  0  0  0  0  0
  1 16  1  0  0  0  0
  1  9  1  0  0  0  0
  2 13  1  0  0  0  0
  2  4  1  1  0  0  0
  2  5  1  0  0  0  0
  5 14  1  0  0  0  0
  6  4  1  0  0  0  0
  8  5  1  0  0  0  0
  8 12  1  0  0  0  0
 10 17  1  0  0  0  0
 11  7  1  0  0  0  0
 11  3  1  0  0  0  0
 12  1  1  0  0  0  0
 13 11  1  0  0  0  0
 14  3  1  0  0  0  0
 14  1  1  0  0  0  0
 15 17  1  0  0  0  0
 15  6  1  0  0  0  0
 17 13  1  0  0  0  0
 18 19  1  0  0  0  0
 19 15  1  0  0  0  0
 19 20  2  0  0  0  0
 22 23  2  0  0  0  0
 23 20  1  0  0  0  0
 23 21  1  0  0  0  0
 24 18  2  0  0  0  0
 24 22  1  0  0  0  0
 26 25  1  0  0  0  0
 26 30  1  0  0  0  0
 27 28  1  0  0  0  0
 27 29  1  0  0  0  0
 28 26  1  0  0  0  0
 29 25  1  0  0  0  0
 29  8  1  0  0  0  0
 30 31  1  0  0  0  0
 32 33  1  0  0  0  0
 32 28  1  0  0  0  0
 33 35  1  0  0  0  0
 34 33  2  0  0  0  0
 36  6  1  0  0  0  0
 36 37  2  0  0  0  0
M  END
>  <MODEL>
6

>  <REMARK>
 VINA RESULT:      -4.7      3.787      6.165
  Name = 
  6 active torsions:
  status: ('A' for Active; 'I' for Inactive)
    1  A    between atoms: C_5  and  C_12
    2  A    between atoms: C_6  and  C_31
    3  A    between atoms: C_7  and  C_14
    4  A    between atoms: C_11  and  C_26
    5  A    between atoms: C_20  and  C_36
    6  A    between atoms: C_26  and  N_33
                            x       y       z     vdW  Elec       q    Type
                         _______ _______ _______ _____ _____    ______ ____

>  <TORSDO>
F 6

$$$$
=
 OpenBabel10272414493D

 37 41  0  0  1  0  0  0  0  0999 V2000
  188.0950  176.7600  137.9980 C   0  0  0  0  0  0  0  0  0  0  0  0
  188.4880  178.3980  141.1800 C   0  0  2  0  0  3  0  0  0  0  0  0
  189.7350  176.4530  139.7940 C   0  0  0  0  0  2  0  0  0  0  0  0
  187.7160  177.2440  141.8510 C   0  0  0  0  0  2  0  0  0  0  0  0
  188.2840  178.4410  139.6510 C   0  0  2  0  0  3  0  0  0  0  0  0
  188.3010  176.8230  143.2000 C   0  0  1  0  0  3  0  0  0  0  0  0
  191.9260  177.5490  140.2700 C   0  0  0  0  0  1  0  0  0  0  0  0
  186.8490  178.4500  139.1160 C   0  0  1  0  0  3  0  0  0  0  0  0
  188.2540  175.3690  137.9510 O   0  0  0  0  0  1  0  0  0  0  0  0
  190.6430  179.8550  143.2270 C   0  0  0  0  0  1  0  0  0  0  0  0
  190.5890  177.1500  140.8670 C   0  0  1  0  0  3  0  0  0  0  0  0
  186.6980  177.0920  138.4800 C   0  0  0  0  0  2  0  0  0  0  0  0
  189.9350  178.3360  141.4500 N   0  0  2  0  0  0  0  0  0  0  0  0
  189.0580  177.4190  138.9060 N   0  0  2  0  0  0  0  0  0  0  0  0
  189.1580  177.9300  143.8360 C   0  0  2  0  0  3  0  0  0  0  0  0
  188.2630  177.2730  136.7100 O   0  0  0  0  0  1  0  0  0  0  0  0
  190.2620  178.4260  142.8820 C   0  0  2  0  0  3  0  0  0  0  0  0
  190.9360  176.7270  145.1260 C   0  0  0  0  0  3  0  0  0  0  0  0
  189.7630  177.4910  145.1390 C   0  0  0  0  0  0  0  0  0  0  0  0
  189.1700  177.8310  146.3650 C   0  0  0  0  0  3  0  0  0  0  0  0
  189.1740  177.7420  148.7460 F   0  0  0  0  0  0  0  0  0  0  0  0
  190.9210  176.6500  147.5480 C   0  0  0  0  0  3  0  0  0  0  0  0
  189.7490  177.4120  147.5660 C   0  0  0  0  0  0  0  0  0  0  0  0
  191.5140  176.3070  146.3290 C   0  0  0  0  0  3  0  0  0  0  0  0
  184.8120  177.5910  140.2930 C   0  0  0  0  0  2  0  0  0  0  0  0
  183.6260  177.8450  139.3790 C   0  0  1  0  0  3  0  0  0  0  0  0
  184.8340  179.8620  139.5690 C   0  0  0  0  0  2  0  0  0  0  0  0
  183.7230  179.2140  138.8780 N   0  0  0  0  0  0  0  0  0  0  0  0
  185.7350  178.7760  140.1210 C   0  0  2  0  0  3  0  0  0  0  0  0
  183.6470  176.8750  138.2090 C   0  0  0  0  0  2  0  0  0  0  0  0
  183.1970  175.6200  138.6230 O   0  0  0  0  0  1  0  0  0  0  0  0
  182.4740  179.9490  139.1310 C   0  0  0  0  0  2  0  0  0  0  0  0
  181.6990  180.2830  137.8880 C   0  0  0  0  0  0  0  0  0  0  0  0
  181.4370  179.3820  137.0500 O   0  0  0  0  0  0  0  0  0  0  0  0
  181.2540  181.5810  137.6710 O   0  0  0  0  0  1  0  0  0  0  0  0
  187.2000  176.3480  144.1080 C   0  0  0  0  0  3  0  0  0  0  0  0
  186.2620  177.1730  144.5760 C   0  0  0  0  0  2  0  0  0  0  0  0
  1 12  1  0  0  0  0
  1 14  1  0  0  0  0
  2 13  1  0  0  0  0
  2  4  1  6  0  0  0
  3 11  1  0  0  0  0
  4  6  1  0  0  0  0
  5  2  1  0  0  0  0
  6 15  1  0  0  0  0
  6 36  1  0  0  0  0
  7 11  1  0  0  0  0
  8  5  1  0  0  0  0
  8 29  1  0  0  0  0
  9  1  1  0  0  0  0
 11 13  1  0  0  0  0
 12  8  1  0  0  0  0
 13 17  1  0  0  0  0
 14  5  1  0  0  0  0
 14  3  1  0  0  0  0
 15 19  1  0  0  0  0
 16  1  1  0  0  0  0
 17 10  1  0  0  0  0
 17 15  1  0  0  0  0
 18 19  2  0  0  0  0
 18 24  1  0  0  0  0
 19 20  1  0  0  0  0
 20 23  2  0  0  0  0
 22 23  1  0  0  0  0
 23 21  1  0  0  0  0
 24 22  2  0  0  0  0
 26 25  1  0  0  0  0
 27 29  1  0  0  0  0
 28 32  1  0  0  0  0
 28 26  1  0  0  0  0
 28 27  1  0  0  0  0
 29 25  1  0  0  0  0
 30 31  1  0  0  0  0
 30 26  1  0  0  0  0
 33 32  1  0  0  0  0
 34 33  2  0  0  0  0
 35 33  1  0  0  0  0
 36 37  2  0  0  0  0
M  END
>  <MODEL>
7

>  <REMARK>
 VINA RESULT:      -4.6      5.407      9.758
  Name = 
  6 active torsions:
  status: ('A' for Active; 'I' for Inactive)
    1  A    between atoms: C_5  and  C_12
    2  A    between atoms: C_6  and  C_31
    3  A    between atoms: C_7  and  C_14
    4  A    between atoms: C_11  and  C_26
    5  A    between atoms: C_20  and  C_36
    6  A    between atoms: C_26  and  N_33
                            x       y       z     vdW  Elec       q    Type
                         _______ _______ _______ _____ _____    ______ ____

>  <TORSDO>
F 6

$$$$
=
 OpenBabel10272414493D

 37 41  0  0  1  0  0  0  0  0999 V2000
  191.4670  175.3460  135.8220 C   0  0  0  0  0  0  0  0  0  0  0  0
  188.2280  174.9640  137.3490 C   0  0  2  0  0  3  0  0  0  0  0  0
  189.3280  174.5550  134.9230 C   0  0  0  0  0  2  0  0  0  0  0  0
  187.8190  176.3400  136.7860 C   0  0  0  0  0  2  0  0  0  0  0  0
  189.7570  174.7490  137.3430 C   0  0  2  0  0  3  0  0  0  0  0  0
  186.3830  176.3800  136.2610 C   0  0  1  0  0  3  0  0  0  0  0  0
  188.2720  172.2940  134.8510 C   0  0  0  0  0  1  0  0  0  0  0  0
  190.6360  175.8160  138.0010 C   0  0  1  0  0  3  0  0  0  0  0  0
  191.5250  175.8910  134.5320 O   0  0  0  0  0  1  0  0  0  0  0  0
  185.6500  172.9280  137.7540 C   0  0  0  0  0  1  0  0  0  0  0  0
  188.0480  173.7500  135.2120 C   0  0  1  0  0  3  0  0  0  0  0  0
  191.3410  176.4640  136.8360 C   0  0  0  0  0  2  0  0  0  0  0  0
  187.6050  173.8490  136.6150 N   0  0  2  0  0  0  0  0  0  0  0  0
  190.3200  174.4310  136.0090 N   0  0  2  0  0  0  0  0  0  0  0  0
  185.5090  175.2670  136.8640 C   0  0  2  0  0  3  0  0  0  0  0  0
  192.6500  174.6460  136.0650 O   0  0  0  0  0  1  0  0  0  0  0  0
  186.1340  173.8710  136.6670 C   0  0  2  0  0  3  0  0  0  0  0  0
  183.9210  175.1160  134.9330 C   0  0  0  0  0  3  0  0  0  0  0  0
  184.1140  175.2880  136.3090 C   0  0  0  0  0  0  0  0  0  0  0  0
  183.0040  175.4800  137.1460 C   0  0  0  0  0  3  0  0  0  0  0  0
  180.6460  175.6850  137.4200 F   0  0  0  0  0  0  0  0  0  0  0  0
  181.5260  175.3240  135.2350 C   0  0  0  0  0  3  0  0  0  0  0  0
  181.7130  175.4980  136.6100 C   0  0  0  0  0  0  0  0  0  0  0  0
  182.6290  175.1330  134.3970 C   0  0  0  0  0  3  0  0  0  0  0  0
  190.8670  177.9620  139.2730 C   0  0  0  0  0  2  0  0  0  0  0  0
  191.4560  177.6160  140.6300 C   0  0  1  0  0  3  0  0  0  0  0  0
  189.6200  176.1840  140.2570 C   0  0  0  0  0  2  0  0  0  0  0  0
  190.7310  176.4650  141.1610 N   0  0  0  0  0  0  0  0  0  0  0  0
  189.9340  176.8250  138.9210 C   0  0  2  0  0  3  0  0  0  0  0  0
  192.9290  177.2680  140.4900 C   0  0  0  0  0  2  0  0  0  0  0  0
  193.3920  177.6540  139.2310 O   0  0  0  0  0  1  0  0  0  0  0  0
  190.2240  176.7480  142.5120 C   0  0  0  0  0  2  0  0  0  0  0  0
  191.1940  176.4190  143.6110 C   0  0  0  0  0  0  0  0  0  0  0  0
  191.5390  177.3080  144.4320 O   0  0  0  0  0  1  0  0  0  0  0  0
  191.6980  175.1300  143.7340 O   0  0  0  0  0  0  0  0  0  0  0  0
  185.8010  177.7510  136.4700 C   0  0  0  0  0  3  0  0  0  0  0  0
  185.9140  178.3990  137.6310 C   0  0  0  0  0  2  0  0  0  0  0  0
  1 14  1  0  0  0  0
  1 16  1  0  0  0  0
  1 12  1  0  0  0  0
  2  4  1  6  0  0  0
  3 11  1  0  0  0  0
  3 14  1  0  0  0  0
  5  2  1  0  0  0  0
  5  8  1  0  0  0  0
  6 36  1  0  0  0  0
  6  4  1  0  0  0  0
  6 15  1  0  0  0  0
  7 11  1  0  0  0  0
  8 29  1  0  0  0  0
  9  1  1  0  0  0  0
 11 13  1  0  0  0  0
 12  8  1  0  0  0  0
 13 17  1  0  0  0  0
 13  2  1  0  0  0  0
 14  5  1  0  0  0  0
 17 15  1  0  0  0  0
 17 10  1  0  0  0  0
 18 19  1  0  0  0  0
 19 15  1  0  0  0  0
 19 20  2  0  0  0  0
 22 23  2  0  0  0  0
 23 20  1  0  0  0  0
 23 21  1  0  0  0  0
 24 18  2  0  0  0  0
 24 22  1  0  0  0  0
 25 26  1  0  0  0  0
 26 28  1  0  0  0  0
 27 28  1  0  0  0  0
 28 32  1  0  0  0  0
 29 25  1  0  0  0  0
 29 27  1  0  0  0  0
 30 26  1  0  0  0  0
 31 30  1  0  0  0  0
 32 33  1  0  0  0  0
 33 35  2  0  0  0  0
 33 34  1  0  0  0  0
 36 37  2  0  0  0  0
M  END
>  <MODEL>
8

>  <REMARK>
 VINA RESULT:      -4.5      3.575      6.344
  Name = 
  6 active torsions:
  status: ('A' for Active; 'I' for Inactive)
    1  A    between atoms: C_5  and  C_12
    2  A    between atoms: C_6  and  C_31
    3  A    between atoms: C_7  and  C_14
    4  A    between atoms: C_11  and  C_26
    5  A    between atoms: C_20  and  C_36
    6  A    between atoms: C_26  and  N_33
                            x       y       z     vdW  Elec       q    Type
                         _______ _______ _______ _____ _____    ______ ____

>  <TORSDO>
F 6

$$$$
=
 OpenBabel10272414493D

 37 41  0  0  1  0  0  0  0  0999 V2000
  185.3390  177.2830  135.6340 C   0  0  0  0  0  0  0  0  0  0  0  0
  188.1050  175.6870  137.2980 C   0  0  2  0  0  3  0  0  0  0  0  0
  187.7080  177.8910  135.8010 C   0  0  0  0  0  2  0  0  0  0  0  0
  188.4960  175.0130  135.9670 C   0  0  0  0  0  2  0  0  0  0  0  0
  186.6590  176.2300  137.2890 C   0  0  2  0  0  3  0  0  0  0  0  0
  190.0050  174.9730  135.7240 C   0  0  1  0  0  3  0  0  0  0  0  0
  188.9810  179.2320  137.4770 C   0  0  0  0  0  1  0  0  0  0  0  0
  185.5340  175.2720  136.8890 C   0  0  1  0  0  3  0  0  0  0  0  0
  185.5530  177.7940  134.3470 O   0  0  0  0  0  1  0  0  0  0  0  0
  190.6970  176.1600  139.3010 C   0  0  0  0  0  1  0  0  0  0  0  0
  188.9500  177.9250  136.7080 C   0  0  1  0  0  3  0  0  0  0  0  0
  185.0830  175.7920  135.5480 C   0  0  0  0  0  2  0  0  0  0  0  0
  189.0090  176.7940  137.6530 N   0  0  2  0  0  0  0  0  0  0  0  0
  186.4910  177.4960  136.5370 N   0  0  2  0  0  0  0  0  0  0  0  0
  190.8100  175.1110  137.0270 C   0  0  2  0  0  3  0  0  0  0  0  0
  184.2150  177.9040  136.1800 O   0  0  0  0  0  1  0  0  0  0  0  0
  190.4070  176.3680  137.8250 C   0  0  2  0  0  3  0  0  0  0  0  0
  193.0580  174.0190  137.1800 C   0  0  0  0  0  3  0  0  0  0  0  0
  192.2900  175.1160  136.7730 C   0  0  0  0  0  0  0  0  0  0  0  0
  192.9130  176.2020  136.1390 C   0  0  0  0  0  3  0  0  0  0  0  0
  194.8900  177.2370  135.3020 F   0  0  0  0  0  0  0  0  0  0  0  0
  195.0550  175.0890  136.3210 C   0  0  0  0  0  3  0  0  0  0  0  0
  194.2920  176.1880  135.9140 C   0  0  0  0  0  0  0  0  0  0  0  0
  194.4380  174.0050  136.9540 C   0  0  0  0  0  3  0  0  0  0  0  0
  185.7940  173.2250  135.4690 C   0  0  0  0  0  2  0  0  0  0  0  0
  184.4190  172.5950  135.3340 C   0  0  1  0  0  3  0  0  0  0  0  0
  184.8070  172.9940  137.6260 C   0  0  0  0  0  2  0  0  0  0  0  0
  183.8040  172.5560  136.6590 N   0  0  0  0  0  0  0  0  0  0  0  0
  185.8680  173.7730  136.8760 C   0  0  2  0  0  3  0  0  0  0  0  0
  183.5520  173.4210  134.3980 C   0  0  0  0  0  2  0  0  0  0  0  0
  182.4780  173.9690  135.1010 O   0  0  0  0  0  1  0  0  0  0  0  0
  183.3520  171.1950  136.9820 C   0  0  0  0  0  2  0  0  0  0  0  0
  182.1340  170.7580  136.2180 C   0  0  0  0  0  0  0  0  0  0  0  0
  181.0320  171.3360  136.4070 O   0  0  0  0  0  1  0  0  0  0  0  0
  182.2250  169.7290  135.2890 O   0  0  0  0  0  0  0  0  0  0  0  0
  190.3650  173.7370  134.9480 C   0  0  0  0  0  3  0  0  0  0  0  0
  189.8300  172.5460  135.2250 C   0  0  0  0  0  2  0  0  0  0  0  0
  1 16  1  0  0  0  0
  1 14  1  0  0  0  0
  2  4  1  6  0  0  0
  2 13  1  0  0  0  0
  3 14  1  0  0  0  0
  3 11  1  0  0  0  0
  5  2  1  0  0  0  0
  6  4  1  0  0  0  0
  6 15  1  0  0  0  0
  8  5  1  0  0  0  0
  9  1  1  0  0  0  0
 11  7  1  0  0  0  0
 11 13  1  0  0  0  0
 12  1  1  0  0  0  0
 12  8  1  0  0  0  0
 13 17  1  0  0  0  0
 14  5  1  0  0  0  0
 15 17  1  0  0  0  0
 17 10  1  0  0  0  0
 19 15  1  0  0  0  0
 19 18  2  0  0  0  0
 20 19  1  0  0  0  0
 21 23  1  0  0  0  0
 22 24  2  0  0  0  0
 23 20  2  0  0  0  0
 23 22  1  0  0  0  0
 24 18  1  0  0  0  0
 25 29  1  0  0  0  0
 26 25  1  0  0  0  0
 26 28  1  0  0  0  0
 28 32  1  0  0  0  0
 28 27  1  0  0  0  0
 29  8  1  0  0  0  0
 29 27  1  0  0  0  0
 30 31  1  0  0  0  0
 30 26  1  0  0  0  0
 33 34  1  0  0  0  0
 33 32  1  0  0  0  0
 35 33  2  0  0  0  0
 36 37  2  0  0  0  0
 36  6  1  0  0  0  0
M  END
>  <MODEL>
9

>  <REMARK>
 VINA RESULT:      -4.5      4.328      8.641
  Name = 
  6 active torsions:
  status: ('A' for Active; 'I' for Inactive)
    1  A    between atoms: C_5  and  C_12
    2  A    between atoms: C_6  and  C_31
    3  A    between atoms: C_7  and  C_14
    4  A    between atoms: C_11  and  C_26
    5  A    between atoms: C_20  and  C_36
    6  A    between atoms: C_26  and  N_33
                            x       y       z     vdW  Elec       q    Type
                         _______ _______ _______ _____ _____    ______ ____

>  <TORSDO>
F 6

$$$$
