=
 OpenBabel10272413153D

 32 37  0  0  1  0  0  0  0  0999 V2000
  189.3550  178.5190  142.2490 C   0  0  2  0  0  3  0  0  0  0  0  0
  186.9280  178.5220  142.8200 C   0  0  2  0  0  3  0  0  0  0  0  0
  188.2690  177.8350  143.1060 C   0  0  2  0  0  3  0  0  0  0  0  0
  185.7940  177.6380  143.3340 C   0  0  2  0  0  3  0  0  0  0  0  0
  183.6190  179.2580  139.1000 C   0  0  0  0  0  2  0  0  0  0  0  0
  186.7510  178.9610  141.3390 C   0  0  1  0  0  3  0  0  0  0  0  0
  183.2070  177.6950  141.1190 C   0  0  0  0  0  2  0  0  0  0  0  0
  184.1310  178.7330  141.7660 C   0  0  1  0  0  3  0  0  0  0  0  0
  185.7280  177.9940  147.1080 C   0  0  0  0  0  1  0  0  0  0  0  0
  188.5030  177.8680  144.6220 C   0  0  1  0  0  3  0  0  0  0  0  0
  184.4740  178.3820  143.2080 C   0  0  0  0  0  2  0  0  0  0  0  0
  187.3580  177.2210  145.4170 C   0  0  1  0  0  3  0  0  0  0  0  0
  189.7650  177.1180  145.0100 C   0  0  0  0  0  1  0  0  0  0  0  0
  187.6180  178.1230  140.3940 C   0  0  0  0  0  2  0  0  0  0  0  0
  186.3230  178.2860  145.7480 C   0  0  1  0  0  3  0  0  0  0  0  0
  189.1100  178.2310  140.7430 C   0  0  2  0  0  3  0  0  0  0  0  0
  185.3130  179.0340  140.8670 C   0  0  0  0  0  0  0  0  0  0  0  0
  185.9540  177.1650  144.7920 C   0  0  1  0  0  3  0  0  0  0  0  0
  182.9190  177.9940  139.6300 C   0  0  0  0  0  2  0  0  0  0  0  0
  185.0440  179.2970  139.5780 C   0  0  0  0  0  3  0  0  0  0  0  0
  190.3370  175.6400  138.0900 C   0  0  0  0  0  0  0  0  0  0  0  0
  193.8450  175.9590  138.4840 O   0  0  0  0  0  0  0  0  0  0  0  0
  189.4690  174.6340  137.4100 C   0  0  0  0  0  1  0  0  0  0  0  0
  192.3340  177.3220  139.6940 C   0  0  0  0  0  2  0  0  0  0  0  0
  189.8490  177.0100  140.1610 C   0  0  2  0  0  3  0  0  0  0  0  0
  191.6190  175.4080  138.1240 N   0  0  0  0  0  0  0  0  0  0  0  0
  191.2830  176.8760  140.7020 C   0  0  0  0  0  2  0  0  0  0  0  0
  189.7310  176.9130  138.6320 C   0  0  2  0  0  3  0  0  0  0  0  0
  188.3910  177.0310  138.2460 O   0  0  0  0  0  1  0  0  0  0  0  0
  192.6400  176.2110  138.7390 C   0  0  0  0  0  0  0  0  0  0  0  0
  190.6600  178.1990  142.6370 O   0  0  0  0  0  0  0  0  0  0  0  0
  191.1130  179.3250  143.3260 C   0  0  0  0  0  1  0  0  0  0  0  0
  1 31  1  1  0  0  0
  1  3  1  0  0  0  0
  2  3  1  0  0  0  0
  2  4  1  0  0  0  0
  3 10  1  0  0  0  0
  4 18  1  0  0  0  0
  5 20  1  0  0  0  0
  5 19  1  0  0  0  0
  6  2  1  0  0  0  0
  7  8  1  0  0  0  0
  8 11  1  0  0  0  0
 10 13  1  0  0  0  0
 10 12  1  0  0  0  0
 11  4  1  0  0  0  0
 12 15  1  0  0  0  0
 14 16  1  0  0  0  0
 14  6  1  0  0  0  0
 15  9  1  0  0  0  0
 16  1  1  0  0  0  0
 17  6  1  0  0  0  0
 17  8  1  0  0  0  0
 18 12  1  0  0  0  0
 18 15  1  0  0  0  0
 19  7  1  0  0  0  0
 20 17  2  0  0  0  0
 21 26  2  0  0  0  0
 21 28  1  0  0  0  0
 22 30  2  0  0  0  0
 23 21  1  0  0  0  0
 24 27  1  0  0  0  0
 25 27  1  0  0  0  0
 25 16  1  0  0  0  0
 26 30  1  0  0  0  0
 28 25  1  0  0  0  0
 29 28  1  0  0  0  0
 30 24  1  0  0  0  0
 31 32  1  0  0  0  0
M  END
>  <MODEL>
1

>  <REMARK>
 VINA RESULT:      -8.8      0.000      0.000
  Name = 
  2 active torsions:
  status: ('A' for Active; 'I' for Inactive)
    1  A    between atoms: C_1  and  O_4
    2  A    between atoms: C_16  and  C_27
                            x       y       z     vdW  Elec       q    Type
                         _______ _______ _______ _____ _____    ______ ____

>  <TORSDO>
F 2

$$$$
=
 OpenBabel10272413153D

 32 37  0  0  1  0  0  0  0  0999 V2000
  190.1760  177.5020  140.7120 C   0  0  2  0  0  3  0  0  0  0  0  0
  188.0920  177.9740  141.9960 C   0  0  2  0  0  3  0  0  0  0  0  0
  189.2980  177.0320  141.8890 C   0  0  2  0  0  3  0  0  0  0  0  0
  187.0240  177.3240  142.8700 C   0  0  2  0  0  3  0  0  0  0  0  0
  184.0050  179.4080  139.4330 C   0  0  0  0  0  2  0  0  0  0  0  0
  187.5550  178.4640  140.6200 C   0  0  1  0  0  3  0  0  0  0  0  0
  183.9420  177.9260  141.5510 C   0  0  0  0  0  2  0  0  0  0  0  0
  185.2020  178.7500  141.8360 C   0  0  1  0  0  3  0  0  0  0  0  0
  188.1940  177.6250  146.4650 C   0  0  0  0  0  1  0  0  0  0  0  0
  189.9880  176.9930  143.2590 C   0  0  1  0  0  3  0  0  0  0  0  0
  185.8980  178.3150  143.1190 C   0  0  0  0  0  2  0  0  0  0  0  0
  189.0420  176.5730  144.3940 C   0  0  1  0  0  3  0  0  0  0  0  0
  191.1390  176.0030  143.2770 C   0  0  0  0  0  1  0  0  0  0  0  0
  187.9110  177.4860  139.4960 C   0  0  0  0  0  2  0  0  0  0  0  0
  188.3860  177.8150  144.9750 C   0  0  1  0  0  3  0  0  0  0  0  0
  189.4280  177.2920  139.3670 C   0  0  2  0  0  3  0  0  0  0  0  0
  186.0840  178.8260  140.6070 C   0  0  0  0  0  0  0  0  0  0  0  0
  187.5320  176.8040  144.2310 C   0  0  1  0  0  3  0  0  0  0  0  0
  183.2720  178.3000  140.2080 C   0  0  0  0  0  2  0  0  0  0  0  0
  185.4870  179.1580  139.4510 C   0  0  0  0  0  3  0  0  0  0  0  0
  188.9970  174.3910  136.7870 C   0  0  0  0  0  0  0  0  0  0  0  0
  192.2300  174.3640  135.3350 O   0  0  0  0  0  0  0  0  0  0  0  0
  187.8510  173.4360  136.7560 C   0  0  0  0  0  1  0  0  0  0  0  0
  191.6190  175.9670  136.9650 C   0  0  0  0  0  2  0  0  0  0  0  0
  189.7030  175.9590  138.6440 C   0  0  2  0  0  3  0  0  0  0  0  0
  190.1030  174.0280  136.2040 N   0  0  0  0  0  0  0  0  0  0  0  0
  191.2030  175.7130  138.4080 C   0  0  0  0  0  2  0  0  0  0  0  0
  188.8190  175.7590  137.4030 C   0  0  2  0  0  3  0  0  0  0  0  0
  187.4770  175.9900  137.7260 O   0  0  0  0  0  1  0  0  0  0  0  0
  191.3370  174.7610  136.1250 C   0  0  0  0  0  0  0  0  0  0  0  0
  191.4500  176.9240  140.6970 O   0  0  0  0  0  0  0  0  0  0  0  0
  192.3320  178.0060  140.6620 C   0  0  0  0  0  1  0  0  0  0  0  0
  1 31  1  6  0  0  0
  1  3  1  0  0  0  0
  2  4  1  0  0  0  0
  3  2  1  0  0  0  0
  3 10  1  0  0  0  0
  4 11  1  0  0  0  0
  4 18  1  0  0  0  0
  5 20  1  0  0  0  0
  5 19  1  0  0  0  0
  6  2  1  0  0  0  0
  7  8  1  0  0  0  0
  8 11  1  0  0  0  0
 10 13  1  0  0  0  0
 10 12  1  0  0  0  0
 12 15  1  0  0  0  0
 14  6  1  0  0  0  0
 15  9  1  0  0  0  0
 16 14  1  0  0  0  0
 16  1  1  0  0  0  0
 17  6  1  0  0  0  0
 17  8  1  0  0  0  0
 18 12  1  0  0  0  0
 18 15  1  0  0  0  0
 19  7  1  0  0  0  0
 20 17  2  0  0  0  0
 21 28  1  0  0  0  0
 22 30  2  0  0  0  0
 23 21  1  0  0  0  0
 24 27  1  0  0  0  0
 25 16  1  0  0  0  0
 26 21  2  0  0  0  0
 27 25  1  0  0  0  0
 28 29  1  0  0  0  0
 28 25  1  0  0  0  0
 30 26  1  0  0  0  0
 30 24  1  0  0  0  0
 32 31  1  0  0  0  0
M  END
>  <MODEL>
2

>  <REMARK>
 VINA RESULT:      -8.8      1.536      2.075
  Name = 
  2 active torsions:
  status: ('A' for Active; 'I' for Inactive)
    1  A    between atoms: C_1  and  O_4
    2  A    between atoms: C_16  and  C_27
                            x       y       z     vdW  Elec       q    Type
                         _______ _______ _______ _____ _____    ______ ____

>  <TORSDO>
F 2

$$$$
=
 OpenBabel10272413153D

 32 37  0  0  1  0  0  0  0  0999 V2000
  188.1390  177.5130  136.0800 C   0  0  2  0  0  3  0  0  0  0  0  0
  189.8020  177.1790  137.9070 C   0  0  2  0  0  3  0  0  0  0  0  0
  189.2620  176.5910  136.5970 C   0  0  2  0  0  3  0  0  0  0  0  0
  190.6160  176.1140  138.6360 C   0  0  2  0  0  3  0  0  0  0  0  0
  188.3720  178.1950  142.6250 C   0  0  0  0  0  2  0  0  0  0  0  0
  188.7090  177.8410  138.7950 C   0  0  1  0  0  3  0  0  0  0  0  0
  189.9900  176.2830  141.9800 C   0  0  0  0  0  2  0  0  0  0  0  0
  190.2970  177.2850  140.8610 C   0  0  1  0  0  3  0  0  0  0  0  0
  193.9380  175.8240  136.8300 C   0  0  0  0  0  1  0  0  0  0  0  0
  190.4490  176.3920  135.6450 C   0  0  1  0  0  3  0  0  0  0  0  0
  191.2930  176.7330  139.8490 C   0  0  0  0  0  2  0  0  0  0  0  0
  191.5560  175.5120  136.2460 C   0  0  1  0  0  3  0  0  0  0  0  0
  190.0230  175.7180  134.3540 C   0  0  0  0  0  1  0  0  0  0  0  0
  187.3200  177.2630  138.5040 C   0  0  0  0  0  2  0  0  0  0  0  0
  192.5460  176.3980  136.9850 C   0  0  1  0  0  3  0  0  0  0  0  0
  186.9170  177.4590  137.0360 C   0  0  2  0  0  3  0  0  0  0  0  0
  189.0160  177.8480  140.2780 C   0  0  0  0  0  0  0  0  0  0  0  0
  191.6910  175.4210  137.7740 C   0  0  1  0  0  3  0  0  0  0  0  0
  188.9170  176.7970  142.9670 C   0  0  0  0  0  2  0  0  0  0  0  0
  188.0980  178.2950  141.1500 C   0  0  0  0  0  3  0  0  0  0  0  0
  185.0210  174.0450  136.9210 C   0  0  0  0  0  0  0  0  0  0  0  0
  181.8600  175.0460  138.1710 O   0  0  0  0  0  0  0  0  0  0  0  0
  185.5060  172.8200  136.2190 C   0  0  0  0  0  1  0  0  0  0  0  0
  183.6720  176.5620  138.0310 C   0  0  0  0  0  2  0  0  0  0  0  0
  185.8250  176.4320  136.6750 C   0  0  2  0  0  3  0  0  0  0  0  0
  183.7460  174.1340  137.1710 N   0  0  0  0  0  0  0  0  0  0  0  0
  184.4070  177.0190  136.7780 C   0  0  0  0  0  2  0  0  0  0  0  0
  186.0130  175.0840  137.3890 C   0  0  2  0  0  3  0  0  0  0  0  0
  187.3260  174.6320  137.2240 O   0  0  0  0  0  1  0  0  0  0  0  0
  183.0500  175.2190  137.8060 C   0  0  0  0  0  0  0  0  0  0  0  0
  187.7760  177.2650  134.7520 O   0  0  0  0  0  0  0  0  0  0  0  0
  187.0980  178.4150  134.3460 C   0  0  0  0  0  1  0  0  0  0  0  0
  1 31  1  6  0  0  0
  1  3  1  0  0  0  0
  1 16  1  0  0  0  0
  2  4  1  0  0  0  0
  2  6  1  0  0  0  0
  3  2  1  0  0  0  0
  4 11  1  0  0  0  0
  5 19  1  0  0  0  0
  6 17  1  0  0  0  0
  7 19  1  0  0  0  0
  8  7  1  0  0  0  0
  9 15  1  0  0  0  0
 10 12  1  0  0  0  0
 10  3  1  0  0  0  0
 11  8  1  0  0  0  0
 12 15  1  0  0  0  0
 12 18  1  0  0  0  0
 13 10  1  0  0  0  0
 14  6  1  0  0  0  0
 15 18  1  0  0  0  0
 16 14  1  0  0  0  0
 17  8  1  0  0  0  0
 17 20  2  0  0  0  0
 18  4  1  0  0  0  0
 20  5  1  0  0  0  0
 21 26  2  0  0  0  0
 21 28  1  0  0  0  0
 23 21  1  0  0  0  0
 25 27  1  0  0  0  0
 25 16  1  0  0  0  0
 25 28  1  0  0  0  0
 26 30  1  0  0  0  0
 27 24  1  0  0  0  0
 29 28  1  0  0  0  0
 30 24  1  0  0  0  0
 30 22  2  0  0  0  0
 32 31  1  0  0  0  0
M  END
>  <MODEL>
3

>  <REMARK>
 VINA RESULT:      -8.4      3.318      7.655
  Name = 
  2 active torsions:
  status: ('A' for Active; 'I' for Inactive)
    1  A    between atoms: C_1  and  O_4
    2  A    between atoms: C_16  and  C_27
                            x       y       z     vdW  Elec       q    Type
                         _______ _______ _______ _____ _____    ______ ____

>  <TORSDO>
F 2

$$$$
=
 OpenBabel10272413153D

 32 37  0  0  1  0  0  0  0  0999 V2000
  183.2810  178.4660  140.1030 C   0  0  2  0  0  3  0  0  0  0  0  0
  184.1560  177.5150  137.9710 C   0  0  2  0  0  3  0  0  0  0  0  0
  183.3020  177.2100  139.2090 C   0  0  2  0  0  3  0  0  0  0  0  0
  184.5190  176.2050  137.2780 C   0  0  2  0  0  3  0  0  0  0  0  0
  188.8860  178.6160  136.6510 C   0  0  0  0  0  2  0  0  0  0  0  0
  185.3830  178.4240  138.2650 C   0  0  1  0  0  3  0  0  0  0  0  0
  187.7430  176.3430  136.1880 C   0  0  0  0  0  2  0  0  0  0  0  0
  186.5240  177.2710  136.1500 C   0  0  1  0  0  3  0  0  0  0  0  0
  181.4170  175.0180  135.4480 C   0  0  0  0  0  1  0  0  0  0  0  0
  181.9320  176.7150  138.7260 C   0  0  1  0  0  3  0  0  0  0  0  0
  185.2200  176.5040  135.9620 C   0  0  0  0  0  2  0  0  0  0  0  0
  182.0310  175.4970  137.7940 C   0  0  1  0  0  3  0  0  0  0  0  0
  181.0510  176.2910  139.8870 C   0  0  0  0  0  1  0  0  0  0  0  0
  185.8210  178.3250  139.7290 C   0  0  0  0  0  2  0  0  0  0  0  0
  182.1460  175.9830  136.3580 C   0  0  1  0  0  3  0  0  0  0  0  0
  184.6940  178.7310  140.6900 C   0  0  2  0  0  3  0  0  0  0  0  0
  186.5500  178.2390  137.3150 C   0  0  0  0  0  0  0  0  0  0  0  0
  183.3250  175.2710  136.9970 C   0  0  1  0  0  3  0  0  0  0  0  0
  189.0630  177.0990  136.4630 C   0  0  0  0  0  2  0  0  0  0  0  0
  187.7030  178.8920  137.5360 C   0  0  0  0  0  3  0  0  0  0  0  0
  186.7100  177.6620  143.8610 C   0  0  0  0  0  0  0  0  0  0  0  0
  184.8100  179.2770  146.3800 O   0  0  0  0  0  0  0  0  0  0  0  0
  187.7630  176.6050  143.8900 C   0  0  0  0  0  1  0  0  0  0  0  0
  184.2930  179.5320  144.0840 C   0  0  0  0  0  2  0  0  0  0  0  0
  184.9730  178.1190  142.0770 C   0  0  2  0  0  3  0  0  0  0  0  0
  186.1370  177.9770  144.9870 N   0  0  0  0  0  0  0  0  0  0  0  0
  183.8730  178.4490  143.1000 C   0  0  0  0  0  2  0  0  0  0  0  0
  186.4050  178.3850  142.5690 C   0  0  2  0  0  3  0  0  0  0  0  0
  187.3270  178.0400  141.5750 O   0  0  0  0  0  1  0  0  0  0  0  0
  185.0890  178.9360  145.2020 C   0  0  0  0  0  0  0  0  0  0  0  0
  182.3000  178.4290  141.1000 O   0  0  0  0  0  0  0  0  0  0  0  0
  181.4520  179.4970  140.8060 C   0  0  0  0  0  1  0  0  0  0  0  0
  1 16  1  0  0  0  0
  1 31  1  1  0  0  0
  2  6  1  0  0  0  0
  2  3  1  0  0  0  0
  3  1  1  0  0  0  0
  4  2  1  0  0  0  0
  5 20  1  0  0  0  0
  6 14  1  0  0  0  0
  7 19  1  0  0  0  0
  8  7  1  0  0  0  0
  8 17  1  0  0  0  0
  9 15  1  0  0  0  0
 10  3  1  0  0  0  0
 10 13  1  0  0  0  0
 11  8  1  0  0  0  0
 11  4  1  0  0  0  0
 12 10  1  0  0  0  0
 14 16  1  0  0  0  0
 15 18  1  0  0  0  0
 15 12  1  0  0  0  0
 16 25  1  0  0  0  0
 17 20  2  0  0  0  0
 17  6  1  0  0  0  0
 18  4  1  0  0  0  0
 18 12  1  0  0  0  0
 19  5  1  0  0  0  0
 21 23  1  0  0  0  0
 21 26  2  0  0  0  0
 24 30  1  0  0  0  0
 25 28  1  0  0  0  0
 25 27  1  0  0  0  0
 26 30  1  0  0  0  0
 27 24  1  0  0  0  0
 28 21  1  0  0  0  0
 29 28  1  0  0  0  0
 30 22  2  0  0  0  0
 32 31  1  0  0  0  0
M  END
>  <MODEL>
4

>  <REMARK>
 VINA RESULT:      -8.3      3.459      7.700
  Name = 
  2 active torsions:
  status: ('A' for Active; 'I' for Inactive)
    1  A    between atoms: C_1  and  O_4
    2  A    between atoms: C_16  and  C_27
                            x       y       z     vdW  Elec       q    Type
                         _______ _______ _______ _____ _____    ______ ____

>  <TORSDO>
F 2

$$$$
=
 OpenBabel10272413153D

 32 37  0  0  1  0  0  0  0  0999 V2000
  187.6890  177.5960  136.6230 C   0  0  2  0  0  3  0  0  0  0  0  0
  188.4320  177.8790  138.9860 C   0  0  2  0  0  3  0  0  0  0  0  0
  188.5910  177.0130  137.7300 C   0  0  2  0  0  3  0  0  0  0  0  0
  188.9860  177.1220  140.1900 C   0  0  2  0  0  3  0  0  0  0  0  0
  184.9910  179.2220  142.4050 C   0  0  0  0  0  2  0  0  0  0  0  0
  186.9870  178.4130  139.2000 C   0  0  1  0  0  3  0  0  0  0  0  0
  186.9660  177.6230  142.8860 C   0  0  0  0  0  2  0  0  0  0  0  0
  187.5890  178.5000  141.7940 C   0  0  1  0  0  3  0  0  0  0  0  0
  192.7680  177.2880  139.9620 C   0  0  0  0  0  1  0  0  0  0  0  0
  190.0870  176.9370  137.3960 C   0  0  1  0  0  3  0  0  0  0  0  0
  188.9870  178.0340  141.4060 C   0  0  0  0  0  2  0  0  0  0  0  0
  190.9330  176.4020  138.5620 C   0  0  1  0  0  3  0  0  0  0  0  0
  190.3510  176.0130  136.2200 C   0  0  0  0  0  1  0  0  0  0  0  0
  185.9480  177.5210  138.5130 C   0  0  0  0  0  2  0  0  0  0  0  0
  191.3820  177.5720  139.4240 C   0  0  1  0  0  3  0  0  0  0  0  0
  186.1930  177.4190  137.0010 C   0  0  2  0  0  3  0  0  0  0  0  0
  186.6220  178.6930  140.6440 C   0  0  0  0  0  0  0  0  0  0  0  0
  190.4080  176.5580  139.9980 C   0  0  1  0  0  3  0  0  0  0  0  0
  185.5150  178.0330  143.2290 C   0  0  0  0  0  2  0  0  0  0  0  0
  185.3680  179.0550  140.9590 C   0  0  0  0  0  3  0  0  0  0  0  0
  185.2150  173.6470  136.7370 C   0  0  0  0  0  0  0  0  0  0  0  0
  181.6870  173.9010  136.9550 O   0  0  0  0  0  0  0  0  0  0  0  0
  186.1410  172.5480  136.3320 C   0  0  0  0  0  1  0  0  0  0  0  0
  183.0810  175.8040  137.1560 C   0  0  0  0  0  2  0  0  0  0  0  0
  185.5090  176.1460  136.4670 C   0  0  2  0  0  3  0  0  0  0  0  0
  183.9360  173.4350  136.6160 N   0  0  0  0  0  0  0  0  0  0  0  0
  184.0300  176.3750  136.1120 C   0  0  0  0  0  2  0  0  0  0  0  0
  185.7720  174.9120  137.3460 C   0  0  2  0  0  3  0  0  0  0  0  0
  187.1420  174.7850  137.5970 O   0  0  0  0  0  1  0  0  0  0  0  0
  182.8640  174.3430  136.9150 C   0  0  0  0  0  0  0  0  0  0  0  0
  187.9690  177.0920  135.3480 O   0  0  0  0  0  0  0  0  0  0  0  0
  187.4740  178.0560  134.4670 C   0  0  0  0  0  1  0  0  0  0  0  0
  1 31  1  6  0  0  0
  1 16  1  0  0  0  0
  1  3  1  0  0  0  0
  2  6  1  0  0  0  0
  2  4  1  0  0  0  0
  3  2  1  0  0  0  0
  4 11  1  0  0  0  0
  5 19  1  0  0  0  0
  6 17  1  0  0  0  0
  7 19  1  0  0  0  0
  8  7  1  0  0  0  0
 10  3  1  0  0  0  0
 10 12  1  0  0  0  0
 11  8  1  0  0  0  0
 12 15  1  0  0  0  0
 12 18  1  0  0  0  0
 13 10  1  0  0  0  0
 14  6  1  0  0  0  0
 15  9  1  0  0  0  0
 15 18  1  0  0  0  0
 16 14  1  0  0  0  0
 17 20  2  0  0  0  0
 17  8  1  0  0  0  0
 18  4  1  0  0  0  0
 20  5  1  0  0  0  0
 21 28  1  0  0  0  0
 23 21  1  0  0  0  0
 25 16  1  0  0  0  0
 25 28  1  0  0  0  0
 26 21  2  0  0  0  0
 26 30  1  0  0  0  0
 27 25  1  0  0  0  0
 27 24  1  0  0  0  0
 28 29  1  0  0  0  0
 30 22  2  0  0  0  0
 30 24  1  0  0  0  0
 32 31  1  0  0  0  0
M  END
>  <MODEL>
5

>  <REMARK>
 VINA RESULT:      -8.0      3.178      6.585
  Name = 
  2 active torsions:
  status: ('A' for Active; 'I' for Inactive)
    1  A    between atoms: C_1  and  O_4
    2  A    between atoms: C_16  and  C_27
                            x       y       z     vdW  Elec       q    Type
                         _______ _______ _______ _____ _____    ______ ____

>  <TORSDO>
F 2

$$$$
=
 OpenBabel10272413153D

 32 37  0  0  1  0  0  0  0  0999 V2000
  186.9070  177.5390  136.4900 C   0  0  2  0  0  3  0  0  0  0  0  0
  188.0190  177.7870  138.7080 C   0  0  2  0  0  3  0  0  0  0  0  0
  187.9310  176.9070  137.4550 C   0  0  2  0  0  3  0  0  0  0  0  0
  188.7050  177.0030  139.8230 C   0  0  2  0  0  3  0  0  0  0  0  0
  185.2330  179.3580  142.5930 C   0  0  0  0  0  2  0  0  0  0  0  0
  186.6600  178.4110  139.1330 C   0  0  1  0  0  3  0  0  0  0  0  0
  187.1580  177.6410  142.7890 C   0  0  0  0  0  2  0  0  0  0  0  0
  187.6570  178.4720  141.6030 C   0  0  1  0  0  3  0  0  0  0  0  0
  192.4100  176.9330  139.0180 C   0  0  0  0  0  1  0  0  0  0  0  0
  189.3510  176.7360  136.8970 C   0  0  1  0  0  3  0  0  0  0  0  0
  188.9480  177.9190  141.0120 C   0  0  0  0  0  2  0  0  0  0  0  0
  190.3320  176.1560  137.9270 C   0  0  1  0  0  3  0  0  0  0  0  0
  189.3750  175.7920  135.7080 C   0  0  0  0  0  1  0  0  0  0  0  0
  185.4750  177.5820  138.6260 C   0  0  0  0  0  2  0  0  0  0  0  0
  190.9780  177.2990  138.6940 C   0  0  1  0  0  3  0  0  0  0  0  0
  185.4790  177.4570  137.0960 C   0  0  2  0  0  3  0  0  0  0  0  0
  186.5380  178.7200  140.6110 C   0  0  0  0  0  0  0  0  0  0  0  0
  190.0440  176.3500  139.4240 C   0  0  1  0  0  3  0  0  0  0  0  0
  185.8040  178.1420  143.3440 C   0  0  0  0  0  2  0  0  0  0  0  0
  185.3720  179.1600  141.1100 C   0  0  0  0  0  3  0  0  0  0  0  0
  183.2520  175.1340  134.8820 C   0  0  0  0  0  0  0  0  0  0  0  0
  185.2250  172.1900  134.8860 O   0  0  0  0  0  0  0  0  0  0  0  0
  181.8420  175.4230  134.4860 C   0  0  0  0  0  1  0  0  0  0  0  0
  185.9590  174.1750  135.9490 C   0  0  0  0  0  2  0  0  0  0  0  0
  184.6450  176.2260  136.6910 C   0  0  2  0  0  3  0  0  0  0  0  0
  183.6490  173.8950  134.8420 N   0  0  0  0  0  0  0  0  0  0  0  0
  185.3020  174.9020  137.1140 C   0  0  0  0  0  2  0  0  0  0  0  0
  184.1840  176.2720  135.2250 C   0  0  2  0  0  3  0  0  0  0  0  0
  183.5880  177.5080  134.9470 O   0  0  0  0  0  1  0  0  0  0  0  0
  184.9410  173.3750  135.1980 C   0  0  0  0  0  0  0  0  0  0  0  0
  186.9560  177.0130  135.1950 O   0  0  0  0  0  0  0  0  0  0  0  0
  186.9870  178.1290  134.3580 C   0  0  0  0  0  1  0  0  0  0  0  0
  1 31  1  6  0  0  0
  1 16  1  0  0  0  0
  1  3  1  0  0  0  0
  2  6  1  0  0  0  0
  2  4  1  0  0  0  0
  3  2  1  0  0  0  0
  4 11  1  0  0  0  0
  5 19  1  0  0  0  0
  6 17  1  0  0  0  0
  7 19  1  0  0  0  0
  8  7  1  0  0  0  0
 10  3  1  0  0  0  0
 10 12  1  0  0  0  0
 11  8  1  0  0  0  0
 12 15  1  0  0  0  0
 12 18  1  0  0  0  0
 13 10  1  0  0  0  0
 14  6  1  0  0  0  0
 15  9  1  0  0  0  0
 15 18  1  0  0  0  0
 16 14  1  0  0  0  0
 17 20  2  0  0  0  0
 17  8  1  0  0  0  0
 18  4  1  0  0  0  0
 20  5  1  0  0  0  0
 21 28  1  0  0  0  0
 22 30  2  0  0  0  0
 23 21  1  0  0  0  0
 24 27  1  0  0  0  0
 25 16  1  0  0  0  0
 25 27  1  0  0  0  0
 26 21  2  0  0  0  0
 26 30  1  0  0  0  0
 28 25  1  0  0  0  0
 29 28  1  0  0  0  0
 30 24  1  0  0  0  0
 32 31  1  0  0  0  0
M  END
>  <MODEL>
6

>  <REMARK>
 VINA RESULT:      -7.7      3.587      6.813
  Name = 
  2 active torsions:
  status: ('A' for Active; 'I' for Inactive)
    1  A    between atoms: C_1  and  O_4
    2  A    between atoms: C_16  and  C_27
                            x       y       z     vdW  Elec       q    Type
                         _______ _______ _______ _____ _____    ______ ____

>  <TORSDO>
F 2

$$$$
=
 OpenBabel10272413153D

 32 37  0  0  1  0  0  0  0  0999 V2000
  188.1060  177.0850  136.1850 C   0  0  2  0  0  3  0  0  0  0  0  0
  189.9990  177.0550  137.8070 C   0  0  2  0  0  3  0  0  0  0  0  0
  189.3760  176.3220  136.6120 C   0  0  2  0  0  3  0  0  0  0  0  0
  191.0060  176.1330  138.4900 C   0  0  2  0  0  3  0  0  0  0  0  0
  189.0330  178.2570  142.5980 C   0  0  0  0  0  2  0  0  0  0  0  0
  188.9530  177.6640  138.7830 C   0  0  1  0  0  3  0  0  0  0  0  0
  190.7650  176.4790  141.8700 C   0  0  0  0  0  2  0  0  0  0  0  0
  190.8250  177.4230  140.6640 C   0  0  1  0  0  3  0  0  0  0  0  0
  194.1030  176.0540  136.3030 C   0  0  0  0  0  1  0  0  0  0  0  0
  190.4580  176.1770  135.5330 C   0  0  1  0  0  3  0  0  0  0  0  0
  191.7490  176.9040  139.5700 C   0  0  0  0  0  2  0  0  0  0  0  0
  191.7180  175.4590  136.0410 C   0  0  1  0  0  3  0  0  0  0  0  0
  189.9590  175.3710  134.3470 C   0  0  0  0  0  1  0  0  0  0  0  0
  187.6110  176.9280  138.7040 C   0  0  0  0  0  2  0  0  0  0  0  0
  192.6840  176.4930  136.5970 C   0  0  1  0  0  3  0  0  0  0  0  0
  187.0180  176.9740  137.2880 C   0  0  2  0  0  3  0  0  0  0  0  0
  189.4300  177.8090  140.2140 C   0  0  0  0  0  0  0  0  0  0  0  0
  192.0410  175.4930  137.5430 C   0  0  1  0  0  3  0  0  0  0  0  0
  189.7660  176.9500  142.9520 C   0  0  0  0  0  2  0  0  0  0  0  0
  188.5780  178.2220  141.1660 C   0  0  0  0  0  3  0  0  0  0  0  0
  183.8670  175.0360  136.0360 C   0  0  0  0  0  0  0  0  0  0  0  0
  185.4130  172.1720  134.6330 O   0  0  0  0  0  0  0  0  0  0  0  0
  182.4580  175.3650  136.4020 C   0  0  0  0  0  1  0  0  0  0  0  0
  186.6880  173.9520  135.5330 C   0  0  0  0  0  2  0  0  0  0  0  0
  186.0110  175.8190  137.1290 C   0  0  2  0  0  3  0  0  0  0  0  0
  184.1160  173.8300  135.6130 N   0  0  0  0  0  0  0  0  0  0  0  0
  186.7000  174.4530  136.9710 C   0  0  0  0  0  2  0  0  0  0  0  0
  184.9250  176.1130  136.0810 C   0  0  2  0  0  3  0  0  0  0  0  0
  184.3530  177.3670  136.3210 O   0  0  0  0  0  1  0  0  0  0  0  0
  185.3870  173.2790  135.2300 C   0  0  0  0  0  0  0  0  0  0  0  0
  187.6180  176.7050  134.9300 O   0  0  0  0  0  0  0  0  0  0  0  0
  187.0980  177.8770  134.3800 C   0  0  0  0  0  1  0  0  0  0  0  0
  1 31  1  6  0  0  0
  1  3  1  0  0  0  0
  1 16  1  0  0  0  0
  2  4  1  0  0  0  0
  2  6  1  0  0  0  0
  3  2  1  0  0  0  0
  4 11  1  0  0  0  0
  5 19  1  0  0  0  0
  6 17  1  0  0  0  0
  7 19  1  0  0  0  0
  8  7  1  0  0  0  0
  9 15  1  0  0  0  0
 10 12  1  0  0  0  0
 10  3  1  0  0  0  0
 11  8  1  0  0  0  0
 12 15  1  0  0  0  0
 12 18  1  0  0  0  0
 13 10  1  0  0  0  0
 14  6  1  0  0  0  0
 15 18  1  0  0  0  0
 16 14  1  0  0  0  0
 17  8  1  0  0  0  0
 17 20  2  0  0  0  0
 18  4  1  0  0  0  0
 20  5  1  0  0  0  0
 21 28  1  0  0  0  0
 21 23  1  0  0  0  0
 22 30  2  0  0  0  0
 24 27  1  0  0  0  0
 25 16  1  0  0  0  0
 26 21  2  0  0  0  0
 27 25  1  0  0  0  0
 28 29  1  0  0  0  0
 28 25  1  0  0  0  0
 30 24  1  0  0  0  0
 30 26  1  0  0  0  0
 32 31  1  0  0  0  0
M  END
>  <MODEL>
7

>  <REMARK>
 VINA RESULT:      -7.6      3.757      7.769
  Name = 
  2 active torsions:
  status: ('A' for Active; 'I' for Inactive)
    1  A    between atoms: C_1  and  O_4
    2  A    between atoms: C_16  and  C_27
                            x       y       z     vdW  Elec       q    Type
                         _______ _______ _______ _____ _____    ______ ____

>  <TORSDO>
F 2

$$$$
=
 OpenBabel10272413153D

 32 37  0  0  1  0  0  0  0  0999 V2000
  187.8400  178.3940  139.4700 C   0  0  2  0  0  3  0  0  0  0  0  0
  187.9050  178.1930  141.9550 C   0  0  2  0  0  3  0  0  0  0  0  0
  188.2840  177.4950  140.6420 C   0  0  2  0  0  3  0  0  0  0  0  0
  187.9670  177.1810  143.0960 C   0  0  2  0  0  3  0  0  0  0  0  0
  183.8770  179.7120  144.5610 C   0  0  0  0  0  2  0  0  0  0  0  0
  186.5610  178.9710  141.8860 C   0  0  1  0  0  3  0  0  0  0  0  0
  185.3590  177.6990  145.2250 C   0  0  0  0  0  2  0  0  0  0  0  0
  186.3970  178.5750  144.5160 C   0  0  1  0  0  3  0  0  0  0  0  0
  191.6320  176.6160  143.8860 C   0  0  0  0  0  1  0  0  0  0  0  0
  189.7820  177.1680  140.6970 C   0  0  1  0  0  3  0  0  0  0  0  0
  187.7580  177.8970  144.4210 C   0  0  0  0  0  2  0  0  0  0  0  0
  190.1640  176.3180  141.9190 C   0  0  1  0  0  3  0  0  0  0  0  0
  190.2280  176.3810  139.4770 C   0  0  0  0  0  1  0  0  0  0  0  0
  185.6380  178.4090  140.7990 C   0  0  0  0  0  2  0  0  0  0  0  0
  190.5210  177.2430  143.0720 C   0  0  1  0  0  3  0  0  0  0  0  0
  186.2900  178.4700  139.4100 C   0  0  2  0  0  3  0  0  0  0  0  0
  185.8430  179.1150  143.2130 C   0  0  0  0  0  0  0  0  0  0  0  0
  189.2790  176.3750  143.1740 C   0  0  1  0  0  3  0  0  0  0  0  0
  183.9520  178.3390  145.2530 C   0  0  0  0  0  2  0  0  0  0  0  0
  184.6230  179.6740  143.2570 C   0  0  0  0  0  3  0  0  0  0  0  0
  183.7390  177.0370  136.8220 C   0  0  0  0  0  0  0  0  0  0  0  0
  185.9720  175.8320  134.3480 O   0  0  0  0  0  0  0  0  0  0  0  0
  182.2840  176.8270  137.0800 C   0  0  0  0  0  1  0  0  0  0  0  0
  186.7510  176.9860  136.2630 C   0  0  0  0  0  2  0  0  0  0  0  0
  185.6000  177.4450  138.4880 C   0  0  2  0  0  3  0  0  0  0  0  0
  184.2860  176.3580  135.8540 N   0  0  0  0  0  0  0  0  0  0  0  0
  186.6050  176.5710  137.7200 C   0  0  0  0  0  2  0  0  0  0  0  0
  184.5010  178.0730  137.6150 C   0  0  2  0  0  3  0  0  0  0  0  0
  183.6330  178.8330  138.4080 O   0  0  0  0  0  1  0  0  0  0  0  0
  185.6610  176.3740  135.4390 C   0  0  0  0  0  0  0  0  0  0  0  0
  188.3930  178.0250  138.2390 O   0  0  0  0  0  0  0  0  0  0  0  0
  189.0050  179.1860  137.7620 C   0  0  0  0  0  1  0  0  0  0  0  0
  1 31  1  6  0  0  0
  1  3  1  0  0  0  0
  2  4  1  0  0  0  0
  3 10  1  0  0  0  0
  3  2  1  0  0  0  0
  4 18  1  0  0  0  0
  4 11  1  0  0  0  0
  5 19  1  0  0  0  0
  6  2  1  0  0  0  0
  6 17  1  0  0  0  0
  7 19  1  0  0  0  0
  8  7  1  0  0  0  0
 10 12  1  0  0  0  0
 11  8  1  0  0  0  0
 12 15  1  0  0  0  0
 12 18  1  0  0  0  0
 13 10  1  0  0  0  0
 14  6  1  0  0  0  0
 15 18  1  0  0  0  0
 15  9  1  0  0  0  0
 16  1  1  0  0  0  0
 16 14  1  0  0  0  0
 17 20  2  0  0  0  0
 17  8  1  0  0  0  0
 20  5  1  0  0  0  0
 21 23  1  0  0  0  0
 21 28  1  0  0  0  0
 22 30  2  0  0  0  0
 24 27  1  0  0  0  0
 25 16  1  0  0  0  0
 26 21  2  0  0  0  0
 27 25  1  0  0  0  0
 28 29  1  0  0  0  0
 28 25  1  0  0  0  0
 30 26  1  0  0  0  0
 30 24  1  0  0  0  0
 32 31  1  0  0  0  0
M  END
>  <MODEL>
8

>  <REMARK>
 VINA RESULT:      -7.5      2.664      5.113
  Name = 
  2 active torsions:
  status: ('A' for Active; 'I' for Inactive)
    1  A    between atoms: C_1  and  O_4
    2  A    between atoms: C_16  and  C_27
                            x       y       z     vdW  Elec       q    Type
                         _______ _______ _______ _____ _____    ______ ____

>  <TORSDO>
F 2

$$$$
=
 OpenBabel10272413153D

 32 37  0  0  1  0  0  0  0  0999 V2000
  185.5370  179.2220  142.4640 C   0  0  2  0  0  3  0  0  0  0  0  0
  184.4570  178.6500  140.2910 C   0  0  2  0  0  3  0  0  0  0  0  0
  184.4090  178.4040  141.8040 C   0  0  2  0  0  3  0  0  0  0  0  0
  183.6340  177.5780  139.5820 C   0  0  2  0  0  3  0  0  0  0  0  0
  187.4250  177.9020  136.2960 C   0  0  0  0  0  2  0  0  0  0  0  0
  185.8990  178.8010  139.7260 C   0  0  1  0  0  3  0  0  0  0  0  0
  185.2330  176.6020  136.7380 C   0  0  0  0  0  2  0  0  0  0  0  0
  184.8970  177.9350  137.4140 C   0  0  1  0  0  3  0  0  0  0  0  0
  179.9820  178.4560  140.0990 C   0  0  0  0  0  1  0  0  0  0  0  0
  182.9870  178.7220  142.2880 C   0  0  1  0  0  3  0  0  0  0  0  0
  183.5380  177.9080  138.1010 C   0  0  0  0  0  2  0  0  0  0  0  0
  181.9090  177.9140  141.5490 C   0  0  1  0  0  3  0  0  0  0  0  0
  182.8160  178.4090  143.7640 C   0  0  0  0  0  1  0  0  0  0  0  0
  186.9300  178.1000  140.6160 C   0  0  0  0  0  2  0  0  0  0  0  0
  181.4590  178.6940  140.3240 C   0  0  1  0  0  3  0  0  0  0  0  0
  186.9220  178.6590  142.0470 C   0  0  2  0  0  3  0  0  0  0  0  0
  186.0530  178.4100  138.2710 C   0  0  0  0  0  0  0  0  0  0  0  0
  182.2080  177.3870  140.1370 C   0  0  1  0  0  3  0  0  0  0  0  0
  186.6460  176.5880  136.1090 C   0  0  0  0  0  2  0  0  0  0  0  0
  187.2720  178.3960  137.7070 C   0  0  0  0  0  3  0  0  0  0  0  0
  189.6580  176.7430  144.0730 C   0  0  0  0  0  0  0  0  0  0  0  0
  188.3350  177.0470  147.3470 O   0  0  0  0  0  0  0  0  0  0  0  0
  190.7280  175.8920  143.4740 C   0  0  0  0  0  1  0  0  0  0  0  0
  187.2900  178.0760  145.4890 C   0  0  0  0  0  2  0  0  0  0  0  0
  187.5390  177.6130  142.9960 C   0  0  2  0  0  3  0  0  0  0  0  0
  189.3510  176.5380  145.3220 N   0  0  0  0  0  0  0  0  0  0  0  0
  186.6950  177.3960  144.2630 C   0  0  0  0  0  2  0  0  0  0  0  0
  189.0350  177.8520  143.2570 C   0  0  2  0  0  3  0  0  0  0  0  0
  189.7130  178.0220  142.0450 O   0  0  0  0  0  1  0  0  0  0  0  0
  188.3460  177.2100  146.1000 C   0  0  0  0  0  0  0  0  0  0  0  0
  185.4130  179.3300  143.8530 O   0  0  0  0  0  0  0  0  0  0  0  0
  185.2320  180.6930  144.0910 C   0  0  0  0  0  1  0  0  0  0  0  0
  1 31  1  1  0  0  0
  2  3  1  0  0  0  0
  3 10  1  0  0  0  0
  3  1  1  0  0  0  0
  4 18  1  0  0  0  0
  4  2  1  0  0  0  0
  5 20  1  0  0  0  0
  6  2  1  0  0  0  0
  6 14  1  0  0  0  0
  7  8  1  0  0  0  0
  8 11  1  0  0  0  0
  8 17  1  0  0  0  0
  9 15  1  0  0  0  0
 10 13  1  0  0  0  0
 11  4  1  0  0  0  0
 12 10  1  0  0  0  0
 14 16  1  0  0  0  0
 15 12  1  0  0  0  0
 16  1  1  0  0  0  0
 16 25  1  0  0  0  0
 17  6  1  0  0  0  0
 18 15  1  0  0  0  0
 18 12  1  0  0  0  0
 19  5  1  0  0  0  0
 19  7  1  0  0  0  0
 20 17  2  0  0  0  0
 21 26  2  0  0  0  0
 23 21  1  0  0  0  0
 24 30  1  0  0  0  0
 25 28  1  0  0  0  0
 25 27  1  0  0  0  0
 26 30  1  0  0  0  0
 27 24  1  0  0  0  0
 28 21  1  0  0  0  0
 29 28  1  0  0  0  0
 30 22  2  0  0  0  0
 31 32  1  0  0  0  0
M  END
>  <MODEL>
9

>  <REMARK>
 VINA RESULT:      -7.3      2.803      5.738
  Name = 
  2 active torsions:
  status: ('A' for Active; 'I' for Inactive)
    1  A    between atoms: C_1  and  O_4
    2  A    between atoms: C_16  and  C_27
                            x       y       z     vdW  Elec       q    Type
                         _______ _______ _______ _____ _____    ______ ____

>  <TORSDO>
F 2

$$$$
