=
 OpenBabel10272413253D

 32 38  0  0  1  0  0  0  0  0999 V2000
  188.6190  177.3800  148.0030 C   0  0  0  0  0  3  0  0  0  0  0  0
  186.9410  178.2640  143.2710 C   0  0  0  0  0  0  0  0  0  0  0  0
  182.0280  178.8460  143.8110 C   0  0  0  0  0  3  0  0  0  0  0  0
  181.8980  178.9790  142.4290 C   0  0  0  0  0  3  0  0  0  0  0  0
  187.9670  178.3940  140.9600 C   0  0  0  0  0  0  0  0  0  0  0  0
  189.1870  177.8030  141.6260 C   0  0  0  0  0  0  0  0  0  0  0  0
  188.3180  177.7380  145.2390 C   0  0  0  0  0  0  0  0  0  0  0  0
  185.8190  177.7230  145.4710 C   0  0  0  0  0  2  0  0  0  0  0  0
  188.7180  177.1790  138.9260 C   0  0  0  0  0  0  0  0  0  0  0  0
  187.3400  177.4910  147.4500 C   0  0  0  0  0  3  0  0  0  0  0  0
  183.2950  178.7030  144.3820 C   0  0  0  0  0  3  0  0  0  0  0  0
  185.8080  178.6210  144.2250 C   0  0  2  0  0  3  0  0  0  0  0  0
  184.4470  178.6680  143.5770 C   0  0  0  0  0  0  0  0  0  0  0  0
  185.5030  178.8400  141.3220 C   0  0  0  0  0  0  0  0  0  0  0  0
  190.0850  177.1040  139.4890 C   0  0  0  0  0  3  0  0  0  0  0  0
  187.1870  177.6810  146.0740 C   0  0  0  0  0  0  0  0  0  0  0  0
  190.3110  177.3830  140.7770 C   0  0  0  0  0  2  0  0  0  0  0  0
  189.5960  177.6170  145.8000 C   0  0  0  0  0  3  0  0  0  0  0  0
  189.7480  177.4490  147.1800 C   0  0  0  0  0  0  0  0  0  0  0  0
  183.0360  178.9760  141.6200 C   0  0  0  0  0  3  0  0  0  0  0  0
  184.3120  178.8270  142.1850 C   0  0  0  0  0  0  0  0  0  0  0  0
  185.3940  179.2270  140.1270 O   0  0  0  0  0  0  0  0  0  0  0  0
  188.1450  177.9190  143.7800 C   0  0  0  0  0  0  0  0  0  0  0  0
  189.2480  177.6400  142.9090 N   0  0  0  0  0  0  0  0  0  0  0  0
  188.3930  176.4820  137.3550 Cl  0  0  0  0  0  0  0  0  0  0  0  0
  186.7820  178.4210  141.8410 N   0  0  0  0  0  0  0  0  0  0  0  0
  187.7130  177.7070  139.6360 C   0  0  0  0  0  3  0  0  0  0  0  0
  191.1070  177.3010  147.7650 C   0  0  0  0  0  2  0  0  0  0  0  0
  193.0540  175.8070  147.6290 C   0  0  1  0  0  3  0  0  0  0  0  0
  191.9300  176.4580  146.9030 N   0  0  0  0  0  0  0  0  0  0  0  0
  193.1480  176.2210  148.9640 O   0  0  0  0  0  1  0  0  0  0  0  0
  191.8040  175.0870  147.4190 C   0  0  0  0  0  2  0  0  0  0  0  0
  2 23  2  0  0  0  0
  2 12  1  0  0  0  0
  3 11  1  0  0  0  0
  4  3  2  0  0  0  0
  5  6  1  0  0  0  0
  5 26  1  0  0  0  0
  6 24  2  0  0  0  0
  7 18  2  0  0  0  0
  7 16  1  0  0  0  0
  8 16  1  0  0  0  0
  9 15  2  0  0  0  0
  9 27  1  0  0  0  0
 10  1  1  0  0  0  0
 12  8  1  1  0  0  0
 13 12  1  0  0  0  0
 13 11  2  0  0  0  0
 14 26  1  0  0  0  0
 14 21  1  0  0  0  0
 15 17  1  0  0  0  0
 16 10  2  0  0  0  0
 17  6  1  0  0  0  0
 18 19  1  0  0  0  0
 19 28  1  0  0  0  0
 19  1  2  0  0  0  0
 20 21  2  0  0  0  0
 20  4  1  0  0  0  0
 21 13  1  0  0  0  0
 22 14  2  0  0  0  0
 23  7  1  0  0  0  0
 24 23  1  0  0  0  0
 25  9  1  0  0  0  0
 26  2  1  0  0  0  0
 27  5  2  0  0  0  0
 29 31  1  1  0  0  0
 30 32  1  0  0  0  0
 30 29  1  0  0  0  0
 30 28  1  0  0  0  0
 32 29  1  0  0  0  0
M  END
>  <MODEL>
1

>  <REMARK>
 VINA RESULT:     -11.7      0.000      0.000
  Name = 
  2 active torsions:
  status: ('A' for Active; 'I' for Inactive)
    1  A    between atoms: N_10  and  C_19
    2  A    between atoms: C_19  and  C_24
                            x       y       z     vdW  Elec       q    Type
                         _______ _______ _______ _____ _____    ______ ____

>  <TORSDO>
F 2

$$$$
=
 OpenBabel10272413253D

 32 38  0  0  1  0  0  0  0  0999 V2000
  182.7280  179.1140  143.3360 C   0  0  0  0  0  3  0  0  0  0  0  0
  187.5700  177.6100  143.8660 C   0  0  0  0  0  0  0  0  0  0  0  0
  188.4560  178.0600  148.7430 C   0  0  0  0  0  3  0  0  0  0  0  0
  189.7800  177.6750  148.5310 C   0  0  0  0  0  3  0  0  0  0  0  0
  189.4230  176.8290  142.3270 C   0  0  0  0  0  0  0  0  0  0  0  0
  188.5120  177.3080  141.2230 C   0  0  0  0  0  0  0  0  0  0  0  0
  185.3750  178.2630  142.9730 C   0  0  0  0  0  0  0  0  0  0  0  0
  185.9090  178.7820  145.3700 C   0  0  0  0  0  2  0  0  0  0  0  0
  191.2870  177.4470  140.8050 C   0  0  0  0  0  0  0  0  0  0  0  0
  183.6190  179.1290  144.4140 C   0  0  0  0  0  3  0  0  0  0  0  0
  187.5570  178.0810  147.6740 C   0  0  0  0  0  3  0  0  0  0  0  0
  186.9600  177.6680  145.2620 C   0  0  2  0  0  3  0  0  0  0  0  0
  187.9750  177.7400  146.3760 C   0  0  0  0  0  0  0  0  0  0  0  0
  189.7590  176.9240  144.8330 C   0  0  0  0  0  0  0  0  0  0  0  0
  190.3550  177.3830  139.6570 C   0  0  0  0  0  3  0  0  0  0  0  0
  184.9360  178.6940  144.2390 C   0  0  0  0  0  0  0  0  0  0  0  0
  189.0330  177.3350  139.8490 C   0  0  0  0  0  2  0  0  0  0  0  0
  184.4780  178.2600  141.8970 C   0  0  0  0  0  3  0  0  0  0  0  0
  183.1550  178.6730  142.0790 C   0  0  0  0  0  0  0  0  0  0  0  0
  190.2010  177.3060  147.2530 C   0  0  0  0  0  3  0  0  0  0  0  0
  189.3060  177.3300  146.1730 C   0  0  0  0  0  0  0  0  0  0  0  0
  190.8650  176.3300  144.7110 O   0  0  0  0  0  0  0  0  0  0  0  0
  186.7770  177.8250  142.7930 C   0  0  0  0  0  0  0  0  0  0  0  0
  187.3060  177.7140  141.4660 N   0  0  0  0  0  0  0  0  0  0  0  0
  192.9650  177.8590  140.5330 Cl  0  0  0  0  0  0  0  0  0  0  0  0
  188.9440  177.1980  143.6750 N   0  0  0  0  0  0  0  0  0  0  0  0
  190.8450  177.2680  142.0570 C   0  0  0  0  0  3  0  0  0  0  0  0
  182.2150  178.6860  140.9260 C   0  0  0  0  0  2  0  0  0  0  0  0
  180.0080  179.7220  140.6120 C   0  0  1  0  0  3  0  0  0  0  0  0
  180.8390  178.7800  141.4080 N   0  0  0  0  0  0  0  0  0  0  0  0
  180.7450  180.3980  139.6310 O   0  0  0  0  0  1  0  0  0  0  0  0
  179.9830  178.2940  140.3170 C   0  0  0  0  0  2  0  0  0  0  0  0
  1 10  1  0  0  0  0
  2 12  1  0  0  0  0
  4  3  1  0  0  0  0
  5 26  1  0  0  0  0
  6 24  2  0  0  0  0
  6  5  1  0  0  0  0
  7 16  1  0  0  0  0
  9 27  1  0  0  0  0
 11  3  2  0  0  0  0
 12  8  1  6  0  0  0
 12 13  1  0  0  0  0
 13 11  1  0  0  0  0
 14 21  1  0  0  0  0
 15 17  1  0  0  0  0
 15  9  2  0  0  0  0
 16 10  2  0  0  0  0
 16  8  1  0  0  0  0
 17  6  1  0  0  0  0
 18 19  1  0  0  0  0
 18  7  2  0  0  0  0
 19  1  2  0  0  0  0
 20  4  2  0  0  0  0
 21 13  2  0  0  0  0
 21 20  1  0  0  0  0
 22 14  2  0  0  0  0
 23  7  1  0  0  0  0
 23  2  2  0  0  0  0
 24 23  1  0  0  0  0
 25  9  1  0  0  0  0
 26  2  1  0  0  0  0
 26 14  1  0  0  0  0
 27  5  2  0  0  0  0
 28 30  1  0  0  0  0
 28 19  1  0  0  0  0
 29 31  1  6  0  0  0
 29 30  1  0  0  0  0
 32 29  1  0  0  0  0
 32 30  1  0  0  0  0
M  END
>  <MODEL>
2

>  <REMARK>
 VINA RESULT:     -11.7      2.187      7.362
  Name = 
  2 active torsions:
  status: ('A' for Active; 'I' for Inactive)
    1  A    between atoms: N_10  and  C_19
    2  A    between atoms: C_19  and  C_24
                            x       y       z     vdW  Elec       q    Type
                         _______ _______ _______ _____ _____    ______ ____

>  <TORSDO>
F 2

$$$$
=
 OpenBabel10272413253D

 32 38  0  0  1  0  0  0  0  0999 V2000
  190.4300  177.1650  139.6670 C   0  0  0  0  0  3  0  0  0  0  0  0
  187.0700  178.2690  143.3390 C   0  0  0  0  0  0  0  0  0  0  0  0
  189.3710  176.9160  147.5400 C   0  0  0  0  0  3  0  0  0  0  0  0
  188.2300  177.2550  148.2670 C   0  0  0  0  0  3  0  0  0  0  0  0
  184.7190  179.2010  143.4480 C   0  0  0  0  0  0  0  0  0  0  0  0
  184.7150  178.9770  141.9550 C   0  0  0  0  0  0  0  0  0  0  0  0
  188.1910  177.9120  141.1800 C   0  0  0  0  0  0  0  0  0  0  0  0
  189.2240  176.9480  143.2540 C   0  0  0  0  0  2  0  0  0  0  0  0
  182.2770  178.7550  143.3340 C   0  0  0  0  0  0  0  0  0  0  0  0
  190.4000  176.9090  141.0410 C   0  0  0  0  0  3  0  0  0  0  0  0
  189.4100  177.1350  146.1610 C   0  0  0  0  0  3  0  0  0  0  0  0
  188.4080  178.0020  144.0180 C   0  0  2  0  0  3  0  0  0  0  0  0
  188.3010  177.6750  145.4870 C   0  0  0  0  0  0  0  0  0  0  0  0
  186.0030  178.6460  145.5560 C   0  0  0  0  0  0  0  0  0  0  0  0
  182.2970  179.0740  141.8890 C   0  0  0  0  0  3  0  0  0  0  0  0
  189.2900  177.2900  141.8000 C   0  0  0  0  0  0  0  0  0  0  0  0
  183.4540  179.1630  141.2240 C   0  0  0  0  0  2  0  0  0  0  0  0
  188.2250  178.1570  139.8010 C   0  0  0  0  0  3  0  0  0  0  0  0
  189.3450  177.7950  139.0480 C   0  0  0  0  0  0  0  0  0  0  0  0
  187.1320  177.8190  147.6140 C   0  0  0  0  0  3  0  0  0  0  0  0
  187.1610  178.0370  146.2290 C   0  0  0  0  0  0  0  0  0  0  0  0
  185.1010  179.1880  146.2530 O   0  0  0  0  0  0  0  0  0  0  0  0
  187.0110  178.2930  141.9890 C   0  0  0  0  0  0  0  0  0  0  0  0
  185.7820  178.6050  141.3220 N   0  0  0  0  0  0  0  0  0  0  0  0
  180.7690  178.3010  144.0960 Cl  0  0  0  0  0  0  0  0  0  0  0  0
  185.9040  178.6280  144.1180 N   0  0  0  0  0  0  0  0  0  0  0  0
  183.4100  178.7360  144.0480 C   0  0  0  0  0  3  0  0  0  0  0  0
  189.3650  178.0400  137.5810 C   0  0  0  0  0  2  0  0  0  0  0  0
  187.2520  178.1840  136.3330 C   0  0  1  0  0  3  0  0  0  0  0  0
  188.2840  177.2990  136.9380 N   0  0  0  0  0  0  0  0  0  0  0  0
  187.4820  179.5400  136.5950 O   0  0  0  0  0  1  0  0  0  0  0  0
  188.3310  177.6470  135.5110 C   0  0  0  0  0  2  0  0  0  0  0  0
  1 10  1  0  0  0  0
  2 12  1  0  0  0  0
  2 26  1  0  0  0  0
  3  4  1  0  0  0  0
  5 27  2  0  0  0  0
  5 26  1  0  0  0  0
  6  5  1  0  0  0  0
  7 16  1  0  0  0  0
  7 23  1  0  0  0  0
  9 27  1  0  0  0  0
  9 25  1  0  0  0  0
 10 16  2  0  0  0  0
 11  3  2  0  0  0  0
 12  8  1  6  0  0  0
 12 13  1  0  0  0  0
 13 11  1  0  0  0  0
 13 21  2  0  0  0  0
 14 21  1  0  0  0  0
 14 22  2  0  0  0  0
 15  9  2  0  0  0  0
 16  8  1  0  0  0  0
 17 15  1  0  0  0  0
 17  6  1  0  0  0  0
 18  7  2  0  0  0  0
 19  1  2  0  0  0  0
 19 18  1  0  0  0  0
 20  4  2  0  0  0  0
 21 20  1  0  0  0  0
 23  2  2  0  0  0  0
 24  6  2  0  0  0  0
 24 23  1  0  0  0  0
 26 14  1  0  0  0  0
 28 19  1  0  0  0  0
 29 31  1  1  0  0  0
 29 30  1  0  0  0  0
 30 28  1  0  0  0  0
 32 29  1  0  0  0  0
 32 30  1  0  0  0  0
M  END
>  <MODEL>
3

>  <REMARK>
 VINA RESULT:     -11.3      3.089      7.452
  Name = 
  2 active torsions:
  status: ('A' for Active; 'I' for Inactive)
    1  A    between atoms: N_10  and  C_19
    2  A    between atoms: C_19  and  C_24
                            x       y       z     vdW  Elec       q    Type
                         _______ _______ _______ _____ _____    ______ ____

>  <TORSDO>
F 2

$$$$
=
 OpenBabel10272413253D

 32 38  0  0  1  0  0  0  0  0999 V2000
  189.6370  177.7830  138.5620 C   0  0  0  0  0  3  0  0  0  0  0  0
  187.8770  177.5840  143.3430 C   0  0  0  0  0  0  0  0  0  0  0  0
  183.2330  179.3400  143.0020 C   0  0  0  0  0  3  0  0  0  0  0  0
  183.0960  179.2280  144.3860 C   0  0  0  0  0  3  0  0  0  0  0  0
  188.7940  176.9100  145.6040 C   0  0  2  0  0  3  0  0  0  0  0  0
  190.1290  176.9010  144.8990 C   0  0  0  0  0  0  0  0  0  0  0  0
  189.2840  177.4960  141.3290 C   0  0  0  0  0  0  0  0  0  0  0  0
  187.0660  178.6630  141.2050 C   0  0  0  0  0  2  0  0  0  0  0  0
  190.0770  177.5660  147.6280 C   0  0  0  0  0  0  0  0  0  0  0  0
  188.4660  178.2490  139.1680 C   0  0  0  0  0  3  0  0  0  0  0  0
  184.4060  178.9080  142.3810 C   0  0  0  0  0  3  0  0  0  0  0  0
  186.6790  177.8230  142.4310 C   0  0  2  0  0  3  0  0  0  0  0  0
  185.4680  178.3810  143.1360 C   0  0  0  0  0  0  0  0  0  0  0  0
  186.3910  177.6570  145.3390 C   0  0  0  0  0  0  0  0  0  0  0  0
  191.3090  177.0280  147.0090 C   0  0  0  0  0  3  0  0  0  0  0  0
  188.2820  178.0970  140.5450 C   0  0  0  0  0  0  0  0  0  0  0  0
  191.3450  176.7270  145.7070 C   0  0  0  0  0  3  0  0  0  0  0  0
  190.4580  177.0390  140.7150 C   0  0  0  0  0  3  0  0  0  0  0  0
  190.6300  177.1720  139.3350 C   0  0  0  0  0  0  0  0  0  0  0  0
  184.1300  178.6790  145.1450 C   0  0  0  0  0  3  0  0  0  0  0  0
  185.3150  178.2480  144.5290 C   0  0  0  0  0  0  0  0  0  0  0  0
  186.1510  177.3180  146.5300 O   0  0  0  0  0  0  0  0  0  0  0  0
  189.0900  177.3590  142.7900 C   0  0  0  0  0  0  0  0  0  0  0  0
  190.2220  177.0670  143.6180 N   0  0  0  0  0  0  0  0  0  0  0  0
  190.1540  178.2740  149.2270 Cl  0  0  0  0  0  0  0  0  0  0  0  0
  187.7040  177.4630  144.7740 N   0  0  0  0  0  0  0  0  0  0  0  0
  188.9210  177.5860  146.9510 C   0  0  0  0  0  3  0  0  0  0  0  0
  191.8890  176.7030  138.6940 C   0  0  0  0  0  2  0  0  0  0  0  0
  192.7710  176.0260  136.5020 C   0  0  1  0  0  3  0  0  0  0  0  0
  191.5900  176.0850  137.4050 N   0  0  0  0  0  0  0  0  0  0  0  0
  193.8940  176.6670  137.0380 O   0  0  0  0  0  1  0  0  0  0  0  0
  192.4180  174.8740  137.3230 C   0  0  0  0  0  2  0  0  0  0  0  0
  1 10  2  0  0  0  0
  1 19  1  0  0  0  0
  2 26  1  0  0  0  0
  3  4  1  0  0  0  0
  4 20  2  0  0  0  0
  5 27  1  1  0  0  0
  6  5  1  0  0  0  0
  6 17  1  0  0  0  0
  7 23  1  0  0  0  0
  9 25  1  0  0  0  0
 10 16  1  0  0  0  0
 11  3  2  0  0  0  0
 11 13  1  0  0  0  0
 12  8  1  6  0  0  0
 12 13  1  0  0  0  0
 12  2  1  0  0  0  0
 13 21  2  0  0  0  0
 14 22  2  0  0  0  0
 15  9  1  0  0  0  0
 16  8  1  0  0  0  0
 16  7  2  0  0  0  0
 17 15  2  0  0  0  0
 18  7  1  0  0  0  0
 19 18  2  0  0  0  0
 21 20  1  0  0  0  0
 21 14  1  0  0  0  0
 23  2  2  0  0  0  0
 23 24  1  0  0  0  0
 24  6  2  0  0  0  0
 26 14  1  0  0  0  0
 26  5  1  0  0  0  0
 27  9  2  0  0  0  0
 28 19  1  0  0  0  0
 29 31  1  1  0  0  0
 29 32  1  0  0  0  0
 29 30  1  0  0  0  0
 30 28  1  0  0  0  0
 32 30  1  0  0  0  0
M  END
>  <MODEL>
4

>  <REMARK>
 VINA RESULT:     -11.1      3.467      6.570
  Name = 
  2 active torsions:
  status: ('A' for Active; 'I' for Inactive)
    1  A    between atoms: N_10  and  C_19
    2  A    between atoms: C_19  and  C_24
                            x       y       z     vdW  Elec       q    Type
                         _______ _______ _______ _____ _____    ______ ____

>  <TORSDO>
F 2

$$$$
=
 OpenBabel10272413253D

 32 38  0  0  1  0  0  0  0  0999 V2000
  187.6430  177.7050  146.5550 C   0  0  0  0  0  3  0  0  0  0  0  0
  185.5180  178.5960  142.0070 C   0  0  0  0  0  0  0  0  0  0  0  0
  180.6710  179.1180  143.0110 C   0  0  0  0  0  3  0  0  0  0  0  0
  180.4100  179.2570  141.6480 C   0  0  0  0  0  3  0  0  0  0  0  0
  186.3200  178.7510  139.6110 C   0  0  0  0  0  0  0  0  0  0  0  0
  187.6030  178.1710  140.1550 C   0  0  0  0  0  0  0  0  0  0  0  0
  187.0790  178.0750  143.8330 C   0  0  0  0  0  0  0  0  0  0  0  0
  184.6140  178.0300  144.3000 C   0  0  0  0  0  2  0  0  0  0  0  0
  186.8900  177.5560  137.5080 C   0  0  0  0  0  0  0  0  0  0  0  0
  186.3160  177.8050  146.1250 C   0  0  0  0  0  3  0  0  0  0  0  0
  181.9870  178.9860  143.4590 C   0  0  0  0  0  3  0  0  0  0  0  0
  184.4760  178.9350  143.0660 C   0  0  2  0  0  3  0  0  0  0  0  0
  183.0580  178.9690  142.5490 C   0  0  0  0  0  0  0  0  0  0  0  0
  183.8960  179.1660  140.2060 C   0  0  0  0  0  0  0  0  0  0  0  0
  188.3040  177.4940  137.9390 C   0  0  0  0  0  3  0  0  0  0  0  0
  186.0320  178.0010  144.7700 C   0  0  0  0  0  0  0  0  0  0  0  0
  188.6470  177.7680  139.2020 C   0  0  0  0  0  2  0  0  0  0  0  0
  188.4060  177.9660  144.2710 C   0  0  0  0  0  3  0  0  0  0  0  0
  188.6880  177.7920  145.6290 C   0  0  0  0  0  0  0  0  0  0  0  0
  181.4670  179.2720  140.7360 C   0  0  0  0  0  3  0  0  0  0  0  0
  182.7910  179.1340  141.1770 C   0  0  0  0  0  0  0  0  0  0  0  0
  183.6700  179.5580  139.0290 O   0  0  0  0  0  0  0  0  0  0  0  0
  186.7680  178.2620  142.3980 C   0  0  0  0  0  0  0  0  0  0  0  0
  187.7870  178.0010  141.4260 N   0  0  0  0  0  0  0  0  0  0  0  0
  186.4250  176.8640  135.9690 Cl  0  0  0  0  0  0  0  0  0  0  0  0
  185.2230  178.7590  140.6000 N   0  0  0  0  0  0  0  0  0  0  0  0
  185.9490  178.0680  138.3130 C   0  0  0  0  0  3  0  0  0  0  0  0
  190.0980  177.6560  146.0830 C   0  0  0  0  0  2  0  0  0  0  0  0
  191.4700  176.0630  147.3560 C   0  0  1  0  0  3  0  0  0  0  0  0
  190.1640  176.7660  147.2390 N   0  0  0  0  0  0  0  0  0  0  0  0
  192.3240  176.3250  146.2770 O   0  0  0  0  0  1  0  0  0  0  0  0
  191.2290  177.2900  148.1070 C   0  0  0  0  0  2  0  0  0  0  0  0
  2 23  2  0  0  0  0
  2 12  1  0  0  0  0
  3 11  1  0  0  0  0
  4  3  2  0  0  0  0
  5  6  1  0  0  0  0
  5 26  1  0  0  0  0
  6 24  2  0  0  0  0
  7 18  2  0  0  0  0
  7 16  1  0  0  0  0
  8 16  1  0  0  0  0
  9 15  2  0  0  0  0
  9 27  1  0  0  0  0
 10  1  1  0  0  0  0
 12  8  1  1  0  0  0
 13 12  1  0  0  0  0
 13 11  2  0  0  0  0
 14 26  1  0  0  0  0
 14 21  1  0  0  0  0
 15 17  1  0  0  0  0
 16 10  2  0  0  0  0
 17  6  1  0  0  0  0
 18 19  1  0  0  0  0
 19 28  1  0  0  0  0
 19  1  2  0  0  0  0
 20 21  2  0  0  0  0
 20  4  1  0  0  0  0
 21 13  1  0  0  0  0
 22 14  2  0  0  0  0
 23  7  1  0  0  0  0
 24 23  1  0  0  0  0
 25  9  1  0  0  0  0
 26  2  1  0  0  0  0
 27  5  2  0  0  0  0
 28 30  1  0  0  0  0
 29 31  1  6  0  0  0
 29 32  1  0  0  0  0
 30 29  1  0  0  0  0
 30 32  1  0  0  0  0
M  END
>  <MODEL>
5

>  <REMARK>
 VINA RESULT:      -9.8      1.382      2.011
  Name = 
  2 active torsions:
  status: ('A' for Active; 'I' for Inactive)
    1  A    between atoms: N_10  and  C_19
    2  A    between atoms: C_19  and  C_24
                            x       y       z     vdW  Elec       q    Type
                         _______ _______ _______ _____ _____    ______ ____

>  <TORSDO>
F 2

$$$$
=
 OpenBabel10272413253D

 32 38  0  0  1  0  0  0  0  0999 V2000
  191.9450  176.9020  141.4710 C   0  0  0  0  0  3  0  0  0  0  0  0
  187.1100  178.3060  142.2730 C   0  0  0  0  0  0  0  0  0  0  0  0
  186.5640  178.0180  147.2120 C   0  0  0  0  0  3  0  0  0  0  0  0
  185.2190  178.3620  147.0770 C   0  0  0  0  0  3  0  0  0  0  0  0
  185.1390  178.9840  140.8370 C   0  0  0  0  0  0  0  0  0  0  0  0
  185.9870  178.4850  139.6910 C   0  0  0  0  0  0  0  0  0  0  0  0
  189.2580  177.6740  141.2580 C   0  0  0  0  0  0  0  0  0  0  0  0
  188.8980  177.2320  143.7020 C   0  0  0  0  0  2  0  0  0  0  0  0
  183.1950  178.2640  139.4670 C   0  0  0  0  0  0  0  0  0  0  0  0
  191.1290  176.9060  142.6060 C   0  0  0  0  0  3  0  0  0  0  0  0
  187.3900  177.9790  146.0860 C   0  0  0  0  0  3  0  0  0  0  0  0
  187.8130  178.3160  143.6260 C   0  0  2  0  0  3  0  0  0  0  0  0
  186.8780  178.2600  144.8080 C   0  0  0  0  0  0  0  0  0  0  0  0
  184.9730  178.9750  143.3610 C   0  0  0  0  0  0  0  0  0  0  0  0
  184.0450  178.3070  138.2570 C   0  0  0  0  0  3  0  0  0  0  0  0
  189.7920  177.3010  142.5050 C   0  0  0  0  0  0  0  0  0  0  0  0
  185.3760  178.3950  138.3580 C   0  0  0  0  0  2  0  0  0  0  0  0
  190.0800  177.6590  140.1240 C   0  0  0  0  0  3  0  0  0  0  0  0
  191.4230  177.2850  140.2310 C   0  0  0  0  0  0  0  0  0  0  0  0
  184.7040  178.6730  145.8170 C   0  0  0  0  0  3  0  0  0  0  0  0
  185.5250  178.6300  144.6810 C   0  0  0  0  0  0  0  0  0  0  0  0
  183.8460  179.5370  143.2930 O   0  0  0  0  0  0  0  0  0  0  0  0
  187.8350  178.0700  141.1570 C   0  0  0  0  0  0  0  0  0  0  0  0
  187.2160  178.1180  139.8660 N   0  0  0  0  0  0  0  0  0  0  0  0
  181.5130  177.8010  139.3240 Cl  0  0  0  0  0  0  0  0  0  0  0  0
  185.7160  178.6770  142.1610 N   0  0  0  0  0  0  0  0  0  0  0  0
  183.7140  178.5010  140.6790 C   0  0  0  0  0  3  0  0  0  0  0  0
  192.2840  177.2520  139.0180 C   0  0  0  0  0  2  0  0  0  0  0  0
  192.5190  176.1070  136.8560 C   0  0  1  0  0  3  0  0  0  0  0  0
  191.6000  176.5410  137.9420 N   0  0  0  0  0  0  0  0  0  0  0  0
  193.8310  176.5610  137.0440 O   0  0  0  0  0  1  0  0  0  0  0  0
  192.1570  175.1810  137.9220 C   0  0  0  0  0  2  0  0  0  0  0  0
  1 10  1  0  0  0  0
  2 12  1  0  0  0  0
  4  3  1  0  0  0  0
  5 26  1  0  0  0  0
  6 24  2  0  0  0  0
  6  5  1  0  0  0  0
  7 16  1  0  0  0  0
  9 27  1  0  0  0  0
 11  3  2  0  0  0  0
 12  8  1  6  0  0  0
 12 13  1  0  0  0  0
 13 11  1  0  0  0  0
 14 21  1  0  0  0  0
 15 17  1  0  0  0  0
 15  9  2  0  0  0  0
 16 10  2  0  0  0  0
 16  8  1  0  0  0  0
 17  6  1  0  0  0  0
 18 19  1  0  0  0  0
 18  7  2  0  0  0  0
 19  1  2  0  0  0  0
 20  4  2  0  0  0  0
 21 13  2  0  0  0  0
 21 20  1  0  0  0  0
 22 14  2  0  0  0  0
 23  7  1  0  0  0  0
 23  2  2  0  0  0  0
 24 23  1  0  0  0  0
 25  9  1  0  0  0  0
 26  2  1  0  0  0  0
 26 14  1  0  0  0  0
 27  5  2  0  0  0  0
 28 19  1  0  0  0  0
 29 31  1  1  0  0  0
 29 32  1  0  0  0  0
 29 30  1  0  0  0  0
 30 28  1  0  0  0  0
 32 30  1  0  0  0  0
M  END
>  <MODEL>
6

>  <REMARK>
 VINA RESULT:      -9.5      3.555      5.850
  Name = 
  2 active torsions:
  status: ('A' for Active; 'I' for Inactive)
    1  A    between atoms: N_10  and  C_19
    2  A    between atoms: C_19  and  C_24
                            x       y       z     vdW  Elec       q    Type
                         _______ _______ _______ _____ _____    ______ ____

>  <TORSDO>
F 2

$$$$
=
 OpenBabel10272413253D

 32 38  0  0  1  0  0  0  0  0999 V2000
  191.6930  177.2080  141.7140 C   0  0  0  0  0  3  0  0  0  0  0  0
  186.8340  178.2100  140.5390 C   0  0  0  0  0  0  0  0  0  0  0  0
  184.5880  178.6820  144.9550 C   0  0  0  0  0  3  0  0  0  0  0  0
  183.3650  178.8560  144.3070 C   0  0  0  0  0  3  0  0  0  0  0  0
  185.4730  178.4310  138.4160 C   0  0  0  0  0  0  0  0  0  0  0  0
  186.6910  177.8430  137.7450 C   0  0  0  0  0  0  0  0  0  0  0  0
  189.2260  177.6480  140.4550 C   0  0  0  0  0  0  0  0  0  0  0  0
  188.0440  177.5790  142.6680 C   0  0  0  0  0  2  0  0  0  0  0  0
  184.1710  177.2960  136.6300 C   0  0  0  0  0  0  0  0  0  0  0  0
  190.5280  177.3130  142.4800 C   0  0  0  0  0  3  0  0  0  0  0  0
  185.7600  178.5450  144.2070 C   0  0  0  0  0  3  0  0  0  0  0  0
  187.0120  178.5150  142.0210 C   0  0  2  0  0  3  0  0  0  0  0  0
  185.7220  178.5570  142.8020 C   0  0  0  0  0  0  0  0  0  0  0  0
  184.4260  178.8200  140.6860 C   0  0  0  0  0  0  0  0  0  0  0  0
  185.3920  177.2290  135.7970 C   0  0  0  0  0  3  0  0  0  0  0  0
  189.2990  177.5440  141.8570 C   0  0  0  0  0  0  0  0  0  0  0  0
  186.5960  177.4710  136.3260 C   0  0  0  0  0  2  0  0  0  0  0  0
  190.3970  177.5330  139.6940 C   0  0  0  0  0  3  0  0  0  0  0  0
  191.6290  177.3250  140.3210 C   0  0  0  0  0  0  0  0  0  0  0  0
  183.3170  178.9000  142.9130 C   0  0  0  0  0  3  0  0  0  0  0  0
  184.4880  178.7570  142.1540 C   0  0  0  0  0  0  0  0  0  0  0  0
  183.3730  179.2420  140.1320 O   0  0  0  0  0  0  0  0  0  0  0  0
  187.9160  177.8710  139.8030 C   0  0  0  0  0  0  0  0  0  0  0  0
  187.7930  177.6410  138.3940 N   0  0  0  0  0  0  0  0  0  0  0  0
  182.6690  176.6430  136.0140 Cl  0  0  0  0  0  0  0  0  0  0  0  0
  185.5560  178.4090  139.8910 N   0  0  0  0  0  0  0  0  0  0  0  0
  184.2170  177.7820  137.8780 C   0  0  0  0  0  3  0  0  0  0  0  0
  192.8640  177.1840  139.5040 C   0  0  0  0  0  2  0  0  0  0  0  0
  193.5230  175.9310  137.4950 C   0  0  1  0  0  3  0  0  0  0  0  0
  192.5150  176.8180  138.1340 N   0  0  0  0  0  0  0  0  0  0  0  0
  194.6460  175.7170  138.3040 O   0  0  0  0  0  1  0  0  0  0  0  0
  192.3400  175.3580  138.1250 C   0  0  0  0  0  2  0  0  0  0  0  0
  1 10  1  0  0  0  0
  2 12  1  0  0  0  0
  4  3  1  0  0  0  0
  5 26  1  0  0  0  0
  6 24  2  0  0  0  0
  6  5  1  0  0  0  0
  7 16  1  0  0  0  0
  9 27  1  0  0  0  0
 11  3  2  0  0  0  0
 12  8  1  1  0  0  0
 12 13  1  0  0  0  0
 13 11  1  0  0  0  0
 14 21  1  0  0  0  0
 15 17  1  0  0  0  0
 15  9  2  0  0  0  0
 16 10  2  0  0  0  0
 16  8  1  0  0  0  0
 17  6  1  0  0  0  0
 18 19  1  0  0  0  0
 18  7  2  0  0  0  0
 19  1  2  0  0  0  0
 20  4  2  0  0  0  0
 21 13  2  0  0  0  0
 21 20  1  0  0  0  0
 22 14  2  0  0  0  0
 23  7  1  0  0  0  0
 23  2  2  0  0  0  0
 24 23  1  0  0  0  0
 25  9  1  0  0  0  0
 26  2  1  0  0  0  0
 26 14  1  0  0  0  0
 27  5  2  0  0  0  0
 28 19  1  0  0  0  0
 29 32  1  0  0  0  0
 29 30  1  0  0  0  0
 29 31  1  1  0  0  0
 30 28  1  0  0  0  0
 32 30  1  0  0  0  0
M  END
>  <MODEL>
7

>  <REMARK>
 VINA RESULT:      -9.2      3.791      5.454
  Name = 
  2 active torsions:
  status: ('A' for Active; 'I' for Inactive)
    1  A    between atoms: N_10  and  C_19
    2  A    between atoms: C_19  and  C_24
                            x       y       z     vdW  Elec       q    Type
                         _______ _______ _______ _____ _____    ______ ____

>  <TORSDO>
F 2

$$$$
=
 OpenBabel10272413253D

 32 38  0  0  1  0  0  0  0  0999 V2000
  183.5420  178.6230  141.2330 C   0  0  0  0  0  3  0  0  0  0  0  0
  188.3930  178.0300  142.6830 C   0  0  0  0  0  0  0  0  0  0  0  0
  190.8570  177.3080  138.4200 C   0  0  0  0  0  3  0  0  0  0  0  0
  192.0360  177.1180  139.1410 C   0  0  0  0  0  3  0  0  0  0  0  0
  189.6530  177.9730  144.8790 C   0  0  2  0  0  3  0  0  0  0  0  0
  188.2790  177.8950  145.5000 C   0  0  0  0  0  0  0  0  0  0  0  0
  185.9520  178.3180  142.6330 C   0  0  0  0  0  0  0  0  0  0  0  0
  187.1360  177.6510  140.5230 C   0  0  0  0  0  2  0  0  0  0  0  0
  190.4080  176.6340  146.8310 C   0  0  0  0  0  0  0  0  0  0  0  0
  184.7050  178.2580  140.5480 C   0  0  0  0  0  3  0  0  0  0  0  0
  189.6780  177.6440  139.0890 C   0  0  0  0  0  3  0  0  0  0  0  0
  188.3960  178.2400  141.1740 C   0  0  2  0  0  3  0  0  0  0  0  0
  189.6560  177.7720  140.4880 C   0  0  0  0  0  0  0  0  0  0  0  0
  190.8690  177.7750  142.6690 C   0  0  0  0  0  0  0  0  0  0  0  0
  189.2020  177.0600  147.5760 C   0  0  0  0  0  3  0  0  0  0  0  0
  185.9100  178.1170  141.2410 C   0  0  0  0  0  0  0  0  0  0  0  0
  188.1790  177.6440  146.9440 C   0  0  0  0  0  3  0  0  0  0  0  0
  184.7810  178.6760  143.3130 C   0  0  0  0  0  3  0  0  0  0  0  0
  183.5810  178.8390  142.6150 C   0  0  0  0  0  0  0  0  0  0  0  0
  192.0350  177.2710  140.5280 C   0  0  0  0  0  3  0  0  0  0  0  0
  190.8530  177.6020  141.2080 C   0  0  0  0  0  0  0  0  0  0  0  0
  191.9770  177.8660  143.2660 O   0  0  0  0  0  0  0  0  0  0  0  0
  187.2290  178.1450  143.3610 C   0  0  0  0  0  0  0  0  0  0  0  0
  187.2040  178.0180  144.7880 N   0  0  0  0  0  0  0  0  0  0  0  0
  191.5670  175.5720  147.5990 Cl  0  0  0  0  0  0  0  0  0  0  0  0
  189.6320  177.8440  143.4070 N   0  0  0  0  0  0  0  0  0  0  0  0
  190.5860  176.9910  145.5520 C   0  0  0  0  0  3  0  0  0  0  0  0
  182.3370  179.1990  143.3480 C   0  0  0  0  0  2  0  0  0  0  0  0
  179.9840  178.5210  143.1350 C   0  0  1  0  0  3  0  0  0  0  0  0
  181.1850  179.0810  142.4580 N   0  0  0  0  0  0  0  0  0  0  0  0
  180.2410  178.1290  144.4550 O   0  0  0  0  0  1  0  0  0  0  0  0
  180.1460  179.9650  143.0060 C   0  0  0  0  0  2  0  0  0  0  0  0
  1 19  1  0  0  0  0
  2 23  2  0  0  0  0
  2 26  1  0  0  0  0
  3 11  2  0  0  0  0
  3  4  1  0  0  0  0
  4 20  2  0  0  0  0
  5  6  1  0  0  0  0
  5 27  1  1  0  0  0
  6 17  1  0  0  0  0
  7 18  1  0  0  0  0
  7 23  1  0  0  0  0
  8 16  1  0  0  0  0
  9 15  1  0  0  0  0
  9 25  1  0  0  0  0
 10  1  2  0  0  0  0
 10 16  1  0  0  0  0
 11 13  1  0  0  0  0
 12  8  1  6  0  0  0
 12  2  1  0  0  0  0
 13 12  1  0  0  0  0
 13 21  2  0  0  0  0
 14 22  2  0  0  0  0
 14 26  1  0  0  0  0
 16  7  2  0  0  0  0
 17 15  2  0  0  0  0
 19 18  2  0  0  0  0
 19 28  1  0  0  0  0
 20 21  1  0  0  0  0
 21 14  1  0  0  0  0
 23 24  1  0  0  0  0
 24  6  2  0  0  0  0
 26  5  1  0  0  0  0
 27  9  2  0  0  0  0
 29 31  1  1  0  0  0
 30 32  1  0  0  0  0
 30 29  1  0  0  0  0
 30 28  1  0  0  0  0
 32 29  1  0  0  0  0
M  END
>  <MODEL>
8

>  <REMARK>
 VINA RESULT:      -9.2      2.938      8.007
  Name = 
  2 active torsions:
  status: ('A' for Active; 'I' for Inactive)
    1  A    between atoms: N_10  and  C_19
    2  A    between atoms: C_19  and  C_24
                            x       y       z     vdW  Elec       q    Type
                         _______ _______ _______ _____ _____    ______ ____

>  <TORSDO>
F 2

$$$$
