=
 OpenBabel10272401543D

 28 31  0  0  1  0  0  0  0  0999 V2000
  190.4420  176.7930  144.2220 C   0  0  1  0  0  3  0  0  0  0  0  0
  185.5460  177.9790  142.7900 C   0  0  0  0  0  3  0  0  0  0  0  0
  187.9070  177.4620  148.4530 O   0  0  0  0  0  1  0  0  0  0  0  0
  184.4710  178.6150  144.8730 C   0  0  0  0  0  0  0  0  0  0  0  0
  186.8510  177.8450  144.9280 C   0  0  0  0  0  0  0  0  0  0  0  0
  183.2370  178.7010  142.7870 C   0  0  0  0  0  0  0  0  0  0  0  0
  185.6140  178.1620  144.1800 C   0  0  0  0  0  0  0  0  0  0  0  0
  185.6150  178.2120  147.0110 N   0  0  0  0  0  2  0  0  0  0  0  0
  183.2940  178.8920  144.1700 C   0  0  0  0  0  3  0  0  0  0  0  0
  189.1450  177.1370  146.3950 C   0  0  0  0  0  0  0  0  0  0  0  0
  188.0290  177.4840  144.2640 C   0  0  0  0  0  3  0  0  0  0  0  0
  184.5210  178.9150  146.3440 C   0  0  0  0  0  2  0  0  0  0  0  0
  191.6380  176.8780  146.4540 C   0  0  0  0  0  2  0  0  0  0  0  0
  187.9600  177.4860  147.0620 C   0  0  0  0  0  0  0  0  0  0  0  0
  190.3260  176.6550  147.1930 C   0  0  0  0  0  2  0  0  0  0  0  0
  182.0350  178.9800  142.0810 N   0  0  0  0  0  1  0  0  0  0  0  0
  184.3630  178.2480  142.0970 C   0  0  0  0  0  3  0  0  0  0  0  0
  186.8240  177.8600  146.3310 C   0  0  0  0  0  0  0  0  0  0  0  0
  191.5750  176.2190  145.0850 C   0  0  0  0  0  2  0  0  0  0  0  0
  189.1810  177.1430  144.9830 C   0  0  0  0  0  0  0  0  0  0  0  0
  190.8890  177.8640  143.2080 C   0  0  2  0  0  3  0  0  0  0  0  0
  190.8890  179.1430  143.7700 O   0  0  0  0  0  1  0  0  0  0  0  0
  190.2120  177.8430  141.8310 C   0  0  0  0  0  2  0  0  0  0  0  0
  190.5510  176.8940  139.4780 N   0  0  0  0  0  0  0  0  0  0  0  0
  192.3460  177.4500  140.8660 O   0  0  0  0  0  0  0  0  0  0  0  0
  191.0970  177.3780  140.7150 C   0  0  0  0  0  0  0  0  0  0  0  0
  189.1470  177.0810  139.1480 C   0  0  0  0  0  1  0  0  0  0  0  0
  191.4140  176.2880  138.4790 C   0  0  0  0  0  1  0  0  0  0  0  0
  1 21  1  1  0  0  0
  1 20  1  0  0  0  0
  1 19  1  0  0  0  0
  2  7  1  0  0  0  0
  4 12  1  0  0  0  0
  5 18  1  0  0  0  0
  6  9  2  0  0  0  0
  7  4  2  0  0  0  0
  7  5  1  0  0  0  0
  9  4  1  0  0  0  0
 10 14  1  0  0  0  0
 10 15  1  0  0  0  0
 11  5  2  0  0  0  0
 11 20  1  0  0  0  0
 12  8  1  0  0  0  0
 13 15  1  0  0  0  0
 14  3  1  0  0  0  0
 16  6  1  0  0  0  0
 17  6  1  0  0  0  0
 17  2  2  0  0  0  0
 18  8  1  0  0  0  0
 18 14  2  0  0  0  0
 19 13  1  0  0  0  0
 20 10  2  0  0  0  0
 21 22  1  1  0  0  0
 23 21  1  0  0  0  0
 24 26  1  0  0  0  0
 26 25  2  0  0  0  0
 26 23  1  0  0  0  0
 27 24  1  0  0  0  0
 28 24  1  0  0  0  0
M  END
>  <MODEL>
1

>  <REMARK>
 VINA RESULT:     -11.1      0.000      0.000
  Name = 
  3 active torsions:
  status: ('A' for Active; 'I' for Inactive)
    1  A    between atoms: C_1  and  C_2
    2  A    between atoms: C_2  and  C_3
    3  A    between atoms: C_3  and  C_11
                            x       y       z     vdW  Elec       q    Type
                         _______ _______ _______ _____ _____    ______ ____

>  <TORSDO>
F 3

$$$$
=
 OpenBabel10272401543D

 28 31  0  0  1  0  0  0  0  0999 V2000
  189.5890  176.7390  142.0000 C   0  0  1  0  0  3  0  0  0  0  0  0
  184.5830  178.1460  142.6250 C   0  0  0  0  0  3  0  0  0  0  0  0
  188.9610  177.4080  146.8920 O   0  0  0  0  0  1  0  0  0  0  0  0
  184.4460  178.7750  144.9670 C   0  0  0  0  0  0  0  0  0  0  0  0
  186.6180  177.9130  144.0730 C   0  0  0  0  0  0  0  0  0  0  0  0
  182.4960  178.9570  143.5390 C   0  0  0  0  0  0  0  0  0  0  0  0
  185.2020  178.2940  143.8770 C   0  0  0  0  0  0  0  0  0  0  0  0
  186.3210  178.2790  146.4770 N   0  0  0  0  0  2  0  0  0  0  0  0
  183.1010  179.1140  144.7880 C   0  0  0  0  0  3  0  0  0  0  0  0
  189.2710  177.0830  144.5100 C   0  0  0  0  0  0  0  0  0  0  0  0
  187.4220  177.5220  142.9960 C   0  0  0  0  0  3  0  0  0  0  0  0
  185.0860  179.0390  146.3010 C   0  0  0  0  0  2  0  0  0  0  0  0
  191.5710  176.7260  143.5790 C   0  0  0  0  0  2  0  0  0  0  0  0
  188.4620  177.4610  145.5940 C   0  0  0  0  0  0  0  0  0  0  0  0
  190.6480  176.5370  144.7740 C   0  0  0  0  0  2  0  0  0  0  0  0
  181.1260  179.2990  143.3660 N   0  0  0  0  0  1  0  0  0  0  0  0
  183.2370  178.4770  142.4570 C   0  0  0  0  0  3  0  0  0  0  0  0
  187.1480  177.8960  145.3730 C   0  0  0  0  0  0  0  0  0  0  0  0
  190.9450  176.1020  142.3420 C   0  0  0  0  0  2  0  0  0  0  0  0
  188.7480  177.1200  143.1990 C   0  0  0  0  0  0  0  0  0  0  0  0
  189.6480  177.8150  140.8990 C   0  0  2  0  0  3  0  0  0  0  0  0
  188.3810  178.1030  140.3860 O   0  0  0  0  0  1  0  0  0  0  0  0
  190.6840  177.6130  139.7840 C   0  0  0  0  0  2  0  0  0  0  0  0
  189.5060  177.0340  137.5870 N   0  0  0  0  0  0  0  0  0  0  0  0
  190.6480  175.4320  138.8480 O   0  0  0  0  0  0  0  0  0  0  0  0
  190.2740  176.6290  138.7310 C   0  0  0  0  0  0  0  0  0  0  0  0
  189.3210  178.4380  137.2590 C   0  0  0  0  0  1  0  0  0  0  0  0
  188.9730  176.0400  136.6710 C   0  0  0  0  0  1  0  0  0  0  0  0
  1 21  1  1  0  0  0
  1 19  1  0  0  0  0
  1 20  1  0  0  0  0
  2  7  1  0  0  0  0
  4 12  1  0  0  0  0
  5 18  1  0  0  0  0
  6  9  2  0  0  0  0
  7  5  1  0  0  0  0
  7  4  2  0  0  0  0
  9  4  1  0  0  0  0
 10 15  1  0  0  0  0
 10 14  1  0  0  0  0
 11 20  1  0  0  0  0
 11  5  2  0  0  0  0
 12  8  1  0  0  0  0
 13 15  1  0  0  0  0
 14  3  1  0  0  0  0
 16  6  1  0  0  0  0
 17  2  2  0  0  0  0
 17  6  1  0  0  0  0
 18 14  2  0  0  0  0
 18  8  1  0  0  0  0
 19 13  1  0  0  0  0
 20 10  2  0  0  0  0
 21 22  1  6  0  0  0
 23 21  1  0  0  0  0
 24 26  1  0  0  0  0
 26 25  2  0  0  0  0
 26 23  1  0  0  0  0
 27 24  1  0  0  0  0
 28 24  1  0  0  0  0
M  END
>  <MODEL>
2

>  <REMARK>
 VINA RESULT:      -9.6      1.601      2.057
  Name = 
  3 active torsions:
  status: ('A' for Active; 'I' for Inactive)
    1  A    between atoms: C_1  and  C_2
    2  A    between atoms: C_2  and  C_3
    3  A    between atoms: C_3  and  C_11
                            x       y       z     vdW  Elec       q    Type
                         _______ _______ _______ _____ _____    ______ ____

>  <TORSDO>
F 3

$$$$
=
 OpenBabel10272401543D

 28 31  0  0  1  0  0  0  0  0999 V2000
  188.9840  177.9780  142.7210 C   0  0  1  0  0  3  0  0  0  0  0  0
  183.8720  178.7990  143.5090 C   0  0  0  0  0  3  0  0  0  0  0  0
  186.9720  178.4920  138.1980 O   0  0  0  0  0  1  0  0  0  0  0  0
  182.9190  178.7020  141.2770 C   0  0  0  0  0  0  0  0  0  0  0  0
  185.3950  178.4620  141.5440 C   0  0  0  0  0  0  0  0  0  0  0  0
  181.4860  179.0550  143.2010 C   0  0  0  0  0  0  0  0  0  0  0  0
  184.0460  178.6430  142.1240 C   0  0  0  0  0  0  0  0  0  0  0  0
  184.4000  178.6770  139.3160 N   0  0  0  0  0  2  0  0  0  0  0  0
  181.6450  178.8960  141.8220 C   0  0  0  0  0  3  0  0  0  0  0  0
  187.9550  178.2400  140.3990 C   0  0  0  0  0  0  0  0  0  0  0  0
  186.5220  178.3060  142.3600 C   0  0  0  0  0  3  0  0  0  0  0  0
  183.0410  178.4480  139.8010 C   0  0  0  0  0  2  0  0  0  0  0  0
  190.3350  177.4870  140.6350 C   0  0  0  0  0  2  0  0  0  0  0  0
  186.8280  178.4110  139.5800 C   0  0  0  0  0  0  0  0  0  0  0  0
  189.3250  178.2340  139.7760 C   0  0  0  0  0  2  0  0  0  0  0  0
  180.1890  179.2580  143.7470 N   0  0  0  0  0  1  0  0  0  0  0  0
  182.5980  179.0030  144.0440 C   0  0  0  0  0  3  0  0  0  0  0  0
  185.5500  178.4980  140.1500 C   0  0  0  0  0  0  0  0  0  0  0  0
  190.3550  178.0770  142.0360 C   0  0  0  0  0  2  0  0  0  0  0  0
  187.7990  178.1810  141.8020 C   0  0  0  0  0  0  0  0  0  0  0  0
  188.8390  176.7900  143.6910 C   0  0  2  0  0  3  0  0  0  0  0  0
  188.4870  175.6140  143.0230 O   0  0  0  0  0  1  0  0  0  0  0  0
  187.9810  177.0150  144.9440 C   0  0  0  0  0  2  0  0  0  0  0  0
  188.1670  177.9460  147.3200 N   0  0  0  0  0  0  0  0  0  0  0  0
  189.9680  176.9230  146.2390 O   0  0  0  0  0  0  0  0  0  0  0  0
  188.7670  177.2980  146.1880 C   0  0  0  0  0  0  0  0  0  0  0  0
  186.7270  178.1140  147.4200 C   0  0  0  0  0  1  0  0  0  0  0  0
  188.9850  178.3660  148.4450 C   0  0  0  0  0  1  0  0  0  0  0  0
  1 21  1  6  0  0  0
  2 17  1  0  0  0  0
  3 14  1  0  0  0  0
  4  9  2  0  0  0  0
  4  7  1  0  0  0  0
  5  7  1  0  0  0  0
  5 11  1  0  0  0  0
  6 16  1  0  0  0  0
  6 17  2  0  0  0  0
  7  2  2  0  0  0  0
  8 12  1  0  0  0  0
  8 18  1  0  0  0  0
  9  6  1  0  0  0  0
 10 20  1  0  0  0  0
 12  4  1  0  0  0  0
 13 19  1  0  0  0  0
 14 18  1  0  0  0  0
 14 10  2  0  0  0  0
 15 10  1  0  0  0  0
 15 13  1  0  0  0  0
 18  5  2  0  0  0  0
 19  1  1  0  0  0  0
 20 11  2  0  0  0  0
 20  1  1  0  0  0  0
 21 22  1  6  0  0  0
 21 23  1  0  0  0  0
 23 26  1  0  0  0  0
 24 27  1  0  0  0  0
 24 28  1  0  0  0  0
 26 25  2  0  0  0  0
 26 24  1  0  0  0  0
M  END
>  <MODEL>
3

>  <REMARK>
 VINA RESULT:      -8.9      2.371      5.710
  Name = 
  3 active torsions:
  status: ('A' for Active; 'I' for Inactive)
    1  A    between atoms: C_1  and  C_2
    2  A    between atoms: C_2  and  C_3
    3  A    between atoms: C_3  and  C_11
                            x       y       z     vdW  Elec       q    Type
                         _______ _______ _______ _____ _____    ______ ____

>  <TORSDO>
F 3

$$$$
=
 OpenBabel10272401543D

 28 31  0  0  1  0  0  0  0  0999 V2000
  184.3160  179.2580  142.8670 C   0  0  1  0  0  3  0  0  0  0  0  0
  188.5770  178.0070  140.0900 C   0  0  0  0  0  3  0  0  0  0  0  0
  187.5230  177.2670  146.1120 O   0  0  0  0  0  1  0  0  0  0  0  0
  189.9410  176.7490  141.6580 C   0  0  0  0  0  0  0  0  0  0  0  0
  187.7700  177.7090  142.4470 C   0  0  0  0  0  0  0  0  0  0  0  0
  190.6970  177.0850  139.3790 C   0  0  0  0  0  0  0  0  0  0  0  0
  188.7650  177.4770  141.3770 C   0  0  0  0  0  0  0  0  0  0  0  0
  189.3310  176.6950  144.0380 N   0  0  0  0  0  2  0  0  0  0  0  0
  190.8940  176.5490  140.6540 C   0  0  0  0  0  3  0  0  0  0  0  0
  185.9580  178.2360  144.5340 C   0  0  0  0  0  0  0  0  0  0  0  0
  186.5510  178.3450  142.1810 C   0  0  0  0  0  3  0  0  0  0  0  0
  190.1450  176.0840  142.9890 C   0  0  0  0  0  2  0  0  0  0  0  0
  183.6000  178.7150  145.2360 C   0  0  0  0  0  2  0  0  0  0  0  0
  187.1860  177.6110  144.8060 C   0  0  0  0  0  0  0  0  0  0  0  0
  185.0530  178.6080  145.6770 C   0  0  0  0  0  2  0  0  0  0  0  0
  191.6730  176.8820  138.3650 N   0  0  0  0  0  1  0  0  0  0  0  0
  189.5380  177.8110  139.0960 C   0  0  0  0  0  3  0  0  0  0  0  0
  188.0780  177.3280  143.7620 C   0  0  0  0  0  0  0  0  0  0  0  0
  183.4840  179.6970  144.0810 C   0  0  0  0  0  2  0  0  0  0  0  0
  185.6360  178.6000  143.2080 C   0  0  0  0  0  0  0  0  0  0  0  0
  183.5130  178.5360  141.7680 C   0  0  2  0  0  3  0  0  0  0  0  0
  183.7960  179.0460  140.4990 O   0  0  0  0  0  1  0  0  0  0  0  0
  182.0030  178.3810  141.9990 C   0  0  0  0  0  2  0  0  0  0  0  0
  180.8180  177.9380  139.7750 N   0  0  0  0  0  0  0  0  0  0  0  0
  180.7030  180.0060  140.8560 O   0  0  0  0  0  0  0  0  0  0  0  0
  181.1540  178.8300  140.8490 C   0  0  0  0  0  0  0  0  0  0  0  0
  181.0530  176.5070  139.8780 C   0  0  0  0  0  1  0  0  0  0  0  0
  180.1420  178.4370  138.5890 C   0  0  0  0  0  1  0  0  0  0  0  0
  1 21  1  1  0  0  0
  1 20  1  0  0  0  0
  1 19  1  0  0  0  0
  2  7  1  0  0  0  0
  4 12  1  0  0  0  0
  5 18  1  0  0  0  0
  6  9  2  0  0  0  0
  7  4  2  0  0  0  0
  7  5  1  0  0  0  0
  9  4  1  0  0  0  0
 10 14  1  0  0  0  0
 10 15  1  0  0  0  0
 11  5  2  0  0  0  0
 11 20  1  0  0  0  0
 12  8  1  0  0  0  0
 13 15  1  0  0  0  0
 14  3  1  0  0  0  0
 16  6  1  0  0  0  0
 17  6  1  0  0  0  0
 17  2  2  0  0  0  0
 18  8  1  0  0  0  0
 18 14  2  0  0  0  0
 19 13  1  0  0  0  0
 20 10  2  0  0  0  0
 21 22  1  6  0  0  0
 21 23  1  0  0  0  0
 24 27  1  0  0  0  0
 24 26  1  0  0  0  0
 26 25  2  0  0  0  0
 26 23  1  0  0  0  0
 28 24  1  0  0  0  0
M  END
>  <MODEL>
4

>  <REMARK>
 VINA RESULT:      -8.8      3.220      7.231
  Name = 
  3 active torsions:
  status: ('A' for Active; 'I' for Inactive)
    1  A    between atoms: C_1  and  C_2
    2  A    between atoms: C_2  and  C_3
    3  A    between atoms: C_3  and  C_11
                            x       y       z     vdW  Elec       q    Type
                         _______ _______ _______ _____ _____    ______ ____

>  <TORSDO>
F 3

$$$$
=
 OpenBabel10272401543D

 28 31  0  0  1  0  0  0  0  0999 V2000
  186.9600  178.5560  146.4720 C   0  0  1  0  0  3  0  0  0  0  0  0
  188.4410  178.3300  141.4540 C   0  0  0  0  0  3  0  0  0  0  0  0
  191.5630  176.6620  146.4920 O   0  0  0  0  0  1  0  0  0  0  0  0
  190.5330  177.0970  141.5220 C   0  0  0  0  0  0  0  0  0  0  0  0
  189.3630  177.6100  143.6730 C   0  0  0  0  0  0  0  0  0  0  0  0
  189.6210  177.8370  139.4010 C   0  0  0  0  0  0  0  0  0  0  0  0
  189.4340  177.6710  142.1970 C   0  0  0  0  0  0  0  0  0  0  0  0
  191.6130  176.6420  143.6820 N   0  0  0  0  0  2  0  0  0  0  0  0
  190.6130  177.1740  140.1280 C   0  0  0  0  0  3  0  0  0  0  0  0
  189.3210  177.5830  146.4860 C   0  0  0  0  0  0  0  0  0  0  0  0
  188.2440  178.0860  144.3670 C   0  0  0  0  0  3  0  0  0  0  0  0
  191.5700  176.3020  142.2620 C   0  0  0  0  0  2  0  0  0  0  0  0
  187.9670  177.6090  148.5960 C   0  0  0  0  0  2  0  0  0  0  0  0
  190.4500  177.1180  145.7920 C   0  0  0  0  0  0  0  0  0  0  0  0
  189.3610  177.6630  147.9880 C   0  0  0  0  0  2  0  0  0  0  0  0
  189.7130  177.9170  137.9840 N   0  0  0  0  0  1  0  0  0  0  0  0
  188.5340  178.4120  140.0630 C   0  0  0  0  0  3  0  0  0  0  0  0
  190.4610  177.1110  144.3910 C   0  0  0  0  0  0  0  0  0  0  0  0
  187.1000  178.7040  147.9950 C   0  0  0  0  0  2  0  0  0  0  0  0
  188.2060  178.0650  145.7670 C   0  0  0  0  0  0  0  0  0  0  0  0
  185.6580  177.8730  146.0140 C   0  0  2  0  0  3  0  0  0  0  0  0
  185.9060  176.8420  145.1030 O   0  0  0  0  0  1  0  0  0  0  0  0
  184.5200  178.7890  145.5450 C   0  0  0  0  0  2  0  0  0  0  0  0
  183.1690  178.8070  143.3710 N   0  0  0  0  0  0  0  0  0  0  0  0
  185.4670  179.2310  143.4140 O   0  0  0  0  0  0  0  0  0  0  0  0
  184.4230  178.9430  144.0580 C   0  0  0  0  0  0  0  0  0  0  0  0
  181.9090  178.7830  144.0960 C   0  0  0  0  0  1  0  0  0  0  0  0
  183.1240  178.7880  141.9190 C   0  0  0  0  0  1  0  0  0  0  0  0
  1 21  1  1  0  0  0
  1 19  1  0  0  0  0
  2  7  1  0  0  0  0
  4  7  2  0  0  0  0
  4 12  1  0  0  0  0
  5 11  2  0  0  0  0
  5 18  1  0  0  0  0
  6 17  1  0  0  0  0
  6  9  2  0  0  0  0
  7  5  1  0  0  0  0
  8 18  1  0  0  0  0
  9  4  1  0  0  0  0
 10 15  1  0  0  0  0
 11 20  1  0  0  0  0
 12  8  1  0  0  0  0
 14 10  1  0  0  0  0
 14  3  1  0  0  0  0
 15 13  1  0  0  0  0
 16  6  1  0  0  0  0
 17  2  2  0  0  0  0
 18 14  2  0  0  0  0
 19 13  1  0  0  0  0
 20  1  1  0  0  0  0
 20 10  2  0  0  0  0
 21 22  1  6  0  0  0
 23 21  1  0  0  0  0
 24 26  1  0  0  0  0
 24 27  1  0  0  0  0
 25 26  2  0  0  0  0
 26 23  1  0  0  0  0
 28 24  1  0  0  0  0
M  END
>  <MODEL>
5

>  <REMARK>
 VINA RESULT:      -8.8      2.094      6.054
  Name = 
  3 active torsions:
  status: ('A' for Active; 'I' for Inactive)
    1  A    between atoms: C_1  and  C_2
    2  A    between atoms: C_2  and  C_3
    3  A    between atoms: C_3  and  C_11
                            x       y       z     vdW  Elec       q    Type
                         _______ _______ _______ _____ _____    ______ ____

>  <TORSDO>
F 3

$$$$
=
 OpenBabel10272401543D

 28 31  0  0  1  0  0  0  0  0999 V2000
  183.0360  178.5770  141.0500 C   0  0  1  0  0  3  0  0  0  0  0  0
  188.1490  177.7680  141.8440 C   0  0  0  0  0  3  0  0  0  0  0  0
  183.7290  178.9480  145.9650 O   0  0  0  0  0  1  0  0  0  0  0  0
  188.3460  177.6300  144.2610 C   0  0  0  0  0  0  0  0  0  0  0  0
  186.1040  178.1030  143.2560 C   0  0  0  0  0  0  0  0  0  0  0  0
  190.3030  177.3400  142.8590 C   0  0  0  0  0  0  0  0  0  0  0  0
  187.5480  177.8160  143.1120 C   0  0  0  0  0  0  0  0  0  0  0  0
  186.4360  178.2480  145.6790 N   0  0  0  0  0  2  0  0  0  0  0  0
  189.7160  177.3810  144.1260 C   0  0  0  0  0  3  0  0  0  0  0  0
  183.3880  178.7670  143.5720 C   0  0  0  0  0  0  0  0  0  0  0  0
  185.2660  178.2010  142.1390 C   0  0  0  0  0  3  0  0  0  0  0  0
  187.7350  177.5800  145.6320 C   0  0  0  0  0  2  0  0  0  0  0  0
  181.0640  178.7280  142.6330 C   0  0  0  0  0  2  0  0  0  0  0  0
  184.2290  178.6830  144.6940 C   0  0  0  0  0  0  0  0  0  0  0  0
  181.9670  179.2300  143.7500 C   0  0  0  0  0  2  0  0  0  0  0  0
  191.6980  177.0940  142.7310 N   0  0  0  0  0  1  0  0  0  0  0  0
  189.5200  177.5300  141.7190 C   0  0  0  0  0  3  0  0  0  0  0  0
  185.5760  178.3300  144.5370 C   0  0  0  0  0  0  0  0  0  0  0  0
  181.6300  179.1470  141.2860 C   0  0  0  0  0  2  0  0  0  0  0  0
  183.9100  178.5170  142.2840 C   0  0  0  0  0  0  0  0  0  0  0  0
  183.0730  177.3030  140.1840 C   0  0  2  0  0  3  0  0  0  0  0  0
  183.9300  177.4450  139.0890 O   0  0  0  0  0  1  0  0  0  0  0  0
  181.7220  176.6990  139.7790 C   0  0  0  0  0  2  0  0  0  0  0  0
  181.4760  175.9470  137.3450 N   0  0  0  0  0  0  0  0  0  0  0  0
  180.8360  178.0770  138.0610 O   0  0  0  0  0  0  0  0  0  0  0  0
  181.3310  176.9570  138.3560 C   0  0  0  0  0  0  0  0  0  0  0  0
  181.7470  174.5620  137.6940 C   0  0  0  0  0  1  0  0  0  0  0  0
  181.2560  176.2700  135.9460 C   0  0  0  0  0  1  0  0  0  0  0  0
  1 21  1  1  0  0  0
  1 19  1  0  0  0  0
  1 20  1  0  0  0  0
  2  7  1  0  0  0  0
  4 12  1  0  0  0  0
  5 18  1  0  0  0  0
  6  9  2  0  0  0  0
  7  5  1  0  0  0  0
  7  4  2  0  0  0  0
  9  4  1  0  0  0  0
 10 15  1  0  0  0  0
 10 14  1  0  0  0  0
 11 20  1  0  0  0  0
 11  5  2  0  0  0  0
 12  8  1  0  0  0  0
 13 15  1  0  0  0  0
 14  3  1  0  0  0  0
 16  6  1  0  0  0  0
 17  2  2  0  0  0  0
 17  6  1  0  0  0  0
 18 14  2  0  0  0  0
 18  8  1  0  0  0  0
 19 13  1  0  0  0  0
 20 10  2  0  0  0  0
 21 22  1  6  0  0  0
 23 21  1  0  0  0  0
 24 27  1  0  0  0  0
 24 26  1  0  0  0  0
 25 26  2  0  0  0  0
 26 23  1  0  0  0  0
 28 24  1  0  0  0  0
M  END
>  <MODEL>
6

>  <REMARK>
 VINA RESULT:      -8.7      3.981      7.428
  Name = 
  3 active torsions:
  status: ('A' for Active; 'I' for Inactive)
    1  A    between atoms: C_1  and  C_2
    2  A    between atoms: C_2  and  C_3
    3  A    between atoms: C_3  and  C_11
                            x       y       z     vdW  Elec       q    Type
                         _______ _______ _______ _____ _____    ______ ____

>  <TORSDO>
F 3

$$$$
=
 OpenBabel10272401543D

 28 31  0  0  1  0  0  0  0  0999 V2000
  188.8610  177.8880  139.6410 C   0  0  1  0  0  3  0  0  0  0  0  0
  190.8030  177.2570  144.4630 C   0  0  0  0  0  3  0  0  0  0  0  0
  185.0440  178.6050  142.7530 O   0  0  0  0  0  1  0  0  0  0  0  0
  188.8370  177.2860  145.8880 C   0  0  0  0  0  0  0  0  0  0  0  0
  188.5500  177.6370  143.4270 C   0  0  0  0  0  0  0  0  0  0  0  0
  191.0360  176.9500  146.8510 C   0  0  0  0  0  0  0  0  0  0  0  0
  189.4110  177.3760  144.6020 C   0  0  0  0  0  0  0  0  0  0  0  0
  186.6620  177.9520  144.9560 N   0  0  0  0  0  2  0  0  0  0  0  0
  189.6520  177.0620  147.0020 C   0  0  0  0  0  3  0  0  0  0  0  0
  186.9000  178.2550  141.2350 C   0  0  0  0  0  0  0  0  0  0  0  0
  189.0730  177.6400  142.1290 C   0  0  0  0  0  3  0  0  0  0  0  0
  187.3470  177.3130  146.0780 C   0  0  0  0  0  2  0  0  0  0  0  0
  186.4920  178.0980  138.7660 C   0  0  0  0  0  2  0  0  0  0  0  0
  186.3760  178.2670  142.5370 C   0  0  0  0  0  0  0  0  0  0  0  0
  186.0310  178.6960  140.0880 C   0  0  0  0  0  2  0  0  0  0  0  0
  191.8590  176.7290  147.9900 N   0  0  0  0  0  1  0  0  0  0  0  0
  191.6120  177.0440  145.5820 C   0  0  0  0  0  3  0  0  0  0  0  0
  187.1940  177.9370  143.6270 C   0  0  0  0  0  0  0  0  0  0  0  0
  187.9550  178.4400  138.5290 C   0  0  0  0  0  2  0  0  0  0  0  0
  188.2590  177.9320  141.0290 C   0  0  0  0  0  0  0  0  0  0  0  0
  189.5620  176.5610  139.2940 C   0  0  2  0  0  3  0  0  0  0  0  0
  190.5620  176.2460  140.2180 O   0  0  0  0  0  1  0  0  0  0  0  0
  190.0440  176.3860  137.8470 C   0  0  0  0  0  2  0  0  0  0  0  0
  192.2920  175.2350  137.4390 N   0  0  0  0  0  0  0  0  0  0  0  0
  190.2940  174.0370  137.6130 O   0  0  0  0  0  0  0  0  0  0  0  0
  190.8690  175.1580  137.6160 C   0  0  0  0  0  0  0  0  0  0  0  0
  193.0270  176.4530  137.7400 C   0  0  0  0  0  1  0  0  0  0  0  0
  193.0500  174.0590  137.0450 C   0  0  0  0  0  1  0  0  0  0  0  0
  1 21  1  6  0  0  0
  1 20  1  0  0  0  0
  2  7  2  0  0  0  0
  2 17  1  0  0  0  0
  4 12  1  0  0  0  0
  4  9  2  0  0  0  0
  5 18  1  0  0  0  0
  5  7  1  0  0  0  0
  6  9  1  0  0  0  0
  6 16  1  0  0  0  0
  7  4  1  0  0  0  0
  8 12  1  0  0  0  0
 10 14  1  0  0  0  0
 11  5  2  0  0  0  0
 13 15  1  0  0  0  0
 14  3  1  0  0  0  0
 14 18  2  0  0  0  0
 15 10  1  0  0  0  0
 17  6  2  0  0  0  0
 18  8  1  0  0  0  0
 19 13  1  0  0  0  0
 19  1  1  0  0  0  0
 20 10  2  0  0  0  0
 20 11  1  0  0  0  0
 21 22  1  1  0  0  0
 23 21  1  0  0  0  0
 24 26  1  0  0  0  0
 24 27  1  0  0  0  0
 25 26  2  0  0  0  0
 26 23  1  0  0  0  0
 28 24  1  0  0  0  0
M  END
>  <MODEL>
7

>  <REMARK>
 VINA RESULT:      -8.6      2.562      5.778
  Name = 
  3 active torsions:
  status: ('A' for Active; 'I' for Inactive)
    1  A    between atoms: C_1  and  C_2
    2  A    between atoms: C_2  and  C_3
    3  A    between atoms: C_3  and  C_11
                            x       y       z     vdW  Elec       q    Type
                         _______ _______ _______ _____ _____    ______ ____

>  <TORSDO>
F 3

$$$$
=
 OpenBabel10272401543D

 28 31  0  0  1  0  0  0  0  0999 V2000
  190.7870  177.5980  142.0560 C   0  0  1  0  0  3  0  0  0  0  0  0
  186.0590  178.5750  144.0860 C   0  0  0  0  0  3  0  0  0  0  0  0
  187.7560  178.3120  138.1720 O   0  0  0  0  0  1  0  0  0  0  0  0
  184.5880  178.5760  142.1530 C   0  0  0  0  0  0  0  0  0  0  0  0
  187.0420  178.2420  141.8020 C   0  0  0  0  0  0  0  0  0  0  0  0
  183.6830  178.9240  144.3760 C   0  0  0  0  0  0  0  0  0  0  0  0
  185.8840  178.4530  142.6980 C   0  0  0  0  0  0  0  0  0  0  0  0
  185.5440  178.5550  139.8890 N   0  0  0  0  0  2  0  0  0  0  0  0
  183.4950  178.7990  142.9970 C   0  0  0  0  0  3  0  0  0  0  0  0
  189.2350  177.9630  140.0610 C   0  0  0  0  0  0  0  0  0  0  0  0
  188.3270  178.0230  142.3140 C   0  0  0  0  0  3  0  0  0  0  0  0
  184.3360  178.3600  140.6880 C   0  0  0  0  0  2  0  0  0  0  0  0
  191.5670  177.1200  139.6930 C   0  0  0  0  0  2  0  0  0  0  0  0
  187.9490  178.1960  139.5460 C   0  0  0  0  0  0  0  0  0  0  0  0
  190.4100  177.9270  139.1210 C   0  0  0  0  0  2  0  0  0  0  0  0
  182.5670  179.1570  145.2260 N   0  0  0  0  0  1  0  0  0  0  0  0
  184.9640  178.8090  144.9200 C   0  0  0  0  0  3  0  0  0  0  0  0
  186.8540  178.3130  140.4130 C   0  0  0  0  0  0  0  0  0  0  0  0
  191.9520  177.6690  141.0570 C   0  0  0  0  0  2  0  0  0  0  0  0
  189.4230  177.8690  141.4580 C   0  0  0  0  0  0  0  0  0  0  0  0
  190.8340  176.3890  143.0080 C   0  0  2  0  0  3  0  0  0  0  0  0
  190.0490  175.3310  142.5430 O   0  0  0  0  0  1  0  0  0  0  0  0
  190.5950  176.6680  144.4980 C   0  0  0  0  0  2  0  0  0  0  0  0
  191.5300  176.2040  146.8350 N   0  0  0  0  0  0  0  0  0  0  0  0
  192.3560  175.1350  144.9290 O   0  0  0  0  0  0  0  0  0  0  0  0
  191.5490  175.9690  145.4180 C   0  0  0  0  0  0  0  0  0  0  0  0
  190.4290  176.9110  147.4700 C   0  0  0  0  0  1  0  0  0  0  0  0
  192.5710  175.6530  147.6860 C   0  0  0  0  0  1  0  0  0  0  0  0
  1 21  1  6  0  0  0
  2 17  1  0  0  0  0
  3 14  1  0  0  0  0
  4  7  1  0  0  0  0
  4  9  2  0  0  0  0
  5 11  1  0  0  0  0
  5  7  1  0  0  0  0
  6 17  2  0  0  0  0
  6 16  1  0  0  0  0
  7  2  2  0  0  0  0
  8 18  1  0  0  0  0
  8 12  1  0  0  0  0
  9  6  1  0  0  0  0
 10 20  1  0  0  0  0
 12  4  1  0  0  0  0
 13 19  1  0  0  0  0
 14 10  2  0  0  0  0
 14 18  1  0  0  0  0
 15 13  1  0  0  0  0
 15 10  1  0  0  0  0
 18  5  2  0  0  0  0
 19  1  1  0  0  0  0
 20  1  1  0  0  0  0
 20 11  2  0  0  0  0
 21 22  1  6  0  0  0
 21 23  1  0  0  0  0
 23 26  1  0  0  0  0
 24 27  1  0  0  0  0
 24 28  1  0  0  0  0
 25 26  2  0  0  0  0
 26 24  1  0  0  0  0
M  END
>  <MODEL>
8

>  <REMARK>
 VINA RESULT:      -8.4      2.407      5.372
  Name = 
  3 active torsions:
  status: ('A' for Active; 'I' for Inactive)
    1  A    between atoms: C_1  and  C_2
    2  A    between atoms: C_2  and  C_3
    3  A    between atoms: C_3  and  C_11
                            x       y       z     vdW  Elec       q    Type
                         _______ _______ _______ _____ _____    ______ ____

>  <TORSDO>
F 3

$$$$
=
 OpenBabel10272401543D

 28 31  0  0  1  0  0  0  0  0999 V2000
  189.3410  176.9910  146.2000 C   0  0  1  0  0  3  0  0  0  0  0  0
  187.2120  177.8920  141.5010 C   0  0  0  0  0  3  0  0  0  0  0  0
  184.6520  178.4140  147.0770 O   0  0  0  0  0  1  0  0  0  0  0  0
  185.0610  178.8940  142.0210 C   0  0  0  0  0  0  0  0  0  0  0  0
  186.5340  178.1500  143.9020 C   0  0  0  0  0  0  0  0  0  0  0  0
  185.7430  178.5990  139.7130 C   0  0  0  0  0  0  0  0  0  0  0  0
  186.2770  178.3240  142.4550 C   0  0  0  0  0  0  0  0  0  0  0  0
  184.2390  178.8870  144.3380 N   0  0  0  0  0  2  0  0  0  0  0  0
  184.8070  179.0380  140.6530 C   0  0  0  0  0  3  0  0  0  0  0  0
  186.9360  177.7220  146.6540 C   0  0  0  0  0  0  0  0  0  0  0  0
  187.7650  177.6750  144.3700 C   0  0  0  0  0  3  0  0  0  0  0  0
  184.0720  179.4560  143.0020 C   0  0  0  0  0  2  0  0  0  0  0  0
  188.5500  177.4810  148.5570 C   0  0  0  0  0  2  0  0  0  0  0  0
  185.6960  178.1850  146.1850 C   0  0  0  0  0  0  0  0  0  0  0  0
  187.0970  177.3940  148.1140 C   0  0  0  0  0  2  0  0  0  0  0  0
  185.4750  178.7430  138.3240 N   0  0  0  0  0  1  0  0  0  0  0  0
  186.9450  178.0290  140.1360 C   0  0  0  0  0  3  0  0  0  0  0  0
  185.5040  178.4190  144.8170 C   0  0  0  0  0  0  0  0  0  0  0  0
  189.4100  176.5850  147.6800 C   0  0  0  0  0  2  0  0  0  0  0  0
  187.9820  177.4720  145.7380 C   0  0  0  0  0  0  0  0  0  0  0  0
  190.5190  177.8610  145.7200 C   0  0  2  0  0  3  0  0  0  0  0  0
  190.0860  179.0950  145.2300 O   0  0  0  0  0  1  0  0  0  0  0  0
  191.5360  177.1970  144.7830 C   0  0  0  0  0  2  0  0  0  0  0  0
  190.8600  176.9030  142.3320 N   0  0  0  0  0  0  0  0  0  0  0  0
  191.9600  178.8160  143.0990 O   0  0  0  0  0  0  0  0  0  0  0  0
  191.4800  177.6830  143.3660 C   0  0  0  0  0  0  0  0  0  0  0  0
  190.0320  175.7500  142.6470 C   0  0  0  0  0  1  0  0  0  0  0  0
  190.9680  177.3080  140.9410 C   0  0  0  0  0  1  0  0  0  0  0  0
  1 21  1  1  0  0  0
  1 19  1  0  0  0  0
  2  7  1  0  0  0  0
  4  7  2  0  0  0  0
  4 12  1  0  0  0  0
  5 11  2  0  0  0  0
  5 18  1  0  0  0  0
  6 17  1  0  0  0  0
  6  9  2  0  0  0  0
  7  5  1  0  0  0  0
  8 18  1  0  0  0  0
  9  4  1  0  0  0  0
 10 15  1  0  0  0  0
 11 20  1  0  0  0  0
 12  8  1  0  0  0  0
 14 10  1  0  0  0  0
 14  3  1  0  0  0  0
 15 13  1  0  0  0  0
 16  6  1  0  0  0  0
 17  2  2  0  0  0  0
 18 14  2  0  0  0  0
 19 13  1  0  0  0  0
 20  1  1  0  0  0  0
 20 10  2  0  0  0  0
 21 22  1  6  0  0  0
 23 21  1  0  0  0  0
 24 27  1  0  0  0  0
 24 26  1  0  0  0  0
 25 26  2  0  0  0  0
 26 23  1  0  0  0  0
 28 24  1  0  0  0  0
M  END
>  <MODEL>
9

>  <REMARK>
 VINA RESULT:      -8.3      1.935      2.958
  Name = 
  3 active torsions:
  status: ('A' for Active; 'I' for Inactive)
    1  A    between atoms: C_1  and  C_2
    2  A    between atoms: C_2  and  C_3
    3  A    between atoms: C_3  and  C_11
                            x       y       z     vdW  Elec       q    Type
                         _______ _______ _______ _____ _____    ______ ____

>  <TORSDO>
F 3

$$$$
