=
 OpenBabel10272414153D

 43 50  0  0  1  0  0  0  0  0999 V2000
  191.1400  176.6940  146.8380 C   0  0  0  0  0  0  0  0  0  0  0  0
  188.9610  178.0760  142.5250 N   0  0  0  0  0  0  0  0  0  0  0  0
  186.2210  178.0550  143.1260 C   0  0  0  0  0  0  0  0  0  0  0  0
  190.7220  177.3560  144.5400 C   0  0  0  0  0  0  0  0  0  0  0  0
  189.7670  176.6580  147.0830 C   0  0  0  0  0  3  0  0  0  0  0  0
  192.0140  176.3900  147.8280 F   0  0  0  0  0  0  0  0  0  0  0  0
  189.3300  177.3290  144.7860 C   0  0  0  0  0  0  0  0  0  0  0  0
  191.6140  177.0420  145.5710 C   0  0  0  0  0  3  0  0  0  0  0  0
  188.8670  176.9740  146.0630 C   0  0  0  0  0  3  0  0  0  0  0  0
  187.0550  177.6810  144.0500 N   0  0  0  0  0  0  0  0  0  0  0  0
  188.4710  177.6700  143.8150 C   0  0  0  0  0  0  0  0  0  0  0  0
  190.3840  177.9820  142.1960 C   0  0  0  0  0  2  0  0  0  0  0  0
  188.0240  178.5030  141.5220 C   0  0  0  0  0  0  0  0  0  0  0  0
  186.7150  178.5080  141.8090 C   0  0  0  0  0  3  0  0  0  0  0  0
  191.1990  177.6710  143.3720 N   0  0  0  0  0  0  0  0  0  0  0  0
  184.7570  178.0710  143.4250 C   0  0  2  0  0  3  0  0  0  0  0  0
  184.1030  179.1820  142.6930 C   0  0  2  0  0  3  0  0  0  0  0  0
  184.4040  179.2750  144.0650 O   0  0  0  0  0  0  0  0  0  0  0  0
  182.6540  178.8870  142.5090 C   0  0  0  0  0  0  0  0  0  0  0  0
  181.8520  179.0390  143.4730 O   0  0  0  0  0  0  0  0  0  0  0  0
  182.1950  178.4700  141.2570 O   0  0  0  0  0  0  0  0  0  0  0  0
  182.0740  179.3600  140.1520 C   0  0  2  0  0  3  0  0  0  0  0  0
  181.7850  178.7010  137.4370 S   0  0  0  0  0  0  0  0  0  0  0  0
  184.1780  178.1610  139.0790 C   0  0  2  0  0  3  0  0  0  0  0  0
  180.6130  179.4580  139.7570 C   0  0  0  0  0  2  0  0  0  0  0  0
  182.8040  178.8200  138.9360 C   0  0  2  0  0  0  0  0  0  0  0  0
  184.0550  179.6190  138.6550 C   0  0  0  0  0  2  0  0  0  0  0  0
  180.5390  179.7320  138.2650 C   0  0  0  0  0  2  0  0  0  0  0  0
  184.5120  177.2600  137.9240 C   0  0  0  0  0  0  0  0  0  0  0  0
  185.7330  176.8090  135.8710 C   0  0  0  0  0  3  0  0  0  0  0  0
  184.3470  175.0840  136.8560 C   0  0  0  0  0  3  0  0  0  0  0  0
  185.2080  175.5130  135.8410 C   0  0  0  0  0  3  0  0  0  0  0  0
  184.0050  175.9530  137.8980 C   0  0  0  0  0  3  0  0  0  0  0  0
  185.3920  177.6780  136.9140 C   0  0  0  0  0  3  0  0  0  0  0  0
  188.5110  178.9390  140.2750 O   0  0  0  0  0  0  0  0  0  0  0  0
  188.7990  176.0410  137.9310 C   0  0  0  0  0  3  0  0  0  0  0  0
  189.0970  176.7100  136.7410 C   0  0  0  0  0  0  0  0  0  0  0  0
  188.9930  178.8300  137.9180 C   0  0  0  0  0  3  0  0  0  0  0  0
  188.5980  176.7640  139.1110 C   0  0  0  0  0  3  0  0  0  0  0  0
  188.6860  178.1680  139.1120 C   0  0  0  0  0  0  0  0  0  0  0  0
  189.1960  178.1080  136.7370 C   0  0  0  0  0  3  0  0  0  0  0  0
  189.3700  176.4950  134.3890 O   0  0  0  0  0  0  0  0  0  0  0  0
  189.3030  175.9320  135.5150 C   0  0  0  0  0  3  0  0  0  0  0  0
  1  5  1  0  0  0  0
  1  6  1  0  0  0  0
  2 11  1  0  0  0  0
  3 10  2  0  0  0  0
  4  7  1  0  0  0  0
  4  8  1  0  0  0  0
  7  9  1  0  0  0  0
  8  1  2  0  0  0  0
  9  5  2  0  0  0  0
 11 10  1  0  0  0  0
 11  7  2  0  0  0  0
 12  2  1  0  0  0  0
 12 15  1  0  0  0  0
 13 14  2  0  0  0  0
 13  2  1  0  0  0  0
 14  3  1  0  0  0  0
 15  4  2  0  0  0  0
 16  3  1  6  0  0  0
 16 18  1  0  0  0  0
 17 19  1  1  0  0  0
 17 16  1  0  0  0  0
 17 18  1  0  0  0  0
 19 20  2  0  0  0  0
 21 19  1  0  0  0  0
 22 21  1  1  0  0  0
 23 28  1  0  0  0  0
 23 26  1  0  0  0  0
 24 29  1  6  0  0  0
 25 22  1  0  0  0  0
 26 27  1  6  0  0  0
 26 24  1  0  0  0  0
 26 22  1  0  0  0  0
 27 24  1  0  0  0  0
 28 25  1  0  0  0  0
 30 34  1  0  0  0  0
 31 33  2  0  0  0  0
 32 30  2  0  0  0  0
 32 31  1  0  0  0  0
 33 29  1  0  0  0  0
 34 29  2  0  0  0  0
 35 13  1  0  0  0  0
 36 39  1  0  0  0  0
 37 36  2  0  0  0  0
 38 40  1  0  0  0  0
 39 40  2  0  0  0  0
 40 35  1  0  0  0  0
 41 37  1  0  0  0  0
 41 38  2  0  0  0  0
 42 43  2  0  0  0  0
 43 37  1  0  0  0  0
M  END
>  <MODEL>
1

>  <REMARK>
 VINA RESULT:      -8.7      0.000      0.000
  Name = 
  8 active torsions:
  status: ('A' for Active; 'I' for Inactive)
    1  A    between atoms: O_1  and  C_34
    2  A    between atoms: O_1  and  C_35
    3  A    between atoms: C_2  and  C_13
    4  A    between atoms: O_3  and  C_4
    5  A    between atoms: O_3  and  C_12
    6  A    between atoms: C_6  and  C_12
    7  A    between atoms: C_11  and  C_14
    8  A    between atoms: C_19  and  C_37
                            x       y       z     vdW  Elec       q    Type
                         _______ _______ _______ _____ _____    ______ ____

>  <TORSDO>
F 8

$$$$
=
 OpenBabel10272414153D

 43 50  0  0  1  0  0  0  0  0999 V2000
  191.2050  176.5560  147.0930 C   0  0  0  0  0  0  0  0  0  0  0  0
  187.0830  177.8730  144.5370 N   0  0  0  0  0  0  0  0  0  0  0  0
  188.0110  178.2290  141.9140 C   0  0  0  0  0  0  0  0  0  0  0  0
  188.9370  177.1540  146.4680 C   0  0  0  0  0  0  0  0  0  0  0  0
  191.6320  176.7820  145.7850 C   0  0  0  0  0  3  0  0  0  0  0  0
  192.0920  176.1580  148.0370 F   0  0  0  0  0  0  0  0  0  0  0  0
  189.3630  177.3760  145.1380 C   0  0  0  0  0  0  0  0  0  0  0  0
  189.8620  176.7410  147.4320 C   0  0  0  0  0  3  0  0  0  0  0  0
  190.7160  177.1890  144.8120 C   0  0  0  0  0  3  0  0  0  0  0  0
  188.8770  177.9310  142.8360 N   0  0  0  0  0  0  0  0  0  0  0  0
  188.4730  177.7300  144.1990 C   0  0  0  0  0  0  0  0  0  0  0  0
  186.6320  177.7860  145.9270 C   0  0  0  0  0  2  0  0  0  0  0  0
  186.1380  178.1860  143.5000 C   0  0  0  0  0  0  0  0  0  0  0  0
  186.5740  178.3440  142.2420 C   0  0  0  0  0  3  0  0  0  0  0  0
  187.6960  177.3210  146.8200 N   0  0  0  0  0  0  0  0  0  0  0  0
  188.4750  178.4060  140.5050 C   0  0  2  0  0  3  0  0  0  0  0  0
  188.8950  177.1000  139.9420 C   0  0  2  0  0  3  0  0  0  0  0  0
  189.8330  178.0500  140.3910 O   0  0  0  0  0  0  0  0  0  0  0  0
  188.8080  177.1350  138.4550 C   0  0  0  0  0  0  0  0  0  0  0  0
  189.7860  177.5540  137.7750 O   0  0  0  0  0  0  0  0  0  0  0  0
  187.6470  176.6750  137.8270 O   0  0  0  0  0  0  0  0  0  0  0  0
  187.5200  176.6060  136.4110 C   0  0  2  0  0  3  0  0  0  0  0  0
  185.3370  175.6470  134.9250 S   0  0  0  0  0  0  0  0  0  0  0  0
  187.0650  174.0100  136.6720 C   0  0  2  0  0  3  0  0  0  0  0  0
  186.6750  177.7730  135.9370 C   0  0  0  0  0  2  0  0  0  0  0  0
  186.7780  175.3510  135.9910 C   0  0  2  0  0  0  0  0  0  0  0  0
  187.7150  174.3600  135.3400 C   0  0  0  0  0  2  0  0  0  0  0  0
  185.9330  177.3460  134.6810 C   0  0  0  0  0  2  0  0  0  0  0  0
  185.9390  173.0280  136.5150 C   0  0  0  0  0  0  0  0  0  0  0  0
  184.9490  171.0960  135.4210 C   0  0  0  0  0  3  0  0  0  0  0  0
  183.8400  172.1070  137.3230 C   0  0  0  0  0  3  0  0  0  0  0  0
  183.8780  171.1340  136.3190 C   0  0  0  0  0  3  0  0  0  0  0  0
  184.8720  173.0470  137.4240 C   0  0  0  0  0  3  0  0  0  0  0  0
  185.9810  172.0360  135.5230 C   0  0  0  0  0  3  0  0  0  0  0  0
  184.7720  178.2850  143.8280 O   0  0  0  0  0  0  0  0  0  0  0  0
  182.6810  178.3050  140.7300 C   0  0  0  0  0  3  0  0  0  0  0  0
  181.4870  178.8260  141.2370 C   0  0  0  0  0  0  0  0  0  0  0  0
  182.4950  178.9670  143.4400 C   0  0  0  0  0  3  0  0  0  0  0  0
  183.7780  178.1150  141.5750 C   0  0  0  0  0  3  0  0  0  0  0  0
  183.6920  178.4380  142.9410 C   0  0  0  0  0  0  0  0  0  0  0  0
  181.3970  179.1590  142.5950 C   0  0  0  0  0  3  0  0  0  0  0  0
  180.4300  178.7230  139.1100 O   0  0  0  0  0  0  0  0  0  0  0  0
  180.3480  179.0160  140.3330 C   0  0  0  0  0  3  0  0  0  0  0  0
  1  8  2  0  0  0  0
  1  6  1  0  0  0  0
  2 12  1  0  0  0  0
  3 14  1  0  0  0  0
  3 10  2  0  0  0  0
  4 15  2  0  0  0  0
  4  8  1  0  0  0  0
  5  1  1  0  0  0  0
  7  4  1  0  0  0  0
  9  7  1  0  0  0  0
  9  5  2  0  0  0  0
 10 11  1  0  0  0  0
 11  2  1  0  0  0  0
 11  7  2  0  0  0  0
 12 15  1  0  0  0  0
 13 35  1  0  0  0  0
 13  2  1  0  0  0  0
 14 13  2  0  0  0  0
 16  3  1  1  0  0  0
 17 19  1  6  0  0  0
 17 18  1  0  0  0  0
 17 16  1  0  0  0  0
 18 16  1  0  0  0  0
 20 19  2  0  0  0  0
 21 19  1  0  0  0  0
 22 21  1  1  0  0  0
 23 26  1  0  0  0  0
 24 29  1  6  0  0  0
 25 22  1  0  0  0  0
 26 27  1  6  0  0  0
 26 22  1  0  0  0  0
 26 24  1  0  0  0  0
 27 24  1  0  0  0  0
 28 23  1  0  0  0  0
 28 25  1  0  0  0  0
 29 33  1  0  0  0  0
 30 34  1  0  0  0  0
 30 32  2  0  0  0  0
 31 33  2  0  0  0  0
 32 31  1  0  0  0  0
 34 29  2  0  0  0  0
 36 37  2  0  0  0  0
 36 39  1  0  0  0  0
 37 41  1  0  0  0  0
 39 40  2  0  0  0  0
 40 38  1  0  0  0  0
 40 35  1  0  0  0  0
 41 38  2  0  0  0  0
 42 43  2  0  0  0  0
 43 37  1  0  0  0  0
M  END
>  <MODEL>
2

>  <REMARK>
 VINA RESULT:      -8.7      2.037      5.814
  Name = 
  8 active torsions:
  status: ('A' for Active; 'I' for Inactive)
    1  A    between atoms: O_1  and  C_34
    2  A    between atoms: O_1  and  C_35
    3  A    between atoms: C_2  and  C_13
    4  A    between atoms: O_3  and  C_4
    5  A    between atoms: O_3  and  C_12
    6  A    between atoms: C_6  and  C_12
    7  A    between atoms: C_11  and  C_14
    8  A    between atoms: C_19  and  C_37
                            x       y       z     vdW  Elec       q    Type
                         _______ _______ _______ _____ _____    ______ ____

>  <TORSDO>
F 8

$$$$
=
 OpenBabel10272414153D

 43 50  0  0  1  0  0  0  0  0999 V2000
  191.7510  176.2320  147.0900 C   0  0  0  0  0  0  0  0  0  0  0  0
  187.4970  177.7710  144.8990 N   0  0  0  0  0  0  0  0  0  0  0  0
  188.0270  177.5060  142.1570 C   0  0  0  0  0  0  0  0  0  0  0  0
  189.5200  177.0910  146.6680 C   0  0  0  0  0  0  0  0  0  0  0  0
  191.9870  176.1540  145.7170 C   0  0  0  0  0  3  0  0  0  0  0  0
  192.7150  175.8580  147.9650 F   0  0  0  0  0  0  0  0  0  0  0  0
  189.7500  177.0050  145.2760 C   0  0  0  0  0  0  0  0  0  0  0  0
  190.5220  176.6990  147.5620 C   0  0  0  0  0  3  0  0  0  0  0  0
  190.9920  176.5370  144.8140 C   0  0  0  0  0  3  0  0  0  0  0  0
  188.9800  177.2290  142.9950 N   0  0  0  0  0  0  0  0  0  0  0  0
  188.7800  177.3380  144.4130 C   0  0  0  0  0  0  0  0  0  0  0  0
  187.2710  178.0030  146.3270 C   0  0  0  0  0  2  0  0  0  0  0  0
  186.4500  178.0570  143.9570 C   0  0  0  0  0  0  0  0  0  0  0  0
  186.6940  177.9190  142.6450 C   0  0  0  0  0  3  0  0  0  0  0  0
  188.3900  177.5250  147.1430 N   0  0  0  0  0  0  0  0  0  0  0  0
  188.2750  177.3560  140.6910 C   0  0  2  0  0  3  0  0  0  0  0  0
  189.6900  177.6730  140.3830 C   0  0  2  0  0  3  0  0  0  0  0  0
  188.6540  178.5920  140.1320 O   0  0  0  0  0  0  0  0  0  0  0  0
  190.0950  177.0060  139.1130 C   0  0  0  0  0  0  0  0  0  0  0  0
  190.6880  175.8910  139.1470 O   0  0  0  0  0  0  0  0  0  0  0  0
  189.7860  177.6130  137.8930 O   0  0  0  0  0  0  0  0  0  0  0  0
  189.4460  176.8640  136.7310 C   0  0  2  0  0  3  0  0  0  0  0  0
  187.2790  177.2780  134.9920 S   0  0  0  0  0  0  0  0  0  0  0  0
  187.0670  176.4410  137.8160 C   0  0  2  0  0  3  0  0  0  0  0  0
  189.9150  177.6220  135.5030 C   0  0  0  0  0  2  0  0  0  0  0  0
  187.9410  176.7280  136.5920 C   0  0  2  0  0  0  0  0  0  0  0  0
  187.4950  175.3140  136.8850 C   0  0  0  0  0  2  0  0  0  0  0  0
  188.9790  177.2940  134.3520 C   0  0  0  0  0  2  0  0  0  0  0  0
  185.6330  176.8350  137.6090 C   0  0  0  0  0  0  0  0  0  0  0  0
  183.3860  176.3290  136.8290 C   0  0  0  0  0  3  0  0  0  0  0  0
  183.8200  178.4070  137.9950 C   0  0  0  0  0  3  0  0  0  0  0  0
  182.9320  177.5490  137.3390 C   0  0  0  0  0  3  0  0  0  0  0  0
  185.1650  178.0480  138.1350 C   0  0  0  0  0  3  0  0  0  0  0  0
  184.7310  175.9690  136.9700 C   0  0  0  0  0  3  0  0  0  0  0  0
  185.1840  178.4410  144.4390 O   0  0  0  0  0  0  0  0  0  0  0  0
  182.7400  178.5920  141.6150 C   0  0  0  0  0  3  0  0  0  0  0  0
  181.5570  178.8350  142.3200 C   0  0  0  0  0  0  0  0  0  0  0  0
  182.8040  178.8030  144.4020 C   0  0  0  0  0  3  0  0  0  0  0  0
  183.9500  178.4550  142.3010 C   0  0  0  0  0  3  0  0  0  0  0  0
  183.9910  178.5520  143.7040 C   0  0  0  0  0  0  0  0  0  0  0  0
  181.5920  178.9420  143.7170 C   0  0  0  0  0  3  0  0  0  0  0  0
  180.2740  178.9300  140.3210 O   0  0  0  0  0  0  0  0  0  0  0  0
  180.2990  178.9740  141.5810 C   0  0  0  0  0  3  0  0  0  0  0  0
  1  8  2  0  0  0  0
  1  6  1  0  0  0  0
  2 12  1  0  0  0  0
  3 14  1  0  0  0  0
  3 10  2  0  0  0  0
  4 15  2  0  0  0  0
  4  8  1  0  0  0  0
  5  1  1  0  0  0  0
  7  4  1  0  0  0  0
  9  7  1  0  0  0  0
  9  5  2  0  0  0  0
 10 11  1  0  0  0  0
 11  2  1  0  0  0  0
 11  7  2  0  0  0  0
 12 15  1  0  0  0  0
 13 35  1  0  0  0  0
 13  2  1  0  0  0  0
 14 13  2  0  0  0  0
 16  3  1  1  0  0  0
 17 19  1  6  0  0  0
 17 16  1  0  0  0  0
 18 17  1  0  0  0  0
 18 16  1  0  0  0  0
 19 20  2  0  0  0  0
 21 19  1  0  0  0  0
 22 21  1  1  0  0  0
 23 26  1  0  0  0  0
 24 29  1  6  0  0  0
 25 22  1  0  0  0  0
 26 22  1  0  0  0  0
 26 27  1  6  0  0  0
 26 24  1  0  0  0  0
 27 24  1  0  0  0  0
 28 23  1  0  0  0  0
 28 25  1  0  0  0  0
 29 33  1  0  0  0  0
 30 34  1  0  0  0  0
 30 32  2  0  0  0  0
 31 33  2  0  0  0  0
 32 31  1  0  0  0  0
 34 29  2  0  0  0  0
 36 39  2  0  0  0  0
 36 37  1  0  0  0  0
 37 41  2  0  0  0  0
 39 40  1  0  0  0  0
 40 38  2  0  0  0  0
 40 35  1  0  0  0  0
 41 38  1  0  0  0  0
 42 43  2  0  0  0  0
 43 37  1  0  0  0  0
M  END
>  <MODEL>
3

>  <REMARK>
 VINA RESULT:      -8.4      1.822      6.048
  Name = 
  8 active torsions:
  status: ('A' for Active; 'I' for Inactive)
    1  A    between atoms: O_1  and  C_34
    2  A    between atoms: O_1  and  C_35
    3  A    between atoms: C_2  and  C_13
    4  A    between atoms: O_3  and  C_4
    5  A    between atoms: O_3  and  C_12
    6  A    between atoms: C_6  and  C_12
    7  A    between atoms: C_11  and  C_14
    8  A    between atoms: C_19  and  C_37
                            x       y       z     vdW  Elec       q    Type
                         _______ _______ _______ _____ _____    ______ ____

>  <TORSDO>
F 8

$$$$
=
 OpenBabel10272414153D

 43 50  0  0  1  0  0  0  0  0999 V2000
  188.0820  177.2950  147.0530 C   0  0  0  0  0  0  0  0  0  0  0  0
  186.3440  178.4310  142.4760 N   0  0  0  0  0  0  0  0  0  0  0  0
  188.5690  178.0590  140.8070 C   0  0  0  0  0  0  0  0  0  0  0  0
  186.6860  177.9800  145.1890 C   0  0  0  0  0  0  0  0  0  0  0  0
  189.1730  177.1600  146.1940 C   0  0  0  0  0  3  0  0  0  0  0  0
  188.2230  177.0310  148.3750 F   0  0  0  0  0  0  0  0  0  0  0  0
  187.7860  177.8360  144.3130 C   0  0  0  0  0  0  0  0  0  0  0  0
  186.8440  177.7030  146.5510 C   0  0  0  0  0  3  0  0  0  0  0  0
  189.0260  177.4290  144.8310 C   0  0  0  0  0  3  0  0  0  0  0  0
  188.7250  177.8890  142.0860 N   0  0  0  0  0  0  0  0  0  0  0  0
  187.6310  178.0590  143.0000 C   0  0  0  0  0  0  0  0  0  0  0  0
  185.2220  178.7220  143.3700 C   0  0  0  0  0  2  0  0  0  0  0  0
  186.1860  178.5970  141.0570 C   0  0  0  0  0  0  0  0  0  0  0  0
  187.2430  178.4070  140.2540 C   0  0  0  0  0  3  0  0  0  0  0  0
  185.5200  178.3620  144.7580 N   0  0  0  0  0  0  0  0  0  0  0  0
  189.7320  177.8490  139.8940 C   0  0  2  0  0  3  0  0  0  0  0  0
  190.2650  176.4760  140.0600 C   0  0  2  0  0  3  0  0  0  0  0  0
  190.8980  177.5910  140.6410 O   0  0  0  0  0  0  0  0  0  0  0  0
  190.9950  176.0610  138.8290 C   0  0  0  0  0  0  0  0  0  0  0  0
  192.1260  176.5600  138.5680 O   0  0  0  0  0  0  0  0  0  0  0  0
  190.4280  175.0980  137.9900 O   0  0  0  0  0  0  0  0  0  0  0  0
  190.1280  175.3580  136.6220 C   0  0  2  0  0  3  0  0  0  0  0  0
  187.5970  175.7000  135.4520 S   0  0  0  0  0  0  0  0  0  0  0  0
  188.6020  173.1930  136.6440 C   0  0  2  0  0  3  0  0  0  0  0  0
  189.8400  176.8380  136.4550 C   0  0  0  0  0  2  0  0  0  0  0  0
  188.8660  174.6330  136.1940 C   0  0  2  0  0  0  0  0  0  0  0  0
  189.1890  173.4820  135.2690 C   0  0  0  0  0  2  0  0  0  0  0  0
  188.8530  177.0060  135.3120 C   0  0  0  0  0  2  0  0  0  0  0  0
  187.1480  172.8220  136.5760 C   0  0  0  0  0  0  0  0  0  0  0  0
  185.3070  171.6560  135.4990 C   0  0  0  0  0  3  0  0  0  0  0  0
  184.9430  172.8100  137.5980 C   0  0  0  0  0  3  0  0  0  0  0  0
  184.4520  172.0460  136.5350 C   0  0  0  0  0  3  0  0  0  0  0  0
  186.2900  173.1910  137.6210 C   0  0  0  0  0  3  0  0  0  0  0  0
  186.6530  172.0360  135.5230 C   0  0  0  0  0  3  0  0  0  0  0  0
  184.9150  178.9210  140.5450 O   0  0  0  0  0  0  0  0  0  0  0  0
  183.3940  177.2740  137.5550 C   0  0  0  0  0  3  0  0  0  0  0  0
  182.3810  176.5300  138.1670 C   0  0  0  0  0  0  0  0  0  0  0  0
  183.0760  177.3820  140.3300 C   0  0  0  0  0  3  0  0  0  0  0  0
  184.2450  178.0680  138.3280 C   0  0  0  0  0  3  0  0  0  0  0  0
  184.0980  178.1230  139.7260 C   0  0  0  0  0  0  0  0  0  0  0  0
  182.2230  176.5870  139.5580 C   0  0  0  0  0  3  0  0  0  0  0  0
  181.8580  174.5590  136.9440 O   0  0  0  0  0  0  0  0  0  0  0  0
  181.5000  175.7020  137.3380 C   0  0  0  0  0  3  0  0  0  0  0  0
  1  6  1  0  0  0  0
  2 11  1  0  0  0  0
  2 12  1  0  0  0  0
  3 10  2  0  0  0  0
  4  8  1  0  0  0  0
  5  1  1  0  0  0  0
  7  9  1  0  0  0  0
  7  4  1  0  0  0  0
  8  1  2  0  0  0  0
  9  5  2  0  0  0  0
 10 11  1  0  0  0  0
 11  7  2  0  0  0  0
 12 15  1  0  0  0  0
 13  2  1  0  0  0  0
 14  3  1  0  0  0  0
 14 13  2  0  0  0  0
 15  4  2  0  0  0  0
 16 17  1  0  0  0  0
 16 18  1  0  0  0  0
 16  3  1  1  0  0  0
 17 19  1  6  0  0  0
 17 18  1  0  0  0  0
 20 19  2  0  0  0  0
 21 19  1  0  0  0  0
 22 21  1  1  0  0  0
 23 26  1  0  0  0  0
 24 29  1  6  0  0  0
 25 22  1  0  0  0  0
 26 27  1  6  0  0  0
 26 22  1  0  0  0  0
 26 24  1  0  0  0  0
 27 24  1  0  0  0  0
 28 23  1  0  0  0  0
 28 25  1  0  0  0  0
 29 33  1  0  0  0  0
 30 34  1  0  0  0  0
 30 32  2  0  0  0  0
 31 33  2  0  0  0  0
 32 31  1  0  0  0  0
 34 29  2  0  0  0  0
 35 13  1  0  0  0  0
 36 37  2  0  0  0  0
 36 39  1  0  0  0  0
 37 41  1  0  0  0  0
 39 40  2  0  0  0  0
 40 38  1  0  0  0  0
 40 35  1  0  0  0  0
 41 38  2  0  0  0  0
 42 43  2  0  0  0  0
 43 37  1  0  0  0  0
M  END
>  <MODEL>
4

>  <REMARK>
 VINA RESULT:      -8.4      2.609      6.167
  Name = 
  8 active torsions:
  status: ('A' for Active; 'I' for Inactive)
    1  A    between atoms: O_1  and  C_34
    2  A    between atoms: O_1  and  C_35
    3  A    between atoms: C_2  and  C_13
    4  A    between atoms: O_3  and  C_4
    5  A    between atoms: O_3  and  C_12
    6  A    between atoms: C_6  and  C_12
    7  A    between atoms: C_11  and  C_14
    8  A    between atoms: C_19  and  C_37
                            x       y       z     vdW  Elec       q    Type
                         _______ _______ _______ _____ _____    ______ ____

>  <TORSDO>
F 8

$$$$
=
 OpenBabel10272414153D

 43 50  0  0  1  0  0  0  0  0999 V2000
  187.9740  177.3910  147.2220 C   0  0  0  0  0  0  0  0  0  0  0  0
  188.5980  177.7700  142.2500 N   0  0  0  0  0  0  0  0  0  0  0  0
  186.0480  178.4670  141.3090 C   0  0  0  0  0  0  0  0  0  0  0  0
  188.8970  177.3790  144.9770 C   0  0  0  0  0  0  0  0  0  0  0  0
  186.7140  177.6980  146.7090 C   0  0  0  0  0  3  0  0  0  0  0  0
  188.1440  177.2440  148.5580 F   0  0  0  0  0  0  0  0  0  0  0  0
  187.6240  177.7000  144.4520 C   0  0  0  0  0  0  0  0  0  0  0  0
  189.0610  177.2330  146.3590 C   0  0  0  0  0  3  0  0  0  0  0  0
  186.5400  177.8530  145.3310 C   0  0  0  0  0  3  0  0  0  0  0  0
  186.1930  178.2410  142.5810 N   0  0  0  0  0  0  0  0  0  0  0  0
  187.4690  177.8850  143.1330 C   0  0  0  0  0  0  0  0  0  0  0  0
  189.8970  177.3060  142.7410 C   0  0  0  0  0  2  0  0  0  0  0  0
  188.4220  178.0410  140.8490 C   0  0  0  0  0  0  0  0  0  0  0  0
  187.2080  178.3870  140.3960 C   0  0  0  0  0  3  0  0  0  0  0  0
  189.9300  177.2200  144.2030 N   0  0  0  0  0  0  0  0  0  0  0  0
  184.7060  178.8570  140.7840 C   0  0  2  0  0  3  0  0  0  0  0  0
  184.6530  178.6420  139.3180 C   0  0  2  0  0  3  0  0  0  0  0  0
  184.8310  179.9230  139.8720 O   0  0  0  0  0  0  0  0  0  0  0  0
  183.2390  178.4690  138.8800 C   0  0  0  0  0  0  0  0  0  0  0  0
  182.4490  179.4540  138.8960 O   0  0  0  0  0  0  0  0  0  0  0  0
  182.8120  177.2180  138.4270 O   0  0  0  0  0  0  0  0  0  0  0  0
  182.4510  176.9780  137.0710 C   0  0  2  0  0  3  0  0  0  0  0  0
  182.6360  174.5660  135.6430 S   0  0  0  0  0  0  0  0  0  0  0  0
  184.9260  176.1270  136.6620 C   0  0  2  0  0  3  0  0  0  0  0  0
  181.0940  176.3010  137.0360 C   0  0  0  0  0  2  0  0  0  0  0  0
  183.4200  176.0130  136.4110 C   0  0  2  0  0  0  0  0  0  0  0  0
  184.2980  176.7270  135.4100 C   0  0  0  0  0  2  0  0  0  0  0  0
  181.0360  175.4100  135.8070 C   0  0  0  0  0  2  0  0  0  0  0  0
  185.6590  174.8480  136.3730 C   0  0  0  0  0  0  0  0  0  0  0  0
  186.9860  173.4550  134.8870 C   0  0  0  0  0  3  0  0  0  0  0  0
  186.5410  172.7220  137.1530 C   0  0  0  0  0  3  0  0  0  0  0  0
  187.1220  172.5000  135.9000 C   0  0  0  0  0  3  0  0  0  0  0  0
  185.8170  173.8960  137.3900 C   0  0  0  0  0  3  0  0  0  0  0  0
  186.2630  174.6290  135.1250 C   0  0  0  0  0  3  0  0  0  0  0  0
  189.5380  177.9670  139.9940 O   0  0  0  0  0  0  0  0  0  0  0  0
  189.1640  175.4760  137.2330 C   0  0  0  0  0  3  0  0  0  0  0  0
  190.4590  174.9500  137.1930 C   0  0  0  0  0  0  0  0  0  0  0  0
  191.1080  176.4360  138.9980 C   0  0  0  0  0  3  0  0  0  0  0  0
  188.8430  176.4790  138.1520 C   0  0  0  0  0  3  0  0  0  0  0  0
  189.8160  176.9740  139.0390 C   0  0  0  0  0  0  0  0  0  0  0  0
  191.4310  175.4320  138.0800 C   0  0  0  0  0  3  0  0  0  0  0  0
  191.8400  173.9310  135.5470 O   0  0  0  0  0  0  0  0  0  0  0  0
  190.7740  173.8990  136.2200 C   0  0  0  0  0  3  0  0  0  0  0  0
  1  6  1  0  0  0  0
  2 12  1  0  0  0  0
  2 11  1  0  0  0  0
  3 10  2  0  0  0  0
  4  8  1  0  0  0  0
  5  1  1  0  0  0  0
  7  4  1  0  0  0  0
  7  9  1  0  0  0  0
  8  1  2  0  0  0  0
  9  5  2  0  0  0  0
 10 11  1  0  0  0  0
 11  7  2  0  0  0  0
 12 15  1  0  0  0  0
 13  2  1  0  0  0  0
 14 13  2  0  0  0  0
 14  3  1  0  0  0  0
 15  4  2  0  0  0  0
 16  3  1  6  0  0  0
 17 19  1  1  0  0  0
 17 18  1  0  0  0  0
 17 16  1  0  0  0  0
 18 16  1  0  0  0  0
 19 20  2  0  0  0  0
 21 19  1  0  0  0  0
 22 21  1  1  0  0  0
 23 28  1  0  0  0  0
 23 26  1  0  0  0  0
 24 29  1  6  0  0  0
 25 22  1  0  0  0  0
 26 27  1  6  0  0  0
 26 24  1  0  0  0  0
 26 22  1  0  0  0  0
 27 24  1  0  0  0  0
 28 25  1  0  0  0  0
 29 33  1  0  0  0  0
 30 34  1  0  0  0  0
 30 32  2  0  0  0  0
 31 33  2  0  0  0  0
 32 31  1  0  0  0  0
 34 29  2  0  0  0  0
 35 13  1  0  0  0  0
 36 39  1  0  0  0  0
 37 36  2  0  0  0  0
 37 41  1  0  0  0  0
 38 40  1  0  0  0  0
 39 40  2  0  0  0  0
 40 35  1  0  0  0  0
 41 38  2  0  0  0  0
 42 43  2  0  0  0  0
 43 37  1  0  0  0  0
M  END
>  <MODEL>
5

>  <REMARK>
 VINA RESULT:      -8.3      2.206      3.068
  Name = 
  8 active torsions:
  status: ('A' for Active; 'I' for Inactive)
    1  A    between atoms: O_1  and  C_34
    2  A    between atoms: O_1  and  C_35
    3  A    between atoms: C_2  and  C_13
    4  A    between atoms: O_3  and  C_4
    5  A    between atoms: O_3  and  C_12
    6  A    between atoms: C_6  and  C_12
    7  A    between atoms: C_11  and  C_14
    8  A    between atoms: C_19  and  C_37
                            x       y       z     vdW  Elec       q    Type
                         _______ _______ _______ _____ _____    ______ ____

>  <TORSDO>
F 8

$$$$
=
 OpenBabel10272414153D

 43 50  0  0  1  0  0  0  0  0999 V2000
  191.7030  176.2010  147.2540 C   0  0  0  0  0  0  0  0  0  0  0  0
  187.5500  177.8130  144.9250 N   0  0  0  0  0  0  0  0  0  0  0  0
  188.1400  177.4770  142.2030 C   0  0  0  0  0  0  0  0  0  0  0  0
  189.5080  177.1130  146.7580 C   0  0  0  0  0  0  0  0  0  0  0  0
  191.9700  176.0870  145.8890 C   0  0  0  0  0  3  0  0  0  0  0  0
  192.6330  175.8170  148.1610 F   0  0  0  0  0  0  0  0  0  0  0  0
  189.7700  176.9910  145.3740 C   0  0  0  0  0  0  0  0  0  0  0  0
  190.4760  176.7110  147.6850 C   0  0  0  0  0  3  0  0  0  0  0  0
  191.0090  176.4790  144.9540 C   0  0  0  0  0  3  0  0  0  0  0  0
  189.0630  177.1900  143.0710 N   0  0  0  0  0  0  0  0  0  0  0  0
  188.8310  177.3340  144.4800 C   0  0  0  0  0  0  0  0  0  0  0  0
  187.2950  178.0800  146.3420 C   0  0  0  0  0  2  0  0  0  0  0  0
  186.5350  178.1080  143.9510 C   0  0  0  0  0  0  0  0  0  0  0  0
  186.8080  177.9360  142.6490 C   0  0  0  0  0  3  0  0  0  0  0  0
  188.3790  177.5880  147.1950 N   0  0  0  0  0  0  0  0  0  0  0  0
  188.4200  177.2890  140.7480 C   0  0  2  0  0  3  0  0  0  0  0  0
  189.8110  177.7030  140.4430 C   0  0  2  0  0  3  0  0  0  0  0  0
  188.7100  178.5280  140.1440 O   0  0  0  0  0  0  0  0  0  0  0  0
  190.2850  177.0210  139.2050 C   0  0  0  0  0  0  0  0  0  0  0  0
  190.8410  175.8900  139.2830 O   0  0  0  0  0  0  0  0  0  0  0  0
  190.0800  177.6330  137.9660 O   0  0  0  0  0  0  0  0  0  0  0  0
  189.4480  176.9650  136.8790 C   0  0  2  0  0  3  0  0  0  0  0  0
  189.5890  174.2380  136.2200 S   0  0  0  0  0  0  0  0  0  0  0  0
  191.8460  176.1380  136.1160 C   0  0  2  0  0  3  0  0  0  0  0  0
  188.2110  176.2530  137.3920 C   0  0  0  0  0  2  0  0  0  0  0  0
  190.3470  175.8860  136.3050 C   0  0  2  0  0  0  0  0  0  0  0  0
  190.8790  176.2880  134.9490 C   0  0  0  0  0  2  0  0  0  0  0  0
  187.9790  175.0200  136.5350 C   0  0  0  0  0  2  0  0  0  0  0  0
  192.6410  174.8670  136.0360 C   0  0  0  0  0  0  0  0  0  0  0  0
  193.6710  173.0890  134.7360 C   0  0  0  0  0  3  0  0  0  0  0  0
  194.0080  173.1830  137.1330 C   0  0  0  0  0  3  0  0  0  0  0  0
  194.2290  172.5570  135.9020 C   0  0  0  0  0  3  0  0  0  0  0  0
  193.2220  174.3390  137.1980 C   0  0  0  0  0  3  0  0  0  0  0  0
  192.8850  174.2450  134.8010 C   0  0  0  0  0  3  0  0  0  0  0  0
  185.2690  178.5380  144.3930 O   0  0  0  0  0  0  0  0  0  0  0  0
  182.8690  178.6550  141.5300 C   0  0  0  0  0  3  0  0  0  0  0  0
  181.6640  178.8190  142.2200 C   0  0  0  0  0  0  0  0  0  0  0  0
  182.8750  178.7860  144.3230 C   0  0  0  0  0  3  0  0  0  0  0  0
  184.0720  178.5560  142.2340 C   0  0  0  0  0  3  0  0  0  0  0  0
  184.0850  178.6130  143.6400 C   0  0  0  0  0  0  0  0  0  0  0  0
  181.6700  178.8870  143.6190 C   0  0  0  0  0  3  0  0  0  0  0  0
  180.4180  178.9960  140.2030 O   0  0  0  0  0  0  0  0  0  0  0  0
  180.4130  178.9200  141.4610 C   0  0  0  0  0  3  0  0  0  0  0  0
  1  8  2  0  0  0  0
  1  6  1  0  0  0  0
  2 12  1  0  0  0  0
  3 14  1  0  0  0  0
  3 10  2  0  0  0  0
  4 15  2  0  0  0  0
  4  8  1  0  0  0  0
  5  1  1  0  0  0  0
  7  4  1  0  0  0  0
  9  7  1  0  0  0  0
  9  5  2  0  0  0  0
 10 11  1  0  0  0  0
 11  2  1  0  0  0  0
 11  7  2  0  0  0  0
 12 15  1  0  0  0  0
 13 35  1  0  0  0  0
 13  2  1  0  0  0  0
 14 13  2  0  0  0  0
 16  3  1  1  0  0  0
 17 19  1  6  0  0  0
 17 16  1  0  0  0  0
 18 17  1  0  0  0  0
 18 16  1  0  0  0  0
 19 20  2  0  0  0  0
 21 19  1  0  0  0  0
 22 25  1  0  0  0  0
 22 21  1  1  0  0  0
 23 26  1  0  0  0  0
 23 28  1  0  0  0  0
 24 29  1  6  0  0  0
 24 26  1  0  0  0  0
 26 27  1  6  0  0  0
 26 22  1  0  0  0  0
 27 24  1  0  0  0  0
 28 25  1  0  0  0  0
 29 33  1  0  0  0  0
 30 34  1  0  0  0  0
 30 32  2  0  0  0  0
 31 33  2  0  0  0  0
 32 31  1  0  0  0  0
 34 29  2  0  0  0  0
 36 37  2  0  0  0  0
 36 39  1  0  0  0  0
 37 41  1  0  0  0  0
 39 40  2  0  0  0  0
 40 38  1  0  0  0  0
 40 35  1  0  0  0  0
 41 38  2  0  0  0  0
 42 43  2  0  0  0  0
 43 37  1  0  0  0  0
M  END
>  <MODEL>
6

>  <REMARK>
 VINA RESULT:      -7.9      2.737      7.075
  Name = 
  8 active torsions:
  status: ('A' for Active; 'I' for Inactive)
    1  A    between atoms: O_1  and  C_34
    2  A    between atoms: O_1  and  C_35
    3  A    between atoms: C_2  and  C_13
    4  A    between atoms: O_3  and  C_4
    5  A    between atoms: O_3  and  C_12
    6  A    between atoms: C_6  and  C_12
    7  A    between atoms: C_11  and  C_14
    8  A    between atoms: C_19  and  C_37
                            x       y       z     vdW  Elec       q    Type
                         _______ _______ _______ _____ _____    ______ ____

>  <TORSDO>
F 8

$$$$
=
 OpenBabel10272414153D

 43 50  0  0  1  0  0  0  0  0999 V2000
  188.4960  177.3430  146.0420 C   0  0  0  0  0  0  0  0  0  0  0  0
  190.1850  177.3910  141.3090 N   0  0  0  0  0  0  0  0  0  0  0  0
  187.9120  178.0380  139.7970 C   0  0  0  0  0  0  0  0  0  0  0  0
  189.8810  177.1780  144.0550 C   0  0  0  0  0  0  0  0  0  0  0  0
  187.3830  177.6230  145.2500 C   0  0  0  0  0  3  0  0  0  0  0  0
  188.3710  177.2830  147.3900 F   0  0  0  0  0  0  0  0  0  0  0  0
  188.7580  177.4710  143.2480 C   0  0  0  0  0  0  0  0  0  0  0  0
  189.7400  177.1220  145.4460 C   0  0  0  0  0  3  0  0  0  0  0  0
  187.5130  177.6880  143.8610 C   0  0  0  0  0  3  0  0  0  0  0  0
  187.7750  177.8960  141.0810 N   0  0  0  0  0  0  0  0  0  0  0  0
  188.8950  177.5700  141.9180 C   0  0  0  0  0  0  0  0  0  0  0  0
  191.3370  176.9520  142.0970 C   0  0  0  0  0  2  0  0  0  0  0  0
  190.3200  177.5690  139.8880 C   0  0  0  0  0  0  0  0  0  0  0  0
  189.2400  177.8920  139.1630 C   0  0  0  0  0  3  0  0  0  0  0  0
  191.0540  176.9620  143.5340 N   0  0  0  0  0  0  0  0  0  0  0  0
  186.7220  178.4010  138.9700 C   0  0  2  0  0  3  0  0  0  0  0  0
  186.5720  177.4410  137.8500 C   0  0  2  0  0  3  0  0  0  0  0  0
  187.1200  178.7230  137.6580 O   0  0  0  0  0  0  0  0  0  0  0  0
  185.1560  177.4200  137.3860 C   0  0  0  0  0  0  0  0  0  0  0  0
  184.7460  176.4750  136.6550 O   0  0  0  0  0  0  0  0  0  0  0  0
  184.2880  178.4380  137.7910 O   0  0  0  0  0  0  0  0  0  0  0  0
  182.9280  178.1920  138.1330 C   0  0  2  0  0  3  0  0  0  0  0  0
  181.3860  179.4880  140.0910 S   0  0  0  0  0  0  0  0  0  0  0  0
  183.7300  177.7730  140.6230 C   0  0  2  0  0  3  0  0  0  0  0  0
  182.0580  179.2480  137.4790 C   0  0  0  0  0  2  0  0  0  0  0  0
  182.7090  178.3320  139.6280 C   0  0  2  0  0  0  0  0  0  0  0  0
  182.4750  176.9850  140.2710 C   0  0  0  0  0  2  0  0  0  0  0  0
  180.8400  179.4750  138.3590 C   0  0  0  0  0  2  0  0  0  0  0  0
  183.6350  178.4190  141.9750 C   0  0  0  0  0  0  0  0  0  0  0  0
  182.4610  178.7810  144.0730 C   0  0  0  0  0  3  0  0  0  0  0  0
  184.6650  179.7320  143.7420 C   0  0  0  0  0  3  0  0  0  0  0  0
  183.5360  179.5420  144.5450 C   0  0  0  0  0  3  0  0  0  0  0  0
  184.7160  179.1660  142.4630 C   0  0  0  0  0  3  0  0  0  0  0  0
  182.5140  178.2140  142.7950 C   0  0  0  0  0  3  0  0  0  0  0  0
  191.5930  177.4330  139.3020 O   0  0  0  0  0  0  0  0  0  0  0  0
  191.6900  174.3480  137.1940 C   0  0  0  0  0  3  0  0  0  0  0  0
  192.9800  174.4470  136.6650 C   0  0  0  0  0  0  0  0  0  0  0  0
  193.3120  176.5170  137.8860 C   0  0  0  0  0  3  0  0  0  0  0  0
  191.2130  175.3310  138.0660 C   0  0  0  0  0  3  0  0  0  0  0  0
  192.0190  176.4300  138.4140 C   0  0  0  0  0  0  0  0  0  0  0  0
  193.7920  175.5340  137.0140 C   0  0  0  0  0  3  0  0  0  0  0  0
  193.8470  173.6880  134.5850 O   0  0  0  0  0  0  0  0  0  0  0  0
  193.4600  173.4050  135.7510 C   0  0  0  0  0  3  0  0  0  0  0  0
  1  6  1  0  0  0  0
  2 11  1  0  0  0  0
  2 12  1  0  0  0  0
  3 10  2  0  0  0  0
  4  8  1  0  0  0  0
  5  1  1  0  0  0  0
  7  9  1  0  0  0  0
  7  4  1  0  0  0  0
  8  1  2  0  0  0  0
  9  5  2  0  0  0  0
 10 11  1  0  0  0  0
 11  7  2  0  0  0  0
 12 15  1  0  0  0  0
 13  2  1  0  0  0  0
 14  3  1  0  0  0  0
 14 13  2  0  0  0  0
 15  4  2  0  0  0  0
 16  3  1  1  0  0  0
 17 19  1  6  0  0  0
 17 16  1  0  0  0  0
 18 17  1  0  0  0  0
 18 16  1  0  0  0  0
 19 21  1  0  0  0  0
 20 19  2  0  0  0  0
 22 21  1  1  0  0  0
 22 26  1  0  0  0  0
 24 29  1  1  0  0  0
 25 22  1  0  0  0  0
 25 28  1  0  0  0  0
 26 23  1  0  0  0  0
 26 27  1  1  0  0  0
 26 24  1  0  0  0  0
 27 24  1  0  0  0  0
 28 23  1  0  0  0  0
 29 33  2  0  0  0  0
 29 34  1  0  0  0  0
 30 32  1  0  0  0  0
 31 32  2  0  0  0  0
 33 31  1  0  0  0  0
 34 30  2  0  0  0  0
 35 13  1  0  0  0  0
 36 39  1  0  0  0  0
 37 41  1  0  0  0  0
 37 36  2  0  0  0  0
 38 40  1  0  0  0  0
 39 40  2  0  0  0  0
 40 35  1  0  0  0  0
 41 38  2  0  0  0  0
 42 43  2  0  0  0  0
 43 37  1  0  0  0  0
M  END
>  <MODEL>
7

>  <REMARK>
 VINA RESULT:      -7.9      2.541      4.495
  Name = 
  8 active torsions:
  status: ('A' for Active; 'I' for Inactive)
    1  A    between atoms: O_1  and  C_34
    2  A    between atoms: O_1  and  C_35
    3  A    between atoms: C_2  and  C_13
    4  A    between atoms: O_3  and  C_4
    5  A    between atoms: O_3  and  C_12
    6  A    between atoms: C_6  and  C_12
    7  A    between atoms: C_11  and  C_14
    8  A    between atoms: C_19  and  C_37
                            x       y       z     vdW  Elec       q    Type
                         _______ _______ _______ _____ _____    ______ ____

>  <TORSDO>
F 8

$$$$
=
 OpenBabel10272414153D

 43 50  0  0  1  0  0  0  0  0999 V2000
  193.0120  175.5540  135.6230 C   0  0  0  0  0  0  0  0  0  0  0  0
  190.7860  177.3410  139.7600 N   0  0  0  0  0  0  0  0  0  0  0  0
  188.1410  177.8040  138.9470 C   0  0  0  0  0  0  0  0  0  0  0  0
  192.5570  176.3590  137.8680 C   0  0  0  0  0  0  0  0  0  0  0  0
  191.6970  175.8360  135.2500 C   0  0  0  0  0  3  0  0  0  0  0  0
  193.8750  175.0290  134.7200 F   0  0  0  0  0  0  0  0  0  0  0  0
  191.2220  176.6380  137.4970 C   0  0  0  0  0  0  0  0  0  0  0  0
  193.4380  175.8150  136.9270 C   0  0  0  0  0  3  0  0  0  0  0  0
  190.8070  176.3740  136.1810 C   0  0  0  0  0  3  0  0  0  0  0  0
  188.9910  177.3810  138.0600 N   0  0  0  0  0  0  0  0  0  0  0  0
  190.3600  177.1190  138.4050 C   0  0  0  0  0  0  0  0  0  0  0  0
  192.1910  177.1940  140.1420 C   0  0  0  0  0  2  0  0  0  0  0  0
  189.8270  177.7920  140.7320 C   0  0  0  0  0  0  0  0  0  0  0  0
  188.5590  178.0010  140.3510 C   0  0  0  0  0  3  0  0  0  0  0  0
  192.9900  176.5930  139.0720 N   0  0  0  0  0  0  0  0  0  0  0  0
  186.7220  178.0400  138.5460 C   0  0  2  0  0  3  0  0  0  0  0  0
  186.3520  177.1330  137.4340 C   0  0  2  0  0  3  0  0  0  0  0  0
  186.6610  178.4880  137.2120 O   0  0  0  0  0  0  0  0  0  0  0  0
  184.8750  176.9370  137.4070 C   0  0  0  0  0  0  0  0  0  0  0  0
  184.3940  175.7720  137.3410 O   0  0  0  0  0  0  0  0  0  0  0  0
  184.0360  178.0530  137.4830 O   0  0  0  0  0  0  0  0  0  0  0  0
  182.6790  177.9610  137.9030 C   0  0  2  0  0  3  0  0  0  0  0  0
  181.3710  179.5160  139.8430 S   0  0  0  0  0  0  0  0  0  0  0  0
  183.5660  177.6150  140.3750 C   0  0  2  0  0  3  0  0  0  0  0  0
  181.8790  179.0560  137.2240 C   0  0  0  0  0  2  0  0  0  0  0  0
  182.5520  178.2110  139.3950 C   0  0  2  0  0  0  0  0  0  0  0  0
  182.2260  176.9340  140.1330 C   0  0  0  0  0  2  0  0  0  0  0  0
  180.7360  179.4530  138.1420 C   0  0  0  0  0  2  0  0  0  0  0  0
  183.6030  178.3470  141.6860 C   0  0  0  0  0  0  0  0  0  0  0  0
  182.5310  179.0540  143.7500 C   0  0  0  0  0  3  0  0  0  0  0  0
  184.8750  179.5390  143.3800 C   0  0  0  0  0  3  0  0  0  0  0  0
  183.7340  179.6200  144.1840 C   0  0  0  0  0  3  0  0  0  0  0  0
  184.8110  178.8990  142.1370 C   0  0  0  0  0  3  0  0  0  0  0  0
  182.4670  178.4130  142.5080 C   0  0  0  0  0  3  0  0  0  0  0  0
  190.2390  177.9680  142.0660 O   0  0  0  0  0  0  0  0  0  0  0  0
  187.3930  177.2300  144.3730 C   0  0  0  0  0  3  0  0  0  0  0  0
  187.9680  177.5750  145.6000 C   0  0  0  0  0  0  0  0  0  0  0  0
  190.0270  178.1630  144.4570 C   0  0  0  0  0  3  0  0  0  0  0  0
  188.1320  177.3500  143.1930 C   0  0  0  0  0  3  0  0  0  0  0  0
  189.4610  177.8110  143.2260 C   0  0  0  0  0  0  0  0  0  0  0  0
  189.2880  178.0440  145.6390 C   0  0  0  0  0  3  0  0  0  0  0  0
  187.7140  177.5080  147.9620 O   0  0  0  0  0  0  0  0  0  0  0  0
  187.1750  177.4400  146.8250 C   0  0  0  0  0  3  0  0  0  0  0  0
  1  8  2  0  0  0  0
  2 12  1  0  0  0  0
  2 13  1  0  0  0  0
  3 14  1  0  0  0  0
  4 15  2  0  0  0  0
  5  1  1  0  0  0  0
  5  9  2  0  0  0  0
  6  1  1  0  0  0  0
  7  4  1  0  0  0  0
  7 11  2  0  0  0  0
  8  4  1  0  0  0  0
  9  7  1  0  0  0  0
 10 11  1  0  0  0  0
 10  3  2  0  0  0  0
 11  2  1  0  0  0  0
 13 35  1  0  0  0  0
 14 13  2  0  0  0  0
 15 12  1  0  0  0  0
 16  3  1  6  0  0  0
 17 19  1  1  0  0  0
 17 16  1  0  0  0  0
 18 17  1  0  0  0  0
 18 16  1  0  0  0  0
 19 21  1  0  0  0  0
 20 19  2  0  0  0  0
 22 21  1  6  0  0  0
 22 26  1  0  0  0  0
 24 29  1  1  0  0  0
 25 22  1  0  0  0  0
 25 28  1  0  0  0  0
 26 23  1  0  0  0  0
 26 27  1  1  0  0  0
 26 24  1  0  0  0  0
 27 24  1  0  0  0  0
 28 23  1  0  0  0  0
 29 33  2  0  0  0  0
 29 34  1  0  0  0  0
 30 32  1  0  0  0  0
 31 32  2  0  0  0  0
 33 31  1  0  0  0  0
 34 30  2  0  0  0  0
 35 40  1  0  0  0  0
 36 37  1  0  0  0  0
 37 41  2  0  0  0  0
 37 43  1  0  0  0  0
 38 41  1  0  0  0  0
 39 40  1  0  0  0  0
 39 36  2  0  0  0  0
 40 38  2  0  0  0  0
 43 42  2  0  0  0  0
M  END
>  <MODEL>
8

>  <REMARK>
 VINA RESULT:      -7.8      3.231      6.947
  Name = 
  8 active torsions:
  status: ('A' for Active; 'I' for Inactive)
    1  A    between atoms: O_1  and  C_34
    2  A    between atoms: O_1  and  C_35
    3  A    between atoms: C_2  and  C_13
    4  A    between atoms: O_3  and  C_4
    5  A    between atoms: O_3  and  C_12
    6  A    between atoms: C_6  and  C_12
    7  A    between atoms: C_11  and  C_14
    8  A    between atoms: C_19  and  C_37
                            x       y       z     vdW  Elec       q    Type
                         _______ _______ _______ _____ _____    ______ ____

>  <TORSDO>
F 8

$$$$
=
 OpenBabel10272414153D

 43 50  0  0  1  0  0  0  0  0999 V2000
  188.2150  177.2390  147.0150 C   0  0  0  0  0  0  0  0  0  0  0  0
  186.1810  178.5610  142.6130 N   0  0  0  0  0  0  0  0  0  0  0  0
  188.2810  178.2270  140.7810 C   0  0  0  0  0  0  0  0  0  0  0  0
  186.7020  178.0070  145.2780 C   0  0  0  0  0  0  0  0  0  0  0  0
  189.2420  177.1250  146.0780 C   0  0  0  0  0  3  0  0  0  0  0  0
  188.4430  176.9260  148.3130 F   0  0  0  0  0  0  0  0  0  0  0  0
  187.7380  177.8840  144.3230 C   0  0  0  0  0  0  0  0  0  0  0  0
  186.9500  177.6780  146.6150 C   0  0  0  0  0  3  0  0  0  0  0  0
  189.0050  177.4450  144.7390 C   0  0  0  0  0  3  0  0  0  0  0  0
  188.5230  178.0090  142.0400 N   0  0  0  0  0  0  0  0  0  0  0  0
  187.4960  178.1560  143.0320 C   0  0  0  0  0  0  0  0  0  0  0  0
  185.1270  178.8300  143.5910 C   0  0  0  0  0  2  0  0  0  0  0  0
  185.9280  178.7800  141.2140 C   0  0  0  0  0  0  0  0  0  0  0  0
  186.9240  178.6090  140.3340 C   0  0  0  0  0  3  0  0  0  0  0  0
  185.5150  178.4170  144.9420 N   0  0  0  0  0  0  0  0  0  0  0  0
  189.3750  178.0390  139.7830 C   0  0  2  0  0  3  0  0  0  0  0  0
  188.9820  177.0120  138.7880 C   0  0  2  0  0  3  0  0  0  0  0  0
  189.8670  176.7200  139.8420 O   0  0  0  0  0  0  0  0  0  0  0  0
  189.7450  177.2100  137.5230 C   0  0  0  0  0  0  0  0  0  0  0  0
  189.3320  178.0330  136.6600 O   0  0  0  0  0  0  0  0  0  0  0  0
  190.9310  176.4980  137.3220 O   0  0  0  0  0  0  0  0  0  0  0  0
  191.1180  175.6240  136.2140 C   0  0  2  0  0  3  0  0  0  0  0  0
  192.5350  173.1990  136.1590 S   0  0  0  0  0  0  0  0  0  0  0  0
  193.7300  175.8650  136.5880 C   0  0  2  0  0  3  0  0  0  0  0  0
  190.1480  174.4640  136.3340 C   0  0  0  0  0  2  0  0  0  0  0  0
  192.5080  175.0140  136.2310 C   0  0  2  0  0  0  0  0  0  0  0  0
  193.3680  175.5940  135.1330 C   0  0  0  0  0  2  0  0  0  0  0  0
  190.7810  173.2430  135.6890 C   0  0  0  0  0  2  0  0  0  0  0  0
  194.8970  175.0380  137.0470 C   0  0  0  0  0  0  0  0  0  0  0  0
  197.0540  173.9980  136.6260 C   0  0  0  0  0  3  0  0  0  0  0  0
  196.0870  173.9190  138.8460 C   0  0  0  0  0  3  0  0  0  0  0  0
  197.1210  173.5930  137.9620 C   0  0  0  0  0  3  0  0  0  0  0  0
  194.9820  174.6460  138.3900 C   0  0  0  0  0  3  0  0  0  0  0  0
  195.9480  174.7260  136.1700 C   0  0  0  0  0  3  0  0  0  0  0  0
  184.6290  179.1360  140.8040 O   0  0  0  0  0  0  0  0  0  0  0  0
  182.1960  176.5700  139.5950 C   0  0  0  0  0  3  0  0  0  0  0  0
  182.0850  176.9430  138.2520 C   0  0  0  0  0  0  0  0  0  0  0  0
  183.6520  178.7550  138.6360 C   0  0  0  0  0  3  0  0  0  0  0  0
  183.0310  177.2880  140.4550 C   0  0  0  0  0  3  0  0  0  0  0  0
  183.7610  178.3940  139.9840 C   0  0  0  0  0  0  0  0  0  0  0  0
  182.8170  178.0370  137.7730 C   0  0  0  0  0  3  0  0  0  0  0  0
  181.2440  174.9170  137.3350 O   0  0  0  0  0  0  0  0  0  0  0  0
  181.2020  176.1760  137.3670 C   0  0  0  0  0  3  0  0  0  0  0  0
  1  6  1  0  0  0  0
  2 11  1  0  0  0  0
  2 12  1  0  0  0  0
  3 10  2  0  0  0  0
  4  8  1  0  0  0  0
  5  1  1  0  0  0  0
  7  9  1  0  0  0  0
  7  4  1  0  0  0  0
  8  1  2  0  0  0  0
  9  5  2  0  0  0  0
 10 11  1  0  0  0  0
 11  7  2  0  0  0  0
 12 15  1  0  0  0  0
 13  2  1  0  0  0  0
 14  3  1  0  0  0  0
 14 13  2  0  0  0  0
 15  4  2  0  0  0  0
 16 18  1  0  0  0  0
 16  3  1  1  0  0  0
 17 19  1  6  0  0  0
 17 16  1  0  0  0  0
 17 18  1  0  0  0  0
 20 19  2  0  0  0  0
 21 19  1  0  0  0  0
 22 26  1  0  0  0  0
 22 25  1  0  0  0  0
 22 21  1  1  0  0  0
 23 26  1  0  0  0  0
 24 29  1  1  0  0  0
 26 27  1  6  0  0  0
 26 24  1  0  0  0  0
 27 24  1  0  0  0  0
 28 23  1  0  0  0  0
 28 25  1  0  0  0  0
 29 33  1  0  0  0  0
 30 32  2  0  0  0  0
 32 31  1  0  0  0  0
 33 31  2  0  0  0  0
 34 30  1  0  0  0  0
 34 29  2  0  0  0  0
 35 13  1  0  0  0  0
 36 39  1  0  0  0  0
 37 36  2  0  0  0  0
 38 40  1  0  0  0  0
 40 39  2  0  0  0  0
 40 35  1  0  0  0  0
 41 37  1  0  0  0  0
 41 38  2  0  0  0  0
 42 43  2  0  0  0  0
 43 37  1  0  0  0  0
M  END
>  <MODEL>
9

>  <REMARK>
 VINA RESULT:      -7.7      3.917      7.815
  Name = 
  8 active torsions:
  status: ('A' for Active; 'I' for Inactive)
    1  A    between atoms: O_1  and  C_34
    2  A    between atoms: O_1  and  C_35
    3  A    between atoms: C_2  and  C_13
    4  A    between atoms: O_3  and  C_4
    5  A    between atoms: O_3  and  C_12
    6  A    between atoms: C_6  and  C_12
    7  A    between atoms: C_11  and  C_14
    8  A    between atoms: C_19  and  C_37
                            x       y       z     vdW  Elec       q    Type
                         _______ _______ _______ _____ _____    ______ ____

>  <TORSDO>
F 8

$$$$
