=
 OpenBabel10272402133D

 32 38  0  0  1  0  0  0  0  0999 V2000
  190.2900  176.9480  140.4710 C   0  0  2  0  0  3  0  0  0  0  0  0
  188.4070  177.1810  138.7940 C   0  0  2  0  0  3  0  0  0  0  0  0
  191.8090  177.0610  140.7140 C   0  0  0  0  0  2  0  0  0  0  0  0
  189.9170  177.2910  139.0220 C   0  0  2  0  0  3  0  0  0  0  0  0
  188.0800  177.5130  137.3260 C   0  0  2  0  0  3  0  0  0  0  0  0
  184.4960  179.8810  139.7400 O   0  0  0  0  0  0  0  0  0  0  0  0
  187.6730  178.1360  139.7490 C   0  0  2  0  0  3  0  0  0  0  0  0
  184.3740  178.5020  137.7540 C   0  0  0  0  0  2  0  0  0  0  0  0
  185.8790  178.4490  138.0170 C   0  0  2  0  0  3  0  0  0  0  0  0
  190.6790  176.3620  138.0680 C   0  0  1  0  0  3  0  0  0  0  0  0
  186.5720  177.4800  137.0710 C   0  0  0  0  0  2  0  0  0  0  0  0
  190.3550  176.7020  136.6140 C   0  0  0  0  0  2  0  0  0  0  0  0
  192.1970  176.3810  138.3030 C   0  0  0  0  0  2  0  0  0  0  0  0
  187.9840  177.7370  141.1910 C   0  0  0  0  0  2  0  0  0  0  0  0
  189.4930  177.8100  141.4650 C   0  0  1  0  0  3  0  0  0  0  0  0
  186.1650  178.0860  139.4800 C   0  0  2  0  0  3  0  0  0  0  0  0
  188.8460  176.6040  136.3500 C   0  0  1  0  0  3  0  0  0  0  0  0
  192.6200  177.3190  139.4390 C   0  0  0  0  0  2  0  0  0  0  0  0
  183.6320  179.0820  138.9680 C   0  0  0  0  0  2  0  0  0  0  0  0
  185.3680  179.0080  140.4290 C   0  0  0  0  0  2  0  0  0  0  0  0
  189.1230  177.1280  145.2900 C   0  0  2  0  0  3  0  0  0  0  0  0
  191.5490  176.0600  144.7800 O   0  0  0  0  0  1  0  0  0  0  0  0
  188.0050  177.2190  146.3170 C   0  0  0  0  0  1  0  0  0  0  0  0
  191.3330  178.4840  144.8490 C   0  0  2  0  0  3  0  0  0  0  0  0
  189.8270  177.4930  142.9350 C   0  0  1  0  0  3  0  0  0  0  0  0
  190.3280  177.8990  145.8460 C   0  0  2  0  0  3  0  0  0  0  0  0
  191.0220  178.3510  143.3440 C   0  0  0  0  0  2  0  0  0  0  0  0
  188.6610  177.6360  143.9240 C   0  0  1  0  0  3  0  0  0  0  0  0
  187.4580  176.8180  143.4630 C   0  0  0  0  0  1  0  0  0  0  0  0
  191.6710  177.1930  145.5940 C   0  0  1  0  0  3  0  0  0  0  0  0
  188.3690  175.1520  136.4140 C   0  0  0  0  0  2  0  0  0  0  0  0
  188.9050  174.3650  135.2340 C   0  0  0  0  0  1  0  0  0  0  0  0
  1  3  1  6  0  0  0
  1 15  1  0  0  0  0
  2  4  1  0  0  0  0
  2  7  1  0  0  0  0
  4  1  1  0  0  0  0
  5  2  1  0  0  0  0
  6 20  1  0  0  0  0
  7 14  1  0  0  0  0
  8  9  1  0  0  0  0
  8 19  1  0  0  0  0
  9 16  1  0  0  0  0
 10 13  1  0  0  0  0
 10  4  1  0  0  0  0
 11  5  1  0  0  0  0
 11  9  1  0  0  0  0
 12 10  1  0  0  0  0
 13 18  1  0  0  0  0
 14 15  1  0  0  0  0
 15 25  1  0  0  0  0
 16  7  1  0  0  0  0
 16 20  1  0  0  0  0
 17 31  1  0  0  0  0
 17 12  1  0  0  0  0
 17  5  1  0  0  0  0
 18  3  1  0  0  0  0
 19  6  1  0  0  0  0
 21 26  1  0  0  0  0
 21 23  1  0  0  0  0
 22 30  1  0  0  0  0
 24 30  1  0  0  0  0
 24 26  1  0  0  0  0
 25 27  1  0  0  0  0
 25 28  1  0  0  0  0
 27 24  1  0  0  0  0
 28 21  1  0  0  0  0
 29 28  1  0  0  0  0
 30 26  1  0  0  0  0
 32 31  1  0  0  0  0
M  END
>  <MODEL>
1

>  <REMARK>
 VINA RESULT:      -9.1      0.000      0.000
  Name = 
  2 active torsions:
  status: ('A' for Active; 'I' for Inactive)
    1  A    between atoms: C_13  and  C_29
    2  A    between atoms: C_16  and  C_27
                            x       y       z     vdW  Elec       q    Type
                         _______ _______ _______ _____ _____    ______ ____

>  <TORSDO>
F 2

$$$$
=
 OpenBabel10272402133D

 32 38  0  0  1  0  0  0  0  0999 V2000
  185.2530  178.1140  143.6610 C   0  0  2  0  0  3  0  0  0  0  0  0
  187.3310  177.8330  142.2420 C   0  0  2  0  0  3  0  0  0  0  0  0
  184.6690  178.6550  144.9820 C   0  0  0  0  0  2  0  0  0  0  0  0
  186.7630  178.3680  143.5590 C   0  0  2  0  0  3  0  0  0  0  0  0
  188.8490  178.0900  142.1900 C   0  0  2  0  0  3  0  0  0  0  0  0
  187.4490  179.2710  137.6150 O   0  0  0  0  0  0  0  0  0  0  0  0
  186.6190  178.5140  141.0620 C   0  0  2  0  0  3  0  0  0  0  0  0
  189.3420  177.9600  138.3640 C   0  0  0  0  0  2  0  0  0  0  0  0
  188.7340  178.3370  139.7150 C   0  0  2  0  0  3  0  0  0  0  0  0
  187.4690  177.7200  144.7570 C   0  0  1  0  0  3  0  0  0  0  0  0
  189.4460  177.6300  140.8590 C   0  0  0  0  0  2  0  0  0  0  0  0
  188.9730  177.9840  144.7020 C   0  0  0  0  0  2  0  0  0  0  0  0
  186.8880  178.1690  146.1070 C   0  0  0  0  0  2  0  0  0  0  0  0
  185.1270  178.1900  141.1240 C   0  0  0  0  0  2  0  0  0  0  0  0
  184.5140  178.6870  142.4400 C   0  0  1  0  0  3  0  0  0  0  0  0
  187.2290  178.0390  139.7390 C   0  0  2  0  0  3  0  0  0  0  0  0
  189.5760  177.4620  143.3910 C   0  0  1  0  0  3  0  0  0  0  0  0
  185.7310  179.1630  145.9640 C   0  0  0  0  0  2  0  0  0  0  0  0
  188.3630  178.2750  137.2230 C   0  0  0  0  0  2  0  0  0  0  0  0
  186.5360  178.6710  138.5110 C   0  0  0  0  0  2  0  0  0  0  0  0
  180.8350  177.9390  141.3700 C   0  0  2  0  0  3  0  0  0  0  0  0
  180.7490  177.4090  144.0150 O   0  0  0  0  0  1  0  0  0  0  0  0
  180.0850  177.7910  140.0560 C   0  0  0  0  0  1  0  0  0  0  0  0
  180.8430  179.7330  143.2930 C   0  0  2  0  0  3  0  0  0  0  0  0
  182.9930  178.4470  142.4940 C   0  0  1  0  0  3  0  0  0  0  0  0
  180.0650  178.9480  142.2330 C   0  0  2  0  0  3  0  0  0  0  0  0
  182.3710  179.5380  143.3620 C   0  0  0  0  0  2  0  0  0  0  0  0
  182.2910  178.3390  141.1310 C   0  0  1  0  0  3  0  0  0  0  0  0
  182.9670  177.2850  140.2580 C   0  0  0  0  0  1  0  0  0  0  0  0
  179.9820  178.5420  143.7150 C   0  0  1  0  0  3  0  0  0  0  0  0
  189.5560  175.9340  143.3460 C   0  0  0  0  0  2  0  0  0  0  0  0
  190.9700  175.3850  143.3470 C   0  0  0  0  0  1  0  0  0  0  0  0
  1  3  1  1  0  0  0
  2  4  1  0  0  0  0
  3 18  1  0  0  0  0
  4  1  1  0  0  0  0
  4 10  1  0  0  0  0
  5  2  1  0  0  0  0
  5 17  1  0  0  0  0
  6 20  1  0  0  0  0
  7 14  1  0  0  0  0
  7  2  1  0  0  0  0
  8  9  1  0  0  0  0
  9 16  1  0  0  0  0
  9 11  1  0  0  0  0
 10 13  1  0  0  0  0
 11  5  1  0  0  0  0
 12 10  1  0  0  0  0
 14 15  1  0  0  0  0
 15 25  1  0  0  0  0
 15  1  1  0  0  0  0
 16  7  1  0  0  0  0
 17 12  1  0  0  0  0
 18 13  1  0  0  0  0
 19  6  1  0  0  0  0
 19  8  1  0  0  0  0
 20 16  1  0  0  0  0
 21 26  1  0  0  0  0
 23 21  1  0  0  0  0
 24 27  1  0  0  0  0
 24 30  1  0  0  0  0
 25 27  1  0  0  0  0
 26 24  1  0  0  0  0
 26 30  1  0  0  0  0
 28 21  1  0  0  0  0
 28 25  1  0  0  0  0
 29 28  1  0  0  0  0
 30 22  1  0  0  0  0
 31 32  1  0  0  0  0
 31 17  1  0  0  0  0
M  END
>  <MODEL>
2

>  <REMARK>
 VINA RESULT:      -9.0      2.908      7.267
  Name = 
  2 active torsions:
  status: ('A' for Active; 'I' for Inactive)
    1  A    between atoms: C_13  and  C_29
    2  A    between atoms: C_16  and  C_27
                            x       y       z     vdW  Elec       q    Type
                         _______ _______ _______ _____ _____    ______ ____

>  <TORSDO>
F 2

$$$$
=
 OpenBabel10272402133D

 32 38  0  0  1  0  0  0  0  0999 V2000
  187.8340  177.7770  140.7770 C   0  0  2  0  0  3  0  0  0  0  0  0
  185.3600  178.0510  140.3120 C   0  0  2  0  0  3  0  0  0  0  0  0
  189.2680  178.0730  140.2920 C   0  0  0  0  0  2  0  0  0  0  0  0
  186.7800  178.3460  139.8180 C   0  0  2  0  0  3  0  0  0  0  0  0
  184.3360  178.6200  139.3120 C   0  0  2  0  0  3  0  0  0  0  0  0
  182.3440  179.8600  143.6460 O   0  0  0  0  0  0  0  0  0  0  0  0
  185.1650  178.6650  141.7070 C   0  0  2  0  0  3  0  0  0  0  0  0
  181.3000  178.9120  141.6780 C   0  0  0  0  0  2  0  0  0  0  0  0
  182.7380  179.0420  141.1740 C   0  0  2  0  0  3  0  0  0  0  0  0
  186.9990  177.7610  138.4170 C   0  0  1  0  0  3  0  0  0  0  0  0
  182.9030  178.4050  139.8020 C   0  0  0  0  0  2  0  0  0  0  0  0
  185.9840  178.3340  137.4300 C   0  0  0  0  0  2  0  0  0  0  0  0
  188.4320  177.9660  137.9020 C   0  0  0  0  0  2  0  0  0  0  0  0
  186.1650  178.0350  142.6750 C   0  0  0  0  0  2  0  0  0  0  0  0
  187.6070  178.2840  142.2110 C   0  0  1  0  0  3  0  0  0  0  0  0
  183.7250  178.4380  142.1810 C   0  0  2  0  0  3  0  0  0  0  0  0
  184.5480  178.0590  137.8960 C   0  0  1  0  0  3  0  0  0  0  0  0
  189.3300  178.7070  138.8980 C   0  0  0  0  0  2  0  0  0  0  0  0
  181.2400  179.1110  143.2000 C   0  0  0  0  0  2  0  0  0  0  0  0
  183.4730  179.0120  143.5920 C   0  0  0  0  0  2  0  0  0  0  0  0
  189.2800  177.0590  145.5190 C   0  0  2  0  0  3  0  0  0  0  0  0
  190.8750  175.9340  143.6540 O   0  0  0  0  0  1  0  0  0  0  0  0
  188.9210  177.0640  146.9960 C   0  0  0  0  0  1  0  0  0  0  0  0
  191.0570  178.3290  144.0520 C   0  0  2  0  0  3  0  0  0  0  0  0
  188.6380  177.7300  143.2130 C   0  0  1  0  0  3  0  0  0  0  0  0
  190.6840  177.6640  145.3810 C   0  0  2  0  0  3  0  0  0  0  0  0
  189.9660  178.4420  142.9680 C   0  0  0  0  0  2  0  0  0  0  0  0
  188.2250  177.7930  144.6910 C   0  0  1  0  0  3  0  0  0  0  0  0
  186.8670  177.1300  144.9020 C   0  0  0  0  0  1  0  0  0  0  0  0
  191.5690  176.9220  144.3630 C   0  0  1  0  0  3  0  0  0  0  0  0
  184.2160  176.5690  137.8070 C   0  0  0  0  0  2  0  0  0  0  0  0
  184.3240  176.0850  136.3740 C   0  0  0  0  0  1  0  0  0  0  0  0
  1  3  1  6  0  0  0
  1 15  1  0  0  0  0
  2  7  1  0  0  0  0
  4  2  1  0  0  0  0
  4  1  1  0  0  0  0
  5 11  1  0  0  0  0
  5  2  1  0  0  0  0
  7 16  1  0  0  0  0
  7 14  1  0  0  0  0
  8 19  1  0  0  0  0
  9  8  1  0  0  0  0
  9 16  1  0  0  0  0
 10  4  1  0  0  0  0
 11  9  1  0  0  0  0
 12 17  1  0  0  0  0
 12 10  1  0  0  0  0
 13 10  1  0  0  0  0
 13 18  1  0  0  0  0
 15 14  1  0  0  0  0
 15 25  1  0  0  0  0
 16 20  1  0  0  0  0
 17  5  1  0  0  0  0
 18  3  1  0  0  0  0
 19  6  1  0  0  0  0
 20  6  1  0  0  0  0
 21 23  1  0  0  0  0
 22 30  1  0  0  0  0
 24 30  1  0  0  0  0
 24 26  1  0  0  0  0
 25 28  1  0  0  0  0
 26 21  1  0  0  0  0
 27 25  1  0  0  0  0
 27 24  1  0  0  0  0
 28 29  1  0  0  0  0
 28 21  1  0  0  0  0
 30 26  1  0  0  0  0
 31 17  1  0  0  0  0
 32 31  1  0  0  0  0
M  END
>  <MODEL>
3

>  <REMARK>
 VINA RESULT:      -9.0      1.990      3.376
  Name = 
  2 active torsions:
  status: ('A' for Active; 'I' for Inactive)
    1  A    between atoms: C_13  and  C_29
    2  A    between atoms: C_16  and  C_27
                            x       y       z     vdW  Elec       q    Type
                         _______ _______ _______ _____ _____    ______ ____

>  <TORSDO>
F 2

$$$$
=
 OpenBabel10272402133D

 32 38  0  0  1  0  0  0  0  0999 V2000
  184.6060  178.5110  141.8020 C   0  0  2  0  0  3  0  0  0  0  0  0
  187.0090  177.9800  141.2060 C   0  0  2  0  0  3  0  0  0  0  0  0
  183.6570  179.1860  142.8140 C   0  0  0  0  0  2  0  0  0  0  0  0
  186.0760  178.6480  142.2200 C   0  0  2  0  0  3  0  0  0  0  0  0
  188.4690  178.1230  141.6730 C   0  0  2  0  0  3  0  0  0  0  0  0
  188.8360  179.0700  136.8510 O   0  0  0  0  0  0  0  0  0  0  0  0
  186.8100  178.6250  139.8250 C   0  0  2  0  0  3  0  0  0  0  0  0
  190.2280  177.6830  138.2660 C   0  0  0  0  0  2  0  0  0  0  0  0
  189.2320  178.1990  139.3050 C   0  0  2  0  0  3  0  0  0  0  0  0
  186.2660  178.0380  143.6150 C   0  0  1  0  0  3  0  0  0  0  0  0
  189.4410  177.5270  140.6530 C   0  0  0  0  0  2  0  0  0  0  0  0
  187.7150  178.1890  144.0750 C   0  0  0  0  0  2  0  0  0  0  0  0
  185.3020  178.6240  144.6580 C   0  0  0  0  0  2  0  0  0  0  0  0
  185.3640  178.4130  139.3780 C   0  0  0  0  0  2  0  0  0  0  0  0
  184.3850  179.0470  140.3770 C   0  0  1  0  0  3  0  0  0  0  0  0
  187.7890  178.0120  138.8170 C   0  0  2  0  0  3  0  0  0  0  0  0
  188.6790  177.5320  143.0780 C   0  0  1  0  0  3  0  0  0  0  0  0
  184.3610  179.6860  144.0800 C   0  0  0  0  0  2  0  0  0  0  0  0
  189.7320  177.9850  136.8440 C   0  0  0  0  0  2  0  0  0  0  0  0
  187.6200  178.6030  137.3990 C   0  0  0  0  0  2  0  0  0  0  0  0
  181.0670  177.5980  138.9170 C   0  0  2  0  0  3  0  0  0  0  0  0
  180.1620  179.7140  140.3270 O   0  0  0  0  0  1  0  0  0  0  0  0
  180.6520  176.3270  138.1930 C   0  0  0  0  0  1  0  0  0  0  0  0
  181.3070  180.1220  138.2170 C   0  0  2  0  0  3  0  0  0  0  0  0
  182.9230  178.9210  139.9090 C   0  0  1  0  0  3  0  0  0  0  0  0
  180.5620  178.7890  138.0920 C   0  0  2  0  0  3  0  0  0  0  0  0
  182.5800  180.1610  139.0860 C   0  0  0  0  0  2  0  0  0  0  0  0
  182.5770  177.6280  139.1560 C   0  0  1  0  0  3  0  0  0  0  0  0
  182.9840  176.4030  139.9710 C   0  0  0  0  0  1  0  0  0  0  0  0
  179.9820  179.9240  138.9540 C   0  0  1  0  0  3  0  0  0  0  0  0
  188.5350  176.0100  143.0940 C   0  0  0  0  0  2  0  0  0  0  0  0
  189.8820  175.3520  143.3290 C   0  0  0  0  0  1  0  0  0  0  0  0
  1  4  1  0  0  0  0
  1  3  1  1  0  0  0
  2  5  1  0  0  0  0
  2  4  1  0  0  0  0
  3 18  1  0  0  0  0
  4 10  1  0  0  0  0
  5 17  1  0  0  0  0
  6 20  1  0  0  0  0
  7  2  1  0  0  0  0
  8  9  1  0  0  0  0
  9 11  1  0  0  0  0
 10 12  1  0  0  0  0
 10 13  1  0  0  0  0
 11  5  1  0  0  0  0
 14  7  1  0  0  0  0
 14 15  1  0  0  0  0
 15  1  1  0  0  0  0
 16  9  1  0  0  0  0
 16  7  1  0  0  0  0
 17 31  1  0  0  0  0
 17 12  1  0  0  0  0
 18 13  1  0  0  0  0
 19  6  1  0  0  0  0
 19  8  1  0  0  0  0
 20 16  1  0  0  0  0
 21 28  1  0  0  0  0
 23 21  1  0  0  0  0
 24 30  1  0  0  0  0
 24 27  1  0  0  0  0
 25 15  1  0  0  0  0
 26 24  1  0  0  0  0
 26 21  1  0  0  0  0
 26 30  1  0  0  0  0
 27 25  1  0  0  0  0
 28 25  1  0  0  0  0
 28 29  1  0  0  0  0
 30 22  1  0  0  0  0
 31 32  1  0  0  0  0
M  END
>  <MODEL>
4

>  <REMARK>
 VINA RESULT:      -8.8      2.636      7.815
  Name = 
  2 active torsions:
  status: ('A' for Active; 'I' for Inactive)
    1  A    between atoms: C_13  and  C_29
    2  A    between atoms: C_16  and  C_27
                            x       y       z     vdW  Elec       q    Type
                         _______ _______ _______ _____ _____    ______ ____

>  <TORSDO>
F 2

$$$$
=
 OpenBabel10272402133D

 32 38  0  0  1  0  0  0  0  0999 V2000
  184.6990  178.3040  141.7780 C   0  0  2  0  0  3  0  0  0  0  0  0
  187.1210  177.8460  141.2000 C   0  0  2  0  0  3  0  0  0  0  0  0
  183.7240  178.9790  142.7650 C   0  0  0  0  0  2  0  0  0  0  0  0
  186.1620  178.5160  142.1890 C   0  0  2  0  0  3  0  0  0  0  0  0
  188.5750  178.0650  141.6600 C   0  0  2  0  0  3  0  0  0  0  0  0
  188.9040  178.8380  136.8050 O   0  0  0  0  0  0  0  0  0  0  0  0
  186.8970  178.4280  139.7950 C   0  0  2  0  0  3  0  0  0  0  0  0
  190.3500  177.5640  138.2700 C   0  0  0  0  0  2  0  0  0  0  0  0
  189.3350  178.0800  139.2890 C   0  0  2  0  0  3  0  0  0  0  0  0
  186.3760  177.9690  143.6060 C   0  0  1  0  0  3  0  0  0  0  0  0
  189.5690  177.4690  140.6620 C   0  0  0  0  0  2  0  0  0  0  0  0
  187.8180  178.1950  144.0580 C   0  0  0  0  0  2  0  0  0  0  0  0
  185.3900  178.5560  144.6270 C   0  0  0  0  0  2  0  0  0  0  0  0
  185.4610  178.1420  139.3590 C   0  0  0  0  0  2  0  0  0  0  0  0
  184.4580  178.7750  140.3340 C   0  0  1  0  0  3  0  0  0  0  0  0
  187.9000  177.8170  138.8110 C   0  0  2  0  0  3  0  0  0  0  0  0
  188.8080  177.5390  143.0860 C   0  0  1  0  0  3  0  0  0  0  0  0
  184.4070  179.5560  144.0100 C   0  0  0  0  0  2  0  0  0  0  0  0
  189.8430  177.7900  136.8380 C   0  0  0  0  0  2  0  0  0  0  0  0
  187.7080  178.3450  137.3720 C   0  0  0  0  0  2  0  0  0  0  0  0
  180.8360  179.4840  139.0610 C   0  0  2  0  0  3  0  0  0  0  0  0
  181.1010  176.8550  138.5090 O   0  0  0  0  0  1  0  0  0  0  0  0
  179.9840  180.7190  138.8120 C   0  0  0  0  0  1  0  0  0  0  0  0
  180.7810  177.5350  140.8260 C   0  0  2  0  0  3  0  0  0  0  0  0
  183.0010  178.5730  139.8730 C   0  0  1  0  0  3  0  0  0  0  0  0
  180.0210  178.5270  139.9410 C   0  0  2  0  0  3  0  0  0  0  0  0
  182.3200  177.6240  140.8570 C   0  0  0  0  0  2  0  0  0  0  0  0
  182.1870  179.8600  139.6710 C   0  0  1  0  0  3  0  0  0  0  0  0
  182.9150  180.8180  138.7330 C   0  0  0  0  0  1  0  0  0  0  0  0
  180.1500  177.0530  139.5190 C   0  0  1  0  0  3  0  0  0  0  0  0
  188.7250  176.0140  143.1620 C   0  0  0  0  0  2  0  0  0  0  0  0
  190.1120  175.4110  143.2740 C   0  0  0  0  0  1  0  0  0  0  0  0
  1  4  1  0  0  0  0
  1  3  1  1  0  0  0
  2  5  1  0  0  0  0
  2  4  1  0  0  0  0
  3 18  1  0  0  0  0
  4 10  1  0  0  0  0
  5 17  1  0  0  0  0
  6 19  1  0  0  0  0
  6 20  1  0  0  0  0
  7  2  1  0  0  0  0
  8  9  1  0  0  0  0
  9 11  1  0  0  0  0
 10 12  1  0  0  0  0
 10 13  1  0  0  0  0
 11  5  1  0  0  0  0
 14  7  1  0  0  0  0
 14 15  1  0  0  0  0
 15  1  1  0  0  0  0
 16  9  1  0  0  0  0
 16  7  1  0  0  0  0
 17 31  1  0  0  0  0
 17 12  1  0  0  0  0
 18 13  1  0  0  0  0
 19  8  1  0  0  0  0
 20 16  1  0  0  0  0
 21 28  1  0  0  0  0
 21 26  1  0  0  0  0
 22 30  1  0  0  0  0
 23 21  1  0  0  0  0
 24 27  1  0  0  0  0
 25 15  1  0  0  0  0
 25 27  1  0  0  0  0
 26 24  1  0  0  0  0
 28 25  1  0  0  0  0
 29 28  1  0  0  0  0
 30 26  1  0  0  0  0
 30 24  1  0  0  0  0
 31 32  1  0  0  0  0
M  END
>  <MODEL>
5

>  <REMARK>
 VINA RESULT:      -8.3      2.590      7.751
  Name = 
  2 active torsions:
  status: ('A' for Active; 'I' for Inactive)
    1  A    between atoms: C_13  and  C_29
    2  A    between atoms: C_16  and  C_27
                            x       y       z     vdW  Elec       q    Type
                         _______ _______ _______ _____ _____    ______ ____

>  <TORSDO>
F 2

$$$$
=
 OpenBabel10272402133D

 32 38  0  0  1  0  0  0  0  0999 V2000
  187.4170  177.9120  141.9560 C   0  0  2  0  0  3  0  0  0  0  0  0
  185.4120  178.4080  143.4210 C   0  0  2  0  0  3  0  0  0  0  0  0
  188.6910  177.0600  141.7750 C   0  0  0  0  0  2  0  0  0  0  0  0
  186.6770  177.5610  143.2540 C   0  0  2  0  0  3  0  0  0  0  0  0
  184.7130  178.0380  144.7430 C   0  0  2  0  0  3  0  0  0  0  0  0
  180.9090  178.4040  141.6310 O   0  0  0  0  0  0  0  0  0  0  0  0
  184.4790  178.1760  142.2220 C   0  0  2  0  0  3  0  0  0  0  0  0
  181.1500  179.2520  143.8860 C   0  0  0  0  0  2  0  0  0  0  0  0
  182.4980  178.5490  143.7250 C   0  0  2  0  0  3  0  0  0  0  0  0
  187.6220  177.7560  144.4470 C   0  0  1  0  0  3  0  0  0  0  0  0
  183.4060  178.8150  144.9160 C   0  0  0  0  0  2  0  0  0  0  0  0
  186.9230  177.3810  145.7530 C   0  0  0  0  0  2  0  0  0  0  0  0
  188.9410  176.9820  144.2960 C   0  0  0  0  0  2  0  0  0  0  0  0
  185.1930  178.6050  140.9420 C   0  0  0  0  0  2  0  0  0  0  0  0
  186.4840  177.7990  140.7400 C   0  0  1  0  0  3  0  0  0  0  0  0
  183.1780  178.9650  142.4140 C   0  0  2  0  0  3  0  0  0  0  0  0
  185.6480  178.2110  145.9510 C   0  0  1  0  0  3  0  0  0  0  0  0
  189.0270  176.1880  142.9890 C   0  0  0  0  0  2  0  0  0  0  0  0
  180.4430  179.3820  142.5290 C   0  0  0  0  0  2  0  0  0  0  0  0
  182.2060  178.7930  141.2260 C   0  0  0  0  0  2  0  0  0  0  0  0
  187.2070  178.2360  136.9290 C   0  0  2  0  0  3  0  0  0  0  0  0
  188.9820  179.9530  138.0190 O   0  0  0  0  0  1  0  0  0  0  0  0
  186.5430  177.8050  135.6310 C   0  0  0  0  0  1  0  0  0  0  0  0
  189.4250  177.5630  138.1730 C   0  0  2  0  0  3  0  0  0  0  0  0
  187.1820  178.1520  139.4130 C   0  0  1  0  0  3  0  0  0  0  0  0
  188.6810  177.8150  136.8580 C   0  0  2  0  0  3  0  0  0  0  0  0
  188.6220  177.6490  139.4870 C   0  0  0  0  0  2  0  0  0  0  0  0
  186.4750  177.6600  138.1410 C   0  0  1  0  0  3  0  0  0  0  0  0
  185.0210  178.1230  138.1180 C   0  0  0  0  0  1  0  0  0  0  0  0
  189.6450  178.8750  137.4190 C   0  0  1  0  0  3  0  0  0  0  0  0
  185.9820  179.6790  146.2210 C   0  0  0  0  0  2  0  0  0  0  0  0
  186.3570  179.8790  147.6770 C   0  0  0  0  0  1  0  0  0  0  0  0
  1  3  1  6  0  0  0
  1  4  1  0  0  0  0
  2  5  1  0  0  0  0
  3 18  1  0  0  0  0
  4  2  1  0  0  0  0
  4 10  1  0  0  0  0
  5 11  1  0  0  0  0
  5 17  1  0  0  0  0
  6 19  1  0  0  0  0
  7 16  1  0  0  0  0
  7  2  1  0  0  0  0
  9  8  1  0  0  0  0
  9 11  1  0  0  0  0
 10 12  1  0  0  0  0
 12 17  1  0  0  0  0
 13 10  1  0  0  0  0
 14  7  1  0  0  0  0
 15 14  1  0  0  0  0
 15  1  1  0  0  0  0
 16  9  1  0  0  0  0
 17 31  1  0  0  0  0
 18 13  1  0  0  0  0
 19  8  1  0  0  0  0
 20  6  1  0  0  0  0
 20 16  1  0  0  0  0
 21 28  1  0  0  0  0
 23 21  1  0  0  0  0
 24 27  1  0  0  0  0
 25 27  1  0  0  0  0
 25 15  1  0  0  0  0
 26 21  1  0  0  0  0
 26 30  1  0  0  0  0
 26 24  1  0  0  0  0
 28 25  1  0  0  0  0
 29 28  1  0  0  0  0
 30 22  1  0  0  0  0
 30 24  1  0  0  0  0
 31 32  1  0  0  0  0
M  END
>  <MODEL>
6

>  <REMARK>
 VINA RESULT:      -8.2      2.659      7.162
  Name = 
  2 active torsions:
  status: ('A' for Active; 'I' for Inactive)
    1  A    between atoms: C_13  and  C_29
    2  A    between atoms: C_16  and  C_27
                            x       y       z     vdW  Elec       q    Type
                         _______ _______ _______ _____ _____    ______ ____

>  <TORSDO>
F 2

$$$$
=
 OpenBabel10272402133D

 32 38  0  0  1  0  0  0  0  0999 V2000
  190.1070  177.0420  143.5780 C   0  0  2  0  0  3  0  0  0  0  0  0
  188.2030  177.6470  145.1330 C   0  0  2  0  0  3  0  0  0  0  0  0
  191.3030  176.1020  143.3240 C   0  0  0  0  0  2  0  0  0  0  0  0
  189.3910  176.7110  144.8940 C   0  0  2  0  0  3  0  0  0  0  0  0
  187.5270  177.2930  146.4720 C   0  0  2  0  0  3  0  0  0  0  0  0
  183.6480  178.0380  143.5240 O   0  0  0  0  0  0  0  0  0  0  0  0
  187.2090  177.5220  143.9670 C   0  0  2  0  0  3  0  0  0  0  0  0
  184.0390  178.8000  145.7890 C   0  0  0  0  0  2  0  0  0  0  0  0
  185.3220  178.0000  145.5570 C   0  0  2  0  0  3  0  0  0  0  0  0
  190.3920  176.7980  146.0530 C   0  0  1  0  0  3  0  0  0  0  0  0
  186.2920  178.1620  146.7170 C   0  0  0  0  0  2  0  0  0  0  0  0
  189.7160  176.4410  147.3750 C   0  0  0  0  0  2  0  0  0  0  0  0
  191.6410  175.9310  145.8300 C   0  0  0  0  0  2  0  0  0  0  0  0
  187.9060  177.9320  142.6710 C   0  0  0  0  0  2  0  0  0  0  0  0
  189.1220  177.0360  142.3970 C   0  0  1  0  0  3  0  0  0  0  0  0
  185.9820  178.4020  144.2310 C   0  0  2  0  0  3  0  0  0  0  0  0
  188.5170  177.3590  147.6460 C   0  0  1  0  0  3  0  0  0  0  0  0
  191.6160  175.1710  144.5000 C   0  0  0  0  0  2  0  0  0  0  0  0
  183.2930  179.0230  144.4650 C   0  0  0  0  0  2  0  0  0  0  0  0
  184.9550  178.3390  143.0780 C   0  0  0  0  0  2  0  0  0  0  0  0
  189.7320  178.4050  138.7920 C   0  0  2  0  0  3  0  0  0  0  0  0
  192.2580  178.0380  139.6690 O   0  0  0  0  0  1  0  0  0  0  0  0
  188.8830  179.0420  137.7040 C   0  0  0  0  0  1  0  0  0  0  0  0
  190.9380  176.0830  139.0660 C   0  0  2  0  0  3  0  0  0  0  0  0
  189.7950  177.3730  141.0530 C   0  0  1  0  0  3  0  0  0  0  0  0
  190.5010  177.2380  138.1590 C   0  0  2  0  0  3  0  0  0  0  0  0
  190.4910  176.1140  140.5420 C   0  0  0  0  0  2  0  0  0  0  0  0
  188.8740  177.9840  139.9860 C   0  0  1  0  0  3  0  0  0  0  0  0
  188.1430  179.2050  140.5380 C   0  0  0  0  0  1  0  0  0  0  0  0
  191.9590  177.1380  138.6390 C   0  0  1  0  0  3  0  0  0  0  0  0
  188.9730  178.7880  147.9410 C   0  0  0  0  0  2  0  0  0  0  0  0
  190.0870  178.7880  148.9710 C   0  0  0  0  0  1  0  0  0  0  0  0
  1  3  1  6  0  0  0
  1  4  1  0  0  0  0
  2  5  1  0  0  0  0
  3 18  1  0  0  0  0
  4  2  1  0  0  0  0
  4 10  1  0  0  0  0
  5 11  1  0  0  0  0
  5 17  1  0  0  0  0
  6 19  1  0  0  0  0
  7 16  1  0  0  0  0
  7  2  1  0  0  0  0
  9  8  1  0  0  0  0
  9 11  1  0  0  0  0
 10 12  1  0  0  0  0
 12 17  1  0  0  0  0
 13 10  1  0  0  0  0
 14  7  1  0  0  0  0
 15 14  1  0  0  0  0
 15  1  1  0  0  0  0
 16  9  1  0  0  0  0
 17 31  1  0  0  0  0
 18 13  1  0  0  0  0
 19  8  1  0  0  0  0
 20  6  1  0  0  0  0
 20 16  1  0  0  0  0
 21 28  1  0  0  0  0
 23 21  1  0  0  0  0
 24 27  1  0  0  0  0
 25 15  1  0  0  0  0
 26 30  1  0  0  0  0
 26 21  1  0  0  0  0
 26 24  1  0  0  0  0
 27 25  1  0  0  0  0
 28 29  1  0  0  0  0
 28 25  1  0  0  0  0
 30 24  1  0  0  0  0
 30 22  1  0  0  0  0
 31 32  1  0  0  0  0
M  END
>  <MODEL>
7

>  <REMARK>
 VINA RESULT:      -8.2      2.450      7.060
  Name = 
  2 active torsions:
  status: ('A' for Active; 'I' for Inactive)
    1  A    between atoms: C_13  and  C_29
    2  A    between atoms: C_16  and  C_27
                            x       y       z     vdW  Elec       q    Type
                         _______ _______ _______ _____ _____    ______ ____

>  <TORSDO>
F 2

$$$$
=
 OpenBabel10272402133D

 32 38  0  0  1  0  0  0  0  0999 V2000
  184.2990  178.2320  142.4900 C   0  0  2  0  0  3  0  0  0  0  0  0
  186.7090  177.9480  143.2110 C   0  0  2  0  0  3  0  0  0  0  0  0
  182.9660  178.9670  142.7410 C   0  0  0  0  0  2  0  0  0  0  0  0
  185.3900  178.6800  143.4730 C   0  0  2  0  0  3  0  0  0  0  0  0
  187.7680  178.4100  144.2300 C   0  0  2  0  0  3  0  0  0  0  0  0
  190.3560  178.2900  140.0380 O   0  0  0  0  0  0  0  0  0  0  0  0
  187.1730  178.2270  141.7730 C   0  0  2  0  0  3  0  0  0  0  0  0
  190.9450  177.4830  142.2440 C   0  0  0  0  0  2  0  0  0  0  0  0
  189.5620  178.0650  142.5390 C   0  0  2  0  0  3  0  0  0  0  0  0
  184.9100  178.4360  144.9100 C   0  0  1  0  0  3  0  0  0  0  0  0
  189.1230  177.7520  143.9610 C   0  0  0  0  0  2  0  0  0  0  0  0
  185.9620  178.9020  145.9140 C   0  0  0  0  0  2  0  0  0  0  0  0
  183.5510  179.0900  145.2040 C   0  0  0  0  0  2  0  0  0  0  0  0
  186.1190  177.7050  140.7970 C   0  0  0  0  0  2  0  0  0  0  0  0
  184.7680  178.3930  141.0340 C   0  0  1  0  0  3  0  0  0  0  0  0
  188.5290  177.5580  141.5230 C   0  0  2  0  0  3  0  0  0  0  0  0
  187.3010  178.1900  145.6780 C   0  0  1  0  0  3  0  0  0  0  0  0
  182.9700  179.8400  144.0010 C   0  0  0  0  0  2  0  0  0  0  0  0
  191.1770  177.3790  140.7290 C   0  0  0  0  0  2  0  0  0  0  0  0
  189.0390  177.7810  140.0820 C   0  0  0  0  0  2  0  0  0  0  0  0
  181.9580  178.4790  138.3250 C   0  0  2  0  0  3  0  0  0  0  0  0
  182.9140  175.9710  138.0380 O   0  0  0  0  0  1  0  0  0  0  0  0
  181.0770  179.5450  137.6930 C   0  0  0  0  0  1  0  0  0  0  0  0
  181.5270  176.4760  139.9750 C   0  0  2  0  0  3  0  0  0  0  0  0
  183.7070  177.9470  140.0100 C   0  0  1  0  0  3  0  0  0  0  0  0
  181.0410  177.3490  138.8150 C   0  0  2  0  0  3  0  0  0  0  0  0
  182.8640  176.8460  140.6500 C   0  0  0  0  0  2  0  0  0  0  0  0
  182.8300  179.0690  139.4340 C   0  0  1  0  0  3  0  0  0  0  0  0
  183.6930  180.1860  138.8550 C   0  0  0  0  0  1  0  0  0  0  0  0
  181.6080  175.9450  138.5440 C   0  0  1  0  0  3  0  0  0  0  0  0
  187.2060  176.7070  146.0380 C   0  0  0  0  0  2  0  0  0  0  0  0
  188.0160  176.4110  147.2860 C   0  0  0  0  0  1  0  0  0  0  0  0
  1  3  1  6  0  0  0
  1  4  1  0  0  0  0
  2  4  1  0  0  0  0
  2  5  1  0  0  0  0
  3 18  1  0  0  0  0
  4 10  1  0  0  0  0
  5 17  1  0  0  0  0
  6 20  1  0  0  0  0
  6 19  1  0  0  0  0
  7  2  1  0  0  0  0
  8  9  1  0  0  0  0
  9 11  1  0  0  0  0
 10 13  1  0  0  0  0
 10 12  1  0  0  0  0
 11  5  1  0  0  0  0
 14 15  1  0  0  0  0
 14  7  1  0  0  0  0
 15  1  1  0  0  0  0
 16  7  1  0  0  0  0
 16  9  1  0  0  0  0
 17 12  1  0  0  0  0
 17 31  1  0  0  0  0
 18 13  1  0  0  0  0
 19  8  1  0  0  0  0
 20 16  1  0  0  0  0
 21 26  1  0  0  0  0
 21 28  1  0  0  0  0
 22 30  1  0  0  0  0
 23 21  1  0  0  0  0
 24 27  1  0  0  0  0
 25 27  1  0  0  0  0
 25 15  1  0  0  0  0
 26 24  1  0  0  0  0
 28 25  1  0  0  0  0
 29 28  1  0  0  0  0
 30 26  1  0  0  0  0
 30 24  1  0  0  0  0
 31 32  1  0  0  0  0
M  END
>  <MODEL>
8

>  <REMARK>
 VINA RESULT:      -7.8      2.701      8.516
  Name = 
  2 active torsions:
  status: ('A' for Active; 'I' for Inactive)
    1  A    between atoms: C_13  and  C_29
    2  A    between atoms: C_16  and  C_27
                            x       y       z     vdW  Elec       q    Type
                         _______ _______ _______ _____ _____    ______ ____

>  <TORSDO>
F 2

$$$$
=
 OpenBabel10272402133D

 32 38  0  0  1  0  0  0  0  0999 V2000
  182.6490  178.5710  138.9380 C   0  0  2  0  0  3  0  0  0  0  0  0
  182.6940  178.6800  141.4670 C   0  0  2  0  0  3  0  0  0  0  0  0
  182.1340  179.2220  137.6380 C   0  0  0  0  0  2  0  0  0  0  0  0
  182.1730  179.3320  140.1830 C   0  0  2  0  0  3  0  0  0  0  0  0
  182.1780  179.4610  142.6900 C   0  0  2  0  0  3  0  0  0  0  0  0
  186.8670  178.5910  143.9290 O   0  0  0  0  0  0  0  0  0  0  0  0
  184.2310  178.6540  141.4420 C   0  0  2  0  0  3  0  0  0  0  0  0
  184.8520  178.3820  145.2550 C   0  0  0  0  0  2  0  0  0  0  0  0
  184.2510  178.8900  143.9440 C   0  0  2  0  0  3  0  0  0  0  0  0
  180.6400  179.3900  140.1880 C   0  0  1  0  0  3  0  0  0  0  0  0
  182.7310  178.8830  143.9940 C   0  0  0  0  0  2  0  0  0  0  0  0
  180.1360  180.1720  141.4000 C   0  0  0  0  0  2  0  0  0  0  0  0
  180.0610  179.9710  138.8890 C   0  0  0  0  0  2  0  0  0  0  0  0
  184.6960  177.8260  140.2450 C   0  0  0  0  0  2  0  0  0  0  0  0
  184.1800  178.4260  138.9300 C   0  0  1  0  0  3  0  0  0  0  0  0
  184.7640  178.0680  142.7540 C   0  0  2  0  0  3  0  0  0  0  0  0
  180.6420  179.5470  142.7070 C   0  0  1  0  0  3  0  0  0  0  0  0
  181.1380  180.3630  137.8710 C   0  0  0  0  0  2  0  0  0  0  0  0
  186.3110  177.9450  145.0480 C   0  0  0  0  0  2  0  0  0  0  0  0
  186.3070  177.9910  142.7790 C   0  0  0  0  0  2  0  0  0  0  0  0
  184.9280  175.5620  136.3860 C   0  0  2  0  0  3  0  0  0  0  0  0
  185.3660  177.7580  134.8770 O   0  0  0  0  0  1  0  0  0  0  0  0
  184.7370  174.0540  136.3460 C   0  0  0  0  0  1  0  0  0  0  0  0
  187.0170  177.1500  136.5610 C   0  0  2  0  0  3  0  0  0  0  0  0
  184.7030  177.6590  137.7010 C   0  0  1  0  0  3  0  0  0  0  0  0
  186.3930  175.8550  136.0330 C   0  0  2  0  0  3  0  0  0  0  0  0
  186.1690  178.0340  137.4980 C   0  0  0  0  0  2  0  0  0  0  0  0
  184.5080  176.1360  137.7390 C   0  0  1  0  0  3  0  0  0  0  0  0
  183.0470  175.7850  138.0040 C   0  0  0  0  0  1  0  0  0  0  0  0
  186.5640  177.0680  135.1030 C   0  0  1  0  0  3  0  0  0  0  0  0
  179.9890  178.1870  142.9560 C   0  0  0  0  0  2  0  0  0  0  0  0
  179.9820  177.8660  144.4390 C   0  0  0  0  0  1  0  0  0  0  0  0
  1  3  1  6  0  0  0
  1  4  1  0  0  0  0
  2  5  1  0  0  0  0
  3 18  1  0  0  0  0
  4 10  1  0  0  0  0
  4  2  1  0  0  0  0
  5 17  1  0  0  0  0
  5 11  1  0  0  0  0
  6 19  1  0  0  0  0
  7  2  1  0  0  0  0
  7 16  1  0  0  0  0
  9 11  1  0  0  0  0
  9  8  1  0  0  0  0
 10 12  1  0  0  0  0
 12 17  1  0  0  0  0
 13 10  1  0  0  0  0
 14  7  1  0  0  0  0
 15  1  1  0  0  0  0
 15 14  1  0  0  0  0
 16 20  1  0  0  0  0
 16  9  1  0  0  0  0
 17 31  1  0  0  0  0
 18 13  1  0  0  0  0
 19  8  1  0  0  0  0
 20  6  1  0  0  0  0
 21 28  1  0  0  0  0
 22 30  1  0  0  0  0
 23 21  1  0  0  0  0
 24 27  1  0  0  0  0
 25 28  1  0  0  0  0
 25 15  1  0  0  0  0
 26 21  1  0  0  0  0
 26 24  1  0  0  0  0
 27 25  1  0  0  0  0
 28 29  1  0  0  0  0
 30 26  1  0  0  0  0
 30 24  1  0  0  0  0
 31 32  1  0  0  0  0
M  END
>  <MODEL>
9

>  <REMARK>
 VINA RESULT:      -7.5      3.592      8.926
  Name = 
  2 active torsions:
  status: ('A' for Active; 'I' for Inactive)
    1  A    between atoms: C_13  and  C_29
    2  A    between atoms: C_16  and  C_27
                            x       y       z     vdW  Elec       q    Type
                         _______ _______ _______ _____ _____    ______ ____

>  <TORSDO>
F 2

$$$$
