=
 OpenBabel10272402103D

 32 35  0  0  1  0  0  0  0  0999 V2000
  188.4940  176.1420  137.6440 N   0  0  0  0  0  0  0  0  0  0  0  0
  183.2770  176.0020  137.0020 S   0  0  0  0  0  0  0  0  0  0  0  0
  187.3730  175.4650  136.9760 C   0  0  1  0  0  3  0  0  0  0  0  0
  183.6610  173.4540  137.0470 C   0  0  0  0  0  2  0  0  0  0  0  0
  184.9750  174.1080  137.3660 C   0  0  1  0  0  3  0  0  0  0  0  0
  187.2230  173.9970  137.4730 C   0  0  1  0  0  3  0  0  0  0  0  0
  186.0810  173.3710  136.9210 O   0  0  0  0  0  0  0  0  0  0  0  0
  184.9110  175.3760  136.6020 C   0  0  2  0  0  3  0  0  0  0  0  0
  182.6230  174.3970  137.2030 O   0  0  0  0  0  0  0  0  0  0  0  0
  186.0460  176.2520  137.0890 C   0  0  0  0  0  2  0  0  0  0  0  0
  188.4490  173.1800  137.0830 C   0  0  0  0  0  2  0  0  0  0  0  0
  188.0750  172.0080  136.1920 C   0  0  0  0  0  2  0  0  0  0  0  0
  188.7500  172.1400  134.8410 C   0  0  0  0  0  1  0  0  0  0  0  0
  189.8010  176.4020  136.5130 S   0  0  0  0  0  0  0  0  0  0  0  0
  189.1820  177.2710  135.0900 C   0  0  0  0  0  1  0  0  0  0  0  0
  190.3580  175.0820  136.0580 O   0  0  0  0  0  0  0  0  0  0  0  0
  190.8940  177.2200  137.1440 O   0  0  0  0  0  0  0  0  0  0  0  0
  188.0630  177.3200  138.4320 C   0  0  1  0  0  3  0  0  0  0  0  0
  188.4210  177.8660  142.1800 C   0  0  0  0  0  3  0  0  0  0  0  0
  190.3510  176.6410  141.3900 C   0  0  0  0  0  3  0  0  0  0  0  0
  188.6110  177.2950  139.8280 C   0  0  0  0  0  0  0  0  0  0  0  0
  189.6540  177.2550  142.4380 C   0  0  0  0  0  0  0  0  0  0  0  0
  189.8360  176.6670  140.0920 C   0  0  0  0  0  3  0  0  0  0  0  0
  187.9010  177.8980  140.8820 C   0  0  0  0  0  0  0  0  0  0  0  0
  186.3490  178.6780  140.6170 Cl  0  0  0  0  0  0  0  0  0  0  0  0
  190.1810  177.1790  143.8390 C   0  0  0  0  0  3  0  0  0  0  0  0
  191.1220  178.3410  144.1170 C   0  0  0  0  0  2  0  0  0  0  0  0
  191.6860  176.9700  143.8300 C   0  0  0  0  0  2  0  0  0  0  0  0
  188.1710  178.6710  137.7700 C   0  0  0  0  0  0  0  0  0  0  0  0
  187.1180  179.1190  136.9200 N   0  0  0  0  0  2  0  0  0  0  0  0
  189.1750  179.4050  137.9680 O   0  0  0  0  0  0  0  0  0  0  0  0
  187.1850  180.3250  136.3080 O   0  0  0  0  0  1  0  0  0  0  0  0
  1 18  1  0  0  0  0
  2  9  1  0  0  0  0
  3 10  1  0  0  0  0
  3  6  1  0  0  0  0
  3  1  1  1  0  0  0
  4  9  1  0  0  0  0
  5  4  1  6  0  0  0
  6 11  1  6  0  0  0
  7  5  1  0  0  0  0
  7  6  1  0  0  0  0
  8  2  1  0  0  0  0
  8 10  1  1  0  0  0
  8  5  1  0  0  0  0
 12 11  1  0  0  0  0
 13 12  1  0  0  0  0
 14 17  2  0  0  0  0
 14  1  1  0  0  0  0
 15 14  1  0  0  0  0
 16 14  2  0  0  0  0
 18 29  1  6  0  0  0
 18 21  1  0  0  0  0
 19 22  1  0  0  0  0
 20 22  2  0  0  0  0
 21 23  2  0  0  0  0
 21 24  1  0  0  0  0
 22 26  1  0  0  0  0
 23 20  1  0  0  0  0
 24 19  2  0  0  0  0
 25 24  1  0  0  0  0
 26 27  1  0  0  0  0
 28 26  1  0  0  0  0
 28 27  1  0  0  0  0
 29 31  2  0  0  0  0
 30 29  1  0  0  0  0
 32 30  1  0  0  0  0
M  END
>  <MODEL>
1

>  <REMARK>
 VINA RESULT:      -5.3      0.000      0.000
  Name = 
  8 active torsions:
  status: ('A' for Active; 'I' for Inactive)
    1  A    between atoms: C_1  and  C_27
    2  A    between atoms: S_2  and  N_5
    3  A    between atoms: N_5  and  C_10
    4  A    between atoms: N_5  and  C_27
    5  A    between atoms: C_6  and  C_13
    6  A    between atoms: C_6  and  C_25
    7  A    between atoms: C_7  and  C_19
    8  A    between atoms: C_16  and  C_27
                            x       y       z     vdW  Elec       q    Type
                         _______ _______ _______ _____ _____    ______ ____

>  <TORSDO>
F 8

$$$$
=
 OpenBabel10272402103D

 32 35  0  0  1  0  0  0  0  0999 V2000
  187.4270  177.3320  137.4440 N   0  0  0  0  0  0  0  0  0  0  0  0
  190.6900  176.8250  141.5370 S   0  0  0  0  0  0  0  0  0  0  0  0
  187.8860  177.9240  138.7100 C   0  0  1  0  0  3  0  0  0  0  0  0
  188.6630  177.7170  142.8540 C   0  0  0  0  0  2  0  0  0  0  0  0
  188.2110  177.4940  141.4400 C   0  0  1  0  0  3  0  0  0  0  0  0
  186.7530  177.9250  139.7770 C   0  0  1  0  0  3  0  0  0  0  0  0
  187.2140  178.3900  141.0310 O   0  0  0  0  0  0  0  0  0  0  0  0
  189.4380  177.7580  140.6520 C   0  0  2  0  0  3  0  0  0  0  0  0
  189.8780  177.0320  143.0680 O   0  0  0  0  0  0  0  0  0  0  0  0
  189.1820  177.2690  139.2420 C   0  0  0  0  0  2  0  0  0  0  0  0
  185.6070  178.8230  139.3290 C   0  0  0  0  0  2  0  0  0  0  0  0
  184.5340  178.9330  140.4000 C   0  0  0  0  0  2  0  0  0  0  0  0
  183.4940  177.8460  140.2130 C   0  0  0  0  0  1  0  0  0  0  0  0
  187.6650  178.4590  136.1300 S   0  0  0  0  0  0  0  0  0  0  0  0
  186.6460  177.9800  134.7540 C   0  0  0  0  0  1  0  0  0  0  0  0
  189.1010  178.4390  135.6890 O   0  0  0  0  0  0  0  0  0  0  0  0
  187.2870  179.8530  136.5520 O   0  0  0  0  0  0  0  0  0  0  0  0
  187.9440  175.9600  137.2350 C   0  0  1  0  0  3  0  0  0  0  0  0
  186.1080  172.6300  137.1550 C   0  0  0  0  0  3  0  0  0  0  0  0
  184.4740  174.4140  137.1310 C   0  0  0  0  0  3  0  0  0  0  0  0
  186.8430  174.9430  137.1960 C   0  0  0  0  0  0  0  0  0  0  0  0
  184.7710  173.0450  137.1070 C   0  0  0  0  0  0  0  0  0  0  0  0
  185.5040  175.3560  137.1680 C   0  0  0  0  0  3  0  0  0  0  0  0
  187.1430  173.5690  137.1890 C   0  0  0  0  0  0  0  0  0  0  0  0
  188.8010  172.9900  137.2470 Cl  0  0  0  0  0  0  0  0  0  0  0  0
  183.6650  172.0340  137.1220 C   0  0  0  0  0  3  0  0  0  0  0  0
  183.3090  171.6140  135.7050 C   0  0  0  0  0  2  0  0  0  0  0  0
  182.4260  172.5930  136.4430 C   0  0  0  0  0  2  0  0  0  0  0  0
  188.9760  175.7690  136.1520 C   0  0  0  0  0  0  0  0  0  0  0  0
  190.3580  175.9270  136.4660 N   0  0  0  0  0  2  0  0  0  0  0  0
  188.6280  175.4640  134.9800 O   0  0  0  0  0  0  0  0  0  0  0  0
  191.3080  175.7660  135.5150 O   0  0  0  0  0  1  0  0  0  0  0  0
  2  9  1  0  0  0  0
  3  1  1  6  0  0  0
  3 10  1  0  0  0  0
  3  6  1  0  0  0  0
  4  9  1  0  0  0  0
  5  4  1  1  0  0  0
  6 11  1  6  0  0  0
  6  7  1  0  0  0  0
  7  5  1  0  0  0  0
  8 10  1  6  0  0  0
  8  5  1  0  0  0  0
  8  2  1  0  0  0  0
 11 12  1  0  0  0  0
 13 12  1  0  0  0  0
 14 17  2  0  0  0  0
 14  1  1  0  0  0  0
 15 14  1  0  0  0  0
 16 14  2  0  0  0  0
 18 29  1  6  0  0  0
 18  1  1  0  0  0  0
 19 24  1  0  0  0  0
 20 23  2  0  0  0  0
 21 18  1  0  0  0  0
 22 26  1  0  0  0  0
 22 20  1  0  0  0  0
 22 19  2  0  0  0  0
 23 21  1  0  0  0  0
 24 21  2  0  0  0  0
 24 25  1  0  0  0  0
 27 28  1  0  0  0  0
 27 26  1  0  0  0  0
 28 26  1  0  0  0  0
 29 30  1  0  0  0  0
 31 29  2  0  0  0  0
 32 30  1  0  0  0  0
M  END
>  <MODEL>
2

>  <REMARK>
 VINA RESULT:      -5.0      2.651      6.946
  Name = 
  8 active torsions:
  status: ('A' for Active; 'I' for Inactive)
    1  A    between atoms: C_1  and  C_27
    2  A    between atoms: S_2  and  N_5
    3  A    between atoms: N_5  and  C_10
    4  A    between atoms: N_5  and  C_27
    5  A    between atoms: C_6  and  C_13
    6  A    between atoms: C_6  and  C_25
    7  A    between atoms: C_7  and  C_19
    8  A    between atoms: C_16  and  C_27
                            x       y       z     vdW  Elec       q    Type
                         _______ _______ _______ _____ _____    ______ ____

>  <TORSDO>
F 8

$$$$
=
 OpenBabel10272402103D

 32 35  0  0  1  0  0  0  0  0999 V2000
  188.8900  176.8650  137.8970 N   0  0  0  0  0  0  0  0  0  0  0  0
  193.3490  175.5630  135.4310 S   0  0  0  0  0  0  0  0  0  0  0  0
  190.3590  176.9280  137.9330 C   0  0  1  0  0  3  0  0  0  0  0  0
  194.1690  175.1120  137.8320 C   0  0  0  0  0  2  0  0  0  0  0  0
  192.7040  175.4280  137.9150 C   0  0  1  0  0  3  0  0  0  0  0  0
  190.9300  176.1070  139.1270 C   0  0  1  0  0  3  0  0  0  0  0  0
  192.3440  176.0690  139.1080 O   0  0  0  0  0  0  0  0  0  0  0  0
  192.5030  176.3730  136.7910 C   0  0  2  0  0  3  0  0  0  0  0  0
  194.5040  174.8030  136.4970 O   0  0  0  0  0  0  0  0  0  0  0  0
  191.0090  176.5230  136.5900 C   0  0  0  0  0  2  0  0  0  0  0  0
  190.4880  176.7220  140.4500 C   0  0  0  0  0  2  0  0  0  0  0  0
  191.6650  177.3100  141.2100 C   0  0  0  0  0  2  0  0  0  0  0  0
  191.2110  177.8280  142.5600 C   0  0  0  0  0  1  0  0  0  0  0  0
  188.2090  178.3820  138.4320 S   0  0  0  0  0  0  0  0  0  0  0  0
  188.2810  178.4650  140.2070 C   0  0  0  0  0  1  0  0  0  0  0  0
  186.7690  178.4760  138.0110 O   0  0  0  0  0  0  0  0  0  0  0  0
  188.9780  179.5410  137.8600 O   0  0  0  0  0  0  0  0  0  0  0  0
  188.3730  176.3260  136.6170 C   0  0  1  0  0  3  0  0  0  0  0  0
  186.7360  172.9440  137.2050 C   0  0  0  0  0  3  0  0  0  0  0  0
  185.0030  174.6250  137.0570 C   0  0  0  0  0  3  0  0  0  0  0  0
  187.3350  175.2670  136.8300 C   0  0  0  0  0  0  0  0  0  0  0  0
  185.3780  173.2850  137.2140 C   0  0  0  0  0  0  0  0  0  0  0  0
  185.9760  175.6090  136.8590 C   0  0  0  0  0  3  0  0  0  0  0  0
  187.7130  173.9230  137.0040 C   0  0  0  0  0  0  0  0  0  0  0  0
  189.4030  173.4380  137.0020 Cl  0  0  0  0  0  0  0  0  0  0  0  0
  184.3380  172.2390  137.4810 C   0  0  0  0  0  3  0  0  0  0  0  0
  183.8210  171.6590  136.1740 C   0  0  0  0  0  2  0  0  0  0  0  0
  182.9930  172.6740  136.9250 C   0  0  0  0  0  2  0  0  0  0  0  0
  188.0020  177.3240  135.5490 C   0  0  0  0  0  0  0  0  0  0  0  0
  186.6280  177.6120  135.3060 N   0  0  0  0  0  2  0  0  0  0  0  0
  188.8950  177.9100  134.8790 O   0  0  0  0  0  0  0  0  0  0  0  0
  186.2610  178.5010  134.3530 O   0  0  0  0  0  1  0  0  0  0  0  0
  1 14  1  0  0  0  0
  2  9  1  0  0  0  0
  2  8  1  0  0  0  0
  3  1  1  6  0  0  0
  3  6  1  0  0  0  0
  5  4  1  1  0  0  0
  5  7  1  0  0  0  0
  6 11  1  1  0  0  0
  7  6  1  0  0  0  0
  8 10  1  6  0  0  0
  8  5  1  0  0  0  0
  9  4  1  0  0  0  0
 10  3  1  0  0  0  0
 11 12  1  0  0  0  0
 12 13  1  0  0  0  0
 14 15  1  0  0  0  0
 16 14  2  0  0  0  0
 17 14  2  0  0  0  0
 18 29  1  6  0  0  0
 18 21  1  0  0  0  0
 18  1  1  0  0  0  0
 19 22  1  0  0  0  0
 20 22  2  0  0  0  0
 21 23  2  0  0  0  0
 21 24  1  0  0  0  0
 22 26  1  0  0  0  0
 23 20  1  0  0  0  0
 24 19  2  0  0  0  0
 25 24  1  0  0  0  0
 27 28  1  0  0  0  0
 27 26  1  0  0  0  0
 28 26  1  0  0  0  0
 30 29  1  0  0  0  0
 31 29  2  0  0  0  0
 32 30  1  0  0  0  0
M  END
>  <MODEL>
3

>  <REMARK>
 VINA RESULT:      -4.8      2.702      7.033
  Name = 
  8 active torsions:
  status: ('A' for Active; 'I' for Inactive)
    1  A    between atoms: C_1  and  C_27
    2  A    between atoms: S_2  and  N_5
    3  A    between atoms: N_5  and  C_10
    4  A    between atoms: N_5  and  C_27
    5  A    between atoms: C_6  and  C_13
    6  A    between atoms: C_6  and  C_25
    7  A    between atoms: C_7  and  C_19
    8  A    between atoms: C_16  and  C_27
                            x       y       z     vdW  Elec       q    Type
                         _______ _______ _______ _____ _____    ______ ____

>  <TORSDO>
F 8

$$$$
=
 OpenBabel10272402103D

 32 35  0  0  1  0  0  0  0  0999 V2000
  183.4590  178.3480  139.5870 N   0  0  0  0  0  0  0  0  0  0  0  0
  188.1040  178.0470  142.0350 S   0  0  0  0  0  0  0  0  0  0  0  0
  184.2380  178.7610  140.7640 C   0  0  1  0  0  3  0  0  0  0  0  0
  186.6250  177.9040  144.1400 C   0  0  0  0  0  2  0  0  0  0  0  0
  185.7100  177.8650  142.9500 C   0  0  1  0  0  3  0  0  0  0  0  0
  183.6540  178.1510  142.0710 C   0  0  1  0  0  3  0  0  0  0  0  0
  184.4600  178.4500  143.1950 O   0  0  0  0  0  0  0  0  0  0  0  0
  186.4290  178.6880  141.9480 C   0  0  2  0  0  3  0  0  0  0  0  0
  187.9440  177.6290  143.7210 O   0  0  0  0  0  0  0  0  0  0  0  0
  185.7490  178.4680  140.6130 C   0  0  0  0  0  2  0  0  0  0  0  0
  182.2550  178.6970  142.3300 C   0  0  0  0  0  2  0  0  0  0  0  0
  181.9690  178.8110  143.8170 C   0  0  0  0  0  2  0  0  0  0  0  0
  180.4770  178.7180  144.0730 C   0  0  0  0  0  1  0  0  0  0  0  0
  182.7610  179.7460  138.8060 S   0  0  0  0  0  0  0  0  0  0  0  0
  181.2630  180.2040  139.6490 C   0  0  0  0  0  1  0  0  0  0  0  0
  182.4220  179.4220  137.3780 O   0  0  0  0  0  0  0  0  0  0  0  0
  183.7150  180.9080  138.8460 O   0  0  0  0  0  0  0  0  0  0  0  0
  184.1980  177.4070  138.7140 C   0  0  1  0  0  3  0  0  0  0  0  0
  183.0820  174.1180  137.1620 C   0  0  0  0  0  3  0  0  0  0  0  0
  181.1320  175.2760  138.0030 C   0  0  0  0  0  3  0  0  0  0  0  0
  183.3310  176.2790  138.2410 C   0  0  0  0  0  0  0  0  0  0  0  0
  181.6950  174.1750  137.3460 C   0  0  0  0  0  0  0  0  0  0  0  0
  181.9450  176.3250  138.4410 C   0  0  0  0  0  3  0  0  0  0  0  0
  183.9000  175.1660  137.5960 C   0  0  0  0  0  0  0  0  0  0  0  0
  185.6340  175.0410  137.3380 Cl  0  0  0  0  0  0  0  0  0  0  0  0
  180.8290  173.0260  136.9240 C   0  0  0  0  0  3  0  0  0  0  0  0
  180.6790  172.0280  138.0620 C   0  0  0  0  0  2  0  0  0  0  0  0
  181.6270  171.7330  136.9240 C   0  0  0  0  0  2  0  0  0  0  0  0
  185.0530  178.0040  137.6250 C   0  0  0  0  0  0  0  0  0  0  0  0
  186.2920  178.6200  137.9660 N   0  0  0  0  0  2  0  0  0  0  0  0
  184.6860  177.9540  136.4200 O   0  0  0  0  0  0  0  0  0  0  0  0
  187.0810  179.1680  137.0120 O   0  0  0  0  0  1  0  0  0  0  0  0
  2  9  1  0  0  0  0
  3  1  1  6  0  0  0
  3  6  1  0  0  0  0
  5  7  1  0  0  0  0
  5  4  1  1  0  0  0
  6 11  1  1  0  0  0
  6  7  1  0  0  0  0
  8 10  1  6  0  0  0
  8  2  1  0  0  0  0
  8  5  1  0  0  0  0
  9  4  1  0  0  0  0
 10  3  1  0  0  0  0
 11 12  1  0  0  0  0
 12 13  1  0  0  0  0
 14 17  2  0  0  0  0
 14  1  1  0  0  0  0
 14 15  1  0  0  0  0
 16 14  2  0  0  0  0
 18 29  1  6  0  0  0
 18  1  1  0  0  0  0
 19 22  2  0  0  0  0
 19 24  1  0  0  0  0
 20 23  2  0  0  0  0
 21 23  1  0  0  0  0
 21 18  1  0  0  0  0
 22 20  1  0  0  0  0
 24 21  2  0  0  0  0
 25 24  1  0  0  0  0
 26 22  1  0  0  0  0
 26 27  1  0  0  0  0
 28 26  1  0  0  0  0
 28 27  1  0  0  0  0
 29 30  1  0  0  0  0
 31 29  2  0  0  0  0
 32 30  1  0  0  0  0
M  END
>  <MODEL>
4

>  <REMARK>
 VINA RESULT:      -4.6      4.223      8.365
  Name = 
  8 active torsions:
  status: ('A' for Active; 'I' for Inactive)
    1  A    between atoms: C_1  and  C_27
    2  A    between atoms: S_2  and  N_5
    3  A    between atoms: N_5  and  C_10
    4  A    between atoms: N_5  and  C_27
    5  A    between atoms: C_6  and  C_13
    6  A    between atoms: C_6  and  C_25
    7  A    between atoms: C_7  and  C_19
    8  A    between atoms: C_16  and  C_27
                            x       y       z     vdW  Elec       q    Type
                         _______ _______ _______ _____ _____    ______ ____

>  <TORSDO>
F 8

$$$$
=
 OpenBabel10272402103D

 32 35  0  0  1  0  0  0  0  0999 V2000
  182.8090  177.1760  137.9260 N   0  0  0  0  0  0  0  0  0  0  0  0
  180.5320  181.1800  135.3890 S   0  0  0  0  0  0  0  0  0  0  0  0
  181.8430  178.2800  138.0220 C   0  0  1  0  0  3  0  0  0  0  0  0
  180.7930  182.3540  137.6680 C   0  0  0  0  0  2  0  0  0  0  0  0
  181.4930  181.0290  137.7670 C   0  0  1  0  0  3  0  0  0  0  0  0
  182.3200  179.3610  139.0370 C   0  0  1  0  0  3  0  0  0  0  0  0
  181.4540  180.4800  139.0560 O   0  0  0  0  0  0  0  0  0  0  0  0
  180.7020  180.1650  136.8590 C   0  0  2  0  0  3  0  0  0  0  0  0
  180.5730  182.6620  136.3090 O   0  0  0  0  0  0  0  0  0  0  0  0
  181.4940  178.8920  136.6460 C   0  0  0  0  0  2  0  0  0  0  0  0
  182.3740  178.7770  140.4430 C   0  0  0  0  0  2  0  0  0  0  0  0
  183.7840  178.8190  141.0080 C   0  0  0  0  0  2  0  0  0  0  0  0
  183.7490  178.6680  142.5160 C   0  0  0  0  0  1  0  0  0  0  0  0
  182.0070  175.6470  138.1950 S   0  0  0  0  0  0  0  0  0  0  0  0
  181.0720  175.7320  139.7060 C   0  0  0  0  0  1  0  0  0  0  0  0
  183.0250  174.5490  138.3280 O   0  0  0  0  0  0  0  0  0  0  0  0
  181.0700  175.3320  137.0620 O   0  0  0  0  0  0  0  0  0  0  0  0
  183.6620  177.2670  136.7170 C   0  0  1  0  0  3  0  0  0  0  0  0
  187.3320  178.2040  136.3660 C   0  0  0  0  0  3  0  0  0  0  0  0
  186.8310  177.9100  138.7140 C   0  0  0  0  0  3  0  0  0  0  0  0
  185.0850  177.5950  137.0560 C   0  0  0  0  0  0  0  0  0  0  0  0
  187.7550  178.1950  137.7010 C   0  0  0  0  0  0  0  0  0  0  0  0
  185.5060  177.6050  138.3930 C   0  0  0  0  0  3  0  0  0  0  0  0
  186.0080  177.8970  136.0380 C   0  0  0  0  0  0  0  0  0  0  0  0
  185.5320  177.9240  134.3460 Cl  0  0  0  0  0  0  0  0  0  0  0  0
  189.1630  178.5740  138.0490 C   0  0  0  0  0  3  0  0  0  0  0  0
  189.9600  177.3440  138.4530 C   0  0  0  0  0  2  0  0  0  0  0  0
  189.4420  178.2860  139.5150 C   0  0  0  0  0  2  0  0  0  0  0  0
  183.5260  176.1680  135.6930 C   0  0  0  0  0  0  0  0  0  0  0  0
  184.3610  175.0170  135.7880 N   0  0  0  0  0  2  0  0  0  0  0  0
  182.6790  176.2570  134.7650 O   0  0  0  0  0  0  0  0  0  0  0  0
  184.2660  174.0140  134.8830 O   0  0  0  0  0  1  0  0  0  0  0  0
  1 14  1  0  0  0  0
  2  9  1  0  0  0  0
  2  8  1  0  0  0  0
  3  1  1  6  0  0  0
  3  6  1  0  0  0  0
  5  4  1  1  0  0  0
  5  7  1  0  0  0  0
  6  7  1  0  0  0  0
  6 11  1  1  0  0  0
  8 10  1  6  0  0  0
  8  5  1  0  0  0  0
  9  4  1  0  0  0  0
 10  3  1  0  0  0  0
 11 12  1  0  0  0  0
 12 13  1  0  0  0  0
 14 16  2  0  0  0  0
 14 15  1  0  0  0  0
 17 14  2  0  0  0  0
 18 29  1  1  0  0  0
 18 21  1  0  0  0  0
 18  1  1  0  0  0  0
 19 22  1  0  0  0  0
 21 23  2  0  0  0  0
 22 26  1  0  0  0  0
 22 20  2  0  0  0  0
 23 20  1  0  0  0  0
 24 19  2  0  0  0  0
 24 21  1  0  0  0  0
 25 24  1  0  0  0  0
 26 27  1  0  0  0  0
 26 28  1  0  0  0  0
 27 28  1  0  0  0  0
 29 30  1  0  0  0  0
 31 29  2  0  0  0  0
 32 30  1  0  0  0  0
M  END
>  <MODEL>
5

>  <REMARK>
 VINA RESULT:      -4.6      4.412      7.118
  Name = 
  8 active torsions:
  status: ('A' for Active; 'I' for Inactive)
    1  A    between atoms: C_1  and  C_27
    2  A    between atoms: S_2  and  N_5
    3  A    between atoms: N_5  and  C_10
    4  A    between atoms: N_5  and  C_27
    5  A    between atoms: C_6  and  C_13
    6  A    between atoms: C_6  and  C_25
    7  A    between atoms: C_7  and  C_19
    8  A    between atoms: C_16  and  C_27
                            x       y       z     vdW  Elec       q    Type
                         _______ _______ _______ _____ _____    ______ ____

>  <TORSDO>
F 8

$$$$
=
 OpenBabel10272402103D

 32 35  0  0  1  0  0  0  0  0999 V2000
  184.2630  176.7430  138.1360 N   0  0  0  0  0  0  0  0  0  0  0  0
  179.9820  173.8860  137.0570 S   0  0  0  0  0  0  0  0  0  0  0  0
  183.7090  175.6460  137.3300 C   0  0  1  0  0  3  0  0  0  0  0  0
  181.6890  171.9590  136.9420 C   0  0  0  0  0  2  0  0  0  0  0  0
  182.4260  173.1780  137.4170 C   0  0  1  0  0  3  0  0  0  0  0  0
  184.3680  174.2840  137.7000 C   0  0  1  0  0  3  0  0  0  0  0  0
  183.7660  173.2060  137.0100 O   0  0  0  0  0  0  0  0  0  0  0  0
  181.7040  174.2860  136.7480 C   0  0  2  0  0  3  0  0  0  0  0  0
  180.3010  172.1700  137.0820 O   0  0  0  0  0  0  0  0  0  0  0  0
  182.1660  175.5770  137.3910 C   0  0  0  0  0  2  0  0  0  0  0  0
  185.8510  174.3040  137.3520 C   0  0  0  0  0  2  0  0  0  0  0  0
  186.1470  173.4530  136.1280 C   0  0  0  0  0  2  0  0  0  0  0  0
  187.1090  172.3380  136.4850 C   0  0  0  0  0  1  0  0  0  0  0  0
  185.5070  177.5820  137.2410 S   0  0  0  0  0  0  0  0  0  0  0  0
  185.2430  177.3390  135.4990 C   0  0  0  0  0  1  0  0  0  0  0  0
  186.8590  177.0300  137.5980 O   0  0  0  0  0  0  0  0  0  0  0  0
  185.4710  179.0560  137.5360 O   0  0  0  0  0  0  0  0  0  0  0  0
  183.2110  177.5880  138.7500 C   0  0  1  0  0  3  0  0  0  0  0  0
  183.0430  178.6420  142.4010 C   0  0  0  0  0  3  0  0  0  0  0  0
  185.3130  178.9320  141.6170 C   0  0  0  0  0  3  0  0  0  0  0  0
  183.6100  178.0870  140.1060 C   0  0  0  0  0  0  0  0  0  0  0  0
  184.3650  179.0380  142.6420 C   0  0  0  0  0  0  0  0  0  0  0  0
  184.9360  178.4660  140.3550 C   0  0  0  0  0  3  0  0  0  0  0  0
  182.6590  178.1780  141.1390 C   0  0  0  0  0  0  0  0  0  0  0  0
  180.9870  177.6950  140.8940 Cl  0  0  0  0  0  0  0  0  0  0  0  0
  184.7810  179.4870  144.0100 C   0  0  0  0  0  3  0  0  0  0  0  0
  185.3090  178.3120  144.8170 C   0  0  0  0  0  2  0  0  0  0  0  0
  183.9140  178.8300  145.0700 C   0  0  0  0  0  2  0  0  0  0  0  0
  182.5840  178.6480  137.8800 C   0  0  0  0  0  0  0  0  0  0  0  0
  182.3530  179.9480  138.4180 N   0  0  0  0  0  2  0  0  0  0  0  0
  182.2740  178.3980  136.6850 O   0  0  0  0  0  0  0  0  0  0  0  0
  181.7900  180.9210  137.6640 O   0  0  0  0  0  1  0  0  0  0  0  0
  1 18  1  0  0  0  0
  2  9  1  0  0  0  0
  3 10  1  0  0  0  0
  3  6  1  0  0  0  0
  3  1  1  1  0  0  0
  4  9  1  0  0  0  0
  5  4  1  6  0  0  0
  6 11  1  6  0  0  0
  7  5  1  0  0  0  0
  7  6  1  0  0  0  0
  8  2  1  0  0  0  0
  8 10  1  1  0  0  0
  8  5  1  0  0  0  0
 12 13  1  0  0  0  0
 12 11  1  0  0  0  0
 14 17  2  0  0  0  0
 14 16  2  0  0  0  0
 14  1  1  0  0  0  0
 15 14  1  0  0  0  0
 18 29  1  6  0  0  0
 18 21  1  0  0  0  0
 19 22  1  0  0  0  0
 20 22  2  0  0  0  0
 21 23  2  0  0  0  0
 21 24  1  0  0  0  0
 22 26  1  0  0  0  0
 23 20  1  0  0  0  0
 24 19  2  0  0  0  0
 25 24  1  0  0  0  0
 26 27  1  0  0  0  0
 26 28  1  0  0  0  0
 27 28  1  0  0  0  0
 29 30  1  0  0  0  0
 31 29  2  0  0  0  0
 32 30  1  0  0  0  0
M  END
>  <MODEL>
6

>  <REMARK>
 VINA RESULT:      -4.2      3.706      4.734
  Name = 
  8 active torsions:
  status: ('A' for Active; 'I' for Inactive)
    1  A    between atoms: C_1  and  C_27
    2  A    between atoms: S_2  and  N_5
    3  A    between atoms: N_5  and  C_10
    4  A    between atoms: N_5  and  C_27
    5  A    between atoms: C_6  and  C_13
    6  A    between atoms: C_6  and  C_25
    7  A    between atoms: C_7  and  C_19
    8  A    between atoms: C_16  and  C_27
                            x       y       z     vdW  Elec       q    Type
                         _______ _______ _______ _____ _____    ______ ____

>  <TORSDO>
F 8

$$$$
=
 OpenBabel10272402103D

 32 35  0  0  1  0  0  0  0  0999 V2000
  188.4550  177.2940  138.5380 N   0  0  0  0  0  0  0  0  0  0  0  0
  191.3030  176.5500  142.8950 S   0  0  0  0  0  0  0  0  0  0  0  0
  188.7740  177.8030  139.8790 C   0  0  1  0  0  3  0  0  0  0  0  0
  189.1370  177.3220  144.0580 C   0  0  0  0  0  2  0  0  0  0  0  0
  188.8330  177.1900  142.5940 C   0  0  1  0  0  3  0  0  0  0  0  0
  187.5390  177.7160  140.8250 C   0  0  1  0  0  3  0  0  0  0  0  0
  187.8640  178.0990  142.1470 O   0  0  0  0  0  0  0  0  0  0  0  0
  190.1270  177.5240  141.9530 C   0  0  2  0  0  3  0  0  0  0  0  0
  190.3380  176.6400  144.3470 O   0  0  0  0  0  0  0  0  0  0  0  0
  190.0220  177.1300  140.4950 C   0  0  0  0  0  2  0  0  0  0  0  0
  186.4260  178.6270  140.3240 C   0  0  0  0  0  2  0  0  0  0  0  0
  185.5890  179.1640  141.4730 C   0  0  0  0  0  2  0  0  0  0  0  0
  184.4810  178.1880  141.8160 C   0  0  0  0  0  1  0  0  0  0  0  0
  188.3270  178.6180  137.4050 S   0  0  0  0  0  0  0  0  0  0  0  0
  188.7480  178.0410  135.7760 C   0  0  0  0  0  1  0  0  0  0  0  0
  189.2850  179.7130  137.7830 O   0  0  0  0  0  0  0  0  0  0  0  0
  186.9250  179.1610  137.3800 O   0  0  0  0  0  0  0  0  0  0  0  0
  189.3250  176.1640  138.1340 C   0  0  1  0  0  3  0  0  0  0  0  0
  188.5360  173.0460  136.1040 C   0  0  0  0  0  3  0  0  0  0  0  0
  186.5680  174.4510  136.1580 C   0  0  0  0  0  3  0  0  0  0  0  0
  188.5910  175.1580  137.3000 C   0  0  0  0  0  0  0  0  0  0  0  0
  187.2090  173.2840  135.7240 C   0  0  0  0  0  0  0  0  0  0  0  0
  187.2570  175.3850  136.9350 C   0  0  0  0  0  3  0  0  0  0  0  0
  189.2320  173.9790  136.8790 C   0  0  0  0  0  0  0  0  0  0  0  0
  190.8950  173.6280  137.3250 Cl  0  0  0  0  0  0  0  0  0  0  0  0
  186.4530  172.2570  134.9360 C   0  0  0  0  0  3  0  0  0  0  0  0
  185.5700  171.4270  135.8550 C   0  0  0  0  0  2  0  0  0  0  0  0
  186.8740  170.8570  135.3490 C   0  0  0  0  0  2  0  0  0  0  0  0
  190.6930  176.5050  137.5970 C   0  0  0  0  0  0  0  0  0  0  0  0
  191.7990  176.5750  138.4940 N   0  0  0  0  0  2  0  0  0  0  0  0
  190.8660  176.7190  136.3670 O   0  0  0  0  0  0  0  0  0  0  0  0
  193.0390  176.8810  138.0440 O   0  0  0  0  0  1  0  0  0  0  0  0
  2  9  1  0  0  0  0
  3  1  1  6  0  0  0
  3 10  1  0  0  0  0
  3  6  1  0  0  0  0
  4  9  1  0  0  0  0
  5  4  1  1  0  0  0
  6 11  1  6  0  0  0
  6  7  1  0  0  0  0
  7  5  1  0  0  0  0
  8 10  1  6  0  0  0
  8  5  1  0  0  0  0
  8  2  1  0  0  0  0
 11 12  1  0  0  0  0
 12 13  1  0  0  0  0
 14 16  2  0  0  0  0
 14  1  1  0  0  0  0
 15 14  1  0  0  0  0
 17 14  2  0  0  0  0
 18 29  1  6  0  0  0
 18  1  1  0  0  0  0
 19 24  1  0  0  0  0
 20 23  2  0  0  0  0
 21 18  1  0  0  0  0
 22 19  2  0  0  0  0
 22 20  1  0  0  0  0
 23 21  1  0  0  0  0
 24 21  2  0  0  0  0
 24 25  1  0  0  0  0
 26 28  1  0  0  0  0
 26 22  1  0  0  0  0
 26 27  1  0  0  0  0
 28 27  1  0  0  0  0
 29 30  1  0  0  0  0
 31 29  2  0  0  0  0
 32 30  1  0  0  0  0
M  END
>  <MODEL>
7

>  <REMARK>
 VINA RESULT:      -3.8      2.864      7.135
  Name = 
  8 active torsions:
  status: ('A' for Active; 'I' for Inactive)
    1  A    between atoms: C_1  and  C_27
    2  A    between atoms: S_2  and  N_5
    3  A    between atoms: N_5  and  C_10
    4  A    between atoms: N_5  and  C_27
    5  A    between atoms: C_6  and  C_13
    6  A    between atoms: C_6  and  C_25
    7  A    between atoms: C_7  and  C_19
    8  A    between atoms: C_16  and  C_27
                            x       y       z     vdW  Elec       q    Type
                         _______ _______ _______ _____ _____    ______ ____

>  <TORSDO>
F 8

$$$$
=
 OpenBabel10272402103D

 32 35  0  0  1  0  0  0  0  0999 V2000
  183.4240  178.4310  138.2000 N   0  0  0  0  0  0  0  0  0  0  0  0
  188.1700  177.8390  136.0120 S   0  0  0  0  0  0  0  0  0  0  0  0
  184.8500  178.7800  138.2840 C   0  0  1  0  0  3  0  0  0  0  0  0
  188.9370  177.7370  138.4700 C   0  0  0  0  0  2  0  0  0  0  0  0
  187.4360  177.7690  138.4740 C   0  0  1  0  0  3  0  0  0  0  0  0
  185.5050  178.1780  139.5610 C   0  0  1  0  0  3  0  0  0  0  0  0
  186.9000  178.4140  139.5960 O   0  0  0  0  0  0  0  0  0  0  0  0
  187.1160  178.5690  137.2680 C   0  0  2  0  0  3  0  0  0  0  0  0
  189.3920  177.4000  137.1770 O   0  0  0  0  0  0  0  0  0  0  0  0
  185.6330  178.4100  137.0030 C   0  0  0  0  0  2  0  0  0  0  0  0
  184.8880  178.7940  140.8110 C   0  0  0  0  0  2  0  0  0  0  0  0
  185.7770  178.5950  142.0260 C   0  0  0  0  0  2  0  0  0  0  0  0
  184.9320  178.4150  143.2720 C   0  0  0  0  0  1  0  0  0  0  0  0
  182.4390  179.8370  138.5230 S   0  0  0  0  0  0  0  0  0  0  0  0
  181.3760  179.5040  139.9100 C   0  0  0  0  0  1  0  0  0  0  0  0
  181.5790  180.1480  137.3300 O   0  0  0  0  0  0  0  0  0  0  0  0
  183.3010  181.0260  138.8470 O   0  0  0  0  0  0  0  0  0  0  0  0
  183.0950  177.6640  136.9760 C   0  0  1  0  0  3  0  0  0  0  0  0
  184.1300  174.1760  138.0870 C   0  0  0  0  0  3  0  0  0  0  0  0
  185.0380  174.5860  135.8820 C   0  0  0  0  0  3  0  0  0  0  0  0
  183.7130  176.2980  136.9830 C   0  0  0  0  0  0  0  0  0  0  0  0
  184.8900  173.7450  136.9930 C   0  0  0  0  0  0  0  0  0  0  0  0
  184.4590  175.8570  135.8810 C   0  0  0  0  0  3  0  0  0  0  0  0
  183.5500  175.4490  138.0920 C   0  0  0  0  0  0  0  0  0  0  0  0
  182.6070  175.9370  139.4920 Cl  0  0  0  0  0  0  0  0  0  0  0  0
  185.4660  172.3610  136.9720 C   0  0  0  0  0  3  0  0  0  0  0  0
  186.9810  172.4140  137.0820 C   0  0  0  0  0  2  0  0  0  0  0  0
  186.3340  172.1660  135.7400 C   0  0  0  0  0  2  0  0  0  0  0  0
  181.6560  177.6690  136.5250 C   0  0  0  0  0  0  0  0  0  0  0  0
  181.3330  178.1340  135.2170 N   0  0  0  0  0  2  0  0  0  0  0  0
  180.7420  177.2580  137.2900 O   0  0  0  0  0  0  0  0  0  0  0  0
  180.0510  178.1540  134.7840 O   0  0  0  0  0  1  0  0  0  0  0  0
  1 14  1  0  0  0  0
  2  9  1  0  0  0  0
  2  8  1  0  0  0  0
  3  1  1  6  0  0  0
  3  6  1  0  0  0  0
  5  4  1  1  0  0  0
  5  7  1  0  0  0  0
  6  7  1  0  0  0  0
  6 11  1  1  0  0  0
  8 10  1  6  0  0  0
  8  5  1  0  0  0  0
  9  4  1  0  0  0  0
 10  3  1  0  0  0  0
 11 12  1  0  0  0  0
 12 13  1  0  0  0  0
 14 17  2  0  0  0  0
 14 15  1  0  0  0  0
 16 14  2  0  0  0  0
 18 29  1  1  0  0  0
 18 21  1  0  0  0  0
 18  1  1  0  0  0  0
 19 24  1  0  0  0  0
 20 22  1  0  0  0  0
 21 24  2  0  0  0  0
 22 19  2  0  0  0  0
 23 20  2  0  0  0  0
 23 21  1  0  0  0  0
 24 25  1  0  0  0  0
 26 22  1  0  0  0  0
 26 27  1  0  0  0  0
 28 26  1  0  0  0  0
 28 27  1  0  0  0  0
 29 31  2  0  0  0  0
 30 29  1  0  0  0  0
 32 30  1  0  0  0  0
M  END
>  <MODEL>
8

>  <REMARK>
 VINA RESULT:      -3.8      3.282      7.400
  Name = 
  8 active torsions:
  status: ('A' for Active; 'I' for Inactive)
    1  A    between atoms: C_1  and  C_27
    2  A    between atoms: S_2  and  N_5
    3  A    between atoms: N_5  and  C_10
    4  A    between atoms: N_5  and  C_27
    5  A    between atoms: C_6  and  C_13
    6  A    between atoms: C_6  and  C_25
    7  A    between atoms: C_7  and  C_19
    8  A    between atoms: C_16  and  C_27
                            x       y       z     vdW  Elec       q    Type
                         _______ _______ _______ _____ _____    ______ ____

>  <TORSDO>
F 8

$$$$
=
 OpenBabel10272402103D

 32 35  0  0  1  0  0  0  0  0999 V2000
  187.3170  176.4680  136.7230 N   0  0  0  0  0  0  0  0  0  0  0  0
  184.1490  179.1220  139.9750 S   0  0  0  0  0  0  0  0  0  0  0  0
  185.9470  176.9470  136.9580 C   0  0  1  0  0  3  0  0  0  0  0  0
  182.4710  177.2750  139.3320 C   0  0  0  0  0  2  0  0  0  0  0  0
  183.7910  176.9090  138.7190 C   0  0  1  0  0  3  0  0  0  0  0  0
  184.9630  175.7600  137.1740 C   0  0  1  0  0  3  0  0  0  0  0  0
  183.6640  176.2100  137.5110 O   0  0  0  0  0  0  0  0  0  0  0  0
  184.4070  178.2290  138.4400 C   0  0  2  0  0  3  0  0  0  0  0  0
  182.6750  178.2550  140.3270 O   0  0  0  0  0  0  0  0  0  0  0  0
  185.8630  177.9830  138.1030 C   0  0  0  0  0  2  0  0  0  0  0  0
  184.8620  174.9210  135.9070 C   0  0  0  0  0  2  0  0  0  0  0  0
  184.7150  173.4430  136.2280 C   0  0  0  0  0  2  0  0  0  0  0  0
  184.8300  173.2170  137.7230 C   0  0  0  0  0  1  0  0  0  0  0  0
  187.9550  177.1640  135.2530 S   0  0  0  0  0  0  0  0  0  0  0  0
  186.6600  178.0440  134.4090 C   0  0  0  0  0  1  0  0  0  0  0  0
  188.4590  176.0770  134.3460 O   0  0  0  0  0  0  0  0  0  0  0  0
  189.0720  178.1220  135.5610 O   0  0  0  0  0  0  0  0  0  0  0  0
  188.1740  176.5750  137.9270 C   0  0  1  0  0  3  0  0  0  0  0  0
  190.8920  174.0510  137.0890 C   0  0  0  0  0  3  0  0  0  0  0  0
  191.9440  176.1250  137.7530 C   0  0  0  0  0  3  0  0  0  0  0  0
  189.5220  175.9530  137.7160 C   0  0  0  0  0  0  0  0  0  0  0  0
  192.0540  174.7920  137.3380 C   0  0  0  0  0  0  0  0  0  0  0  0
  190.6850  176.7000  137.9480 C   0  0  0  0  0  3  0  0  0  0  0  0
  189.6300  174.6190  137.2840 C   0  0  0  0  0  0  0  0  0  0  0  0
  188.2070  173.6420  136.9550 Cl  0  0  0  0  0  0  0  0  0  0  0  0
  193.4030  174.1930  137.0780 C   0  0  0  0  0  3  0  0  0  0  0  0
  194.4010  174.6550  138.1280 C   0  0  0  0  0  2  0  0  0  0  0  0
  194.4130  175.2810  136.7530 C   0  0  0  0  0  2  0  0  0  0  0  0
  188.2320  177.9160  138.6150 C   0  0  0  0  0  0  0  0  0  0  0  0
  188.1650  177.9770  140.0370 N   0  0  0  0  0  2  0  0  0  0  0  0
  188.3490  178.9770  137.9450 O   0  0  0  0  0  0  0  0  0  0  0  0
  188.2120  179.1650  140.6850 O   0  0  0  0  0  1  0  0  0  0  0  0
  1 18  1  0  0  0  0
  2  9  1  0  0  0  0
  3  1  1  1  0  0  0
  3  6  1  0  0  0  0
  3 10  1  0  0  0  0
  4  9  1  0  0  0  0
  5  4  1  6  0  0  0
  6 11  1  6  0  0  0
  6  7  1  0  0  0  0
  7  5  1  0  0  0  0
  8 10  1  1  0  0  0
  8  5  1  0  0  0  0
  8  2  1  0  0  0  0
 11 12  1  0  0  0  0
 12 13  1  0  0  0  0
 14 17  2  0  0  0  0
 14  1  1  0  0  0  0
 15 14  1  0  0  0  0
 16 14  2  0  0  0  0
 18 29  1  6  0  0  0
 19 24  2  0  0  0  0
 19 22  1  0  0  0  0
 20 23  1  0  0  0  0
 21 18  1  0  0  0  0
 21 23  2  0  0  0  0
 22 20  2  0  0  0  0
 24 21  1  0  0  0  0
 25 24  1  0  0  0  0
 26 22  1  0  0  0  0
 26 27  1  0  0  0  0
 28 26  1  0  0  0  0
 28 27  1  0  0  0  0
 29 30  1  0  0  0  0
 30 32  1  0  0  0  0
 31 29  2  0  0  0  0
M  END
>  <MODEL>
9

>  <REMARK>
 VINA RESULT:      -3.7      3.188      4.358
  Name = 
  8 active torsions:
  status: ('A' for Active; 'I' for Inactive)
    1  A    between atoms: C_1  and  C_27
    2  A    between atoms: S_2  and  N_5
    3  A    between atoms: N_5  and  C_10
    4  A    between atoms: N_5  and  C_27
    5  A    between atoms: C_6  and  C_13
    6  A    between atoms: C_6  and  C_25
    7  A    between atoms: C_7  and  C_19
    8  A    between atoms: C_16  and  C_27
                            x       y       z     vdW  Elec       q    Type
                         _______ _______ _______ _____ _____    ______ ____

>  <TORSDO>
F 8

$$$$
