=
 OpenBabel10272401103D

 27 31  0  0  1  0  0  0  0  0999 V2000
  187.2610  177.8760  143.9110 C   0  0  0  0  0  3  0  0  0  0  0  0
  187.0280  178.3600  141.5130 C   0  0  0  0  0  0  0  0  0  0  0  0
  189.1360  177.8110  142.4410 O   0  0  0  0  0  0  0  0  0  0  0  0
  187.8620  177.4590  137.3070 C   0  0  0  0  0  3  0  0  0  0  0  0
  189.6600  175.8030  137.3500 F   0  0  0  0  0  0  0  0  0  0  0  0
  186.3720  178.5660  140.2700 N   0  0  0  0  0  0  0  0  0  0  0  0
  189.3160  177.1000  139.2730 C   0  0  0  0  0  0  0  0  0  0  0  0
  190.6670  176.2890  140.0540 Cl  0  0  0  0  0  0  0  0  0  0  0  0
  188.6880  178.3070  139.9340 C   0  0  1  0  0  3  0  0  0  0  0  0
  186.4010  178.2310  142.8040 N   0  0  0  0  0  0  0  0  0  0  0  0
  188.9860  176.7810  138.0040 C   0  0  0  0  0  0  0  0  0  0  0  0
  187.3100  178.5350  139.3750 C   0  0  0  0  0  0  0  0  0  0  0  0
  188.5830  177.6760  143.7290 C   0  0  0  0  0  0  0  0  0  0  0  0
  188.3130  178.1340  141.3600 C   0  0  0  0  0  0  0  0  0  0  0  0
  187.0380  178.2880  137.9600 C   0  0  0  0  0  3  0  0  0  0  0  0
  182.2840  178.8970  143.4800 N   0  0  0  0  0  0  0  0  0  0  0  0
  184.9900  178.4500  143.0290 C   0  0  0  0  0  0  0  0  0  0  0  0
  184.0670  178.4000  141.9730 C   0  0  0  0  0  3  0  0  0  0  0  0
  182.7120  178.6250  142.2190 C   0  0  0  0  0  3  0  0  0  0  0  0
  183.1510  178.9570  144.5250 C   0  0  0  0  0  3  0  0  0  0  0  0
  184.5140  178.7360  144.3190 C   0  0  0  0  0  3  0  0  0  0  0  0
  189.7570  176.9660  147.2480 C   0  0  0  0  0  3  0  0  0  0  0  0
  191.0980  176.6380  147.0390 C   0  0  0  0  0  3  0  0  0  0  0  0
  188.9420  177.3030  146.1630 C   0  0  0  0  0  3  0  0  0  0  0  0
  191.6260  176.6460  145.7450 C   0  0  0  0  0  3  0  0  0  0  0  0
  190.8120  176.9840  144.6610 C   0  0  0  0  0  3  0  0  0  0  0  0
  189.4610  177.3150  144.8600 C   0  0  0  0  0  0  0  0  0  0  0  0
  2 10  1  0  0  0  0
  3 13  1  0  0  0  0
  4 15  2  0  0  0  0
  4 11  1  0  0  0  0
  5 11  1  0  0  0  0
  6  2  1  0  0  0  0
  7  8  1  0  0  0  0
  9  7  1  6  0  0  0
  9 14  1  0  0  0  0
 10 17  1  0  0  0  0
 10  1  1  0  0  0  0
 11  7  2  0  0  0  0
 12  9  1  0  0  0  0
 12  6  2  0  0  0  0
 13  1  2  0  0  0  0
 13 27  1  0  0  0  0
 14  2  2  0  0  0  0
 14  3  1  0  0  0  0
 15 12  1  0  0  0  0
 16 20  1  0  0  0  0
 17 21  1  0  0  0  0
 18 19  1  0  0  0  0
 18 17  2  0  0  0  0
 19 16  2  0  0  0  0
 21 20  2  0  0  0  0
 23 22  1  0  0  0  0
 24 22  2  0  0  0  0
 25 23  2  0  0  0  0
 26 27  2  0  0  0  0
 26 25  1  0  0  0  0
 27 24  1  0  0  0  0
M  END
>  <MODEL>
1

>  <REMARK>
 VINA RESULT:      -9.7      0.000      0.000
  Name = 
  2 active torsions:
  status: ('A' for Active; 'I' for Inactive)
    1  A    between atoms: C_9  and  N_15
    2  A    between atoms: C_18  and  C_26
                            x       y       z     vdW  Elec       q    Type
                         _______ _______ _______ _____ _____    ______ ____

>  <TORSDO>
F 2

$$$$
=
 OpenBabel10272401103D

 27 31  0  0  1  0  0  0  0  0999 V2000
  186.0950  178.0890  143.9050 C   0  0  0  0  0  3  0  0  0  0  0  0
  186.5830  178.3940  141.5160 C   0  0  0  0  0  0  0  0  0  0  0  0
  188.3300  178.0560  143.0780 O   0  0  0  0  0  0  0  0  0  0  0  0
  188.6990  177.2730  137.8480 C   0  0  0  0  0  3  0  0  0  0  0  0
  190.4730  175.7520  138.5690 F   0  0  0  0  0  0  0  0  0  0  0  0
  186.3280  178.4700  140.1200 N   0  0  0  0  0  0  0  0  0  0  0  0
  189.5000  177.1480  140.1830 C   0  0  0  0  0  0  0  0  0  0  0  0
  190.5840  176.4870  141.4000 Cl  0  0  0  0  0  0  0  0  0  0  0  0
  188.6460  178.3510  140.5190 C   0  0  1  0  0  3  0  0  0  0  0  0
  185.5980  178.3080  142.5650 N   0  0  0  0  0  0  0  0  0  0  0  0
  189.5880  176.7230  138.9060 C   0  0  0  0  0  0  0  0  0  0  0  0
  187.4940  178.4440  139.5550 C   0  0  0  0  0  0  0  0  0  0  0  0
  187.4170  177.9690  144.1470 C   0  0  0  0  0  0  0  0  0  0  0  0
  187.8620  178.2480  141.7760 C   0  0  0  0  0  0  0  0  0  0  0  0
  187.6790  178.0840  138.1490 C   0  0  0  0  0  3  0  0  0  0  0  0
  181.4460  178.7340  141.9100 N   0  0  0  0  0  0  0  0  0  0  0  0
  184.1780  178.4440  142.3360 C   0  0  0  0  0  0  0  0  0  0  0  0
  183.6020  178.1030  141.1020 C   0  0  0  0  0  3  0  0  0  0  0  0
  182.2290  178.2530  140.9070 C   0  0  0  0  0  3  0  0  0  0  0  0
  181.9700  179.0770  143.1160 C   0  0  0  0  0  3  0  0  0  0  0  0
  183.3400  178.9400  143.3490 C   0  0  0  0  0  3  0  0  0  0  0  0
  187.5670  177.8470  147.9190 C   0  0  0  0  0  3  0  0  0  0  0  0
  188.8510  177.3420  148.1360 C   0  0  0  0  0  3  0  0  0  0  0  0
  187.1060  178.0490  146.6140 C   0  0  0  0  0  3  0  0  0  0  0  0
  189.6750  177.0370  147.0490 C   0  0  0  0  0  3  0  0  0  0  0  0
  189.2140  177.2400  145.7450 C   0  0  0  0  0  3  0  0  0  0  0  0
  187.9240  177.7480  145.5160 C   0  0  0  0  0  0  0  0  0  0  0  0
  1 13  2  0  0  0  0
  2 14  2  0  0  0  0
  2 10  1  0  0  0  0
  3 13  1  0  0  0  0
  4 15  2  0  0  0  0
  4 11  1  0  0  0  0
  5 11  1  0  0  0  0
  6  2  1  0  0  0  0
  7  9  1  0  0  0  0
  7  8  1  0  0  0  0
  9 12  1  6  0  0  0
  9 14  1  0  0  0  0
 10  1  1  0  0  0  0
 11  7  2  0  0  0  0
 12  6  2  0  0  0  0
 13 27  1  0  0  0  0
 14  3  1  0  0  0  0
 15 12  1  0  0  0  0
 16 20  1  0  0  0  0
 17 10  1  0  0  0  0
 17 21  1  0  0  0  0
 18 17  2  0  0  0  0
 19 18  1  0  0  0  0
 19 16  2  0  0  0  0
 20 21  2  0  0  0  0
 22 23  1  0  0  0  0
 24 22  2  0  0  0  0
 25 23  2  0  0  0  0
 26 25  1  0  0  0  0
 27 26  2  0  0  0  0
 27 24  1  0  0  0  0
M  END
>  <MODEL>
2

>  <REMARK>
 VINA RESULT:      -9.7      1.112      1.441
  Name = 
  2 active torsions:
  status: ('A' for Active; 'I' for Inactive)
    1  A    between atoms: C_9  and  N_15
    2  A    between atoms: C_18  and  C_26
                            x       y       z     vdW  Elec       q    Type
                         _______ _______ _______ _____ _____    ______ ____

>  <TORSDO>
F 2

$$$$
=
 OpenBabel10272401103D

 27 31  0  0  1  0  0  0  0  0999 V2000
  186.9740  178.0680  141.6580 C   0  0  0  0  0  3  0  0  0  0  0  0
  189.1150  177.9840  142.8600 C   0  0  0  0  0  0  0  0  0  0  0  0
  187.0890  178.3820  144.0180 O   0  0  0  0  0  0  0  0  0  0  0  0
  191.5920  176.6590  146.2220 C   0  0  0  0  0  3  0  0  0  0  0  0
  190.0170  175.7660  147.8660 F   0  0  0  0  0  0  0  0  0  0  0  0
  190.4940  177.7140  143.0750 N   0  0  0  0  0  0  0  0  0  0  0  0
  189.1800  177.1990  146.2090 C   0  0  0  0  0  0  0  0  0  0  0  0
  187.5740  177.0670  146.9140 Cl  0  0  0  0  0  0  0  0  0  0  0  0
  189.4340  178.2150  145.1180 C   0  0  1  0  0  3  0  0  0  0  0  0
  188.4080  177.8900  141.6080 N   0  0  0  0  0  0  0  0  0  0  0  0
  190.2180  176.5550  146.7810 C   0  0  0  0  0  0  0  0  0  0  0  0
  190.6740  177.8430  144.3530 C   0  0  0  0  0  0  0  0  0  0  0  0
  186.3420  178.3070  142.8260 C   0  0  0  0  0  0  0  0  0  0  0  0
  188.4720  178.1930  143.9870 C   0  0  0  0  0  0  0  0  0  0  0  0
  191.8210  177.2570  145.0480 C   0  0  0  0  0  3  0  0  0  0  0  0
  190.3160  177.2070  137.9010 N   0  0  0  0  0  0  0  0  0  0  0  0
  189.0600  177.6450  140.3420 C   0  0  0  0  0  0  0  0  0  0  0  0
  190.0760  176.6850  140.2180 C   0  0  0  0  0  3  0  0  0  0  0  0
  190.6940  176.4780  138.9840 C   0  0  0  0  0  3  0  0  0  0  0  0
  189.3390  178.1480  137.9860 C   0  0  0  0  0  3  0  0  0  0  0  0
  188.6970  178.3830  139.2030 C   0  0  0  0  0  3  0  0  0  0  0  0
  182.8660  178.9100  144.1750 C   0  0  0  0  0  3  0  0  0  0  0  0
  182.0950  178.8440  143.0130 C   0  0  0  0  0  3  0  0  0  0  0  0
  184.2520  178.7350  144.1070 C   0  0  0  0  0  3  0  0  0  0  0  0
  182.7080  178.6020  141.7800 C   0  0  0  0  0  3  0  0  0  0  0  0
  184.0930  178.4260  141.7120 C   0  0  0  0  0  3  0  0  0  0  0  0
  184.8780  178.4910  142.8760 C   0  0  0  0  0  0  0  0  0  0  0  0
  1 13  2  0  0  0  0
  2  6  1  0  0  0  0
  2 14  2  0  0  0  0
  4 11  1  0  0  0  0
  6 12  2  0  0  0  0
  7 11  2  0  0  0  0
  7  8  1  0  0  0  0
  9 14  1  6  0  0  0
  9  7  1  0  0  0  0
 10  1  1  0  0  0  0
 10  2  1  0  0  0  0
 11  5  1  0  0  0  0
 12 15  1  0  0  0  0
 12  9  1  0  0  0  0
 13 27  1  0  0  0  0
 13  3  1  0  0  0  0
 14  3  1  0  0  0  0
 15  4  2  0  0  0  0
 16 20  2  0  0  0  0
 16 19  1  0  0  0  0
 17 10  1  0  0  0  0
 18 17  1  0  0  0  0
 19 18  2  0  0  0  0
 20 21  1  0  0  0  0
 21 17  2  0  0  0  0
 23 22  2  0  0  0  0
 24 22  1  0  0  0  0
 25 23  1  0  0  0  0
 26 25  2  0  0  0  0
 26 27  1  0  0  0  0
 27 24  2  0  0  0  0
M  END
>  <MODEL>
3

>  <REMARK>
 VINA RESULT:      -9.4      3.045      7.023
  Name = 
  2 active torsions:
  status: ('A' for Active; 'I' for Inactive)
    1  A    between atoms: C_9  and  N_15
    2  A    between atoms: C_18  and  C_26
                            x       y       z     vdW  Elec       q    Type
                         _______ _______ _______ _____ _____    ______ ____

>  <TORSDO>
F 2

$$$$
=
 OpenBabel10272401103D

 27 31  0  0  1  0  0  0  0  0999 V2000
  185.1950  178.3830  142.0680 C   0  0  0  0  0  3  0  0  0  0  0  0
  186.4930  178.4760  139.9830 C   0  0  0  0  0  0  0  0  0  0  0  0
  187.5780  178.3130  142.0810 O   0  0  0  0  0  0  0  0  0  0  0  0
  189.7400  177.0620  137.4060 C   0  0  0  0  0  3  0  0  0  0  0  0
  191.1240  175.6440  138.8380 F   0  0  0  0  0  0  0  0  0  0  0  0
  186.7430  178.4200  138.5850 N   0  0  0  0  0  0  0  0  0  0  0  0
  189.6710  177.1640  139.8740 C   0  0  0  0  0  0  0  0  0  0  0  0
  190.2500  176.6360  141.4480 Cl  0  0  0  0  0  0  0  0  0  0  0  0
  188.7730  178.3780  139.7790 C   0  0  1  0  0  3  0  0  0  0  0  0
  185.2020  178.4710  140.6240 N   0  0  0  0  0  0  0  0  0  0  0  0
  190.1940  176.6260  138.7530 C   0  0  0  0  0  0  0  0  0  0  0  0
  188.0330  178.3630  138.4690 C   0  0  0  0  0  0  0  0  0  0  0  0
  186.3470  178.3090  142.7670 C   0  0  0  0  0  0  0  0  0  0  0  0
  187.5980  178.3770  140.6860 C   0  0  0  0  0  0  0  0  0  0  0  0
  188.6920  177.8800  137.2560 C   0  0  0  0  0  3  0  0  0  0  0  0
  181.5370  178.7200  138.5360 N   0  0  0  0  0  0  0  0  0  0  0  0
  183.9540  178.5610  139.9020 C   0  0  0  0  0  0  0  0  0  0  0  0
  183.5970  179.7250  139.2040 C   0  0  0  0  0  3  0  0  0  0  0  0
  182.3810  179.7860  138.5230 C   0  0  0  0  0  3  0  0  0  0  0  0
  181.8490  177.5780  139.2040 C   0  0  0  0  0  3  0  0  0  0  0  0
  183.0580  177.4790  139.8970 C   0  0  0  0  0  3  0  0  0  0  0  0
  187.4680  177.6120  146.3050 C   0  0  0  0  0  3  0  0  0  0  0  0
  186.3610  178.0370  147.0430 C   0  0  0  0  0  3  0  0  0  0  0  0
  187.4570  177.7040  144.9100 C   0  0  0  0  0  3  0  0  0  0  0  0
  185.2410  178.5550  146.3860 C   0  0  0  0  0  3  0  0  0  0  0  0
  185.2300  178.6460  144.9920 C   0  0  0  0  0  3  0  0  0  0  0  0
  186.3390  178.2210  144.2400 C   0  0  0  0  0  0  0  0  0  0  0  0
  1 13  2  0  0  0  0
  2 10  1  0  0  0  0
  2 14  2  0  0  0  0
  3 13  1  0  0  0  0
  4 11  1  0  0  0  0
  6  2  1  0  0  0  0
  7  8  1  0  0  0  0
  9 12  1  6  0  0  0
  9  7  1  0  0  0  0
  9 14  1  0  0  0  0
 10  1  1  0  0  0  0
 11  5  1  0  0  0  0
 11  7  2  0  0  0  0
 12  6  2  0  0  0  0
 13 27  1  0  0  0  0
 14  3  1  0  0  0  0
 15  4  2  0  0  0  0
 15 12  1  0  0  0  0
 16 20  1  0  0  0  0
 17 10  1  0  0  0  0
 18 17  2  0  0  0  0
 19 16  2  0  0  0  0
 19 18  1  0  0  0  0
 20 21  2  0  0  0  0
 21 17  1  0  0  0  0
 22 23  1  0  0  0  0
 24 22  2  0  0  0  0
 25 23  2  0  0  0  0
 26 25  1  0  0  0  0
 27 24  1  0  0  0  0
 27 26  2  0  0  0  0
M  END
>  <MODEL>
4

>  <REMARK>
 VINA RESULT:      -9.3      2.079      3.267
  Name = 
  2 active torsions:
  status: ('A' for Active; 'I' for Inactive)
    1  A    between atoms: C_9  and  N_15
    2  A    between atoms: C_18  and  C_26
                            x       y       z     vdW  Elec       q    Type
                         _______ _______ _______ _____ _____    ______ ____

>  <TORSDO>
F 2

$$$$
=
 OpenBabel10272401103D

 27 31  0  0  1  0  0  0  0  0999 V2000
  188.6770  177.6350  142.5350 C   0  0  0  0  0  3  0  0  0  0  0  0
  186.5990  178.4810  143.5370 C   0  0  0  0  0  0  0  0  0  0  0  0
  186.9170  178.5170  141.1910 O   0  0  0  0  0  0  0  0  0  0  0  0
  182.2310  178.7890  143.6540 C   0  0  0  0  0  3  0  0  0  0  0  0
  181.4660  177.8800  141.5170 F   0  0  0  0  0  0  0  0  0  0  0  0
  185.6120  178.6940  144.5360 N   0  0  0  0  0  0  0  0  0  0  0  0
  183.7030  178.5640  141.6810 C   0  0  0  0  0  0  0  0  0  0  0  0
  183.9540  178.1290  139.9960 Cl  0  0  0  0  0  0  0  0  0  0  0  0
  184.7800  179.3220  142.4240 C   0  0  1  0  0  3  0  0  0  0  0  0
  187.8990  177.8870  143.7270 N   0  0  0  0  0  0  0  0  0  0  0  0
  182.4830  178.4140  142.2370 C   0  0  0  0  0  0  0  0  0  0  0  0
  184.5820  179.1680  143.9080 C   0  0  0  0  0  0  0  0  0  0  0  0
  188.1980  177.9440  141.3110 C   0  0  0  0  0  0  0  0  0  0  0  0
  186.1460  178.7480  142.3330 C   0  0  0  0  0  0  0  0  0  0  0  0
  183.2320  179.1340  144.4710 C   0  0  0  0  0  3  0  0  0  0  0  0
  189.5100  176.9410  147.5160 N   0  0  0  0  0  0  0  0  0  0  0  0
  188.4410  177.5580  145.0250 C   0  0  0  0  0  0  0  0  0  0  0  0
  187.6390  177.5800  146.1770 C   0  0  0  0  0  3  0  0  0  0  0  0
  188.1930  177.2660  147.4190 C   0  0  0  0  0  3  0  0  0  0  0  0
  190.3150  176.9130  146.4220 C   0  0  0  0  0  3  0  0  0  0  0  0
  189.7970  177.2210  145.1620 C   0  0  0  0  0  3  0  0  0  0  0  0
  189.3490  178.0380  137.7160 C   0  0  0  0  0  3  0  0  0  0  0  0
  190.4820  177.2240  137.7590 C   0  0  0  0  0  3  0  0  0  0  0  0
  188.6080  178.2690  138.8790 C   0  0  0  0  0  3  0  0  0  0  0  0
  190.8770  176.6400  138.9650 C   0  0  0  0  0  3  0  0  0  0  0  0
  190.1370  176.8700  140.1280 C   0  0  0  0  0  3  0  0  0  0  0  0
  188.9940  177.6880  140.0950 C   0  0  0  0  0  0  0  0  0  0  0  0
  1 10  1  0  0  0  0
  2 10  1  0  0  0  0
  2  6  1  0  0  0  0
  3 13  1  0  0  0  0
  3 14  1  0  0  0  0
  4 15  2  0  0  0  0
  5 11  1  0  0  0  0
  7 11  2  0  0  0  0
  8  7  1  0  0  0  0
  9  7  1  6  0  0  0
  9 12  1  0  0  0  0
 10 17  1  0  0  0  0
 11  4  1  0  0  0  0
 12 15  1  0  0  0  0
 12  6  2  0  0  0  0
 13  1  2  0  0  0  0
 14  9  1  0  0  0  0
 14  2  2  0  0  0  0
 17 21  2  0  0  0  0
 17 18  1  0  0  0  0
 18 19  2  0  0  0  0
 19 16  1  0  0  0  0
 20 16  2  0  0  0  0
 21 20  1  0  0  0  0
 22 23  2  0  0  0  0
 22 24  1  0  0  0  0
 23 25  1  0  0  0  0
 24 27  2  0  0  0  0
 25 26  2  0  0  0  0
 27 26  1  0  0  0  0
 27 13  1  0  0  0  0
M  END
>  <MODEL>
5

>  <REMARK>
 VINA RESULT:      -9.1      2.781      6.278
  Name = 
  2 active torsions:
  status: ('A' for Active; 'I' for Inactive)
    1  A    between atoms: C_9  and  N_15
    2  A    between atoms: C_18  and  C_26
                            x       y       z     vdW  Elec       q    Type
                         _______ _______ _______ _____ _____    ______ ____

>  <TORSDO>
F 2

$$$$
=
 OpenBabel10272401103D

 27 31  0  0  1  0  0  0  0  0999 V2000
  188.3880  177.8380  140.8180 C   0  0  0  0  0  3  0  0  0  0  0  0
  189.9750  177.7680  142.6930 C   0  0  0  0  0  0  0  0  0  0  0  0
  187.7140  178.3770  143.0410 O   0  0  0  0  0  0  0  0  0  0  0  0
  191.0380  176.6590  146.7960 C   0  0  0  0  0  3  0  0  0  0  0  0
  188.9300  176.0110  147.8520 F   0  0  0  0  0  0  0  0  0  0  0  0
  191.1700  177.4530  143.3940 N   0  0  0  0  0  0  0  0  0  0  0  0
  188.8270  177.3140  145.9040 C   0  0  0  0  0  0  0  0  0  0  0  0
  187.0730  177.3310  146.0150 Cl  0  0  0  0  0  0  0  0  0  0  0  0
  189.5200  178.2040  144.8960 C   0  0  1  0  0  3  0  0  0  0  0  0
  189.7330  177.5850  141.2830 N   0  0  0  0  0  0  0  0  0  0  0  0
  189.5520  176.6790  146.8490 C   0  0  0  0  0  0  0  0  0  0  0  0
  190.9130  177.6970  144.6410 C   0  0  0  0  0  0  0  0  0  0  0  0
  187.4160  178.2220  141.6720 C   0  0  0  0  0  0  0  0  0  0  0  0
  189.0050  178.1170  143.5060 C   0  0  0  0  0  0  0  0  0  0  0  0
  191.7020  177.1280  145.7330 C   0  0  0  0  0  3  0  0  0  0  0  0
  192.7080  176.4250  138.5160 N   0  0  0  0  0  0  0  0  0  0  0  0
  190.7570  177.1860  140.3450 C   0  0  0  0  0  0  0  0  0  0  0  0
  192.1010  177.5440  140.5370 C   0  0  0  0  0  3  0  0  0  0  0  0
  193.0660  177.1510  139.6080 C   0  0  0  0  0  3  0  0  0  0  0  0
  191.4160  176.0650  138.2980 C   0  0  0  0  0  3  0  0  0  0  0  0
  190.4210  176.4390  139.2050 C   0  0  0  0  0  3  0  0  0  0  0  0
  183.6710  178.7080  141.6770 C   0  0  0  0  0  3  0  0  0  0  0  0
  183.4160  178.9690  140.3290 C   0  0  0  0  0  3  0  0  0  0  0  0
  184.9780  178.4660  142.1090 C   0  0  0  0  0  3  0  0  0  0  0  0
  184.4700  178.9880  139.4100 C   0  0  0  0  0  3  0  0  0  0  0  0
  185.7760  178.7450  139.8410 C   0  0  0  0  0  3  0  0  0  0  0  0
  186.0430  178.4820  141.1960 C   0  0  0  0  0  0  0  0  0  0  0  0
  1 10  1  0  0  0  0
  1 13  2  0  0  0  0
  2  6  1  0  0  0  0
  2 14  2  0  0  0  0
  3 14  1  0  0  0  0
  4 11  1  0  0  0  0
  6 12  2  0  0  0  0
  7  8  1  0  0  0  0
  7 11  2  0  0  0  0
  9 14  1  6  0  0  0
  9  7  1  0  0  0  0
 10  2  1  0  0  0  0
 11  5  1  0  0  0  0
 12  9  1  0  0  0  0
 12 15  1  0  0  0  0
 13  3  1  0  0  0  0
 15  4  2  0  0  0  0
 16 19  1  0  0  0  0
 17 18  1  0  0  0  0
 17 10  1  0  0  0  0
 19 18  2  0  0  0  0
 20 16  2  0  0  0  0
 20 21  1  0  0  0  0
 21 17  2  0  0  0  0
 22 24  1  0  0  0  0
 23 22  2  0  0  0  0
 25 26  2  0  0  0  0
 25 23  1  0  0  0  0
 26 27  1  0  0  0  0
 27 13  1  0  0  0  0
 27 24  2  0  0  0  0
M  END
>  <MODEL>
6

>  <REMARK>
 VINA RESULT:      -9.1      3.357      7.584
  Name = 
  2 active torsions:
  status: ('A' for Active; 'I' for Inactive)
    1  A    between atoms: C_9  and  N_15
    2  A    between atoms: C_18  and  C_26
                            x       y       z     vdW  Elec       q    Type
                         _______ _______ _______ _____ _____    ______ ____

>  <TORSDO>
F 2

$$$$
=
 OpenBabel10272401103D

 27 31  0  0  1  0  0  0  0  0999 V2000
  188.7120  177.5460  142.4700 C   0  0  0  0  0  3  0  0  0  0  0  0
  186.5980  178.4460  143.3440 C   0  0  0  0  0  0  0  0  0  0  0  0
  187.0290  178.4060  141.0160 O   0  0  0  0  0  0  0  0  0  0  0  0
  182.2340  178.8040  143.2400 C   0  0  0  0  0  3  0  0  0  0  0  0
  181.5610  177.8390  141.0970 F   0  0  0  0  0  0  0  0  0  0  0  0
  185.5670  178.7000  144.2880 N   0  0  0  0  0  0  0  0  0  0  0  0
  183.7960  178.5040  141.3490 C   0  0  0  0  0  0  0  0  0  0  0  0
  184.1230  178.0140  139.6920 Cl  0  0  0  0  0  0  0  0  0  0  0  0
  184.8460  179.2720  142.1200 C   0  0  1  0  0  3  0  0  0  0  0  0
  187.8800  177.8430  143.6140 N   0  0  0  0  0  0  0  0  0  0  0  0
  182.5490  178.3840  141.8490 C   0  0  0  0  0  0  0  0  0  0  0  0
  184.5750  179.1660  143.5960 C   0  0  0  0  0  0  0  0  0  0  0  0
  188.2960  177.8220  141.2150 C   0  0  0  0  0  0  0  0  0  0  0  0
  186.2070  178.6800  142.1120 C   0  0  0  0  0  0  0  0  0  0  0  0
  183.1990  179.1630  144.0940 C   0  0  0  0  0  3  0  0  0  0  0  0
  189.2430  176.9620  147.5150 N   0  0  0  0  0  0  0  0  0  0  0  0
  188.3550  177.5480  144.9460 C   0  0  0  0  0  0  0  0  0  0  0  0
  189.6950  177.2030  145.1830 C   0  0  0  0  0  3  0  0  0  0  0  0
  190.1220  176.9130  146.4800 C   0  0  0  0  0  3  0  0  0  0  0  0
  187.9380  177.2890  147.3210 C   0  0  0  0  0  3  0  0  0  0  0  0
  187.4730  177.5850  146.0380 C   0  0  0  0  0  3  0  0  0  0  0  0
  191.2170  176.6210  139.1460 C   0  0  0  0  0  3  0  0  0  0  0  0
  190.7960  176.9320  137.8520 C   0  0  0  0  0  3  0  0  0  0  0  0
  190.3960  176.9130  140.2390 C   0  0  0  0  0  3  0  0  0  0  0  0
  189.5520  177.5370  137.6480 C   0  0  0  0  0  3  0  0  0  0  0  0
  188.7310  177.8300  138.7410 C   0  0  0  0  0  3  0  0  0  0  0  0
  189.1460  177.5200  140.0480 C   0  0  0  0  0  0  0  0  0  0  0  0
  1 10  1  0  0  0  0
  2 10  1  0  0  0  0
  2  6  1  0  0  0  0
  3 13  1  0  0  0  0
  3 14  1  0  0  0  0
  4 15  2  0  0  0  0
  5 11  1  0  0  0  0
  7 11  2  0  0  0  0
  8  7  1  0  0  0  0
  9  7  1  6  0  0  0
  9 12  1  0  0  0  0
 10 17  1  0  0  0  0
 11  4  1  0  0  0  0
 12 15  1  0  0  0  0
 12  6  2  0  0  0  0
 13  1  2  0  0  0  0
 14  9  1  0  0  0  0
 14  2  2  0  0  0  0
 17 18  2  0  0  0  0
 17 21  1  0  0  0  0
 18 19  1  0  0  0  0
 19 16  2  0  0  0  0
 20 16  1  0  0  0  0
 21 20  2  0  0  0  0
 22 24  1  0  0  0  0
 23 22  2  0  0  0  0
 25 23  1  0  0  0  0
 25 26  2  0  0  0  0
 26 27  1  0  0  0  0
 27 24  2  0  0  0  0
 27 13  1  0  0  0  0
M  END
>  <MODEL>
7

>  <REMARK>
 VINA RESULT:      -9.0      2.734      6.127
  Name = 
  2 active torsions:
  status: ('A' for Active; 'I' for Inactive)
    1  A    between atoms: C_9  and  N_15
    2  A    between atoms: C_18  and  C_26
                            x       y       z     vdW  Elec       q    Type
                         _______ _______ _______ _____ _____    ______ ____

>  <TORSDO>
F 2

$$$$
=
 OpenBabel10272401103D

 27 31  0  0  1  0  0  0  0  0999 V2000
  186.3360  178.3540  140.9930 C   0  0  0  0  0  3  0  0  0  0  0  0
  187.1360  177.5610  143.1770 C   0  0  0  0  0  0  0  0  0  0  0  0
  188.5250  177.4510  141.2640 O   0  0  0  0  0  0  0  0  0  0  0  0
  190.2100  177.3040  146.2880 C   0  0  0  0  0  3  0  0  0  0  0  0
  192.2500  178.1560  145.2450 F   0  0  0  0  0  0  0  0  0  0  0  0
  187.1560  177.3890  144.5880 N   0  0  0  0  0  0  0  0  0  0  0  0
  190.5100  177.4530  143.8390 C   0  0  0  0  0  0  0  0  0  0  0  0
  191.4980  177.8350  142.4350 Cl  0  0  0  0  0  0  0  0  0  0  0  0
  189.2080  176.7060  143.6540 C   0  0  1  0  0  3  0  0  0  0  0  0
  186.0720  178.1470  142.4000 N   0  0  0  0  0  0  0  0  0  0  0  0
  191.0100  177.6330  145.0790 C   0  0  0  0  0  0  0  0  0  0  0  0
  188.3290  176.9070  144.8580 C   0  0  0  0  0  0  0  0  0  0  0  0
  187.5230  178.0150  140.4490 C   0  0  0  0  0  0  0  0  0  0  0  0
  188.2910  177.2640  142.6280 C   0  0  0  0  0  0  0  0  0  0  0  0
  188.9170  176.9730  146.1960 C   0  0  0  0  0  3  0  0  0  0  0  0
  182.3030  179.1830  144.0030 N   0  0  0  0  0  0  0  0  0  0  0  0
  184.7880  178.5100  142.9540 C   0  0  0  0  0  0  0  0  0  0  0  0
  184.6440  178.8270  144.3130 C   0  0  0  0  0  3  0  0  0  0  0  0
  183.3890  179.1640  144.8220 C   0  0  0  0  0  3  0  0  0  0  0  0
  182.4060  178.8780  142.6830 C   0  0  0  0  0  3  0  0  0  0  0  0
  183.6460  178.5360  142.1380 C   0  0  0  0  0  3  0  0  0  0  0  0
  186.9910  178.2330  136.7170 C   0  0  0  0  0  3  0  0  0  0  0  0
  188.2590  178.6140  136.2710 C   0  0  0  0  0  3  0  0  0  0  0  0
  186.7580  178.0400  138.0820 C   0  0  0  0  0  3  0  0  0  0  0  0
  189.2950  178.8020  137.1900 C   0  0  0  0  0  3  0  0  0  0  0  0
  189.0620  178.6080  138.5540 C   0  0  0  0  0  3  0  0  0  0  0  0
  187.7900  178.2250  139.0130 C   0  0  0  0  0  0  0  0  0  0  0  0
  1 10  1  0  0  0  0
  2  6  1  0  0  0  0
  3 14  1  0  0  0  0
  6 12  2  0  0  0  0
  7 11  2  0  0  0  0
  8  7  1  0  0  0  0
  9 14  1  6  0  0  0
  9  7  1  0  0  0  0
  9 12  1  0  0  0  0
 10 17  1  0  0  0  0
 10  2  1  0  0  0  0
 11  5  1  0  0  0  0
 11  4  1  0  0  0  0
 12 15  1  0  0  0  0
 13  1  2  0  0  0  0
 13  3  1  0  0  0  0
 14  2  2  0  0  0  0
 15  4  2  0  0  0  0
 16 19  1  0  0  0  0
 17 18  1  0  0  0  0
 18 19  2  0  0  0  0
 20 16  2  0  0  0  0
 21 20  1  0  0  0  0
 21 17  2  0  0  0  0
 22 24  1  0  0  0  0
 23 22  2  0  0  0  0
 23 25  1  0  0  0  0
 24 27  2  0  0  0  0
 25 26  2  0  0  0  0
 26 27  1  0  0  0  0
 27 13  1  0  0  0  0
M  END
>  <MODEL>
8

>  <REMARK>
 VINA RESULT:      -8.9      2.048      5.859
  Name = 
  2 active torsions:
  status: ('A' for Active; 'I' for Inactive)
    1  A    between atoms: C_9  and  N_15
    2  A    between atoms: C_18  and  C_26
                            x       y       z     vdW  Elec       q    Type
                         _______ _______ _______ _____ _____    ______ ____

>  <TORSDO>
F 2

$$$$
=
 OpenBabel10272401103D

 27 31  0  0  1  0  0  0  0  0999 V2000
  186.1030  178.1450  144.8140 C   0  0  0  0  0  3  0  0  0  0  0  0
  188.2080  177.3060  143.8630 C   0  0  0  0  0  0  0  0  0  0  0  0
  186.2930  177.5960  142.5020 O   0  0  0  0  0  0  0  0  0  0  0  0
  191.2840  177.2880  140.7440 C   0  0  0  0  0  3  0  0  0  0  0  0
  190.3220  178.5540  138.8870 F   0  0  0  0  0  0  0  0  0  0  0  0
  189.5970  177.0160  143.7940 N   0  0  0  0  0  0  0  0  0  0  0  0
  188.8580  177.6990  140.5080 C   0  0  0  0  0  0  0  0  0  0  0  0
  187.4940  178.3610  139.6170 Cl  0  0  0  0  0  0  0  0  0  0  0  0
  188.6070  176.7670  141.6720 C   0  0  1  0  0  3  0  0  0  0  0  0
  187.4850  177.7740  145.0190 N   0  0  0  0  0  0  0  0  0  0  0  0
  190.1100  177.8500  140.0260 C   0  0  0  0  0  0  0  0  0  0  0  0
  189.8240  176.7130  142.5540 C   0  0  0  0  0  0  0  0  0  0  0  0
  185.5310  178.0550  143.5940 C   0  0  0  0  0  0  0  0  0  0  0  0
  187.6340  177.2530  142.6820 C   0  0  0  0  0  0  0  0  0  0  0  0
  191.1630  176.7570  141.9660 C   0  0  0  0  0  3  0  0  0  0  0  0
  189.1660  178.0380  148.8860 N   0  0  0  0  0  0  0  0  0  0  0  0
  188.0690  177.8690  146.3370 C   0  0  0  0  0  0  0  0  0  0  0  0
  189.4220  177.5700  146.5590 C   0  0  0  0  0  3  0  0  0  0  0  0
  189.9560  177.6620  147.8450 C   0  0  0  0  0  3  0  0  0  0  0  0
  187.8510  178.3310  148.7080 C   0  0  0  0  0  3  0  0  0  0  0  0
  187.2810  178.2510  147.4360 C   0  0  0  0  0  3  0  0  0  0  0  0
  182.2520  178.7890  141.8710 C   0  0  0  0  0  3  0  0  0  0  0  0
  181.4380  179.1460  142.9480 C   0  0  0  0  0  3  0  0  0  0  0  0
  183.5860  178.4330  142.0890 C   0  0  0  0  0  3  0  0  0  0  0  0
  181.9580  179.1480  144.2460 C   0  0  0  0  0  3  0  0  0  0  0  0
  183.2920  178.7930  144.4640 C   0  0  0  0  0  3  0  0  0  0  0  0
  184.1190  178.4320  143.3860 C   0  0  0  0  0  0  0  0  0  0  0  0
  1 10  1  0  0  0  0
  2 10  1  0  0  0  0
  3 14  1  0  0  0  0
  3 13  1  0  0  0  0
  4 15  2  0  0  0  0
  5 11  1  0  0  0  0
  6  2  1  0  0  0  0
  8  7  1  0  0  0  0
  9  7  1  6  0  0  0
  9 12  1  0  0  0  0
  9 14  1  0  0  0  0
 10 17  1  0  0  0  0
 11  7  2  0  0  0  0
 11  4  1  0  0  0  0
 12  6  2  0  0  0  0
 13  1  2  0  0  0  0
 14  2  2  0  0  0  0
 15 12  1  0  0  0  0
 17 18  2  0  0  0  0
 17 21  1  0  0  0  0
 18 19  1  0  0  0  0
 19 16  2  0  0  0  0
 20 16  1  0  0  0  0
 21 20  2  0  0  0  0
 22 24  2  0  0  0  0
 22 23  1  0  0  0  0
 23 25  2  0  0  0  0
 24 27  1  0  0  0  0
 25 26  1  0  0  0  0
 27 13  1  0  0  0  0
 27 26  2  0  0  0  0
M  END
>  <MODEL>
9

>  <REMARK>
 VINA RESULT:      -8.8      2.406      5.826
  Name = 
  2 active torsions:
  status: ('A' for Active; 'I' for Inactive)
    1  A    between atoms: C_9  and  N_15
    2  A    between atoms: C_18  and  C_26
                            x       y       z     vdW  Elec       q    Type
                         _______ _______ _______ _____ _____    ______ ____

>  <TORSDO>
F 2

$$$$
