=
 OpenBabel10272413163D

 32 35  0  0  1  0  0  0  0  0999 V2000
  187.5930  178.0120  139.2360 C   0  0  0  0  0  3  0  0  0  0  0  0
  188.6690  177.1790  138.9220 C   0  0  0  0  0  0  0  0  0  0  0  0
  186.4800  178.0790  138.3900 C   0  0  0  0  0  0  0  0  0  0  0  0
  186.4440  177.3070  137.2140 C   0  0  0  0  0  0  0  0  0  0  0  0
  187.5290  176.4670  136.9100 C   0  0  0  0  0  3  0  0  0  0  0  0
  188.6330  176.3990  137.7640 C   0  0  0  0  0  3  0  0  0  0  0  0
  185.3560  178.9970  138.7430 C   0  0  0  0  0  2  0  0  0  0  0  0
  184.8880  178.7310  140.1330 C   0  0  0  0  0  0  0  0  0  0  0  0
  183.4460  179.2600  144.3610 C   0  0  0  0  0  2  0  0  0  0  0  0
  185.3790  179.3330  141.1610 N   0  0  0  0  0  0  0  0  0  0  0  0
  182.2380  178.5290  142.2220 C   0  0  0  0  0  2  0  0  0  0  0  0
  183.6260  177.9710  141.8800 C   0  0  1  0  0  3  0  0  0  0  0  0
  183.7870  177.8770  140.4350 N   0  0  0  0  0  2  0  0  0  0  0  0
  184.6730  178.9020  142.2820 N   0  0  0  0  0  0  0  0  0  0  0  0
  182.2040  179.4100  143.4840 C   0  0  0  0  0  2  0  0  0  0  0  0
  184.6890  179.6160  143.5530 C   0  0  0  0  0  2  0  0  0  0  0  0
  185.3330  177.3890  136.3680 O   0  0  0  0  0  0  0  0  0  0  0  0
  184.5880  176.2480  135.9630 C   0  0  0  0  0  2  0  0  0  0  0  0
  183.3140  176.1650  136.7750 C   0  0  0  0  0  2  0  0  0  0  0  0
  183.5410  175.2700  137.9750 C   0  0  0  0  0  1  0  0  0  0  0  0
  189.8230  177.0740  139.8580 C   0  0  0  0  0  2  0  0  0  0  0  0
  189.4470  177.5270  141.1240 O   0  0  0  0  0  0  0  0  0  0  0  0
  189.9500  176.5720  142.0110 C   0  0  0  0  0  2  0  0  0  0  0  0
  189.9820  177.2970  144.5120 C   0  0  2  0  0  0  0  0  0  0  0  0
  187.7190  177.7340  145.6140 C   0  0  0  0  0  2  0  0  0  0  0  0
  191.2550  176.5130  144.7720 C   0  0  0  0  0  1  0  0  0  0  0  0
  187.7760  177.1160  143.1960 C   0  0  0  0  0  2  0  0  0  0  0  0
  189.1510  177.2290  145.8040 C   0  0  0  0  0  2  0  0  0  0  0  0
  189.2110  176.6130  143.3510 C   0  0  1  0  0  3  0  0  0  0  0  0
  187.0210  176.9510  144.5100 C   0  0  0  0  0  2  0  0  0  0  0  0
  190.3890  178.7220  144.2140 C   0  0  0  0  0  3  0  0  0  0  0  0
  191.6460  179.0970  143.9670 C   0  0  0  0  0  2  0  0  0  0  0  0
  2  1  1  0  0  0  0
  2 21  1  0  0  0  0
  3  7  1  0  0  0  0
  3  1  2  0  0  0  0
  4  3  1  0  0  0  0
  5  4  2  0  0  0  0
  5  6  1  0  0  0  0
  6  2  2  0  0  0  0
  7  8  1  0  0  0  0
  8 13  1  0  0  0  0
  8 10  2  0  0  0  0
 10 14  1  0  0  0  0
 11 15  1  0  0  0  0
 12 11  1  6  0  0  0
 12 14  1  0  0  0  0
 13 12  1  0  0  0  0
 14 16  1  0  0  0  0
 15  9  1  0  0  0  0
 16  9  1  0  0  0  0
 17  4  1  0  0  0  0
 18 17  1  0  0  0  0
 18 19  1  0  0  0  0
 19 20  1  0  0  0  0
 21 22  1  0  0  0  0
 22 23  1  0  0  0  0
 24 26  1  1  0  0  0
 24 28  1  0  0  0  0
 25 28  1  0  0  0  0
 27 29  1  0  0  0  0
 27 30  1  0  0  0  0
 29 23  1  6  0  0  0
 29 24  1  0  0  0  0
 30 25  1  0  0  0  0
 31 24  1  0  0  0  0
 32 31  2  0  0  0  0
M  END
>  <MODEL>
1

>  <REMARK>
 VINA RESULT:      -7.6      0.000      0.000
  Name = 
  10 active torsions:
  status: ('A' for Active; 'I' for Inactive)
    1  A    between atoms: C_2  and  C_5
    2  A    between atoms: C_2  and  C_6
    3  A    between atoms: C_3  and  C_22
    4  A    between atoms: C_4  and  C_27
    5  A    between atoms: C_13  and  C_29
    6  A    between atoms: C_14  and  O_18
    7  A    between atoms: C_16  and  C_20
    8  A    between atoms: C_16  and  O_24
    9  A    between atoms: O_18  and  C_29
   10  A    between atoms: O_24  and  C_27
                            x       y       z     vdW  Elec       q    Type
                         _______ _______ _______ _____ _____    ______ ____

>  <TORSDO>
F 10

$$$$
=
 OpenBabel10272413163D

 32 35  0  0  1  0  0  0  0  0999 V2000
  189.6040  176.9540  142.4310 C   0  0  0  0  0  3  0  0  0  0  0  0
  190.8230  177.4960  142.0170 C   0  0  0  0  0  0  0  0  0  0  0  0
  189.1450  177.1610  143.7360 C   0  0  0  0  0  0  0  0  0  0  0  0
  189.9150  177.9160  144.6400 C   0  0  0  0  0  0  0  0  0  0  0  0
  191.1360  178.4630  144.2130 C   0  0  0  0  0  3  0  0  0  0  0  0
  191.5850  178.2590  142.9050 C   0  0  0  0  0  3  0  0  0  0  0  0
  187.8490  176.5490  144.1550 C   0  0  0  0  0  2  0  0  0  0  0  0
  186.7370  177.5280  143.9910 C   0  0  0  0  0  0  0  0  0  0  0  0
  182.7580  179.4000  143.0410 C   0  0  0  0  0  2  0  0  0  0  0  0
  186.0460  177.6240  142.9070 N   0  0  0  0  0  0  0  0  0  0  0  0
  183.8590  178.7620  145.2660 C   0  0  0  0  0  2  0  0  0  0  0  0
  185.1390  179.0860  144.4840 C   0  0  1  0  0  3  0  0  0  0  0  0
  186.2700  178.3620  145.0490 N   0  0  0  0  0  2  0  0  0  0  0  0
  185.0560  178.5800  143.1190 N   0  0  0  0  0  0  0  0  0  0  0  0
  182.5820  178.7370  144.4070 C   0  0  0  0  0  2  0  0  0  0  0  0
  183.8750  178.7000  142.2730 C   0  0  0  0  0  2  0  0  0  0  0  0
  189.4540  178.1090  145.9470 O   0  0  0  0  0  0  0  0  0  0  0  0
  189.7780  177.2290  147.0160 C   0  0  0  0  0  2  0  0  0  0  0  0
  188.5270  176.9240  147.8120 C   0  0  0  0  0  2  0  0  0  0  0  0
  188.1840  178.1130  148.6850 C   0  0  0  0  0  1  0  0  0  0  0  0
  191.2740  177.3160  140.6090 C   0  0  0  0  0  2  0  0  0  0  0  0
  190.6700  176.1830  140.0600 O   0  0  0  0  0  0  0  0  0  0  0  0
  190.5720  176.4550  138.6940 C   0  0  0  0  0  2  0  0  0  0  0  0
  188.2210  177.1010  137.7760 C   0  0  2  0  0  0  0  0  0  0  0  0
  187.1340  175.4680  136.1410 C   0  0  0  0  0  2  0  0  0  0  0  0
  187.8790  177.8520  139.0500 C   0  0  0  0  0  1  0  0  0  0  0  0
  189.4220  174.9600  136.9990 C   0  0  0  0  0  2  0  0  0  0  0  0
  186.9100  176.4840  137.2620 C   0  0  0  0  0  2  0  0  0  0  0  0
  189.2330  175.9770  138.1250 C   0  0  1  0  0  3  0  0  0  0  0  0
  188.0770  174.3650  136.6040 C   0  0  0  0  0  2  0  0  0  0  0  0
  188.7560  178.1160  136.7910 C   0  0  0  0  0  3  0  0  0  0  0  0
  189.0340  179.3820  137.1090 C   0  0  0  0  0  2  0  0  0  0  0  0
  1  3  1  0  0  0  0
  2  1  2  0  0  0  0
  2  6  1  0  0  0  0
  3  7  1  0  0  0  0
  3  4  2  0  0  0  0
  4 17  1  0  0  0  0
  5  4  1  0  0  0  0
  6  5  2  0  0  0  0
  8  7  1  0  0  0  0
  8 13  1  0  0  0  0
  9 15  1  0  0  0  0
 10 14  1  0  0  0  0
 10  8  2  0  0  0  0
 12 13  1  0  0  0  0
 12 11  1  1  0  0  0
 14 12  1  0  0  0  0
 15 11  1  0  0  0  0
 16  9  1  0  0  0  0
 16 14  1  0  0  0  0
 17 18  1  0  0  0  0
 18 19  1  0  0  0  0
 19 20  1  0  0  0  0
 21  2  1  0  0  0  0
 22 21  1  0  0  0  0
 23 22  1  0  0  0  0
 24 29  1  0  0  0  0
 24 26  1  1  0  0  0
 25 30  1  0  0  0  0
 25 28  1  0  0  0  0
 27 29  1  0  0  0  0
 28 24  1  0  0  0  0
 29 23  1  6  0  0  0
 30 27  1  0  0  0  0
 31 32  2  0  0  0  0
 31 24  1  0  0  0  0
M  END
>  <MODEL>
2

>  <REMARK>
 VINA RESULT:      -7.6      2.069      6.764
  Name = 
  10 active torsions:
  status: ('A' for Active; 'I' for Inactive)
    1  A    between atoms: C_2  and  C_5
    2  A    between atoms: C_2  and  C_6
    3  A    between atoms: C_3  and  C_22
    4  A    between atoms: C_4  and  C_27
    5  A    between atoms: C_13  and  C_29
    6  A    between atoms: C_14  and  O_18
    7  A    between atoms: C_16  and  C_20
    8  A    between atoms: C_16  and  O_24
    9  A    between atoms: O_18  and  C_29
   10  A    between atoms: O_24  and  C_27
                            x       y       z     vdW  Elec       q    Type
                         _______ _______ _______ _____ _____    ______ ____

>  <TORSDO>
F 10

$$$$
=
 OpenBabel10272413163D

 32 35  0  0  1  0  0  0  0  0999 V2000
  189.6770  176.9410  142.5230 C   0  0  0  0  0  3  0  0  0  0  0  0
  190.8970  177.4850  142.1180 C   0  0  0  0  0  0  0  0  0  0  0  0
  189.2040  177.1530  143.8230 C   0  0  0  0  0  0  0  0  0  0  0  0
  189.9620  177.9130  144.7310 C   0  0  0  0  0  0  0  0  0  0  0  0
  191.1870  178.4620  144.3130 C   0  0  0  0  0  3  0  0  0  0  0  0
  191.6490  178.2530  143.0110 C   0  0  0  0  0  3  0  0  0  0  0  0
  187.9050  176.5380  144.2310 C   0  0  0  0  0  2  0  0  0  0  0  0
  186.7920  177.5120  144.0480 C   0  0  0  0  0  0  0  0  0  0  0  0
  182.8100  179.3590  143.0620 C   0  0  0  0  0  2  0  0  0  0  0  0
  186.1010  177.5860  142.9630 N   0  0  0  0  0  0  0  0  0  0  0  0
  183.9120  178.7670  145.2990 C   0  0  0  0  0  2  0  0  0  0  0  0
  185.1910  179.0780  144.5110 C   0  0  1  0  0  3  0  0  0  0  0  0
  186.3230  178.3650  145.0900 N   0  0  0  0  0  2  0  0  0  0  0  0
  185.1090  178.5450  143.1560 N   0  0  0  0  0  0  0  0  0  0  0  0
  182.6350  178.7230  144.4400 C   0  0  0  0  0  2  0  0  0  0  0  0
  183.9280  178.6470  142.3080 C   0  0  0  0  0  2  0  0  0  0  0  0
  189.4880  178.1100  146.0320 O   0  0  0  0  0  0  0  0  0  0  0  0
  189.7660  177.2110  147.0980 C   0  0  0  0  0  2  0  0  0  0  0  0
  188.5080  176.9910  147.9100 C   0  0  0  0  0  2  0  0  0  0  0  0
  188.0610  178.3070  148.5110 C   0  0  0  0  0  1  0  0  0  0  0  0
  191.3630  177.3000  140.7160 C   0  0  0  0  0  2  0  0  0  0  0  0
  190.5500  176.3680  140.0670 O   0  0  0  0  0  0  0  0  0  0  0  0
  190.8680  176.4980  138.7130 C   0  0  0  0  0  2  0  0  0  0  0  0
  189.3100  176.0690  136.6690 C   0  0  2  0  0  0  0  0  0  0  0  0
  186.9190  176.9500  136.8380 C   0  0  0  0  0  2  0  0  0  0  0  0
  190.4840  176.1050  135.7080 C   0  0  0  0  0  1  0  0  0  0  0  0
  188.4470  177.2490  138.7890 C   0  0  0  0  0  2  0  0  0  0  0  0
  188.1070  176.6610  135.9180 C   0  0  0  0  0  2  0  0  0  0  0  0
  189.6540  176.9530  137.8980 C   0  0  1  0  0  3  0  0  0  0  0  0
  187.3350  177.8860  137.9660 C   0  0  0  0  0  2  0  0  0  0  0  0
  189.0620  174.6180  137.0150 C   0  0  0  0  0  3  0  0  0  0  0  0
  189.9620  173.6490  136.8340 C   0  0  0  0  0  2  0  0  0  0  0  0
  1  3  1  0  0  0  0
  2  1  2  0  0  0  0
  2  6  1  0  0  0  0
  3  7  1  0  0  0  0
  3  4  2  0  0  0  0
  4 17  1  0  0  0  0
  5  4  1  0  0  0  0
  6  5  2  0  0  0  0
  8  7  1  0  0  0  0
  8 13  1  0  0  0  0
  9 15  1  0  0  0  0
 10 14  1  0  0  0  0
 10  8  2  0  0  0  0
 12 13  1  0  0  0  0
 12 11  1  1  0  0  0
 14 12  1  0  0  0  0
 15 11  1  0  0  0  0
 16  9  1  0  0  0  0
 16 14  1  0  0  0  0
 17 18  1  0  0  0  0
 18 19  1  0  0  0  0
 19 20  1  0  0  0  0
 21  2  1  0  0  0  0
 22 21  1  0  0  0  0
 23 22  1  0  0  0  0
 24 26  1  6  0  0  0
 24 31  1  0  0  0  0
 24 29  1  0  0  0  0
 25 30  1  0  0  0  0
 28 24  1  0  0  0  0
 28 25  1  0  0  0  0
 29 23  1  1  0  0  0
 29 27  1  0  0  0  0
 30 27  1  0  0  0  0
 32 31  2  0  0  0  0
M  END
>  <MODEL>
3

>  <REMARK>
 VINA RESULT:      -7.4      2.056      6.903
  Name = 
  10 active torsions:
  status: ('A' for Active; 'I' for Inactive)
    1  A    between atoms: C_2  and  C_5
    2  A    between atoms: C_2  and  C_6
    3  A    between atoms: C_3  and  C_22
    4  A    between atoms: C_4  and  C_27
    5  A    between atoms: C_13  and  C_29
    6  A    between atoms: C_14  and  O_18
    7  A    between atoms: C_16  and  C_20
    8  A    between atoms: C_16  and  O_24
    9  A    between atoms: O_18  and  C_29
   10  A    between atoms: O_24  and  C_27
                            x       y       z     vdW  Elec       q    Type
                         _______ _______ _______ _____ _____    ______ ____

>  <TORSDO>
F 10

$$$$
=
 OpenBabel10272413163D

 32 35  0  0  1  0  0  0  0  0999 V2000
  189.1990  177.6390  139.0560 C   0  0  0  0  0  3  0  0  0  0  0  0
  188.2250  177.2740  138.1250 C   0  0  0  0  0  0  0  0  0  0  0  0
  190.3860  176.9050  139.1620 C   0  0  0  0  0  0  0  0  0  0  0  0
  190.5990  175.7890  138.3320 C   0  0  0  0  0  0  0  0  0  0  0  0
  189.6160  175.4340  137.3930 C   0  0  0  0  0  3  0  0  0  0  0  0
  188.4370  176.1770  137.2870 C   0  0  0  0  0  3  0  0  0  0  0  0
  191.3980  177.3070  140.1840 C   0  0  0  0  0  2  0  0  0  0  0  0
  190.8600  177.0930  141.5570 C   0  0  0  0  0  0  0  0  0  0  0  0
  188.8050  177.6900  145.5140 C   0  0  0  0  0  2  0  0  0  0  0  0
  191.0140  177.9490  142.5080 N   0  0  0  0  0  0  0  0  0  0  0  0
  188.1530  176.3390  143.4360 C   0  0  0  0  0  2  0  0  0  0  0  0
  189.6750  176.2090  143.3010 C   0  0  1  0  0  3  0  0  0  0  0  0
  190.0380  175.9820  141.9080 N   0  0  0  0  0  2  0  0  0  0  0  0
  190.3340  177.4680  143.6250 N   0  0  0  0  0  0  0  0  0  0  0  0
  187.6960  177.3220  144.5290 C   0  0  0  0  0  2  0  0  0  0  0  0
  189.9740  178.3120  144.7590 C   0  0  0  0  0  2  0  0  0  0  0  0
  191.7830  175.0540  138.4530 O   0  0  0  0  0  0  0  0  0  0  0  0
  192.7080  174.9020  137.3840 C   0  0  0  0  0  2  0  0  0  0  0  0
  193.4490  176.2050  137.1730 C   0  0  0  0  0  2  0  0  0  0  0  0
  194.1430  176.1760  135.8280 C   0  0  0  0  0  1  0  0  0  0  0  0
  186.9910  178.0960  137.9820 C   0  0  0  0  0  2  0  0  0  0  0  0
  186.5770  178.5480  139.2360 O   0  0  0  0  0  0  0  0  0  0  0  0
  185.2130  178.8120  139.0890 C   0  0  0  0  0  2  0  0  0  0  0  0
  183.1100  178.5040  140.5960 C   0  0  2  0  0  0  0  0  0  0  0  0
  183.4920  178.5050  143.1210 C   0  0  0  0  0  2  0  0  0  0  0  0
  182.2180  179.1750  139.5670 C   0  0  0  0  0  1  0  0  0  0  0  0
  185.4680  178.7110  141.6100 C   0  0  0  0  0  2  0  0  0  0  0  0
  182.5450  178.8740  141.9770 C   0  0  0  0  0  2  0  0  0  0  0  0
  184.5470  179.0720  140.4440 C   0  0  1  0  0  3  0  0  0  0  0  0
  184.8480  179.1700  142.9240 C   0  0  0  0  0  2  0  0  0  0  0  0
  183.0170  177.0140  140.3620 C   0  0  0  0  0  3  0  0  0  0  0  0
  182.0350  176.4320  139.6690 C   0  0  0  0  0  2  0  0  0  0  0  0
  1  3  1  0  0  0  0
  2  1  2  0  0  0  0
  3  7  1  0  0  0  0
  4 17  1  0  0  0  0
  4  3  2  0  0  0  0
  5  4  1  0  0  0  0
  6  5  2  0  0  0  0
  6  2  1  0  0  0  0
  7  8  1  0  0  0  0
  8 13  1  0  0  0  0
  8 10  2  0  0  0  0
 10 14  1  0  0  0  0
 11 15  1  0  0  0  0
 12 11  1  6  0  0  0
 12 14  1  0  0  0  0
 13 12  1  0  0  0  0
 14 16  1  0  0  0  0
 15  9  1  0  0  0  0
 16  9  1  0  0  0  0
 18 17  1  0  0  0  0
 19 18  1  0  0  0  0
 20 19  1  0  0  0  0
 21  2  1  0  0  0  0
 21 22  1  0  0  0  0
 23 22  1  0  0  0  0
 24 26  1  6  0  0  0
 24 28  1  0  0  0  0
 27 30  1  0  0  0  0
 28 25  1  0  0  0  0
 29 23  1  6  0  0  0
 29 24  1  0  0  0  0
 29 27  1  0  0  0  0
 30 25  1  0  0  0  0
 31 24  1  0  0  0  0
 32 31  2  0  0  0  0
M  END
>  <MODEL>
4

>  <REMARK>
 VINA RESULT:      -7.4      2.789      6.484
  Name = 
  10 active torsions:
  status: ('A' for Active; 'I' for Inactive)
    1  A    between atoms: C_2  and  C_5
    2  A    between atoms: C_2  and  C_6
    3  A    between atoms: C_3  and  C_22
    4  A    between atoms: C_4  and  C_27
    5  A    between atoms: C_13  and  C_29
    6  A    between atoms: C_14  and  O_18
    7  A    between atoms: C_16  and  C_20
    8  A    between atoms: C_16  and  O_24
    9  A    between atoms: O_18  and  C_29
   10  A    between atoms: O_24  and  C_27
                            x       y       z     vdW  Elec       q    Type
                         _______ _______ _______ _____ _____    ______ ____

>  <TORSDO>
F 10

$$$$
=
 OpenBabel10272413163D

 32 35  0  0  1  0  0  0  0  0999 V2000
  185.8150  177.8380  144.0590 C   0  0  0  0  0  3  0  0  0  0  0  0
  185.1260  178.8210  144.7730 C   0  0  0  0  0  0  0  0  0  0  0  0
  186.9270  177.2030  144.6240 C   0  0  0  0  0  0  0  0  0  0  0  0
  187.3590  177.5580  145.9150 C   0  0  0  0  0  0  0  0  0  0  0  0
  186.6540  178.5430  146.6280 C   0  0  0  0  0  3  0  0  0  0  0  0
  185.5400  179.1670  146.0610 C   0  0  0  0  0  3  0  0  0  0  0  0
  187.6560  176.1730  143.8260 C   0  0  0  0  0  2  0  0  0  0  0  0
  188.6340  176.8250  142.9090 C   0  0  0  0  0  0  0  0  0  0  0  0
  192.1900  177.6150  140.2690 C   0  0  0  0  0  2  0  0  0  0  0  0
  189.9050  176.8050  143.1170 N   0  0  0  0  0  0  0  0  0  0  0  0
  189.7290  177.1470  139.7270 C   0  0  0  0  0  2  0  0  0  0  0  0
  189.5160  177.8570  141.0700 C   0  0  1  0  0  3  0  0  0  0  0  0
  188.2600  177.4270  141.6710 N   0  0  0  0  0  2  0  0  0  0  0  0
  190.5210  177.4420  142.0410 N   0  0  0  0  0  0  0  0  0  0  0  0
  191.2010  176.8380  139.4010 C   0  0  0  0  0  2  0  0  0  0  0  0
  191.9390  177.2970  141.7390 C   0  0  0  0  0  2  0  0  0  0  0  0
  188.4780  176.9270  146.4670 O   0  0  0  0  0  0  0  0  0  0  0  0
  189.6200  177.6410  146.9210 C   0  0  0  0  0  2  0  0  0  0  0  0
  190.7250  176.6630  147.2540 C   0  0  0  0  0  2  0  0  0  0  0  0
  191.6920  176.5810  146.0920 C   0  0  0  0  0  1  0  0  0  0  0  0
  183.9110  179.4490  144.1840 C   0  0  0  0  0  2  0  0  0  0  0  0
  183.1720  178.4890  143.4880 O   0  0  0  0  0  0  0  0  0  0  0  0
  182.7690  179.1300  142.3140 C   0  0  0  0  0  2  0  0  0  0  0  0
  182.5240  178.3610  139.8380 C   0  0  2  0  0  0  0  0  0  0  0  0
  184.6450  178.3610  138.4160 C   0  0  0  0  0  2  0  0  0  0  0  0
  181.3760  177.4330  140.1910 C   0  0  0  0  0  1  0  0  0  0  0  0
  184.7840  179.1640  140.7750 C   0  0  0  0  0  2  0  0  0  0  0  0
  183.3020  177.6850  138.6960 C   0  0  0  0  0  2  0  0  0  0  0  0
  183.4370  178.5090  141.0840 C   0  0  1  0  0  3  0  0  0  0  0  0
  185.5000  178.3890  139.6760 C   0  0  0  0  0  2  0  0  0  0  0  0
  181.9150  179.6640  139.3710 C   0  0  0  0  0  3  0  0  0  0  0  0
  180.6480  180.0140  139.6010 C   0  0  0  0  0  2  0  0  0  0  0  0
  1  3  2  0  0  0  0
  1  2  1  0  0  0  0
  2  6  2  0  0  0  0
  3  4  1  0  0  0  0
  4 17  1  0  0  0  0
  4  5  2  0  0  0  0
  6  5  1  0  0  0  0
  7  3  1  0  0  0  0
  8 10  2  0  0  0  0
  8  7  1  0  0  0  0
  9 16  1  0  0  0  0
 12 11  1  6  0  0  0
 12 13  1  0  0  0  0
 12 14  1  0  0  0  0
 13  8  1  0  0  0  0
 14 10  1  0  0  0  0
 15 11  1  0  0  0  0
 15  9  1  0  0  0  0
 16 14  1  0  0  0  0
 17 18  1  0  0  0  0
 18 19  1  0  0  0  0
 20 19  1  0  0  0  0
 21  2  1  0  0  0  0
 22 21  1  0  0  0  0
 23 22  1  0  0  0  0
 24 26  1  1  0  0  0
 24 29  1  0  0  0  0
 25 28  1  0  0  0  0
 25 30  1  0  0  0  0
 27 29  1  0  0  0  0
 28 24  1  0  0  0  0
 29 23  1  1  0  0  0
 30 27  1  0  0  0  0
 31 32  2  0  0  0  0
 31 24  1  0  0  0  0
M  END
>  <MODEL>
5

>  <REMARK>
 VINA RESULT:      -7.4      2.694      8.449
  Name = 
  10 active torsions:
  status: ('A' for Active; 'I' for Inactive)
    1  A    between atoms: C_2  and  C_5
    2  A    between atoms: C_2  and  C_6
    3  A    between atoms: C_3  and  C_22
    4  A    between atoms: C_4  and  C_27
    5  A    between atoms: C_13  and  C_29
    6  A    between atoms: C_14  and  O_18
    7  A    between atoms: C_16  and  C_20
    8  A    between atoms: C_16  and  O_24
    9  A    between atoms: O_18  and  C_29
   10  A    between atoms: O_24  and  C_27
                            x       y       z     vdW  Elec       q    Type
                         _______ _______ _______ _____ _____    ______ ____

>  <TORSDO>
F 10

$$$$
=
 OpenBabel10272413163D

 32 35  0  0  1  0  0  0  0  0999 V2000
  189.3850  178.0250  138.8710 C   0  0  0  0  0  3  0  0  0  0  0  0
  190.4310  177.2740  139.4100 C   0  0  0  0  0  0  0  0  0  0  0  0
  189.1130  177.9780  137.4990 C   0  0  0  0  0  0  0  0  0  0  0  0
  189.8990  177.1740  136.6540 C   0  0  0  0  0  0  0  0  0  0  0  0
  190.9460  176.4160  137.2060 C   0  0  0  0  0  3  0  0  0  0  0  0
  191.2070  176.4620  138.5780 C   0  0  0  0  0  3  0  0  0  0  0  0
  188.0010  178.8110  136.9520 C   0  0  0  0  0  2  0  0  0  0  0  0
  186.6830  178.2630  137.3830 C   0  0  0  0  0  0  0  0  0  0  0  0
  182.3670  177.8920  138.5930 C   0  0  0  0  0  2  0  0  0  0  0  0
  185.9890  178.7840  138.3340 N   0  0  0  0  0  0  0  0  0  0  0  0
  183.5930  177.2790  136.4280 C   0  0  0  0  0  2  0  0  0  0  0  0
  184.7540  177.0370  137.4010 C   0  0  1  0  0  3  0  0  0  0  0  0
  186.0280  177.1890  136.7110 N   0  0  0  0  0  2  0  0  0  0  0  0
  184.7950  178.0720  138.4270 N   0  0  0  0  0  0  0  0  0  0  0  0
  182.3600  177.9430  137.0660 C   0  0  0  0  0  2  0  0  0  0  0  0
  183.6190  178.5820  139.1220 C   0  0  0  0  0  2  0  0  0  0  0  0
  189.6280  177.1410  135.2820 O   0  0  0  0  0  0  0  0  0  0  0  0
  189.6230  175.9380  134.5260 C   0  0  0  0  0  2  0  0  0  0  0  0
  188.2830  175.2520  134.6840 C   0  0  0  0  0  2  0  0  0  0  0  0
  188.4600  173.9830  135.4910 C   0  0  0  0  0  1  0  0  0  0  0  0
  190.6750  177.2880  140.8790 C   0  0  0  0  0  2  0  0  0  0  0  0
  189.6000  176.6950  141.5420 O   0  0  0  0  0  0  0  0  0  0  0  0
  190.1510  176.1550  142.7070 C   0  0  0  0  0  2  0  0  0  0  0  0
  189.9410  177.4590  144.9530 C   0  0  2  0  0  0  0  0  0  0  0  0
  187.5790  178.0470  145.7260 C   0  0  0  0  0  2  0  0  0  0  0  0
  191.2030  176.8160  145.4980 C   0  0  0  0  0  1  0  0  0  0  0  0
  187.8670  176.8720  143.5430 C   0  0  0  0  0  2  0  0  0  0  0  0
  188.9980  177.6650  146.1500 C   0  0  0  0  0  2  0  0  0  0  0  0
  189.2930  176.4840  143.9330 C   0  0  1  0  0  3  0  0  0  0  0  0
  187.0010  176.9920  144.7910 C   0  0  0  0  0  2  0  0  0  0  0  0
  190.3410  178.7880  144.3530 C   0  0  0  0  0  3  0  0  0  0  0  0
  191.6040  179.1340  144.0950 C   0  0  0  0  0  2  0  0  0  0  0  0
  1  2  1  0  0  0  0
  2 21  1  0  0  0  0
  3  1  2  0  0  0  0
  4  5  2  0  0  0  0
  4  3  1  0  0  0  0
  5  6  1  0  0  0  0
  6  2  2  0  0  0  0
  7  8  1  0  0  0  0
  7  3  1  0  0  0  0
  8 10  2  0  0  0  0
  9 16  1  0  0  0  0
 10 14  1  0  0  0  0
 11 15  1  0  0  0  0
 12 11  1  6  0  0  0
 12 14  1  0  0  0  0
 13  8  1  0  0  0  0
 13 12  1  0  0  0  0
 14 16  1  0  0  0  0
 15  9  1  0  0  0  0
 17  4  1  0  0  0  0
 18 19  1  0  0  0  0
 18 17  1  0  0  0  0
 19 20  1  0  0  0  0
 21 22  1  0  0  0  0
 22 23  1  0  0  0  0
 24 26  1  1  0  0  0
 24 28  1  0  0  0  0
 25 28  1  0  0  0  0
 27 29  1  0  0  0  0
 27 30  1  0  0  0  0
 29 23  1  6  0  0  0
 29 24  1  0  0  0  0
 30 25  1  0  0  0  0
 31 24  1  0  0  0  0
 32 31  2  0  0  0  0
M  END
>  <MODEL>
6

>  <REMARK>
 VINA RESULT:      -7.3      2.196      3.472
  Name = 
  10 active torsions:
  status: ('A' for Active; 'I' for Inactive)
    1  A    between atoms: C_2  and  C_5
    2  A    between atoms: C_2  and  C_6
    3  A    between atoms: C_3  and  C_22
    4  A    between atoms: C_4  and  C_27
    5  A    between atoms: C_13  and  C_29
    6  A    between atoms: C_14  and  O_18
    7  A    between atoms: C_16  and  C_20
    8  A    between atoms: C_16  and  O_24
    9  A    between atoms: O_18  and  C_29
   10  A    between atoms: O_24  and  C_27
                            x       y       z     vdW  Elec       q    Type
                         _______ _______ _______ _____ _____    ______ ____

>  <TORSDO>
F 10

$$$$
=
 OpenBabel10272413163D

 32 35  0  0  1  0  0  0  0  0999 V2000
  187.7200  178.3940  141.0440 C   0  0  0  0  0  3  0  0  0  0  0  0
  188.8090  177.5210  141.0890 C   0  0  0  0  0  0  0  0  0  0  0  0
  186.8050  178.4380  142.1020 C   0  0  0  0  0  0  0  0  0  0  0  0
  186.9770  177.5960  143.2150 C   0  0  0  0  0  0  0  0  0  0  0  0
  188.0790  176.7260  143.2550 C   0  0  0  0  0  3  0  0  0  0  0  0
  188.9940  176.6930  142.1990 C   0  0  0  0  0  3  0  0  0  0  0  0
  185.6380  179.3660  142.0130 C   0  0  0  0  0  2  0  0  0  0  0  0
  184.7550  178.9800  140.8770 C   0  0  0  0  0  0  0  0  0  0  0  0
  181.1810  177.7850  138.4190 C   0  0  0  0  0  2  0  0  0  0  0  0
  183.9420  177.9810  140.9330 N   0  0  0  0  0  0  0  0  0  0  0  0
  182.4480  180.0030  138.6270 C   0  0  0  0  0  2  0  0  0  0  0  0
  183.6300  179.0610  138.8880 C   0  0  1  0  0  3  0  0  0  0  0  0
  184.6500  179.7420  139.6760 N   0  0  0  0  0  2  0  0  0  0  0  0
  183.2280  177.9470  139.7370 N   0  0  0  0  0  0  0  0  0  0  0  0
  181.0790  179.3020  138.5790 C   0  0  0  0  0  2  0  0  0  0  0  0
  181.9850  177.2030  139.5760 C   0  0  0  0  0  2  0  0  0  0  0  0
  186.0510  177.6380  144.2630 O   0  0  0  0  0  0  0  0  0  0  0  0
  186.4090  177.9800  145.5950 C   0  0  0  0  0  2  0  0  0  0  0  0
  185.2080  178.5690  146.3030 C   0  0  0  0  0  2  0  0  0  0  0  0
  184.1080  178.8280  145.2960 C   0  0  0  0  0  1  0  0  0  0  0  0
  189.8070  177.5230  139.9840 C   0  0  0  0  0  2  0  0  0  0  0  0
  189.3740  178.3660  138.9580 O   0  0  0  0  0  0  0  0  0  0  0  0
  189.7600  177.7230  137.7790 C   0  0  0  0  0  2  0  0  0  0  0  0
  187.6750  176.4570  136.8660 C   0  0  2  0  0  0  0  0  0  0  0  0
  187.9910  173.9920  136.2740 C   0  0  0  0  0  2  0  0  0  0  0  0
  186.7320  177.3350  137.6670 C   0  0  0  0  0  1  0  0  0  0  0  0
  189.9630  175.2950  137.0760 C   0  0  0  0  0  2  0  0  0  0  0  0
  187.0350  175.0600  136.8080 C   0  0  0  0  0  2  0  0  0  0  0  0
  189.0340  176.3850  137.6120 C   0  0  1  0  0  3  0  0  0  0  0  0
  189.2590  173.9440  137.1170 C   0  0  0  0  0  2  0  0  0  0  0  0
  187.7720  177.0560  135.4810 C   0  0  0  0  0  3  0  0  0  0  0  0
  187.0350  178.0890  135.0670 C   0  0  0  0  0  2  0  0  0  0  0  0
  1  2  2  0  0  0  0
  1  3  1  0  0  0  0
  2  6  1  0  0  0  0
  3  4  2  0  0  0  0
  4  5  1  0  0  0  0
  4 17  1  0  0  0  0
  6  5  2  0  0  0  0
  7  3  1  0  0  0  0
  8 10  2  0  0  0  0
  8  7  1  0  0  0  0
  9 15  1  0  0  0  0
  9 16  1  0  0  0  0
 12 11  1  1  0  0  0
 12 13  1  0  0  0  0
 12 14  1  0  0  0  0
 13  8  1  0  0  0  0
 14 10  1  0  0  0  0
 15 11  1  0  0  0  0
 16 14  1  0  0  0  0
 17 18  1  0  0  0  0
 18 19  1  0  0  0  0
 20 19  1  0  0  0  0
 21  2  1  0  0  0  0
 22 21  1  0  0  0  0
 23 22  1  0  0  0  0
 24 29  1  0  0  0  0
 24 26  1  1  0  0  0
 25 28  1  0  0  0  0
 25 30  1  0  0  0  0
 27 30  1  0  0  0  0
 27 29  1  0  0  0  0
 28 24  1  0  0  0  0
 29 23  1  6  0  0  0
 31 24  1  0  0  0  0
 32 31  2  0  0  0  0
M  END
>  <MODEL>
7

>  <REMARK>
 VINA RESULT:      -7.1      2.203      6.342
  Name = 
  10 active torsions:
  status: ('A' for Active; 'I' for Inactive)
    1  A    between atoms: C_2  and  C_5
    2  A    between atoms: C_2  and  C_6
    3  A    between atoms: C_3  and  C_22
    4  A    between atoms: C_4  and  C_27
    5  A    between atoms: C_13  and  C_29
    6  A    between atoms: C_14  and  O_18
    7  A    between atoms: C_16  and  C_20
    8  A    between atoms: C_16  and  O_24
    9  A    between atoms: O_18  and  C_29
   10  A    between atoms: O_24  and  C_27
                            x       y       z     vdW  Elec       q    Type
                         _______ _______ _______ _____ _____    ______ ____

>  <TORSDO>
F 10

$$$$
=
 OpenBabel10272413163D

 32 35  0  0  1  0  0  0  0  0999 V2000
  187.8080  177.5260  138.5900 C   0  0  0  0  0  3  0  0  0  0  0  0
  189.0680  177.1700  139.0760 C   0  0  0  0  0  0  0  0  0  0  0  0
  187.3550  177.0250  137.3650 C   0  0  0  0  0  0  0  0  0  0  0  0
  188.1730  176.1620  136.6130 C   0  0  0  0  0  0  0  0  0  0  0  0
  189.4360  175.8040  137.1130 C   0  0  0  0  0  3  0  0  0  0  0  0
  189.8790  176.3010  138.3420 C   0  0  0  0  0  3  0  0  0  0  0  0
  186.0120  177.4430  136.8620 C   0  0  0  0  0  2  0  0  0  0  0  0
  185.1920  177.9960  137.9770 C   0  0  0  0  0  0  0  0  0  0  0  0
  182.8030  178.4070  141.7670 C   0  0  0  0  0  2  0  0  0  0  0  0
  184.1250  177.4190  138.4120 N   0  0  0  0  0  0  0  0  0  0  0  0
  185.1740  179.1620  141.1510 C   0  0  0  0  0  2  0  0  0  0  0  0
  184.5470  179.2800  139.7550 C   0  0  1  0  0  3  0  0  0  0  0  0
  185.5740  179.1450  138.7310 N   0  0  0  0  0  2  0  0  0  0  0  0
  183.6520  178.1600  139.4920 N   0  0  0  0  0  0  0  0  0  0  0  0
  184.2670  178.4880  142.1960 C   0  0  0  0  0  2  0  0  0  0  0  0
  182.6960  177.6330  140.4580 C   0  0  0  0  0  2  0  0  0  0  0  0
  187.7170  175.6750  135.3830 O   0  0  0  0  0  0  0  0  0  0  0  0
  187.3620  174.3140  135.1770 C   0  0  0  0  0  2  0  0  0  0  0  0
  186.6480  173.7900  136.4040 C   0  0  0  0  0  2  0  0  0  0  0  0
  187.4140  172.6100  136.9660 C   0  0  0  0  0  1  0  0  0  0  0  0
  189.5160  177.6640  140.4070 C   0  0  0  0  0  2  0  0  0  0  0  0
  188.6520  177.1970  141.4000 O   0  0  0  0  0  0  0  0  0  0  0  0
  189.4900  176.6360  142.3680 C   0  0  0  0  0  2  0  0  0  0  0  0
  189.8050  177.4070  144.8370 C   0  0  2  0  0  0  0  0  0  0  0  0
  187.6920  178.0370  146.1250 C   0  0  0  0  0  2  0  0  0  0  0  0
  191.0350  176.5330  145.0010 C   0  0  0  0  0  1  0  0  0  0  0  0
  187.4800  177.3690  143.7300 C   0  0  0  0  0  2  0  0  0  0  0  0
  189.0930  177.4270  146.1990 C   0  0  0  0  0  2  0  0  0  0  0  0
  188.8820  176.7600  143.7690 C   0  0  1  0  0  3  0  0  0  0  0  0
  186.8390  177.2880  145.1100 C   0  0  0  0  0  2  0  0  0  0  0  0
  190.2880  178.7900  144.4660 C   0  0  0  0  0  3  0  0  0  0  0  0
  191.5420  179.0630  144.0970 C   0  0  0  0  0  2  0  0  0  0  0  0
  1  2  1  0  0  0  0
  2 21  1  0  0  0  0
  3  1  2  0  0  0  0
  4  5  2  0  0  0  0
  4  3  1  0  0  0  0
  5  6  1  0  0  0  0
  6  2  2  0  0  0  0
  7  3  1  0  0  0  0
  7  8  1  0  0  0  0
  8 10  2  0  0  0  0
  8 13  1  0  0  0  0
  9 15  1  0  0  0  0
 10 14  1  0  0  0  0
 11 15  1  0  0  0  0
 12 11  1  1  0  0  0
 13 12  1  0  0  0  0
 14 12  1  0  0  0  0
 14 16  1  0  0  0  0
 16  9  1  0  0  0  0
 17  4  1  0  0  0  0
 18 17  1  0  0  0  0
 18 19  1  0  0  0  0
 19 20  1  0  0  0  0
 21 22  1  0  0  0  0
 22 23  1  0  0  0  0
 24 26  1  1  0  0  0
 24 28  1  0  0  0  0
 25 28  1  0  0  0  0
 27 29  1  0  0  0  0
 27 30  1  0  0  0  0
 29 23  1  6  0  0  0
 29 24  1  0  0  0  0
 30 25  1  0  0  0  0
 31 24  1  0  0  0  0
 32 31  2  0  0  0  0
M  END
>  <MODEL>
8

>  <REMARK>
 VINA RESULT:      -7.0      1.529      2.312
  Name = 
  10 active torsions:
  status: ('A' for Active; 'I' for Inactive)
    1  A    between atoms: C_2  and  C_5
    2  A    between atoms: C_2  and  C_6
    3  A    between atoms: C_3  and  C_22
    4  A    between atoms: C_4  and  C_27
    5  A    between atoms: C_13  and  C_29
    6  A    between atoms: C_14  and  O_18
    7  A    between atoms: C_16  and  C_20
    8  A    between atoms: C_16  and  O_24
    9  A    between atoms: O_18  and  C_29
   10  A    between atoms: O_24  and  C_27
                            x       y       z     vdW  Elec       q    Type
                         _______ _______ _______ _____ _____    ______ ____

>  <TORSDO>
F 10

$$$$
=
 OpenBabel10272413163D

 32 35  0  0  1  0  0  0  0  0999 V2000
  186.1660  177.6920  142.9210 C   0  0  0  0  0  3  0  0  0  0  0  0
  184.9290  178.3220  143.0680 C   0  0  0  0  0  0  0  0  0  0  0  0
  187.0270  177.5580  144.0160 C   0  0  0  0  0  0  0  0  0  0  0  0
  186.6480  178.0640  145.2730 C   0  0  0  0  0  0  0  0  0  0  0  0
  185.3990  178.6910  145.4130 C   0  0  0  0  0  3  0  0  0  0  0  0
  184.5410  178.8140  144.3170 C   0  0  0  0  0  3  0  0  0  0  0  0
  188.3530  176.8990  143.8200 C   0  0  0  0  0  2  0  0  0  0  0  0
  188.9230  177.2690  142.4940 C   0  0  0  0  0  0  0  0  0  0  0  0
  190.2500  177.1500  138.1970 C   0  0  0  0  0  2  0  0  0  0  0  0
  189.7290  176.5030  141.8430 N   0  0  0  0  0  0  0  0  0  0  0  0
  188.2810  178.3210  139.3460 C   0  0  0  0  0  2  0  0  0  0  0  0
  189.2670  178.3690  140.5200 C   0  0  1  0  0  3  0  0  0  0  0  0
  188.5420  178.4440  141.7820 N   0  0  0  0  0  2  0  0  0  0  0  0
  190.0100  177.1190  140.6260 N   0  0  0  0  0  0  0  0  0  0  0  0
  188.7560  177.4700  138.1550 C   0  0  0  0  0  2  0  0  0  0  0  0
  190.5770  176.4060  139.4880 C   0  0  0  0  0  2  0  0  0  0  0  0
  187.5200  177.9370  146.3600 O   0  0  0  0  0  0  0  0  0  0  0  0
  187.1160  178.1740  147.7020 C   0  0  0  0  0  2  0  0  0  0  0  0
  188.3150  178.0430  148.6170 C   0  0  0  0  0  2  0  0  0  0  0  0
  189.5310  177.6600  147.8010 C   0  0  0  0  0  1  0  0  0  0  0  0
  183.9980  178.4090  141.9090 C   0  0  0  0  0  2  0  0  0  0  0  0
  184.4080  179.4300  141.0490 O   0  0  0  0  0  0  0  0  0  0  0  0
  184.6820  178.7890  139.8380 C   0  0  0  0  0  2  0  0  0  0  0  0
  182.9490  177.9650  138.0770 C   0  0  2  0  0  0  0  0  0  0  0  0
  181.0310  179.5560  137.5170 C   0  0  0  0  0  2  0  0  0  0  0  0
  183.9990  177.1330  137.3640 C   0  0  0  0  0  1  0  0  0  0  0  0
  182.6860  180.2390  139.2560 C   0  0  0  0  0  2  0  0  0  0  0  0
  181.9830  178.4780  136.9960 C   0  0  0  0  0  2  0  0  0  0  0  0
  183.6550  179.1640  138.7650 C   0  0  1  0  0  3  0  0  0  0  0  0
  181.8170  180.7220  138.1010 C   0  0  0  0  0  2  0  0  0  0  0  0
  182.2320  177.0460  139.0410 C   0  0  0  0  0  3  0  0  0  0  0  0
  182.5980  175.7840  139.2710 C   0  0  0  0  0  2  0  0  0  0  0  0
  1  2  2  0  0  0  0
  1  3  1  0  0  0  0
  2  6  1  0  0  0  0
  3  4  2  0  0  0  0
  4  5  1  0  0  0  0
  4 17  1  0  0  0  0
  6  5  2  0  0  0  0
  7  3  1  0  0  0  0
  8  7  1  0  0  0  0
  9 16  1  0  0  0  0
 10  8  2  0  0  0  0
 12 11  1  6  0  0  0
 12 14  1  0  0  0  0
 12 13  1  0  0  0  0
 13  8  1  0  0  0  0
 14 10  1  0  0  0  0
 15  9  1  0  0  0  0
 15 11  1  0  0  0  0
 16 14  1  0  0  0  0
 17 18  1  0  0  0  0
 18 19  1  0  0  0  0
 20 19  1  0  0  0  0
 21  2  1  0  0  0  0
 22 21  1  0  0  0  0
 23 22  1  0  0  0  0
 24 26  1  6  0  0  0
 24 29  1  0  0  0  0
 24 31  1  0  0  0  0
 25 30  1  0  0  0  0
 28 25  1  0  0  0  0
 28 24  1  0  0  0  0
 29 27  1  0  0  0  0
 29 23  1  1  0  0  0
 30 27  1  0  0  0  0
 31 32  2  0  0  0  0
M  END
>  <MODEL>
9

>  <REMARK>
 VINA RESULT:      -7.0      2.693      8.403
  Name = 
  10 active torsions:
  status: ('A' for Active; 'I' for Inactive)
    1  A    between atoms: C_2  and  C_5
    2  A    between atoms: C_2  and  C_6
    3  A    between atoms: C_3  and  C_22
    4  A    between atoms: C_4  and  C_27
    5  A    between atoms: C_13  and  C_29
    6  A    between atoms: C_14  and  O_18
    7  A    between atoms: C_16  and  C_20
    8  A    between atoms: C_16  and  O_24
    9  A    between atoms: O_18  and  C_29
   10  A    between atoms: O_24  and  C_27
                            x       y       z     vdW  Elec       q    Type
                         _______ _______ _______ _____ _____    ______ ____

>  <TORSDO>
F 10

$$$$
