=
 OpenBabel10272401383D

 55 59  0  0  1  0  0  0  0  0999 V2000
  188.4320  178.2380  138.3940 C   0  0  0  0  0  3  0  0  0  0  0  0
  188.7990  175.6960  137.2750 C   0  0  0  0  0  0  0  0  0  0  0  0
  187.7440  176.5070  136.8450 C   0  0  0  0  0  3  0  0  0  0  0  0
  189.4950  177.4320  138.8160 C   0  0  0  0  0  3  0  0  0  0  0  0
  187.5520  177.7730  137.4100 C   0  0  0  0  0  0  0  0  0  0  0  0
  189.6740  176.1590  138.2640 C   0  0  0  0  0  3  0  0  0  0  0  0
  188.9360  174.3130  136.7310 C   0  0  0  0  0  2  0  0  0  0  0  0
  189.2550  174.3360  135.2410 C   0  0  0  0  0  2  0  0  0  0  0  0
  188.5000  172.9140  134.3910 S   0  0  0  0  0  0  0  0  0  0  0  0
  190.0020  171.5830  135.0910 S   0  0  0  0  0  0  0  0  0  0  0  0
  191.3430  172.7050  134.5950 C   0  0  0  0  0  2  0  0  0  0  0  0
  192.5790  173.9790  136.8410 C   0  0  0  0  0  1  0  0  0  0  0  0
  193.2120  172.8110  136.1250 C   0  0  0  0  0  0  0  0  0  0  0  0
  192.6080  172.2520  135.1260 N   0  0  0  0  0  0  0  0  0  0  0  0
  197.4170  173.9330  137.0310 C   0  0  2  0  0  3  0  0  0  0  0  0
  195.7080  172.4790  135.6930 C   0  0  1  0  0  3  0  0  0  0  0  0
  194.3410  170.8250  136.6890 F   0  0  0  0  0  0  0  0  0  0  0  0
  198.6020  173.2820  136.6910 O   0  0  0  0  0  1  0  0  0  0  0  0
  196.1180  172.2880  138.4370 O   0  0  0  0  0  0  0  0  0  0  0  0
  196.9400  173.4330  138.4080 C   0  0  2  0  0  3  0  0  0  0  0  0
  194.5100  172.1990  136.6310 C   0  0  2  0  0  0  0  0  0  0  0  0
  195.4080  172.2360  134.3490 O   0  0  0  0  0  1  0  0  0  0  0  0
  194.8270  172.6760  138.0520 C   0  0  0  0  0  2  0  0  0  0  0  0
  196.4240  173.8260  135.8620 C   0  0  1  0  0  3  0  0  0  0  0  0
  195.6200  175.0560  135.5830 C   0  0  0  0  0  0  0  0  0  0  0  0
  195.3830  176.0000  136.5720 O   0  0  0  0  0  1  0  0  0  0  0  0
  195.1590  175.2400  134.4290 O   0  0  0  0  0  0  0  0  0  0  0  0
  197.4380  175.6400  139.2600 O   0  0  0  0  0  1  0  0  0  0  0  0
  196.6940  174.4820  139.4940 C   0  0  0  0  0  2  0  0  0  0  0  0
  186.3950  178.6120  136.9840 C   0  0  0  0  0  2  0  0  0  0  0  0
  185.0990  177.8470  137.2120 C   0  0  0  0  0  2  0  0  0  0  0  0
  180.9170  177.2790  138.4720 C   0  0  0  0  0  2  0  0  0  0  0  0
  179.9840  178.4130  138.8400 C   0  0  0  0  0  2  0  0  0  0  0  0
  182.9960  180.2570  138.9250 C   0  0  0  0  0  3  0  0  0  0  0  0
  182.0700  179.1350  139.2790 C   0  0  1  0  0  3  0  0  0  0  0  0
  180.7360  179.5570  139.1680 O   0  0  0  0  0  0  0  0  0  0  0  0
  182.2670  177.9270  138.3920 C   0  0  1  0  0  3  0  0  0  0  0  0
  185.0760  178.9410  139.5010 C   0  0  2  0  0  3  0  0  0  0  0  0
  184.3290  180.1710  139.0330 C   0  0  0  0  0  3  0  0  0  0  0  0
  183.4130  177.0430  138.9450 C   0  0  2  0  0  3  0  0  0  0  0  0
  184.8120  177.6500  138.7010 C   0  0  1  0  0  3  0  0  0  0  0  0
  186.2710  178.1970  141.5610 C   0  0  0  0  0  3  0  0  0  0  0  0
  185.2840  178.3960  143.7720 C   0  0  0  0  0  0  0  0  0  0  0  0
  184.0510  179.1270  141.8120 C   0  0  0  0  0  3  0  0  0  0  0  0
  184.1320  178.9490  143.1960 C   0  0  0  0  0  3  0  0  0  0  0  0
  186.3520  178.0190  142.9460 C   0  0  0  0  0  3  0  0  0  0  0  0
  185.1240  178.7580  140.9890 C   0  0  0  0  0  0  0  0  0  0  0  0
  185.3800  178.2130  145.2280 C   0  0  0  0  0  0  0  0  0  0  0  0
  186.1730  177.3620  145.7120 O   0  0  0  0  0  0  0  0  0  0  0  0
  184.5960  178.9790  146.0830 O   0  0  0  0  0  1  0  0  0  0  0  0
  183.3980  175.5500  138.5500 C   0  0  1  0  0  3  0  0  0  0  0  0
  182.0840  174.8680  138.8890 C   0  0  0  0  0  1  0  0  0  0  0  0
  183.1950  175.8470  136.0810 O   0  0  0  0  0  0  0  0  0  0  0  0
  184.8100  174.4630  136.9330 O   0  0  0  0  0  1  0  0  0  0  0  0
  183.8450  175.2440  137.1500 C   0  0  0  0  0  0  0  0  0  0  0  0
  1  4  1  0  0  0  0
  2  6  1  0  0  0  0
  3  2  2  0  0  0  0
  3  5  1  0  0  0  0
  5  1  2  0  0  0  0
  6  4  2  0  0  0  0
  7  2  1  0  0  0  0
  8  7  1  0  0  0  0
  9 10  1  0  0  0  0
  9  8  1  0  0  0  0
 11 10  1  0  0  0  0
 11 14  1  0  0  0  0
 13 21  1  0  0  0  0
 13 12  1  0  0  0  0
 14 13  2  0  0  0  0
 15 18  1  6  0  0  0
 15 20  1  0  0  0  0
 16 22  1  6  0  0  0
 16 24  1  0  0  0  0
 16 21  1  0  0  0  0
 20 19  1  0  0  0  0
 20 29  1  6  0  0  0
 21 17  1  1  0  0  0
 21 23  1  0  0  0  0
 23 19  1  0  0  0  0
 24 25  1  1  0  0  0
 24 15  1  0  0  0  0
 25 26  1  0  0  0  0
 27 25  2  0  0  0  0
 28 29  1  0  0  0  0
 30 31  1  0  0  0  0
 30  5  1  0  0  0  0
 32 33  1  0  0  0  0
 33 36  1  0  0  0  0
 34 39  2  0  0  0  0
 35 34  1  6  0  0  0
 36 35  1  0  0  0  0
 37 32  1  1  0  0  0
 37 40  1  0  0  0  0
 37 35  1  0  0  0  0
 38 47  1  1  0  0  0
 39 38  1  0  0  0  0
 40 51  1  6  0  0  0
 41 31  1  6  0  0  0
 41 40  1  0  0  0  0
 41 38  1  0  0  0  0
 42 46  1  0  0  0  0
 43 48  1  0  0  0  0
 44 45  2  0  0  0  0
 45 43  1  0  0  0  0
 46 43  2  0  0  0  0
 47 42  2  0  0  0  0
 47 44  1  0  0  0  0
 48 49  2  0  0  0  0
 48 50  1  0  0  0  0
 51 52  1  6  0  0  0
 53 55  2  0  0  0  0
 54 55  1  0  0  0  0
 55 51  1  0  0  0  0
M  END
>  <MODEL>
1

>  <REMARK>
 VINA RESULT:      -5.5      0.000      0.000
  Name = 
  16 active torsions:
  status: ('A' for Active; 'I' for Inactive)
    1  A    between atoms: C_1  and  C_53
    2  A    between atoms: C_2  and  C_28
    3  A    between atoms: C_2  and  C_44
    4  A    between atoms: C_8  and  N_22
    5  A    between atoms: C_8  and  S_35
    6  A    between atoms: C_10  and  C_32
    7  A    between atoms: C_19  and  C_40
    8  A    between atoms: C_19  and  C_45
    9  A    between atoms: C_20  and  C_42
   10  A    between atoms: C_25  and  C_38
   11  A    between atoms: C_27  and  C_54
   12  A    between atoms: C_28  and  C_49
   13  A    between atoms: C_33  and  C_52
   14  A    between atoms: S_35  and  S_43
   15  A    between atoms: S_43  and  C_51
   16  A    between atoms: C_51  and  C_54
                            x       y       z     vdW  Elec       q    Type
                         _______ _______ _______ _____ _____    ______ ____

>  <TORSDO>
F 16

$$$$
=
 OpenBabel10272401383D

 55 59  0  0  1  0  0  0  0  0999 V2000
  186.8670  177.7970  145.4520 C   0  0  0  0  0  3  0  0  0  0  0  0
  184.2700  178.7810  145.0890 C   0  0  0  0  0  0  0  0  0  0  0  0
  184.9820  178.2610  144.0040 C   0  0  0  0  0  3  0  0  0  0  0  0
  186.1520  178.3070  146.5410 C   0  0  0  0  0  3  0  0  0  0  0  0
  186.2840  177.7770  144.1800 C   0  0  0  0  0  0  0  0  0  0  0  0
  184.8570  178.8070  146.3590 C   0  0  0  0  0  3  0  0  0  0  0  0
  182.9200  179.3770  144.8680 C   0  0  0  0  0  2  0  0  0  0  0  0
  182.3220  178.9130  143.5440 C   0  0  0  0  0  2  0  0  0  0  0  0
  180.5560  178.5180  143.7300 S   0  0  0  0  0  0  0  0  0  0  0  0
  180.0290  179.6400  142.0040 S   0  0  0  0  0  0  0  0  0  0  0  0
  181.6610  179.3900  141.2440 C   0  0  0  0  0  2  0  0  0  0  0  0
  183.5340  177.2970  140.6880 C   0  0  0  0  0  1  0  0  0  0  0  0
  182.3870  177.6220  139.7630 C   0  0  0  0  0  0  0  0  0  0  0  0
  181.5520  178.5650  140.0630 N   0  0  0  0  0  0  0  0  0  0  0  0
  184.4750  176.0760  136.1550 C   0  0  2  0  0  3  0  0  0  0  0  0
  182.5520  177.4920  137.2170 C   0  0  1  0  0  3  0  0  0  0  0  0
  180.7620  176.5500  138.4420 F   0  0  0  0  0  0  0  0  0  0  0  0
  184.0600  176.0710  134.8240 O   0  0  0  0  0  1  0  0  0  0  0  0
  182.7510  174.7250  137.4100 O   0  0  0  0  0  0  0  0  0  0  0  0
  184.0360  174.7630  136.8300 C   0  0  2  0  0  3  0  0  0  0  0  0
  182.1250  176.7810  138.5220 C   0  0  2  0  0  0  0  0  0  0  0  0
  182.1070  178.8160  137.1540 O   0  0  0  0  0  1  0  0  0  0  0  0
  182.8100  175.4150  138.6300 C   0  0  0  0  0  2  0  0  0  0  0  0
  184.0320  177.3900  136.8200 C   0  0  1  0  0  3  0  0  0  0  0  0
  185.0230  178.0070  137.7540 C   0  0  0  0  0  0  0  0  0  0  0  0
  184.8160  179.2690  138.2910 O   0  0  0  0  0  1  0  0  0  0  0  0
  186.0590  177.3650  138.0640 O   0  0  0  0  0  0  0  0  0  0  0  0
  186.3940  174.4280  137.2470 O   0  0  0  0  0  1  0  0  0  0  0  0
  185.1190  173.9200  137.5060 C   0  0  0  0  0  2  0  0  0  0  0  0
  187.0560  177.2710  143.0100 C   0  0  0  0  0  2  0  0  0  0  0  0
  188.0110  176.1760  143.4640 C   0  0  0  0  0  2  0  0  0  0  0  0
  191.3290  178.6100  145.0340 C   0  0  0  0  0  2  0  0  0  0  0  0
  191.5410  180.0700  144.6920 C   0  0  0  0  0  2  0  0  0  0  0  0
  189.1940  179.3450  142.1530 C   0  0  0  0  0  3  0  0  0  0  0  0
  190.4500  179.1580  142.9480 C   0  0  1  0  0  3  0  0  0  0  0  0
  190.8560  180.3820  143.5020 O   0  0  0  0  0  0  0  0  0  0  0  0
  190.2760  178.1570  144.0670 C   0  0  1  0  0  3  0  0  0  0  0  0
  189.1590  176.9530  141.3380 C   0  0  2  0  0  3  0  0  0  0  0  0
  188.6290  178.3670  141.4320 C   0  0  0  0  0  3  0  0  0  0  0  0
  190.4990  176.7200  143.5340 C   0  0  2  0  0  3  0  0  0  0  0  0
  189.3220  176.2060  142.6760 C   0  0  1  0  0  3  0  0  0  0  0  0
  190.0280  176.1580  139.1380 C   0  0  0  0  0  3  0  0  0  0  0  0
  192.3640  176.3890  138.5110 C   0  0  0  0  0  0  0  0  0  0  0  0
  191.5960  177.1720  140.6780 C   0  0  0  0  0  3  0  0  0  0  0  0
  192.6260  176.9870  139.7520 C   0  0  0  0  0  3  0  0  0  0  0  0
  191.0600  175.9740  138.2120 C   0  0  0  0  0  3  0  0  0  0  0  0
  190.2900  176.7640  140.3720 C   0  0  0  0  0  0  0  0  0  0  0  0
  193.4410  176.2000  137.5290 C   0  0  0  0  0  0  0  0  0  0  0  0
  194.0160  177.1960  137.0130 O   0  0  0  0  0  0  0  0  0  0  0  0
  193.8360  174.9190  137.1600 O   0  0  0  0  0  1  0  0  0  0  0  0
  190.9220  175.6490  144.5650 C   0  0  1  0  0  3  0  0  0  0  0  0
  192.1900  174.9170  144.1610 C   0  0  0  0  0  1  0  0  0  0  0  0
  189.7800  176.4220  146.6440 O   0  0  0  0  0  1  0  0  0  0  0  0
  192.0590  176.1880  146.6150 O   0  0  0  0  0  0  0  0  0  0  0  0
  190.9660  176.1050  145.9930 C   0  0  0  0  0  0  0  0  0  0  0  0
  1  4  1  0  0  0  0
  2  6  1  0  0  0  0
  3  5  1  0  0  0  0
  3  2  2  0  0  0  0
  5  1  2  0  0  0  0
  6  4  2  0  0  0  0
  7  2  1  0  0  0  0
  8  9  1  0  0  0  0
  8  7  1  0  0  0  0
 10  9  1  0  0  0  0
 11 10  1  0  0  0  0
 13 14  2  0  0  0  0
 13 12  1  0  0  0  0
 14 11  1  0  0  0  0
 15 18  1  6  0  0  0
 15 24  1  0  0  0  0
 15 20  1  0  0  0  0
 16 22  1  1  0  0  0
 16 21  1  0  0  0  0
 19 23  1  0  0  0  0
 20 19  1  0  0  0  0
 20 29  1  1  0  0  0
 21 17  1  6  0  0  0
 21 23  1  0  0  0  0
 21 13  1  0  0  0  0
 24 16  1  0  0  0  0
 24 25  1  1  0  0  0
 25 27  2  0  0  0  0
 25 26  1  0  0  0  0
 28 29  1  0  0  0  0
 30 31  1  0  0  0  0
 30  5  1  0  0  0  0
 33 32  1  0  0  0  0
 35 34  1  1  0  0  0
 35 36  1  0  0  0  0
 35 37  1  0  0  0  0
 36 33  1  0  0  0  0
 37 32  1  1  0  0  0
 38 47  1  1  0  0  0
 38 39  1  0  0  0  0
 38 41  1  0  0  0  0
 39 34  2  0  0  0  0
 40 37  1  0  0  0  0
 40 51  1  1  0  0  0
 41 31  1  1  0  0  0
 41 40  1  0  0  0  0
 42 47  1  0  0  0  0
 43 45  2  0  0  0  0
 45 44  1  0  0  0  0
 46 43  1  0  0  0  0
 46 42  2  0  0  0  0
 47 44  2  0  0  0  0
 48 43  1  0  0  0  0
 49 48  2  0  0  0  0
 50 48  1  0  0  0  0
 51 52  1  6  0  0  0
 51 55  1  0  0  0  0
 55 54  2  0  0  0  0
 55 53  1  0  0  0  0
M  END
>  <MODEL>
2

>  <REMARK>
 VINA RESULT:      -5.5      4.756     10.947
  Name = 
  16 active torsions:
  status: ('A' for Active; 'I' for Inactive)
    1  A    between atoms: C_1  and  C_53
    2  A    between atoms: C_2  and  C_28
    3  A    between atoms: C_2  and  C_44
    4  A    between atoms: C_8  and  N_22
    5  A    between atoms: C_8  and  S_35
    6  A    between atoms: C_10  and  C_32
    7  A    between atoms: C_19  and  C_40
    8  A    between atoms: C_19  and  C_45
    9  A    between atoms: C_20  and  C_42
   10  A    between atoms: C_25  and  C_38
   11  A    between atoms: C_27  and  C_54
   12  A    between atoms: C_28  and  C_49
   13  A    between atoms: C_33  and  C_52
   14  A    between atoms: S_35  and  S_43
   15  A    between atoms: S_43  and  C_51
   16  A    between atoms: C_51  and  C_54
                            x       y       z     vdW  Elec       q    Type
                         _______ _______ _______ _____ _____    ______ ____

>  <TORSDO>
F 16

$$$$
=
 OpenBabel10272401383D

 55 59  0  0  1  0  0  0  0  0999 V2000
  186.7600  177.6330  145.5050 C   0  0  0  0  0  3  0  0  0  0  0  0
  184.2040  178.7080  145.1100 C   0  0  0  0  0  0  0  0  0  0  0  0
  184.9130  178.1690  144.0330 C   0  0  0  0  0  3  0  0  0  0  0  0
  186.0470  178.1620  146.5860 C   0  0  0  0  0  3  0  0  0  0  0  0
  186.1950  177.6400  144.2240 C   0  0  0  0  0  0  0  0  0  0  0  0
  184.7740  178.7070  146.3890 C   0  0  0  0  0  3  0  0  0  0  0  0
  182.8790  179.3520  144.8740 C   0  0  0  0  0  2  0  0  0  0  0  0
  182.2240  178.8170  143.6050 C   0  0  0  0  0  2  0  0  0  0  0  0
  180.4330  178.5930  143.8410 S   0  0  0  0  0  0  0  0  0  0  0  0
  179.9830  179.4980  141.9720 S   0  0  0  0  0  0  0  0  0  0  0  0
  180.4860  178.0190  141.0420 C   0  0  0  0  0  2  0  0  0  0  0  0
  183.3030  177.9770  140.5320 C   0  0  0  0  0  1  0  0  0  0  0  0
  182.2990  178.4020  139.4890 C   0  0  0  0  0  0  0  0  0  0  0  0
  181.0320  178.3870  139.7560 N   0  0  0  0  0  0  0  0  0  0  0  0
  182.6110  176.5860  135.4430 C   0  0  2  0  0  3  0  0  0  0  0  0
  183.7520  177.7240  137.5000 C   0  0  1  0  0  3  0  0  0  0  0  0
  183.3790  179.9770  138.1160 F   0  0  0  0  0  0  0  0  0  0  0  0
  183.6690  176.6170  134.5360 O   0  0  0  0  0  1  0  0  0  0  0  0
  181.9530  178.9960  135.8030 O   0  0  0  0  0  0  0  0  0  0  0  0
  181.6680  177.7710  135.1640 C   0  0  2  0  0  3  0  0  0  0  0  0
  182.7440  178.7470  138.0760 C   0  0  2  0  0  0  0  0  0  0  0  0
  184.7770  177.4140  138.3990 O   0  0  0  0  0  1  0  0  0  0  0  0
  181.5400  178.8900  137.1390 C   0  0  0  0  0  2  0  0  0  0  0  0
  183.1680  176.4520  136.8700 C   0  0  1  0  0  3  0  0  0  0  0  0
  182.4060  175.5400  137.7770 C   0  0  0  0  0  0  0  0  0  0  0  0
  183.0390  174.8530  138.8040 O   0  0  0  0  0  1  0  0  0  0  0  0
  181.1680  175.4000  137.6120 O   0  0  0  0  0  0  0  0  0  0  0  0
  180.0320  176.1890  134.3480 O   0  0  0  0  0  1  0  0  0  0  0  0
  180.1910  177.4550  134.9140 C   0  0  0  0  0  2  0  0  0  0  0  0
  186.9660  177.1140  143.0620 C   0  0  0  0  0  2  0  0  0  0  0  0
  187.9800  176.0860  143.5450 C   0  0  0  0  0  2  0  0  0  0  0  0
  191.3070  178.5740  145.0070 C   0  0  0  0  0  2  0  0  0  0  0  0
  191.4890  180.0340  144.6520 C   0  0  0  0  0  2  0  0  0  0  0  0
  189.0810  179.2640  142.1840 C   0  0  0  0  0  3  0  0  0  0  0  0
  190.3610  179.0980  142.9440 C   0  0  1  0  0  3  0  0  0  0  0  0
  190.7660  180.3300  143.4800 O   0  0  0  0  0  0  0  0  0  0  0  0
  190.2330  178.1010  144.0730 C   0  0  1  0  0  3  0  0  0  0  0  0
  189.0550  176.8670  141.3830 C   0  0  2  0  0  3  0  0  0  0  0  0
  188.5090  178.2740  141.4860 C   0  0  0  0  0  3  0  0  0  0  0  0
  190.4610  176.6640  143.5420 C   0  0  2  0  0  3  0  0  0  0  0  0
  189.2670  176.1300  142.7200 C   0  0  1  0  0  3  0  0  0  0  0  0
  191.4500  177.1120  140.7290 C   0  0  0  0  0  3  0  0  0  0  0  0
  192.2830  176.3720  138.5700 C   0  0  0  0  0  0  0  0  0  0  0  0
  189.9330  176.1150  139.1280 C   0  0  0  0  0  3  0  0  0  0  0  0
  190.9890  175.9570  138.2260 C   0  0  0  0  0  3  0  0  0  0  0  0
  192.5060  176.9540  139.8260 C   0  0  0  0  0  3  0  0  0  0  0  0
  190.1610  176.6880  140.3870 C   0  0  0  0  0  0  0  0  0  0  0  0
  193.4000  176.2010  137.6290 C   0  0  0  0  0  0  0  0  0  0  0  0
  193.2590  176.5000  136.4130 O   0  0  0  0  0  0  0  0  0  0  0  0
  194.6210  175.7080  138.0730 O   0  0  0  0  0  1  0  0  0  0  0  0
  190.9270  175.6050  144.5650 C   0  0  1  0  0  3  0  0  0  0  0  0
  192.2200  174.9220  144.1520 C   0  0  0  0  0  1  0  0  0  0  0  0
  189.7720  176.3750  146.6380 O   0  0  0  0  0  1  0  0  0  0  0  0
  192.0500  176.1340  146.6260 O   0  0  0  0  0  0  0  0  0  0  0  0
  190.9620  176.0560  145.9960 C   0  0  0  0  0  0  0  0  0  0  0  0
  1  4  1  0  0  0  0
  2  6  1  0  0  0  0
  3  5  1  0  0  0  0
  3  2  2  0  0  0  0
  5  1  2  0  0  0  0
  6  4  2  0  0  0  0
  7  2  1  0  0  0  0
  8  9  1  0  0  0  0
  8  7  1  0  0  0  0
 10  9  1  0  0  0  0
 11 10  1  0  0  0  0
 13 14  2  0  0  0  0
 13 12  1  0  0  0  0
 14 11  1  0  0  0  0
 15 18  1  6  0  0  0
 15 24  1  0  0  0  0
 16 21  1  0  0  0  0
 16 22  1  1  0  0  0
 19 23  1  0  0  0  0
 20 29  1  1  0  0  0
 20 15  1  0  0  0  0
 20 19  1  0  0  0  0
 21 17  1  1  0  0  0
 21 13  1  0  0  0  0
 23 21  1  0  0  0  0
 24 16  1  0  0  0  0
 24 25  1  1  0  0  0
 25 26  1  0  0  0  0
 27 25  2  0  0  0  0
 28 29  1  0  0  0  0
 30 31  1  0  0  0  0
 30  5  1  0  0  0  0
 33 32  1  0  0  0  0
 35 34  1  1  0  0  0
 35 36  1  0  0  0  0
 35 37  1  0  0  0  0
 36 33  1  0  0  0  0
 37 32  1  1  0  0  0
 38 47  1  1  0  0  0
 38 39  1  0  0  0  0
 38 41  1  0  0  0  0
 39 34  2  0  0  0  0
 40 37  1  0  0  0  0
 40 51  1  1  0  0  0
 41 40  1  0  0  0  0
 41 31  1  1  0  0  0
 43 46  1  0  0  0  0
 44 47  2  0  0  0  0
 45 43  2  0  0  0  0
 45 44  1  0  0  0  0
 46 42  2  0  0  0  0
 47 42  1  0  0  0  0
 48 50  1  0  0  0  0
 48 43  1  0  0  0  0
 49 48  2  0  0  0  0
 51 52  1  6  0  0  0
 51 55  1  0  0  0  0
 55 54  2  0  0  0  0
 55 53  1  0  0  0  0
M  END
>  <MODEL>
3

>  <REMARK>
 VINA RESULT:      -4.7      4.809     11.566
  Name = 
  16 active torsions:
  status: ('A' for Active; 'I' for Inactive)
    1  A    between atoms: C_1  and  C_53
    2  A    between atoms: C_2  and  C_28
    3  A    between atoms: C_2  and  C_44
    4  A    between atoms: C_8  and  N_22
    5  A    between atoms: C_8  and  S_35
    6  A    between atoms: C_10  and  C_32
    7  A    between atoms: C_19  and  C_40
    8  A    between atoms: C_19  and  C_45
    9  A    between atoms: C_20  and  C_42
   10  A    between atoms: C_25  and  C_38
   11  A    between atoms: C_27  and  C_54
   12  A    between atoms: C_28  and  C_49
   13  A    between atoms: C_33  and  C_52
   14  A    between atoms: S_35  and  S_43
   15  A    between atoms: S_43  and  C_51
   16  A    between atoms: C_51  and  C_54
                            x       y       z     vdW  Elec       q    Type
                         _______ _______ _______ _____ _____    ______ ____

>  <TORSDO>
F 16

$$$$
=
 OpenBabel10272401383D

 55 59  0  0  1  0  0  0  0  0999 V2000
  188.1570  178.0920  138.9640 C   0  0  0  0  0  3  0  0  0  0  0  0
  188.9840  175.6730  137.8210 C   0  0  0  0  0  0  0  0  0  0  0  0
  187.9600  176.4160  137.2270 C   0  0  0  0  0  3  0  0  0  0  0  0
  189.1900  177.3550  139.5530 C   0  0  0  0  0  3  0  0  0  0  0  0
  187.5370  177.6210  137.8020 C   0  0  0  0  0  0  0  0  0  0  0  0
  189.5980  176.1420  138.9880 C   0  0  0  0  0  3  0  0  0  0  0  0
  189.3600  174.3470  137.2500 C   0  0  0  0  0  2  0  0  0  0  0  0
  189.3560  174.3810  135.7260 C   0  0  0  0  0  2  0  0  0  0  0  0
  189.2650  172.7000  135.0360 S   0  0  0  0  0  0  0  0  0  0  0  0
  191.3450  172.6670  134.6030 S   0  0  0  0  0  0  0  0  0  0  0  0
  191.5660  174.3920  135.1300 C   0  0  0  0  0  2  0  0  0  0  0  0
  192.8850  174.7120  137.6500 C   0  0  0  0  0  1  0  0  0  0  0  0
  193.6000  174.8960  136.3340 C   0  0  0  0  0  0  0  0  0  0  0  0
  192.9700  174.7220  135.2180 N   0  0  0  0  0  0  0  0  0  0  0  0
  197.5020  172.8450  136.9100 C   0  0  2  0  0  3  0  0  0  0  0  0
  195.8230  174.7300  137.5830 C   0  0  1  0  0  3  0  0  0  0  0  0
  195.2690  176.5470  136.1740 F   0  0  0  0  0  0  0  0  0  0  0  0
  198.6240  173.2580  137.6270 O   0  0  0  0  0  1  0  0  0  0  0  0
  197.1430  174.6060  135.1380 O   0  0  0  0  0  0  0  0  0  0  0  0
  197.6300  173.3200  135.4510 C   0  0  2  0  0  3  0  0  0  0  0  0
  195.0950  175.1780  136.2940 C   0  0  2  0  0  0  0  0  0  0  0  0
  195.1620  175.1390  138.7450 O   0  0  0  0  0  1  0  0  0  0  0  0
  195.7440  174.5300  135.0670 C   0  0  0  0  0  2  0  0  0  0  0  0
  196.2320  173.2530  137.6740 C   0  0  1  0  0  3  0  0  0  0  0  0
  195.1260  172.2470  137.6720 C   0  0  0  0  0  0  0  0  0  0  0  0
  194.5790  171.7760  138.8570 O   0  0  0  0  0  1  0  0  0  0  0  0
  194.6780  171.8270  136.5750 O   0  0  0  0  0  0  0  0  0  0  0  0
  196.7380  171.1820  134.7590 O   0  0  0  0  0  1  0  0  0  0  0  0
  197.5240  172.2600  134.3510 C   0  0  0  0  0  2  0  0  0  0  0  0
  186.4090  178.3830  137.1920 C   0  0  0  0  0  2  0  0  0  0  0  0
  185.1110  177.6110  137.3810 C   0  0  0  0  0  2  0  0  0  0  0  0
  180.8080  177.5970  138.3250 C   0  0  0  0  0  2  0  0  0  0  0  0
  179.9860  178.8500  138.5390 C   0  0  0  0  0  2  0  0  0  0  0  0
  183.1740  180.3570  138.7500 C   0  0  0  0  0  3  0  0  0  0  0  0
  182.1020  179.3720  139.1000 C   0  0  1  0  0  3  0  0  0  0  0  0
  180.8380  179.9270  138.8510 O   0  0  0  0  0  0  0  0  0  0  0  0
  182.2260  178.0860  138.3150 C   0  0  1  0  0  3  0  0  0  0  0  0
  185.0410  178.8710  139.5830 C   0  0  2  0  0  3  0  0  0  0  0  0
  184.4760  180.1350  138.9740 C   0  0  0  0  0  3  0  0  0  0  0  0
  183.2190  177.1280  139.0180 C   0  0  2  0  0  3  0  0  0  0  0  0
  184.6930  177.5600  138.8520 C   0  0  1  0  0  3  0  0  0  0  0  0
  183.6960  178.6830  141.6760 C   0  0  0  0  0  3  0  0  0  0  0  0
  184.7260  178.6400  143.8760 C   0  0  0  0  0  0  0  0  0  0  0  0
  186.1010  178.8430  141.8850 C   0  0  0  0  0  3  0  0  0  0  0  0
  185.9870  178.7630  143.2750 C   0  0  0  0  0  3  0  0  0  0  0  0
  183.5810  178.6030  143.0680 C   0  0  0  0  0  3  0  0  0  0  0  0
  184.9560  178.7960  141.0780 C   0  0  0  0  0  0  0  0  0  0  0  0
  184.5980  178.5470  145.3380 C   0  0  0  0  0  0  0  0  0  0  0  0
  183.6590  179.1390  145.9340 O   0  0  0  0  0  0  0  0  0  0  0  0
  185.5130  177.8050  146.0750 O   0  0  0  0  0  1  0  0  0  0  0  0
  183.0630  175.6200  138.7240 C   0  0  1  0  0  3  0  0  0  0  0  0
  181.7970  175.0340  139.3250 C   0  0  0  0  0  1  0  0  0  0  0  0
  184.5090  174.8660  136.8350 O   0  0  0  0  0  1  0  0  0  0  0  0
  182.2640  175.1740  136.4990 O   0  0  0  0  0  0  0  0  0  0  0  0
  183.2430  175.2160  137.2900 C   0  0  0  0  0  0  0  0  0  0  0  0
  1  4  1  0  0  0  0
  2  6  1  0  0  0  0
  3  5  1  0  0  0  0
  3  2  2  0  0  0  0
  5  1  2  0  0  0  0
  6  4  2  0  0  0  0
  7  2  1  0  0  0  0
  8  7  1  0  0  0  0
  9  8  1  0  0  0  0
 10  9  1  0  0  0  0
 10 11  1  0  0  0  0
 11 14  1  0  0  0  0
 13 12  1  0  0  0  0
 14 13  2  0  0  0  0
 15 18  1  1  0  0  0
 15 24  1  0  0  0  0
 16 24  1  0  0  0  0
 16 22  1  1  0  0  0
 19 20  1  0  0  0  0
 20 29  1  6  0  0  0
 20 15  1  0  0  0  0
 21 17  1  6  0  0  0
 21 13  1  0  0  0  0
 21 16  1  0  0  0  0
 23 19  1  0  0  0  0
 23 21  1  0  0  0  0
 24 25  1  6  0  0  0
 25 26  1  0  0  0  0
 27 25  2  0  0  0  0
 29 28  1  0  0  0  0
 30 31  1  0  0  0  0
 30  5  1  0  0  0  0
 32 33  1  0  0  0  0
 33 36  1  0  0  0  0
 34 39  2  0  0  0  0
 35 34  1  6  0  0  0
 36 35  1  0  0  0  0
 37 32  1  1  0  0  0
 37 40  1  0  0  0  0
 37 35  1  0  0  0  0
 38 47  1  1  0  0  0
 39 38  1  0  0  0  0
 40 51  1  6  0  0  0
 41 31  1  6  0  0  0
 41 40  1  0  0  0  0
 41 38  1  0  0  0  0
 42 46  1  0  0  0  0
 43 48  1  0  0  0  0
 44 45  2  0  0  0  0
 45 43  1  0  0  0  0
 46 43  2  0  0  0  0
 47 42  2  0  0  0  0
 47 44  1  0  0  0  0
 48 49  2  0  0  0  0
 48 50  1  0  0  0  0
 51 52  1  6  0  0  0
 53 55  1  0  0  0  0
 54 55  2  0  0  0  0
 55 51  1  0  0  0  0
M  END
>  <MODEL>
4

>  <REMARK>
 VINA RESULT:      -4.4      1.359      2.416
  Name = 
  16 active torsions:
  status: ('A' for Active; 'I' for Inactive)
    1  A    between atoms: C_1  and  C_53
    2  A    between atoms: C_2  and  C_28
    3  A    between atoms: C_2  and  C_44
    4  A    between atoms: C_8  and  N_22
    5  A    between atoms: C_8  and  S_35
    6  A    between atoms: C_10  and  C_32
    7  A    between atoms: C_19  and  C_40
    8  A    between atoms: C_19  and  C_45
    9  A    between atoms: C_20  and  C_42
   10  A    between atoms: C_25  and  C_38
   11  A    between atoms: C_27  and  C_54
   12  A    between atoms: C_28  and  C_49
   13  A    between atoms: C_33  and  C_52
   14  A    between atoms: S_35  and  S_43
   15  A    between atoms: S_43  and  C_51
   16  A    between atoms: C_51  and  C_54
                            x       y       z     vdW  Elec       q    Type
                         _______ _______ _______ _____ _____    ______ ____

>  <TORSDO>
F 16

$$$$
=
 OpenBabel10272401383D

 55 59  0  0  1  0  0  0  0  0999 V2000
  187.6160  178.6640  143.0930 C   0  0  0  0  0  3  0  0  0  0  0  0
  188.5990  177.6480  140.6750 C   0  0  0  0  0  0  0  0  0  0  0  0
  187.2650  178.0530  140.7750 C   0  0  0  0  0  3  0  0  0  0  0  0
  188.9550  178.2690  142.9900 C   0  0  0  0  0  3  0  0  0  0  0  0
  186.7680  178.5520  141.9850 C   0  0  0  0  0  0  0  0  0  0  0  0
  189.4440  177.7540  141.7850 C   0  0  0  0  0  3  0  0  0  0  0  0
  189.0900  177.0320  139.4070 C   0  0  0  0  0  2  0  0  0  0  0  0
  190.4620  176.3960  139.5990 C   0  0  0  0  0  2  0  0  0  0  0  0
  191.5230  176.6870  138.1490 S   0  0  0  0  0  0  0  0  0  0  0  0
  191.6020  174.6160  137.6780 S   0  0  0  0  0  0  0  0  0  0  0  0
  193.0050  174.8430  136.5450 C   0  0  0  0  0  2  0  0  0  0  0  0
  195.3700  174.3620  135.0050 C   0  0  0  0  0  1  0  0  0  0  0  0
  195.3170  174.1390  136.4970 C   0  0  0  0  0  0  0  0  0  0  0  0
  194.2330  174.3880  137.1570 N   0  0  0  0  0  0  0  0  0  0  0  0
  198.0430  170.6660  137.0170 C   0  0  2  0  0  3  0  0  0  0  0  0
  196.3770  172.4000  138.0390 C   0  0  1  0  0  3  0  0  0  0  0  0
  196.8380  174.7140  138.1980 F   0  0  0  0  0  0  0  0  0  0  0  0
  198.5500  170.1030  138.1880 O   0  0  0  0  0  1  0  0  0  0  0  0
  198.8710  173.0500  136.9950 O   0  0  0  0  0  0  0  0  0  0  0  0
  199.0230  171.7370  136.5030 C   0  0  2  0  0  3  0  0  0  0  0  0
  196.5640  173.7260  137.2660 C   0  0  2  0  0  0  0  0  0  0  0  0
  195.1800  172.3600  138.7610 O   0  0  0  0  0  1  0  0  0  0  0  0
  197.7780  173.6320  136.3370 C   0  0  0  0  0  2  0  0  0  0  0  0
  196.5870  171.0990  137.2510 C   0  0  1  0  0  3  0  0  0  0  0  0
  195.6460  170.8400  136.1170 C   0  0  0  0  0  0  0  0  0  0  0  0
  196.1000  170.7700  134.8080 O   0  0  0  0  0  0  0  0  0  0  0  0
  194.4230  170.6750  136.3570 O   0  0  0  0  0  1  0  0  0  0  0  0
  198.7880  170.6560  134.3530 O   0  0  0  0  0  1  0  0  0  0  0  0
  199.5320  171.5970  135.0660 C   0  0  0  0  0  2  0  0  0  0  0  0
  185.3310  178.9340  142.1010 C   0  0  0  0  0  2  0  0  0  0  0  0
  184.4990  178.0850  141.1500 C   0  0  0  0  0  2  0  0  0  0  0  0
  180.6090  176.1320  140.4770 C   0  0  0  0  0  2  0  0  0  0  0  0
  180.2560  175.3630  139.2220 C   0  0  0  0  0  2  0  0  0  0  0  0
  183.1490  176.9610  137.9760 C   0  0  0  0  0  3  0  0  0  0  0  0
  181.8010  176.8860  138.6230 C   0  0  1  0  0  3  0  0  0  0  0  0
  181.1140  175.7470  138.1740 O   0  0  0  0  0  0  0  0  0  0  0  0
  181.8910  176.8300  140.1310 C   0  0  1  0  0  3  0  0  0  0  0  0
  183.7030  179.1980  139.0130 C   0  0  2  0  0  3  0  0  0  0  0  0
  183.9870  177.9930  138.1440 C   0  0  0  0  0  3  0  0  0  0  0  0
  181.9950  178.2620  140.7110 C   0  0  2  0  0  3  0  0  0  0  0  0
  183.3850  178.9000  140.4920 C   0  0  1  0  0  3  0  0  0  0  0  0
  182.9440  181.5670  138.8200 C   0  0  0  0  0  3  0  0  0  0  0  0
  181.2350  182.2520  137.2360 C   0  0  0  0  0  0  0  0  0  0  0  0
  181.9090  179.9230  137.3770 C   0  0  0  0  0  3  0  0  0  0  0  0
  181.1160  180.9230  136.8060 C   0  0  0  0  0  3  0  0  0  0  0  0
  182.1510  182.5670  138.2480 C   0  0  0  0  0  3  0  0  0  0  0  0
  182.8310  180.2420  138.3830 C   0  0  0  0  0  0  0  0  0  0  0  0
  180.4100  183.3100  136.6330 C   0  0  0  0  0  0  0  0  0  0  0  0
  180.0260  183.2140  135.4370 O   0  0  0  0  0  0  0  0  0  0  0  0
  180.0470  184.4250  137.3780 O   0  0  0  0  0  1  0  0  0  0  0  0
  181.5370  178.4600  142.1730 C   0  0  1  0  0  3  0  0  0  0  0  0
  182.6770  178.3260  143.1670 C   0  0  0  0  0  1  0  0  0  0  0  0
  180.0010  180.2610  141.3850 O   0  0  0  0  0  0  0  0  0  0  0  0
  180.6250  180.1790  143.5870 O   0  0  0  0  0  1  0  0  0  0  0  0
  180.7060  179.6820  142.4330 C   0  0  0  0  0  0  0  0  0  0  0  0
  2  3  2  0  0  0  0
  2  6  1  0  0  0  0
  3  5  1  0  0  0  0
  4  1  1  0  0  0  0
  5 30  1  0  0  0  0
  5  1  2  0  0  0  0
  6  4  2  0  0  0  0
  7  8  1  0  0  0  0
  7  2  1  0  0  0  0
  9  8  1  0  0  0  0
 10  9  1  0  0  0  0
 11 14  1  0  0  0  0
 11 10  1  0  0  0  0
 12 13  1  0  0  0  0
 13 14  2  0  0  0  0
 13 21  1  0  0  0  0
 15 24  1  0  0  0  0
 15 18  1  1  0  0  0
 16 22  1  6  0  0  0
 20 29  1  6  0  0  0
 20 19  1  0  0  0  0
 20 15  1  0  0  0  0
 21 16  1  0  0  0  0
 21 17  1  1  0  0  0
 23 19  1  0  0  0  0
 23 21  1  0  0  0  0
 24 25  1  6  0  0  0
 24 16  1  0  0  0  0
 25 27  1  0  0  0  0
 26 25  2  0  0  0  0
 28 29  1  0  0  0  0
 31 30  1  0  0  0  0
 33 32  1  0  0  0  0
 34 39  2  0  0  0  0
 35 34  1  6  0  0  0
 35 37  1  0  0  0  0
 36 35  1  0  0  0  0
 36 33  1  0  0  0  0
 37 32  1  1  0  0  0
 37 40  1  0  0  0  0
 38 47  1  6  0  0  0
 38 41  1  0  0  0  0
 39 38  1  0  0  0  0
 40 51  1  1  0  0  0
 41 40  1  0  0  0  0
 41 31  1  6  0  0  0
 43 46  1  0  0  0  0
 44 47  2  0  0  0  0
 45 43  2  0  0  0  0
 45 44  1  0  0  0  0
 46 42  2  0  0  0  0
 47 42  1  0  0  0  0
 48 43  1  0  0  0  0
 48 50  1  0  0  0  0
 49 48  2  0  0  0  0
 51 55  1  0  0  0  0
 51 52  1  1  0  0  0
 53 55  2  0  0  0  0
 55 54  1  0  0  0  0
M  END
>  <MODEL>
5

>  <REMARK>
 VINA RESULT:      -4.1      2.653      5.391
  Name = 
  16 active torsions:
  status: ('A' for Active; 'I' for Inactive)
    1  A    between atoms: C_1  and  C_53
    2  A    between atoms: C_2  and  C_28
    3  A    between atoms: C_2  and  C_44
    4  A    between atoms: C_8  and  N_22
    5  A    between atoms: C_8  and  S_35
    6  A    between atoms: C_10  and  C_32
    7  A    between atoms: C_19  and  C_40
    8  A    between atoms: C_19  and  C_45
    9  A    between atoms: C_20  and  C_42
   10  A    between atoms: C_25  and  C_38
   11  A    between atoms: C_27  and  C_54
   12  A    between atoms: C_28  and  C_49
   13  A    between atoms: C_33  and  C_52
   14  A    between atoms: S_35  and  S_43
   15  A    between atoms: S_43  and  C_51
   16  A    between atoms: C_51  and  C_54
                            x       y       z     vdW  Elec       q    Type
                         _______ _______ _______ _____ _____    ______ ____

>  <TORSDO>
F 16

$$$$
=
 OpenBabel10272401383D

 55 59  0  0  1  0  0  0  0  0999 V2000
  181.9040  178.1370  138.7460 C   0  0  0  0  0  3  0  0  0  0  0  0
  181.9030  178.6820  141.4930 C   0  0  0  0  0  0  0  0  0  0  0  0
  182.9360  177.9300  140.9280 C   0  0  0  0  0  3  0  0  0  0  0  0
  180.8760  178.9010  139.3090 C   0  0  0  0  0  3  0  0  0  0  0  0
  182.9340  177.6460  139.5560 C   0  0  0  0  0  0  0  0  0  0  0  0
  180.8700  179.1660  140.6830 C   0  0  0  0  0  3  0  0  0  0  0  0
  181.8690  178.8970  142.9690 C   0  0  0  0  0  2  0  0  0  0  0  0
  183.1030  178.3050  143.6410 C   0  0  0  0  0  2  0  0  0  0  0  0
  184.5900  179.2760  143.2430 S   0  0  0  0  0  0  0  0  0  0  0  0
  185.2030  179.3400  145.2770 S   0  0  0  0  0  0  0  0  0  0  0  0
  186.5320  178.1320  145.0000 C   0  0  0  0  0  2  0  0  0  0  0  0
  187.4820  176.4300  142.9030 C   0  0  0  0  0  1  0  0  0  0  0  0
  187.9210  177.8670  143.0390 C   0  0  0  0  0  0  0  0  0  0  0  0
  187.4510  178.6070  143.9920 N   0  0  0  0  0  0  0  0  0  0  0  0
  191.7830  177.1540  140.9570 C   0  0  2  0  0  3  0  0  0  0  0  0
  190.2920  178.6490  142.4950 C   0  0  1  0  0  3  0  0  0  0  0  0
  188.3560  179.7780  141.7360 F   0  0  0  0  0  0  0  0  0  0  0  0
  192.8420  178.0320  140.7250 O   0  0  0  0  0  1  0  0  0  0  0  0
  189.7870  178.1780  139.8010 O   0  0  0  0  0  0  0  0  0  0  0  0
  190.8090  177.2080  139.7650 C   0  0  2  0  0  3  0  0  0  0  0  0
  188.8330  178.5040  142.0010 C   0  0  2  0  0  0  0  0  0  0  0  0
  190.3730  179.1870  143.7830 O   0  0  0  0  0  1  0  0  0  0  0  0
  188.7950  177.7240  140.6830 C   0  0  0  0  0  2  0  0  0  0  0  0
  191.2000  177.4190  142.3540 C   0  0  1  0  0  3  0  0  0  0  0  0
  190.8120  176.2030  143.1330 C   0  0  0  0  0  0  0  0  0  0  0  0
  190.8580  176.1930  144.5200 O   0  0  0  0  0  1  0  0  0  0  0  0
  190.4280  175.1750  142.5190 O   0  0  0  0  0  0  0  0  0  0  0  0
  190.0510  176.1050  137.7520 O   0  0  0  0  0  1  0  0  0  0  0  0
  190.4790  175.8880  139.0630 C   0  0  0  0  0  2  0  0  0  0  0  0
  184.0110  176.7990  138.9680 C   0  0  0  0  0  2  0  0  0  0  0  0
  184.1710  177.1290  137.4910 C   0  0  0  0  0  2  0  0  0  0  0  0
  181.3670  175.8440  134.3460 C   0  0  0  0  0  2  0  0  0  0  0  0
  180.2190  174.8840  134.5790 C   0  0  0  0  0  2  0  0  0  0  0  0
  181.9470  174.2650  137.5970 C   0  0  0  0  0  3  0  0  0  0  0  0
  181.7880  174.3850  136.1130 C   0  0  1  0  0  3  0  0  0  0  0  0
  180.4550  174.1380  135.7490 O   0  0  0  0  0  0  0  0  0  0  0  0
  182.1810  175.7530  135.6030 C   0  0  1  0  0  3  0  0  0  0  0  0
  184.4500  174.6070  137.5220 C   0  0  2  0  0  3  0  0  0  0  0  0
  183.1310  174.3540  138.2180 C   0  0  0  0  0  3  0  0  0  0  0  0
  183.7090  175.8110  135.3600 C   0  0  2  0  0  3  0  0  0  0  0  0
  184.5250  175.8880  136.6690 C   0  0  1  0  0  3  0  0  0  0  0  0
  184.2750  172.5520  136.1180 C   0  0  0  0  0  3  0  0  0  0  0  0
  186.1870  171.1210  135.6770 C   0  0  0  0  0  0  0  0  0  0  0  0
  186.4330  173.0960  137.0690 C   0  0  0  0  0  3  0  0  0  0  0  0
  186.9850  171.9640  136.4620 C   0  0  0  0  0  3  0  0  0  0  0  0
  184.8280  171.4200  135.5110 C   0  0  0  0  0  3  0  0  0  0  0  0
  185.0750  173.3980  136.8940 C   0  0  0  0  0  0  0  0  0  0  0  0
  186.7630  169.9330  135.0290 C   0  0  0  0  0  0  0  0  0  0  0  0
  187.9490  169.9530  134.6030 O   0  0  0  0  0  0  0  0  0  0  0  0
  186.0060  168.7780  134.8820 O   0  0  0  0  0  1  0  0  0  0  0  0
  184.2160  176.8610  134.3460 C   0  0  1  0  0  3  0  0  0  0  0  0
  183.4240  178.1560  134.3990 C   0  0  0  0  0  1  0  0  0  0  0  0
  186.5660  176.0240  134.3460 O   0  0  0  0  0  0  0  0  0  0  0  0
  186.1600  178.2780  134.3470 O   0  0  0  0  0  1  0  0  0  0  0  0
  185.6960  177.1070  134.3520 C   0  0  0  0  0  0  0  0  0  0  0  0
  1  4  2  0  0  0  0
  1  5  1  0  0  0  0
  2  7  1  0  0  0  0
  3  2  1  0  0  0  0
  4  6  1  0  0  0  0
  5  3  2  0  0  0  0
  6  2  2  0  0  0  0
  7  8  1  0  0  0  0
  9  8  1  0  0  0  0
  9 10  1  0  0  0  0
 11 10  1  0  0  0  0
 12 13  1  0  0  0  0
 13 14  2  0  0  0  0
 14 11  1  0  0  0  0
 15 18  1  6  0  0  0
 15 24  1  0  0  0  0
 16 22  1  1  0  0  0
 19 23  1  0  0  0  0
 20 29  1  1  0  0  0
 20 19  1  0  0  0  0
 20 15  1  0  0  0  0
 21 17  1  6  0  0  0
 21 16  1  0  0  0  0
 21 13  1  0  0  0  0
 23 21  1  0  0  0  0
 24 16  1  0  0  0  0
 24 25  1  6  0  0  0
 25 26  1  0  0  0  0
 27 25  2  0  0  0  0
 28 29  1  0  0  0  0
 30  5  1  0  0  0  0
 31 30  1  0  0  0  0
 32 33  1  0  0  0  0
 33 36  1  0  0  0  0
 34 39  2  0  0  0  0
 35 34  1  1  0  0  0
 36 35  1  0  0  0  0
 37 32  1  6  0  0  0
 37 35  1  0  0  0  0
 38 47  1  6  0  0  0
 38 39  1  0  0  0  0
 40 51  1  6  0  0  0
 40 37  1  0  0  0  0
 40 41  1  0  0  0  0
 41 31  1  1  0  0  0
 41 38  1  0  0  0  0
 42 47  1  0  0  0  0
 43 45  2  0  0  0  0
 45 44  1  0  0  0  0
 46 43  1  0  0  0  0
 46 42  2  0  0  0  0
 47 44  2  0  0  0  0
 48 43  1  0  0  0  0
 49 48  2  0  0  0  0
 50 48  1  0  0  0  0
 51 55  1  0  0  0  0
 51 52  1  1  0  0  0
 53 55  2  0  0  0  0
 54 55  1  0  0  0  0
M  END
>  <MODEL>
6

>  <REMARK>
 VINA RESULT:      -4.1      5.220      8.662
  Name = 
  16 active torsions:
  status: ('A' for Active; 'I' for Inactive)
    1  A    between atoms: C_1  and  C_53
    2  A    between atoms: C_2  and  C_28
    3  A    between atoms: C_2  and  C_44
    4  A    between atoms: C_8  and  N_22
    5  A    between atoms: C_8  and  S_35
    6  A    between atoms: C_10  and  C_32
    7  A    between atoms: C_19  and  C_40
    8  A    between atoms: C_19  and  C_45
    9  A    between atoms: C_20  and  C_42
   10  A    between atoms: C_25  and  C_38
   11  A    between atoms: C_27  and  C_54
   12  A    between atoms: C_28  and  C_49
   13  A    between atoms: C_33  and  C_52
   14  A    between atoms: S_35  and  S_43
   15  A    between atoms: S_43  and  C_51
   16  A    between atoms: C_51  and  C_54
                            x       y       z     vdW  Elec       q    Type
                         _______ _______ _______ _____ _____    ______ ____

>  <TORSDO>
F 16

$$$$
=
 OpenBabel10272401383D

 55 59  0  0  1  0  0  0  0  0999 V2000
  186.4100  178.0550  144.8340 C   0  0  0  0  0  3  0  0  0  0  0  0
  183.9770  178.9210  143.7490 C   0  0  0  0  0  0  0  0  0  0  0  0
  184.8450  178.1330  142.9870 C   0  0  0  0  0  3  0  0  0  0  0  0
  185.5380  178.8340  145.6020 C   0  0  0  0  0  3  0  0  0  0  0  0
  186.0660  177.7070  143.5230 C   0  0  0  0  0  0  0  0  0  0  0  0
  184.3260  179.2740  145.0580 C   0  0  0  0  0  3  0  0  0  0  0  0
  182.7230  179.4440  143.1340 C   0  0  0  0  0  2  0  0  0  0  0  0
  181.5240  178.5790  143.5050 C   0  0  0  0  0  2  0  0  0  0  0  0
  180.3320  178.4930  142.1330 S   0  0  0  0  0  0  0  0  0  0  0  0
  181.8750  178.4790  140.6720 S   0  0  0  0  0  0  0  0  0  0  0  0
  180.6950  178.6820  139.3050 C   0  0  0  0  0  2  0  0  0  0  0  0
  180.0060  179.2020  136.5750 C   0  0  0  0  0  1  0  0  0  0  0  0
  180.6480  177.9090  137.0140 C   0  0  0  0  0  0  0  0  0  0  0  0
  180.9610  177.7230  138.2560 N   0  0  0  0  0  0  0  0  0  0  0  0
  183.9020  175.0060  136.1520 C   0  0  2  0  0  3  0  0  0  0  0  0
  182.4630  177.0630  135.4280 C   0  0  1  0  0  3  0  0  0  0  0  0
  180.1540  176.9290  134.9330 F   0  0  0  0  0  0  0  0  0  0  0  0
  184.5570  174.7380  134.9500 O   0  0  0  0  0  1  0  0  0  0  0  0
  181.4690  174.4830  135.7300 O   0  0  0  0  0  0  0  0  0  0  0  0
  182.6920  174.0630  136.2920 C   0  0  2  0  0  3  0  0  0  0  0  0
  181.0400  176.8490  135.9950 C   0  0  2  0  0  0  0  0  0  0  0  0
  182.6970  178.3870  135.0450 O   0  0  0  0  0  1  0  0  0  0  0  0
  180.9100  175.4420  136.5870 C   0  0  0  0  0  2  0  0  0  0  0  0
  183.6320  176.5150  136.2580 C   0  0  1  0  0  3  0  0  0  0  0  0
  183.8320  177.1130  137.6150 C   0  0  0  0  0  0  0  0  0  0  0  0
  184.3380  178.3960  137.7680 O   0  0  0  0  0  0  0  0  0  0  0  0
  183.5280  176.4420  138.6340 O   0  0  0  0  0  1  0  0  0  0  0  0
  183.2530  171.9790  137.3820 O   0  0  0  0  0  1  0  0  0  0  0  0
  182.6080  173.2040  137.5560 C   0  0  0  0  0  2  0  0  0  0  0  0
  187.0100  176.9100  142.6870 C   0  0  0  0  0  2  0  0  0  0  0  0
  188.1190  176.3480  143.5650 C   0  0  0  0  0  2  0  0  0  0  0  0
  191.3870  178.7960  145.2180 C   0  0  0  0  0  2  0  0  0  0  0  0
  191.6320  180.2420  144.8430 C   0  0  0  0  0  2  0  0  0  0  0  0
  189.3980  179.4650  142.2180 C   0  0  0  0  0  3  0  0  0  0  0  0
  190.6130  179.2890  143.0770 C   0  0  1  0  0  3  0  0  0  0  0  0
  191.0070  180.5250  143.6130 O   0  0  0  0  0  0  0  0  0  0  0  0
  190.3760  178.3240  144.2160 C   0  0  1  0  0  3  0  0  0  0  0  0
  189.3740  177.0500  141.4740 C   0  0  2  0  0  3  0  0  0  0  0  0
  188.8570  178.4710  141.5010 C   0  0  0  0  0  3  0  0  0  0  0  0
  190.6070  176.8690  143.7370 C   0  0  2  0  0  3  0  0  0  0  0  0
  189.4660  176.3420  142.8400 C   0  0  1  0  0  3  0  0  0  0  0  0
  190.3350  176.1900  139.3380 C   0  0  0  0  0  3  0  0  0  0  0  0
  192.7010  176.3700  138.8200 C   0  0  0  0  0  0  0  0  0  0  0  0
  191.8440  177.2150  140.9290 C   0  0  0  0  0  3  0  0  0  0  0  0
  192.9140  176.9920  140.0580 C   0  0  0  0  0  3  0  0  0  0  0  0
  191.4060  175.9680  138.4670 C   0  0  0  0  0  3  0  0  0  0  0  0
  190.5480  176.8200  140.5690 C   0  0  0  0  0  0  0  0  0  0  0  0
  193.8220  176.1400  137.8950 C   0  0  0  0  0  0  0  0  0  0  0  0
  194.0350  176.9380  136.9430 O   0  0  0  0  0  0  0  0  0  0  0  0
  194.6550  175.0410  138.0640 O   0  0  0  0  0  1  0  0  0  0  0  0
  190.9690  175.8260  144.8180 C   0  0  1  0  0  3  0  0  0  0  0  0
  192.2150  175.0300  144.4690 C   0  0  0  0  0  1  0  0  0  0  0  0
  189.8150  176.4810  146.9310 O   0  0  0  0  0  1  0  0  0  0  0  0
  192.0970  176.6230  146.7870 O   0  0  0  0  0  0  0  0  0  0  0  0
  191.0050  176.3380  146.2280 C   0  0  0  0  0  0  0  0  0  0  0  0
  1  4  1  0  0  0  0
  2  6  1  0  0  0  0
  3  5  1  0  0  0  0
  3  2  2  0  0  0  0
  5  1  2  0  0  0  0
  6  4  2  0  0  0  0
  7  8  1  0  0  0  0
  7  2  1  0  0  0  0
  9  8  1  0  0  0  0
 10  9  1  0  0  0  0
 11 10  1  0  0  0  0
 12 13  1  0  0  0  0
 13 14  2  0  0  0  0
 14 11  1  0  0  0  0
 15 18  1  6  0  0  0
 15 24  1  0  0  0  0
 15 20  1  0  0  0  0
 16 22  1  1  0  0  0
 16 21  1  0  0  0  0
 16 24  1  0  0  0  0
 19 20  1  0  0  0  0
 19 23  1  0  0  0  0
 20 29  1  1  0  0  0
 21 17  1  6  0  0  0
 21 23  1  0  0  0  0
 21 13  1  0  0  0  0
 24 25  1  1  0  0  0
 25 26  2  0  0  0  0
 25 27  1  0  0  0  0
 28 29  1  0  0  0  0
 30  5  1  0  0  0  0
 30 31  1  0  0  0  0
 33 32  1  0  0  0  0
 35 34  1  1  0  0  0
 35 36  1  0  0  0  0
 35 37  1  0  0  0  0
 36 33  1  0  0  0  0
 37 32  1  1  0  0  0
 38 47  1  1  0  0  0
 38 39  1  0  0  0  0
 38 41  1  0  0  0  0
 39 34  2  0  0  0  0
 40 37  1  0  0  0  0
 40 51  1  1  0  0  0
 41 31  1  1  0  0  0
 41 40  1  0  0  0  0
 42 47  1  0  0  0  0
 43 45  2  0  0  0  0
 45 44  1  0  0  0  0
 46 43  1  0  0  0  0
 46 42  2  0  0  0  0
 47 44  2  0  0  0  0
 48 50  1  0  0  0  0
 48 43  1  0  0  0  0
 49 48  2  0  0  0  0
 51 52  1  6  0  0  0
 51 55  1  0  0  0  0
 55 54  2  0  0  0  0
 55 53  1  0  0  0  0
M  END
>  <MODEL>
7

>  <REMARK>
 VINA RESULT:      -3.3      4.709     11.246
  Name = 
  16 active torsions:
  status: ('A' for Active; 'I' for Inactive)
    1  A    between atoms: C_1  and  C_53
    2  A    between atoms: C_2  and  C_28
    3  A    between atoms: C_2  and  C_44
    4  A    between atoms: C_8  and  N_22
    5  A    between atoms: C_8  and  S_35
    6  A    between atoms: C_10  and  C_32
    7  A    between atoms: C_19  and  C_40
    8  A    between atoms: C_19  and  C_45
    9  A    between atoms: C_20  and  C_42
   10  A    between atoms: C_25  and  C_38
   11  A    between atoms: C_27  and  C_54
   12  A    between atoms: C_28  and  C_49
   13  A    between atoms: C_33  and  C_52
   14  A    between atoms: S_35  and  S_43
   15  A    between atoms: S_43  and  C_51
   16  A    between atoms: C_51  and  C_54
                            x       y       z     vdW  Elec       q    Type
                         _______ _______ _______ _____ _____    ______ ____

>  <TORSDO>
F 16

$$$$
=
 OpenBabel10272401383D

 55 59  0  0  1  0  0  0  0  0999 V2000
  191.5490  177.7290  142.0320 C   0  0  0  0  0  3  0  0  0  0  0  0
  189.8660  177.1850  144.2040 C   0  0  0  0  0  0  0  0  0  0  0  0
  189.7000  176.4980  142.9980 C   0  0  0  0  0  3  0  0  0  0  0  0
  191.7240  178.4090  143.2430 C   0  0  0  0  0  3  0  0  0  0  0  0
  190.5330  176.7750  141.9070 C   0  0  0  0  0  0  0  0  0  0  0  0
  190.8780  178.1440  144.3260 C   0  0  0  0  0  3  0  0  0  0  0  0
  188.9130  176.9460  145.3270 C   0  0  0  0  0  2  0  0  0  0  0  0
  189.5750  177.2050  146.6760 C   0  0  0  0  0  2  0  0  0  0  0  0
  188.3940  177.9380  147.8510 S   0  0  0  0  0  0  0  0  0  0  0  0
  186.7360  177.5070  146.5940 S   0  0  0  0  0  0  0  0  0  0  0  0
  186.0040  179.1500  146.8580 C   0  0  0  0  0  2  0  0  0  0  0  0
  183.7970  177.7050  145.7450 C   0  0  0  0  0  1  0  0  0  0  0  0
  184.3340  178.9690  145.1190 C   0  0  0  0  0  0  0  0  0  0  0  0
  185.3220  179.6010  145.6660 N   0  0  0  0  0  0  0  0  0  0  0  0
  184.4860  178.8460  140.6780 C   0  0  2  0  0  3  0  0  0  0  0  0
  184.6670  180.2000  142.9050 C   0  0  1  0  0  3  0  0  0  0  0  0
  182.8310  180.6020  144.3400 F   0  0  0  0  0  0  0  0  0  0  0  0
  184.4800  179.8970  139.7610 O   0  0  0  0  0  1  0  0  0  0  0  0
  182.3200  179.0500  141.9570 O   0  0  0  0  0  0  0  0  0  0  0  0
  183.0380  178.3910  140.9380 C   0  0  2  0  0  3  0  0  0  0  0  0
  183.6580  179.5820  143.9010 C   0  0  2  0  0  0  0  0  0  0  0  0
  185.6230  181.0030  143.5350 O   0  0  0  0  0  1  0  0  0  0  0  0
  182.7720  178.5550  143.1890 C   0  0  0  0  0  2  0  0  0  0  0  0
  185.3280  179.2450  141.9010 C   0  0  1  0  0  3  0  0  0  0  0  0
  186.1940  178.1660  142.4680 C   0  0  0  0  0  0  0  0  0  0  0  0
  185.6700  176.9270  142.8070 O   0  0  0  0  0  1  0  0  0  0  0  0
  187.4220  178.3840  142.6300 O   0  0  0  0  0  0  0  0  0  0  0  0
  182.1730  176.6990  139.4430 O   0  0  0  0  0  1  0  0  0  0  0  0
  182.7110  176.9130  140.7130 C   0  0  0  0  0  2  0  0  0  0  0  0
  190.3180  176.0760  140.6080 C   0  0  0  0  0  2  0  0  0  0  0  0
  189.6520  177.0260  139.6220 C   0  0  0  0  0  2  0  0  0  0  0  0
  190.9890  176.5760  135.4490 C   0  0  0  0  0  2  0  0  0  0  0  0
  190.6920  177.5780  134.3540 C   0  0  0  0  0  2  0  0  0  0  0  0
  188.3700  178.7920  136.7240 C   0  0  0  0  0  3  0  0  0  0  0  0
  189.0270  177.7620  135.8570 C   0  0  1  0  0  3  0  0  0  0  0  0
  189.5900  178.3730  134.7260 O   0  0  0  0  0  0  0  0  0  0  0  0
  190.1130  177.0060  136.5880 C   0  0  1  0  0  3  0  0  0  0  0  0
  187.4590  177.0830  138.3470 C   0  0  2  0  0  3  0  0  0  0  0  0
  187.6670  178.4860  137.8230 C   0  0  0  0  0  3  0  0  0  0  0  0
  189.4980  175.8260  137.3790 C   0  0  2  0  0  3  0  0  0  0  0  0
  188.7400  176.2800  138.6460 C   0  0  1  0  0  3  0  0  0  0  0  0
  186.6650  175.0120  137.2040 C   0  0  0  0  0  3  0  0  0  0  0  0
  184.3950  174.7850  136.3700 C   0  0  0  0  0  0  0  0  0  0  0  0
  185.0990  176.8390  137.4560 C   0  0  0  0  0  3  0  0  0  0  0  0
  184.1120  176.0830  136.8170 C   0  0  0  0  0  3  0  0  0  0  0  0
  185.6770  174.2550  136.5650 C   0  0  0  0  0  3  0  0  0  0  0  0
  186.3780  176.3040  137.6580 C   0  0  0  0  0  0  0  0  0  0  0  0
  183.3590  173.9800  135.7040 C   0  0  0  0  0  0  0  0  0  0  0  0
  183.6500  172.8670  135.1910 O   0  0  0  0  0  0  0  0  0  0  0  0
  182.0490  174.4410  135.6370 O   0  0  0  0  0  1  0  0  0  0  0  0
  190.4340  174.6410  137.7080 C   0  0  1  0  0  3  0  0  0  0  0  0
  190.0340  173.3630  136.9900 C   0  0  0  0  0  1  0  0  0  0  0  0
  192.4380  176.0410  138.2040 O   0  0  0  0  0  1  0  0  0  0  0  0
  192.6580  174.1440  136.9390 O   0  0  0  0  0  0  0  0  0  0  0  0
  191.9030  174.9190  137.5830 C   0  0  0  0  0  0  0  0  0  0  0  0
  1  4  1  0  0  0  0
  2  6  1  0  0  0  0
  2  7  1  0  0  0  0
  3  2  2  0  0  0  0
  4  6  2  0  0  0  0
  5  1  2  0  0  0  0
  5  3  1  0  0  0  0
  7  8  1  0  0  0  0
  8  9  1  0  0  0  0
 10 11  1  0  0  0  0
 10  9  1  0  0  0  0
 13 14  2  0  0  0  0
 13 12  1  0  0  0  0
 14 11  1  0  0  0  0
 15 18  1  6  0  0  0
 15 20  1  0  0  0  0
 15 24  1  0  0  0  0
 16 22  1  1  0  0  0
 16 21  1  0  0  0  0
 19 23  1  0  0  0  0
 20 29  1  1  0  0  0
 20 19  1  0  0  0  0
 21 17  1  1  0  0  0
 21 13  1  0  0  0  0
 23 21  1  0  0  0  0
 24 25  1  1  0  0  0
 24 16  1  0  0  0  0
 25 27  2  0  0  0  0
 25 26  1  0  0  0  0
 28 29  1  0  0  0  0
 30  5  1  0  0  0  0
 31 30  1  0  0  0  0
 33 36  1  0  0  0  0
 33 32  1  0  0  0  0
 34 39  2  0  0  0  0
 35 37  1  0  0  0  0
 35 34  1  1  0  0  0
 36 35  1  0  0  0  0
 37 32  1  6  0  0  0
 37 40  1  0  0  0  0
 38 47  1  6  0  0  0
 38 41  1  0  0  0  0
 39 38  1  0  0  0  0
 40 51  1  1  0  0  0
 40 41  1  0  0  0  0
 41 31  1  1  0  0  0
 42 47  1  0  0  0  0
 43 46  1  0  0  0  0
 43 45  2  0  0  0  0
 44 47  2  0  0  0  0
 45 44  1  0  0  0  0
 46 42  2  0  0  0  0
 48 43  1  0  0  0  0
 49 48  2  0  0  0  0
 50 48  1  0  0  0  0
 51 52  1  6  0  0  0
 54 55  2  0  0  0  0
 55 51  1  0  0  0  0
 55 53  1  0  0  0  0
M  END
>  <MODEL>
8

>  <REMARK>
 VINA RESULT:      -2.8      4.880     10.814
  Name = 
  16 active torsions:
  status: ('A' for Active; 'I' for Inactive)
    1  A    between atoms: C_1  and  C_53
    2  A    between atoms: C_2  and  C_28
    3  A    between atoms: C_2  and  C_44
    4  A    between atoms: C_8  and  N_22
    5  A    between atoms: C_8  and  S_35
    6  A    between atoms: C_10  and  C_32
    7  A    between atoms: C_19  and  C_40
    8  A    between atoms: C_19  and  C_45
    9  A    between atoms: C_20  and  C_42
   10  A    between atoms: C_25  and  C_38
   11  A    between atoms: C_27  and  C_54
   12  A    between atoms: C_28  and  C_49
   13  A    between atoms: C_33  and  C_52
   14  A    between atoms: S_35  and  S_43
   15  A    between atoms: S_43  and  C_51
   16  A    between atoms: C_51  and  C_54
                            x       y       z     vdW  Elec       q    Type
                         _______ _______ _______ _____ _____    ______ ____

>  <TORSDO>
F 16

$$$$
