=
 OpenBabel10272413333D

 32 35  0  0  1  0  0  0  0  0999 V2000
  186.9770  178.7380  141.8550 C   0  0  1  0  0  3  0  0  0  0  0  0
  183.3900  178.8780  145.2520 C   0  0  0  0  0  3  0  0  0  0  0  0
  182.4750  179.1330  144.2290 C   0  0  0  0  0  3  0  0  0  0  0  0
  189.1900  177.7390  142.6080 C   0  0  2  0  0  3  0  0  0  0  0  0
  186.9850  176.9140  143.6240 C   0  0  0  0  0  2  0  0  0  0  0  0
  188.5600  175.4010  142.6630 O   0  0  0  0  0  1  0  0  0  0  0  0
  184.7290  178.6280  144.9440 C   0  0  0  0  0  3  0  0  0  0  0  0
  186.6120  178.3680  143.3120 C   0  0  2  0  0  3  0  0  0  0  0  0
  185.1610  178.6240  143.6110 C   0  0  0  0  0  0  0  0  0  0  0  0
  184.7130  178.9470  141.1330 C   0  0  1  0  0  3  0  0  0  0  0  0
  188.4670  176.6070  143.3640 C   0  0  1  0  0  3  0  0  0  0  0  0
  182.8970  179.1350  142.8970 C   0  0  0  0  0  3  0  0  0  0  0  0
  184.2350  178.8600  142.5710 C   0  0  0  0  0  0  0  0  0  0  0  0
  188.3580  178.2210  141.4230 C   0  0  0  0  0  2  0  0  0  0  0  0
  185.9680  178.2190  140.9350 N   0  0  0  0  0  2  0  0  0  0  0  0
  182.1630  176.7140  139.3980 C   0  0  0  0  0  0  0  0  0  0  0  0
  181.7530  177.5310  138.3430 C   0  0  0  0  0  3  0  0  0  0  0  0
  183.2620  179.2730  139.0940 C   0  0  0  0  0  0  0  0  0  0  0  0
  181.8870  179.5950  137.1650 F   0  0  0  0  0  0  0  0  0  0  0  0
  182.2960  178.8090  138.1910 C   0  0  0  0  0  0  0  0  0  0  0  0
  183.1270  177.1730  140.3010 C   0  0  0  0  0  3  0  0  0  0  0  0
  181.6440  175.4710  139.5350 F   0  0  0  0  0  0  0  0  0  0  0  0
  183.7930  180.5490  138.9390 O   0  0  0  0  0  1  0  0  0  0  0  0
  183.6840  178.4520  140.1530 C   0  0  0  0  0  0  0  0  0  0  0  0
  190.5820  177.3220  142.1540 C   0  0  0  0  0  2  0  0  0  0  0  0
  191.8280  175.6650  143.9070 S   0  0  0  0  0  1  0  0  0  0  0  0
  191.5610  177.3800  143.3260 C   0  0  2  0  0  3  0  0  0  0  0  0
  191.8510  179.4360  144.4700 C   0  0  0  0  0  1  0  0  0  0  0  0
  191.0330  178.2290  144.4020 N   0  0  0  0  0  0  0  0  0  0  0  0
  191.2480  177.5500  145.6770 C   0  0  0  0  0  2  0  0  0  0  0  0
  189.9710  177.5580  146.5000 C   0  0  0  0  0  2  0  0  0  0  0  0
  189.9540  176.4650  147.3680 O   0  0  0  0  0  1  0  0  0  0  0  0
  1 14  1  6  0  0  0
  1  8  1  0  0  0  0
  3  2  2  0  0  0  0
  4 25  1  6  0  0  0
  4 11  1  0  0  0  0
  7  2  1  0  0  0  0
  8  9  1  0  0  0  0
  8  5  1  6  0  0  0
  9  7  2  0  0  0  0
 10 24  1  6  0  0  0
 10 13  1  0  0  0  0
 11  6  1  6  0  0  0
 11  5  1  0  0  0  0
 12  3  1  0  0  0  0
 13 12  2  0  0  0  0
 13  9  1  0  0  0  0
 14  4  1  0  0  0  0
 15 10  1  0  0  0  0
 15  1  1  0  0  0  0
 16 22  1  0  0  0  0
 16 21  1  0  0  0  0
 17 16  2  0  0  0  0
 18 24  1  0  0  0  0
 19 20  1  0  0  0  0
 20 17  1  0  0  0  0
 20 18  2  0  0  0  0
 23 18  1  0  0  0  0
 24 21  2  0  0  0  0
 25 27  1  0  0  0  0
 27 26  1  1  0  0  0
 27 29  1  0  0  0  0
 29 28  1  0  0  0  0
 29 30  1  0  0  0  0
 30 31  1  0  0  0  0
 31 32  1  0  0  0  0
M  END
>  <MODEL>
1

>  <REMARK>
 VINA RESULT:      -7.9      0.000      0.000
  Name = 
  6 active torsions:
  status: ('A' for Active; 'I' for Inactive)
    1  A    between atoms: C_1  and  C_10
    2  A    between atoms: C_8  and  C_23
    3  A    between atoms: C_10  and  N_24
    4  A    between atoms: C_16  and  C_32
    5  A    between atoms: C_19  and  C_23
    6  A    between atoms: C_19  and  N_24
                            x       y       z     vdW  Elec       q    Type
                         _______ _______ _______ _____ _____    ______ ____

>  <TORSDO>
F 6

$$$$
=
 OpenBabel10272413333D

 32 35  0  0  1  0  0  0  0  0999 V2000
  186.3320  178.8980  141.9190 C   0  0  1  0  0  3  0  0  0  0  0  0
  182.0920  178.8270  144.4580 C   0  0  0  0  0  3  0  0  0  0  0  0
  181.4040  178.9510  143.2490 C   0  0  0  0  0  3  0  0  0  0  0  0
  188.4050  178.1480  143.1860 C   0  0  2  0  0  3  0  0  0  0  0  0
  186.1100  177.1550  143.7550 C   0  0  0  0  0  2  0  0  0  0  0  0
  187.9810  175.7650  143.2440 O   0  0  0  0  0  1  0  0  0  0  0  0
  183.4820  178.6950  144.4580 C   0  0  0  0  0  3  0  0  0  0  0  0
  185.6920  178.5530  143.2840 C   0  0  2  0  0  3  0  0  0  0  0  0
  184.1930  178.6800  143.2500 C   0  0  0  0  0  0  0  0  0  0  0  0
  184.2700  178.8590  140.7200 C   0  0  1  0  0  3  0  0  0  0  0  0
  187.6340  176.9830  143.8360 C   0  0  1  0  0  3  0  0  0  0  0  0
  182.1040  178.9410  142.0410 C   0  0  0  0  0  3  0  0  0  0  0  0
  183.5000  178.7840  142.0250 C   0  0  0  0  0  0  0  0  0  0  0  0
  187.8130  178.5000  141.8240 C   0  0  0  0  0  2  0  0  0  0  0  0
  185.5960  178.2490  140.8370 N   0  0  0  0  0  2  0  0  0  0  0  0
  182.7290  176.2430  138.4230 C   0  0  0  0  0  0  0  0  0  0  0  0
  182.1250  177.0470  137.4530 C   0  0  0  0  0  3  0  0  0  0  0  0
  182.9110  179.0330  138.6000 C   0  0  0  0  0  0  0  0  0  0  0  0
  181.6170  179.2090  136.5970 F   0  0  0  0  0  0  0  0  0  0  0  0
  182.2110  178.4390  137.5420 C   0  0  0  0  0  0  0  0  0  0  0  0
  183.4280  176.8320  139.4800 C   0  0  0  0  0  3  0  0  0  0  0  0
  182.6540  174.8940  138.3270 F   0  0  0  0  0  0  0  0  0  0  0  0
  182.9860  180.4190  138.6840 O   0  0  0  0  0  1  0  0  0  0  0  0
  183.5260  178.2280  139.5730 C   0  0  0  0  0  0  0  0  0  0  0  0
  189.8930  177.8500  143.0650 C   0  0  0  0  0  2  0  0  0  0  0  0
  191.5380  179.7230  144.1410 S   0  0  0  0  0  1  0  0  0  0  0  0
  190.6050  178.1650  144.3790 C   0  0  2  0  0  3  0  0  0  0  0  0
  191.4420  176.0490  143.7150 C   0  0  0  0  0  1  0  0  0  0  0  0
  191.4990  177.0640  144.7620 N   0  0  0  0  0  0  0  0  0  0  0  0
  190.9540  176.4160  145.9520 C   0  0  0  0  0  2  0  0  0  0  0  0
  192.0780  175.9250  146.8470 C   0  0  0  0  0  2  0  0  0  0  0  0
  192.2040  176.7590  147.9600 O   0  0  0  0  0  1  0  0  0  0  0  0
  1 14  1  1  0  0  0
  1  8  1  0  0  0  0
  2  7  1  0  0  0  0
  3  2  2  0  0  0  0
  4 25  1  6  0  0  0
  4 11  1  0  0  0  0
  5 11  1  0  0  0  0
  8  5  1  6  0  0  0
  9  8  1  0  0  0  0
  9  7  2  0  0  0  0
 10 24  1  6  0  0  0
 10 15  1  0  0  0  0
 10 13  1  0  0  0  0
 11  6  1  6  0  0  0
 12  3  1  0  0  0  0
 13 12  2  0  0  0  0
 13  9  1  0  0  0  0
 14  4  1  0  0  0  0
 15  1  1  0  0  0  0
 16 21  1  0  0  0  0
 17 20  1  0  0  0  0
 17 16  2  0  0  0  0
 18 23  1  0  0  0  0
 18 24  1  0  0  0  0
 19 20  1  0  0  0  0
 20 18  2  0  0  0  0
 21 24  2  0  0  0  0
 22 16  1  0  0  0  0
 25 27  1  0  0  0  0
 27 26  1  6  0  0  0
 27 29  1  0  0  0  0
 28 29  1  0  0  0  0
 29 30  1  0  0  0  0
 30 31  1  0  0  0  0
 31 32  1  0  0  0  0
M  END
>  <MODEL>
2

>  <REMARK>
 VINA RESULT:      -7.8      1.312      1.518
  Name = 
  6 active torsions:
  status: ('A' for Active; 'I' for Inactive)
    1  A    between atoms: C_1  and  C_10
    2  A    between atoms: C_8  and  C_23
    3  A    between atoms: C_10  and  N_24
    4  A    between atoms: C_16  and  C_32
    5  A    between atoms: C_19  and  C_23
    6  A    between atoms: C_19  and  N_24
                            x       y       z     vdW  Elec       q    Type
                         _______ _______ _______ _____ _____    ______ ____

>  <TORSDO>
F 6

$$$$
=
 OpenBabel10272413333D

 32 35  0  0  1  0  0  0  0  0999 V2000
  186.0690  177.4000  143.8000 C   0  0  1  0  0  3  0  0  0  0  0  0
  187.8100  177.7220  148.4140 C   0  0  0  0  0  3  0  0  0  0  0  0
  189.0730  177.3820  147.9270 C   0  0  0  0  0  3  0  0  0  0  0  0
  183.7730  178.4160  143.3990 C   0  0  2  0  0  3  0  0  0  0  0  0
  185.3330  179.4030  145.1790 C   0  0  0  0  0  2  0  0  0  0  0  0
  184.3710  180.7610  143.4680 O   0  0  0  0  0  1  0  0  0  0  0  0
  186.7460  177.9020  147.5280 C   0  0  0  0  0  3  0  0  0  0  0  0
  185.7700  177.9350  145.2210 C   0  0  2  0  0  3  0  0  0  0  0  0
  186.9390  177.7500  146.1480 C   0  0  0  0  0  0  0  0  0  0  0  0
  188.4150  177.1740  144.1660 C   0  0  1  0  0  3  0  0  0  0  0  0
  184.1200  179.6410  144.2670 C   0  0  1  0  0  3  0  0  0  0  0  0
  189.2750  177.2250  146.5540 C   0  0  0  0  0  3  0  0  0  0  0  0
  188.2200  177.4280  145.6490 C   0  0  0  0  0  0  0  0  0  0  0  0
  185.0270  177.8310  142.7560 C   0  0  0  0  0  2  0  0  0  0  0  0
  187.3900  177.8420  143.3620 N   0  0  0  0  0  2  0  0  0  0  0  0
  191.7650  178.9670  143.9240 C   0  0  0  0  0  0  0  0  0  0  0  0
  192.3310  178.3470  142.8070 C   0  0  0  0  0  3  0  0  0  0  0  0
  190.3570  176.9610  142.5670 C   0  0  0  0  0  0  0  0  0  0  0  0
  192.1940  176.7470  141.0520 F   0  0  0  0  0  0  0  0  0  0  0  0
  191.6320  177.3440  142.1320 C   0  0  0  0  0  0  0  0  0  0  0  0
  190.4930  178.5880  144.3610 C   0  0  0  0  0  3  0  0  0  0  0  0
  192.4400  179.9480  144.5690 F   0  0  0  0  0  0  0  0  0  0  0  0
  189.6710  175.9570  141.8920 O   0  0  0  0  0  1  0  0  0  0  0  0
  189.7810  177.5870  143.6850 C   0  0  0  0  0  0  0  0  0  0  0  0
  182.7290  178.7440  142.3410 C   0  0  0  0  0  2  0  0  0  0  0  0
  183.8050  179.3110  139.9140 S   0  0  0  0  0  1  0  0  0  0  0  0
  183.0730  178.0520  141.0240 C   0  0  2  0  0  3  0  0  0  0  0  0
  182.2900  176.2840  139.6510 C   0  0  0  0  0  1  0  0  0  0  0  0
  181.8740  177.4500  140.4250 N   0  0  0  0  0  0  0  0  0  0  0  0
  181.3270  178.3830  139.4440 C   0  0  0  0  0  2  0  0  0  0  0  0
  179.9830  178.9140  139.9130 C   0  0  0  0  0  2  0  0  0  0  0  0
  180.1160  180.2310  140.3560 O   0  0  0  0  0  1  0  0  0  0  0  0
  1 14  1  6  0  0  0
  1  8  1  0  0  0  0
  3  2  1  0  0  0  0
  4 25  1  6  0  0  0
  4 11  1  0  0  0  0
  7  2  2  0  0  0  0
  8  5  1  6  0  0  0
  8  9  1  0  0  0  0
  9  7  1  0  0  0  0
 10 24  1  6  0  0  0
 10 13  1  0  0  0  0
 11  6  1  6  0  0  0
 11  5  1  0  0  0  0
 12  3  2  0  0  0  0
 13  9  2  0  0  0  0
 13 12  1  0  0  0  0
 14  4  1  0  0  0  0
 15  1  1  0  0  0  0
 15 10  1  0  0  0  0
 16 21  1  0  0  0  0
 16 22  1  0  0  0  0
 17 16  2  0  0  0  0
 18 24  1  0  0  0  0
 19 20  1  0  0  0  0
 20 18  2  0  0  0  0
 20 17  1  0  0  0  0
 23 18  1  0  0  0  0
 24 21  2  0  0  0  0
 27 26  1  6  0  0  0
 27 25  1  0  0  0  0
 28 29  1  0  0  0  0
 29 27  1  0  0  0  0
 30 31  1  0  0  0  0
 30 29  1  0  0  0  0
 31 32  1  0  0  0  0
M  END
>  <MODEL>
3

>  <REMARK>
 VINA RESULT:      -7.3      3.944      8.251
  Name = 
  6 active torsions:
  status: ('A' for Active; 'I' for Inactive)
    1  A    between atoms: C_1  and  C_10
    2  A    between atoms: C_8  and  C_23
    3  A    between atoms: C_10  and  N_24
    4  A    between atoms: C_16  and  C_32
    5  A    between atoms: C_19  and  C_23
    6  A    between atoms: C_19  and  N_24
                            x       y       z     vdW  Elec       q    Type
                         _______ _______ _______ _____ _____    ______ ____

>  <TORSDO>
F 6

$$$$
=
 OpenBabel10272413333D

 32 35  0  0  1  0  0  0  0  0999 V2000
  183.9390  179.3870  139.8300 C   0  0  1  0  0  3  0  0  0  0  0  0
  188.4090  177.8750  138.3620 C   0  0  0  0  0  3  0  0  0  0  0  0
  188.8620  178.0490  139.6710 C   0  0  0  0  0  3  0  0  0  0  0  0
  182.0210  178.9270  138.2260 C   0  0  2  0  0  3  0  0  0  0  0  0
  184.0330  177.3410  138.3270 C   0  0  0  0  0  2  0  0  0  0  0  0
  181.7980  176.5400  138.5640 O   0  0  0  0  0  1  0  0  0  0  0  0
  187.0610  178.0730  138.0590 C   0  0  0  0  0  3  0  0  0  0  0  0
  184.7120  178.6630  138.7030 C   0  0  2  0  0  3  0  0  0  0  0  0
  186.1550  178.4410  139.0630 C   0  0  0  0  0  0  0  0  0  0  0  0
  185.6480  179.0820  141.4660 C   0  0  1  0  0  3  0  0  0  0  0  0
  182.5630  177.5170  137.9200 C   0  0  1  0  0  3  0  0  0  0  0  0
  187.9680  178.4190  140.6780 C   0  0  0  0  0  3  0  0  0  0  0  0
  186.6050  178.5970  140.3930 C   0  0  0  0  0  0  0  0  0  0  0  0
  182.4150  179.3690  139.6320 C   0  0  0  0  0  2  0  0  0  0  0  0
  184.2550  178.7870  141.1250 N   0  0  0  0  0  2  0  0  0  0  0  0
  187.3260  177.0750  144.2330 C   0  0  0  0  0  0  0  0  0  0  0  0
  186.5750  177.4580  145.3470 C   0  0  0  0  0  3  0  0  0  0  0  0
  185.2180  178.8990  143.9470 C   0  0  0  0  0  0  0  0  0  0  0  0
  184.8070  178.7380  146.2970 F   0  0  0  0  0  0  0  0  0  0  0  0
  185.5260  178.3700  145.2070 C   0  0  0  0  0  0  0  0  0  0  0  0
  187.0210  177.6000  142.9740 C   0  0  0  0  0  3  0  0  0  0  0  0
  188.3330  176.1810  144.3700 F   0  0  0  0  0  0  0  0  0  0  0  0
  184.1760  179.8110  143.8190 O   0  0  0  0  0  1  0  0  0  0  0  0
  185.9650  178.5110  142.8220 C   0  0  0  0  0  0  0  0  0  0  0  0
  180.5130  179.0110  138.0380 C   0  0  0  0  0  2  0  0  0  0  0  0
  180.7180  179.7330  135.4290 S   0  0  0  0  0  1  0  0  0  0  0  0
  180.1580  180.1750  137.1150 C   0  0  2  0  0  3  0  0  0  0  0  0
  179.9820  181.9670  138.6580 C   0  0  0  0  0  1  0  0  0  0  0  0
  180.7940  181.4160  137.5770 N   0  0  0  0  0  0  0  0  0  0  0  0
  180.7190  182.4030  136.5030 C   0  0  0  0  0  2  0  0  0  0  0  0
  180.6900  183.8080  137.0800 C   0  0  0  0  0  2  0  0  0  0  0  0
  181.4590  184.6670  136.2920 O   0  0  0  0  0  1  0  0  0  0  0  0
  1 14  1  6  0  0  0
  1 15  1  0  0  0  0
  2  3  1  0  0  0  0
  3 12  2  0  0  0  0
  4 25  1  1  0  0  0
  4 14  1  0  0  0  0
  7  2  2  0  0  0  0
  7  9  1  0  0  0  0
  8  5  1  1  0  0  0
  8  9  1  0  0  0  0
  8  1  1  0  0  0  0
  9 13  2  0  0  0  0
 10 24  1  1  0  0  0
 11  4  1  0  0  0  0
 11  5  1  0  0  0  0
 11  6  1  1  0  0  0
 13 12  1  0  0  0  0
 13 10  1  0  0  0  0
 15 10  1  0  0  0  0
 16 22  1  0  0  0  0
 16 17  1  0  0  0  0
 18 20  1  0  0  0  0
 20 17  2  0  0  0  0
 20 19  1  0  0  0  0
 21 16  2  0  0  0  0
 23 18  1  0  0  0  0
 24 21  1  0  0  0  0
 24 18  2  0  0  0  0
 27 26  1  6  0  0  0
 27 29  1  0  0  0  0
 27 25  1  0  0  0  0
 29 28  1  0  0  0  0
 30 31  1  0  0  0  0
 30 29  1  0  0  0  0
 32 31  1  0  0  0  0
M  END
>  <MODEL>
4

>  <REMARK>
 VINA RESULT:      -6.7      4.606      8.928
  Name = 
  6 active torsions:
  status: ('A' for Active; 'I' for Inactive)
    1  A    between atoms: C_1  and  C_10
    2  A    between atoms: C_8  and  C_23
    3  A    between atoms: C_10  and  N_24
    4  A    between atoms: C_16  and  C_32
    5  A    between atoms: C_19  and  C_23
    6  A    between atoms: C_19  and  N_24
                            x       y       z     vdW  Elec       q    Type
                         _______ _______ _______ _____ _____    ______ ____

>  <TORSDO>
F 6

$$$$
=
 OpenBabel10272413333D

 32 35  0  0  1  0  0  0  0  0999 V2000
  190.8510  177.1000  139.7270 C   0  0  1  0  0  3  0  0  0  0  0  0
  187.5130  178.8500  136.5290 C   0  0  0  0  0  3  0  0  0  0  0  0
  188.0870  178.0480  135.5410 C   0  0  0  0  0  3  0  0  0  0  0  0
  190.3740  177.5310  142.1860 C   0  0  2  0  0  3  0  0  0  0  0  0
  188.4430  177.2380  140.5250 C   0  0  0  0  0  2  0  0  0  0  0  0
  188.5850  175.9340  142.5190 O   0  0  0  0  0  1  0  0  0  0  0  0
  187.9770  178.7760  137.8440 C   0  0  0  0  0  3  0  0  0  0  0  0
  189.5030  177.8500  139.6020 C   0  0  2  0  0  3  0  0  0  0  0  0
  189.0140  177.8950  138.1810 C   0  0  0  0  0  0  0  0  0  0  0  0
  190.7640  176.1770  137.5290 C   0  0  1  0  0  3  0  0  0  0  0  0
  188.8820  177.1960  141.9960 C   0  0  1  0  0  3  0  0  0  0  0  0
  189.1230  177.1700  135.8660 C   0  0  0  0  0  3  0  0  0  0  0  0
  189.5830  177.0660  137.1890 C   0  0  0  0  0  0  0  0  0  0  0  0
  191.2340  176.7750  141.1780 C   0  0  0  0  0  2  0  0  0  0  0  0
  190.8110  175.8590  138.9570 N   0  0  0  0  0  2  0  0  0  0  0  0
  189.6890  172.8380  136.0470 C   0  0  0  0  0  0  0  0  0  0  0  0
  190.7790  172.5350  135.2280 C   0  0  0  0  0  3  0  0  0  0  0  0
  191.8650  174.5960  135.8970 C   0  0  0  0  0  0  0  0  0  0  0  0
  192.9130  173.1090  134.3460 F   0  0  0  0  0  0  0  0  0  0  0  0
  191.8630  173.4120  135.1480 C   0  0  0  0  0  0  0  0  0  0  0  0
  189.6870  174.0180  136.7960 C   0  0  0  0  0  3  0  0  0  0  0  0
  188.6440  171.9800  136.1310 F   0  0  0  0  0  0  0  0  0  0  0  0
  192.9470  175.4660  135.8070 O   0  0  0  0  0  1  0  0  0  0  0  0
  190.7750  174.9010  136.7290 C   0  0  0  0  0  0  0  0  0  0  0  0
  190.8430  177.2560  143.6080 C   0  0  0  0  0  2  0  0  0  0  0  0
  191.4200  179.7880  144.4010 S   0  0  0  0  0  1  0  0  0  0  0  0
  190.3190  178.3330  144.5570 C   0  0  2  0  0  3  0  0  0  0  0  0
  191.3170  176.8080  146.0740 C   0  0  0  0  0  1  0  0  0  0  0  0
  190.2890  177.8360  145.9390 N   0  0  0  0  0  0  0  0  0  0  0  0
  189.0230  177.1410  146.1550 C   0  0  0  0  0  2  0  0  0  0  0  0
  188.7350  177.0200  147.6420 C   0  0  0  0  0  2  0  0  0  0  0  0
  188.9410  178.2490  148.2710 O   0  0  0  0  0  1  0  0  0  0  0  0
  1 14  1  1  0  0  0
  2  7  1  0  0  0  0
  3 12  1  0  0  0  0
  3  2  2  0  0  0  0
  4 25  1  1  0  0  0
  5 11  1  0  0  0  0
  7  9  2  0  0  0  0
  8  1  1  0  0  0  0
  8  5  1  1  0  0  0
  9  8  1  0  0  0  0
 10 24  1  6  0  0  0
 10 15  1  0  0  0  0
 11  4  1  0  0  0  0
 11  6  1  6  0  0  0
 12 13  2  0  0  0  0
 13 10  1  0  0  0  0
 13  9  1  0  0  0  0
 14  4  1  0  0  0  0
 15  1  1  0  0  0  0
 16 22  1  0  0  0  0
 16 21  1  0  0  0  0
 17 16  2  0  0  0  0
 18 24  1  0  0  0  0
 19 20  1  0  0  0  0
 20 17  1  0  0  0  0
 20 18  2  0  0  0  0
 23 18  1  0  0  0  0
 24 21  2  0  0  0  0
 25 27  1  0  0  0  0
 27 26  1  1  0  0  0
 27 29  1  0  0  0  0
 29 28  1  0  0  0  0
 29 30  1  0  0  0  0
 30 31  1  0  0  0  0
 31 32  1  0  0  0  0
M  END
>  <MODEL>
5

>  <REMARK>
 VINA RESULT:      -6.3      5.183      7.093
  Name = 
  6 active torsions:
  status: ('A' for Active; 'I' for Inactive)
    1  A    between atoms: C_1  and  C_10
    2  A    between atoms: C_8  and  C_23
    3  A    between atoms: C_10  and  N_24
    4  A    between atoms: C_16  and  C_32
    5  A    between atoms: C_19  and  C_23
    6  A    between atoms: C_19  and  N_24
                            x       y       z     vdW  Elec       q    Type
                         _______ _______ _______ _____ _____    ______ ____

>  <TORSDO>
F 6

$$$$
=
 OpenBabel10272413333D

 32 35  0  0  1  0  0  0  0  0999 V2000
  188.0880  176.7350  142.6000 C   0  0  1  0  0  3  0  0  0  0  0  0
  184.0230  178.8030  144.5030 C   0  0  0  0  0  3  0  0  0  0  0  0
  184.4840  178.4620  145.7760 C   0  0  0  0  0  3  0  0  0  0  0  0
  188.5900  177.2880  140.1700 C   0  0  2  0  0  3  0  0  0  0  0  0
  187.3900  178.9920  141.6640 C   0  0  0  0  0  2  0  0  0  0  0  0
  189.3570  179.5680  140.4430 O   0  0  0  0  0  1  0  0  0  0  0  0
  184.8160  178.5490  143.3820 C   0  0  0  0  0  3  0  0  0  0  0  0
  186.9040  177.6840  142.3000 C   0  0  2  0  0  3  0  0  0  0  0  0
  186.0790  177.9600  143.5270 C   0  0  0  0  0  0  0  0  0  0  0  0
  187.8860  176.9130  144.9700 C   0  0  1  0  0  3  0  0  0  0  0  0
  188.2130  178.7660  140.3870 C   0  0  1  0  0  3  0  0  0  0  0  0
  185.7400  177.8710  145.9300 C   0  0  0  0  0  3  0  0  0  0  0  0
  186.5600  177.6330  144.8140 C   0  0  0  0  0  0  0  0  0  0  0  0
  189.1150  176.6640  141.4590 C   0  0  0  0  0  2  0  0  0  0  0  0
  188.7680  177.1480  143.8250 N   0  0  0  0  0  2  0  0  0  0  0  0
  188.5460  178.1950  148.4940 C   0  0  0  0  0  0  0  0  0  0  0  0
  189.9200  177.9730  148.6160 C   0  0  0  0  0  3  0  0  0  0  0  0
  189.9800  177.0610  146.3720 C   0  0  0  0  0  0  0  0  0  0  0  0
  191.9680  177.1890  147.6930 F   0  0  0  0  0  0  0  0  0  0  0  0
  190.6360  177.4040  147.5610 C   0  0  0  0  0  0  0  0  0  0  0  0
  187.8880  177.8540  147.3090 C   0  0  0  0  0  3  0  0  0  0  0  0
  187.8570  178.7580  149.5150 F   0  0  0  0  0  0  0  0  0  0  0  0
  190.7010  176.4890  145.3280 O   0  0  0  0  0  1  0  0  0  0  0  0
  188.6010  177.2890  146.2410 C   0  0  0  0  0  0  0  0  0  0  0  0
  189.5960  177.1170  139.0400 C   0  0  0  0  0  2  0  0  0  0  0  0
  188.9810  178.7630  136.9710 S   0  0  0  0  0  1  0  0  0  0  0  0
  188.8780  177.0830  137.6920 C   0  0  2  0  0  3  0  0  0  0  0  0
  187.2870  175.4250  137.1080 C   0  0  0  0  0  1  0  0  0  0  0  0
  187.4800  176.6630  137.8580 N   0  0  0  0  0  0  0  0  0  0  0  0
  186.6190  177.6430  137.2030 C   0  0  0  0  0  2  0  0  0  0  0  0
  185.3580  177.8670  138.0200 C   0  0  0  0  0  2  0  0  0  0  0  0
  185.3460  179.1630  138.5380 O   0  0  0  0  0  1  0  0  0  0  0  0
  1 14  1  6  0  0  0
  1 15  1  0  0  0  0
  2  3  1  0  0  0  0
  3 12  2  0  0  0  0
  4 25  1  6  0  0  0
  4 11  1  0  0  0  0
  4 14  1  0  0  0  0
  7  9  1  0  0  0  0
  7  2  2  0  0  0  0
  8  5  1  1  0  0  0
  8  1  1  0  0  0  0
  8  9  1  0  0  0  0
  9 13  2  0  0  0  0
 10 24  1  1  0  0  0
 11  6  1  1  0  0  0
 11  5  1  0  0  0  0
 13 10  1  0  0  0  0
 13 12  1  0  0  0  0
 15 10  1  0  0  0  0
 16 17  1  0  0  0  0
 16 22  1  0  0  0  0
 18 20  1  0  0  0  0
 20 19  1  0  0  0  0
 20 17  2  0  0  0  0
 21 16  2  0  0  0  0
 23 18  1  0  0  0  0
 24 18  2  0  0  0  0
 24 21  1  0  0  0  0
 27 26  1  1  0  0  0
 27 29  1  0  0  0  0
 27 25  1  0  0  0  0
 28 29  1  0  0  0  0
 30 29  1  0  0  0  0
 30 31  1  0  0  0  0
 31 32  1  0  0  0  0
M  END
>  <MODEL>
6

>  <REMARK>
 VINA RESULT:      -6.3      4.182      7.656
  Name = 
  6 active torsions:
  status: ('A' for Active; 'I' for Inactive)
    1  A    between atoms: C_1  and  C_10
    2  A    between atoms: C_8  and  C_23
    3  A    between atoms: C_10  and  N_24
    4  A    between atoms: C_16  and  C_32
    5  A    between atoms: C_19  and  C_23
    6  A    between atoms: C_19  and  N_24
                            x       y       z     vdW  Elec       q    Type
                         _______ _______ _______ _____ _____    ______ ____

>  <TORSDO>
F 6

$$$$
=
 OpenBabel10272413333D

 32 35  0  0  1  0  0  0  0  0999 V2000
  186.2910  179.0560  141.7010 C   0  0  1  0  0  3  0  0  0  0  0  0
  182.2090  178.7880  144.4740 C   0  0  0  0  0  3  0  0  0  0  0  0
  181.4490  178.8750  143.3060 C   0  0  0  0  0  3  0  0  0  0  0  0
  188.4660  178.4110  142.8500 C   0  0  2  0  0  3  0  0  0  0  0  0
  186.2570  177.3100  143.5470 C   0  0  0  0  0  2  0  0  0  0  0  0
  188.1620  176.0100  142.9330 O   0  0  0  0  0  1  0  0  0  0  0  0
  183.6010  178.7240  144.3970 C   0  0  0  0  0  3  0  0  0  0  0  0
  185.7460  178.6850  143.1000 C   0  0  2  0  0  3  0  0  0  0  0  0
  184.2440  178.7390  143.1510 C   0  0  0  0  0  0  0  0  0  0  0  0
  184.1700  178.9120  140.6200 C   0  0  1  0  0  3  0  0  0  0  0  0
  187.7900  177.2120  143.5430 C   0  0  1  0  0  3  0  0  0  0  0  0
  182.0800  178.8950  142.0600 C   0  0  0  0  0  3  0  0  0  0  0  0
  183.4780  178.8050  141.9660 C   0  0  0  0  0  0  0  0  0  0  0  0
  187.7820  178.7290  141.5230 C   0  0  0  0  0  2  0  0  0  0  0  0
  185.5280  178.3680  140.6630 N   0  0  0  0  0  2  0  0  0  0  0  0
  182.6140  176.2170  138.4260 C   0  0  0  0  0  0  0  0  0  0  0  0
  181.9350  176.9890  137.4800 C   0  0  0  0  0  3  0  0  0  0  0  0
  182.7020  179.0140  138.5690 C   0  0  0  0  0  0  0  0  0  0  0  0
  181.3070  179.1210  136.6300 F   0  0  0  0  0  0  0  0  0  0  0  0
  181.9740  178.3830  137.5520 C   0  0  0  0  0  0  0  0  0  0  0  0
  183.3420  176.8430  139.4420 C   0  0  0  0  0  3  0  0  0  0  0  0
  182.5840  174.8660  138.3470 F   0  0  0  0  0  0  0  0  0  0  0  0
  182.7300  180.4030  138.6350 O   0  0  0  0  0  1  0  0  0  0  0  0
  183.3940  178.2430  139.5170 C   0  0  0  0  0  0  0  0  0  0  0  0
  189.9570  178.1850  142.6460 C   0  0  0  0  0  2  0  0  0  0  0  0
  191.2680  175.9710  143.5130 S   0  0  0  0  0  1  0  0  0  0  0  0
  190.2220  176.7410  142.2220 C   0  0  2  0  0  3  0  0  0  0  0  0
  191.9740  177.6640  140.9180 C   0  0  0  0  0  1  0  0  0  0  0  0
  190.8800  176.6970  140.9100 N   0  0  0  0  0  0  0  0  0  0  0  0
  189.9430  177.1890  139.9040 C   0  0  0  0  0  2  0  0  0  0  0  0
  190.3430  176.6950  138.5240 C   0  0  0  0  0  2  0  0  0  0  0  0
  190.8490  175.3960  138.6080 O   0  0  0  0  0  1  0  0  0  0  0  0
  1 14  1  1  0  0  0
  1  8  1  0  0  0  0
  3  2  2  0  0  0  0
  4 25  1  6  0  0  0
  4 11  1  0  0  0  0
  7  2  1  0  0  0  0
  8  9  1  0  0  0  0
  8  5  1  6  0  0  0
  9  7  2  0  0  0  0
 10 24  1  6  0  0  0
 10 15  1  0  0  0  0
 10 13  1  0  0  0  0
 11  6  1  6  0  0  0
 11  5  1  0  0  0  0
 12  3  1  0  0  0  0
 13 12  2  0  0  0  0
 13  9  1  0  0  0  0
 14  4  1  0  0  0  0
 15  1  1  0  0  0  0
 16 21  1  0  0  0  0
 17 20  1  0  0  0  0
 17 16  2  0  0  0  0
 18 23  1  0  0  0  0
 18 24  1  0  0  0  0
 19 20  1  0  0  0  0
 20 18  2  0  0  0  0
 21 24  2  0  0  0  0
 22 16  1  0  0  0  0
 27 25  1  0  0  0  0
 27 26  1  1  0  0  0
 29 28  1  0  0  0  0
 29 27  1  0  0  0  0
 30 29  1  0  0  0  0
 31 32  1  0  0  0  0
 31 30  1  0  0  0  0
M  END
>  <MODEL>
7

>  <REMARK>
 VINA RESULT:      -6.2      1.731      2.734
  Name = 
  6 active torsions:
  status: ('A' for Active; 'I' for Inactive)
    1  A    between atoms: C_1  and  C_10
    2  A    between atoms: C_8  and  C_23
    3  A    between atoms: C_10  and  N_24
    4  A    between atoms: C_16  and  C_32
    5  A    between atoms: C_19  and  C_23
    6  A    between atoms: C_19  and  N_24
                            x       y       z     vdW  Elec       q    Type
                         _______ _______ _______ _____ _____    ______ ____

>  <TORSDO>
F 6

$$$$
=
 OpenBabel10272413333D

 32 35  0  0  1  0  0  0  0  0999 V2000
  187.7130  178.5730  141.2470 C   0  0  1  0  0  3  0  0  0  0  0  0
  182.8110  179.0100  141.7050 C   0  0  0  0  0  3  0  0  0  0  0  0
  182.7240  179.1210  140.3160 C   0  0  0  0  0  3  0  0  0  0  0  0
  188.9550  177.7260  143.2960 C   0  0  2  0  0  3  0  0  0  0  0  0
  186.5500  176.9660  142.8350 C   0  0  0  0  0  2  0  0  0  0  0  0
  188.3070  175.3940  143.2060 O   0  0  0  0  0  1  0  0  0  0  0  0
  184.0460  178.7610  142.3080 C   0  0  0  0  0  3  0  0  0  0  0  0
  186.5180  178.3640  142.2060 C   0  0  2  0  0  3  0  0  0  0  0  0
  185.2000  178.6150  141.5270 C   0  0  0  0  0  0  0  0  0  0  0  0
  186.3710  178.6370  139.2750 C   0  0  1  0  0  3  0  0  0  0  0  0
  187.8660  176.6700  143.5690 C   0  0  1  0  0  3  0  0  0  0  0  0
  183.8690  178.9800  139.5290 C   0  0  0  0  0  3  0  0  0  0  0  0
  185.1130  178.7050  140.1200 C   0  0  0  0  0  0  0  0  0  0  0  0
  189.0430  178.0450  141.8070 C   0  0  0  0  0  2  0  0  0  0  0  0
  187.4490  177.9250  139.9640 N   0  0  0  0  0  2  0  0  0  0  0  0
  184.9250  176.4210  136.5380 C   0  0  0  0  0  0  0  0  0  0  0  0
  185.6610  176.8380  135.4260 C   0  0  0  0  0  3  0  0  0  0  0  0
  186.8610  178.4270  136.8080 C   0  0  0  0  0  0  0  0  0  0  0  0
  187.3290  178.2410  134.4700 F   0  0  0  0  0  0  0  0  0  0  0  0
  186.6240  177.8410  135.5580 C   0  0  0  0  0  0  0  0  0  0  0  0
  185.1600  177.0020  137.7870 C   0  0  0  0  0  3  0  0  0  0  0  0
  184.0010  175.4390  136.4090 F   0  0  0  0  0  0  0  0  0  0  0  0
  187.8180  179.4300  136.9280 O   0  0  0  0  0  1  0  0  0  0  0  0
  186.1300  178.0050  137.9300 C   0  0  0  0  0  0  0  0  0  0  0  0
  190.3120  177.2960  143.8350 C   0  0  0  0  0  2  0  0  0  0  0  0
  191.6720  179.5630  144.4550 S   0  0  0  0  0  1  0  0  0  0  0  0
  190.6900  178.1380  145.0530 C   0  0  2  0  0  3  0  0  0  0  0  0
  191.8660  176.1030  145.3630 C   0  0  0  0  0  1  0  0  0  0  0  0
  191.4510  177.3380  146.0220 N   0  0  0  0  0  0  0  0  0  0  0  0
  190.5470  176.9160  147.0880 C   0  0  0  0  0  2  0  0  0  0  0  0
  189.3460  177.8440  147.1580 C   0  0  0  0  0  2  0  0  0  0  0  0
  189.1340  178.2550  148.4760 O   0  0  0  0  0  1  0  0  0  0  0  0
  1 14  1  1  0  0  0
  1  8  1  0  0  0  0
  2  7  1  0  0  0  0
  3  2  2  0  0  0  0
  4 11  1  0  0  0  0
  4 25  1  6  0  0  0
  5 11  1  0  0  0  0
  8  5  1  6  0  0  0
  9  8  1  0  0  0  0
  9  7  2  0  0  0  0
 10 24  1  6  0  0  0
 10 15  1  0  0  0  0
 10 13  1  0  0  0  0
 11  6  1  6  0  0  0
 12 13  2  0  0  0  0
 12  3  1  0  0  0  0
 13  9  1  0  0  0  0
 14  4  1  0  0  0  0
 15  1  1  0  0  0  0
 16 21  1  0  0  0  0
 17 20  1  0  0  0  0
 17 16  2  0  0  0  0
 18 23  1  0  0  0  0
 18 24  1  0  0  0  0
 19 20  1  0  0  0  0
 20 18  2  0  0  0  0
 21 24  2  0  0  0  0
 22 16  1  0  0  0  0
 25 27  1  0  0  0  0
 27 26  1  6  0  0  0
 27 29  1  0  0  0  0
 28 29  1  0  0  0  0
 29 30  1  0  0  0  0
 30 31  1  0  0  0  0
 31 32  1  0  0  0  0
M  END
>  <MODEL>
8

>  <REMARK>
 VINA RESULT:      -6.2      2.675      3.080
  Name = 
  6 active torsions:
  status: ('A' for Active; 'I' for Inactive)
    1  A    between atoms: C_1  and  C_10
    2  A    between atoms: C_8  and  C_23
    3  A    between atoms: C_10  and  N_24
    4  A    between atoms: C_16  and  C_32
    5  A    between atoms: C_19  and  C_23
    6  A    between atoms: C_19  and  N_24
                            x       y       z     vdW  Elec       q    Type
                         _______ _______ _______ _____ _____    ______ ____

>  <TORSDO>
F 6

$$$$
=
 OpenBabel10272413333D

 32 35  0  0  1  0  0  0  0  0999 V2000
  188.5600  178.7420  141.4430 C   0  0  1  0  0  3  0  0  0  0  0  0
  183.6500  178.5970  140.9040 C   0  0  0  0  0  3  0  0  0  0  0  0
  183.8350  178.5710  139.5200 C   0  0  0  0  0  3  0  0  0  0  0  0
  189.4430  178.2450  143.7740 C   0  0  2  0  0  3  0  0  0  0  0  0
  187.2760  177.1500  142.9500 C   0  0  0  0  0  2  0  0  0  0  0  0
  189.0780  175.8520  143.8240 O   0  0  0  0  0  1  0  0  0  0  0  0
  184.7550  178.5610  141.7560 C   0  0  0  0  0  3  0  0  0  0  0  0
  187.2240  178.4710  142.1740 C   0  0  2  0  0  3  0  0  0  0  0  0
  186.0530  178.4920  141.2310 C   0  0  0  0  0  0  0  0  0  0  0  0
  187.6480  178.4610  139.2560 C   0  0  1  0  0  3  0  0  0  0  0  0
  188.4400  177.0890  143.9510 C   0  0  1  0  0  3  0  0  0  0  0  0
  185.1240  178.5060  138.9870 C   0  0  0  0  0  3  0  0  0  0  0  0
  186.2440  178.4440  139.8320 C   0  0  0  0  0  0  0  0  0  0  0  0
  189.7970  178.4390  142.3030 C   0  0  0  0  0  2  0  0  0  0  0  0
  188.6330  177.9550  140.2140 N   0  0  0  0  0  2  0  0  0  0  0  0
  188.0240  175.5710  136.8060 C   0  0  0  0  0  0  0  0  0  0  0  0
  187.9290  176.2340  135.5800 C   0  0  0  0  0  3  0  0  0  0  0  0
  187.6500  178.3470  136.7350 C   0  0  0  0  0  0  0  0  0  0  0  0
  187.6430  178.2490  134.3460 F   0  0  0  0  0  0  0  0  0  0  0  0
  187.7380  177.6170  135.5420 C   0  0  0  0  0  0  0  0  0  0  0  0
  187.9370  176.2960  137.9980 C   0  0  0  0  0  3  0  0  0  0  0  0
  188.2210  174.2320  136.8390 F   0  0  0  0  0  0  0  0  0  0  0  0
  187.4530  179.7230  136.6880 O   0  0  0  0  0  1  0  0  0  0  0  0
  187.7530  177.6860  137.9700 C   0  0  0  0  0  0  0  0  0  0  0  0
  190.7010  178.0400  144.6070 C   0  0  0  0  0  2  0  0  0  0  0  0
  189.5690  177.7710  147.0600 S   0  0  0  0  0  1  0  0  0  0  0  0
  190.4610  176.9740  145.6750 C   0  0  2  0  0  3  0  0  0  0  0  0
  192.0750  175.2930  145.2320 C   0  0  0  0  0  1  0  0  0  0  0  0
  191.7350  176.3960  146.1260 N   0  0  0  0  0  0  0  0  0  0  0  0
  191.5270  175.7780  147.4330 C   0  0  0  0  0  2  0  0  0  0  0  0
  192.8060  175.8300  148.2500 C   0  0  0  0  0  2  0  0  0  0  0  0
  192.8850  177.0420  148.9400 O   0  0  0  0  0  1  0  0  0  0  0  0
  1  8  1  0  0  0  0
  1 14  1  1  0  0  0
  2  7  1  0  0  0  0
  3  2  2  0  0  0  0
  4 11  1  0  0  0  0
  4 25  1  1  0  0  0
  5 11  1  0  0  0  0
  8  5  1  6  0  0  0
  9  7  2  0  0  0  0
  9  8  1  0  0  0  0
 10 24  1  6  0  0  0
 10 13  1  0  0  0  0
 10 15  1  0  0  0  0
 11  6  1  6  0  0  0
 12  3  1  0  0  0  0
 12 13  2  0  0  0  0
 13  9  1  0  0  0  0
 14  4  1  0  0  0  0
 15  1  1  0  0  0  0
 16 22  1  0  0  0  0
 16 21  1  0  0  0  0
 17 16  2  0  0  0  0
 18 24  1  0  0  0  0
 19 20  1  0  0  0  0
 20 17  1  0  0  0  0
 20 18  2  0  0  0  0
 23 18  1  0  0  0  0
 24 21  2  0  0  0  0
 25 27  1  0  0  0  0
 27 29  1  0  0  0  0
 27 26  1  1  0  0  0
 28 29  1  0  0  0  0
 29 30  1  0  0  0  0
 30 31  1  0  0  0  0
 31 32  1  0  0  0  0
M  END
>  <MODEL>
9

>  <REMARK>
 VINA RESULT:      -6.2      3.360      4.079
  Name = 
  6 active torsions:
  status: ('A' for Active; 'I' for Inactive)
    1  A    between atoms: C_1  and  C_10
    2  A    between atoms: C_8  and  C_23
    3  A    between atoms: C_10  and  N_24
    4  A    between atoms: C_16  and  C_32
    5  A    between atoms: C_19  and  C_23
    6  A    between atoms: C_19  and  N_24
                            x       y       z     vdW  Elec       q    Type
                         _______ _______ _______ _____ _____    ______ ____

>  <TORSDO>
F 6

$$$$
