=
 OpenBabel10272414193D

 43 47  0  0  1  0  0  0  0  0999 V2000
  186.1160  178.4020  146.1630 C   0  0  0  0  0  0  0  0  0  0  0  0
  183.1030  178.8880  142.0970 N   0  0  2  0  0  0  0  0  0  0  0  0
  184.6380  178.8740  139.7980 C   0  0  2  0  0  3  0  0  0  0  0  0
  184.2170  178.7040  144.6890 C   0  0  0  0  0  0  0  0  0  0  0  0
  186.8780  177.9350  145.0900 C   0  0  0  0  0  3  0  0  0  0  0  0
  186.6640  178.4790  147.3990 F   0  0  0  0  0  0  0  0  0  0  0  0
  184.9930  178.2720  143.5920 C   0  0  0  0  0  0  0  0  0  0  0  0
  184.7880  178.7830  145.9620 C   0  0  0  0  0  3  0  0  0  0  0  0
  186.3170  177.8620  143.8130 C   0  0  0  0  0  3  0  0  0  0  0  0
  185.3460  178.5570  141.1220 C   0  0  0  0  0  2  0  0  0  0  0  0
  184.3630  178.1270  142.2200 C   0  0  2  0  0  3  0  0  0  0  0  0
  182.2300  178.5400  143.2160 C   0  0  0  0  0  2  0  0  0  0  0  0
  182.3790  178.5280  140.8620 C   0  0  2  0  0  3  0  0  0  0  0  0
  183.3010  178.1470  139.6920 C   0  0  0  0  0  2  0  0  0  0  0  0
  182.7930  179.1300  144.5020 C   0  0  0  0  0  2  0  0  0  0  0  0
  185.5230  178.5970  138.5810 C   0  0  2  0  0  3  0  0  0  0  0  0
  185.0190  177.4070  137.7700 C   0  0  0  0  0  1  0  0  0  0  0  0
  186.8970  178.3710  139.0090 N   0  0  0  0  0  2  0  0  0  0  0  0
  188.0240  178.6120  138.1650 C   0  0  0  0  0  0  0  0  0  0  0  0
  187.8700  179.0830  137.0070 O   0  0  0  0  0  0  0  0  0  0  0  0
  189.4070  178.2760  138.6510 C   0  0  0  0  0  2  0  0  0  0  0  0
  189.5440  176.8980  139.1420 N   0  0  0  0  0  0  0  0  0  0  0  0
  189.5110  177.0160  141.6180 C   0  0  0  0  0  0  0  0  0  0  0  0
  190.2160  176.9200  140.3770 N   0  0  0  0  0  2  0  0  0  0  0  0
  188.2570  177.1500  141.6200 O   0  0  0  0  0  0  0  0  0  0  0  0
  190.2510  176.9650  142.8910 C   0  0  0  0  0  0  0  0  0  0  0  0
  190.9150  177.9990  144.9880 C   0  0  0  0  0  3  0  0  0  0  0  0
  191.7000  175.7770  144.4380 C   0  0  0  0  0  3  0  0  0  0  0  0
  191.6580  176.8620  145.3170 C   0  0  0  0  0  3  0  0  0  0  0  0
  190.9990  175.8270  143.2290 C   0  0  0  0  0  3  0  0  0  0  0  0
  190.2140  178.0500  143.7790 C   0  0  0  0  0  3  0  0  0  0  0  0
  190.3510  176.1310  138.1980 C   0  0  0  0  0  2  0  0  0  0  0  0
  192.7590  175.7950  136.9300 S   0  0  0  0  0  1  0  0  0  0  0  0
  191.8050  176.5620  138.2720 C   0  0  0  0  0  2  0  0  0  0  0  0
  181.5360  179.6450  140.4480 N   0  0  0  0  0  2  0  0  0  0  0  0
  180.1470  179.1390  137.0080 C   0  0  0  0  0  3  0  0  0  0  0  0
  180.4100  180.3900  136.4280 C   0  0  0  0  0  0  0  0  0  0  0  0
  181.4130  181.1240  138.5120 C   0  0  0  0  0  3  0  0  0  0  0  0
  180.5140  178.8850  138.3320 C   0  0  0  0  0  3  0  0  0  0  0  0
  181.1450  179.8800  139.0920 C   0  0  0  0  0  0  0  0  0  0  0  0
  181.0450  181.3780  137.1880 C   0  0  0  0  0  3  0  0  0  0  0  0
  180.0520  180.6770  135.1080 O   0  0  0  0  0  0  0  0  0  0  0  0
  180.3930  181.8990  134.4680 C   0  0  0  0  0  1  0  0  0  0  0  0
  1  6  1  0  0  0  0
  2 11  1  0  0  0  0
  2 12  1  1  0  0  0
  3 16  1  6  0  0  0
  3 10  1  0  0  0  0
  4  8  2  0  0  0  0
  5  1  2  0  0  0  0
  7  9  2  0  0  0  0
  7  4  1  0  0  0  0
  8  1  1  0  0  0  0
  9  5  1  0  0  0  0
 11 10  1  6  0  0  0
 11  7  1  0  0  0  0
 12 15  1  0  0  0  0
 13 35  1  6  0  0  0
 13  2  1  0  0  0  0
 14  3  1  0  0  0  0
 14 13  1  0  0  0  0
 15  4  1  0  0  0  0
 16 17  1  1  0  0  0
 16 18  1  0  0  0  0
 19 21  1  0  0  0  0
 19 18  1  0  0  0  0
 20 19  2  0  0  0  0
 21 22  1  0  0  0  0
 22 24  1  0  0  0  0
 23 25  2  0  0  0  0
 23 26  1  0  0  0  0
 24 23  1  0  0  0  0
 26 30  2  0  0  0  0
 26 31  1  0  0  0  0
 27 29  1  0  0  0  0
 28 29  2  0  0  0  0
 30 28  1  0  0  0  0
 31 27  2  0  0  0  0
 32 34  1  0  0  0  0
 32 22  1  0  0  0  0
 33 34  1  0  0  0  0
 36 39  1  0  0  0  0
 37 36  2  0  0  0  0
 37 41  1  0  0  0  0
 38 40  1  0  0  0  0
 39 40  2  0  0  0  0
 40 35  1  0  0  0  0
 41 38  2  0  0  0  0
 42 37  1  0  0  0  0
 43 42  1  0  0  0  0
M  END
>  <MODEL>
1

>  <REMARK>
 VINA RESULT:      -9.1      0.000      0.000
  Name = 
  11 active torsions:
  status: ('A' for Active; 'I' for Inactive)
    1  A    between atoms: N_1  and  C_34
    2  A    between atoms: N_1  and  C_35
    3  A    between atoms: C_2  and  N_6
    4  A    between atoms: C_2  and  C_13
    5  A    between atoms: C_3  and  N_4
    6  A    between atoms: C_3  and  C_12
    7  A    between atoms: N_4  and  C_15
    8  A    between atoms: N_4  and  N_22
    9  A    between atoms: C_11  and  C_14
   10  A    between atoms: C_15  and  C_42
   11  A    between atoms: C_19  and  O_25
                            x       y       z     vdW  Elec       q    Type
                         _______ _______ _______ _____ _____    ______ ____

>  <TORSDO>
F 11

$$$$
=
 OpenBabel10272414193D

 43 47  0  0  1  0  0  0  0  0999 V2000
  191.1360  176.5260  147.0230 C   0  0  0  0  0  0  0  0  0  0  0  0
  189.6320  177.1240  142.2030 N   0  0  2  0  0  0  0  0  0  0  0  0
  186.9960  177.9550  142.1520 C   0  0  2  0  0  3  0  0  0  0  0  0
  191.0210  176.5690  144.6030 C   0  0  0  0  0  0  0  0  0  0  0  0
  190.0140  177.3530  147.0950 C   0  0  0  0  0  3  0  0  0  0  0  0
  191.7420  176.1060  148.1600 F   0  0  0  0  0  0  0  0  0  0  0  0
  189.8610  177.3710  144.6680 C   0  0  0  0  0  0  0  0  0  0  0  0
  191.6400  176.1370  145.7800 C   0  0  0  0  0  3  0  0  0  0  0  0
  189.3850  177.7810  145.9230 C   0  0  0  0  0  3  0  0  0  0  0  0
  187.6890  177.8930  143.5190 C   0  0  0  0  0  2  0  0  0  0  0  0
  189.2210  177.8930  143.3960 C   0  0  2  0  0  3  0  0  0  0  0  0
  191.0910  177.0480  142.1730 C   0  0  0  0  0  2  0  0  0  0  0  0
  189.2120  177.8000  140.9600 C   0  0  2  0  0  3  0  0  0  0  0  0
  187.8980  178.5870  141.0970 C   0  0  0  0  0  2  0  0  0  0  0  0
  191.5750  176.1280  143.2840 C   0  0  0  0  0  2  0  0  0  0  0  0
  185.6370  178.6550  142.2170 C   0  0  2  0  0  3  0  0  0  0  0  0
  185.0360  178.6020  143.6180 C   0  0  0  0  0  1  0  0  0  0  0  0
  184.7240  178.0560  141.2520 N   0  0  0  0  0  2  0  0  0  0  0  0
  184.3070  178.7230  140.0590 C   0  0  0  0  0  0  0  0  0  0  0  0
  184.7610  179.8610  139.7680 O   0  0  0  0  0  0  0  0  0  0  0  0
  183.2980  178.0720  139.1550 C   0  0  0  0  0  2  0  0  0  0  0  0
  183.8250  176.9190  138.4110 N   0  0  0  0  0  0  0  0  0  0  0  0
  185.8770  176.3330  137.1490 C   0  0  0  0  0  0  0  0  0  0  0  0
  185.0300  177.2920  137.7870 N   0  0  0  0  0  2  0  0  0  0  0  0
  185.5830  175.1070  137.1920 O   0  0  0  0  0  0  0  0  0  0  0  0
  187.0940  176.7760  136.4480 C   0  0  0  0  0  0  0  0  0  0  0  0
  188.8810  178.3950  136.1430 C   0  0  0  0  0  3  0  0  0  0  0  0
  188.7920  176.4200  134.7460 C   0  0  0  0  0  3  0  0  0  0  0  0
  189.4150  177.6170  135.1120 C   0  0  0  0  0  3  0  0  0  0  0  0
  187.6360  176.0020  135.4110 C   0  0  0  0  0  3  0  0  0  0  0  0
  187.7250  177.9760  136.8080 C   0  0  0  0  0  3  0  0  0  0  0  0
  182.8720  176.5430  137.3700 C   0  0  0  0  0  2  0  0  0  0  0  0
  182.0870  173.9610  136.8860 S   0  0  0  0  0  1  0  0  0  0  0  0
  181.9260  175.4720  137.8820 C   0  0  0  0  0  2  0  0  0  0  0  0
  189.0580  176.8130  139.8970 N   0  0  0  0  0  2  0  0  0  0  0  0
  191.0370  174.9730  137.3060 C   0  0  0  0  0  3  0  0  0  0  0  0
  192.2320  175.7100  137.3110 C   0  0  0  0  0  0  0  0  0  0  0  0
  191.3100  177.1590  139.0240 C   0  0  0  0  0  3  0  0  0  0  0  0
  189.9860  175.3300  138.1550 C   0  0  0  0  0  3  0  0  0  0  0  0
  190.1160  176.4300  139.0150 C   0  0  0  0  0  0  0  0  0  0  0  0
  192.3610  176.8030  138.1760 C   0  0  0  0  0  3  0  0  0  0  0  0
  193.3010  175.3810  136.4720 O   0  0  0  0  0  0  0  0  0  0  0  0
  194.1690  176.3590  135.9160 C   0  0  0  0  0  1  0  0  0  0  0  0
  1  5  1  0  0  0  0
  1  6  1  0  0  0  0
  2 12  1  6  0  0  0
  2 11  1  0  0  0  0
  3 16  1  1  0  0  0
  3 10  1  0  0  0  0
  4  7  2  0  0  0  0
  4  8  1  0  0  0  0
  7  9  1  0  0  0  0
  8  1  2  0  0  0  0
  9  5  2  0  0  0  0
 11 10  1  1  0  0  0
 11  7  1  0  0  0  0
 12 15  1  0  0  0  0
 13 35  1  6  0  0  0
 13 14  1  0  0  0  0
 13  2  1  0  0  0  0
 14  3  1  0  0  0  0
 15  4  1  0  0  0  0
 16 17  1  1  0  0  0
 18 16  1  0  0  0  0
 19 18  1  0  0  0  0
 20 19  2  0  0  0  0
 21 19  1  0  0  0  0
 22 21  1  0  0  0  0
 23 25  2  0  0  0  0
 23 24  1  0  0  0  0
 24 22  1  0  0  0  0
 26 31  1  0  0  0  0
 26 23  1  0  0  0  0
 27 31  2  0  0  0  0
 28 29  2  0  0  0  0
 28 30  1  0  0  0  0
 29 27  1  0  0  0  0
 30 26  2  0  0  0  0
 32 34  1  0  0  0  0
 32 22  1  0  0  0  0
 33 34  1  0  0  0  0
 36 37  2  0  0  0  0
 36 39  1  0  0  0  0
 37 41  1  0  0  0  0
 39 40  2  0  0  0  0
 40 38  1  0  0  0  0
 40 35  1  0  0  0  0
 41 38  2  0  0  0  0
 42 37  1  0  0  0  0
 43 42  1  0  0  0  0
M  END
>  <MODEL>
2

>  <REMARK>
 VINA RESULT:      -8.5      3.244      8.090
  Name = 
  11 active torsions:
  status: ('A' for Active; 'I' for Inactive)
    1  A    between atoms: N_1  and  C_34
    2  A    between atoms: N_1  and  C_35
    3  A    between atoms: C_2  and  N_6
    4  A    between atoms: C_2  and  C_13
    5  A    between atoms: C_3  and  N_4
    6  A    between atoms: C_3  and  C_12
    7  A    between atoms: N_4  and  C_15
    8  A    between atoms: N_4  and  N_22
    9  A    between atoms: C_11  and  C_14
   10  A    between atoms: C_15  and  C_42
   11  A    between atoms: C_19  and  O_25
                            x       y       z     vdW  Elec       q    Type
                         _______ _______ _______ _____ _____    ______ ____

>  <TORSDO>
F 11

$$$$
=
 OpenBabel10272414193D

 43 47  0  0  1  0  0  0  0  0999 V2000
  187.8410  177.5140  148.2980 C   0  0  0  0  0  0  0  0  0  0  0  0
  188.4330  177.5730  143.2490 N   0  0  2  0  0  0  0  0  0  0  0  0
  186.0150  178.1480  142.0390 C   0  0  2  0  0  3  0  0  0  0  0  0
  188.7330  177.3480  146.0520 C   0  0  0  0  0  0  0  0  0  0  0  0
  186.7480  178.2360  147.8150 C   0  0  0  0  0  3  0  0  0  0  0  0
  187.9430  177.2470  149.6220 F   0  0  0  0  0  0  0  0  0  0  0  0
  187.6110  178.0410  145.5500 C   0  0  0  0  0  0  0  0  0  0  0  0
  188.8320  177.0730  147.4190 C   0  0  0  0  0  3  0  0  0  0  0  0
  186.6380  178.5070  146.4490 C   0  0  0  0  0  3  0  0  0  0  0  0
  186.0840  178.2630  143.5680 C   0  0  0  0  0  2  0  0  0  0  0  0
  187.5270  178.3960  144.0770 C   0  0  2  0  0  3  0  0  0  0  0  0
  189.7770  177.6310  143.8220 C   0  0  0  0  0  2  0  0  0  0  0  0
  188.5300  178.1030  141.8750 C   0  0  2  0  0  3  0  0  0  0  0  0
  187.2390  178.7730  141.3770 C   0  0  0  0  0  2  0  0  0  0  0  0
  189.8050  176.8540  145.1300 C   0  0  0  0  0  2  0  0  0  0  0  0
  184.7170  178.7220  141.4690 C   0  0  2  0  0  3  0  0  0  0  0  0
  183.5760  178.6650  142.4800 C   0  0  0  0  0  1  0  0  0  0  0  0
  184.3500  178.0060  140.2530 N   0  0  0  0  0  2  0  0  0  0  0  0
  184.4140  178.5960  138.9540 C   0  0  0  0  0  0  0  0  0  0  0  0
  184.8420  179.7710  138.8030 O   0  0  0  0  0  0  0  0  0  0  0  0
  183.9400  177.8190  137.7570 C   0  0  0  0  0  2  0  0  0  0  0  0
  184.6340  176.5360  137.5710 N   0  0  0  0  0  0  0  0  0  0  0  0
  186.8300  175.7560  136.7300 C   0  0  0  0  0  0  0  0  0  0  0  0
  185.8210  176.7610  136.8520 N   0  0  0  0  0  2  0  0  0  0  0  0
  186.6980  174.6550  137.3310 O   0  0  0  0  0  0  0  0  0  0  0  0
  188.0270  176.0090  135.9080 C   0  0  0  0  0  0  0  0  0  0  0  0
  189.4050  177.5250  134.6000 C   0  0  0  0  0  3  0  0  0  0  0  0
  190.0760  175.2150  134.8700 C   0  0  0  0  0  3  0  0  0  0  0  0
  190.3080  176.4900  134.3470 C   0  0  0  0  0  3  0  0  0  0  0  0
  188.9390  174.9760  135.6480 C   0  0  0  0  0  3  0  0  0  0  0  0
  188.2680  177.2860  135.3780 C   0  0  0  0  0  3  0  0  0  0  0  0
  183.7870  175.6440  136.7850 C   0  0  0  0  0  2  0  0  0  0  0  0
  183.6550  172.9140  137.0040 S   0  0  0  0  0  1  0  0  0  0  0  0
  183.2130  174.5470  137.6640 C   0  0  0  0  0  2  0  0  0  0  0  0
  188.8800  177.0230  140.9590 N   0  0  0  0  0  2  0  0  0  0  0  0
  192.4950  177.3040  140.0250 C   0  0  0  0  0  3  0  0  0  0  0  0
  192.4520  176.9130  138.6770 C   0  0  0  0  0  0  0  0  0  0  0  0
  190.0520  176.6040  138.8610 C   0  0  0  0  0  3  0  0  0  0  0  0
  191.3220  177.3430  140.7840 C   0  0  0  0  0  3  0  0  0  0  0  0
  190.0950  176.9870  140.2060 C   0  0  0  0  0  0  0  0  0  0  0  0
  191.2250  176.5650  138.1020 C   0  0  0  0  0  3  0  0  0  0  0  0
  193.6070  176.8600  137.8920 O   0  0  0  0  0  0  0  0  0  0  0  0
  193.7140  176.0350  136.7390 C   0  0  0  0  0  1  0  0  0  0  0  0
  1  6  1  0  0  0  0
  2 12  1  1  0  0  0
  2 11  1  0  0  0  0
  3 16  1  6  0  0  0
  3 10  1  0  0  0  0
  4  8  1  0  0  0  0
  5  1  1  0  0  0  0
  7  4  2  0  0  0  0
  7  9  1  0  0  0  0
  8  1  2  0  0  0  0
  9  5  2  0  0  0  0
 11 10  1  6  0  0  0
 11  7  1  0  0  0  0
 12 15  1  0  0  0  0
 13 35  1  6  0  0  0
 13  2  1  0  0  0  0
 14 13  1  0  0  0  0
 14  3  1  0  0  0  0
 15  4  1  0  0  0  0
 16 17  1  1  0  0  0
 18 16  1  0  0  0  0
 19 18  1  0  0  0  0
 20 19  2  0  0  0  0
 21 19  1  0  0  0  0
 22 21  1  0  0  0  0
 23 24  1  0  0  0  0
 23 25  2  0  0  0  0
 24 22  1  0  0  0  0
 26 23  1  0  0  0  0
 27 31  1  0  0  0  0
 28 30  2  0  0  0  0
 29 27  2  0  0  0  0
 29 28  1  0  0  0  0
 30 26  1  0  0  0  0
 31 26  2  0  0  0  0
 32 22  1  0  0  0  0
 32 34  1  0  0  0  0
 33 34  1  0  0  0  0
 36 39  1  0  0  0  0
 37 36  2  0  0  0  0
 38 40  1  0  0  0  0
 40 39  2  0  0  0  0
 40 35  1  0  0  0  0
 41 37  1  0  0  0  0
 41 38  2  0  0  0  0
 42 37  1  0  0  0  0
 43 42  1  0  0  0  0
M  END
>  <MODEL>
3

>  <REMARK>
 VINA RESULT:      -8.4      3.087      7.654
  Name = 
  11 active torsions:
  status: ('A' for Active; 'I' for Inactive)
    1  A    between atoms: N_1  and  C_34
    2  A    between atoms: N_1  and  C_35
    3  A    between atoms: C_2  and  N_6
    4  A    between atoms: C_2  and  C_13
    5  A    between atoms: C_3  and  N_4
    6  A    between atoms: C_3  and  C_12
    7  A    between atoms: N_4  and  C_15
    8  A    between atoms: N_4  and  N_22
    9  A    between atoms: C_11  and  C_14
   10  A    between atoms: C_15  and  C_42
   11  A    between atoms: C_19  and  O_25
                            x       y       z     vdW  Elec       q    Type
                         _______ _______ _______ _____ _____    ______ ____

>  <TORSDO>
F 11

$$$$
=
 OpenBabel10272414193D

 43 47  0  0  1  0  0  0  0  0999 V2000
  191.1430  176.7350  146.8280 C   0  0  0  0  0  0  0  0  0  0  0  0
  187.8310  177.9190  143.1560 N   0  0  2  0  0  0  0  0  0  0  0  0
  189.1660  178.1590  140.7460 C   0  0  2  0  0  3  0  0  0  0  0  0
  189.1460  177.3240  145.5870 C   0  0  0  0  0  0  0  0  0  0  0  0
  191.7850  176.3900  145.6370 C   0  0  0  0  0  3  0  0  0  0  0  0
  191.7950  176.6130  148.0080 F   0  0  0  0  0  0  0  0  0  0  0  0
  189.8020  177.0170  144.3760 C   0  0  0  0  0  0  0  0  0  0  0  0
  189.8260  177.1990  146.8020 C   0  0  0  0  0  3  0  0  0  0  0  0
  191.1150  176.5210  144.4180 C   0  0  0  0  0  3  0  0  0  0  0  0
  189.9630  177.6280  141.9450 C   0  0  0  0  0  2  0  0  0  0  0  0
  189.0520  177.0920  143.0600 C   0  0  2  0  0  3  0  0  0  0  0  0
  187.0380  177.4560  144.2920 C   0  0  0  0  0  2  0  0  0  0  0  0
  186.9870  177.7680  141.9540 C   0  0  2  0  0  3  0  0  0  0  0  0
  187.7860  177.5130  140.6650 C   0  0  0  0  0  2  0  0  0  0  0  0
  187.7380  177.8350  145.5890 C   0  0  0  0  0  2  0  0  0  0  0  0
  189.9280  178.0160  139.4280 C   0  0  2  0  0  3  0  0  0  0  0  0
  189.2470  178.7710  138.2910 C   0  0  0  0  0  1  0  0  0  0  0  0
  190.0670  176.6060  139.0860 N   0  0  0  0  0  2  0  0  0  0  0  0
  191.1260  176.1050  138.2680 C   0  0  0  0  0  0  0  0  0  0  0  0
  192.0260  176.8750  137.8400 O   0  0  0  0  0  0  0  0  0  0  0  0
  191.1530  174.6500  137.8920 C   0  0  0  0  0  2  0  0  0  0  0  0
  190.4070  174.3400  136.6640 N   0  0  0  0  0  0  0  0  0  0  0  0
  187.9980  174.9230  136.6810 C   0  0  0  0  0  0  0  0  0  0  0  0
  189.0760  174.0400  137.0040 N   0  0  0  0  0  2  0  0  0  0  0  0
  188.2370  176.0340  136.1360 O   0  0  0  0  0  0  0  0  0  0  0  0
  186.6110  174.5370  136.9930 C   0  0  0  0  0  0  0  0  0  0  0  0
  184.2620  175.1150  137.2270 C   0  0  0  0  0  3  0  0  0  0  0  0
  184.9920  172.8460  137.6480 C   0  0  0  0  0  3  0  0  0  0  0  0
  183.9700  173.7960  137.5840 C   0  0  0  0  0  3  0  0  0  0  0  0
  186.3080  173.2150  137.3530 C   0  0  0  0  0  3  0  0  0  0  0  0
  185.5780  175.4840  136.9330 C   0  0  0  0  0  3  0  0  0  0  0  0
  190.9920  173.1610  136.0320 C   0  0  0  0  0  2  0  0  0  0  0  0
  193.0460  174.3560  134.6640 S   0  0  0  0  0  1  0  0  0  0  0  0
  191.4510  173.4890  134.6220 C   0  0  0  0  0  2  0  0  0  0  0  0
  186.1770  178.9670  141.7730 N   0  0  0  0  0  2  0  0  0  0  0  0
  183.2870  179.2440  139.4090 C   0  0  0  0  0  3  0  0  0  0  0  0
  182.2170  178.9190  140.2580 C   0  0  0  0  0  0  0  0  0  0  0  0
  183.7810  178.6340  142.0910 C   0  0  0  0  0  3  0  0  0  0  0  0
  184.5950  179.2620  139.9000 C   0  0  0  0  0  3  0  0  0  0  0  0
  184.8490  178.9510  141.2440 C   0  0  0  0  0  0  0  0  0  0  0  0
  182.4740  178.6150  141.6000 C   0  0  0  0  0  3  0  0  0  0  0  0
  180.8980  178.8880  139.7970 O   0  0  0  0  0  0  0  0  0  0  0  0
  180.2540  177.6880  139.3940 C   0  0  0  0  0  1  0  0  0  0  0  0
  1  6  1  0  0  0  0
  2 12  1  1  0  0  0
  3 16  1  6  0  0  0
  3 10  1  0  0  0  0
  4 15  1  0  0  0  0
  4  8  2  0  0  0  0
  5  1  2  0  0  0  0
  7  9  2  0  0  0  0
  7  4  1  0  0  0  0
  8  1  1  0  0  0  0
  9  5  1  0  0  0  0
 11 10  1  6  0  0  0
 11  2  1  0  0  0  0
 11  7  1  0  0  0  0
 12 15  1  0  0  0  0
 13 35  1  6  0  0  0
 13  2  1  0  0  0  0
 14  3  1  0  0  0  0
 14 13  1  0  0  0  0
 16 17  1  6  0  0  0
 18 16  1  0  0  0  0
 19 18  1  0  0  0  0
 20 19  2  0  0  0  0
 21 19  1  0  0  0  0
 22 24  1  0  0  0  0
 22 21  1  0  0  0  0
 23 26  1  0  0  0  0
 23 24  1  0  0  0  0
 25 23  2  0  0  0  0
 26 30  1  0  0  0  0
 27 29  2  0  0  0  0
 29 28  1  0  0  0  0
 30 28  2  0  0  0  0
 31 26  2  0  0  0  0
 31 27  1  0  0  0  0
 32 22  1  0  0  0  0
 34 33  1  0  0  0  0
 34 32  1  0  0  0  0
 36 39  2  0  0  0  0
 36 37  1  0  0  0  0
 37 41  2  0  0  0  0
 39 40  1  0  0  0  0
 40 35  1  0  0  0  0
 40 38  2  0  0  0  0
 41 38  1  0  0  0  0
 42 37  1  0  0  0  0
 43 42  1  0  0  0  0
M  END
>  <MODEL>
4

>  <REMARK>
 VINA RESULT:      -8.4      2.671      5.674
  Name = 
  11 active torsions:
  status: ('A' for Active; 'I' for Inactive)
    1  A    between atoms: N_1  and  C_34
    2  A    between atoms: N_1  and  C_35
    3  A    between atoms: C_2  and  N_6
    4  A    between atoms: C_2  and  C_13
    5  A    between atoms: C_3  and  N_4
    6  A    between atoms: C_3  and  C_12
    7  A    between atoms: N_4  and  C_15
    8  A    between atoms: N_4  and  N_22
    9  A    between atoms: C_11  and  C_14
   10  A    between atoms: C_15  and  C_42
   11  A    between atoms: C_19  and  O_25
                            x       y       z     vdW  Elec       q    Type
                         _______ _______ _______ _____ _____    ______ ____

>  <TORSDO>
F 11

$$$$
=
 OpenBabel10272414193D

 43 47  0  0  1  0  0  0  0  0999 V2000
  182.2430  178.7950  142.7650 C   0  0  0  0  0  0  0  0  0  0  0  0
  186.6130  177.9680  145.2270 N   0  0  2  0  0  0  0  0  0  0  0  0
  188.3950  176.6850  143.5470 C   0  0  2  0  0  3  0  0  0  0  0  0
  183.9840  178.6510  144.4440 C   0  0  0  0  0  0  0  0  0  0  0  0
  183.1900  178.5860  141.7600 C   0  0  0  0  0  3  0  0  0  0  0  0
  180.9400  178.9710  142.4410 F   0  0  0  0  0  0  0  0  0  0  0  0
  184.9410  178.3980  143.4370 C   0  0  0  0  0  0  0  0  0  0  0  0
  182.6400  178.8290  144.1030 C   0  0  0  0  0  3  0  0  0  0  0  0
  184.5330  178.3980  142.0940 C   0  0  0  0  0  3  0  0  0  0  0  0
  187.0810  177.1840  142.9330 C   0  0  0  0  0  2  0  0  0  0  0  0
  186.4080  178.2640  143.7940 C   0  0  2  0  0  3  0  0  0  0  0  0
  185.8730  178.9460  146.0210 C   0  0  0  0  0  2  0  0  0  0  0  0
  188.0350  178.0990  145.6030 C   0  0  2  0  0  3  0  0  0  0  0  0
  189.0100  177.7290  144.4730 C   0  0  0  0  0  2  0  0  0  0  0  0
  184.3800  178.6820  145.8880 C   0  0  0  0  0  2  0  0  0  0  0  0
  189.3950  176.2190  142.4880 C   0  0  2  0  0  3  0  0  0  0  0  0
  190.7560  175.8910  143.0940 C   0  0  0  0  0  1  0  0  0  0  0  0
  189.5350  177.2390  141.4560 N   0  0  0  0  0  2  0  0  0  0  0  0
  190.0580  176.9630  140.1550 C   0  0  0  0  0  0  0  0  0  0  0  0
  190.3840  175.7910  139.8300 O   0  0  0  0  0  0  0  0  0  0  0  0
  190.2470  178.0860  139.1740 C   0  0  0  0  0  2  0  0  0  0  0  0
  189.7060  177.8020  137.8370 N   0  0  0  0  0  0  0  0  0  0  0  0
  187.2700  178.0410  137.4480 C   0  0  0  0  0  0  0  0  0  0  0  0
  188.3900  177.3240  137.9710 N   0  0  0  0  0  2  0  0  0  0  0  0
  187.4420  179.1660  136.9050 O   0  0  0  0  0  0  0  0  0  0  0  0
  185.9160  177.4690  137.5490 C   0  0  0  0  0  0  0  0  0  0  0  0
  183.5920  177.6590  138.2350 C   0  0  0  0  0  3  0  0  0  0  0  0
  184.3670  175.6400  137.1480 C   0  0  0  0  0  3  0  0  0  0  0  0
  183.3370  176.3780  137.7380 C   0  0  0  0  0  3  0  0  0  0  0  0
  185.6510  176.1840  137.0530 C   0  0  0  0  0  3  0  0  0  0  0  0
  184.8760  178.2030  138.1410 C   0  0  0  0  0  3  0  0  0  0  0  0
  190.5070  176.7580  137.2070 C   0  0  0  0  0  2  0  0  0  0  0  0
  189.9860  174.1090  136.7250 S   0  0  0  0  0  1  0  0  0  0  0  0
  189.6280  175.8530  136.3620 C   0  0  0  0  0  2  0  0  0  0  0  0
  188.3150  177.2540  146.7580 N   0  0  0  0  0  2  0  0  0  0  0  0
  191.7200  175.8480  147.4250 C   0  0  0  0  0  3  0  0  0  0  0  0
  192.1840  176.7320  148.4120 C   0  0  0  0  0  0  0  0  0  0  0  0
  190.0850  177.9430  148.2890 C   0  0  0  0  0  3  0  0  0  0  0  0
  190.4460  176.0130  146.8750 C   0  0  0  0  0  3  0  0  0  0  0  0
  189.6240  177.0660  147.3010 C   0  0  0  0  0  0  0  0  0  0  0  0
  191.3580  177.7780  148.8390 C   0  0  0  0  0  3  0  0  0  0  0  0
  193.4540  176.5970  148.9790 O   0  0  0  0  0  0  0  0  0  0  0  0
  193.8460  177.2880  150.1570 C   0  0  0  0  0  1  0  0  0  0  0  0
  1  8  1  0  0  0  0
  2 13  1  0  0  0  0
  2 12  1  1  0  0  0
  3 16  1  6  0  0  0
  3 14  1  0  0  0  0
  4 15  1  0  0  0  0
  5  9  1  0  0  0  0
  5  1  2  0  0  0  0
  6  1  1  0  0  0  0
  7 11  1  0  0  0  0
  7  4  1  0  0  0  0
  8  4  2  0  0  0  0
  9  7  2  0  0  0  0
 10  3  1  0  0  0  0
 11 10  1  6  0  0  0
 11  2  1  0  0  0  0
 13 35  1  1  0  0  0
 14 13  1  0  0  0  0
 15 12  1  0  0  0  0
 16 17  1  1  0  0  0
 18 16  1  0  0  0  0
 19 18  1  0  0  0  0
 20 19  2  0  0  0  0
 21 19  1  0  0  0  0
 22 24  1  0  0  0  0
 22 21  1  0  0  0  0
 23 26  1  0  0  0  0
 23 24  1  0  0  0  0
 25 23  2  0  0  0  0
 26 31  1  0  0  0  0
 28 29  2  0  0  0  0
 29 27  1  0  0  0  0
 30 28  1  0  0  0  0
 30 26  2  0  0  0  0
 31 27  2  0  0  0  0
 32 22  1  0  0  0  0
 34 33  1  0  0  0  0
 34 32  1  0  0  0  0
 35 40  1  0  0  0  0
 36 37  1  0  0  0  0
 37 41  2  0  0  0  0
 37 42  1  0  0  0  0
 38 41  1  0  0  0  0
 39 40  1  0  0  0  0
 39 36  2  0  0  0  0
 40 38  2  0  0  0  0
 42 43  1  0  0  0  0
M  END
>  <MODEL>
5

>  <REMARK>
 VINA RESULT:      -8.3      3.040      8.778
  Name = 
  11 active torsions:
  status: ('A' for Active; 'I' for Inactive)
    1  A    between atoms: N_1  and  C_34
    2  A    between atoms: N_1  and  C_35
    3  A    between atoms: C_2  and  N_6
    4  A    between atoms: C_2  and  C_13
    5  A    between atoms: C_3  and  N_4
    6  A    between atoms: C_3  and  C_12
    7  A    between atoms: N_4  and  C_15
    8  A    between atoms: N_4  and  N_22
    9  A    between atoms: C_11  and  C_14
   10  A    between atoms: C_15  and  C_42
   11  A    between atoms: C_19  and  O_25
                            x       y       z     vdW  Elec       q    Type
                         _______ _______ _______ _____ _____    ______ ____

>  <TORSDO>
F 11

$$$$
=
 OpenBabel10272414193D

 43 47  0  0  1  0  0  0  0  0999 V2000
  191.2910  176.9300  147.5000 C   0  0  0  0  0  0  0  0  0  0  0  0
  187.1260  177.9430  144.7670 N   0  0  2  0  0  0  0  0  0  0  0  0
  187.8360  178.4280  142.1400 C   0  0  2  0  0  3  0  0  0  0  0  0
  189.0180  177.3710  146.7900 C   0  0  0  0  0  0  0  0  0  0  0  0
  191.6660  176.7060  146.1740 C   0  0  0  0  0  3  0  0  0  0  0  0
  192.2090  176.8190  148.4900 F   0  0  0  0  0  0  0  0  0  0  0  0
  189.3980  177.1880  145.4430 C   0  0  0  0  0  0  0  0  0  0  0  0
  189.9690  177.2590  147.8070 C   0  0  0  0  0  3  0  0  0  0  0  0
  190.7230  176.8260  145.1510 C   0  0  0  0  0  3  0  0  0  0  0  0
  188.9340  177.9250  143.0870 C   0  0  0  0  0  2  0  0  0  0  0  0
  188.3580  177.2490  144.3400 C   0  0  2  0  0  3  0  0  0  0  0  0
  186.6620  177.3490  146.0200 C   0  0  0  0  0  2  0  0  0  0  0  0
  186.0420  177.7630  143.7810 C   0  0  2  0  0  3  0  0  0  0  0  0
  186.5380  177.6510  142.3300 C   0  0  0  0  0  2  0  0  0  0  0  0
  187.6100  177.7360  147.1460 C   0  0  0  0  0  2  0  0  0  0  0  0
  188.2810  178.4250  140.6760 C   0  0  2  0  0  3  0  0  0  0  0  0
  187.1360  178.0660  139.7340 C   0  0  0  0  0  1  0  0  0  0  0  0
  189.3900  177.4970  140.4980 N   0  0  0  0  0  2  0  0  0  0  0  0
  190.1950  177.4650  139.3170 C   0  0  0  0  0  0  0  0  0  0  0  0
  189.9980  178.2870  138.3830 O   0  0  0  0  0  0  0  0  0  0  0  0
  191.2690  176.4240  139.1740 C   0  0  0  0  0  2  0  0  0  0  0  0
  191.2970  175.7780  137.8540 N   0  0  0  0  0  0  0  0  0  0  0  0
  189.2700  174.9810  136.6710 C   0  0  0  0  0  0  0  0  0  0  0  0
  190.2020  174.9020  137.7530 N   0  0  0  0  0  2  0  0  0  0  0  0
  189.3820  175.8960  135.8110 O   0  0  0  0  0  0  0  0  0  0  0  0
  188.1780  173.9980  136.5670 C   0  0  0  0  0  0  0  0  0  0  0  0
  185.8220  173.4340  136.7640 C   0  0  0  0  0  3  0  0  0  0  0  0
  187.4100  171.7480  136.0630 C   0  0  0  0  0  3  0  0  0  0  0  0
  186.0990  172.1250  136.3630 C   0  0  0  0  0  3  0  0  0  0  0  0
  188.4460  172.6810  136.1650 C   0  0  0  0  0  3  0  0  0  0  0  0
  186.8580  174.3680  136.8660 C   0  0  0  0  0  3  0  0  0  0  0  0
  192.5220  174.9920  137.7310 C   0  0  0  0  0  2  0  0  0  0  0  0
  193.8150  175.1820  135.3210 S   0  0  0  0  0  1  0  0  0  0  0  0
  192.5930  174.3350  136.3640 C   0  0  0  0  0  2  0  0  0  0  0  0
  185.1100  178.8820  143.8720 N   0  0  0  0  0  2  0  0  0  0  0  0
  181.4100  179.1280  143.3520 C   0  0  0  0  0  3  0  0  0  0  0  0
  181.3200  178.8880  141.9720 C   0  0  0  0  0  0  0  0  0  0  0  0
  183.7320  178.6470  141.8730 C   0  0  0  0  0  3  0  0  0  0  0  0
  182.6550  179.1270  143.9860 C   0  0  0  0  0  3  0  0  0  0  0  0
  183.8240  178.8920  143.2470 C   0  0  0  0  0  0  0  0  0  0  0  0
  182.4870  178.6480  141.2390 C   0  0  0  0  0  3  0  0  0  0  0  0
  180.0900  178.8850  141.3070 O   0  0  0  0  0  0  0  0  0  0  0  0
  179.9830  178.9160  139.8900 C   0  0  0  0  0  1  0  0  0  0  0  0
  1  8  1  0  0  0  0
  1  6  1  0  0  0  0
  2 12  1  1  0  0  0
  3 16  1  6  0  0  0
  3 14  1  0  0  0  0
  3 10  1  0  0  0  0
  4 15  1  0  0  0  0
  4  8  2  0  0  0  0
  5  1  2  0  0  0  0
  7  4  1  0  0  0  0
  9  7  2  0  0  0  0
  9  5  1  0  0  0  0
 11 10  1  6  0  0  0
 11  2  1  0  0  0  0
 11  7  1  0  0  0  0
 12 15  1  0  0  0  0
 13 35  1  6  0  0  0
 13  2  1  0  0  0  0
 14 13  1  0  0  0  0
 16 17  1  6  0  0  0
 18 16  1  0  0  0  0
 19 18  1  0  0  0  0
 20 19  2  0  0  0  0
 21 19  1  0  0  0  0
 22 21  1  0  0  0  0
 23 24  1  0  0  0  0
 24 22  1  0  0  0  0
 25 23  2  0  0  0  0
 26 23  1  0  0  0  0
 26 31  1  0  0  0  0
 27 31  2  0  0  0  0
 28 30  1  0  0  0  0
 28 29  2  0  0  0  0
 29 27  1  0  0  0  0
 30 26  2  0  0  0  0
 32 22  1  0  0  0  0
 33 34  1  0  0  0  0
 34 32  1  0  0  0  0
 36 39  1  0  0  0  0
 37 36  2  0  0  0  0
 38 40  1  0  0  0  0
 40 35  1  0  0  0  0
 40 39  2  0  0  0  0
 41 38  2  0  0  0  0
 41 37  1  0  0  0  0
 42 37  1  0  0  0  0
 43 42  1  0  0  0  0
M  END
>  <MODEL>
6

>  <REMARK>
 VINA RESULT:      -8.2      2.867      5.641
  Name = 
  11 active torsions:
  status: ('A' for Active; 'I' for Inactive)
    1  A    between atoms: N_1  and  C_34
    2  A    between atoms: N_1  and  C_35
    3  A    between atoms: C_2  and  N_6
    4  A    between atoms: C_2  and  C_13
    5  A    between atoms: C_3  and  N_4
    6  A    between atoms: C_3  and  C_12
    7  A    between atoms: N_4  and  C_15
    8  A    between atoms: N_4  and  N_22
    9  A    between atoms: C_11  and  C_14
   10  A    between atoms: C_15  and  C_42
   11  A    between atoms: C_19  and  O_25
                            x       y       z     vdW  Elec       q    Type
                         _______ _______ _______ _____ _____    ______ ____

>  <TORSDO>
F 11

$$$$
=
 OpenBabel10272414193D

 43 47  0  0  1  0  0  0  0  0999 V2000
  181.3150  179.4770  140.3730 C   0  0  0  0  0  0  0  0  0  0  0  0
  185.9440  178.0550  141.9220 N   0  0  2  0  0  0  0  0  0  0  0  0
  187.5490  177.5700  139.7240 C   0  0  2  0  0  3  0  0  0  0  0  0
  183.2340  178.8300  141.7040 C   0  0  0  0  0  0  0  0  0  0  0  0
  182.1480  179.7000  139.2750 C   0  0  0  0  0  3  0  0  0  0  0  0
  179.9820  179.6870  140.2650 F   0  0  0  0  0  0  0  0  0  0  0  0
  184.0770  179.0130  140.5870 C   0  0  0  0  0  0  0  0  0  0  0  0
  181.8580  179.0460  141.5860 C   0  0  0  0  0  3  0  0  0  0  0  0
  183.5230  179.4780  139.3830 C   0  0  0  0  0  3  0  0  0  0  0  0
  186.1670  178.1850  139.4670 C   0  0  0  0  0  2  0  0  0  0  0  0
  185.5770  178.8400  140.7250 C   0  0  2  0  0  3  0  0  0  0  0  0
  185.2810  178.6370  143.0870 C   0  0  0  0  0  2  0  0  0  0  0  0
  187.3970  178.1200  142.1790 C   0  0  2  0  0  3  0  0  0  0  0  0
  188.2460  178.2400  140.9040 C   0  0  0  0  0  2  0  0  0  0  0  0
  183.7870  178.3570  143.0130 C   0  0  0  0  0  2  0  0  0  0  0  0
  188.4320  177.5760  138.4750 C   0  0  2  0  0  3  0  0  0  0  0  0
  189.3840  178.7690  138.4570 C   0  0  0  0  0  1  0  0  0  0  0  0
  187.6000  177.5760  137.2790 N   0  0  0  0  0  2  0  0  0  0  0  0
  187.9260  176.8300  136.1050 C   0  0  0  0  0  0  0  0  0  0  0  0
  188.9460  176.0920  136.0760 O   0  0  0  0  0  0  0  0  0  0  0  0
  187.0590  176.9470  134.8820 C   0  0  0  0  0  2  0  0  0  0  0  0
  186.0800  175.8600  134.7430 N   0  0  0  0  0  0  0  0  0  0  0  0
  183.8570  176.3300  135.7340 C   0  0  0  0  0  0  0  0  0  0  0  0
  185.2120  175.8850  135.8490 N   0  0  0  0  0  2  0  0  0  0  0  0
  183.4330  176.7740  134.6340 O   0  0  0  0  0  0  0  0  0  0  0  0
  182.9620  176.2740  136.9030 C   0  0  0  0  0  0  0  0  0  0  0  0
  182.6060  175.8410  139.2690 C   0  0  0  0  0  3  0  0  0  0  0  0
  180.7550  176.5530  137.8810 C   0  0  0  0  0  3  0  0  0  0  0  0
  181.2560  176.1720  139.1280 C   0  0  0  0  0  3  0  0  0  0  0  0
  181.6050  176.6040  136.7720 C   0  0  0  0  0  3  0  0  0  0  0  0
  183.4560  175.8920  138.1600 C   0  0  0  0  0  3  0  0  0  0  0  0
  186.7820  174.5800  134.7460 C   0  0  0  0  0  2  0  0  0  0  0  0
  186.8540  171.9750  135.6010 S   0  0  0  0  0  1  0  0  0  0  0  0
  186.1960  173.6570  135.7990 C   0  0  0  0  0  2  0  0  0  0  0  0
  187.8160  176.9300  142.9110 N   0  0  0  0  0  2  0  0  0  0  0  0
  189.6530  177.3730  146.1430 C   0  0  0  0  0  3  0  0  0  0  0  0
  190.9340  176.9250  145.7840 C   0  0  0  0  0  0  0  0  0  0  0  0
  190.1330  176.4910  143.5350 C   0  0  0  0  0  3  0  0  0  0  0  0
  188.6200  177.3780  145.2030 C   0  0  0  0  0  3  0  0  0  0  0  0
  188.8540  176.9310  143.8940 C   0  0  0  0  0  0  0  0  0  0  0  0
  191.1660  176.4870  144.4760 C   0  0  0  0  0  3  0  0  0  0  0  0
  191.9880  176.9050  146.7020 O   0  0  0  0  0  0  0  0  0  0  0  0
  192.2970  175.7640  147.4900 C   0  0  0  0  0  1  0  0  0  0  0  0
  1  8  1  0  0  0  0
  2 13  1  0  0  0  0
  2 12  1  1  0  0  0
  3 16  1  6  0  0  0
  3 14  1  0  0  0  0
  4 15  1  0  0  0  0
  5  9  1  0  0  0  0
  5  1  2  0  0  0  0
  6  1  1  0  0  0  0
  7 11  1  0  0  0  0
  7  4  1  0  0  0  0
  8  4  2  0  0  0  0
  9  7  2  0  0  0  0
 10  3  1  0  0  0  0
 11 10  1  6  0  0  0
 11  2  1  0  0  0  0
 13 35  1  6  0  0  0
 14 13  1  0  0  0  0
 15 12  1  0  0  0  0
 16 17  1  1  0  0  0
 18 16  1  0  0  0  0
 19 18  1  0  0  0  0
 20 19  2  0  0  0  0
 21 19  1  0  0  0  0
 22 32  1  0  0  0  0
 22 21  1  0  0  0  0
 22 24  1  0  0  0  0
 23 24  1  0  0  0  0
 23 26  1  0  0  0  0
 25 23  2  0  0  0  0
 26 31  1  0  0  0  0
 28 29  2  0  0  0  0
 29 27  1  0  0  0  0
 30 26  2  0  0  0  0
 30 28  1  0  0  0  0
 31 27  2  0  0  0  0
 32 34  1  0  0  0  0
 33 34  1  0  0  0  0
 35 40  1  0  0  0  0
 37 36  1  0  0  0  0
 37 42  1  0  0  0  0
 38 40  2  0  0  0  0
 38 41  1  0  0  0  0
 39 36  2  0  0  0  0
 40 39  1  0  0  0  0
 41 37  2  0  0  0  0
 42 43  1  0  0  0  0
M  END
>  <MODEL>
7

>  <REMARK>
 VINA RESULT:      -7.9      3.213      8.504
  Name = 
  11 active torsions:
  status: ('A' for Active; 'I' for Inactive)
    1  A    between atoms: N_1  and  C_34
    2  A    between atoms: N_1  and  C_35
    3  A    between atoms: C_2  and  N_6
    4  A    between atoms: C_2  and  C_13
    5  A    between atoms: C_3  and  N_4
    6  A    between atoms: C_3  and  C_12
    7  A    between atoms: N_4  and  C_15
    8  A    between atoms: N_4  and  N_22
    9  A    between atoms: C_11  and  C_14
   10  A    between atoms: C_15  and  C_42
   11  A    between atoms: C_19  and  O_25
                            x       y       z     vdW  Elec       q    Type
                         _______ _______ _______ _____ _____    ______ ____

>  <TORSDO>
F 11

$$$$
=
 OpenBabel10272414193D

 43 47  0  0  1  0  0  0  0  0999 V2000
  183.4760  171.7250  136.4290 C   0  0  0  0  0  0  0  0  0  0  0  0
  188.0350  173.9730  136.5040 N   0  0  2  0  0  0  0  0  0  0  0  0
  187.7320  176.6660  137.0520 C   0  0  2  0  0  3  0  0  0  0  0  0
  185.8480  172.1960  136.2780 C   0  0  0  0  0  0  0  0  0  0  0  0
  183.2820  172.9120  137.1380 C   0  0  0  0  0  3  0  0  0  0  0  0
  182.4230  170.9170  136.1610 F   0  0  0  0  0  0  0  0  0  0  0  0
  185.6540  173.4170  136.9580 C   0  0  0  0  0  0  0  0  0  0  0  0
  184.7570  171.3680  136.0020 C   0  0  0  0  0  3  0  0  0  0  0  0
  184.3670  173.7500  137.4100 C   0  0  0  0  0  3  0  0  0  0  0  0
  186.4860  175.7780  137.1640 C   0  0  0  0  0  2  0  0  0  0  0  0
  186.8410  174.2910  137.3140 C   0  0  2  0  0  3  0  0  0  0  0  0
  188.2850  172.5350  136.5780 C   0  0  0  0  0  2  0  0  0  0  0  0
  189.2380  174.6440  137.0380 C   0  0  2  0  0  3  0  0  0  0  0  0
  188.9480  176.0050  137.6930 C   0  0  0  0  0  2  0  0  0  0  0  0
  187.2080  171.7930  135.7990 C   0  0  0  0  0  2  0  0  0  0  0  0
  187.5010  178.0710  137.6100 C   0  0  2  0  0  3  0  0  0  0  0  0
  187.8510  179.1540  136.5940 C   0  0  0  0  0  1  0  0  0  0  0  0
  188.2780  178.2540  138.8300 N   0  0  0  0  0  2  0  0  0  0  0  0
  187.6790  178.5040  140.1030 C   0  0  0  0  0  0  0  0  0  0  0  0
  186.4260  178.5320  140.2290 O   0  0  0  0  0  0  0  0  0  0  0  0
  188.5510  178.7630  141.2990 C   0  0  0  0  0  2  0  0  0  0  0  0
  188.9040  177.5500  142.0500 N   0  0  0  0  0  0  0  0  0  0  0  0
  187.9820  177.2890  144.3360 C   0  0  0  0  0  0  0  0  0  0  0  0
  188.9270  177.8540  143.4230 N   0  0  0  0  0  2  0  0  0  0  0  0
  187.0570  176.5480  143.9050 O   0  0  0  0  0  0  0  0  0  0  0  0
  188.0850  177.5800  145.7760 C   0  0  0  0  0  0  0  0  0  0  0  0
  189.3760  177.6030  147.8360 C   0  0  0  0  0  3  0  0  0  0  0  0
  187.0890  178.3970  147.8370 C   0  0  0  0  0  3  0  0  0  0  0  0
  188.2810  178.1390  148.5190 C   0  0  0  0  0  3  0  0  0  0  0  0
  186.9910  178.1180  146.4700 C   0  0  0  0  0  3  0  0  0  0  0  0
  189.2780  177.3250  146.4700 C   0  0  0  0  0  3  0  0  0  0  0  0
  190.2420  177.1160  141.6580 C   0  0  0  0  0  2  0  0  0  0  0  0
  191.6130  175.9780  143.7430 S   0  0  0  0  0  1  0  0  0  0  0  0
  191.2470  177.4520  142.7450 C   0  0  0  0  0  2  0  0  0  0  0  0
  190.2050  174.8380  135.9640 N   0  0  0  0  0  2  0  0  0  0  0  0
  193.8720  175.3510  135.4080 C   0  0  0  0  0  3  0  0  0  0  0  0
  194.3940  174.8630  136.6160 C   0  0  0  0  0  0  0  0  0  0  0  0
  192.1420  174.3670  137.3690 C   0  0  0  0  0  3  0  0  0  0  0  0
  192.4930  175.3470  135.1850 C   0  0  0  0  0  3  0  0  0  0  0  0
  191.6200  174.8580  136.1680 C   0  0  0  0  0  0  0  0  0  0  0  0
  193.5220  174.3710  137.5920 C   0  0  0  0  0  3  0  0  0  0  0  0
  195.7690  174.8570  136.8720 O   0  0  0  0  0  0  0  0  0  0  0  0
  196.3280  174.2990  138.0520 C   0  0  0  0  0  1  0  0  0  0  0  0
  1  5  1  0  0  0  0
  2 12  1  1  0  0  0
  2 13  1  0  0  0  0
  2 11  1  0  0  0  0
  3 10  1  0  0  0  0
  3 16  1  1  0  0  0
  3 14  1  0  0  0  0
  4  7  2  0  0  0  0
  5  9  2  0  0  0  0
  6  1  1  0  0  0  0
  7 11  1  0  0  0  0
  7  9  1  0  0  0  0
  8  4  1  0  0  0  0
  8  1  2  0  0  0  0
 11 10  1  6  0  0  0
 13 35  1  6  0  0  0
 13 14  1  0  0  0  0
 15  4  1  0  0  0  0
 15 12  1  0  0  0  0
 16 17  1  6  0  0  0
 16 18  1  0  0  0  0
 18 19  1  0  0  0  0
 19 20  2  0  0  0  0
 19 21  1  0  0  0  0
 21 22  1  0  0  0  0
 22 24  1  0  0  0  0
 23 26  1  0  0  0  0
 24 23  1  0  0  0  0
 25 23  2  0  0  0  0
 26 31  2  0  0  0  0
 26 30  1  0  0  0  0
 27 29  2  0  0  0  0
 28 29  1  0  0  0  0
 30 28  2  0  0  0  0
 31 27  1  0  0  0  0
 32 22  1  0  0  0  0
 32 34  1  0  0  0  0
 34 33  1  0  0  0  0
 35 40  1  0  0  0  0
 36 37  1  0  0  0  0
 37 42  1  0  0  0  0
 37 41  2  0  0  0  0
 38 41  1  0  0  0  0
 39 36  2  0  0  0  0
 39 40  1  0  0  0  0
 40 38  2  0  0  0  0
 42 43  1  0  0  0  0
M  END
>  <MODEL>
8

>  <REMARK>
 VINA RESULT:      -7.9      4.854      9.060
  Name = 
  11 active torsions:
  status: ('A' for Active; 'I' for Inactive)
    1  A    between atoms: N_1  and  C_34
    2  A    between atoms: N_1  and  C_35
    3  A    between atoms: C_2  and  N_6
    4  A    between atoms: C_2  and  C_13
    5  A    between atoms: C_3  and  N_4
    6  A    between atoms: C_3  and  C_12
    7  A    between atoms: N_4  and  C_15
    8  A    between atoms: N_4  and  N_22
    9  A    between atoms: C_11  and  C_14
   10  A    between atoms: C_15  and  C_42
   11  A    between atoms: C_19  and  O_25
                            x       y       z     vdW  Elec       q    Type
                         _______ _______ _______ _____ _____    ______ ____

>  <TORSDO>
F 11

$$$$
=
 OpenBabel10272414193D

 43 47  0  0  1  0  0  0  0  0999 V2000
  187.4580  177.4930  144.6260 C   0  0  0  0  0  0  0  0  0  0  0  0
  189.9670  176.6480  140.2860 N   0  0  2  0  0  0  0  0  0  0  0  0
  188.3070  177.1750  138.1380 C   0  0  2  0  0  3  0  0  0  0  0  0
  189.1220  176.8840  142.9740 C   0  0  0  0  0  0  0  0  0  0  0  0
  186.7440  178.1960  143.6540 C   0  0  0  0  0  3  0  0  0  0  0  0
  187.0010  177.4500  145.9010 F   0  0  0  0  0  0  0  0  0  0  0  0
  188.3850  177.5580  141.9760 C   0  0  0  0  0  0  0  0  0  0  0  0
  188.6450  176.8410  144.2870 C   0  0  0  0  0  3  0  0  0  0  0  0
  187.2100  178.2370  142.3370 C   0  0  0  0  0  3  0  0  0  0  0  0
  187.7910  177.5440  139.5360 C   0  0  0  0  0  2  0  0  0  0  0  0
  188.9270  177.6610  140.5630 C   0  0  2  0  0  3  0  0  0  0  0  0
  190.9770  176.7090  141.3400 C   0  0  0  0  0  2  0  0  0  0  0  0
  190.6590  176.9280  139.0120 C   0  0  2  0  0  3  0  0  0  0  0  0
  189.7630  177.5910  137.9530 C   0  0  0  0  0  2  0  0  0  0  0  0
  190.3920  176.1670  142.6360 C   0  0  0  0  0  2  0  0  0  0  0  0
  187.4200  177.7310  137.0230 C   0  0  2  0  0  3  0  0  0  0  0  0
  187.8320  179.1440  136.6200 C   0  0  0  0  0  1  0  0  0  0  0  0
  186.0250  177.7120  137.4430 N   0  0  0  0  0  2  0  0  0  0  0  0
  185.1480  176.6160  137.1770 C   0  0  0  0  0  0  0  0  0  0  0  0
  185.5710  175.5820  136.5950 O   0  0  0  0  0  0  0  0  0  0  0  0
  183.7000  176.7060  137.5700 C   0  0  0  0  0  2  0  0  0  0  0  0
  183.2660  178.0650  137.9260 N   0  0  0  0  0  0  0  0  0  0  0  0
  183.3930  178.7610  140.3010 C   0  0  0  0  0  0  0  0  0  0  0  0
  182.7560  178.0510  139.2360 N   0  0  0  0  0  2  0  0  0  0  0  0
  184.4780  179.3680  140.0910 O   0  0  0  0  0  0  0  0  0  0  0  0
  182.7860  178.7770  141.6430 C   0  0  0  0  0  0  0  0  0  0  0  0
  180.8150  178.7980  143.0660 C   0  0  0  0  0  3  0  0  0  0  0  0
  183.0220  178.7960  144.0620 C   0  0  0  0  0  3  0  0  0  0  0  0
  181.6310  178.8030  144.2010 C   0  0  0  0  0  3  0  0  0  0  0  0
  183.5970  178.7820  142.7880 C   0  0  0  0  0  3  0  0  0  0  0  0
  181.3910  178.7850  141.7920 C   0  0  0  0  0  3  0  0  0  0  0  0
  182.1940  178.4770  137.0240 C   0  0  0  0  0  2  0  0  0  0  0  0
  181.0860  180.9120  137.6270 S   0  0  0  0  0  1  0  0  0  0  0  0
  181.0550  179.1040  137.8080 C   0  0  0  0  0  2  0  0  0  0  0  0
  191.1910  175.6850  138.4630 N   0  0  0  0  0  2  0  0  0  0  0  0
  193.3320  175.8420  135.3960 C   0  0  0  0  0  3  0  0  0  0  0  0
  194.5810  175.4830  135.9250 C   0  0  0  0  0  0  0  0  0  0  0  0
  193.5690  175.2640  138.1190 C   0  0  0  0  0  3  0  0  0  0  0  0
  192.2090  175.9110  136.2250 C   0  0  0  0  0  3  0  0  0  0  0  0
  192.3240  175.6270  137.5930 C   0  0  0  0  0  0  0  0  0  0  0  0
  194.6910  175.1950  137.2900 C   0  0  0  0  0  3  0  0  0  0  0  0
  195.7240  175.4090  135.1230 O   0  0  0  0  0  0  0  0  0  0  0  0
  197.0380  175.3690  135.6620 C   0  0  0  0  0  1  0  0  0  0  0  0
  1  6  1  0  0  0  0
  2 11  1  0  0  0  0
  2 12  1  1  0  0  0
  3 16  1  6  0  0  0
  3 10  1  0  0  0  0
  4  8  2  0  0  0  0
  5  1  2  0  0  0  0
  7  9  2  0  0  0  0
  7  4  1  0  0  0  0
  8  1  1  0  0  0  0
  9  5  1  0  0  0  0
 11 10  1  6  0  0  0
 11  7  1  0  0  0  0
 12 15  1  0  0  0  0
 13 35  1  6  0  0  0
 13  2  1  0  0  0  0
 14  3  1  0  0  0  0
 14 13  1  0  0  0  0
 15  4  1  0  0  0  0
 16 17  1  1  0  0  0
 16 18  1  0  0  0  0
 19 18  1  0  0  0  0
 19 21  1  0  0  0  0
 20 19  2  0  0  0  0
 21 22  1  0  0  0  0
 22 24  1  0  0  0  0
 23 26  1  0  0  0  0
 24 23  1  0  0  0  0
 25 23  2  0  0  0  0
 26 31  2  0  0  0  0
 26 30  1  0  0  0  0
 27 29  2  0  0  0  0
 28 29  1  0  0  0  0
 30 28  2  0  0  0  0
 31 27  1  0  0  0  0
 32 34  1  0  0  0  0
 32 22  1  0  0  0  0
 33 34  1  0  0  0  0
 36 37  2  0  0  0  0
 36 39  1  0  0  0  0
 37 41  1  0  0  0  0
 39 40  2  0  0  0  0
 40 38  1  0  0  0  0
 40 35  1  0  0  0  0
 41 38  2  0  0  0  0
 42 43  1  0  0  0  0
 42 37  1  0  0  0  0
M  END
>  <MODEL>
9

>  <REMARK>
 VINA RESULT:      -7.9      3.197      8.890
  Name = 
  11 active torsions:
  status: ('A' for Active; 'I' for Inactive)
    1  A    between atoms: N_1  and  C_34
    2  A    between atoms: N_1  and  C_35
    3  A    between atoms: C_2  and  N_6
    4  A    between atoms: C_2  and  C_13
    5  A    between atoms: C_3  and  N_4
    6  A    between atoms: C_3  and  C_12
    7  A    between atoms: N_4  and  C_15
    8  A    between atoms: N_4  and  N_22
    9  A    between atoms: C_11  and  C_14
   10  A    between atoms: C_15  and  C_42
   11  A    between atoms: C_19  and  O_25
                            x       y       z     vdW  Elec       q    Type
                         _______ _______ _______ _____ _____    ______ ____

>  <TORSDO>
F 11

$$$$
