=
 OpenBabel10272401093D

 27 31  0  0  1  0  0  0  0  0999 V2000
  188.1010  176.9720  143.5470 C   0  0  0  0  0  3  0  0  0  0  0  0
  185.9970  178.1350  144.2180 C   0  0  0  0  0  0  0  0  0  0  0  0
  186.2720  178.7060  141.8200 C   0  0  0  0  0  3  0  0  0  0  0  0
  181.8930  179.2230  143.2820 C   0  0  0  0  0  2  0  0  0  0  0  0
  180.9250  178.6810  141.1120 O   0  0  0  0  0  0  0  0  0  0  0  0
  185.1380  178.7710  145.2570 C   0  0  0  0  0  3  0  0  0  0  0  0
  183.2050  178.2270  141.5220 N   0  0  0  0  0  0  0  0  0  0  0  0
  189.4300  178.4410  138.4760 O   0  0  0  0  0  0  0  0  0  0  0  0
  183.5260  177.4260  140.3520 C   0  0  0  0  0  1  0  0  0  0  0  0
  189.1080  178.1480  139.6560 C   0  0  0  0  0  0  0  0  0  0  0  0
  184.0010  178.3830  142.6860 C   0  0  0  0  0  0  0  0  0  0  0  0
  187.2170  177.6360  144.5400 C   0  0  0  0  0  0  0  0  0  0  0  0
  181.9200  178.7080  141.8830 C   0  0  0  0  0  0  0  0  0  0  0  0
  183.3090  178.9340  143.6780 C   0  0  0  0  0  0  0  0  0  0  0  0
  188.2430  177.2670  142.2480 C   0  0  0  0  0  0  0  0  0  0  0  0
  185.4430  177.9620  142.8110 C   0  0  2  0  0  3  0  0  0  0  0  0
  188.2320  179.0870  140.4370 C   0  0  0  0  0  2  0  0  0  0  0  0
  183.8850  179.1500  145.0070 C   0  0  0  0  0  3  0  0  0  0  0  0
  189.6520  176.9260  140.2740 C   0  0  0  0  0  3  0  0  0  0  0  0
  189.2650  176.5290  141.4890 C   0  0  0  0  0  3  0  0  0  0  0  0
  187.5350  178.3760  141.5560 C   0  0  0  0  0  0  0  0  0  0  0  0
  188.7780  177.8130  148.5350 C   0  0  0  0  0  3  0  0  0  0  0  0
  187.7390  177.6720  145.9280 C   0  0  0  0  0  0  0  0  0  0  0  0
  186.9320  178.1010  146.9960 C   0  0  0  0  0  3  0  0  0  0  0  0
  187.4480  178.1660  148.2930 C   0  0  0  0  0  3  0  0  0  0  0  0
  189.5940  177.3990  147.4780 C   0  0  0  0  0  3  0  0  0  0  0  0
  189.0780  177.3340  146.1810 C   0  0  0  0  0  3  0  0  0  0  0  0
  1 12  1  0  0  0  0
  2 12  2  0  0  0  0
  2  6  1  0  0  0  0
  4 14  1  0  0  0  0
  5 13  2  0  0  0  0
  7 13  1  0  0  0  0
  7 11  1  0  0  0  0
  8 10  2  0  0  0  0
  9  7  1  0  0  0  0
 10 19  1  0  0  0  0
 10 17  1  0  0  0  0
 11 16  1  0  0  0  0
 11 14  2  0  0  0  0
 12 23  1  0  0  0  0
 13  4  1  0  0  0  0
 14 18  1  0  0  0  0
 15  1  2  0  0  0  0
 16  3  1  6  0  0  0
 16  2  1  0  0  0  0
 17 21  1  0  0  0  0
 18  6  2  0  0  0  0
 19 20  2  0  0  0  0
 20 15  1  0  0  0  0
 21  3  2  0  0  0  0
 21 15  1  0  0  0  0
 23 27  2  0  0  0  0
 23 24  1  0  0  0  0
 24 25  2  0  0  0  0
 25 22  1  0  0  0  0
 26 22  2  0  0  0  0
 27 26  1  0  0  0  0
M  END
>  <MODEL>
1

>  <REMARK>
 VINA RESULT:     -11.5      0.000      0.000
  Name = 
  1 active torsions:
  status: ('A' for Active; 'I' for Inactive)
    1  A    between atoms: C_9  and  C_15
                            x       y       z     vdW  Elec       q    Type
                         _______ _______ _______ _____ _____    ______ ____

>  <TORSDO>
F 1

$$$$
=
 OpenBabel10272401093D

 27 31  0  0  1  0  0  0  0  0999 V2000
  189.1240  176.6230  142.7550 C   0  0  0  0  0  3  0  0  0  0  0  0
  187.3690  177.7590  144.1190 C   0  0  0  0  0  0  0  0  0  0  0  0
  187.0450  178.6610  141.8310 C   0  0  0  0  0  3  0  0  0  0  0  0
  183.2620  179.1350  144.4850 C   0  0  0  0  0  2  0  0  0  0  0  0
  181.7150  178.9530  142.6090 O   0  0  0  0  0  0  0  0  0  0  0  0
  186.8670  178.2700  145.4250 C   0  0  0  0  0  3  0  0  0  0  0  0
  183.9800  178.3530  142.3200 N   0  0  0  0  0  0  0  0  0  0  0  0
  189.1770  178.7600  137.7480 O   0  0  0  0  0  0  0  0  0  0  0  0
  183.9180  177.7180  141.0140 C   0  0  0  0  0  1  0  0  0  0  0  0
  189.1570  178.3110  138.9230 C   0  0  0  0  0  0  0  0  0  0  0  0
  185.0650  178.3070  143.2330 C   0  0  0  0  0  0  0  0  0  0  0  0
  188.5890  177.1710  144.0290 C   0  0  0  0  0  0  0  0  0  0  0  0
  182.8780  178.8280  143.0760 C   0  0  0  0  0  0  0  0  0  0  0  0
  184.7050  178.7350  144.4390 C   0  0  0  0  0  0  0  0  0  0  0  0
  188.9410  177.0980  141.5160 C   0  0  0  0  0  0  0  0  0  0  0  0
  186.4510  177.8140  142.9060 C   0  0  2  0  0  3  0  0  0  0  0  0
  188.5930  179.1610  140.0280 C   0  0  0  0  0  2  0  0  0  0  0  0
  185.6260  178.7320  145.5770 C   0  0  0  0  0  3  0  0  0  0  0  0
  189.7470  176.9910  139.2060 C   0  0  0  0  0  3  0  0  0  0  0  0
  189.6660  176.4380  140.4180 C   0  0  0  0  0  3  0  0  0  0  0  0
  188.1630  178.3230  141.1920 C   0  0  0  0  0  0  0  0  0  0  0  0
  191.1470  176.7100  147.4450 C   0  0  0  0  0  3  0  0  0  0  0  0
  189.4600  176.9830  145.2150 C   0  0  0  0  0  0  0  0  0  0  0  0
  188.9420  177.0770  146.5180 C   0  0  0  0  0  3  0  0  0  0  0  0
  189.7810  176.9360  147.6260 C   0  0  0  0  0  3  0  0  0  0  0  0
  191.6760  176.6290  146.1530 C   0  0  0  0  0  3  0  0  0  0  0  0
  190.8370  176.7700  145.0440 C   0  0  0  0  0  3  0  0  0  0  0  0
  1 12  1  0  0  0  0
  2  6  1  0  0  0  0
  5 13  2  0  0  0  0
  6 18  2  0  0  0  0
  7 13  1  0  0  0  0
  7 11  1  0  0  0  0
  8 10  2  0  0  0  0
  9  7  1  0  0  0  0
 10 19  1  0  0  0  0
 10 17  1  0  0  0  0
 11 14  2  0  0  0  0
 12  2  2  0  0  0  0
 12 23  1  0  0  0  0
 13  4  1  0  0  0  0
 14  4  1  0  0  0  0
 14 18  1  0  0  0  0
 15  1  2  0  0  0  0
 16  3  1  6  0  0  0
 16 11  1  0  0  0  0
 16  2  1  0  0  0  0
 17 21  1  0  0  0  0
 19 20  2  0  0  0  0
 20 15  1  0  0  0  0
 21 15  1  0  0  0  0
 21  3  2  0  0  0  0
 22 25  1  0  0  0  0
 23 24  1  0  0  0  0
 24 25  2  0  0  0  0
 26 22  2  0  0  0  0
 27 23  2  0  0  0  0
 27 26  1  0  0  0  0
M  END
>  <MODEL>
2

>  <REMARK>
 VINA RESULT:     -11.1      1.098      1.620
  Name = 
  1 active torsions:
  status: ('A' for Active; 'I' for Inactive)
    1  A    between atoms: C_9  and  C_15
                            x       y       z     vdW  Elec       q    Type
                         _______ _______ _______ _____ _____    ______ ____

>  <TORSDO>
F 1

$$$$
=
 OpenBabel10272401093D

 27 31  0  0  1  0  0  0  0  0999 V2000
  187.1140  178.7650  141.4850 C   0  0  0  0  0  3  0  0  0  0  0  0
  187.0670  177.8690  143.8140 C   0  0  0  0  0  0  0  0  0  0  0  0
  189.1240  176.8960  142.8260 C   0  0  0  0  0  3  0  0  0  0  0  0
  189.2150  176.9130  147.4710 C   0  0  0  0  0  2  0  0  0  0  0  0
  191.6370  177.1550  147.5920 O   0  0  0  0  0  0  0  0  0  0  0  0
  186.3160  177.4690  145.0380 C   0  0  0  0  0  3  0  0  0  0  0  0
  190.5260  177.5200  145.5410 N   0  0  0  0  0  0  0  0  0  0  0  0
  191.1710  176.4030  138.7280 O   0  0  0  0  0  0  0  0  0  0  0  0
  191.6070  178.0970  144.7570 C   0  0  0  0  0  1  0  0  0  0  0  0
  190.2250  176.9050  139.3870 C   0  0  0  0  0  0  0  0  0  0  0  0
  189.1490  177.5050  145.2020 C   0  0  0  0  0  0  0  0  0  0  0  0
  186.4100  178.3320  142.7200 C   0  0  0  0  0  0  0  0  0  0  0  0
  190.5730  177.1900  146.9200 C   0  0  0  0  0  0  0  0  0  0  0  0
  188.3950  177.1700  146.2440 C   0  0  0  0  0  0  0  0  0  0  0  0
  188.2320  178.2530  140.9550 C   0  0  0  0  0  0  0  0  0  0  0  0
  188.5880  177.8450  143.8450 C   0  0  2  0  0  3  0  0  0  0  0  0
  189.6800  176.1660  140.5780 C   0  0  0  0  0  2  0  0  0  0  0  0
  186.9330  177.1370  146.1720 C   0  0  0  0  0  3  0  0  0  0  0  0
  189.6230  178.1740  138.9410 C   0  0  0  0  0  3  0  0  0  0  0  0
  188.6800  178.7880  139.6590 C   0  0  0  0  0  3  0  0  0  0  0  0
  188.9750  177.0950  141.5180 C   0  0  0  0  0  0  0  0  0  0  0  0
  182.1530  178.8800  142.6550 C   0  0  0  0  0  3  0  0  0  0  0  0
  184.9350  178.4900  142.6980 C   0  0  0  0  0  0  0  0  0  0  0  0
  184.1950  178.2230  141.5330 C   0  0  0  0  0  3  0  0  0  0  0  0
  182.8110  178.4130  141.5140 C   0  0  0  0  0  3  0  0  0  0  0  0
  182.8820  179.1630  143.8140 C   0  0  0  0  0  3  0  0  0  0  0  0
  184.2660  178.9740  143.8330 C   0  0  0  0  0  3  0  0  0  0  0  0
  1 12  1  0  0  0  0
  2 16  1  0  0  0  0
  2  6  1  0  0  0  0
  6 18  2  0  0  0  0
  7 13  1  0  0  0  0
  8 10  2  0  0  0  0
  9  7  1  0  0  0  0
 10 17  1  0  0  0  0
 11  7  1  0  0  0  0
 11 14  2  0  0  0  0
 12  2  2  0  0  0  0
 13  4  1  0  0  0  0
 13  5  2  0  0  0  0
 14  4  1  0  0  0  0
 15  1  2  0  0  0  0
 15 21  1  0  0  0  0
 16  3  1  6  0  0  0
 16 11  1  0  0  0  0
 17 21  1  0  0  0  0
 18 14  1  0  0  0  0
 19 10  1  0  0  0  0
 19 20  2  0  0  0  0
 20 15  1  0  0  0  0
 21  3  2  0  0  0  0
 22 26  1  0  0  0  0
 23 12  1  0  0  0  0
 23 27  1  0  0  0  0
 24 23  2  0  0  0  0
 25 24  1  0  0  0  0
 25 22  2  0  0  0  0
 26 27  2  0  0  0  0
M  END
>  <MODEL>
3

>  <REMARK>
 VINA RESULT:     -10.8      2.865      5.944
  Name = 
  1 active torsions:
  status: ('A' for Active; 'I' for Inactive)
    1  A    between atoms: C_9  and  C_15
                            x       y       z     vdW  Elec       q    Type
                         _______ _______ _______ _____ _____    ______ ____

>  <TORSDO>
F 1

$$$$
=
 OpenBabel10272401093D

 27 31  0  0  1  0  0  0  0  0999 V2000
  187.1130  177.3780  143.7080 C   0  0  0  0  0  3  0  0  0  0  0  0
  186.6500  178.1450  141.3780 C   0  0  0  0  0  0  0  0  0  0  0  0
  189.1030  178.4130  141.6340 C   0  0  0  0  0  3  0  0  0  0  0  0
  187.7910  178.1820  137.1840 C   0  0  0  0  0  2  0  0  0  0  0  0
  189.8690  177.1400  136.4490 O   0  0  0  0  0  0  0  0  0  0  0  0
  185.7290  178.7240  140.3590 C   0  0  0  0  0  3  0  0  0  0  0  0
  189.3660  177.2490  138.7530 N   0  0  0  0  0  0  0  0  0  0  0  0
  192.3280  178.3570  144.9230 O   0  0  0  0  0  0  0  0  0  0  0  0
  190.3990  176.3760  139.2880 C   0  0  0  0  0  1  0  0  0  0  0  0
  191.1220  178.1740  144.6180 C   0  0  0  0  0  0  0  0  0  0  0  0
  188.2280  177.7370  139.4450 C   0  0  1  0  0  3  0  0  0  0  0  0
  186.2410  177.9720  142.6610 C   0  0  0  0  0  0  0  0  0  0  0  0
  189.0980  177.4900  137.3810 C   0  0  0  0  0  0  0  0  0  0  0  0
  187.3380  178.2630  138.6090 C   0  0  0  0  0  0  0  0  0  0  0  0
  188.4390  177.5080  143.8430 C   0  0  0  0  0  0  0  0  0  0  0  0
  188.0220  177.6580  140.9360 C   0  0  0  0  0  0  0  0  0  0  0  0
  190.5010  179.0050  143.5300 C   0  0  0  0  0  2  0  0  0  0  0  0
  186.0490  178.7860  139.0670 C   0  0  0  0  0  3  0  0  0  0  0  0
  190.3210  177.1980  145.3780 C   0  0  0  0  0  3  0  0  0  0  0  0
  189.0660  176.9060  145.0300 C   0  0  0  0  0  3  0  0  0  0  0  0
  189.2980  178.3280  142.9490 C   0  0  0  0  0  0  0  0  0  0  0  0
  182.2910  179.0580  143.9430 C   0  0  0  0  0  3  0  0  0  0  0  0
  184.8670  178.3170  143.1010 C   0  0  0  0  0  0  0  0  0  0  0  0
  183.7990  178.3470  142.1880 C   0  0  0  0  0  3  0  0  0  0  0  0
  182.5170  178.7110  142.6090 C   0  0  0  0  0  3  0  0  0  0  0  0
  183.3490  179.0470  144.8560 C   0  0  0  0  0  3  0  0  0  0  0  0
  184.6310  178.6830  144.4360 C   0  0  0  0  0  3  0  0  0  0  0  0
  1 15  1  0  0  0  0
  2 12  1  0  0  0  0
  3 21  1  0  0  0  0
  4 13  1  0  0  0  0
  4 14  1  0  0  0  0
  5 13  2  0  0  0  0
  6  2  2  0  0  0  0
  7  9  1  0  0  0  0
  7 11  1  0  0  0  0
 10  8  2  0  0  0  0
 10 19  1  0  0  0  0
 11 14  1  6  0  0  0
 11 16  1  0  0  0  0
 12 23  1  0  0  0  0
 12  1  2  0  0  0  0
 13  7  1  0  0  0  0
 14 18  2  0  0  0  0
 15 20  1  0  0  0  0
 16  2  1  0  0  0  0
 16  3  2  0  0  0  0
 17 10  1  0  0  0  0
 18  6  1  0  0  0  0
 20 19  2  0  0  0  0
 21 17  1  0  0  0  0
 21 15  2  0  0  0  0
 22 26  1  0  0  0  0
 23 27  1  0  0  0  0
 24 25  1  0  0  0  0
 24 23  2  0  0  0  0
 25 22  2  0  0  0  0
 27 26  2  0  0  0  0
M  END
>  <MODEL>
4

>  <REMARK>
 VINA RESULT:      -9.4      2.905      5.772
  Name = 
  1 active torsions:
  status: ('A' for Active; 'I' for Inactive)
    1  A    between atoms: C_9  and  C_15
                            x       y       z     vdW  Elec       q    Type
                         _______ _______ _______ _____ _____    ______ ____

>  <TORSDO>
F 1

$$$$
=
 OpenBabel10272401093D

 27 31  0  0  1  0  0  0  0  0999 V2000
  186.3530  177.2720  145.0440 C   0  0  0  0  0  3  0  0  0  0  0  0
  186.9200  178.0390  142.7370 C   0  0  0  0  0  0  0  0  0  0  0  0
  189.0830  178.0960  143.9500 C   0  0  0  0  0  3  0  0  0  0  0  0
  189.6300  177.9080  139.3410 C   0  0  0  0  0  2  0  0  0  0  0  0
  191.7300  176.6780  139.4700 O   0  0  0  0  0  0  0  0  0  0  0  0
  186.5320  178.6780  141.4490 C   0  0  0  0  0  3  0  0  0  0  0  0
  190.3660  176.8680  141.3870 N   0  0  0  0  0  0  0  0  0  0  0  0
  190.7220  177.8140  148.2470 O   0  0  0  0  0  0  0  0  0  0  0  0
  191.0230  175.9170  142.2700 C   0  0  0  0  0  1  0  0  0  0  0  0
  189.7250  177.7310  147.4850 C   0  0  0  0  0  0  0  0  0  0  0  0
  189.0940  177.4640  141.5810 C   0  0  1  0  0  3  0  0  0  0  0  0
  186.0230  177.9220  143.7490 C   0  0  0  0  0  0  0  0  0  0  0  0
  190.6860  177.1080  140.0260 C   0  0  0  0  0  0  0  0  0  0  0  0
  188.6570  178.0510  140.4710 C   0  0  0  0  0  0  0  0  0  0  0  0
  187.5230  177.2880  145.6970 C   0  0  0  0  0  0  0  0  0  0  0  0
  188.3070  177.4270  142.8670 C   0  0  0  0  0  0  0  0  0  0  0  0
  189.6610  178.5950  146.2560 C   0  0  0  0  0  2  0  0  0  0  0  0
  187.3430  178.6910  140.3900 C   0  0  0  0  0  3  0  0  0  0  0  0
  188.6070  176.8410  147.8460 C   0  0  0  0  0  3  0  0  0  0  0  0
  187.5730  176.6530  147.0230 C   0  0  0  0  0  3  0  0  0  0  0  0
  188.7330  178.0160  145.2320 C   0  0  0  0  0  0  0  0  0  0  0  0
  181.9430  179.1960  143.3460 C   0  0  0  0  0  3  0  0  0  0  0  0
  184.6220  178.3920  143.6150 C   0  0  0  0  0  0  0  0  0  0  0  0
  183.8790  178.7880  144.7410 C   0  0  0  0  0  3  0  0  0  0  0  0
  182.5480  179.1920  144.6050 C   0  0  0  0  0  3  0  0  0  0  0  0
  182.6680  178.7880  142.2220 C   0  0  0  0  0  3  0  0  0  0  0  0
  183.9990  178.3840  142.3580 C   0  0  0  0  0  3  0  0  0  0  0  0
  1 15  1  0  0  0  0
  2 16  1  0  0  0  0
  2 12  1  0  0  0  0
  3 21  1  0  0  0  0
  4 13  1  0  0  0  0
  4 14  1  0  0  0  0
  5 13  2  0  0  0  0
  6  2  2  0  0  0  0
  7 11  1  0  0  0  0
  7  9  1  0  0  0  0
 10 19  1  0  0  0  0
 10  8  2  0  0  0  0
 11 14  1  6  0  0  0
 11 16  1  0  0  0  0
 12  1  2  0  0  0  0
 13  7  1  0  0  0  0
 15 20  1  0  0  0  0
 16  3  2  0  0  0  0
 17 10  1  0  0  0  0
 18 14  2  0  0  0  0
 18  6  1  0  0  0  0
 20 19  2  0  0  0  0
 21 15  2  0  0  0  0
 21 17  1  0  0  0  0
 22 25  1  0  0  0  0
 23 12  1  0  0  0  0
 23 24  1  0  0  0  0
 25 24  2  0  0  0  0
 26 27  1  0  0  0  0
 26 22  2  0  0  0  0
 27 23  2  0  0  0  0
M  END
>  <MODEL>
5

>  <REMARK>
 VINA RESULT:      -9.2      2.809      6.460
  Name = 
  1 active torsions:
  status: ('A' for Active; 'I' for Inactive)
    1  A    between atoms: C_9  and  C_15
                            x       y       z     vdW  Elec       q    Type
                         _______ _______ _______ _____ _____    ______ ____

>  <TORSDO>
F 1

$$$$
=
 OpenBabel10272401093D

 27 31  0  0  1  0  0  0  0  0999 V2000
  188.9780  178.7090  141.4700 C   0  0  0  0  0  3  0  0  0  0  0  0
  186.6630  178.3190  140.6250 C   0  0  1  0  0  3  0  0  0  0  0  0
  186.5500  177.7010  143.0250 C   0  0  0  0  0  3  0  0  0  0  0  0
  182.3740  178.6800  141.2400 C   0  0  0  0  0  2  0  0  0  0  0  0
  181.4850  179.5270  143.3460 O   0  0  0  0  0  0  0  0  0  0  0  0
  185.7200  178.0040  139.5140 C   0  0  0  0  0  3  0  0  0  0  0  0
  183.8090  179.1860  143.1100 N   0  0  0  0  0  0  0  0  0  0  0  0
  189.3540  176.9040  146.5920 O   0  0  0  0  0  0  0  0  0  0  0  0
  184.2920  179.8380  144.3170 C   0  0  0  0  0  1  0  0  0  0  0  0
  189.2390  177.2820  145.3980 C   0  0  0  0  0  0  0  0  0  0  0  0
  184.5910  178.7650  142.0040 C   0  0  0  0  0  0  0  0  0  0  0  0
  188.0000  178.3760  140.4020 C   0  0  0  0  0  0  0  0  0  0  0  0
  182.4680  179.1630  142.6480 C   0  0  0  0  0  0  0  0  0  0  0  0
  183.8300  178.4740  140.9530 C   0  0  0  0  0  0  0  0  0  0  0  0
  188.9160  178.3890  142.7690 C   0  0  0  0  0  0  0  0  0  0  0  0
  186.0950  178.6760  141.9910 C   0  0  0  0  0  0  0  0  0  0  0  0
  188.1590  176.6890  144.5370 C   0  0  0  0  0  2  0  0  0  0  0  0
  184.3970  178.0700  139.6660 C   0  0  0  0  0  3  0  0  0  0  0  0
  190.2060  178.2470  144.8460 C   0  0  0  0  0  3  0  0  0  0  0  0
  190.0670  178.7440  143.6150 C   0  0  0  0  0  3  0  0  0  0  0  0
  187.8270  177.5880  143.3850 C   0  0  0  0  0  0  0  0  0  0  0  0
  189.6130  177.6950  136.4830 C   0  0  0  0  0  3  0  0  0  0  0  0
  188.5820  178.1600  139.0540 C   0  0  0  0  0  0  0  0  0  0  0  0
  188.5290  179.1630  138.0720 C   0  0  0  0  0  3  0  0  0  0  0  0
  189.0470  178.9330  136.7950 C   0  0  0  0  0  3  0  0  0  0  0  0
  189.6570  176.6830  137.4470 C   0  0  0  0  0  3  0  0  0  0  0  0
  189.1390  176.9140  138.7250 C   0  0  0  0  0  3  0  0  0  0  0  0
  1 15  1  0  0  0  0
  2  6  1  6  0  0  0
  2 16  1  0  0  0  0
  3 21  1  0  0  0  0
  4 13  1  0  0  0  0
  6 18  2  0  0  0  0
  7  9  1  0  0  0  0
 10  8  2  0  0  0  0
 11  7  1  0  0  0  0
 12  2  1  0  0  0  0
 12  1  2  0  0  0  0
 13  7  1  0  0  0  0
 13  5  2  0  0  0  0
 14  4  1  0  0  0  0
 14 11  2  0  0  0  0
 15 21  2  0  0  0  0
 15 20  1  0  0  0  0
 16 11  1  0  0  0  0
 16  3  2  0  0  0  0
 17 10  1  0  0  0  0
 18 14  1  0  0  0  0
 19 10  1  0  0  0  0
 20 19  2  0  0  0  0
 21 17  1  0  0  0  0
 22 25  2  0  0  0  0
 22 26  1  0  0  0  0
 23 12  1  0  0  0  0
 24 23  2  0  0  0  0
 25 24  1  0  0  0  0
 26 27  2  0  0  0  0
 27 23  1  0  0  0  0
M  END
>  <MODEL>
6

>  <REMARK>
 VINA RESULT:      -8.5      2.314      5.734
  Name = 
  1 active torsions:
  status: ('A' for Active; 'I' for Inactive)
    1  A    between atoms: C_9  and  C_15
                            x       y       z     vdW  Elec       q    Type
                         _______ _______ _______ _____ _____    ______ ____

>  <TORSDO>
F 1

$$$$
