=
 OpenBabel10262423453D

 34 38  0  0  1  0  0  0  0  0999 V2000
  189.9100  176.8490  141.7530 C   0  0  1  0  0  0  0  0  0  0  0  0
  187.7770  178.0980  140.5170 S   0  0  0  0  0  0  0  0  0  0  0  0
  188.7370  176.7750  142.7160 C   0  0  0  0  0  2  0  0  0  0  0  0
  190.5910  175.6310  141.7520 O   0  0  0  0  0  1  0  0  0  0  0  0
  187.7440  177.8580  142.3250 C   0  0  2  0  0  3  0  0  0  0  0  0
  189.2880  177.0810  140.3790 C   0  0  1  0  0  3  0  0  0  0  0  0
  190.9490  175.4730  137.7650 C   0  0  0  0  0  0  0  0  0  0  0  0
  192.6730  176.6330  139.0740 C   0  0  0  0  0  0  0  0  0  0  0  0
  190.2590  177.4490  139.2450 C   0  0  1  0  0  3  0  0  0  0  0  0
  193.2880  174.7400  137.6310 C   0  0  0  0  0  3  0  0  0  0  0  0
  193.6640  175.7970  138.3640 C   0  0  0  0  0  3  0  0  0  0  0  0
  191.2140  176.2670  139.0140 C   0  0  1  0  0  3  0  0  0  0  0  0
  191.8450  174.3070  137.5110 C   0  0  0  0  0  2  0  0  0  0  0  0
  189.5750  177.9480  137.9880 C   0  0  0  0  0  0  0  0  0  0  0  0
  190.1900  175.9550  136.7850 C   0  0  0  0  0  3  0  0  0  0  0  0
  193.0650  177.6020  139.7770 O   0  0  0  0  0  0  0  0  0  0  0  0
  188.9280  179.2220  138.0140 N   0  0  0  0  0  2  0  0  0  0  0  0
  189.5260  177.2170  136.9120 N   0  0  0  0  0  0  0  0  0  0  0  0
  188.2240  179.7680  136.8660 C   0  0  0  0  0  2  0  0  0  0  0  0
  186.9170  179.2850  136.8520 O   0  0  0  0  0  1  0  0  0  0  0  0
  186.3410  177.5510  142.8350 C   0  0  0  0  0  2  0  0  0  0  0  0
  185.9300  178.4690  143.9860 C   0  0  0  0  0  2  0  0  0  0  0  0
  184.1430  178.9740  146.2870 O   0  0  0  0  0  0  0  0  0  0  0  0
  185.9910  177.7650  145.3400 C   0  0  2  0  0  3  0  0  0  0  0  0
  185.3230  178.5630  146.4360 C   0  0  0  0  0  0  0  0  0  0  0  0
  187.2750  178.3990  147.8840 C   0  0  0  0  0  3  0  0  0  0  0  0
  187.9820  177.6350  146.8420 C   0  0  0  0  0  3  0  0  0  0  0  0
  187.4030  177.3480  145.6730 C   0  0  0  0  0  3  0  0  0  0  0  0
  186.0300  178.8370  147.6960 C   0  0  0  0  0  3  0  0  0  0  0  0
  190.8640  177.9800  142.1490 C   0  0  0  0  0  2  0  0  0  0  0  0
  191.3830  178.1960  144.6250 C   0  0  1  0  0  3  0  0  0  0  0  0
  191.7750  177.5930  143.3150 C   0  0  2  0  0  3  0  0  0  0  0  0
  192.3960  178.7510  143.8220 O   0  0  0  0  0  0  0  0  0  0  0  0
  190.2370  178.9920  144.5410 O   0  0  0  0  0  1  0  0  0  0  0  0
  1  4  1  1  0  0  0
  1 30  1  0  0  0  0
  1  3  1  0  0  0  0
  2  5  1  0  0  0  0
  5  3  1  0  0  0  0
  5 21  1  6  0  0  0
  6  2  1  1  0  0  0
  6  1  1  0  0  0  0
  8 16  2  0  0  0  0
  9 14  1  6  0  0  0
  9  6  1  0  0  0  0
 10 11  2  0  0  0  0
 11  8  1  0  0  0  0
 12  7  1  6  0  0  0
 12  8  1  0  0  0  0
 12  9  1  0  0  0  0
 13 10  1  0  0  0  0
 13  7  1  0  0  0  0
 14 17  1  0  0  0  0
 15 18  1  0  0  0  0
 15  7  2  0  0  0  0
 18 14  2  0  0  0  0
 19 17  1  0  0  0  0
 20 19  1  0  0  0  0
 21 22  1  0  0  0  0
 23 25  2  0  0  0  0
 24 22  1  6  0  0  0
 24 28  1  0  0  0  0
 24 25  1  0  0  0  0
 25 29  1  0  0  0  0
 27 26  1  0  0  0  0
 28 27  2  0  0  0  0
 29 26  2  0  0  0  0
 31 34  1  6  0  0  0
 32 30  1  6  0  0  0
 32 33  1  0  0  0  0
 32 31  1  0  0  0  0
 33 31  1  0  0  0  0
M  END
>  <MODEL>
1

>  <REMARK>
 VINA RESULT:      -7.9      0.000      0.000
  Name = 
  7 active torsions:
  status: ('A' for Active; 'I' for Inactive)
    1  A    between atoms: C_3  and  C_13
    2  A    between atoms: C_3  and  C_17
    3  A    between atoms: C_4  and  C_31
    4  A    between atoms: C_5  and  C_27
    5  A    between atoms: C_8  and  C_27
    6  A    between atoms: C_12  and  N_28
    7  A    between atoms: C_17  and  C_29
                            x       y       z     vdW  Elec       q    Type
                         _______ _______ _______ _____ _____    ______ ____

>  <TORSDO>
F 7

$$$$
=
 OpenBabel10262423453D

 34 38  0  0  1  0  0  0  0  0999 V2000
  189.9090  176.8160  141.8960 C   0  0  1  0  0  0  0  0  0  0  0  0
  187.7340  177.9870  140.6580 S   0  0  0  0  0  0  0  0  0  0  0  0
  188.7350  176.6860  142.8510 C   0  0  0  0  0  2  0  0  0  0  0  0
  190.6400  175.6270  141.8890 O   0  0  0  0  0  1  0  0  0  0  0  0
  187.7010  177.7300  142.4630 C   0  0  2  0  0  3  0  0  0  0  0  0
  189.2860  177.0340  140.5200 C   0  0  1  0  0  3  0  0  0  0  0  0
  190.9920  175.5260  137.8760 C   0  0  0  0  0  0  0  0  0  0  0  0
  192.6830  176.7050  139.2100 C   0  0  0  0  0  0  0  0  0  0  0  0
  190.2480  177.4510  139.3950 C   0  0  1  0  0  3  0  0  0  0  0  0
  193.3510  174.8600  137.7290 C   0  0  0  0  0  3  0  0  0  0  0  0
  193.6970  175.9120  138.4850 C   0  0  0  0  0  3  0  0  0  0  0  0
  191.2340  176.3010  139.1410 C   0  0  1  0  0  3  0  0  0  0  0  0
  191.9200  174.3900  137.5990 C   0  0  0  0  0  2  0  0  0  0  0  0
  189.5510  177.9580  138.1480 C   0  0  0  0  0  0  0  0  0  0  0  0
  190.2210  176.0070  136.9040 C   0  0  0  0  0  3  0  0  0  0  0  0
  193.0480  177.6700  139.9340 O   0  0  0  0  0  0  0  0  0  0  0  0
  188.8700  179.2130  138.1990 N   0  0  0  0  0  2  0  0  0  0  0  0
  189.5230  177.2480  137.0570 N   0  0  0  0  0  0  0  0  0  0  0  0
  188.1510  179.7630  137.0610 C   0  0  0  0  0  2  0  0  0  0  0  0
  186.8700  179.2190  137.0160 O   0  0  0  0  0  1  0  0  0  0  0  0
  186.3080  177.3610  142.9630 C   0  0  0  0  0  2  0  0  0  0  0  0
  185.8740  178.2180  144.1510 C   0  0  0  0  0  2  0  0  0  0  0  0
  183.7430  179.1030  145.9990 O   0  0  0  0  0  0  0  0  0  0  0  0
  184.7150  179.1480  143.8020 C   0  0  2  0  0  3  0  0  0  0  0  0
  183.5530  179.0070  144.7590 C   0  0  0  0  0  0  0  0  0  0  0  0
  181.9610  178.7020  142.9400 C   0  0  0  0  0  3  0  0  0  0  0  0
  183.0580  178.8110  141.9640 C   0  0  0  0  0  3  0  0  0  0  0  0
  184.3220  179.0080  142.3520 C   0  0  0  0  0  3  0  0  0  0  0  0
  182.1900  178.7920  144.2500 C   0  0  0  0  0  3  0  0  0  0  0  0
  190.8140  177.9820  142.3070 C   0  0  0  0  0  2  0  0  0  0  0  0
  191.3620  178.0510  144.7860 C   0  0  1  0  0  3  0  0  0  0  0  0
  191.7850  177.6010  143.4250 C   0  0  2  0  0  3  0  0  0  0  0  0
  192.2940  178.7720  144.0170 O   0  0  0  0  0  0  0  0  0  0  0  0
  190.1370  178.7270  144.7820 O   0  0  0  0  0  1  0  0  0  0  0  0
  1  4  1  6  0  0  0
  1 30  1  0  0  0  0
  1  3  1  0  0  0  0
  2  5  1  0  0  0  0
  5  3  1  0  0  0  0
  5 21  1  6  0  0  0
  6  2  1  1  0  0  0
  6  1  1  0  0  0  0
  8 16  2  0  0  0  0
  9 14  1  6  0  0  0
  9  6  1  0  0  0  0
 10 11  2  0  0  0  0
 11  8  1  0  0  0  0
 12  7  1  6  0  0  0
 12  8  1  0  0  0  0
 12  9  1  0  0  0  0
 13 10  1  0  0  0  0
 13  7  1  0  0  0  0
 14 17  1  0  0  0  0
 15 18  1  0  0  0  0
 15  7  2  0  0  0  0
 18 14  2  0  0  0  0
 19 17  1  0  0  0  0
 20 19  1  0  0  0  0
 21 22  1  0  0  0  0
 24 22  1  1  0  0  0
 24 25  1  0  0  0  0
 25 23  2  0  0  0  0
 26 29  2  0  0  0  0
 27 28  2  0  0  0  0
 27 26  1  0  0  0  0
 28 24  1  0  0  0  0
 29 25  1  0  0  0  0
 31 34  1  6  0  0  0
 32 30  1  6  0  0  0
 32 33  1  0  0  0  0
 32 31  1  0  0  0  0
 33 31  1  0  0  0  0
M  END
>  <MODEL>
2

>  <REMARK>
 VINA RESULT:      -7.7      1.311      2.205
  Name = 
  7 active torsions:
  status: ('A' for Active; 'I' for Inactive)
    1  A    between atoms: C_3  and  C_13
    2  A    between atoms: C_3  and  C_17
    3  A    between atoms: C_4  and  C_31
    4  A    between atoms: C_5  and  C_27
    5  A    between atoms: C_8  and  C_27
    6  A    between atoms: C_12  and  N_28
    7  A    between atoms: C_17  and  C_29
                            x       y       z     vdW  Elec       q    Type
                         _______ _______ _______ _____ _____    ______ ____

>  <TORSDO>
F 7

$$$$
=
 OpenBabel10262423453D

 34 38  0  0  1  0  0  0  0  0999 V2000
  191.1260  175.3210  137.5820 C   0  0  1  0  0  0  0  0  0  0  0  0
  189.2900  176.9400  138.8620 S   0  0  0  0  0  0  0  0  0  0  0  0
  191.7920  175.8240  138.8500 C   0  0  0  0  0  2  0  0  0  0  0  0
  191.4280  173.9700  137.4000 O   0  0  0  0  0  1  0  0  0  0  0  0
  191.0550  177.0770  139.2970 C   0  0  2  0  0  3  0  0  0  0  0  0
  189.6280  175.4750  137.8250 C   0  0  1  0  0  3  0  0  0  0  0  0
  186.5920  173.9220  137.0830 C   0  0  0  0  0  0  0  0  0  0  0  0
  188.2370  173.0260  135.4950 C   0  0  0  0  0  0  0  0  0  0  0  0
  188.7140  175.2760  136.6040 C   0  0  1  0  0  3  0  0  0  0  0  0
  186.1800  171.7690  135.9770 C   0  0  0  0  0  3  0  0  0  0  0  0
  187.2590  171.9570  135.2040 C   0  0  0  0  0  3  0  0  0  0  0  0
  188.0480  173.8960  136.7090 C   0  0  1  0  0  3  0  0  0  0  0  0
  185.9110  172.6000  137.2100 C   0  0  0  0  0  2  0  0  0  0  0  0
  187.7450  176.4170  136.3690 C   0  0  0  0  0  0  0  0  0  0  0  0
  185.8710  175.0360  136.9880 C   0  0  0  0  0  3  0  0  0  0  0  0
  189.2540  173.1550  134.7620 O   0  0  0  0  0  0  0  0  0  0  0  0
  188.2550  177.6790  135.9370 N   0  0  0  0  0  2  0  0  0  0  0  0
  186.4720  176.2780  136.6040 N   0  0  0  0  0  0  0  0  0  0  0  0
  187.4030  178.8360  135.7150 C   0  0  0  0  0  2  0  0  0  0  0  0
  187.4070  179.6390  136.8530 O   0  0  0  0  0  1  0  0  0  0  0  0
  191.2590  177.3540  140.7830 C   0  0  0  0  0  2  0  0  0  0  0  0
  189.9570  177.2450  141.5750 C   0  0  0  0  0  2  0  0  0  0  0  0
  187.8010  176.2540  143.3390 O   0  0  0  0  0  0  0  0  0  0  0  0
  190.1490  176.5330  142.9110 C   0  0  2  0  0  3  0  0  0  0  0  0
  188.9210  176.6110  143.7900 C   0  0  0  0  0  0  0  0  0  0  0  0
  190.2060  177.4360  145.6870 C   0  0  0  0  0  3  0  0  0  0  0  0
  191.4310  177.4010  144.8710 C   0  0  0  0  0  3  0  0  0  0  0  0
  191.4110  176.9960  143.5980 C   0  0  0  0  0  3  0  0  0  0  0  0
  189.0280  177.0690  145.1830 C   0  0  0  0  0  3  0  0  0  0  0  0
  191.5960  176.1280  136.3670 C   0  0  0  0  0  2  0  0  0  0  0  0
  193.9740  175.7480  135.5620 C   0  0  1  0  0  3  0  0  0  0  0  0
  192.5420  175.3310  135.4680 C   0  0  2  0  0  3  0  0  0  0  0  0
  193.1320  176.2000  134.5300 O   0  0  0  0  0  0  0  0  0  0  0  0
  194.1830  176.7850  136.4770 O   0  0  0  0  0  1  0  0  0  0  0  0
  1  4  1  6  0  0  0
  1  6  1  0  0  0  0
  1  3  1  0  0  0  0
  2  5  1  0  0  0  0
  3  5  1  0  0  0  0
  5 21  1  1  0  0  0
  6  2  1  6  0  0  0
  7 13  1  0  0  0  0
  9 14  1  1  0  0  0
  9 12  1  0  0  0  0
  9  6  1  0  0  0  0
 10 13  1  0  0  0  0
 11  8  1  0  0  0  0
 11 10  2  0  0  0  0
 12  8  1  6  0  0  0
 12  7  1  0  0  0  0
 14 18  2  0  0  0  0
 15  7  2  0  0  0  0
 16  8  2  0  0  0  0
 17 14  1  0  0  0  0
 18 15  1  0  0  0  0
 19 17  1  0  0  0  0
 19 20  1  0  0  0  0
 21 22  1  0  0  0  0
 23 25  2  0  0  0  0
 24 22  1  6  0  0  0
 24 28  1  0  0  0  0
 24 25  1  0  0  0  0
 25 29  1  0  0  0  0
 27 26  1  0  0  0  0
 28 27  2  0  0  0  0
 29 26  2  0  0  0  0
 30  1  1  0  0  0  0
 31 34  1  1  0  0  0
 32 31  1  0  0  0  0
 32 30  1  1  0  0  0
 33 32  1  0  0  0  0
 33 31  1  0  0  0  0
M  END
>  <MODEL>
3

>  <REMARK>
 VINA RESULT:      -7.6      3.132      5.581
  Name = 
  7 active torsions:
  status: ('A' for Active; 'I' for Inactive)
    1  A    between atoms: C_3  and  C_13
    2  A    between atoms: C_3  and  C_17
    3  A    between atoms: C_4  and  C_31
    4  A    between atoms: C_5  and  C_27
    5  A    between atoms: C_8  and  C_27
    6  A    between atoms: C_12  and  N_28
    7  A    between atoms: C_17  and  C_29
                            x       y       z     vdW  Elec       q    Type
                         _______ _______ _______ _____ _____    ______ ____

>  <TORSDO>
F 7

$$$$
=
 OpenBabel10262423453D

 34 38  0  0  1  0  0  0  0  0999 V2000
  189.0010  177.8280  137.6370 C   0  0  1  0  0  0  0  0  0  0  0  0
  190.1460  176.2700  139.6110 S   0  0  0  0  0  0  0  0  0  0  0  0
  188.6530  178.4750  138.9670 C   0  0  0  0  0  2  0  0  0  0  0  0
  189.3420  178.8160  136.7120 O   0  0  0  0  0  1  0  0  0  0  0  0
  188.8010  177.4200  140.0510 C   0  0  2  0  0  3  0  0  0  0  0  0
  190.2220  176.9580  137.9210 C   0  0  1  0  0  3  0  0  0  0  0  0
  193.0050  175.0350  137.0640 C   0  0  0  0  0  0  0  0  0  0  0  0
  192.4950  176.4280  135.1070 C   0  0  0  0  0  0  0  0  0  0  0  0
  190.6390  175.9850  136.8050 C   0  0  1  0  0  3  0  0  0  0  0  0
  194.7470  175.4840  135.3930 C   0  0  0  0  0  3  0  0  0  0  0  0
  193.8410  176.0800  134.6050 C   0  0  0  0  0  3  0  0  0  0  0  0
  192.1440  176.1530  136.5460 C   0  0  1  0  0  3  0  0  0  0  0  0
  194.4760  175.1670  136.8460 C   0  0  0  0  0  2  0  0  0  0  0  0
  190.2070  174.5530  137.0440 C   0  0  0  0  0  0  0  0  0  0  0  0
  192.4850  173.8580  137.4010 C   0  0  0  0  0  3  0  0  0  0  0  0
  191.6790  177.0130  134.3460 O   0  0  0  0  0  0  0  0  0  0  0  0
  188.8170  174.2300  136.9750 N   0  0  0  0  0  2  0  0  0  0  0  0
  191.0720  173.6320  137.3600 N   0  0  0  0  0  0  0  0  0  0  0  0
  188.3090  172.8900  137.2190 C   0  0  0  0  0  2  0  0  0  0  0  0
  186.9300  172.8740  137.0210 O   0  0  0  0  0  1  0  0  0  0  0  0
  189.0100  178.0460  141.4260 C   0  0  0  0  0  2  0  0  0  0  0  0
  187.8800  177.7020  142.3960 C   0  0  0  0  0  2  0  0  0  0  0  0
  186.6070  177.5380  145.0600 O   0  0  0  0  0  0  0  0  0  0  0  0
  188.3610  176.8500  143.5680 C   0  0  2  0  0  3  0  0  0  0  0  0
  187.8410  177.3490  144.8970 C   0  0  0  0  0  0  0  0  0  0  0  0
  190.0720  177.3770  145.8750 C   0  0  0  0  0  3  0  0  0  0  0  0
  190.6360  176.9120  144.5960 C   0  0  0  0  0  3  0  0  0  0  0  0
  189.8600  176.6760  143.5350 C   0  0  0  0  0  3  0  0  0  0  0  0
  188.7630  177.5850  146.0180 C   0  0  0  0  0  3  0  0  0  0  0  0
  187.8200  177.0060  137.1110 C   0  0  0  0  0  2  0  0  0  0  0  0
  185.4050  177.2470  136.3640 C   0  0  1  0  0  3  0  0  0  0  0  0
  186.7590  177.8760  136.4350 C   0  0  2  0  0  3  0  0  0  0  0  0
  186.2960  177.2260  135.2760 O   0  0  0  0  0  0  0  0  0  0  0  0
  185.3590  175.9780  136.9500 O   0  0  0  0  0  1  0  0  0  0  0  0
  1  4  1  6  0  0  0
  1  6  1  0  0  0  0
  1  3  1  0  0  0  0
  2  5  1  0  0  0  0
  3  5  1  0  0  0  0
  5 21  1  1  0  0  0
  6  2  1  1  0  0  0
  7 15  2  0  0  0  0
  9 14  1  1  0  0  0
  9  6  1  0  0  0  0
 10 13  1  0  0  0  0
 11  8  1  0  0  0  0
 11 10  2  0  0  0  0
 12  8  1  6  0  0  0
 12  9  1  0  0  0  0
 12  7  1  0  0  0  0
 13  7  1  0  0  0  0
 14 18  2  0  0  0  0
 16  8  2  0  0  0  0
 17 14  1  0  0  0  0
 17 19  1  0  0  0  0
 18 15  1  0  0  0  0
 20 19  1  0  0  0  0
 21 22  1  0  0  0  0
 24 22  1  6  0  0  0
 24 25  1  0  0  0  0
 25 23  2  0  0  0  0
 25 29  1  0  0  0  0
 26 29  2  0  0  0  0
 27 26  1  0  0  0  0
 28 24  1  0  0  0  0
 28 27  2  0  0  0  0
 30  1  1  0  0  0  0
 31 32  1  0  0  0  0
 31 34  1  1  0  0  0
 32 30  1  1  0  0  0
 33 31  1  0  0  0  0
 33 32  1  0  0  0  0
M  END
>  <MODEL>
4

>  <REMARK>
 VINA RESULT:      -7.0      2.691      5.020
  Name = 
  7 active torsions:
  status: ('A' for Active; 'I' for Inactive)
    1  A    between atoms: C_3  and  C_13
    2  A    between atoms: C_3  and  C_17
    3  A    between atoms: C_4  and  C_31
    4  A    between atoms: C_5  and  C_27
    5  A    between atoms: C_8  and  C_27
    6  A    between atoms: C_12  and  N_28
    7  A    between atoms: C_17  and  C_29
                            x       y       z     vdW  Elec       q    Type
                         _______ _______ _______ _____ _____    ______ ____

>  <TORSDO>
F 7

$$$$
=
 OpenBabel10262423453D

 34 38  0  0  1  0  0  0  0  0999 V2000
  183.9550  178.9670  138.8380 C   0  0  1  0  0  0  0  0  0  0  0  0
  182.8600  176.9300  140.3500 S   0  0  0  0  0  0  0  0  0  0  0  0
  183.8860  179.4690  140.2700 C   0  0  0  0  0  2  0  0  0  0  0  0
  185.1690  179.3500  138.2670 O   0  0  0  0  0  1  0  0  0  0  0  0
  182.8550  178.6310  141.0080 C   0  0  2  0  0  3  0  0  0  0  0  0
  183.9030  177.4460  138.9420 C   0  0  1  0  0  3  0  0  0  0  0  0
  185.2280  174.6390  137.3460 C   0  0  0  0  0  0  0  0  0  0  0  0
  185.4400  176.5030  135.7620 C   0  0  0  0  0  0  0  0  0  0  0  0
  183.7010  176.6790  137.6240 C   0  0  1  0  0  3  0  0  0  0  0  0
  186.8750  174.5200  135.5290 C   0  0  0  0  0  3  0  0  0  0  0  0
  186.3820  175.6520  135.0050 C   0  0  0  0  0  3  0  0  0  0  0  0
  185.0590  176.1220  137.1680 C   0  0  1  0  0  3  0  0  0  0  0  0
  186.5390  174.0610  136.9290 C   0  0  0  0  0  2  0  0  0  0  0  0
  182.5940  175.6460  137.6770 C   0  0  0  0  0  0  0  0  0  0  0  0
  184.1840  173.8420  137.5510 C   0  0  0  0  0  3  0  0  0  0  0  0
  185.0200  177.5750  135.2490 O   0  0  0  0  0  0  0  0  0  0  0  0
  181.2390  176.0910  137.7690 N   0  0  0  0  0  2  0  0  0  0  0  0
  182.8610  174.3720  137.6920 N   0  0  0  0  0  0  0  0  0  0  0  0
  180.1160  175.1720  137.8540 C   0  0  0  0  0  2  0  0  0  0  0  0
  179.9830  174.7230  139.1650 O   0  0  0  0  0  1  0  0  0  0  0  0
  183.0750  178.6600  142.5170 C   0  0  0  0  0  2  0  0  0  0  0  0
  184.5200  178.9990  142.8830 C   0  0  0  0  0  2  0  0  0  0  0  0
  184.0680  179.0580  145.8050 O   0  0  0  0  0  0  0  0  0  0  0  0
  185.1050  178.0220  143.9000 C   0  0  2  0  0  3  0  0  0  0  0  0
  185.1220  178.5890  145.3020 C   0  0  0  0  0  0  0  0  0  0  0  0
  187.4820  178.0590  145.5950 C   0  0  0  0  0  3  0  0  0  0  0  0
  187.5280  177.5130  144.2280 C   0  0  0  0  0  3  0  0  0  0  0  0
  186.4450  177.5000  143.4450 C   0  0  0  0  0  3  0  0  0  0  0  0
  186.3570  178.5660  146.1000 C   0  0  0  0  0  3  0  0  0  0  0  0
  182.7910  179.5260  138.0130 C   0  0  0  0  0  2  0  0  0  0  0  0
  180.8330  180.9100  138.8480 C   0  0  1  0  0  3  0  0  0  0  0  0
  182.2950  180.8730  138.5410 C   0  0  2  0  0  3  0  0  0  0  0  0
  181.3550  181.4060  137.6390 O   0  0  0  0  0  0  0  0  0  0  0  0
  180.1920  179.6900  138.6090 O   0  0  0  0  0  1  0  0  0  0  0  0
  1  4  1  6  0  0  0
  1  6  1  0  0  0  0
  1  3  1  0  0  0  0
  2  5  1  0  0  0  0
  3  5  1  0  0  0  0
  5 21  1  1  0  0  0
  6  2  1  1  0  0  0
  7 15  2  0  0  0  0
  9 14  1  1  0  0  0
  9  6  1  0  0  0  0
 10 13  1  0  0  0  0
 11 10  2  0  0  0  0
 11  8  1  0  0  0  0
 12  8  1  6  0  0  0
 12  7  1  0  0  0  0
 12  9  1  0  0  0  0
 13  7  1  0  0  0  0
 14 18  2  0  0  0  0
 14 17  1  0  0  0  0
 15 18  1  0  0  0  0
 16  8  2  0  0  0  0
 17 19  1  0  0  0  0
 19 20  1  0  0  0  0
 21 22  1  0  0  0  0
 24 22  1  6  0  0  0
 24 25  1  0  0  0  0
 25 23  2  0  0  0  0
 25 29  1  0  0  0  0
 26 29  2  0  0  0  0
 27 26  1  0  0  0  0
 28 24  1  0  0  0  0
 28 27  2  0  0  0  0
 30  1  1  0  0  0  0
 31 34  1  6  0  0  0
 32 30  1  6  0  0  0
 32 31  1  0  0  0  0
 33 32  1  0  0  0  0
 33 31  1  0  0  0  0
M  END
>  <MODEL>
5

>  <REMARK>
 VINA RESULT:      -6.8      4.999      7.105
  Name = 
  7 active torsions:
  status: ('A' for Active; 'I' for Inactive)
    1  A    between atoms: C_3  and  C_13
    2  A    between atoms: C_3  and  C_17
    3  A    between atoms: C_4  and  C_31
    4  A    between atoms: C_5  and  C_27
    5  A    between atoms: C_8  and  C_27
    6  A    between atoms: C_12  and  N_28
    7  A    between atoms: C_17  and  C_29
                            x       y       z     vdW  Elec       q    Type
                         _______ _______ _______ _____ _____    ______ ____

>  <TORSDO>
F 7

$$$$
=
 OpenBabel10262423453D

 34 38  0  0  1  0  0  0  0  0999 V2000
  186.7530  177.5190  143.5190 C   0  0  1  0  0  0  0  0  0  0  0  0
  186.0940  179.2520  141.4700 S   0  0  0  0  0  0  0  0  0  0  0  0
  185.2370  177.5860  143.4690 C   0  0  0  0  0  2  0  0  0  0  0  0
  187.1570  176.1990  143.7230 O   0  0  0  0  0  1  0  0  0  0  0  0
  184.8500  178.8670  142.7470 C   0  0  2  0  0  3  0  0  0  0  0  0
  187.2220  177.9830  142.1420 C   0  0  1  0  0  3  0  0  0  0  0  0
  190.2270  176.2640  142.5870 C   0  0  0  0  0  0  0  0  0  0  0  0
  190.3970  178.3170  143.9240 C   0  0  0  0  0  0  0  0  0  0  0  0
  188.7280  178.2560  141.9910 C   0  0  1  0  0  3  0  0  0  0  0  0
  191.8220  176.3840  144.4490 C   0  0  0  0  0  3  0  0  0  0  0  0
  191.5490  177.6880  144.6020 C   0  0  0  0  0  3  0  0  0  0  0  0
  189.4800  177.4730  143.0780 C   0  0  1  0  0  3  0  0  0  0  0  0
  190.9590  175.4670  143.6140 C   0  0  0  0  0  2  0  0  0  0  0  0
  189.2550  178.0330  140.5890 C   0  0  0  0  0  0  0  0  0  0  0  0
  190.4950  176.0930  141.2950 C   0  0  0  0  0  3  0  0  0  0  0  0
  190.1540  179.5390  144.1140 O   0  0  0  0  0  0  0  0  0  0  0  0
  188.8630  178.9340  139.5510 N   0  0  0  0  0  2  0  0  0  0  0  0
  190.0130  177.0120  140.3080 N   0  0  0  0  0  0  0  0  0  0  0  0
  189.2960  178.7810  138.1730 C   0  0  0  0  0  2  0  0  0  0  0  0
  188.4740  179.5380  137.3420 O   0  0  0  0  0  1  0  0  0  0  0  0
  183.4420  178.7890  142.1690 C   0  0  0  0  0  2  0  0  0  0  0  0
  183.3160  177.7060  141.0970 C   0  0  0  0  0  2  0  0  0  0  0  0
  184.0670  178.8360  138.4710 O   0  0  0  0  0  0  0  0  0  0  0  0
  182.3510  178.1010  139.9830 C   0  0  2  0  0  3  0  0  0  0  0  0
  182.9600  179.0880  139.0140 C   0  0  0  0  0  0  0  0  0  0  0  0
  181.0720  180.6130  139.2210 C   0  0  0  0  0  3  0  0  0  0  0  0
  180.4410  179.6980  140.1870 C   0  0  0  0  0  3  0  0  0  0  0  0
  181.0250  178.5510  140.5460 C   0  0  0  0  0  3  0  0  0  0  0  0
  182.2530  180.3310  138.6710 C   0  0  0  0  0  3  0  0  0  0  0  0
  187.2970  178.4100  144.6400 C   0  0  0  0  0  2  0  0  0  0  0  0
  186.2510  178.4130  146.9530 C   0  0  1  0  0  3  0  0  0  0  0  0
  187.2000  177.7440  146.0130 C   0  0  2  0  0  3  0  0  0  0  0  0
  187.6370  178.6500  146.9990 O   0  0  0  0  0  0  0  0  0  0  0  0
  185.6110  179.5210  146.3890 O   0  0  0  0  0  1  0  0  0  0  0  0
  1  4  1  1  0  0  0
  1 30  1  0  0  0  0
  2  5  1  0  0  0  0
  3  1  1  0  0  0  0
  5 21  1  6  0  0  0
  5  3  1  0  0  0  0
  6  2  1  1  0  0  0
  6  1  1  0  0  0  0
  7 13  1  0  0  0  0
  8 16  2  0  0  0  0
  8 11  1  0  0  0  0
  9 14  1  6  0  0  0
  9  6  1  0  0  0  0
  9 12  1  0  0  0  0
 10 11  2  0  0  0  0
 12  7  1  6  0  0  0
 12  8  1  0  0  0  0
 13 10  1  0  0  0  0
 15  7  2  0  0  0  0
 17 14  1  0  0  0  0
 18 14  2  0  0  0  0
 18 15  1  0  0  0  0
 19 17  1  0  0  0  0
 20 19  1  0  0  0  0
 22 21  1  0  0  0  0
 23 25  2  0  0  0  0
 24 28  1  0  0  0  0
 24 22  1  1  0  0  0
 25 24  1  0  0  0  0
 26 27  1  0  0  0  0
 27 28  2  0  0  0  0
 29 25  1  0  0  0  0
 29 26  2  0  0  0  0
 31 34  1  6  0  0  0
 31 33  1  0  0  0  0
 32 30  1  6  0  0  0
 32 31  1  0  0  0  0
 32 33  1  0  0  0  0
M  END
>  <MODEL>
6

>  <REMARK>
 VINA RESULT:      -6.7      3.133      5.656
  Name = 
  7 active torsions:
  status: ('A' for Active; 'I' for Inactive)
    1  A    between atoms: C_3  and  C_13
    2  A    between atoms: C_3  and  C_17
    3  A    between atoms: C_4  and  C_31
    4  A    between atoms: C_5  and  C_27
    5  A    between atoms: C_8  and  C_27
    6  A    between atoms: C_12  and  N_28
    7  A    between atoms: C_17  and  C_29
                            x       y       z     vdW  Elec       q    Type
                         _______ _______ _______ _____ _____    ______ ____

>  <TORSDO>
F 7

$$$$
=
 OpenBabel10262423453D

 34 38  0  0  1  0  0  0  0  0999 V2000
  186.6070  176.6120  137.2950 C   0  0  1  0  0  0  0  0  0  0  0  0
  184.0710  177.4420  138.0090 S   0  0  0  0  0  0  0  0  0  0  0  0
  186.7670  177.5490  138.4790 C   0  0  0  0  0  2  0  0  0  0  0  0
  187.4650  175.5200  137.4440 O   0  0  0  0  0  1  0  0  0  0  0  0
  185.5140  178.4060  138.5680 C   0  0  2  0  0  3  0  0  0  0  0  0
  185.1610  176.1300  137.3560 C   0  0  1  0  0  3  0  0  0  0  0  0
  183.2080  173.3160  136.6890 C   0  0  0  0  0  0  0  0  0  0  0  0
  185.3340  172.9820  135.5060 C   0  0  0  0  0  0  0  0  0  0  0  0
  184.6460  175.3620  136.1270 C   0  0  1  0  0  3  0  0  0  0  0  0
  183.9140  171.0510  136.0560 C   0  0  0  0  0  3  0  0  0  0  0  0
  184.9450  171.5630  135.3680 C   0  0  0  0  0  3  0  0  0  0  0  0
  184.5900  173.8650  136.4720 C   0  0  1  0  0  3  0  0  0  0  0  0
  183.1110  171.8690  137.0410 C   0  0  0  0  0  2  0  0  0  0  0  0
  183.3570  175.9140  135.5530 C   0  0  0  0  0  0  0  0  0  0  0  0
  182.1280  173.9750  136.2800 C   0  0  0  0  0  3  0  0  0  0  0  0
  186.3260  173.4210  134.8650 O   0  0  0  0  0  0  0  0  0  0  0  0
  183.3800  177.1850  134.9010 N   0  0  0  0  0  2  0  0  0  0  0  0
  182.2310  175.2750  135.6880 N   0  0  0  0  0  0  0  0  0  0  0  0
  182.1880  177.8050  134.3470 C   0  0  0  0  0  2  0  0  0  0  0  0
  181.5290  178.5170  135.3460 O   0  0  0  0  0  1  0  0  0  0  0  0
  185.3150  178.9740  139.9690 C   0  0  0  0  0  2  0  0  0  0  0  0
  183.8710  178.8370  140.4490 C   0  0  0  0  0  2  0  0  0  0  0  0
  181.5430  178.9340  142.2690 O   0  0  0  0  0  0  0  0  0  0  0  0
  183.7750  178.1680  141.8180 C   0  0  2  0  0  3  0  0  0  0  0  0
  182.7190  178.7990  142.6970 C   0  0  0  0  0  0  0  0  0  0  0  0
  184.2800  179.0790  144.5460 C   0  0  0  0  0  3  0  0  0  0  0  0
  185.3530  178.4900  143.7270 C   0  0  0  0  0  3  0  0  0  0  0  0
  185.1310  178.0780  142.4750 C   0  0  0  0  0  3  0  0  0  0  0  0
  183.0450  179.2270  144.0650 C   0  0  0  0  0  3  0  0  0  0  0  0
  186.9140  177.3410  135.9830 C   0  0  0  0  0  2  0  0  0  0  0  0
  189.3980  177.5760  135.5090 C   0  0  1  0  0  3  0  0  0  0  0  0
  188.1530  176.7820  135.2810 C   0  0  2  0  0  3  0  0  0  0  0  0
  188.6210  177.7250  134.3460 O   0  0  0  0  0  0  0  0  0  0  0  0
  189.1980  178.6800  136.3440 O   0  0  0  0  0  1  0  0  0  0  0  0
  1  6  1  0  0  0  0
  1  4  1  1  0  0  0
  1  3  1  0  0  0  0
  2  5  1  0  0  0  0
  3  5  1  0  0  0  0
  5 21  1  1  0  0  0
  6  2  1  6  0  0  0
  7 13  1  0  0  0  0
  9 14  1  1  0  0  0
  9 12  1  0  0  0  0
  9  6  1  0  0  0  0
 10 13  1  0  0  0  0
 11  8  1  0  0  0  0
 11 10  2  0  0  0  0
 12  8  1  6  0  0  0
 12  7  1  0  0  0  0
 14 18  2  0  0  0  0
 15  7  2  0  0  0  0
 16  8  2  0  0  0  0
 17 14  1  0  0  0  0
 18 15  1  0  0  0  0
 19 17  1  0  0  0  0
 19 20  1  0  0  0  0
 21 22  1  0  0  0  0
 23 25  2  0  0  0  0
 24 22  1  6  0  0  0
 24 28  1  0  0  0  0
 24 25  1  0  0  0  0
 25 29  1  0  0  0  0
 27 26  1  0  0  0  0
 28 27  2  0  0  0  0
 29 26  2  0  0  0  0
 30  1  1  0  0  0  0
 31 34  1  1  0  0  0
 32 31  1  0  0  0  0
 32 30  1  1  0  0  0
 33 32  1  0  0  0  0
 33 31  1  0  0  0  0
M  END
>  <MODEL>
7

>  <REMARK>
 VINA RESULT:      -6.6      5.068      6.925
  Name = 
  7 active torsions:
  status: ('A' for Active; 'I' for Inactive)
    1  A    between atoms: C_3  and  C_13
    2  A    between atoms: C_3  and  C_17
    3  A    between atoms: C_4  and  C_31
    4  A    between atoms: C_5  and  C_27
    5  A    between atoms: C_8  and  C_27
    6  A    between atoms: C_12  and  N_28
    7  A    between atoms: C_17  and  C_29
                            x       y       z     vdW  Elec       q    Type
                         _______ _______ _______ _____ _____    ______ ____

>  <TORSDO>
F 7

$$$$
=
 OpenBabel10262423453D

 34 38  0  0  1  0  0  0  0  0999 V2000
  186.7910  177.5080  143.6650 C   0  0  1  0  0  0  0  0  0  0  0  0
  186.0150  179.3340  141.7420 S   0  0  0  0  0  0  0  0  0  0  0  0
  185.2760  177.5970  143.7270 C   0  0  0  0  0  2  0  0  0  0  0  0
  187.1850  176.1750  143.7850 O   0  0  0  0  0  1  0  0  0  0  0  0
  184.8600  178.9130  143.0890 C   0  0  2  0  0  3  0  0  0  0  0  0
  187.1660  178.0230  142.2780 C   0  0  1  0  0  3  0  0  0  0  0  0
  190.1880  176.3130  142.6320 C   0  0  0  0  0  0  0  0  0  0  0  0
  190.4380  178.4240  143.8600 C   0  0  0  0  0  0  0  0  0  0  0  0
  188.6620  178.2820  142.0300 C   0  0  1  0  0  3  0  0  0  0  0  0
  191.8870  176.5110  144.3930 C   0  0  0  0  0  3  0  0  0  0  0  0
  191.6250  177.8220  144.5010 C   0  0  0  0  0  3  0  0  0  0  0  0
  189.4730  177.5460  143.1080 C   0  0  1  0  0  3  0  0  0  0  0  0
  190.9760  175.5600  143.6520 C   0  0  0  0  0  2  0  0  0  0  0  0
  189.1090  177.9920  140.6120 C   0  0  0  0  0  0  0  0  0  0  0  0
  190.3830  176.0810  141.3370 C   0  0  0  0  0  3  0  0  0  0  0  0
  190.2080  179.6550  144.0070 O   0  0  0  0  0  0  0  0  0  0  0  0
  188.6600  178.8450  139.5570 N   0  0  0  0  0  2  0  0  0  0  0  0
  189.8480  176.9550  140.3370 N   0  0  0  0  0  0  0  0  0  0  0  0
  189.0150  178.6260  138.1650 C   0  0  0  0  0  2  0  0  0  0  0  0
  188.9470  179.8340  137.4750 O   0  0  0  0  0  1  0  0  0  0  0  0
  183.4120  178.8780  142.6110 C   0  0  0  0  0  2  0  0  0  0  0  0
  183.2650  178.1750  141.2620 C   0  0  0  0  0  2  0  0  0  0  0  0
  180.3790  177.5380  141.1810 O   0  0  0  0  0  0  0  0  0  0  0  0
  182.2250  178.8450  140.3690 C   0  0  2  0  0  3  0  0  0  0  0  0
  180.9900  177.9930  140.1790 C   0  0  0  0  0  0  0  0  0  0  0  0
  181.0960  178.2000  137.7540 C   0  0  0  0  0  3  0  0  0  0  0  0
  182.3140  179.0190  137.8790 C   0  0  0  0  0  3  0  0  0  0  0  0
  182.8400  179.3110  139.0720 C   0  0  0  0  0  3  0  0  0  0  0  0
  180.4750  177.7170  138.8300 C   0  0  0  0  0  3  0  0  0  0  0  0
  187.4280  178.3440  144.7790 C   0  0  0  0  0  2  0  0  0  0  0  0
  186.4570  178.2930  147.1250 C   0  0  1  0  0  3  0  0  0  0  0  0
  187.3720  177.6440  146.1380 C   0  0  2  0  0  3  0  0  0  0  0  0
  187.8460  178.5220  147.1310 O   0  0  0  0  0  0  0  0  0  0  0  0
  185.8060  179.4180  146.6100 O   0  0  0  0  0  1  0  0  0  0  0  0
  1  3  1  0  0  0  0
  1  4  1  1  0  0  0
  1 30  1  0  0  0  0
  2  5  1  0  0  0  0
  5 21  1  6  0  0  0
  5  3  1  0  0  0  0
  6  2  1  1  0  0  0
  6  1  1  0  0  0  0
  7 13  1  0  0  0  0
  8 16  2  0  0  0  0
  8 11  1  0  0  0  0
  9 14  1  6  0  0  0
  9  6  1  0  0  0  0
  9 12  1  0  0  0  0
 10 11  2  0  0  0  0
 12  7  1  6  0  0  0
 12  8  1  0  0  0  0
 13 10  1  0  0  0  0
 15  7  2  0  0  0  0
 17 14  1  0  0  0  0
 18 14  2  0  0  0  0
 18 15  1  0  0  0  0
 19 17  1  0  0  0  0
 20 19  1  0  0  0  0
 22 21  1  0  0  0  0
 24 22  1  6  0  0  0
 25 24  1  0  0  0  0
 25 23  2  0  0  0  0
 26 27  1  0  0  0  0
 26 29  2  0  0  0  0
 27 28  2  0  0  0  0
 28 24  1  0  0  0  0
 29 25  1  0  0  0  0
 31 34  1  6  0  0  0
 31 33  1  0  0  0  0
 32 30  1  6  0  0  0
 32 31  1  0  0  0  0
 32 33  1  0  0  0  0
M  END
>  <MODEL>
8

>  <REMARK>
 VINA RESULT:      -6.5      3.317      5.707
  Name = 
  7 active torsions:
  status: ('A' for Active; 'I' for Inactive)
    1  A    between atoms: C_3  and  C_13
    2  A    between atoms: C_3  and  C_17
    3  A    between atoms: C_4  and  C_31
    4  A    between atoms: C_5  and  C_27
    5  A    between atoms: C_8  and  C_27
    6  A    between atoms: C_12  and  N_28
    7  A    between atoms: C_17  and  C_29
                            x       y       z     vdW  Elec       q    Type
                         _______ _______ _______ _____ _____    ______ ____

>  <TORSDO>
F 7

$$$$
=
 OpenBabel10262423453D

 34 38  0  0  1  0  0  0  0  0999 V2000
  189.2560  176.9050  139.9550 C   0  0  1  0  0  0  0  0  0  0  0  0
  187.9620  178.8520  141.4260 S   0  0  0  0  0  0  0  0  0  0  0  0
  189.7090  176.7430  141.3960 C   0  0  0  0  0  2  0  0  0  0  0  0
  189.0250  175.6480  139.3940 O   0  0  0  0  0  1  0  0  0  0  0  0
  189.4510  178.0570  142.1160 C   0  0  2  0  0  3  0  0  0  0  0  0
  187.9410  177.6740  140.0310 C   0  0  1  0  0  3  0  0  0  0  0  0
  186.9880  176.3890  136.9300 C   0  0  0  0  0  0  0  0  0  0  0  0
  188.6340  178.1530  136.4740 C   0  0  0  0  0  0  0  0  0  0  0  0
  187.3810  178.2010  138.6990 C   0  0  1  0  0  3  0  0  0  0  0  0
  188.2130  176.3990  134.8030 C   0  0  0  0  0  3  0  0  0  0  0  0
  188.7420  177.5920  135.1110 C   0  0  0  0  0  3  0  0  0  0  0  0
  187.9570  177.3520  137.5550 C   0  0  1  0  0  3  0  0  0  0  0  0
  187.5120  175.5340  135.8240 C   0  0  0  0  0  2  0  0  0  0  0  0
  185.8720  178.3320  138.6750 C   0  0  0  0  0  0  0  0  0  0  0  0
  185.6760  176.5080  137.1140 C   0  0  0  0  0  3  0  0  0  0  0  0
  189.1680  179.2640  136.7340 O   0  0  0  0  0  0  0  0  0  0  0  0
  185.2530  179.3400  139.4750 N   0  0  0  0  0  2  0  0  0  0  0  0
  185.1360  177.5120  137.9810 N   0  0  0  0  0  0  0  0  0  0  0  0
  183.8120  179.5200  139.5370 C   0  0  0  0  0  2  0  0  0  0  0  0
  183.4680  180.7210  138.9220 O   0  0  0  0  0  1  0  0  0  0  0  0
  189.3500  177.8650  143.6250 C   0  0  0  0  0  2  0  0  0  0  0  0
  187.9040  177.7000  144.0920 C   0  0  0  0  0  2  0  0  0  0  0  0
  185.6400  178.0390  145.9630 O   0  0  0  0  0  0  0  0  0  0  0  0
  187.8120  177.1200  145.5010 C   0  0  2  0  0  3  0  0  0  0  0  0
  186.8190  177.8610  146.3670 C   0  0  0  0  0  0  0  0  0  0  0  0
  188.4460  178.1600  148.1550 C   0  0  0  0  0  3  0  0  0  0  0  0
  189.4600  177.4630  147.3450 C   0  0  0  0  0  3  0  0  0  0  0  0
  189.1790  176.9920  146.1270 C   0  0  0  0  0  3  0  0  0  0  0  0
  187.2080  178.3500  147.6980 C   0  0  0  0  0  3  0  0  0  0  0  0
  190.3130  177.6540  139.1370 C   0  0  0  0  0  2  0  0  0  0  0  0
  192.3640  176.5780  138.0960 C   0  0  1  0  0  3  0  0  0  0  0  0
  191.7190  177.0900  139.3440 C   0  0  2  0  0  3  0  0  0  0  0  0
  191.7230  175.7220  139.0100 O   0  0  0  0  0  0  0  0  0  0  0  0
  191.5600  176.7300  136.9630 O   0  0  0  0  0  1  0  0  0  0  0  0
  1  4  1  6  0  0  0
  1  6  1  0  0  0  0
  1  3  1  0  0  0  0
  2  5  1  0  0  0  0
  3  5  1  0  0  0  0
  5 21  1  1  0  0  0
  6  2  1  1  0  0  0
  7 15  2  0  0  0  0
  7 12  1  0  0  0  0
  8 16  2  0  0  0  0
  9 14  1  1  0  0  0
  9  6  1  0  0  0  0
 10 11  2  0  0  0  0
 10 13  1  0  0  0  0
 11  8  1  0  0  0  0
 12  8  1  6  0  0  0
 12  9  1  0  0  0  0
 13  7  1  0  0  0  0
 14 17  1  0  0  0  0
 15 18  1  0  0  0  0
 17 19  1  0  0  0  0
 18 14  2  0  0  0  0
 20 19  1  0  0  0  0
 21 22  1  0  0  0  0
 23 25  2  0  0  0  0
 24 22  1  6  0  0  0
 24 28  1  0  0  0  0
 24 25  1  0  0  0  0
 25 29  1  0  0  0  0
 27 26  1  0  0  0  0
 28 27  2  0  0  0  0
 29 26  2  0  0  0  0
 30  1  1  0  0  0  0
 31 34  1  6  0  0  0
 31 33  1  0  0  0  0
 31 32  1  0  0  0  0
 32 30  1  6  0  0  0
 33 32  1  0  0  0  0
M  END
>  <MODEL>
9

>  <REMARK>
 VINA RESULT:      -6.5      2.427      3.947
  Name = 
  7 active torsions:
  status: ('A' for Active; 'I' for Inactive)
    1  A    between atoms: C_3  and  C_13
    2  A    between atoms: C_3  and  C_17
    3  A    between atoms: C_4  and  C_31
    4  A    between atoms: C_5  and  C_27
    5  A    between atoms: C_8  and  C_27
    6  A    between atoms: C_12  and  N_28
    7  A    between atoms: C_17  and  C_29
                            x       y       z     vdW  Elec       q    Type
                         _______ _______ _______ _____ _____    ______ ____

>  <TORSDO>
F 7

$$$$
