=
 OpenBabel10272401313D

 55 60  0  0  1  0  0  0  0  0999 V2000
  192.4140  173.3410  135.0090 C   0  0  1  0  0  3  0  0  0  0  0  0
  193.0060  176.3150  137.5590 C   0  0  2  0  0  0  0  0  0  0  0  0
  194.0420  174.2110  136.3930 C   0  0  0  0  0  2  0  0  0  0  0  0
  190.9470  176.5960  138.6910 C   0  0  1  0  0  0  0  0  0  0  0  0
  191.0650  174.0000  137.0130 O   0  0  0  0  0  0  0  0  0  0  0  0
  191.5050  176.3790  137.2970 C   0  0  2  0  0  3  0  0  0  0  0  0
  193.5830  174.8760  137.6970 C   0  0  1  0  0  3  0  0  0  0  0  0
  193.1870  174.4870  135.3090 O   0  0  0  0  0  0  0  0  0  0  0  0
  193.1130  177.0560  138.8960 C   0  0  0  0  0  2  0  0  0  0  0  0
  193.2360  172.0970  134.6840 C   0  0  0  0  0  1  0  0  0  0  0  0
  194.6470  174.8330  138.6030 O   0  0  0  0  0  1  0  0  0  0  0  0
  191.9310  176.8800  139.6460 O   0  0  0  0  0  0  0  0  0  0  0  0
  193.6970  177.0400  136.5860 O   0  0  0  0  0  1  0  0  0  0  0  0
  190.8410  175.2730  136.4610 C   0  0  0  0  0  2  0  0  0  0  0  0
  189.5730  177.2150  138.9080 C   0  0  2  0  0  0  0  0  0  0  0  0
  191.2270  173.0650  135.9660 C   0  0  1  0  0  3  0  0  0  0  0  0
  189.8090  175.7350  139.2140 C   0  0  0  0  0  2  0  0  0  0  0  0
  187.3170  178.1280  135.3510 C   0  0  0  0  0  3  0  0  0  0  0  0
  188.7640  177.5270  137.6780 C   0  0  0  0  0  0  0  0  0  0  0  0
  188.7440  178.8340  137.1740 C   0  0  0  0  0  3  0  0  0  0  0  0
  187.3300  176.8230  135.8490 C   0  0  0  0  0  3  0  0  0  0  0  0
  188.0200  179.1340  136.0150 C   0  0  0  0  0  3  0  0  0  0  0  0
  188.0480  176.5230  137.0100 C   0  0  0  0  0  3  0  0  0  0  0  0
  189.9170  172.8190  135.2150 C   0  0  0  0  0  2  0  0  0  0  0  0
  188.7780  172.4970  136.1690 C   0  0  0  0  0  2  0  0  0  0  0  0
  187.7390  171.7530  135.4740 N   0  0  0  0  0  2  0  0  0  0  0  0
  186.7130  173.0860  137.2140 C   0  0  0  0  0  1  0  0  0  0  0  0
  186.5010  171.9900  136.1910 C   0  0  0  0  0  2  0  0  0  0  0  0
  189.4470  178.1230  140.1260 C   0  0  0  0  0  2  0  0  0  0  0  0
  188.1730  178.0130  140.6950 O   0  0  0  0  0  0  0  0  0  0  0  0
  189.6630  177.8820  142.4310 O   0  0  0  0  0  1  0  0  0  0  0  0
  188.3650  178.2440  142.0610 C   0  0  2  0  0  3  0  0  0  0  0  0
  187.5090  176.2370  142.9560 O   0  0  0  0  0  0  0  0  0  0  0  0
  187.3790  177.4490  142.8570 C   0  0  0  0  0  0  0  0  0  0  0  0
  186.2630  178.1730  143.5830 C   0  0  2  0  0  3  0  0  0  0  0  0
  187.5090  177.2770  145.5850 C   0  0  0  0  0  3  0  0  0  0  0  0
  188.0620  177.5970  146.7640 C   0  0  0  0  0  3  0  0  0  0  0  0
  185.8270  179.1440  145.8770 C   0  0  0  0  0  2  0  0  0  0  0  0
  186.0100  178.9080  147.3720 C   0  0  0  0  0  2  0  0  0  0  0  0
  187.4910  178.6690  147.6550 C   0  0  0  0  0  2  0  0  0  0  0  0
  186.2120  177.8850  145.0910 C   0  0  1  0  0  3  0  0  0  0  0  0
  183.9620  178.3340  143.9910 C   0  0  0  0  0  1  0  0  0  0  0  0
  184.9340  178.0540  142.9370 N   0  0  0  0  0  0  0  0  0  0  0  0
  184.7740  178.9880  141.8710 N   0  0  0  0  0  0  0  0  0  0  0  0
  185.9390  179.6900  141.7720 O   0  0  0  0  0  1  0  0  0  0  0  0
  184.1830  180.1880  139.2070 O   0  0  0  0  0  1  0  0  0  0  0  0
  183.1440  177.7400  140.4610 C   0  0  0  0  0  2  0  0  0  0  0  0
  182.7670  177.3000  139.0360 C   0  0  0  0  0  2  0  0  0  0  0  0
  184.9950  179.0590  139.3460 C   0  0  2  0  0  3  0  0  0  0  0  0
  184.9250  178.2150  138.0690 C   0  0  0  0  0  2  0  0  0  0  0  0
  184.0010  176.9920  138.1830 C   0  0  2  0  0  3  0  0  0  0  0  0
  184.5940  178.2480  140.6000 C   0  0  1  0  0  3  0  0  0  0  0  0
  183.6380  176.4790  136.8220 C   0  0  0  0  0  0  0  0  0  0  0  0
  183.8020  177.2450  135.7920 N   0  0  0  0  0  2  0  0  0  0  0  0
  182.9280  175.2480  136.6750 N   0  0  0  0  0  1  0  0  0  0  0  0
  1 10  1  1  0  0  0
  1  8  1  0  0  0  0
  1 16  1  0  0  0  0
  2 13  1  6  0  0  0
  2  7  1  0  0  0  0
  2  9  1  0  0  0  0
  3  7  1  0  0  0  0
  4 15  1  0  0  0  0
  4 17  1  1  0  0  0
  4 12  1  0  0  0  0
  6 14  1  1  0  0  0
  6  2  1  0  0  0  0
  6  4  1  0  0  0  0
  7 11  1  1  0  0  0
  8  3  1  0  0  0  0
  9 12  1  0  0  0  0
 14  5  1  0  0  0  0
 15 17  1  0  0  0  0
 15 29  1  1  0  0  0
 16 24  1  6  0  0  0
 16  5  1  0  0  0  0
 18 21  2  0  0  0  0
 18 22  1  0  0  0  0
 19 15  1  0  0  0  0
 20 19  1  0  0  0  0
 21 23  1  0  0  0  0
 22 20  2  0  0  0  0
 23 19  2  0  0  0  0
 24 25  1  0  0  0  0
 26 25  1  0  0  0  0
 26 28  1  0  0  0  0
 28 27  1  0  0  0  0
 29 30  1  0  0  0  0
 30 32  1  0  0  0  0
 32 31  1  1  0  0  0
 32 34  1  0  0  0  0
 34 33  2  0  0  0  0
 35 34  1  6  0  0  0
 36 37  2  0  0  0  0
 37 40  1  0  0  0  0
 38 39  1  0  0  0  0
 39 40  1  0  0  0  0
 41 35  1  6  0  0  0
 41 36  1  0  0  0  0
 41 38  1  0  0  0  0
 43 35  1  0  0  0  0
 43 42  1  0  0  0  0
 44 43  1  0  0  0  0
 45 44  1  0  0  0  0
 47 52  1  0  0  0  0
 48 47  1  0  0  0  0
 49 46  1  6  0  0  0
 49 52  1  0  0  0  0
 50 51  1  0  0  0  0
 50 49  1  0  0  0  0
 51 53  1  6  0  0  0
 51 48  1  0  0  0  0
 52 44  1  1  0  0  0
 54 53  2  0  0  0  0
 55 53  1  0  0  0  0
M  END
>  <MODEL>
1

>  <REMARK>
 VINA RESULT:      -7.3      0.000      0.000
  Name = 
  15 active torsions:
  status: ('A' for Active; 'I' for Inactive)
    1  A    between atoms: N_3  and  C_25
    2  A    between atoms: N_3  and  C_38
    3  A    between atoms: C_10  and  C_48
    4  A    between atoms: C_19  and  C_37
    5  A    between atoms: C_19  and  C_45
    6  A    between atoms: C_26  and  C_45
    7  A    between atoms: C_27  and  C_51
    8  A    between atoms: C_29  and  C_38
    9  A    between atoms: C_29  and  C_53
   10  A    between atoms: N_33  and  N_49
   11  A    between atoms: N_33  and  C_52
   12  A    between atoms: C_35  and  O_40
   13  A    between atoms: C_35  and  C_51
   14  A    between atoms: C_37  and  O_40
   15  A    between atoms: C_45  and  N_49
                            x       y       z     vdW  Elec       q    Type
                         _______ _______ _______ _____ _____    ______ ____

>  <TORSDO>
F 15

$$$$
=
 OpenBabel10272401313D

 55 60  0  0  1  0  0  0  0  0999 V2000
  184.8440  178.9500  144.8850 C   0  0  1  0  0  3  0  0  0  0  0  0
  186.7610  178.8330  141.4200 C   0  0  2  0  0  0  0  0  0  0  0  0
  184.4490  179.1070  142.6170 C   0  0  0  0  0  2  0  0  0  0  0  0
  188.4580  177.2060  141.6910 C   0  0  1  0  0  0  0  0  0  0  0  0
  186.3840  177.1920  143.9870 O   0  0  0  0  0  0  0  0  0  0  0  0
  187.8220  178.3760  142.4170 C   0  0  2  0  0  3  0  0  0  0  0  0
  185.3340  178.2720  141.6840 C   0  0  1  0  0  3  0  0  0  0  0  0
  185.1610  179.6550  143.7000 O   0  0  0  0  0  0  0  0  0  0  0  0
  187.3150  178.2690  140.1070 C   0  0  0  0  0  2  0  0  0  0  0  0
  183.3570  178.9380  145.2290 C   0  0  0  0  0  1  0  0  0  0  0  0
  184.6340  178.0660  140.4910 O   0  0  0  0  0  1  0  0  0  0  0  0
  188.0520  177.0920  140.3560 O   0  0  0  0  0  0  0  0  0  0  0  0
  186.7440  180.2270  141.3390 O   0  0  0  0  0  1  0  0  0  0  0  0
  187.4220  178.1360  143.8810 C   0  0  0  0  0  2  0  0  0  0  0  0
  189.8650  176.7320  142.0290 C   0  0  2  0  0  0  0  0  0  0  0  0
  185.5250  177.5680  145.0440 C   0  0  1  0  0  3  0  0  0  0  0  0
  188.6530  175.8710  142.3940 C   0  0  0  0  0  2  0  0  0  0  0  0
  191.8040  178.7670  145.2970 C   0  0  0  0  0  3  0  0  0  0  0  0
  190.5620  177.4260  143.1680 C   0  0  0  0  0  0  0  0  0  0  0  0
  190.8810  178.7860  143.0590 C   0  0  0  0  0  3  0  0  0  0  0  0
  191.4910  177.4110  145.4110 C   0  0  0  0  0  3  0  0  0  0  0  0
  191.5030  179.4540  144.1200 C   0  0  0  0  0  3  0  0  0  0  0  0
  190.8750  176.7410  144.3500 C   0  0  0  0  0  3  0  0  0  0  0  0
  186.1980  177.4030  146.4090 C   0  0  0  0  0  2  0  0  0  0  0  0
  186.0340  178.6480  147.2660 C   0  0  0  0  0  2  0  0  0  0  0  0
  187.3050  179.0050  147.8770 N   0  0  0  0  0  2  0  0  0  0  0  0
  189.4440  178.0920  148.5420 C   0  0  0  0  0  1  0  0  0  0  0  0
  188.1600  177.8380  147.7820 C   0  0  0  0  0  2  0  0  0  0  0  0
  190.6910  176.2340  140.8500 C   0  0  0  0  0  2  0  0  0  0  0  0
  190.9640  177.2790  139.9610 O   0  0  0  0  0  0  0  0  0  0  0  0
  192.7590  177.1610  138.5410 O   0  0  0  0  0  1  0  0  0  0  0  0
  191.4850  176.6590  138.8200 C   0  0  2  0  0  3  0  0  0  0  0  0
  189.9440  177.9410  137.5790 O   0  0  0  0  0  0  0  0  0  0  0  0
  190.5850  176.9030  137.6500 C   0  0  0  0  0  0  0  0  0  0  0  0
  190.5310  175.8760  136.5360 C   0  0  2  0  0  3  0  0  0  0  0  0
  188.1200  175.7000  137.2560 C   0  0  0  0  0  3  0  0  0  0  0  0
  186.8810  176.1730  137.0580 C   0  0  0  0  0  3  0  0  0  0  0  0
  188.6840  176.1920  134.8380 C   0  0  0  0  0  2  0  0  0  0  0  0
  187.1980  175.9710  134.5770 C   0  0  0  0  0  2  0  0  0  0  0  0
  186.3970  176.6210  135.7030 C   0  0  0  0  0  2  0  0  0  0  0  0
  189.1060  175.4760  136.1270 C   0  0  1  0  0  3  0  0  0  0  0  0
  190.5220  173.5470  136.7820 C   0  0  0  0  0  1  0  0  0  0  0  0
  191.4140  174.7030  136.7430 N   0  0  0  0  0  0  0  0  0  0  0  0
  192.3550  174.5510  135.6810 N   0  0  0  0  0  0  0  0  0  0  0  0
  192.1540  175.5840  134.8140 O   0  0  0  0  0  1  0  0  0  0  0  0
  194.6730  172.7750  135.0820 O   0  0  0  0  0  1  0  0  0  0  0  0
  193.8370  174.0210  137.6110 C   0  0  0  0  0  2  0  0  0  0  0  0
  195.2830  173.7840  138.0790 C   0  0  0  0  0  2  0  0  0  0  0  0
  194.8270  174.1490  135.2840 C   0  0  2  0  0  3  0  0  0  0  0  0
  196.2330  174.4350  135.8200 C   0  0  0  0  0  2  0  0  0  0  0  0
  196.2820  174.6770  137.3380 C   0  0  2  0  0  3  0  0  0  0  0  0
  193.7270  174.6910  136.2260 C   0  0  1  0  0  3  0  0  0  0  0  0
  197.6810  174.5130  137.8510 C   0  0  0  0  0  0  0  0  0  0  0  0
  198.3810  173.4940  137.4690 N   0  0  0  0  0  2  0  0  0  0  0  0
  198.1710  175.3450  138.9040 N   0  0  0  0  0  1  0  0  0  0  0  0
  1 16  1  0  0  0  0
  1 10  1  6  0  0  0
  2 13  1  6  0  0  0
  2  7  1  0  0  0  0
  2  6  1  0  0  0  0
  3  8  1  0  0  0  0
  4 15  1  0  0  0  0
  4 17  1  1  0  0  0
  4  6  1  0  0  0  0
  5 16  1  0  0  0  0
  6 14  1  1  0  0  0
  7 11  1  6  0  0  0
  7  3  1  0  0  0  0
  8  1  1  0  0  0  0
  9 12  1  0  0  0  0
  9  2  1  0  0  0  0
 12  4  1  0  0  0  0
 14  5  1  0  0  0  0
 15 29  1  6  0  0  0
 15 17  1  0  0  0  0
 15 19  1  0  0  0  0
 16 24  1  1  0  0  0
 18 21  1  0  0  0  0
 19 23  1  0  0  0  0
 20 19  2  0  0  0  0
 20 22  1  0  0  0  0
 22 18  2  0  0  0  0
 23 21  2  0  0  0  0
 24 25  1  0  0  0  0
 25 26  1  0  0  0  0
 28 26  1  0  0  0  0
 28 27  1  0  0  0  0
 30 29  1  0  0  0  0
 32 31  1  6  0  0  0
 32 30  1  0  0  0  0
 33 34  2  0  0  0  0
 34 32  1  0  0  0  0
 35 43  1  0  0  0  0
 35 34  1  1  0  0  0
 37 36  2  0  0  0  0
 38 41  1  0  0  0  0
 39 38  1  0  0  0  0
 39 40  1  0  0  0  0
 40 37  1  0  0  0  0
 41 35  1  1  0  0  0
 41 36  1  0  0  0  0
 43 42  1  0  0  0  0
 44 43  1  0  0  0  0
 45 44  1  0  0  0  0
 47 48  1  0  0  0  0
 49 46  1  1  0  0  0
 49 50  1  0  0  0  0
 49 52  1  0  0  0  0
 50 51  1  0  0  0  0
 51 53  1  1  0  0  0
 51 48  1  0  0  0  0
 52 44  1  6  0  0  0
 52 47  1  0  0  0  0
 53 55  1  0  0  0  0
 54 53  2  0  0  0  0
M  END
>  <MODEL>
2

>  <REMARK>
 VINA RESULT:      -6.2      3.127     10.375
  Name = 
  15 active torsions:
  status: ('A' for Active; 'I' for Inactive)
    1  A    between atoms: N_3  and  C_25
    2  A    between atoms: N_3  and  C_38
    3  A    between atoms: C_10  and  C_48
    4  A    between atoms: C_19  and  C_37
    5  A    between atoms: C_19  and  C_45
    6  A    between atoms: C_26  and  C_45
    7  A    between atoms: C_27  and  C_51
    8  A    between atoms: C_29  and  C_38
    9  A    between atoms: C_29  and  C_53
   10  A    between atoms: N_33  and  N_49
   11  A    between atoms: N_33  and  C_52
   12  A    between atoms: C_35  and  O_40
   13  A    between atoms: C_35  and  C_51
   14  A    between atoms: C_37  and  O_40
   15  A    between atoms: C_45  and  N_49
                            x       y       z     vdW  Elec       q    Type
                         _______ _______ _______ _____ _____    ______ ____

>  <TORSDO>
F 15

$$$$
=
 OpenBabel10272401313D

 55 60  0  0  1  0  0  0  0  0999 V2000
  184.8650  178.8830  145.0400 C   0  0  1  0  0  3  0  0  0  0  0  0
  186.5910  178.8200  141.4750 C   0  0  2  0  0  0  0  0  0  0  0  0
  184.3390  179.0090  142.7970 C   0  0  0  0  0  2  0  0  0  0  0  0
  188.3640  177.2640  141.6580 C   0  0  1  0  0  0  0  0  0  0  0  0
  186.4230  177.1830  144.0660 O   0  0  0  0  0  0  0  0  0  0  0  0
  187.7230  178.4130  142.4130 C   0  0  2  0  0  3  0  0  0  0  0  0
  185.2040  178.2040  141.8200 C   0  0  1  0  0  3  0  0  0  0  0  0
  185.0880  179.5920  143.8360 O   0  0  0  0  0  0  0  0  0  0  0  0
  187.0940  178.2690  140.1350 C   0  0  0  0  0  2  0  0  0  0  0  0
  183.4010  178.8140  145.4660 C   0  0  0  0  0  1  0  0  0  0  0  0
  184.4480  177.9630  140.6690 O   0  0  0  0  0  1  0  0  0  0  0  0
  187.8900  177.1250  140.3480 O   0  0  0  0  0  0  0  0  0  0  0  0
  186.5130  180.2120  141.3880 O   0  0  0  0  0  1  0  0  0  0  0  0
  187.4140  178.1670  143.8990 C   0  0  0  0  0  2  0  0  0  0  0  0
  189.8060  176.8490  141.9200 C   0  0  2  0  0  0  0  0  0  0  0  0
  185.6100  177.5310  145.1680 C   0  0  1  0  0  3  0  0  0  0  0  0
  188.6520  175.9430  142.3550 C   0  0  0  0  0  2  0  0  0  0  0  0
  191.8380  178.9790  145.0690 C   0  0  0  0  0  3  0  0  0  0  0  0
  190.5360  177.5790  143.0150 C   0  0  0  0  0  0  0  0  0  0  0  0
  190.7340  178.9620  142.9140 C   0  0  0  0  0  3  0  0  0  0  0  0
  191.6470  177.6000  145.1740 C   0  0  0  0  0  3  0  0  0  0  0  0
  191.3850  179.6600  143.9380 C   0  0  0  0  0  3  0  0  0  0  0  0
  191.0020  176.9000  144.1510 C   0  0  0  0  0  3  0  0  0  0  0  0
  186.3620  177.4020  146.4940 C   0  0  0  0  0  2  0  0  0  0  0  0
  186.2030  178.6490  147.3490 C   0  0  0  0  0  2  0  0  0  0  0  0
  187.4330  178.9160  148.0790 N   0  0  0  0  0  2  0  0  0  0  0  0
  189.5000  177.6590  148.0360 C   0  0  0  0  0  1  0  0  0  0  0  0
  188.0270  177.6290  148.3860 C   0  0  0  0  0  2  0  0  0  0  0  0
  190.5850  176.3760  140.6990 C   0  0  0  0  0  2  0  0  0  0  0  0
  190.5220  177.3270  139.6740 O   0  0  0  0  0  0  0  0  0  0  0  0
  192.0190  176.8540  138.0050 O   0  0  0  0  0  1  0  0  0  0  0  0
  190.7340  176.6040  138.4950 C   0  0  2  0  0  3  0  0  0  0  0  0
  189.6250  178.1640  137.1190 O   0  0  0  0  0  0  0  0  0  0  0  0
  189.7220  176.9960  137.4660 C   0  0  0  0  0  0  0  0  0  0  0  0
  188.8710  175.9190  136.8220 C   0  0  2  0  0  3  0  0  0  0  0  0
  190.7090  175.7920  135.0990 C   0  0  0  0  0  3  0  0  0  0  0  0
  191.9200  175.2850  134.8250 C   0  0  0  0  0  3  0  0  0  0  0  0
  190.2150  173.7920  136.5690 C   0  0  0  0  0  2  0  0  0  0  0  0
  191.1680  173.0370  135.6490 C   0  0  0  0  0  2  0  0  0  0  0  0
  192.3610  173.9360  135.3300 C   0  0  0  0  0  2  0  0  0  0  0  0
  189.6420  175.0170  135.8470 C   0  0  1  0  0  3  0  0  0  0  0  0
  187.3800  175.6230  135.0400 C   0  0  0  0  0  1  0  0  0  0  0  0
  187.5920  176.4080  136.2540 N   0  0  0  0  0  0  0  0  0  0  0  0
  186.5010  176.2140  137.1520 N   0  0  0  0  0  0  0  0  0  0  0  0
  185.7090  177.3200  137.0670 O   0  0  0  0  0  1  0  0  0  0  0  0
  183.7650  175.4950  138.0910 O   0  0  0  0  0  1  0  0  0  0  0  0
  186.0750  173.7820  137.4760 C   0  0  0  0  0  2  0  0  0  0  0  0
  185.0540  172.6390  137.3440 C   0  0  0  0  0  2  0  0  0  0  0  0
  184.1710  175.2930  136.7690 C   0  0  2  0  0  3  0  0  0  0  0  0
  183.3790  174.1300  136.1600 C   0  0  0  0  0  2  0  0  0  0  0  0
  184.1590  172.8060  136.1130 C   0  0  2  0  0  3  0  0  0  0  0  0
  185.6970  175.0570  136.6940 C   0  0  1  0  0  3  0  0  0  0  0  0
  183.2220  171.6500  135.9300 C   0  0  0  0  0  0  0  0  0  0  0  0
  183.7050  170.4780  135.6720 N   0  0  0  0  0  2  0  0  0  0  0  0
  181.8130  171.8650  135.8330 N   0  0  0  0  0  1  0  0  0  0  0  0
  1 16  1  0  0  0  0
  1 10  1  6  0  0  0
  2 13  1  6  0  0  0
  2  7  1  0  0  0  0
  2  6  1  0  0  0  0
  3  8  1  0  0  0  0
  4 15  1  0  0  0  0
  4 17  1  1  0  0  0
  4  6  1  0  0  0  0
  5 16  1  0  0  0  0
  6 14  1  1  0  0  0
  7 11  1  6  0  0  0
  7  3  1  0  0  0  0
  8  1  1  0  0  0  0
  9 12  1  0  0  0  0
  9  2  1  0  0  0  0
 12  4  1  0  0  0  0
 14  5  1  0  0  0  0
 15 29  1  6  0  0  0
 15 17  1  0  0  0  0
 15 19  1  0  0  0  0
 16 24  1  1  0  0  0
 18 21  1  0  0  0  0
 19 23  1  0  0  0  0
 20 19  2  0  0  0  0
 20 22  1  0  0  0  0
 22 18  2  0  0  0  0
 23 21  2  0  0  0  0
 24 25  1  0  0  0  0
 25 26  1  0  0  0  0
 26 28  1  0  0  0  0
 27 28  1  0  0  0  0
 30 29  1  0  0  0  0
 32 31  1  6  0  0  0
 32 30  1  0  0  0  0
 33 34  2  0  0  0  0
 34 32  1  0  0  0  0
 35 34  1  6  0  0  0
 36 41  1  0  0  0  0
 37 36  2  0  0  0  0
 37 40  1  0  0  0  0
 39 38  1  0  0  0  0
 40 39  1  0  0  0  0
 41 38  1  0  0  0  0
 41 35  1  1  0  0  0
 42 43  1  0  0  0  0
 43 35  1  0  0  0  0
 43 44  1  0  0  0  0
 45 44  1  0  0  0  0
 48 47  1  0  0  0  0
 49 46  1  1  0  0  0
 50 49  1  0  0  0  0
 51 53  1  1  0  0  0
 51 50  1  0  0  0  0
 51 48  1  0  0  0  0
 52 49  1  0  0  0  0
 52 44  1  1  0  0  0
 52 47  1  0  0  0  0
 54 53  2  0  0  0  0
 55 53  1  0  0  0  0
M  END
>  <MODEL>
3

>  <REMARK>
 VINA RESULT:      -6.1      2.441      8.994
  Name = 
  15 active torsions:
  status: ('A' for Active; 'I' for Inactive)
    1  A    between atoms: N_3  and  C_25
    2  A    between atoms: N_3  and  C_38
    3  A    between atoms: C_10  and  C_48
    4  A    between atoms: C_19  and  C_37
    5  A    between atoms: C_19  and  C_45
    6  A    between atoms: C_26  and  C_45
    7  A    between atoms: C_27  and  C_51
    8  A    between atoms: C_29  and  C_38
    9  A    between atoms: C_29  and  C_53
   10  A    between atoms: N_33  and  N_49
   11  A    between atoms: N_33  and  C_52
   12  A    between atoms: C_35  and  O_40
   13  A    between atoms: C_35  and  C_51
   14  A    between atoms: C_37  and  O_40
   15  A    between atoms: C_45  and  N_49
                            x       y       z     vdW  Elec       q    Type
                         _______ _______ _______ _____ _____    ______ ____

>  <TORSDO>
F 15

$$$$
=
 OpenBabel10272401313D

 55 60  0  0  1  0  0  0  0  0999 V2000
  184.8490  179.0430  144.8100 C   0  0  1  0  0  3  0  0  0  0  0  0
  186.8000  178.8260  141.3690 C   0  0  2  0  0  0  0  0  0  0  0  0
  184.4790  179.1560  142.5350 C   0  0  0  0  0  2  0  0  0  0  0  0
  188.4710  177.1830  141.6930 C   0  0  1  0  0  0  0  0  0  0  0  0
  186.3740  177.2460  143.9660 O   0  0  0  0  0  0  0  0  0  0  0  0
  187.8440  178.3760  142.3860 C   0  0  2  0  0  3  0  0  0  0  0  0
  185.3620  178.2900  141.6300 C   0  0  1  0  0  3  0  0  0  0  0  0
  185.1880  179.7180  143.6140 O   0  0  0  0  0  0  0  0  0  0  0  0
  187.3600  178.2260  140.0740 C   0  0  0  0  0  2  0  0  0  0  0  0
  183.3580  179.0580  145.1380 C   0  0  0  0  0  1  0  0  0  0  0  0
  184.6720  178.0680  140.4340 O   0  0  0  0  0  1  0  0  0  0  0  0
  188.0780  177.0460  140.3560 O   0  0  0  0  0  0  0  0  0  0  0  0
  186.8020  180.2180  141.2580 O   0  0  0  0  0  1  0  0  0  0  0  0
  187.4250  178.1730  143.8520 C   0  0  0  0  0  2  0  0  0  0  0  0
  189.8690  176.6970  142.0560 C   0  0  2  0  0  0  0  0  0  0  0  0
  185.5090  177.6560  145.0060 C   0  0  1  0  0  3  0  0  0  0  0  0
  188.6410  175.8610  142.4260 C   0  0  0  0  0  2  0  0  0  0  0  0
  191.8010  178.7750  145.3010 C   0  0  0  0  0  3  0  0  0  0  0  0
  190.5630  177.4060  143.1870 C   0  0  0  0  0  0  0  0  0  0  0  0
  190.8880  178.7630  143.0580 C   0  0  0  0  0  3  0  0  0  0  0  0
  191.4820  177.4220  145.4350 C   0  0  0  0  0  3  0  0  0  0  0  0
  191.5080  179.4450  144.1120 C   0  0  0  0  0  3  0  0  0  0  0  0
  190.8680  176.7380  144.3810 C   0  0  0  0  0  3  0  0  0  0  0  0
  186.1650  177.5110  146.3820 C   0  0  0  0  0  2  0  0  0  0  0  0
  186.0350  178.7870  147.1980 C   0  0  0  0  0  2  0  0  0  0  0  0
  187.2350  178.9950  147.9950 N   0  0  0  0  0  2  0  0  0  0  0  0
  189.3900  178.0310  148.5250 C   0  0  0  0  0  1  0  0  0  0  0  0
  188.1610  177.9350  147.6460 C   0  0  0  0  0  2  0  0  0  0  0  0
  190.7000  176.1630  140.8970 C   0  0  0  0  0  2  0  0  0  0  0  0
  191.1630  177.2120  140.0950 O   0  0  0  0  0  0  0  0  0  0  0  0
  193.0450  177.2470  138.7890 O   0  0  0  0  0  1  0  0  0  0  0  0
  191.8360  176.5920  139.0380 C   0  0  2  0  0  3  0  0  0  0  0  0
  190.4850  177.6720  137.4360 O   0  0  0  0  0  0  0  0  0  0  0  0
  190.9900  176.6210  137.8050 C   0  0  0  0  0  0  0  0  0  0  0  0
  190.8230  175.3510  136.9950 C   0  0  2  0  0  3  0  0  0  0  0  0
  192.9110  176.1440  135.8220 C   0  0  0  0  0  3  0  0  0  0  0  0
  194.2520  176.1510  135.8580 C   0  0  0  0  0  3  0  0  0  0  0  0
  192.9010  173.9090  137.0100 C   0  0  0  0  0  2  0  0  0  0  0  0
  194.2540  173.6890  136.3430 C   0  0  0  0  0  2  0  0  0  0  0  0
  195.0480  174.9910  136.3970 C   0  0  0  0  0  2  0  0  0  0  0  0
  192.0830  174.9380  136.2190 C   0  0  1  0  0  3  0  0  0  0  0  0
  190.0810  175.2580  134.7750 C   0  0  0  0  0  1  0  0  0  0  0  0
  189.6020  175.3180  136.1550 N   0  0  0  0  0  0  0  0  0  0  0  0
  188.7930  174.1770  136.4350 N   0  0  0  0  0  0  0  0  0  0  0  0
  189.3650  173.5270  137.4880 O   0  0  0  0  0  1  0  0  0  0  0  0
  186.3900  174.4720  134.6960 O   0  0  0  0  0  1  0  0  0  0  0  0
  187.3700  176.1700  136.8880 C   0  0  0  0  0  2  0  0  0  0  0  0
  185.9370  176.7220  136.9560 C   0  0  0  0  0  2  0  0  0  0  0  0
  186.2950  174.0460  136.0250 C   0  0  2  0  0  3  0  0  0  0  0  0
  184.9220  174.4270  136.5890 C   0  0  0  0  0  2  0  0  0  0  0  0
  184.9430  175.6810  137.4790 C   0  0  2  0  0  3  0  0  0  0  0  0
  187.4510  174.6290  136.8700 C   0  0  1  0  0  3  0  0  0  0  0  0
  183.5600  176.2400  137.6300 C   0  0  0  0  0  0  0  0  0  0  0  0
  182.6620  175.5490  138.2560 N   0  0  0  0  0  1  0  0  0  0  0  0
  183.1710  177.4180  136.9230 N   0  0  0  0  0  2  0  0  0  0  0  0
  1 16  1  0  0  0  0
  1 10  1  6  0  0  0
  2 13  1  6  0  0  0
  2  7  1  0  0  0  0
  2  6  1  0  0  0  0
  3  8  1  0  0  0  0
  4 15  1  0  0  0  0
  4  6  1  0  0  0  0
  4 17  1  1  0  0  0
  5 16  1  0  0  0  0
  6 14  1  1  0  0  0
  7 11  1  6  0  0  0
  7  3  1  0  0  0  0
  8  1  1  0  0  0  0
  9 12  1  0  0  0  0
  9  2  1  0  0  0  0
 12  4  1  0  0  0  0
 14  5  1  0  0  0  0
 15 29  1  6  0  0  0
 15 17  1  0  0  0  0
 15 19  1  0  0  0  0
 16 24  1  1  0  0  0
 18 21  1  0  0  0  0
 19 23  1  0  0  0  0
 20 19  2  0  0  0  0
 20 22  1  0  0  0  0
 22 18  2  0  0  0  0
 23 21  2  0  0  0  0
 24 25  1  0  0  0  0
 25 26  1  0  0  0  0
 28 26  1  0  0  0  0
 28 27  1  0  0  0  0
 30 29  1  0  0  0  0
 32 31  1  6  0  0  0
 32 30  1  0  0  0  0
 33 34  2  0  0  0  0
 34 32  1  0  0  0  0
 35 34  1  6  0  0  0
 36 37  2  0  0  0  0
 36 41  1  0  0  0  0
 37 40  1  0  0  0  0
 39 40  1  0  0  0  0
 39 38  1  0  0  0  0
 41 35  1  1  0  0  0
 41 38  1  0  0  0  0
 42 43  1  0  0  0  0
 43 44  1  0  0  0  0
 43 35  1  0  0  0  0
 44 45  1  0  0  0  0
 47 48  1  0  0  0  0
 48 51  1  0  0  0  0
 49 46  1  6  0  0  0
 49 50  1  0  0  0  0
 49 52  1  0  0  0  0
 50 51  1  0  0  0  0
 51 53  1  6  0  0  0
 52 44  1  6  0  0  0
 52 47  1  0  0  0  0
 53 54  1  0  0  0  0
 55 53  2  0  0  0  0
M  END
>  <MODEL>
4

>  <REMARK>
 VINA RESULT:      -5.9      2.208      9.133
  Name = 
  15 active torsions:
  status: ('A' for Active; 'I' for Inactive)
    1  A    between atoms: N_3  and  C_25
    2  A    between atoms: N_3  and  C_38
    3  A    between atoms: C_10  and  C_48
    4  A    between atoms: C_19  and  C_37
    5  A    between atoms: C_19  and  C_45
    6  A    between atoms: C_26  and  C_45
    7  A    between atoms: C_27  and  C_51
    8  A    between atoms: C_29  and  C_38
    9  A    between atoms: C_29  and  C_53
   10  A    between atoms: N_33  and  N_49
   11  A    between atoms: N_33  and  C_52
   12  A    between atoms: C_35  and  O_40
   13  A    between atoms: C_35  and  C_51
   14  A    between atoms: C_37  and  O_40
   15  A    between atoms: C_45  and  N_49
                            x       y       z     vdW  Elec       q    Type
                         _______ _______ _______ _____ _____    ______ ____

>  <TORSDO>
F 15

$$$$
=
 OpenBabel10272401313D

 55 60  0  0  1  0  0  0  0  0999 V2000
  190.0420  172.3540  134.8520 C   0  0  1  0  0  3  0  0  0  0  0  0
  191.7120  175.5830  136.4270 C   0  0  2  0  0  0  0  0  0  0  0  0
  192.1020  173.1650  135.5000 C   0  0  0  0  0  2  0  0  0  0  0  0
  190.1480  176.3990  138.0020 C   0  0  1  0  0  0  0  0  0  0  0  0
  189.4590  173.5680  136.9620 O   0  0  0  0  0  0  0  0  0  0  0  0
  190.2200  175.8520  136.5900 C   0  0  2  0  0  3  0  0  0  0  0  0
  192.1440  174.1130  136.7040 C   0  0  1  0  0  3  0  0  0  0  0  0
  190.9890  173.3880  134.6670 O   0  0  0  0  0  0  0  0  0  0  0  0
  192.3070  176.5160  137.4870 C   0  0  0  0  0  2  0  0  0  0  0  0
  190.5830  170.9520  134.5860 C   0  0  0  0  0  1  0  0  0  0  0  0
  193.4250  174.0510  137.2610 O   0  0  0  0  0  1  0  0  0  0  0  0
  191.4040  176.6750  138.5570 O   0  0  0  0  0  0  0  0  0  0  0  0
  192.1430  176.0010  135.1650 O   0  0  0  0  0  1  0  0  0  0  0  0
  189.2140  174.7460  136.2330 C   0  0  0  0  0  2  0  0  0  0  0  0
  188.9830  177.2690  138.4590 C   0  0  2  0  0  0  0  0  0  0  0  0
  189.1870  172.4520  136.1400 C   0  0  1  0  0  3  0  0  0  0  0  0
  189.1400  175.8460  138.9980 C   0  0  0  0  0  2  0  0  0  0  0  0
  185.7620  177.9450  135.6760 C   0  0  0  0  0  3  0  0  0  0  0  0
  187.8730  177.4930  137.4690 C   0  0  0  0  0  0  0  0  0  0  0  0
  186.6120  176.9260  137.7010 C   0  0  0  0  0  3  0  0  0  0  0  0
  187.0160  178.5110  135.4370 C   0  0  0  0  0  3  0  0  0  0  0  0
  185.5610  177.1490  136.8050 C   0  0  0  0  0  3  0  0  0  0  0  0
  188.0690  178.2840  136.3280 C   0  0  0  0  0  3  0  0  0  0  0  0
  187.6890  172.3040  135.8580 C   0  0  0  0  0  2  0  0  0  0  0  0
  186.8610  172.5390  137.1110 C   0  0  0  0  0  2  0  0  0  0  0  0
  185.4510  172.3150  136.8270 N   0  0  0  0  0  2  0  0  0  0  0  0
  183.3040  173.4150  137.0070 C   0  0  0  0  0  1  0  0  0  0  0  0
  184.7090  173.3200  137.5630 C   0  0  0  0  0  2  0  0  0  0  0  0
  189.3390  178.3820  139.4360 C   0  0  0  0  0  2  0  0  0  0  0  0
  188.1840  178.9260  140.0070 O   0  0  0  0  0  0  0  0  0  0  0  0
  189.5180  178.0420  141.6470 O   0  0  0  0  0  1  0  0  0  0  0  0
  188.3460  178.7560  141.3860 C   0  0  2  0  0  3  0  0  0  0  0  0
  187.0970  176.8030  141.8180 O   0  0  0  0  0  0  0  0  0  0  0  0
  187.1750  178.0160  141.9510 C   0  0  0  0  0  0  0  0  0  0  0  0
  186.1300  178.7820  142.7390 C   0  0  2  0  0  3  0  0  0  0  0  0
  186.9850  177.5170  144.7470 C   0  0  0  0  0  3  0  0  0  0  0  0
  187.2090  177.5810  146.0680 C   0  0  0  0  0  3  0  0  0  0  0  0
  185.0630  179.1430  145.0030 C   0  0  0  0  0  2  0  0  0  0  0  0
  184.9270  178.5680  146.4080 C   0  0  0  0  0  2  0  0  0  0  0  0
  186.3220  178.3680  146.9960 C   0  0  0  0  0  2  0  0  0  0  0  0
  185.7710  178.1380  144.0860 C   0  0  1  0  0  3  0  0  0  0  0  0
  185.4210  179.4350  140.6040 C   0  0  0  0  0  1  0  0  0  0  0  0
  184.9310  179.1630  141.9530 N   0  0  0  0  0  0  0  0  0  0  0  0
  183.9640  178.1150  141.9140 N   0  0  0  0  0  0  0  0  0  0  0  0
  182.9750  178.4470  142.7910 O   0  0  0  0  0  1  0  0  0  0  0  0
  181.0490  178.1290  141.2920 O   0  0  0  0  0  1  0  0  0  0  0  0
  183.2470  176.6070  140.0660 C   0  0  0  0  0  2  0  0  0  0  0  0
  182.3050  176.4250  138.8640 C   0  0  0  0  0  2  0  0  0  0  0  0
  181.9850  178.7640  140.4700 C   0  0  2  0  0  3  0  0  0  0  0  0
  181.4580  178.8090  139.0310 C   0  0  0  0  0  2  0  0  0  0  0  0
  182.0700  177.7390  138.1130 C   0  0  2  0  0  3  0  0  0  0  0  0
  183.3600  178.0630  140.5620 C   0  0  1  0  0  3  0  0  0  0  0  0
  181.2240  177.5510  136.8900 C   0  0  0  0  0  0  0  0  0  0  0  0
  180.6420  176.4110  136.6910 N   0  0  0  0  0  1  0  0  0  0  0  0
  181.2210  178.5300  135.8500 N   0  0  0  0  0  2  0  0  0  0  0  0
  1 10  1  1  0  0  0
  1 16  1  0  0  0  0
  2 13  1  6  0  0  0
  2  6  1  0  0  0  0
  2  7  1  0  0  0  0
  2  9  1  0  0  0  0
  3  7  1  0  0  0  0
  4 15  1  0  0  0  0
  4 12  1  0  0  0  0
  4 17  1  1  0  0  0
  6 14  1  1  0  0  0
  6  4  1  0  0  0  0
  7 11  1  6  0  0  0
  8  1  1  0  0  0  0
  8  3  1  0  0  0  0
  9 12  1  0  0  0  0
 14  5  1  0  0  0  0
 15 17  1  0  0  0  0
 15 29  1  1  0  0  0
 16 24  1  6  0  0  0
 16  5  1  0  0  0  0
 18 22  1  0  0  0  0
 19 20  1  0  0  0  0
 19 15  1  0  0  0  0
 21 18  2  0  0  0  0
 21 23  1  0  0  0  0
 22 20  2  0  0  0  0
 23 19  2  0  0  0  0
 24 25  1  0  0  0  0
 26 25  1  0  0  0  0
 26 28  1  0  0  0  0
 27 28  1  0  0  0  0
 29 30  1  0  0  0  0
 30 32  1  0  0  0  0
 32 31  1  6  0  0  0
 32 34  1  0  0  0  0
 33 34  2  0  0  0  0
 35 34  1  6  0  0  0
 36 37  2  0  0  0  0
 37 40  1  0  0  0  0
 38 39  1  0  0  0  0
 39 40  1  0  0  0  0
 41 35  1  6  0  0  0
 41 36  1  0  0  0  0
 41 38  1  0  0  0  0
 42 43  1  0  0  0  0
 43 35  1  0  0  0  0
 44 43  1  0  0  0  0
 44 45  1  0  0  0  0
 47 52  1  0  0  0  0
 48 47  1  0  0  0  0
 49 52  1  0  0  0  0
 49 46  1  1  0  0  0
 50 49  1  0  0  0  0
 51 53  1  6  0  0  0
 51 48  1  0  0  0  0
 51 50  1  0  0  0  0
 52 44  1  1  0  0  0
 54 53  1  0  0  0  0
 55 53  2  0  0  0  0
M  END
>  <MODEL>
5

>  <REMARK>
 VINA RESULT:      -5.8      1.615      2.165
  Name = 
  15 active torsions:
  status: ('A' for Active; 'I' for Inactive)
    1  A    between atoms: N_3  and  C_25
    2  A    between atoms: N_3  and  C_38
    3  A    between atoms: C_10  and  C_48
    4  A    between atoms: C_19  and  C_37
    5  A    between atoms: C_19  and  C_45
    6  A    between atoms: C_26  and  C_45
    7  A    between atoms: C_27  and  C_51
    8  A    between atoms: C_29  and  C_38
    9  A    between atoms: C_29  and  C_53
   10  A    between atoms: N_33  and  N_49
   11  A    between atoms: N_33  and  C_52
   12  A    between atoms: C_35  and  O_40
   13  A    between atoms: C_35  and  C_51
   14  A    between atoms: C_37  and  O_40
   15  A    between atoms: C_45  and  N_49
                            x       y       z     vdW  Elec       q    Type
                         _______ _______ _______ _____ _____    ______ ____

>  <TORSDO>
F 15

$$$$
=
 OpenBabel10272401313D

 55 60  0  0  1  0  0  0  0  0999 V2000
  193.0850  173.7300  136.5770 C   0  0  1  0  0  3  0  0  0  0  0  0
  189.2080  174.5090  136.8210 C   0  0  2  0  0  0  0  0  0  0  0  0
  191.1160  173.3820  135.4260 C   0  0  0  0  0  2  0  0  0  0  0  0
  189.0570  176.6740  137.7640 C   0  0  1  0  0  0  0  0  0  0  0  0
  191.9290  175.9290  136.8890 O   0  0  0  0  0  0  0  0  0  0  0  0
  189.8030  175.3650  137.9350 C   0  0  2  0  0  3  0  0  0  0  0  0
  190.0440  174.4750  135.5080 C   0  0  1  0  0  3  0  0  0  0  0  0
  191.7840  173.1790  136.6480 O   0  0  0  0  0  0  0  0  0  0  0  0
  187.8710  175.2160  136.5760 C   0  0  0  0  0  2  0  0  0  0  0  0
  193.9440  173.1690  135.4470 C   0  0  0  0  0  1  0  0  0  0  0  0
  189.2250  174.3660  134.3810 O   0  0  0  0  0  1  0  0  0  0  0  0
  187.9880  176.5910  136.8640 O   0  0  0  0  0  0  0  0  0  0  0  0
  188.9560  173.2170  137.2870 O   0  0  0  0  0  1  0  0  0  0  0  0
  191.3310  175.4620  138.0730 C   0  0  0  0  0  2  0  0  0  0  0  0
  188.9210  177.6660  138.9110 C   0  0  2  0  0  0  0  0  0  0  0  0
  193.1670  175.2710  136.7070 C   0  0  1  0  0  3  0  0  0  0  0  0
  189.8100  177.9940  137.7100 C   0  0  0  0  0  2  0  0  0  0  0  0
  190.9320  176.6120  142.5750 C   0  0  0  0  0  3  0  0  0  0  0  0
  189.6270  177.3230  140.1950 C   0  0  0  0  0  0  0  0  0  0  0  0
  188.9450  176.6130  141.1920 C   0  0  0  0  0  3  0  0  0  0  0  0
  191.6170  177.3230  141.5860 C   0  0  0  0  0  3  0  0  0  0  0  0
  189.5960  176.2610  142.3800 C   0  0  0  0  0  3  0  0  0  0  0  0
  190.9670  177.6800  140.4020 C   0  0  0  0  0  3  0  0  0  0  0  0
  194.2040  175.7150  137.7420 C   0  0  0  0  0  2  0  0  0  0  0  0
  195.0360  174.5420  138.2360 C   0  0  0  0  0  2  0  0  0  0  0  0
  196.4510  174.8110  138.0320 N   0  0  0  0  0  2  0  0  0  0  0  0
  196.9920  175.1590  140.3640 C   0  0  0  0  0  1  0  0  0  0  0  0
  197.1550  174.2470  139.1670 C   0  0  0  0  0  2  0  0  0  0  0  0
  187.5990  178.4210  138.9730 C   0  0  0  0  0  2  0  0  0  0  0  0
  186.5220  177.5290  139.0270 O   0  0  0  0  0  0  0  0  0  0  0  0
  186.2600  178.8030  137.1400 O   0  0  0  0  0  1  0  0  0  0  0  0
  185.6050  178.0090  138.0860 C   0  0  2  0  0  3  0  0  0  0  0  0
  184.6800  180.0290  138.8770 O   0  0  0  0  0  0  0  0  0  0  0  0
  184.5480  178.8180  138.7690 C   0  0  0  0  0  0  0  0  0  0  0  0
  183.2940  178.1240  139.2630 C   0  0  2  0  0  3  0  0  0  0  0  0
  182.6840  178.0900  136.8150 C   0  0  0  0  0  3  0  0  0  0  0  0
  182.8070  177.4100  135.6650 C   0  0  0  0  0  3  0  0  0  0  0  0
  182.8570  175.9190  138.1050 C   0  0  0  0  0  2  0  0  0  0  0  0
  182.2480  175.2770  136.8640 C   0  0  0  0  0  2  0  0  0  0  0  0
  182.8790  175.9060  135.6240 C   0  0  0  0  0  2  0  0  0  0  0  0
  182.5020  177.4100  138.1580 C   0  0  1  0  0  3  0  0  0  0  0  0
  181.4000  179.5030  139.2440 C   0  0  0  0  0  1  0  0  0  0  0  0
  182.4320  178.9640  140.1280 N   0  0  0  0  0  0  0  0  0  0  0  0
  181.8250  178.2060  141.1730 N   0  0  0  0  0  0  0  0  0  0  0  0
  181.7130  176.9230  140.7250 O   0  0  0  0  0  1  0  0  0  0  0  0
  181.9390  180.2560  143.3340 O   0  0  0  0  0  1  0  0  0  0  0  0
  184.1040  178.7880  141.9900 C   0  0  0  0  0  2  0  0  0  0  0  0
  184.9640  179.1560  143.2110 C   0  0  0  0  0  2  0  0  0  0  0  0
  182.1450  178.8970  143.5910 C   0  0  2  0  0  3  0  0  0  0  0  0
  183.0480  178.7380  144.8190 C   0  0  0  0  0  2  0  0  0  0  0  0
  184.5120  178.4200  144.4760 C   0  0  2  0  0  3  0  0  0  0  0  0
  182.7290  178.1880  142.3470 C   0  0  1  0  0  3  0  0  0  0  0  0
  185.4010  178.7080  145.6490 C   0  0  0  0  0  0  0  0  0  0  0  0
  186.6850  178.7050  145.4860 N   0  0  0  0  0  2  0  0  0  0  0  0
  184.8620  178.7780  146.9690 N   0  0  0  0  0  1  0  0  0  0  0  0
  1 10  1  6  0  0  0
  1  8  1  0  0  0  0
  1 16  1  0  0  0  0
  2 13  1  1  0  0  0
  2  6  1  0  0  0  0
  3  7  1  0  0  0  0
  3  8  1  0  0  0  0
  4 17  1  6  0  0  0
  4  6  1  0  0  0  0
  4 15  1  0  0  0  0
  5 14  1  0  0  0  0
  6 14  1  6  0  0  0
  7 11  1  6  0  0  0
  7  2  1  0  0  0  0
  9  2  1  0  0  0  0
  9 12  1  0  0  0  0
 12  4  1  0  0  0  0
 15 29  1  1  0  0  0
 15 19  1  0  0  0  0
 16  5  1  0  0  0  0
 16 24  1  1  0  0  0
 17 15  1  0  0  0  0
 19 23  2  0  0  0  0
 19 20  1  0  0  0  0
 20 22  2  0  0  0  0
 21 18  2  0  0  0  0
 22 18  1  0  0  0  0
 23 21  1  0  0  0  0
 24 25  1  0  0  0  0
 26 25  1  0  0  0  0
 26 28  1  0  0  0  0
 28 27  1  0  0  0  0
 29 30  1  0  0  0  0
 32 31  1  6  0  0  0
 32 34  1  0  0  0  0
 32 30  1  0  0  0  0
 34 33  2  0  0  0  0
 35 34  1  6  0  0  0
 35 43  1  0  0  0  0
 36 41  1  0  0  0  0
 37 36  2  0  0  0  0
 38 41  1  0  0  0  0
 39 38  1  0  0  0  0
 40 37  1  0  0  0  0
 40 39  1  0  0  0  0
 41 35  1  1  0  0  0
 42 43  1  0  0  0  0
 43 44  1  0  0  0  0
 45 44  1  0  0  0  0
 47 52  1  0  0  0  0
 47 48  1  0  0  0  0
 48 51  1  0  0  0  0
 49 46  1  6  0  0  0
 49 50  1  0  0  0  0
 51 50  1  0  0  0  0
 51 53  1  1  0  0  0
 52 44  1  6  0  0  0
 52 49  1  0  0  0  0
 53 55  1  0  0  0  0
 54 53  2  0  0  0  0
M  END
>  <MODEL>
6

>  <REMARK>
 VINA RESULT:      -5.6      2.604      6.491
  Name = 
  15 active torsions:
  status: ('A' for Active; 'I' for Inactive)
    1  A    between atoms: N_3  and  C_25
    2  A    between atoms: N_3  and  C_38
    3  A    between atoms: C_10  and  C_48
    4  A    between atoms: C_19  and  C_37
    5  A    between atoms: C_19  and  C_45
    6  A    between atoms: C_26  and  C_45
    7  A    between atoms: C_27  and  C_51
    8  A    between atoms: C_29  and  C_38
    9  A    between atoms: C_29  and  C_53
   10  A    between atoms: N_33  and  N_49
   11  A    between atoms: N_33  and  C_52
   12  A    between atoms: C_35  and  O_40
   13  A    between atoms: C_35  and  C_51
   14  A    between atoms: C_37  and  O_40
   15  A    between atoms: C_45  and  N_49
                            x       y       z     vdW  Elec       q    Type
                         _______ _______ _______ _____ _____    ______ ____

>  <TORSDO>
F 15

$$$$
=
 OpenBabel10272401313D

 55 60  0  0  1  0  0  0  0  0999 V2000
  191.8970  173.3360  136.1630 C   0  0  1  0  0  3  0  0  0  0  0  0
  188.0310  174.0620  136.6400 C   0  0  2  0  0  0  0  0  0  0  0  0
  189.8380  172.6380  135.3890 C   0  0  0  0  0  2  0  0  0  0  0  0
  187.8630  176.3990  136.9710 C   0  0  1  0  0  0  0  0  0  0  0  0
  190.6620  175.5080  136.0000 O   0  0  0  0  0  0  0  0  0  0  0  0
  188.6940  175.2050  137.4020 C   0  0  2  0  0  3  0  0  0  0  0  0
  188.7230  173.6860  135.2970 C   0  0  1  0  0  3  0  0  0  0  0  0
  190.6430  172.7960  136.5340 O   0  0  0  0  0  0  0  0  0  0  0  0
  186.6390  174.6420  136.3710 C   0  0  0  0  0  2  0  0  0  0  0  0
  192.6600  172.5050  135.1360 C   0  0  0  0  0  1  0  0  0  0  0  0
  187.7960  173.2510  134.3460 O   0  0  0  0  0  1  0  0  0  0  0  0
  186.7100  176.0460  136.2590 O   0  0  0  0  0  0  0  0  0  0  0  0
  187.9010  172.9430  137.4660 O   0  0  0  0  0  1  0  0  0  0  0  0
  190.2200  175.3720  137.3280 C   0  0  0  0  0  2  0  0  0  0  0  0
  187.7960  177.6660  137.8130 C   0  0  2  0  0  0  0  0  0  0  0  0
  191.9080  174.8550  135.8600 C   0  0  1  0  0  3  0  0  0  0  0  0
  188.5330  177.6700  136.4720 C   0  0  0  0  0  2  0  0  0  0  0  0
  190.2250  177.7160  141.3740 C   0  0  0  0  0  3  0  0  0  0  0  0
  188.6520  177.7070  139.0500 C   0  0  0  0  0  0  0  0  0  0  0  0
  188.0520  177.6020  140.3120 C   0  0  0  0  0  3  0  0  0  0  0  0
  190.8290  177.8240  140.1190 C   0  0  0  0  0  3  0  0  0  0  0  0
  188.8370  177.6090  141.4710 C   0  0  0  0  0  3  0  0  0  0  0  0
  190.0460  177.8230  138.9610 C   0  0  0  0  0  3  0  0  0  0  0  0
  193.0230  175.5910  136.6060 C   0  0  0  0  0  2  0  0  0  0  0  0
  193.8940  174.6280  137.3970 C   0  0  0  0  0  2  0  0  0  0  0  0
  195.2690  175.1030  137.4210 N   0  0  0  0  0  2  0  0  0  0  0  0
  195.2930  172.7860  138.1200 C   0  0  0  0  0  1  0  0  0  0  0  0
  196.0490  174.0980  138.1180 C   0  0  0  0  0  2  0  0  0  0  0  0
  186.4490  178.3770  137.8220 C   0  0  0  0  0  2  0  0  0  0  0  0
  185.7420  178.0820  138.9930 O   0  0  0  0  0  0  0  0  0  0  0  0
  184.6470  179.7650  140.0970 O   0  0  0  0  0  1  0  0  0  0  0  0
  184.6330  178.9360  138.9730 C   0  0  2  0  0  3  0  0  0  0  0  0
  182.9960  177.5690  139.9770 O   0  0  0  0  0  0  0  0  0  0  0  0
  183.3700  178.1340  138.9590 C   0  0  0  0  0  0  0  0  0  0  0  0
  182.5410  178.0880  137.6920 C   0  0  2  0  0  3  0  0  0  0  0  0
  181.5120  180.1290  138.7590 C   0  0  0  0  0  3  0  0  0  0  0  0
  181.1790  181.4140  138.5690 C   0  0  0  0  0  3  0  0  0  0  0  0
  181.1660  179.6830  136.2920 C   0  0  0  0  0  2  0  0  0  0  0  0
  180.1550  180.8230  136.3560 C   0  0  0  0  0  2  0  0  0  0  0  0
  180.7220  181.9370  137.2320 C   0  0  0  0  0  2  0  0  0  0  0  0
  181.3610  179.0710  137.6850 C   0  0  1  0  0  3  0  0  0  0  0  0
  180.7130  176.6300  137.5440 C   0  0  0  0  0  1  0  0  0  0  0  0
  182.1450  176.7220  137.2700 N   0  0  0  0  0  0  0  0  0  0  0  0
  182.3860  176.5040  135.8810 N   0  0  0  0  0  0  0  0  0  0  0  0
  183.4720  177.2530  135.5380 O   0  0  0  0  0  1  0  0  0  0  0  0
  180.4760  174.2500  135.4820 O   0  0  0  0  0  1  0  0  0  0  0  0
  182.9810  174.3690  137.0170 C   0  0  0  0  0  2  0  0  0  0  0  0
  182.9840  172.8340  136.9230 C   0  0  0  0  0  2  0  0  0  0  0  0
  181.7110  174.2990  134.8280 C   0  0  2  0  0  3  0  0  0  0  0  0
  182.1830  172.8740  134.5170 C   0  0  0  0  0  2  0  0  0  0  0  0
  183.2450  172.3450  135.4950 C   0  0  2  0  0  3  0  0  0  0  0  0
  182.7450  175.0810  135.6690 C   0  0  1  0  0  3  0  0  0  0  0  0
  183.3360  170.8510  135.4140 C   0  0  0  0  0  0  0  0  0  0  0  0
  184.3980  170.2560  135.8550 N   0  0  0  0  0  1  0  0  0  0  0  0
  182.3690  170.1020  134.6760 N   0  0  0  0  0  2  0  0  0  0  0  0
  1 10  1  6  0  0  0
  1  8  1  0  0  0  0
  2  6  1  0  0  0  0
  2 13  1  1  0  0  0
  3  8  1  0  0  0  0
  4 17  1  6  0  0  0
  4  6  1  0  0  0  0
  4 15  1  0  0  0  0
  5 14  1  0  0  0  0
  6 14  1  6  0  0  0
  7 11  1  6  0  0  0
  7  3  1  0  0  0  0
  7  2  1  0  0  0  0
  9  2  1  0  0  0  0
 12  9  1  0  0  0  0
 12  4  1  0  0  0  0
 15 29  1  1  0  0  0
 15 19  1  0  0  0  0
 16  5  1  0  0  0  0
 16  1  1  0  0  0  0
 16 24  1  1  0  0  0
 17 15  1  0  0  0  0
 18 22  1  0  0  0  0
 19 20  1  0  0  0  0
 20 22  2  0  0  0  0
 21 18  2  0  0  0  0
 23 19  2  0  0  0  0
 23 21  1  0  0  0  0
 24 25  1  0  0  0  0
 25 26  1  0  0  0  0
 26 28  1  0  0  0  0
 28 27  1  0  0  0  0
 29 30  1  0  0  0  0
 32 30  1  0  0  0  0
 32 31  1  1  0  0  0
 34 32  1  0  0  0  0
 34 33  2  0  0  0  0
 35 34  1  1  0  0  0
 37 36  2  0  0  0  0
 38 39  1  0  0  0  0
 38 41  1  0  0  0  0
 39 40  1  0  0  0  0
 40 37  1  0  0  0  0
 41 35  1  6  0  0  0
 41 36  1  0  0  0  0
 43 42  1  0  0  0  0
 43 35  1  0  0  0  0
 44 43  1  0  0  0  0
 45 44  1  0  0  0  0
 48 47  1  0  0  0  0
 49 46  1  1  0  0  0
 49 52  1  0  0  0  0
 50 49  1  0  0  0  0
 50 51  1  0  0  0  0
 51 53  1  1  0  0  0
 51 48  1  0  0  0  0
 52 44  1  1  0  0  0
 52 47  1  0  0  0  0
 53 54  1  0  0  0  0
 55 53  2  0  0  0  0
M  END
>  <MODEL>
7

>  <REMARK>
 VINA RESULT:      -5.4      3.086      6.474
  Name = 
  15 active torsions:
  status: ('A' for Active; 'I' for Inactive)
    1  A    between atoms: N_3  and  C_25
    2  A    between atoms: N_3  and  C_38
    3  A    between atoms: C_10  and  C_48
    4  A    between atoms: C_19  and  C_37
    5  A    between atoms: C_19  and  C_45
    6  A    between atoms: C_26  and  C_45
    7  A    between atoms: C_27  and  C_51
    8  A    between atoms: C_29  and  C_38
    9  A    between atoms: C_29  and  C_53
   10  A    between atoms: N_33  and  N_49
   11  A    between atoms: N_33  and  C_52
   12  A    between atoms: C_35  and  O_40
   13  A    between atoms: C_35  and  C_51
   14  A    between atoms: C_37  and  O_40
   15  A    between atoms: C_45  and  N_49
                            x       y       z     vdW  Elec       q    Type
                         _______ _______ _______ _____ _____    ______ ____

>  <TORSDO>
F 15

$$$$
=
 OpenBabel10272401313D

 55 60  0  0  1  0  0  0  0  0999 V2000
  190.4660  176.6780  146.5060 C   0  0  1  0  0  3  0  0  0  0  0  0
  190.2320  176.1190  142.5910 C   0  0  2  0  0  0  0  0  0  0  0  0
  191.6930  175.8330  144.7440 C   0  0  0  0  0  2  0  0  0  0  0  0
  189.0690  178.0000  141.7520 C   0  0  1  0  0  0  0  0  0  0  0  0
  189.9500  178.3320  144.6990 O   0  0  0  0  0  0  0  0  0  0  0  0
  189.0200  176.9960  142.8870 C   0  0  2  0  0  3  0  0  0  0  0  0
  191.5210  176.5010  143.3750 C   0  0  1  0  0  3  0  0  0  0  0  0
  190.4840  175.7290  145.4570 O   0  0  0  0  0  0  0  0  0  0  0  0
  190.4320  176.3720  141.0920 C   0  0  0  0  0  2  0  0  0  0  0  0
  191.6280  176.5530  147.4870 C   0  0  0  0  0  1  0  0  0  0  0  0
  192.6730  176.2530  142.6230 O   0  0  0  0  0  1  0  0  0  0  0  0
  189.9980  177.6710  140.7570 O   0  0  0  0  0  0  0  0  0  0  0  0
  189.9120  174.7720  142.7800 O   0  0  0  0  0  1  0  0  0  0  0  0
  188.8360  177.5710  144.3010 C   0  0  0  0  0  2  0  0  0  0  0  0
  187.8260  178.7640  141.3130 C   0  0  2  0  0  0  0  0  0  0  0  0
  190.1700  178.1380  146.0810 C   0  0  1  0  0  3  0  0  0  0  0  0
  188.9640  179.4920  142.0310 C   0  0  0  0  0  2  0  0  0  0  0  0
  184.2190  178.0390  143.5570 C   0  0  0  0  0  3  0  0  0  0  0  0
  186.5690  178.5340  142.1080 C   0  0  0  0  0  0  0  0  0  0  0  0
  185.3510  178.3500  141.4400 C   0  0  0  0  0  3  0  0  0  0  0  0
  185.4290  178.2230  144.2290 C   0  0  0  0  0  3  0  0  0  0  0  0
  184.1780  178.1050  142.1640 C   0  0  0  0  0  3  0  0  0  0  0  0
  186.6000  178.4730  143.5080 C   0  0  0  0  0  3  0  0  0  0  0  0
  189.0700  178.7810  146.9290 C   0  0  0  0  0  2  0  0  0  0  0  0
  188.9560  178.1180  148.2910 C   0  0  0  0  0  2  0  0  0  0  0  0
  187.5570  177.9210  148.6370 N   0  0  0  0  0  2  0  0  0  0  0  0
  185.9180  179.2670  147.4720 C   0  0  0  0  0  1  0  0  0  0  0  0
  186.7990  178.0380  147.4060 C   0  0  0  0  0  2  0  0  0  0  0  0
  187.7160  179.0350  139.8180 C   0  0  0  0  0  2  0  0  0  0  0  0
  187.5220  177.8420  139.1120 O   0  0  0  0  0  0  0  0  0  0  0  0
  188.8860  179.2380  137.9120 O   0  0  0  0  0  1  0  0  0  0  0  0
  188.1990  178.0220  137.9010 C   0  0  2  0  0  3  0  0  0  0  0  0
  186.9460  179.0500  136.1890 O   0  0  0  0  0  0  0  0  0  0  0  0
  187.2280  178.0080  136.7640 C   0  0  0  0  0  0  0  0  0  0  0  0
  186.6530  176.6830  136.3020 C   0  0  2  0  0  3  0  0  0  0  0  0
  184.7550  177.3080  137.8430 C   0  0  0  0  0  3  0  0  0  0  0  0
  183.5870  177.9600  137.9330 C   0  0  0  0  0  3  0  0  0  0  0  0
  184.2960  176.8400  135.3980 C   0  0  0  0  0  2  0  0  0  0  0  0
  182.8250  176.8920  135.7930 C   0  0  0  0  0  2  0  0  0  0  0  0
  182.6190  178.0380  136.7810 C   0  0  0  0  0  2  0  0  0  0  0  0
  185.1610  176.5080  136.6210 C   0  0  1  0  0  3  0  0  0  0  0  0
  186.4890  174.4450  136.9730 C   0  0  0  0  0  1  0  0  0  0  0  0
  187.4590  175.5000  136.6870 N   0  0  0  0  0  0  0  0  0  0  0  0
  188.3290  175.0840  135.6360 N   0  0  0  0  0  0  0  0  0  0  0  0
  187.9590  175.7640  134.5140 O   0  0  0  0  0  1  0  0  0  0  0  0
  190.8220  173.6960  134.7720 O   0  0  0  0  0  1  0  0  0  0  0  0
  190.1370  174.9450  137.3450 C   0  0  0  0  0  2  0  0  0  0  0  0
  191.6520  174.9910  137.6010 C   0  0  0  0  0  2  0  0  0  0  0  0
  190.7530  175.0870  134.8930 C   0  0  2  0  0  3  0  0  0  0  0  0
  192.1460  175.6460  135.2020 C   0  0  0  0  0  2  0  0  0  0  0  0
  192.3620  175.9920  136.6840 C   0  0  2  0  0  3  0  0  0  0  0  0
  189.7160  175.4930  135.9650 C   0  0  1  0  0  3  0  0  0  0  0  0
  193.8250  176.1060  136.9900 C   0  0  0  0  0  0  0  0  0  0  0  0
  194.6080  176.6790  136.1340 N   0  0  0  0  0  2  0  0  0  0  0  0
  194.3900  175.4140  138.1040 N   0  0  0  0  0  1  0  0  0  0  0  0
  1 10  1  6  0  0  0
  2 13  1  1  0  0  0
  2  6  1  0  0  0  0
  2  7  1  0  0  0  0
  3  8  1  0  0  0  0
  4 17  1  1  0  0  0
  4  6  1  0  0  0  0
  5 16  1  0  0  0  0
  6 14  1  1  0  0  0
  7 11  1  6  0  0  0
  7  3  1  0  0  0  0
  8  1  1  0  0  0  0
  9  2  1  0  0  0  0
 12  9  1  0  0  0  0
 12  4  1  0  0  0  0
 14  5  1  0  0  0  0
 15 29  1  6  0  0  0
 15  4  1  0  0  0  0
 15 17  1  0  0  0  0
 15 19  1  0  0  0  0
 16  1  1  0  0  0  0
 16 24  1  1  0  0  0
 18 21  1  0  0  0  0
 19 23  1  0  0  0  0
 20 19  2  0  0  0  0
 20 22  1  0  0  0  0
 22 18  2  0  0  0  0
 23 21  2  0  0  0  0
 24 25  1  0  0  0  0
 25 26  1  0  0  0  0
 28 27  1  0  0  0  0
 28 26  1  0  0  0  0
 30 29  1  0  0  0  0
 32 31  1  1  0  0  0
 32 30  1  0  0  0  0
 33 34  2  0  0  0  0
 34 32  1  0  0  0  0
 35 43  1  0  0  0  0
 35 34  1  1  0  0  0
 36 37  2  0  0  0  0
 38 39  1  0  0  0  0
 38 41  1  0  0  0  0
 39 40  1  0  0  0  0
 40 37  1  0  0  0  0
 41 35  1  6  0  0  0
 41 36  1  0  0  0  0
 43 42  1  0  0  0  0
 44 43  1  0  0  0  0
 45 44  1  0  0  0  0
 47 48  1  0  0  0  0
 49 46  1  1  0  0  0
 49 50  1  0  0  0  0
 49 52  1  0  0  0  0
 50 51  1  0  0  0  0
 51 53  1  1  0  0  0
 51 48  1  0  0  0  0
 52 44  1  6  0  0  0
 52 47  1  0  0  0  0
 53 55  1  0  0  0  0
 54 53  2  0  0  0  0
M  END
>  <MODEL>
8

>  <REMARK>
 VINA RESULT:      -5.2      2.800      8.760
  Name = 
  15 active torsions:
  status: ('A' for Active; 'I' for Inactive)
    1  A    between atoms: N_3  and  C_25
    2  A    between atoms: N_3  and  C_38
    3  A    between atoms: C_10  and  C_48
    4  A    between atoms: C_19  and  C_37
    5  A    between atoms: C_19  and  C_45
    6  A    between atoms: C_26  and  C_45
    7  A    between atoms: C_27  and  C_51
    8  A    between atoms: C_29  and  C_38
    9  A    between atoms: C_29  and  C_53
   10  A    between atoms: N_33  and  N_49
   11  A    between atoms: N_33  and  C_52
   12  A    between atoms: C_35  and  O_40
   13  A    between atoms: C_35  and  C_51
   14  A    between atoms: C_37  and  O_40
   15  A    between atoms: C_45  and  N_49
                            x       y       z     vdW  Elec       q    Type
                         _______ _______ _______ _____ _____    ______ ____

>  <TORSDO>
F 15

$$$$
=
 OpenBabel10272401313D

 55 60  0  0  1  0  0  0  0  0999 V2000
  188.5760  172.5300  134.8030 C   0  0  1  0  0  3  0  0  0  0  0  0
  191.6250  174.7310  136.0490 C   0  0  2  0  0  0  0  0  0  0  0  0
  190.8780  172.4770  134.9460 C   0  0  0  0  0  2  0  0  0  0  0  0
  190.8590  175.8240  138.0020 C   0  0  1  0  0  0  0  0  0  0  0  0
  188.9610  173.5770  137.0440 O   0  0  0  0  0  0  0  0  0  0  0  0
  190.4140  175.4800  136.5940 C   0  0  2  0  0  3  0  0  0  0  0  0
  191.5300  173.1800  136.1430 C   0  0  1  0  0  3  0  0  0  0  0  0
  189.7750  173.1830  134.4320 O   0  0  0  0  0  0  0  0  0  0  0  0
  192.7400  175.2480  136.9650 C   0  0  0  0  0  2  0  0  0  0  0  0
  188.4860  171.0760  134.3470 C   0  0  0  0  0  1  0  0  0  0  0  0
  192.7850  172.6010  136.3560 O   0  0  0  0  0  1  0  0  0  0  0  0
  192.2160  175.5670  138.2350 O   0  0  0  0  0  0  0  0  0  0  0  0
  191.8940  175.1380  134.7400 O   0  0  0  0  0  1  0  0  0  0  0  0
  189.0170  174.8520  136.4540 C   0  0  0  0  0  2  0  0  0  0  0  0
  190.2300  176.9760  138.7760 C   0  0  2  0  0  0  0  0  0  0  0  0
  188.1210  172.7470  136.2680 C   0  0  1  0  0  3  0  0  0  0  0  0
  189.9610  175.5280  139.1940 C   0  0  0  0  0  2  0  0  0  0  0  0
  186.9980  179.0310  136.8000 C   0  0  0  0  0  3  0  0  0  0  0  0
  189.0950  177.7040  138.1090 C   0  0  0  0  0  0  0  0  0  0  0  0
  189.3670  178.6210  137.0840 C   0  0  0  0  0  3  0  0  0  0  0  0
  186.7200  178.1210  137.8220 C   0  0  0  0  0  3  0  0  0  0  0  0
  188.3200  179.2840  136.4340 C   0  0  0  0  0  3  0  0  0  0  0  0
  187.7640  177.4610  138.4770 C   0  0  0  0  0  3  0  0  0  0  0  0
  186.6540  173.1690  136.3660 C   0  0  0  0  0  2  0  0  0  0  0  0
  185.7380  171.9690  136.5400 C   0  0  0  0  0  2  0  0  0  0  0  0
  184.3520  172.3640  136.3390 N   0  0  0  0  0  2  0  0  0  0  0  0
  183.5400  174.2810  135.1060 C   0  0  0  0  0  1  0  0  0  0  0  0
  184.2700  172.9580  135.0190 C   0  0  0  0  0  2  0  0  0  0  0  0
  191.1780  177.7530  139.6810 C   0  0  0  0  0  2  0  0  0  0  0  0
  190.5330  178.1310  140.8630 O   0  0  0  0  0  0  0  0  0  0  0  0
  192.4330  176.9480  141.3560 O   0  0  0  0  0  1  0  0  0  0  0  0
  191.3170  177.5970  141.8910 C   0  0  2  0  0  3  0  0  0  0  0  0
  190.7720  175.4310  142.6470 O   0  0  0  0  0  0  0  0  0  0  0  0
  190.5130  176.6250  142.6960 C   0  0  0  0  0  0  0  0  0  0  0  0
  189.4250  177.1490  143.6110 C   0  0  2  0  0  3  0  0  0  0  0  0
  190.9490  176.1880  145.3770 C   0  0  0  0  0  3  0  0  0  0  0  0
  191.5520  176.4270  146.5510 C   0  0  0  0  0  3  0  0  0  0  0  0
  189.0590  177.7330  146.0440 C   0  0  0  0  0  2  0  0  0  0  0  0
  189.4010  177.3310  147.4740 C   0  0  0  0  0  2  0  0  0  0  0  0
  190.9190  177.2770  147.6220 C   0  0  0  0  0  2  0  0  0  0  0  0
  189.5430  176.6590  145.0620 C   0  0  1  0  0  3  0  0  0  0  0  0
  187.4480  175.9110  143.8330 C   0  0  0  0  0  1  0  0  0  0  0  0
  188.0510  177.0030  143.0730 N   0  0  0  0  0  0  0  0  0  0  0  0
  187.2820  178.1930  143.2450 N   0  0  0  0  0  0  0  0  0  0  0  0
  187.9440  179.1960  142.6020 O   0  0  0  0  0  1  0  0  0  0  0  0
  186.0330  180.1040  141.3280 O   0  0  0  0  0  1  0  0  0  0  0  0
  184.8230  178.5080  143.4820 C   0  0  0  0  0  2  0  0  0  0  0  0
  183.4900  178.7250  142.7460 C   0  0  0  0  0  2  0  0  0  0  0  0
  185.8880  178.7200  141.1940 C   0  0  2  0  0  3  0  0  0  0  0  0
  184.5710  178.4090  140.4740 C   0  0  0  0  0  2  0  0  0  0  0  0
  183.4370  177.9700  141.4150 C   0  0  2  0  0  3  0  0  0  0  0  0
  185.9720  178.0250  142.5730 C   0  0  1  0  0  3  0  0  0  0  0  0
  182.1080  178.1070  140.7360 C   0  0  0  0  0  0  0  0  0  0  0  0
  181.0880  177.4630  141.2050 N   0  0  0  0  0  1  0  0  0  0  0  0
  182.0010  178.7650  139.4730 N   0  0  0  0  0  2  0  0  0  0  0  0
  1 10  1  1  0  0  0
  1 16  1  0  0  0  0
  2 13  1  6  0  0  0
  2  7  1  0  0  0  0
  2  6  1  0  0  0  0
  2  9  1  0  0  0  0
  3  7  1  0  0  0  0
  4 12  1  0  0  0  0
  4 15  1  0  0  0  0
  4 17  1  1  0  0  0
  6 14  1  1  0  0  0
  6  4  1  0  0  0  0
  7 11  1  6  0  0  0
  8  1  1  0  0  0  0
  8  3  1  0  0  0  0
  9 12  1  0  0  0  0
 14  5  1  0  0  0  0
 15 17  1  0  0  0  0
 15 29  1  1  0  0  0
 16 24  1  6  0  0  0
 16  5  1  0  0  0  0
 18 21  1  0  0  0  0
 19 23  1  0  0  0  0
 19 15  1  0  0  0  0
 20 19  2  0  0  0  0
 21 23  2  0  0  0  0
 22 18  2  0  0  0  0
 22 20  1  0  0  0  0
 24 25  1  0  0  0  0
 26 25  1  0  0  0  0
 28 27  1  0  0  0  0
 28 26  1  0  0  0  0
 29 30  1  0  0  0  0
 30 32  1  0  0  0  0
 32 31  1  6  0  0  0
 32 34  1  0  0  0  0
 33 34  2  0  0  0  0
 35 34  1  6  0  0  0
 36 37  2  0  0  0  0
 37 40  1  0  0  0  0
 38 39  1  0  0  0  0
 39 40  1  0  0  0  0
 41 35  1  6  0  0  0
 41 36  1  0  0  0  0
 41 38  1  0  0  0  0
 43 44  1  0  0  0  0
 43 35  1  0  0  0  0
 43 42  1  0  0  0  0
 45 44  1  0  0  0  0
 48 47  1  0  0  0  0
 49 46  1  1  0  0  0
 49 52  1  0  0  0  0
 50 49  1  0  0  0  0
 50 51  1  0  0  0  0
 51 53  1  6  0  0  0
 51 48  1  0  0  0  0
 52 44  1  1  0  0  0
 52 47  1  0  0  0  0
 53 54  1  0  0  0  0
 55 53  2  0  0  0  0
M  END
>  <MODEL>
9

>  <REMARK>
 VINA RESULT:      -5.1      1.993      3.126
  Name = 
  15 active torsions:
  status: ('A' for Active; 'I' for Inactive)
    1  A    between atoms: N_3  and  C_25
    2  A    between atoms: N_3  and  C_38
    3  A    between atoms: C_10  and  C_48
    4  A    between atoms: C_19  and  C_37
    5  A    between atoms: C_19  and  C_45
    6  A    between atoms: C_26  and  C_45
    7  A    between atoms: C_27  and  C_51
    8  A    between atoms: C_29  and  C_38
    9  A    between atoms: C_29  and  C_53
   10  A    between atoms: N_33  and  N_49
   11  A    between atoms: N_33  and  C_52
   12  A    between atoms: C_35  and  O_40
   13  A    between atoms: C_35  and  C_51
   14  A    between atoms: C_37  and  O_40
   15  A    between atoms: C_45  and  N_49
                            x       y       z     vdW  Elec       q    Type
                         _______ _______ _______ _____ _____    ______ ____

>  <TORSDO>
F 15

$$$$
