=
 OpenBabel10272414163D

 43 49  0  0  1  0  0  0  0  0999 V2000
  191.6560  176.1630  147.0710 C   0  0  0  0  0  0  0  0  0  0  0  0
  187.3830  177.8280  144.7050 C   0  0  0  0  0  0  0  0  0  0  0  0
  188.0940  177.8830  141.9070 C   0  0  0  0  0  0  0  0  0  0  0  0
  189.3760  176.9140  146.5850 C   0  0  0  0  0  0  0  0  0  0  0  0
  191.9810  176.3470  145.7340 C   0  0  0  0  0  3  0  0  0  0  0  0
  192.6950  175.8540  148.0740 C   0  0  0  0  0  1  0  0  0  0  0  0
  189.6810  177.0470  145.1870 C   0  0  0  0  0  0  0  0  0  0  0  0
  190.3280  176.4630  147.4710 C   0  0  0  0  0  3  0  0  0  0  0  0
  191.0270  176.7620  144.8260 C   0  0  0  0  0  3  0  0  0  0  0  0
  188.9930  177.4020  142.8640 C   0  0  0  0  0  3  0  0  0  0  0  0
  188.7070  177.4100  144.2540 C   0  0  0  0  0  0  0  0  0  0  0  0
  187.1400  177.8350  146.0910 C   0  0  0  0  0  3  0  0  0  0  0  0
  186.4250  178.1780  143.6960 C   0  0  0  0  0  0  0  0  0  0  0  0
  186.7720  178.3120  142.3440 C   0  0  0  0  0  3  0  0  0  0  0  0
  188.1000  177.3850  147.0210 C   0  0  0  0  0  3  0  0  0  0  0  0
  188.5770  177.6130  140.4310 C   0  0  2  0  0  3  0  0  0  0  0  0
  189.7060  176.7610  140.3330 O   0  0  0  0  0  0  0  0  0  0  0  0
  188.7770  178.7880  139.4860 C   0  0  0  0  0  2  0  0  0  0  0  0
  190.5460  177.2440  139.2920 C   0  0  2  0  0  3  0  0  0  0  0  0
  189.7190  178.1880  138.4270 C   0  0  0  0  0  2  0  0  0  0  0  0
  191.5560  176.1650  138.7840 C   0  0  0  0  0  2  0  0  0  0  0  0
  191.2890  175.7700  137.4100 N   0  0  0  0  0  0  0  0  0  0  0  0
  192.0650  173.6460  136.7530 C   0  0  0  0  0  2  0  0  0  0  0  0
  190.1180  174.8810  137.2960 C   0  0  0  0  0  2  0  0  0  0  0  0
  192.3800  175.0950  136.6820 C   0  0  1  0  0  0  0  0  0  0  0  0
  192.2980  175.4890  135.3570 O   0  0  0  0  0  1  0  0  0  0  0  0
  190.5550  173.5540  136.7120 C   0  0  0  0  0  2  0  0  0  0  0  0
  193.7980  175.4310  137.1880 C   0  0  0  0  0  2  0  0  0  0  0  0
  194.7550  174.3160  137.0610 N   0  0  0  0  0  0  0  0  0  0  0  0
  197.0180  175.0450  136.3750 C   0  0  0  0  0  2  0  0  0  0  0  0
  196.8540  173.4540  138.0950 C   0  0  0  0  0  2  0  0  0  0  0  0
  197.6410  173.9370  136.9950 O   0  0  0  0  0  0  0  0  0  0  0  0
  195.5650  174.2910  138.2950 C   0  0  0  0  0  2  0  0  0  0  0  0
  195.6420  174.5600  135.8910 C   0  0  0  0  0  2  0  0  0  0  0  0
  185.1340  178.6660  144.2150 O   0  0  0  0  0  0  0  0  0  0  0  0
  182.4740  178.4260  141.4010 C   0  0  0  0  0  2  0  0  0  0  0  0
  181.3700  178.9240  142.2970 C   0  0  2  0  0  3  0  0  0  0  0  0
  182.7810  179.1630  144.3130 C   0  0  0  0  0  2  0  0  0  0  0  0
  183.8160  178.6700  142.0750 C   0  0  0  0  0  2  0  0  0  0  0  0
  183.8930  178.4440  143.5810 C   0  0  1  0  0  3  0  0  0  0  0  0
  181.4210  178.7110  143.8030 C   0  0  0  0  0  2  0  0  0  0  0  0
  179.9830  177.8220  140.8120 O   0  0  0  0  0  1  0  0  0  0  0  0
  180.0180  178.8720  141.7230 C   0  0  0  0  0  2  0  0  0  0  0  0
  1  8  1  0  0  0  0
  1  6  1  0  0  0  0
  2 12  1  0  0  0  0
  3 14  2  0  0  0  0
  3 10  1  0  0  0  0
  4 15  1  0  0  0  0
  4  8  2  0  0  0  0
  5  1  2  0  0  0  0
  7  4  1  0  0  0  0
  9  7  2  0  0  0  0
  9  5  1  0  0  0  0
 10 11  2  0  0  0  0
 11  2  1  0  0  0  0
 11  7  1  0  0  0  0
 12 15  2  0  0  0  0
 13 35  1  0  0  0  0
 13  2  2  0  0  0  0
 14 13  1  0  0  0  0
 16  3  1  1  0  0  0
 17 16  1  0  0  0  0
 18 16  1  0  0  0  0
 19 21  1  6  0  0  0
 19 17  1  0  0  0  0
 20 19  1  0  0  0  0
 20 18  1  0  0  0  0
 22 21  1  0  0  0  0
 24 22  1  0  0  0  0
 25 26  1  6  0  0  0
 25 23  1  0  0  0  0
 25 28  1  0  0  0  0
 25 22  1  0  0  0  0
 27 23  1  0  0  0  0
 27 24  1  0  0  0  0
 29 28  1  0  0  0  0
 29 33  1  0  0  0  0
 30 32  1  0  0  0  0
 31 33  1  0  0  0  0
 32 31  1  0  0  0  0
 34 30  1  0  0  0  0
 34 29  1  0  0  0  0
 36 39  1  0  0  0  0
 36 37  1  0  0  0  0
 37 43  1  6  0  0  0
 37 41  1  0  0  0  0
 39 40  1  0  0  0  0
 40 35  1  1  0  0  0
 40 38  1  0  0  0  0
 41 38  1  0  0  0  0
 42 43  1  0  0  0  0
M  END
>  <MODEL>
1

>  <REMARK>
 VINA RESULT:     -10.7      0.000      0.000
  Name = 
  8 active torsions:
  status: ('A' for Active; 'I' for Inactive)
    1  A    between atoms: O_1  and  C_34
    2  A    between atoms: O_1  and  C_35
    3  A    between atoms: C_2  and  C_13
    4  A    between atoms: C_3  and  N_4
    5  A    between atoms: C_3  and  C_12
    6  A    between atoms: N_11  and  C_14
    7  A    between atoms: C_14  and  C_22
    8  A    between atoms: C_19  and  C_37
                            x       y       z     vdW  Elec       q    Type
                         _______ _______ _______ _____ _____    ______ ____

>  <TORSDO>
F 8

$$$$
=
 OpenBabel10272414163D

 43 49  0  0  1  0  0  0  0  0999 V2000
  191.2760  176.3850  146.8270 C   0  0  0  0  0  0  0  0  0  0  0  0
  186.9310  177.9560  144.5290 C   0  0  0  0  0  0  0  0  0  0  0  0
  187.7060  178.4240  141.7870 C   0  0  0  0  0  0  0  0  0  0  0  0
  188.9500  176.9890  146.3530 C   0  0  0  0  0  0  0  0  0  0  0  0
  191.6170  176.7620  145.5360 C   0  0  0  0  0  3  0  0  0  0  0  0
  192.3120  176.0430  147.8220 C   0  0  0  0  0  1  0  0  0  0  0  0
  189.2780  177.3240  144.9950 C   0  0  0  0  0  0  0  0  0  0  0  0
  189.9170  176.5150  147.2120 C   0  0  0  0  0  3  0  0  0  0  0  0
  190.6520  177.2040  144.6510 C   0  0  0  0  0  3  0  0  0  0  0  0
  188.6200  177.9060  142.7100 C   0  0  0  0  0  3  0  0  0  0  0  0
  188.2990  177.7140  144.0790 C   0  0  0  0  0  0  0  0  0  0  0  0
  186.6530  177.7670  145.8950 C   0  0  0  0  0  3  0  0  0  0  0  0
  185.9720  178.3460  143.5350 C   0  0  0  0  0  0  0  0  0  0  0  0
  186.3400  178.6780  142.2240 C   0  0  0  0  0  3  0  0  0  0  0  0
  187.6260  177.2890  146.7980 C   0  0  0  0  0  3  0  0  0  0  0  0
  188.2490  178.3850  140.3070 C   0  0  2  0  0  3  0  0  0  0  0  0
  187.4110  177.6920  139.3960 O   0  0  0  0  0  0  0  0  0  0  0  0
  189.6880  177.9660  140.0520 C   0  0  0  0  0  2  0  0  0  0  0  0
  188.2330  176.9640  138.4920 C   0  0  2  0  0  3  0  0  0  0  0  0
  189.6400  177.5450  138.5720 C   0  0  0  0  0  2  0  0  0  0  0  0
  187.4740  176.5460  137.1920 C   0  0  0  0  0  2  0  0  0  0  0  0
  187.3210  175.1030  137.0880 N   0  0  0  0  0  0  0  0  0  0  0  0
  186.1020  174.3030  135.2390 C   0  0  0  0  0  2  0  0  0  0  0  0
  188.2810  174.5000  136.1450 C   0  0  0  0  0  2  0  0  0  0  0  0
  185.9930  174.5970  136.6910 C   0  0  1  0  0  0  0  0  0  0  0  0
  185.7910  173.4010  137.3580 O   0  0  0  0  0  1  0  0  0  0  0  0
  187.5200  173.8230  135.0240 C   0  0  0  0  0  2  0  0  0  0  0  0
  184.8160  175.5340  137.0310 C   0  0  0  0  0  2  0  0  0  0  0  0
  183.6980  174.8590  137.7180 N   0  0  0  0  0  0  0  0  0  0  0  0
  181.8080  176.3730  138.2240 C   0  0  0  0  0  2  0  0  0  0  0  0
  181.3070  174.2480  137.3580 C   0  0  0  0  0  2  0  0  0  0  0  0
  180.8650  175.3190  138.2070 O   0  0  0  0  0  0  0  0  0  0  0  0
  182.6740  174.5610  136.6970 C   0  0  0  0  0  2  0  0  0  0  0  0
  183.1260  175.7750  138.7410 C   0  0  0  0  0  2  0  0  0  0  0  0
  184.6290  178.6510  144.0630 O   0  0  0  0  0  0  0  0  0  0  0  0
  180.9220  179.0960  143.0070 C   0  0  0  0  0  2  0  0  0  0  0  0
  181.1740  178.5640  141.6200 C   0  0  2  0  0  3  0  0  0  0  0  0
  183.5960  178.1870  141.9390 C   0  0  0  0  0  2  0  0  0  0  0  0
  182.1260  178.7920  143.8870 C   0  0  0  0  0  2  0  0  0  0  0  0
  183.5070  178.9290  143.2540 C   0  0  1  0  0  3  0  0  0  0  0  0
  182.5410  178.6890  140.9650 C   0  0  0  0  0  2  0  0  0  0  0  0
  180.0770  179.9410  140.1210 O   0  0  0  0  0  1  0  0  0  0  0  0
  180.0420  178.6720  140.6880 C   0  0  0  0  0  2  0  0  0  0  0  0
  1  8  1  0  0  0  0
  1  6  1  0  0  0  0
  2 12  1  0  0  0  0
  3 14  2  0  0  0  0
  3 10  1  0  0  0  0
  4 15  1  0  0  0  0
  4  8  2  0  0  0  0
  5  1  2  0  0  0  0
  7  4  1  0  0  0  0
  9  7  2  0  0  0  0
  9  5  1  0  0  0  0
 10 11  2  0  0  0  0
 11  2  1  0  0  0  0
 11  7  1  0  0  0  0
 12 15  2  0  0  0  0
 13 35  1  0  0  0  0
 13  2  2  0  0  0  0
 14 13  1  0  0  0  0
 16  3  1  1  0  0  0
 17 16  1  0  0  0  0
 18 16  1  0  0  0  0
 19 21  1  6  0  0  0
 19 20  1  0  0  0  0
 19 17  1  0  0  0  0
 20 18  1  0  0  0  0
 22 21  1  0  0  0  0
 23 25  1  0  0  0  0
 24 22  1  0  0  0  0
 25 28  1  0  0  0  0
 25 22  1  0  0  0  0
 25 26  1  1  0  0  0
 27 23  1  0  0  0  0
 27 24  1  0  0  0  0
 28 29  1  0  0  0  0
 29 34  1  0  0  0  0
 30 34  1  0  0  0  0
 31 32  1  0  0  0  0
 32 30  1  0  0  0  0
 33 31  1  0  0  0  0
 33 29  1  0  0  0  0
 36 39  1  0  0  0  0
 37 43  1  6  0  0  0
 37 36  1  0  0  0  0
 38 40  1  0  0  0  0
 40 39  1  0  0  0  0
 40 35  1  1  0  0  0
 41 37  1  0  0  0  0
 41 38  1  0  0  0  0
 42 43  1  0  0  0  0
M  END
>  <MODEL>
2

>  <REMARK>
 VINA RESULT:     -10.5      3.647      5.988
  Name = 
  8 active torsions:
  status: ('A' for Active; 'I' for Inactive)
    1  A    between atoms: O_1  and  C_34
    2  A    between atoms: O_1  and  C_35
    3  A    between atoms: C_2  and  C_13
    4  A    between atoms: C_3  and  N_4
    5  A    between atoms: C_3  and  C_12
    6  A    between atoms: N_11  and  C_14
    7  A    between atoms: C_14  and  C_22
    8  A    between atoms: C_19  and  C_37
                            x       y       z     vdW  Elec       q    Type
                         _______ _______ _______ _____ _____    ______ ____

>  <TORSDO>
F 8

$$$$
=
 OpenBabel10272414163D

 43 49  0  0  1  0  0  0  0  0999 V2000
  181.4440  178.9840  141.9840 C   0  0  0  0  0  0  0  0  0  0  0  0
  186.1080  178.2920  144.0800 C   0  0  0  0  0  0  0  0  0  0  0  0
  187.8630  177.9450  141.8130 C   0  0  0  0  0  0  0  0  0  0  0  0
  183.3110  178.7830  143.5570 C   0  0  0  0  0  0  0  0  0  0  0  0
  182.3100  178.6690  140.9450 C   0  0  0  0  0  3  0  0  0  0  0  0
  179.9870  179.0790  141.7610 C   0  0  0  0  0  1  0  0  0  0  0  0
  184.2300  178.5180  142.4840 C   0  0  0  0  0  0  0  0  0  0  0  0
  181.9820  179.0300  143.2960 C   0  0  0  0  0  3  0  0  0  0  0  0
  183.6530  178.4560  141.1860 C   0  0  0  0  0  3  0  0  0  0  0  0
  186.5070  178.2380  141.6300 C   0  0  0  0  0  3  0  0  0  0  0  0
  185.5990  178.3600  142.7140 C   0  0  0  0  0  0  0  0  0  0  0  0
  185.1760  178.4050  145.1280 C   0  0  0  0  0  3  0  0  0  0  0  0
  187.5250  178.1380  144.2460 C   0  0  0  0  0  0  0  0  0  0  0  0
  188.3830  177.8650  143.1720 C   0  0  0  0  0  3  0  0  0  0  0  0
  183.8080  178.6510  144.8890 C   0  0  0  0  0  3  0  0  0  0  0  0
  188.6880  178.0260  140.4720 C   0  0  2  0  0  3  0  0  0  0  0  0
  187.9920  177.5550  139.3300 O   0  0  0  0  0  0  0  0  0  0  0  0
  190.1040  177.4740  140.4350 C   0  0  0  0  0  2  0  0  0  0  0  0
  188.9090  176.8530  138.5010 C   0  0  2  0  0  3  0  0  0  0  0  0
  190.3180  177.2490  138.9260 C   0  0  0  0  0  2  0  0  0  0  0  0
  188.3940  176.6920  137.0350 C   0  0  0  0  0  2  0  0  0  0  0  0
  187.9250  175.3420  136.7640 N   0  0  0  0  0  0  0  0  0  0  0  0
  186.2350  175.1180  135.1400 C   0  0  0  0  0  2  0  0  0  0  0  0
  188.5390  174.7630  135.5550 C   0  0  0  0  0  2  0  0  0  0  0  0
  186.4700  175.1570  136.6060 C   0  0  1  0  0  0  0  0  0  0  0  0
  186.1530  173.9130  137.1250 O   0  0  0  0  0  1  0  0  0  0  0  0
  187.4540  174.4450  134.5480 C   0  0  0  0  0  2  0  0  0  0  0  0
  185.6020  176.2070  137.3290 C   0  0  0  0  0  2  0  0  0  0  0  0
  184.1880  176.2010  136.9100 N   0  0  0  0  0  0  0  0  0  0  0  0
  182.6240  175.6880  138.7580 C   0  0  0  0  0  2  0  0  0  0  0  0
  182.0600  177.4420  137.3020 C   0  0  0  0  0  2  0  0  0  0  0  0
  181.5620  176.3980  138.1520 O   0  0  0  0  0  0  0  0  0  0  0  0
  183.6090  177.5010  137.3060 C   0  0  0  0  0  2  0  0  0  0  0  0
  183.4710  175.1050  137.6150 C   0  0  0  0  0  2  0  0  0  0  0  0
  187.9690  177.9970  145.6450 O   0  0  0  0  0  0  0  0  0  0  0  0
  191.5200  176.4400  145.5090 C   0  0  0  0  0  2  0  0  0  0  0  0
  191.5560  176.2010  146.9960 C   0  0  2  0  0  3  0  0  0  0  0  0
  189.3250  177.1650  147.4510 C   0  0  0  0  0  2  0  0  0  0  0  0
  190.0980  176.7830  145.0900 C   0  0  0  0  0  2  0  0  0  0  0  0
  189.2880  177.6730  146.0270 C   0  0  1  0  0  3  0  0  0  0  0  0
  190.7580  177.0750  147.9530 C   0  0  0  0  0  2  0  0  0  0  0  0
  193.0410  176.3490  148.7610 O   0  0  0  0  0  1  0  0  0  0  0  0
  192.8430  175.7340  147.5300 C   0  0  0  0  0  2  0  0  0  0  0  0
  1  8  1  0  0  0  0
  2 13  1  0  0  0  0
  2 12  1  0  0  0  0
  3 14  1  0  0  0  0
  4 15  1  0  0  0  0
  5  9  1  0  0  0  0
  5  1  2  0  0  0  0
  6  1  1  0  0  0  0
  7 11  1  0  0  0  0
  7  4  1  0  0  0  0
  8  4  2  0  0  0  0
  9  7  2  0  0  0  0
 10  3  2  0  0  0  0
 10 11  1  0  0  0  0
 11  2  2  0  0  0  0
 13 35  1  0  0  0  0
 14 13  2  0  0  0  0
 15 12  2  0  0  0  0
 16  3  1  1  0  0  0
 17 16  1  0  0  0  0
 18 16  1  0  0  0  0
 19 21  1  6  0  0  0
 19 20  1  0  0  0  0
 19 17  1  0  0  0  0
 20 18  1  0  0  0  0
 22 21  1  0  0  0  0
 23 25  1  0  0  0  0
 24 22  1  0  0  0  0
 25 22  1  0  0  0  0
 25 26  1  1  0  0  0
 25 28  1  0  0  0  0
 27 23  1  0  0  0  0
 27 24  1  0  0  0  0
 29 33  1  0  0  0  0
 29 28  1  0  0  0  0
 29 34  1  0  0  0  0
 31 33  1  0  0  0  0
 31 32  1  0  0  0  0
 32 30  1  0  0  0  0
 34 30  1  0  0  0  0
 36 37  1  0  0  0  0
 37 43  1  1  0  0  0
 37 41  1  0  0  0  0
 38 41  1  0  0  0  0
 39 36  1  0  0  0  0
 39 40  1  0  0  0  0
 40 35  1  6  0  0  0
 40 38  1  0  0  0  0
 43 42  1  0  0  0  0
M  END
>  <MODEL>
3

>  <REMARK>
 VINA RESULT:     -10.0      3.455      8.498
  Name = 
  8 active torsions:
  status: ('A' for Active; 'I' for Inactive)
    1  A    between atoms: O_1  and  C_34
    2  A    between atoms: O_1  and  C_35
    3  A    between atoms: C_2  and  C_13
    4  A    between atoms: C_3  and  N_4
    5  A    between atoms: C_3  and  C_12
    6  A    between atoms: N_11  and  C_14
    7  A    between atoms: C_14  and  C_22
    8  A    between atoms: C_19  and  C_37
                            x       y       z     vdW  Elec       q    Type
                         _______ _______ _______ _____ _____    ______ ____

>  <TORSDO>
F 8

$$$$
=
 OpenBabel10272414163D

 43 49  0  0  1  0  0  0  0  0999 V2000
  187.9470  177.5840  147.2050 C   0  0  0  0  0  0  0  0  0  0  0  0
  185.9210  178.4340  142.5360 C   0  0  0  0  0  0  0  0  0  0  0  0
  188.1750  178.2530  140.7390 C   0  0  0  0  0  0  0  0  0  0  0  0
  186.4020  177.9900  145.3490 C   0  0  0  0  0  0  0  0  0  0  0  0
  189.0080  177.6510  146.3120 C   0  0  0  0  0  3  0  0  0  0  0  0
  188.1790  177.5200  148.6630 C   0  0  0  0  0  1  0  0  0  0  0  0
  187.4850  177.9990  144.4050 C   0  0  0  0  0  0  0  0  0  0  0  0
  186.6390  177.7640  146.6860 C   0  0  0  0  0  3  0  0  0  0  0  0
  188.7830  177.8400  144.9620 C   0  0  0  0  0  3  0  0  0  0  0  0
  188.3280  177.9980  142.1060 C   0  0  0  0  0  3  0  0  0  0  0  0
  187.2610  178.1310  143.0320 C   0  0  0  0  0  0  0  0  0  0  0  0
  184.8920  178.5700  143.4850 C   0  0  0  0  0  3  0  0  0  0  0  0
  185.7570  178.5460  141.1150 C   0  0  0  0  0  0  0  0  0  0  0  0
  186.8450  178.5650  140.2310 C   0  0  0  0  0  3  0  0  0  0  0  0
  185.1090  178.3500  144.8620 C   0  0  0  0  0  3  0  0  0  0  0  0
  189.4580  177.8770  139.9040 C   0  0  2  0  0  3  0  0  0  0  0  0
  189.2420  177.8040  138.5040 O   0  0  0  0  0  0  0  0  0  0  0  0
  190.2960  176.6800  140.3250 C   0  0  0  0  0  2  0  0  0  0  0  0
  189.9980  176.7160  137.9870 C   0  0  2  0  0  3  0  0  0  0  0  0
  191.0530  176.3490  139.0260 C   0  0  0  0  0  2  0  0  0  0  0  0
  190.2120  176.8110  136.4430 C   0  0  0  0  0  2  0  0  0  0  0  0
  189.9080  175.5580  135.7700 N   0  0  0  0  0  0  0  0  0  0  0  0
  190.8710  173.6120  136.6830 C   0  0  0  0  0  2  0  0  0  0  0  0
  188.8370  174.8020  136.4440 C   0  0  0  0  0  2  0  0  0  0  0  0
  191.0220  174.6070  135.5910 C   0  0  1  0  0  0  0  0  0  0  0  0
  190.8180  173.9560  134.3850 O   0  0  0  0  0  1  0  0  0  0  0  0
  189.3800  173.4620  136.8960 C   0  0  0  0  0  2  0  0  0  0  0  0
  192.4220  175.2510  135.5500 C   0  0  0  0  0  2  0  0  0  0  0  0
  193.4900  174.3910  136.0940 N   0  0  0  0  0  0  0  0  0  0  0  0
  195.7510  175.0390  135.3270 C   0  0  0  0  0  2  0  0  0  0  0  0
  195.4760  174.5070  137.5980 C   0  0  0  0  0  2  0  0  0  0  0  0
  196.3740  174.5010  136.4770 O   0  0  0  0  0  0  0  0  0  0  0  0
  194.0970  175.1120  137.2310 C   0  0  0  0  0  2  0  0  0  0  0  0
  194.5200  174.1630  135.0450 C   0  0  0  0  0  2  0  0  0  0  0  0
  184.4010  178.9300  140.6810 O   0  0  0  0  0  0  0  0  0  0  0  0
  182.0730  178.4600  137.6130 C   0  0  0  0  0  2  0  0  0  0  0  0
  181.5500  177.1390  138.1160 C   0  0  2  0  0  3  0  0  0  0  0  0
  182.9280  177.0970  140.1670 C   0  0  0  0  0  2  0  0  0  0  0  0
  182.8310  179.1590  138.7330 C   0  0  0  0  0  2  0  0  0  0  0  0
  183.6940  178.2900  139.6410 C   0  0  1  0  0  3  0  0  0  0  0  0
  182.3920  176.2530  139.0210 C   0  0  0  0  0  2  0  0  0  0  0  0
  180.9220  175.0470  137.3600 O   0  0  0  0  0  1  0  0  0  0  0  0
  180.6860  176.4050  137.1800 C   0  0  0  0  0  2  0  0  0  0  0  0
  1  6  1  0  0  0  0
  2 11  1  0  0  0  0
  2 12  1  0  0  0  0
  3 10  1  0  0  0  0
  4  8  2  0  0  0  0
  5  1  2  0  0  0  0
  7  9  2  0  0  0  0
  7  4  1  0  0  0  0
  8  1  1  0  0  0  0
  9  5  1  0  0  0  0
 10 11  2  0  0  0  0
 11  7  1  0  0  0  0
 12 15  2  0  0  0  0
 13  2  2  0  0  0  0
 14  3  2  0  0  0  0
 14 13  1  0  0  0  0
 15  4  1  0  0  0  0
 16 18  1  0  0  0  0
 16  3  1  1  0  0  0
 17 16  1  0  0  0  0
 19 21  1  6  0  0  0
 19 17  1  0  0  0  0
 19 20  1  0  0  0  0
 20 18  1  0  0  0  0
 22 21  1  0  0  0  0
 22 24  1  0  0  0  0
 23 27  1  0  0  0  0
 24 27  1  0  0  0  0
 25 26  1  6  0  0  0
 25 22  1  0  0  0  0
 25 23  1  0  0  0  0
 28 25  1  0  0  0  0
 28 29  1  0  0  0  0
 29 33  1  0  0  0  0
 30 32  1  0  0  0  0
 32 31  1  0  0  0  0
 33 31  1  0  0  0  0
 34 30  1  0  0  0  0
 34 29  1  0  0  0  0
 35 13  1  0  0  0  0
 36 37  1  0  0  0  0
 36 39  1  0  0  0  0
 37 43  1  6  0  0  0
 37 41  1  0  0  0  0
 39 40  1  0  0  0  0
 40 38  1  0  0  0  0
 40 35  1  1  0  0  0
 41 38  1  0  0  0  0
 43 42  1  0  0  0  0
M  END
>  <MODEL>
4

>  <REMARK>
 VINA RESULT:      -9.8      2.044      3.000
  Name = 
  8 active torsions:
  status: ('A' for Active; 'I' for Inactive)
    1  A    between atoms: O_1  and  C_34
    2  A    between atoms: O_1  and  C_35
    3  A    between atoms: C_2  and  C_13
    4  A    between atoms: C_3  and  N_4
    5  A    between atoms: C_3  and  C_12
    6  A    between atoms: N_11  and  C_14
    7  A    between atoms: C_14  and  C_22
    8  A    between atoms: C_19  and  C_37
                            x       y       z     vdW  Elec       q    Type
                         _______ _______ _______ _____ _____    ______ ____

>  <TORSDO>
F 8

$$$$
=
 OpenBabel10272414163D

 43 49  0  0  1  0  0  0  0  0999 V2000
  191.5550  176.1590  147.0770 C   0  0  0  0  0  0  0  0  0  0  0  0
  187.4580  177.9230  144.4840 C   0  0  0  0  0  0  0  0  0  0  0  0
  188.3870  178.1570  141.7600 C   0  0  0  0  0  0  0  0  0  0  0  0
  189.3100  176.9140  146.4570 C   0  0  0  0  0  0  0  0  0  0  0  0
  191.9820  176.4270  145.7840 C   0  0  0  0  0  3  0  0  0  0  0  0
  192.5160  175.7980  148.1390 C   0  0  0  0  0  1  0  0  0  0  0  0
  189.7230  177.1370  145.0990 C   0  0  0  0  0  0  0  0  0  0  0  0
  190.1960  176.4190  147.3870 C   0  0  0  0  0  3  0  0  0  0  0  0
  191.0960  176.8880  144.8290 C   0  0  0  0  0  3  0  0  0  0  0  0
  189.2150  177.6270  142.7540 C   0  0  0  0  0  3  0  0  0  0  0  0
  188.8190  177.5470  144.1150 C   0  0  0  0  0  0  0  0  0  0  0  0
  187.1060  177.8420  145.8440 C   0  0  0  0  0  3  0  0  0  0  0  0
  186.5780  178.3250  143.4240 C   0  0  0  0  0  0  0  0  0  0  0  0
  187.0280  178.5450  142.1150 C   0  0  0  0  0  3  0  0  0  0  0  0
  187.9970  177.3450  146.8190 C   0  0  0  0  0  3  0  0  0  0  0  0
  188.9880  177.9840  140.3130 C   0  0  2  0  0  3  0  0  0  0  0  0
  188.2430  177.1200  139.4710 O   0  0  0  0  0  0  0  0  0  0  0  0
  190.4650  177.6550  140.1540 C   0  0  0  0  0  2  0  0  0  0  0  0
  189.1520  176.3570  138.6880 C   0  0  2  0  0  3  0  0  0  0  0  0
  190.5060  177.0560  138.7360 C   0  0  0  0  0  2  0  0  0  0  0  0
  188.4800  175.7250  137.4280 C   0  0  0  0  0  2  0  0  0  0  0  0
  188.2540  176.7060  136.3780 N   0  0  0  0  0  0  0  0  0  0  0  0
  186.6560  178.3780  136.8230 C   0  0  0  0  0  2  0  0  0  0  0  0
  188.9800  177.9670  136.6190 C   0  0  0  0  0  2  0  0  0  0  0  0
  186.8550  177.0900  136.1090 C   0  0  1  0  0  0  0  0  0  0  0  0
  186.7480  177.3310  134.7490 O   0  0  0  0  0  1  0  0  0  0  0  0
  187.9820  179.1000  136.7400 C   0  0  0  0  0  2  0  0  0  0  0  0
  185.8080  176.0220  136.4850 C   0  0  0  0  0  2  0  0  0  0  0  0
  184.4180  176.5150  136.4540 N   0  0  0  0  0  0  0  0  0  0  0  0
  182.7660  174.7430  135.9500 C   0  0  0  0  0  2  0  0  0  0  0  0
  182.2580  176.2560  137.6730 C   0  0  0  0  0  2  0  0  0  0  0  0
  181.7280  175.4160  136.6360 O   0  0  0  0  0  0  0  0  0  0  0  0
  183.8030  176.1720  137.7520 C   0  0  0  0  0  2  0  0  0  0  0  0
  183.6780  175.8300  135.3600 C   0  0  0  0  0  2  0  0  0  0  0  0
  185.2430  178.7670  143.8670 O   0  0  0  0  0  0  0  0  0  0  0  0
  182.7590  178.2270  140.9360 C   0  0  0  0  0  2  0  0  0  0  0  0
  181.5970  178.7870  141.7160 C   0  0  2  0  0  3  0  0  0  0  0  0
  182.8830  179.2320  143.7810 C   0  0  0  0  0  2  0  0  0  0  0  0
  184.0560  178.5530  141.6630 C   0  0  0  0  0  2  0  0  0  0  0  0
  184.0440  178.4680  143.1850 C   0  0  1  0  0  3  0  0  0  0  0  0
  181.5610  178.7130  143.2360 C   0  0  0  0  0  2  0  0  0  0  0  0
  180.2810  177.4780  140.3380 O   0  0  0  0  0  1  0  0  0  0  0  0
  180.2830  178.6600  141.0710 C   0  0  0  0  0  2  0  0  0  0  0  0
  1  8  1  0  0  0  0
  1  6  1  0  0  0  0
  2 12  1  0  0  0  0
  3 14  2  0  0  0  0
  3 10  1  0  0  0  0
  4 15  1  0  0  0  0
  4  8  2  0  0  0  0
  5  1  2  0  0  0  0
  7  4  1  0  0  0  0
  9  7  2  0  0  0  0
  9  5  1  0  0  0  0
 10 11  2  0  0  0  0
 11  2  1  0  0  0  0
 11  7  1  0  0  0  0
 12 15  2  0  0  0  0
 13 35  1  0  0  0  0
 13  2  2  0  0  0  0
 14 13  1  0  0  0  0
 16  3  1  1  0  0  0
 17 16  1  0  0  0  0
 18 16  1  0  0  0  0
 19 21  1  6  0  0  0
 19 20  1  0  0  0  0
 19 17  1  0  0  0  0
 20 18  1  0  0  0  0
 22 24  1  0  0  0  0
 22 21  1  0  0  0  0
 24 27  1  0  0  0  0
 25 26  1  6  0  0  0
 25 22  1  0  0  0  0
 25 28  1  0  0  0  0
 25 23  1  0  0  0  0
 27 23  1  0  0  0  0
 29 28  1  0  0  0  0
 29 33  1  0  0  0  0
 30 32  1  0  0  0  0
 31 33  1  0  0  0  0
 32 31  1  0  0  0  0
 34 30  1  0  0  0  0
 34 29  1  0  0  0  0
 36 39  1  0  0  0  0
 36 37  1  0  0  0  0
 37 43  1  6  0  0  0
 37 41  1  0  0  0  0
 39 40  1  0  0  0  0
 40 38  1  0  0  0  0
 40 35  1  1  0  0  0
 41 38  1  0  0  0  0
 42 43  1  0  0  0  0
M  END
>  <MODEL>
5

>  <REMARK>
 VINA RESULT:      -9.8      3.233      5.610
  Name = 
  8 active torsions:
  status: ('A' for Active; 'I' for Inactive)
    1  A    between atoms: O_1  and  C_34
    2  A    between atoms: O_1  and  C_35
    3  A    between atoms: C_2  and  C_13
    4  A    between atoms: C_3  and  N_4
    5  A    between atoms: C_3  and  C_12
    6  A    between atoms: N_11  and  C_14
    7  A    between atoms: C_14  and  C_22
    8  A    between atoms: C_19  and  C_37
                            x       y       z     vdW  Elec       q    Type
                         _______ _______ _______ _____ _____    ______ ____

>  <TORSDO>
F 8

$$$$
=
 OpenBabel10272414163D

 43 49  0  0  1  0  0  0  0  0999 V2000
  188.5420  177.6490  145.4810 C   0  0  0  0  0  0  0  0  0  0  0  0
  190.8830  177.2360  140.9010 C   0  0  0  0  0  0  0  0  0  0  0  0
  188.7560  177.5890  138.9810 C   0  0  0  0  0  0  0  0  0  0  0  0
  190.2110  177.4150  143.7050 C   0  0  0  0  0  0  0  0  0  0  0  0
  187.5440  177.6670  144.5160 C   0  0  0  0  0  3  0  0  0  0  0  0
  188.2120  177.5760  146.9190 C   0  0  0  0  0  1  0  0  0  0  0  0
  189.1950  177.4970  142.6920 C   0  0  0  0  0  0  0  0  0  0  0  0
  189.8830  177.5160  145.0380 C   0  0  0  0  0  3  0  0  0  0  0  0
  187.8610  177.6060  143.1730 C   0  0  0  0  0  3  0  0  0  0  0  0
  188.5090  177.7150  140.3520 C   0  0  0  0  0  3  0  0  0  0  0  0
  189.5120  177.4940  141.3320 C   0  0  0  0  0  0  0  0  0  0  0  0
  191.8470  177.0110  141.9010 C   0  0  0  0  0  3  0  0  0  0  0  0
  191.1430  177.2570  139.4910 C   0  0  0  0  0  0  0  0  0  0  0  0
  190.1180  177.3230  138.5370 C   0  0  0  0  0  3  0  0  0  0  0  0
  191.5360  177.1010  143.2740 C   0  0  0  0  0  3  0  0  0  0  0  0
  187.5300  178.0440  138.0990 C   0  0  2  0  0  3  0  0  0  0  0  0
  186.3880  178.4320  138.8440 O   0  0  0  0  0  0  0  0  0  0  0  0
  187.0770  177.1660  136.9440 C   0  0  0  0  0  2  0  0  0  0  0  0
  185.2280  177.9710  138.1640 C   0  0  2  0  0  3  0  0  0  0  0  0
  185.6290  177.6450  136.7300 C   0  0  0  0  0  2  0  0  0  0  0  0
  183.9290  178.7120  138.6180 C   0  0  0  0  0  2  0  0  0  0  0  0
  182.8210  177.7930  138.8270 N   0  0  0  0  0  0  0  0  0  0  0  0
  180.6810  178.7550  139.0430 C   0  0  0  0  0  2  0  0  0  0  0  0
  182.0770  177.5150  137.5850 C   0  0  0  0  0  2  0  0  0  0  0  0
  181.8070  178.1830  139.8260 C   0  0  1  0  0  0  0  0  0  0  0  0
  181.3610  177.0220  140.4350 O   0  0  0  0  0  1  0  0  0  0  0  0
  180.6410  177.9680  137.7510 C   0  0  0  0  0  2  0  0  0  0  0  0
  182.3180  179.1310  140.9290 C   0  0  0  0  0  2  0  0  0  0  0  0
  182.7600  178.4360  142.1530 N   0  0  0  0  0  0  0  0  0  0  0  0
  184.6770  179.5380  143.2640 C   0  0  0  0  0  2  0  0  0  0  0  0
  182.9100  178.7880  144.6180 C   0  0  0  0  0  2  0  0  0  0  0  0
  184.3230  179.0320  144.5360 O   0  0  0  0  0  0  0  0  0  0  0  0
  182.1820  179.1630  143.3020 C   0  0  0  0  0  2  0  0  0  0  0  0
  184.2450  178.4810  142.2360 C   0  0  0  0  0  2  0  0  0  0  0  0
  192.5270  176.9140  139.1150 O   0  0  0  0  0  0  0  0  0  0  0  0
  192.2200  173.9670  136.6100 C   0  0  0  0  0  2  0  0  0  0  0  0
  193.6800  173.6150  136.7260 C   0  0  2  0  0  3  0  0  0  0  0  0
  194.2400  175.4230  138.3170 C   0  0  0  0  0  2  0  0  0  0  0  0
  191.8460  174.9360  137.7230 C   0  0  0  0  0  2  0  0  0  0  0  0
  192.8660  176.0110  138.0850 C   0  0  1  0  0  3  0  0  0  0  0  0
  194.7170  174.6680  137.0850 C   0  0  0  0  0  2  0  0  0  0  0  0
  193.3020  171.4950  135.8870 O   0  0  0  0  0  1  0  0  0  0  0  0
  194.1580  172.5860  135.7920 C   0  0  0  0  0  2  0  0  0  0  0  0
  1  6  1  0  0  0  0
  2 11  1  0  0  0  0
  2 12  1  0  0  0  0
  3 10  1  0  0  0  0
  4  8  2  0  0  0  0
  5  1  2  0  0  0  0
  7  9  2  0  0  0  0
  7  4  1  0  0  0  0
  8  1  1  0  0  0  0
  9  5  1  0  0  0  0
 10 11  2  0  0  0  0
 11  7  1  0  0  0  0
 12 15  2  0  0  0  0
 13  2  2  0  0  0  0
 14  3  2  0  0  0  0
 14 13  1  0  0  0  0
 15  4  1  0  0  0  0
 16 17  1  0  0  0  0
 16  3  1  1  0  0  0
 18 16  1  0  0  0  0
 19 21  1  6  0  0  0
 19 17  1  0  0  0  0
 20 18  1  0  0  0  0
 20 19  1  0  0  0  0
 21 22  1  0  0  0  0
 22 25  1  0  0  0  0
 23 25  1  0  0  0  0
 24 27  1  0  0  0  0
 24 22  1  0  0  0  0
 25 26  1  1  0  0  0
 25 28  1  0  0  0  0
 27 23  1  0  0  0  0
 28 29  1  0  0  0  0
 29 34  1  0  0  0  0
 29 33  1  0  0  0  0
 30 32  1  0  0  0  0
 32 31  1  0  0  0  0
 33 31  1  0  0  0  0
 34 30  1  0  0  0  0
 35 13  1  0  0  0  0
 36 37  1  0  0  0  0
 36 39  1  0  0  0  0
 37 43  1  6  0  0  0
 37 41  1  0  0  0  0
 39 40  1  0  0  0  0
 40 38  1  0  0  0  0
 40 35  1  1  0  0  0
 41 38  1  0  0  0  0
 43 42  1  0  0  0  0
M  END
>  <MODEL>
6

>  <REMARK>
 VINA RESULT:      -9.6      3.009      9.917
  Name = 
  8 active torsions:
  status: ('A' for Active; 'I' for Inactive)
    1  A    between atoms: O_1  and  C_34
    2  A    between atoms: O_1  and  C_35
    3  A    between atoms: C_2  and  C_13
    4  A    between atoms: C_3  and  N_4
    5  A    between atoms: C_3  and  C_12
    6  A    between atoms: N_11  and  C_14
    7  A    between atoms: C_14  and  C_22
    8  A    between atoms: C_19  and  C_37
                            x       y       z     vdW  Elec       q    Type
                         _______ _______ _______ _____ _____    ______ ____

>  <TORSDO>
F 8

$$$$
=
 OpenBabel10272414163D

 43 49  0  0  1  0  0  0  0  0999 V2000
  184.7980  178.5940  145.3050 C   0  0  0  0  0  0  0  0  0  0  0  0
  182.4790  178.8710  140.7030 C   0  0  0  0  0  0  0  0  0  0  0  0
  184.6020  178.3870  138.8070 C   0  0  0  0  0  0  0  0  0  0  0  0
  183.1400  178.7930  143.5140 C   0  0  0  0  0  0  0  0  0  0  0  0
  185.7970  178.5100  144.3450 C   0  0  0  0  0  3  0  0  0  0  0  0
  185.1260  178.7190  146.7400 C   0  0  0  0  0  1  0  0  0  0  0  0
  184.1560  178.6440  142.5090 C   0  0  0  0  0  0  0  0  0  0  0  0
  183.4620  178.7400  144.8510 C   0  0  0  0  0  3  0  0  0  0  0  0
  185.4860  178.5240  142.9990 C   0  0  0  0  0  3  0  0  0  0  0  0
  184.8420  178.3120  140.1830 C   0  0  0  0  0  3  0  0  0  0  0  0
  183.8430  178.5980  141.1490 C   0  0  0  0  0  0  0  0  0  0  0  0
  181.5190  179.1620  141.6890 C   0  0  0  0  0  3  0  0  0  0  0  0
  182.2220  178.7970  139.2940 C   0  0  0  0  0  0  0  0  0  0  0  0
  183.2480  178.6670  138.3470 C   0  0  0  0  0  3  0  0  0  0  0  0
  181.8240  179.1220  143.0660 C   0  0  0  0  0  3  0  0  0  0  0  0
  185.8190  177.8650  137.9490 C   0  0  2  0  0  3  0  0  0  0  0  0
  187.0640  178.4550  138.2840 O   0  0  0  0  0  0  0  0  0  0  0  0
  185.6970  177.8210  136.4340 C   0  0  0  0  0  2  0  0  0  0  0  0
  187.7990  178.6660  137.0850 C   0  0  2  0  0  3  0  0  0  0  0  0
  187.1740  177.8000  135.9980 C   0  0  0  0  0  2  0  0  0  0  0  0
  189.3260  178.8710  137.3440 C   0  0  0  0  0  2  0  0  0  0  0  0
  190.0660  177.6210  137.2720 N   0  0  0  0  0  0  0  0  0  0  0  0
  189.1390  175.7800  138.4120 C   0  0  0  0  0  2  0  0  0  0  0  0
  189.5170  176.6980  136.2610 C   0  0  0  0  0  2  0  0  0  0  0  0
  190.1780  176.8360  138.5160 C   0  0  1  0  0  0  0  0  0  0  0  0
  191.4190  176.2210  138.5050 O   0  0  0  0  0  1  0  0  0  0  0  0
  189.0650  175.4230  136.9440 C   0  0  0  0  0  2  0  0  0  0  0  0
  190.0710  177.6630  139.8140 C   0  0  0  0  0  2  0  0  0  0  0  0
  190.1760  176.8560  141.0440 N   0  0  0  0  0  0  0  0  0  0  0  0
  190.9350  178.1600  143.0050 C   0  0  0  0  0  2  0  0  0  0  0  0
  189.1520  176.6620  143.3100 C   0  0  0  0  0  2  0  0  0  0  0  0
  190.2860  177.2990  143.9200 O   0  0  0  0  0  0  0  0  0  0  0  0
  188.9580  177.1120  141.8400 C   0  0  0  0  0  2  0  0  0  0  0  0
  191.3710  177.2890  141.8160 C   0  0  0  0  0  2  0  0  0  0  0  0
  180.8480  179.1590  138.8990 O   0  0  0  0  0  0  0  0  0  0  0  0
  180.3480  181.3440  135.7330 C   0  0  0  0  0  2  0  0  0  0  0  0
  180.7920  182.6000  136.4360 C   0  0  2  0  0  3  0  0  0  0  0  0
  181.1830  181.5270  138.6280 C   0  0  0  0  0  2  0  0  0  0  0  0
  180.7020  180.1370  136.5890 C   0  0  0  0  0  2  0  0  0  0  0  0
  180.5230  180.2730  138.0970 C   0  0  1  0  0  3  0  0  0  0  0  0
  180.6240  182.7620  137.9390 C   0  0  0  0  0  2  0  0  0  0  0  0
  181.4820  184.7960  136.2190 O   0  0  0  0  0  1  0  0  0  0  0  0
  180.6300  183.8440  135.6700 C   0  0  0  0  0  2  0  0  0  0  0  0
  1  6  1  0  0  0  0
  2 11  1  0  0  0  0
  2 12  1  0  0  0  0
  3 10  1  0  0  0  0
  4  8  2  0  0  0  0
  5  1  2  0  0  0  0
  7  9  2  0  0  0  0
  7  4  1  0  0  0  0
  8  1  1  0  0  0  0
  9  5  1  0  0  0  0
 10 11  2  0  0  0  0
 11  7  1  0  0  0  0
 12 15  2  0  0  0  0
 13  2  2  0  0  0  0
 14  3  2  0  0  0  0
 14 13  1  0  0  0  0
 15  4  1  0  0  0  0
 16 17  1  0  0  0  0
 16  3  1  1  0  0  0
 18 16  1  0  0  0  0
 19 21  1  1  0  0  0
 19 17  1  0  0  0  0
 20 18  1  0  0  0  0
 20 19  1  0  0  0  0
 22 21  1  0  0  0  0
 22 25  1  0  0  0  0
 23 25  1  0  0  0  0
 24 27  1  0  0  0  0
 24 22  1  0  0  0  0
 25 26  1  6  0  0  0
 25 28  1  0  0  0  0
 27 23  1  0  0  0  0
 28 29  1  0  0  0  0
 29 34  1  0  0  0  0
 29 33  1  0  0  0  0
 30 32  1  0  0  0  0
 31 32  1  0  0  0  0
 33 31  1  0  0  0  0
 34 30  1  0  0  0  0
 35 13  1  0  0  0  0
 36 37  1  0  0  0  0
 36 39  1  0  0  0  0
 37 43  1  6  0  0  0
 37 41  1  0  0  0  0
 39 40  1  0  0  0  0
 40 38  1  0  0  0  0
 40 35  1  1  0  0  0
 41 38  1  0  0  0  0
 43 42  1  0  0  0  0
M  END
>  <MODEL>
7

>  <REMARK>
 VINA RESULT:      -9.5      3.477      6.373
  Name = 
  8 active torsions:
  status: ('A' for Active; 'I' for Inactive)
    1  A    between atoms: O_1  and  C_34
    2  A    between atoms: O_1  and  C_35
    3  A    between atoms: C_2  and  C_13
    4  A    between atoms: C_3  and  N_4
    5  A    between atoms: C_3  and  C_12
    6  A    between atoms: N_11  and  C_14
    7  A    between atoms: C_14  and  C_22
    8  A    between atoms: C_19  and  C_37
                            x       y       z     vdW  Elec       q    Type
                         _______ _______ _______ _____ _____    ______ ____

>  <TORSDO>
F 8

$$$$
=
 OpenBabel10272414163D

 43 49  0  0  1  0  0  0  0  0999 V2000
  184.3460  178.6040  144.9050 C   0  0  0  0  0  0  0  0  0  0  0  0
  182.2620  178.7980  140.1880 C   0  0  0  0  0  0  0  0  0  0  0  0
  184.4490  178.1520  138.4170 C   0  0  0  0  0  0  0  0  0  0  0  0
  182.7840  178.8030  143.0290 C   0  0  0  0  0  0  0  0  0  0  0  0
  185.3850  178.4410  143.9980 C   0  0  0  0  0  3  0  0  0  0  0  0
  184.6110  178.7710  146.3480 C   0  0  0  0  0  1  0  0  0  0  0  0
  183.8400  178.5720  142.0810 C   0  0  0  0  0  0  0  0  0  0  0  0
  183.0410  178.7890  144.3820 C   0  0  0  0  0  3  0  0  0  0  0  0
  185.1380  178.4150  142.6390 C   0  0  0  0  0  3  0  0  0  0  0  0
  184.6190  178.1210  139.8050 C   0  0  0  0  0  3  0  0  0  0  0  0
  183.5890  178.4860  140.7100 C   0  0  0  0  0  0  0  0  0  0  0  0
  181.2690  179.1680  141.1150 C   0  0  0  0  0  3  0  0  0  0  0  0
  182.0690  178.6810  138.7710 C   0  0  0  0  0  0  0  0  0  0  0  0
  183.1310  178.4700  137.8820 C   0  0  0  0  0  3  0  0  0  0  0  0
  181.5070  179.1690  142.5060 C   0  0  0  0  0  3  0  0  0  0  0  0
  185.6800  177.5460  137.6400 C   0  0  2  0  0  3  0  0  0  0  0  0
  186.9430  177.9290  138.1590 O   0  0  0  0  0  0  0  0  0  0  0  0
  185.7290  177.6520  136.1240 C   0  0  0  0  0  2  0  0  0  0  0  0
  187.8320  178.1420  137.0700 C   0  0  2  0  0  3  0  0  0  0  0  0
  187.2310  177.4680  135.8410 C   0  0  0  0  0  2  0  0  0  0  0  0
  189.3320  178.1130  137.5030 C   0  0  0  0  0  2  0  0  0  0  0  0
  189.6310  176.9810  138.3660 N   0  0  0  0  0  0  0  0  0  0  0  0
  191.7460  176.9740  139.4020 C   0  0  0  0  0  2  0  0  0  0  0  0
  189.4320  177.2930  139.7940 C   0  0  0  0  0  2  0  0  0  0  0  0
  190.9830  176.3990  138.2640 C   0  0  1  0  0  0  0  0  0  0  0  0
  190.8620  175.0350  138.4740 O   0  0  0  0  0  1  0  0  0  0  0  0
  190.7470  177.1300  140.5270 C   0  0  0  0  0  2  0  0  0  0  0  0
  191.6760  176.6090  136.9030 C   0  0  0  0  0  2  0  0  0  0  0  0
  192.4680  175.4490  136.4530 N   0  0  0  0  0  0  0  0  0  0  0  0
  193.6980  175.8640  134.3460 C   0  0  0  0  0  2  0  0  0  0  0  0
  194.8360  174.7620  136.0800 C   0  0  0  0  0  2  0  0  0  0  0  0
  194.6980  174.9150  134.6590 O   0  0  0  0  0  0  0  0  0  0  0  0
  193.8670  175.6890  136.8580 C   0  0  0  0  0  2  0  0  0  0  0  0
  192.3920  175.3480  134.9710 C   0  0  0  0  0  2  0  0  0  0  0  0
  180.7320  179.0840  138.2970 O   0  0  0  0  0  0  0  0  0  0  0  0
  180.3450  181.8600  135.6140 C   0  0  0  0  0  2  0  0  0  0  0  0
  180.7840  182.9450  136.5630 C   0  0  2  0  0  3  0  0  0  0  0  0
  181.1000  181.4530  138.5090 C   0  0  0  0  0  2  0  0  0  0  0  0
  180.6620  180.5010  136.2240 C   0  0  0  0  0  2  0  0  0  0  0  0
  180.4420  180.3400  137.7240 C   0  0  1  0  0  3  0  0  0  0  0  0
  180.5750  182.8090  138.0640 C   0  0  0  0  0  2  0  0  0  0  0  0
  181.6320  185.0920  136.6740 O   0  0  0  0  0  1  0  0  0  0  0  0
  180.6580  184.3180  136.0550 C   0  0  0  0  0  2  0  0  0  0  0  0
  1  6  1  0  0  0  0
  2 11  1  0  0  0  0
  2 12  1  0  0  0  0
  3 10  1  0  0  0  0
  4  8  2  0  0  0  0
  5  1  2  0  0  0  0
  7  9  2  0  0  0  0
  7  4  1  0  0  0  0
  8  1  1  0  0  0  0
  9  5  1  0  0  0  0
 10 11  2  0  0  0  0
 11  7  1  0  0  0  0
 12 15  2  0  0  0  0
 13  2  2  0  0  0  0
 14  3  2  0  0  0  0
 14 13  1  0  0  0  0
 15  4  1  0  0  0  0
 16 17  1  0  0  0  0
 16  3  1  1  0  0  0
 18 16  1  0  0  0  0
 19 21  1  1  0  0  0
 19 17  1  0  0  0  0
 20 18  1  0  0  0  0
 20 19  1  0  0  0  0
 21 22  1  0  0  0  0
 22 24  1  0  0  0  0
 23 27  1  0  0  0  0
 24 27  1  0  0  0  0
 25 22  1  0  0  0  0
 25 26  1  1  0  0  0
 25 23  1  0  0  0  0
 28 25  1  0  0  0  0
 29 33  1  0  0  0  0
 29 28  1  0  0  0  0
 30 32  1  0  0  0  0
 30 34  1  0  0  0  0
 31 33  1  0  0  0  0
 32 31  1  0  0  0  0
 34 29  1  0  0  0  0
 35 13  1  0  0  0  0
 36 39  1  0  0  0  0
 36 37  1  0  0  0  0
 37 43  1  6  0  0  0
 37 41  1  0  0  0  0
 39 40  1  0  0  0  0
 40 35  1  1  0  0  0
 40 38  1  0  0  0  0
 41 38  1  0  0  0  0
 43 42  1  0  0  0  0
M  END
>  <MODEL>
8

>  <REMARK>
 VINA RESULT:      -9.1      3.415      5.858
  Name = 
  8 active torsions:
  status: ('A' for Active; 'I' for Inactive)
    1  A    between atoms: O_1  and  C_34
    2  A    between atoms: O_1  and  C_35
    3  A    between atoms: C_2  and  C_13
    4  A    between atoms: C_3  and  N_4
    5  A    between atoms: C_3  and  C_12
    6  A    between atoms: N_11  and  C_14
    7  A    between atoms: C_14  and  C_22
    8  A    between atoms: C_19  and  C_37
                            x       y       z     vdW  Elec       q    Type
                         _______ _______ _______ _____ _____    ______ ____

>  <TORSDO>
F 8

$$$$
=
 OpenBabel10272414163D

 43 49  0  0  1  0  0  0  0  0999 V2000
  193.2250  174.9040  135.6820 C   0  0  0  0  0  0  0  0  0  0  0  0
  189.3030  177.3910  137.9310 C   0  0  0  0  0  0  0  0  0  0  0  0
  189.7920  177.0810  140.7600 C   0  0  0  0  0  0  0  0  0  0  0  0
  191.2170  176.2420  136.0980 C   0  0  0  0  0  0  0  0  0  0  0  0
  193.3280  174.6680  137.0460 C   0  0  0  0  0  3  0  0  0  0  0  0
  194.0930  174.1980  134.7180 C   0  0  0  0  0  1  0  0  0  0  0  0
  191.3470  176.0590  137.5170 C   0  0  0  0  0  0  0  0  0  0  0  0
  192.1420  175.7020  135.2330 C   0  0  0  0  0  3  0  0  0  0  0  0
  192.4300  175.2340  137.9300 C   0  0  0  0  0  3  0  0  0  0  0  0
  190.7060  176.5950  139.8190 C   0  0  0  0  0  3  0  0  0  0  0  0
  190.4770  176.6750  138.4200 C   0  0  0  0  0  0  0  0  0  0  0  0
  189.1040  177.4390  136.5390 C   0  0  0  0  0  3  0  0  0  0  0  0
  188.4560  178.0100  138.9100 C   0  0  0  0  0  0  0  0  0  0  0  0
  188.6110  177.7900  140.2860 C   0  0  0  0  0  3  0  0  0  0  0  0
  190.0330  176.8890  135.6300 C   0  0  0  0  0  3  0  0  0  0  0  0
  190.3490  177.0220  142.2340 C   0  0  2  0  0  3  0  0  0  0  0  0
  189.3680  176.7380  143.2170 O   0  0  0  0  0  0  0  0  0  0  0  0
  191.2290  178.1520  142.7430 C   0  0  0  0  0  2  0  0  0  0  0  0
  189.6480  177.5180  144.3720 C   0  0  2  0  0  3  0  0  0  0  0  0
  191.0910  177.9990  144.2690 C   0  0  0  0  0  2  0  0  0  0  0  0
  188.9420  176.9710  145.6540 C   0  0  0  0  0  2  0  0  0  0  0  0
  188.5760  178.0370  146.5730 N   0  0  0  0  0  0  0  0  0  0  0  0
  186.9550  177.5160  148.2000 C   0  0  0  0  0  2  0  0  0  0  0  0
  189.2650  177.9230  147.8720 C   0  0  0  0  0  2  0  0  0  0  0  0
  187.1430  178.1870  146.8880 C   0  0  1  0  0  0  0  0  0  0  0  0
  186.8970  179.5400  147.0590 O   0  0  0  0  0  1  0  0  0  0  0  0
  188.2350  177.7580  148.9700 C   0  0  0  0  0  2  0  0  0  0  0  0
  186.1840  177.6660  145.8000 C   0  0  0  0  0  2  0  0  0  0  0  0
  185.4940  178.7340  145.0520 N   0  0  0  0  0  0  0  0  0  0  0  0
  184.7490  178.0260  142.8010 C   0  0  0  0  0  2  0  0  0  0  0  0
  183.2530  179.2820  144.1060 C   0  0  0  0  0  2  0  0  0  0  0  0
  183.6940  178.9680  142.7750 O   0  0  0  0  0  0  0  0  0  0  0  0
  184.0430  178.4910  145.1790 C   0  0  0  0  0  2  0  0  0  0  0  0
  185.8850  178.6620  143.6180 C   0  0  0  0  0  2  0  0  0  0  0  0
  187.2460  178.6500  138.3610 O   0  0  0  0  0  0  0  0  0  0  0  0
  184.1450  176.7380  137.0290 C   0  0  0  0  0  2  0  0  0  0  0  0
  183.1850  177.5890  137.8190 C   0  0  2  0  0  3  0  0  0  0  0  0
  184.9220  178.9870  138.8860 C   0  0  0  0  0  2  0  0  0  0  0  0
  185.5200  177.3890  137.0400 C   0  0  0  0  0  2  0  0  0  0  0  0
  185.9720  178.0450  138.3400 C   0  0  1  0  0  3  0  0  0  0  0  0
  183.6100  178.2540  139.1200 C   0  0  0  0  0  2  0  0  0  0  0  0
  181.7430  175.8230  138.1970 O   0  0  0  0  0  1  0  0  0  0  0  0
  181.7820  177.1520  137.7910 C   0  0  0  0  0  2  0  0  0  0  0  0
  1  5  1  0  0  0  0
  2 11  1  0  0  0  0
  2 13  1  0  0  0  0
  4  7  1  0  0  0  0
  5  9  2  0  0  0  0
  6  1  1  0  0  0  0
  7  9  1  0  0  0  0
  7 11  2  0  0  0  0
  8  1  2  0  0  0  0
  8  4  1  0  0  0  0
 10  3  2  0  0  0  0
 11 10  1  0  0  0  0
 12  2  2  0  0  0  0
 13 14  2  0  0  0  0
 14  3  1  0  0  0  0
 15  4  2  0  0  0  0
 15 12  1  0  0  0  0
 16  3  1  6  0  0  0
 16 18  1  0  0  0  0
 16 17  1  0  0  0  0
 17 19  1  0  0  0  0
 18 20  1  0  0  0  0
 19 21  1  1  0  0  0
 20 19  1  0  0  0  0
 21 22  1  0  0  0  0
 22 25  1  0  0  0  0
 22 24  1  0  0  0  0
 23 27  1  0  0  0  0
 24 27  1  0  0  0  0
 25 26  1  1  0  0  0
 25 23  1  0  0  0  0
 28 25  1  0  0  0  0
 29 33  1  0  0  0  0
 29 28  1  0  0  0  0
 30 34  1  0  0  0  0
 31 33  1  0  0  0  0
 32 30  1  0  0  0  0
 32 31  1  0  0  0  0
 34 29  1  0  0  0  0
 35 13  1  0  0  0  0
 36 39  1  0  0  0  0
 36 37  1  0  0  0  0
 37 43  1  1  0  0  0
 37 41  1  0  0  0  0
 38 41  1  0  0  0  0
 39 40  1  0  0  0  0
 40 35  1  6  0  0  0
 40 38  1  0  0  0  0
 43 42  1  0  0  0  0
M  END
>  <MODEL>
9

>  <REMARK>
 VINA RESULT:      -8.9      3.647      9.421
  Name = 
  8 active torsions:
  status: ('A' for Active; 'I' for Inactive)
    1  A    between atoms: O_1  and  C_34
    2  A    between atoms: O_1  and  C_35
    3  A    between atoms: C_2  and  C_13
    4  A    between atoms: C_3  and  N_4
    5  A    between atoms: C_3  and  C_12
    6  A    between atoms: N_11  and  C_14
    7  A    between atoms: C_14  and  C_22
    8  A    between atoms: C_19  and  C_37
                            x       y       z     vdW  Elec       q    Type
                         _______ _______ _______ _____ _____    ______ ____

>  <TORSDO>
F 8

$$$$
