=
 OpenBabel10272402073D

 32 37  0  0  1  0  0  0  0  0999 V2000
  189.2080  174.9750  134.9250 C   0  0  1  0  0  3  0  0  0  0  0  0
  188.0340  174.3640  136.9690 C   0  0  2  0  0  3  0  0  0  0  0  0
  193.2320  175.9200  137.0660 C   0  0  1  0  0  3  0  0  0  0  0  0
  190.4300  174.4120  134.3560 N   0  0  0  0  0  2  0  0  0  0  0  0
  188.3760  173.8790  135.5550 C   0  0  1  0  0  3  0  0  0  0  0  0
  186.5360  174.6500  137.2230 C   0  0  2  0  0  3  0  0  0  0  0  0
  194.0280  175.4490  138.2710 C   0  0  0  0  0  1  0  0  0  0  0  0
  188.2680  179.0330  137.2000 O   0  0  0  0  0  0  0  0  0  0  0  0
  188.9440  175.5740  137.2150 C   0  0  1  0  0  3  0  0  0  0  0  0
  187.3560  178.1940  135.1510 C   0  0  0  0  0  1  0  0  0  0  0  0
  186.8940  177.1160  137.4130 C   0  0  1  0  0  3  0  0  0  0  0  0
  185.6920  173.5600  136.6450 C   0  0  0  0  0  0  0  0  0  0  0  0
  193.8200  175.3420  135.7640 C   0  0  1  0  0  3  0  0  0  0  0  0
  191.4920  175.3290  134.7160 C   0  0  2  0  0  3  0  0  0  0  0  0
  186.1530  176.0090  136.6500 C   0  0  0  0  0  2  0  0  0  0  0  0
  187.1690  173.5980  134.6500 C   0  0  0  0  0  2  0  0  0  0  0  0
  192.7990  174.5550  134.9320 C   0  0  0  0  0  2  0  0  0  0  0  0
  191.7300  175.6680  137.2450 C   0  0  2  0  0  3  0  0  0  0  0  0
  191.4940  174.3180  137.5410 O   0  0  0  0  0  1  0  0  0  0  0  0
  189.5360  175.9850  135.9350 N   0  0  1  0  0  0  0  0  0  0  0  0
  184.6470  173.1100  137.3320 C   0  0  0  0  0  2  0  0  0  0  0  0
  191.0030  176.0830  135.9440 C   0  0  2  0  0  3  0  0  0  0  0  0
  188.2530  176.7470  137.9520 C   0  0  2  0  0  3  0  0  0  0  0  0
  186.0860  172.9730  135.3950 N   0  0  0  0  0  0  0  0  0  0  0  0
  187.1370  178.4030  136.6460 C   0  0  1  0  0  3  0  0  0  0  0  0
  189.0370  178.0430  137.8530 C   0  0  0  0  0  2  0  0  0  0  0  0
  185.5160  171.7290  134.8900 C   0  0  0  0  0  2  0  0  0  0  0  0
  186.5240  170.6020  135.0160 C   0  0  0  0  0  2  0  0  0  0  0  0
  185.8180  169.2740  134.8430 C   0  0  0  0  0  1  0  0  0  0  0  0
  194.5520  176.6740  134.7650 S   0  0  0  0  0  0  0  0  0  0  0  0
  196.8570  175.5420  135.6710 C   0  0  0  0  0  1  0  0  0  0  0  0
  196.0430  175.7040  134.4050 C   0  0  0  0  0  2  0  0  0  0  0  0
  1  4  1  1  0  0  0
  1  5  1  0  0  0  0
  1 20  1  0  0  0  0
  2  9  1  0  0  0  0
  2  6  1  0  0  0  0
  3 18  1  0  0  0  0
  3  7  1  0  0  0  0
  4 14  1  0  0  0  0
  5  2  1  0  0  0  0
  8 26  1  0  0  0  0
  9 23  1  0  0  0  0
 10 25  1  0  0  0  0
 11 23  1  0  0  0  0
 12  6  1  0  0  0  0
 12 21  2  0  0  0  0
 13  3  1  0  0  0  0
 14 17  1  0  0  0  0
 14 22  1  0  0  0  0
 15  6  1  0  0  0  0
 15 11  1  0  0  0  0
 16 24  1  0  0  0  0
 16  5  1  0  0  0  0
 17 13  1  0  0  0  0
 18 19  1  0  0  0  0
 20 22  1  0  0  0  0
 20  9  1  0  0  0  0
 22 18  1  0  0  0  0
 24 12  1  0  0  0  0
 25  8  1  0  0  0  0
 25 11  1  0  0  0  0
 26 23  1  0  0  0  0
 27 28  1  0  0  0  0
 27 24  1  0  0  0  0
 29 28  1  0  0  0  0
 30 13  1  0  0  0  0
 32 30  1  0  0  0  0
 32 31  1  0  0  0  0
M  END
>  <MODEL>
1

>  <REMARK>
 VINA RESULT:      -5.2      0.000      0.000
  Name = 
  4 active torsions:
  status: ('A' for Active; 'I' for Inactive)
    1  A    between atoms: C_14  and  C_21
    2  A    between atoms: C_14  and  N_29
    3  A    between atoms: C_15  and  S_19
    4  A    between atoms: S_19  and  C_26
                            x       y       z     vdW  Elec       q    Type
                         _______ _______ _______ _____ _____    ______ ____

>  <TORSDO>
F 4

$$$$
=
 OpenBabel10272402073D

 32 37  0  0  1  0  0  0  0  0999 V2000
  189.9380  175.0800  137.4850 C   0  0  1  0  0  3  0  0  0  0  0  0
  188.9510  175.7930  135.3750 C   0  0  2  0  0  3  0  0  0  0  0  0
  194.0620  173.9840  135.6230 C   0  0  1  0  0  3  0  0  0  0  0  0
  191.1390  175.5690  138.1570 N   0  0  0  0  0  2  0  0  0  0  0  0
  189.2080  176.2290  136.8230 C   0  0  1  0  0  3  0  0  0  0  0  0
  187.4640  175.5870  135.0040 C   0  0  2  0  0  3  0  0  0  0  0  0
  194.9670  174.4410  134.4930 C   0  0  0  0  0  1  0  0  0  0  0  0
  188.9780  171.1250  135.0430 O   0  0  0  0  0  0  0  0  0  0  0  0
  189.8180  174.5450  135.1660 C   0  0  1  0  0  3  0  0  0  0  0  0
  187.9560  171.9620  137.0400 C   0  0  0  0  0  1  0  0  0  0  0  0
  187.7170  173.1110  134.7790 C   0  0  1  0  0  3  0  0  0  0  0  0
  186.6320  176.7040  135.5460 C   0  0  0  0  0  0  0  0  0  0  0  0
  194.5770  174.5030  136.9790 C   0  0  1  0  0  3  0  0  0  0  0  0
  192.1800  174.6080  137.8520 C   0  0  2  0  0  3  0  0  0  0  0  0
  186.9740  174.2360  135.5130 C   0  0  0  0  0  2  0  0  0  0  0  0
  187.9520  176.5500  137.6430 C   0  0  0  0  0  2  0  0  0  0  0  0
  193.5350  175.3210  137.7540 C   0  0  0  0  0  2  0  0  0  0  0  0
  192.5910  174.3140  135.3400 C   0  0  2  0  0  3  0  0  0  0  0  0
  192.4420  175.6800  135.0620 O   0  0  0  0  0  1  0  0  0  0  0  0
  190.2920  174.0770  136.4760 N   0  0  1  0  0  0  0  0  0  0  0  0
  185.6650  177.2210  134.7950 C   0  0  0  0  0  2  0  0  0  0  0  0
  191.7490  173.9070  136.5730 C   0  0  2  0  0  3  0  0  0  0  0  0
  189.1290  173.4240  134.3510 C   0  0  2  0  0  3  0  0  0  0  0  0
  186.9590  177.2440  136.8370 N   0  0  0  0  0  0  0  0  0  0  0  0
  187.8400  171.7970  135.5280 C   0  0  1  0  0  3  0  0  0  0  0  0
  189.8410  172.0890  134.4740 C   0  0  0  0  0  2  0  0  0  0  0  0
  186.4130  178.5030  137.3300 C   0  0  0  0  0  2  0  0  0  0  0  0
  185.5710  178.2600  138.5680 C   0  0  0  0  0  2  0  0  0  0  0  0
  184.1760  177.8400  138.1540 C   0  0  0  0  0  1  0  0  0  0  0  0
  195.1670  173.1150  137.9950 S   0  0  0  0  0  0  0  0  0  0  0  0
  197.4470  174.4870  138.5750 C   0  0  0  0  0  1  0  0  0  0  0  0
  196.0650  174.2110  139.1290 C   0  0  0  0  0  2  0  0  0  0  0  0
  1  4  1  6  0  0  0
  2  5  1  0  0  0  0
  3 13  1  0  0  0  0
  5  1  1  0  0  0  0
  5 16  1  0  0  0  0
  6  2  1  0  0  0  0
  6 15  1  0  0  0  0
  6 12  1  0  0  0  0
  7  3  1  0  0  0  0
  8 25  1  0  0  0  0
  9  2  1  0  0  0  0
  9 20  1  0  0  0  0
 11 15  1  0  0  0  0
 11 25  1  0  0  0  0
 12 24  1  0  0  0  0
 13 17  1  0  0  0  0
 13 30  1  0  0  0  0
 14  4  1  0  0  0  0
 17 14  1  0  0  0  0
 18  3  1  0  0  0  0
 18 22  1  0  0  0  0
 19 18  1  0  0  0  0
 20 22  1  0  0  0  0
 20  1  1  0  0  0  0
 21 12  2  0  0  0  0
 22 14  1  0  0  0  0
 23 26  1  0  0  0  0
 23 11  1  0  0  0  0
 23  9  1  0  0  0  0
 24 27  1  0  0  0  0
 24 16  1  0  0  0  0
 25 10  1  0  0  0  0
 26  8  1  0  0  0  0
 27 28  1  0  0  0  0
 29 28  1  0  0  0  0
 30 32  1  0  0  0  0
 31 32  1  0  0  0  0
M  END
>  <MODEL>
2

>  <REMARK>
 VINA RESULT:      -4.9      2.307      4.751
  Name = 
  4 active torsions:
  status: ('A' for Active; 'I' for Inactive)
    1  A    between atoms: C_14  and  C_21
    2  A    between atoms: C_14  and  N_29
    3  A    between atoms: C_15  and  S_19
    4  A    between atoms: S_19  and  C_26
                            x       y       z     vdW  Elec       q    Type
                         _______ _______ _______ _____ _____    ______ ____

>  <TORSDO>
F 4

$$$$
=
 OpenBabel10272402073D

 32 37  0  0  1  0  0  0  0  0999 V2000
  186.0120  176.4600  137.5570 C   0  0  1  0  0  3  0  0  0  0  0  0
  184.8170  176.6150  135.4390 C   0  0  2  0  0  3  0  0  0  0  0  0
  190.2070  175.9930  135.5920 C   0  0  1  0  0  3  0  0  0  0  0  0
  187.0990  177.2910  138.0680 N   0  0  0  0  0  2  0  0  0  0  0  0
  185.0240  177.3130  136.7900 C   0  0  1  0  0  3  0  0  0  0  0  0
  183.4000  176.0430  135.2040 C   0  0  2  0  0  3  0  0  0  0  0  0
  190.9480  176.4520  134.3480 C   0  0  0  0  0  1  0  0  0  0  0  0
  185.8600  172.0650  135.7740 O   0  0  0  0  0  0  0  0  0  0  0  0
  185.9300  175.5630  135.3510 C   0  0  1  0  0  3  0  0  0  0  0  0
  184.7510  172.9620  137.6970 C   0  0  0  0  0  1  0  0  0  0  0  0
  184.1840  173.6730  135.3160 C   0  0  1  0  0  3  0  0  0  0  0  0
  182.3620  177.0280  135.6370 C   0  0  0  0  0  0  0  0  0  0  0  0
  190.6430  176.8120  136.8220 C   0  0  1  0  0  3  0  0  0  0  0  0
  188.3150  176.5380  137.8330 C   0  0  2  0  0  3  0  0  0  0  0  0
  183.2390  174.7140  135.9320 C   0  0  0  0  0  2  0  0  0  0  0  0
  183.7580  177.4820  137.6390 C   0  0  0  0  0  2  0  0  0  0  0  0
  189.4750  177.4990  137.5410 C   0  0  0  0  0  2  0  0  0  0  0  0
  188.6900  175.9550  135.3660 C   0  0  2  0  0  3  0  0  0  0  0  0
  188.2340  177.1990  134.9070 O   0  0  0  0  0  1  0  0  0  0  0  0
  186.5420  175.4130  136.6780 N   0  0  1  0  0  0  0  0  0  0  0  0
  181.2790  177.2050  134.8890 C   0  0  0  0  0  2  0  0  0  0  0  0
  188.0030  175.5730  136.6990 C   0  0  2  0  0  3  0  0  0  0  0  0
  185.4760  174.2090  134.7520 C   0  0  2  0  0  3  0  0  0  0  0  0
  182.6080  177.8170  136.8130 N   0  0  0  0  0  0  0  0  0  0  0  0
  184.6200  172.5460  136.2350 C   0  0  1  0  0  3  0  0  0  0  0  0
  186.4680  173.0910  135.0160 C   0  0  0  0  0  2  0  0  0  0  0  0
  181.8160  178.9910  137.1580 C   0  0  0  0  0  2  0  0  0  0  0  0
  182.3200  179.6010  138.4520 C   0  0  0  0  0  2  0  0  0  0  0  0
  181.8580  181.0400  138.5450 C   0  0  0  0  0  1  0  0  0  0  0  0
  191.5600  175.7540  137.9820 S   0  0  0  0  0  0  0  0  0  0  0  0
  193.8420  175.7540  136.4960 C   0  0  0  0  0  1  0  0  0  0  0  0
  193.1460  176.5420  137.5840 C   0  0  0  0  0  2  0  0  0  0  0  0
  1  4  1  6  0  0  0
  2  5  1  0  0  0  0
  3 13  1  0  0  0  0
  5  1  1  0  0  0  0
  5 16  1  0  0  0  0
  6  2  1  0  0  0  0
  6 12  1  0  0  0  0
  6 15  1  0  0  0  0
  7  3  1  0  0  0  0
  8 25  1  0  0  0  0
  9  2  1  0  0  0  0
  9 20  1  0  0  0  0
 11 15  1  0  0  0  0
 11 25  1  0  0  0  0
 12 24  1  0  0  0  0
 13 17  1  0  0  0  0
 13 30  1  0  0  0  0
 14  4  1  0  0  0  0
 17 14  1  0  0  0  0
 18  3  1  0  0  0  0
 18 22  1  0  0  0  0
 19 18  1  0  0  0  0
 20 22  1  0  0  0  0
 20  1  1  0  0  0  0
 21 12  2  0  0  0  0
 22 14  1  0  0  0  0
 23 26  1  0  0  0  0
 23 11  1  0  0  0  0
 23  9  1  0  0  0  0
 24 27  1  0  0  0  0
 24 16  1  0  0  0  0
 25 10  1  0  0  0  0
 26  8  1  0  0  0  0
 27 28  1  0  0  0  0
 28 29  1  0  0  0  0
 31 32  1  0  0  0  0
 32 30  1  0  0  0  0
M  END
>  <MODEL>
3

>  <REMARK>
 VINA RESULT:      -4.6      3.154      5.718
  Name = 
  4 active torsions:
  status: ('A' for Active; 'I' for Inactive)
    1  A    between atoms: C_14  and  C_21
    2  A    between atoms: C_14  and  N_29
    3  A    between atoms: C_15  and  S_19
    4  A    between atoms: S_19  and  C_26
                            x       y       z     vdW  Elec       q    Type
                         _______ _______ _______ _____ _____    ______ ____

>  <TORSDO>
F 4

$$$$
=
 OpenBabel10272402073D

 32 37  0  0  1  0  0  0  0  0999 V2000
  187.9680  174.3280  136.8880 C   0  0  1  0  0  3  0  0  0  0  0  0
  189.1250  175.6740  135.2190 C   0  0  2  0  0  3  0  0  0  0  0  0
  183.7110  175.7150  135.6100 C   0  0  1  0  0  3  0  0  0  0  0  0
  186.9450  173.3010  136.7010 N   0  0  0  0  0  2  0  0  0  0  0  0
  188.9900  174.2500  135.7740 C   0  0  1  0  0  3  0  0  0  0  0  0
  190.4980  176.3440  135.4520 C   0  0  2  0  0  3  0  0  0  0  0  0
  182.9740  176.1410  134.3520 C   0  0  0  0  0  1  0  0  0  0  0  0
  187.8100  178.8130  138.4320 O   0  0  0  0  0  0  0  0  0  0  0  0
  187.9480  176.4560  135.8160 C   0  0  1  0  0  3  0  0  0  0  0  0
  189.0130  176.9420  139.3200 C   0  0  0  0  0  1  0  0  0  0  0  0
  189.5720  178.0050  137.0730 C   0  0  1  0  0  3  0  0  0  0  0  0
  191.6040  175.3820  135.1580 C   0  0  0  0  0  0  0  0  0  0  0  0
  183.3530  174.2660  135.9890 C   0  0  1  0  0  3  0  0  0  0  0  0
  185.6800  173.9490  136.9880 C   0  0  2  0  0  3  0  0  0  0  0  0
  190.5930  176.8760  136.8770 C   0  0  0  0  0  2  0  0  0  0  0  0
  190.2810  173.6420  136.3350 C   0  0  0  0  0  2  0  0  0  0  0  0
  184.5760  173.3470  136.1090 C   0  0  0  0  0  2  0  0  0  0  0  0
  185.2180  175.9840  135.5010 C   0  0  2  0  0  3  0  0  0  0  0  0
  185.7400  175.3770  134.3510 O   0  0  0  0  0  1  0  0  0  0  0  0
  187.3550  175.6600  136.9000 N   0  0  1  0  0  0  0  0  0  0  0  0
  192.6800  175.8050  134.5040 C   0  0  0  0  0  2  0  0  0  0  0  0
  185.9070  175.4380  136.7740 C   0  0  2  0  0  3  0  0  0  0  0  0
  188.3040  177.8940  136.2640 C   0  0  2  0  0  3  0  0  0  0  0  0
  191.4320  174.0020  135.5200 N   0  0  0  0  0  0  0  0  0  0  0  0
  189.0870  178.2230  138.4950 C   0  0  1  0  0  3  0  0  0  0  0  0
  187.2500  178.5020  137.1720 C   0  0  0  0  0  2  0  0  0  0  0  0
  192.3020  172.9400  135.0290 C   0  0  0  0  0  2  0  0  0  0  0  0
  193.0120  172.2660  136.1880 C   0  0  0  0  0  2  0  0  0  0  0  0
  194.2030  173.1030  136.6040 C   0  0  0  0  0  1  0  0  0  0  0  0
  182.3960  174.2440  137.5360 S   0  0  0  0  0  0  0  0  0  0  0  0
  182.7140  176.2970  139.2970 C   0  0  0  0  0  1  0  0  0  0  0  0
  182.6340  176.0220  137.8110 C   0  0  0  0  0  2  0  0  0  0  0  0
  1  4  1  6  0  0  0
  1 20  1  0  0  0  0
  2  6  1  0  0  0  0
  2  5  1  0  0  0  0
  2  9  1  0  0  0  0
  3 13  1  0  0  0  0
  4 14  1  0  0  0  0
  5 16  1  0  0  0  0
  5  1  1  0  0  0  0
  6 15  1  0  0  0  0
  7  3  1  0  0  0  0
  8 25  1  0  0  0  0
  9 23  1  0  0  0  0
  9 20  1  0  0  0  0
 11 25  1  0  0  0  0
 12  6  1  0  0  0  0
 12 24  1  0  0  0  0
 13 17  1  0  0  0  0
 13 30  1  0  0  0  0
 15 11  1  0  0  0  0
 17 14  1  0  0  0  0
 18  3  1  0  0  0  0
 18 22  1  0  0  0  0
 19 18  1  0  0  0  0
 21 12  2  0  0  0  0
 22 20  1  0  0  0  0
 22 14  1  0  0  0  0
 23 11  1  0  0  0  0
 23 26  1  0  0  0  0
 24 16  1  0  0  0  0
 25 10  1  0  0  0  0
 26  8  1  0  0  0  0
 27 24  1  0  0  0  0
 27 28  1  0  0  0  0
 28 29  1  0  0  0  0
 30 32  1  0  0  0  0
 32 31  1  0  0  0  0
M  END
>  <MODEL>
4

>  <REMARK>
 VINA RESULT:      -4.6      3.134      7.095
  Name = 
  4 active torsions:
  status: ('A' for Active; 'I' for Inactive)
    1  A    between atoms: C_14  and  C_21
    2  A    between atoms: C_14  and  N_29
    3  A    between atoms: C_15  and  S_19
    4  A    between atoms: S_19  and  C_26
                            x       y       z     vdW  Elec       q    Type
                         _______ _______ _______ _____ _____    ______ ____

>  <TORSDO>
F 4

$$$$
=
 OpenBabel10272402073D

 32 37  0  0  1  0  0  0  0  0999 V2000
  188.8600  174.3020  137.2580 C   0  0  1  0  0  3  0  0  0  0  0  0
  190.1870  175.8980  135.9830 C   0  0  2  0  0  3  0  0  0  0  0  0
  184.7730  175.8100  135.6180 C   0  0  1  0  0  3  0  0  0  0  0  0
  187.9070  173.3020  136.7820 N   0  0  0  0  0  2  0  0  0  0  0  0
  190.0260  174.4060  136.2980 C   0  0  1  0  0  3  0  0  0  0  0  0
  191.4930  176.5440  136.5000 C   0  0  2  0  0  3  0  0  0  0  0  0
  184.1980  176.4100  134.3460 C   0  0  0  0  0  1  0  0  0  0  0  0
  188.3430  178.5010  139.4070 O   0  0  0  0  0  0  0  0  0  0  0  0
  188.9140  176.5660  136.5180 C   0  0  1  0  0  3  0  0  0  0  0  0
  189.4770  176.5350  140.1700 C   0  0  0  0  0  1  0  0  0  0  0  0
  190.3000  177.9310  138.2030 C   0  0  1  0  0  3  0  0  0  0  0  0
  192.6600  175.6510  136.2250 C   0  0  0  0  0  0  0  0  0  0  0  0
  184.4150  174.3150  135.7260 C   0  0  1  0  0  3  0  0  0  0  0  0
  186.5950  173.8820  136.9820 C   0  0  2  0  0  3  0  0  0  0  0  0
  191.3750  176.8570  137.9870 C   0  0  0  0  0  2  0  0  0  0  0  0
  191.2490  173.7370  136.9380 C   0  0  0  0  0  2  0  0  0  0  0  0
  185.6410  173.4050  135.8790 C   0  0  0  0  0  2  0  0  0  0  0  0
  186.2700  176.1120  135.7600 C   0  0  2  0  0  3  0  0  0  0  0  0
  186.9630  175.6910  134.6170 O   0  0  0  0  0  1  0  0  0  0  0  0
  188.2080  175.6090  137.3800 N   0  0  1  0  0  0  0  0  0  0  0  0
  193.8000  176.1830  135.7970 C   0  0  0  0  0  2  0  0  0  0  0  0
  186.7980  175.3890  137.0230 C   0  0  2  0  0  3  0  0  0  0  0  0
  189.1580  177.9250  137.2180 C   0  0  2  0  0  3  0  0  0  0  0  0
  192.4870  174.2310  136.3530 N   0  0  0  0  0  0  0  0  0  0  0  0
  189.6190  177.9260  139.5600 C   0  0  1  0  0  3  0  0  0  0  0  0
  187.9700  178.3760  138.0500 C   0  0  0  0  0  2  0  0  0  0  0  0
  193.4510  173.2670  135.8370 C   0  0  0  0  0  2  0  0  0  0  0  0
  194.0100  172.4270  136.9710 C   0  0  0  0  0  2  0  0  0  0  0  0
  195.0170  173.2440  137.7530 C   0  0  0  0  0  1  0  0  0  0  0  0
  183.2590  174.0490  137.1040 S   0  0  0  0  0  0  0  0  0  0  0  0
  182.6210  171.4040  136.9810 C   0  0  0  0  0  1  0  0  0  0  0  0
  182.3990  172.7050  136.2400 C   0  0  0  0  0  2  0  0  0  0  0  0
  1  4  1  6  0  0  0
  1 20  1  0  0  0  0
  2  5  1  0  0  0  0
  2  6  1  0  0  0  0
  2  9  1  0  0  0  0
  3 13  1  0  0  0  0
  3 18  1  0  0  0  0
  4 14  1  0  0  0  0
  5 16  1  0  0  0  0
  5  1  1  0  0  0  0
  6 15  1  0  0  0  0
  7  3  1  0  0  0  0
  8 25  1  0  0  0  0
  9 23  1  0  0  0  0
  9 20  1  0  0  0  0
 11 25  1  0  0  0  0
 12 24  1  0  0  0  0
 12  6  1  0  0  0  0
 13 17  1  0  0  0  0
 13 30  1  0  0  0  0
 14 22  1  0  0  0  0
 15 11  1  0  0  0  0
 17 14  1  0  0  0  0
 18 22  1  0  0  0  0
 19 18  1  0  0  0  0
 21 12  2  0  0  0  0
 22 20  1  0  0  0  0
 23 26  1  0  0  0  0
 23 11  1  0  0  0  0
 24 16  1  0  0  0  0
 25 10  1  0  0  0  0
 26  8  1  0  0  0  0
 27 24  1  0  0  0  0
 27 28  1  0  0  0  0
 28 29  1  0  0  0  0
 32 31  1  0  0  0  0
 32 30  1  0  0  0  0
M  END
>  <MODEL>
5

>  <REMARK>
 VINA RESULT:      -4.5      3.014      7.115
  Name = 
  4 active torsions:
  status: ('A' for Active; 'I' for Inactive)
    1  A    between atoms: C_14  and  C_21
    2  A    between atoms: C_14  and  N_29
    3  A    between atoms: C_15  and  S_19
    4  A    between atoms: S_19  and  C_26
                            x       y       z     vdW  Elec       q    Type
                         _______ _______ _______ _____ _____    ______ ____

>  <TORSDO>
F 4

$$$$
=
 OpenBabel10272402073D

 32 37  0  0  1  0  0  0  0  0999 V2000
  185.4930  176.7480  137.5730 C   0  0  1  0  0  3  0  0  0  0  0  0
  184.3360  176.9940  135.4440 C   0  0  2  0  0  3  0  0  0  0  0  0
  189.7190  176.3390  135.6630 C   0  0  1  0  0  3  0  0  0  0  0  0
  186.5760  177.5520  138.1370 N   0  0  0  0  0  2  0  0  0  0  0  0
  184.5230  177.6360  136.8250 C   0  0  1  0  0  3  0  0  0  0  0  0
  182.9200  176.4400  135.1620 C   0  0  2  0  0  3  0  0  0  0  0  0
  190.4830  176.8450  134.4520 C   0  0  0  0  0  1  0  0  0  0  0  0
  185.3530  172.4290  135.6110 O   0  0  0  0  0  0  0  0  0  0  0  0
  185.4450  175.9410  135.3320 C   0  0  1  0  0  3  0  0  0  0  0  0
  184.2150  173.2530  137.5500 C   0  0  0  0  0  1  0  0  0  0  0  0
  183.6920  174.0630  135.1910 C   0  0  1  0  0  3  0  0  0  0  0  0
  181.8800  177.4110  135.6170 C   0  0  0  0  0  0  0  0  0  0  0  0
  190.1380  177.1050  136.9320 C   0  0  1  0  0  3  0  0  0  0  0  0
  187.7920  176.8020  137.8920 C   0  0  2  0  0  3  0  0  0  0  0  0
  182.7410  175.0830  135.8320 C   0  0  0  0  0  2  0  0  0  0  0  0
  183.2430  177.7770  137.6600 C   0  0  0  0  0  2  0  0  0  0  0  0
  188.9610  177.7680  137.6590 C   0  0  0  0  0  2  0  0  0  0  0  0
  188.2060  176.3180  135.4090 C   0  0  2  0  0  3  0  0  0  0  0  0
  187.7640  177.5820  134.9950 O   0  0  0  0  0  1  0  0  0  0  0  0
  186.0340  175.7340  136.6620 N   0  0  1  0  0  0  0  0  0  0  0  0
  180.8100  177.6240  134.8580 C   0  0  0  0  0  2  0  0  0  0  0  0
  187.4950  175.8860  136.7140 C   0  0  2  0  0  3  0  0  0  0  0  0
  184.9960  174.6150  134.6710 C   0  0  2  0  0  3  0  0  0  0  0  0
  182.1090  178.1500  136.8280 N   0  0  0  0  0  0  0  0  0  0  0  0
  184.1070  172.8970  136.0700 C   0  0  1  0  0  3  0  0  0  0  0  0
  185.9780  173.4820  134.9060 C   0  0  0  0  0  2  0  0  0  0  0  0
  181.3170  179.3140  137.2070 C   0  0  0  0  0  2  0  0  0  0  0  0
  181.8170  179.8830  138.5210 C   0  0  0  0  0  2  0  0  0  0  0  0
  181.7870  181.3950  138.4590 C   0  0  0  0  0  1  0  0  0  0  0  0
  191.0310  175.9960  138.0640 S   0  0  0  0  0  0  0  0  0  0  0  0
  190.5240  176.7840  140.6210 C   0  0  0  0  0  1  0  0  0  0  0  0
  191.1730  177.2740  139.3440 C   0  0  0  0  0  2  0  0  0  0  0  0
  1  4  1  6  0  0  0
  2  5  1  0  0  0  0
  3 13  1  0  0  0  0
  5  1  1  0  0  0  0
  5 16  1  0  0  0  0
  6  2  1  0  0  0  0
  6 12  1  0  0  0  0
  6 15  1  0  0  0  0
  7  3  1  0  0  0  0
  8 25  1  0  0  0  0
  9  2  1  0  0  0  0
  9 20  1  0  0  0  0
 11 15  1  0  0  0  0
 11 25  1  0  0  0  0
 12 24  1  0  0  0  0
 13 17  1  0  0  0  0
 13 30  1  0  0  0  0
 14  4  1  0  0  0  0
 17 14  1  0  0  0  0
 18  3  1  0  0  0  0
 18 22  1  0  0  0  0
 19 18  1  0  0  0  0
 20 22  1  0  0  0  0
 20  1  1  0  0  0  0
 21 12  2  0  0  0  0
 22 14  1  0  0  0  0
 23 26  1  0  0  0  0
 23 11  1  0  0  0  0
 23  9  1  0  0  0  0
 24 27  1  0  0  0  0
 24 16  1  0  0  0  0
 25 10  1  0  0  0  0
 26  8  1  0  0  0  0
 27 28  1  0  0  0  0
 29 28  1  0  0  0  0
 30 32  1  0  0  0  0
 32 31  1  0  0  0  0
M  END
>  <MODEL>
6

>  <REMARK>
 VINA RESULT:      -4.5      3.573      6.273
  Name = 
  4 active torsions:
  status: ('A' for Active; 'I' for Inactive)
    1  A    between atoms: C_14  and  C_21
    2  A    between atoms: C_14  and  N_29
    3  A    between atoms: C_15  and  S_19
    4  A    between atoms: S_19  and  C_26
                            x       y       z     vdW  Elec       q    Type
                         _______ _______ _______ _____ _____    ______ ____

>  <TORSDO>
F 4

$$$$
=
 OpenBabel10272402073D

 32 37  0  0  1  0  0  0  0  0999 V2000
  191.3850  175.1590  138.1190 C   0  0  1  0  0  3  0  0  0  0  0  0
  190.3040  176.6640  136.5380 C   0  0  2  0  0  3  0  0  0  0  0  0
  195.0630  174.3200  135.3910 C   0  0  1  0  0  3  0  0  0  0  0  0
  192.7140  175.2480  138.7210 N   0  0  0  0  0  2  0  0  0  0  0  0
  190.7800  176.5410  137.9910 C   0  0  1  0  0  3  0  0  0  0  0  0
  188.7730  176.7680  136.3530 C   0  0  2  0  0  3  0  0  0  0  0  0
  195.9030  175.0350  134.3470 C   0  0  0  0  0  1  0  0  0  0  0  0
  189.5600  172.4270  134.6950 O   0  0  0  0  0  0  0  0  0  0  0  0
  190.9360  175.4770  135.8010 C   0  0  1  0  0  3  0  0  0  0  0  0
  188.9010  172.6310  136.9880 C   0  0  0  0  0  1  0  0  0  0  0  0
  188.6060  174.5110  135.2930 C   0  0  1  0  0  3  0  0  0  0  0  0
  188.1900  177.7140  137.3520 C   0  0  0  0  0  0  0  0  0  0  0  0
  195.7950  174.2770  136.7460 C   0  0  1  0  0  3  0  0  0  0  0  0
  193.5510  174.3410  137.9620 C   0  0  2  0  0  3  0  0  0  0  0  0
  188.1330  175.3880  136.4600 C   0  0  0  0  0  2  0  0  0  0  0  0
  189.6850  176.6970  139.0540 C   0  0  0  0  0  2  0  0  0  0  0  0
  194.9830  174.8880  137.8960 C   0  0  0  0  0  2  0  0  0  0  0  0
  193.6410  174.8910  135.4610 C   0  0  2  0  0  3  0  0  0  0  0  0
  193.6800  176.2750  135.6720 O   0  0  0  0  0  1  0  0  0  0  0  0
  191.4670  174.5350  136.7960 N   0  0  1  0  0  0  0  0  0  0  0  0
  187.2410  178.5630  136.9700 C   0  0  0  0  0  2  0  0  0  0  0  0
  192.8820  174.1790  136.6060 C   0  0  2  0  0  3  0  0  0  0  0  0
  189.9970  174.7920  134.7790 C   0  0  2  0  0  3  0  0  0  0  0  0
  188.7330  177.7340  138.6820 N   0  0  0  0  0  0  0  0  0  0  0  0
  188.6000  173.0130  135.5420 C   0  0  1  0  0  3  0  0  0  0  0  0
  190.4980  173.4250  134.3480 C   0  0  0  0  0  2  0  0  0  0  0  0
  188.4480  178.7970  139.6380 C   0  0  0  0  0  2  0  0  0  0  0  0
  188.8450  178.3640  141.0370 C   0  0  0  0  0  2  0  0  0  0  0  0
  187.5980  178.1170  141.8600 C   0  0  0  0  0  1  0  0  0  0  0  0
  196.2640  172.5660  137.1480 S   0  0  0  0  0  0  0  0  0  0  0  0
  198.3510  174.3130  137.2280 C   0  0  0  0  0  1  0  0  0  0  0  0
  198.0250  172.8850  136.8480 C   0  0  0  0  0  2  0  0  0  0  0  0
  1  4  1  6  0  0  0
  2  5  1  0  0  0  0
  3 18  1  0  0  0  0
  3 13  1  0  0  0  0
  5  1  1  0  0  0  0
  5 16  1  0  0  0  0
  6 15  1  0  0  0  0
  6  2  1  0  0  0  0
  6 12  1  0  0  0  0
  7  3  1  0  0  0  0
  8 25  1  0  0  0  0
  9  2  1  0  0  0  0
  9 20  1  0  0  0  0
 11 25  1  0  0  0  0
 11 15  1  0  0  0  0
 12 24  1  0  0  0  0
 13 30  1  0  0  0  0
 13 17  1  0  0  0  0
 14  4  1  0  0  0  0
 17 14  1  0  0  0  0
 18 19  1  0  0  0  0
 18 22  1  0  0  0  0
 20  1  1  0  0  0  0
 21 12  2  0  0  0  0
 22 20  1  0  0  0  0
 22 14  1  0  0  0  0
 23 11  1  0  0  0  0
 23  9  1  0  0  0  0
 24 16  1  0  0  0  0
 24 27  1  0  0  0  0
 25 10  1  0  0  0  0
 26  8  1  0  0  0  0
 26 23  1  0  0  0  0
 27 28  1  0  0  0  0
 28 29  1  0  0  0  0
 32 30  1  0  0  0  0
 32 31  1  0  0  0  0
M  END
>  <MODEL>
7

>  <REMARK>
 VINA RESULT:      -4.0      2.687      5.226
  Name = 
  4 active torsions:
  status: ('A' for Active; 'I' for Inactive)
    1  A    between atoms: C_14  and  C_21
    2  A    between atoms: C_14  and  N_29
    3  A    between atoms: C_15  and  S_19
    4  A    between atoms: S_19  and  C_26
                            x       y       z     vdW  Elec       q    Type
                         _______ _______ _______ _____ _____    ______ ____

>  <TORSDO>
F 4

$$$$
=
 OpenBabel10272402073D

 32 37  0  0  1  0  0  0  0  0999 V2000
  188.8630  175.4470  137.5920 C   0  0  1  0  0  3  0  0  0  0  0  0
  187.7320  176.2030  135.5710 C   0  0  2  0  0  3  0  0  0  0  0  0
  193.0170  174.9680  135.5460 C   0  0  1  0  0  3  0  0  0  0  0  0
  190.0250  176.0170  138.2700 N   0  0  0  0  0  2  0  0  0  0  0  0
  187.9890  176.5540  137.0420 C   0  0  1  0  0  3  0  0  0  0  0  0
  186.2650  175.8590  135.2220 C   0  0  2  0  0  3  0  0  0  0  0  0
  193.8270  175.6090  134.4320 C   0  0  0  0  0  1  0  0  0  0  0  0
  188.2640  171.6060  134.8700 O   0  0  0  0  0  0  0  0  0  0  0  0
  188.7240  175.0800  135.2420 C   0  0  1  0  0  3  0  0  0  0  0  0
  187.2240  172.1690  136.9520 C   0  0  0  0  0  1  0  0  0  0  0  0
  186.7830  173.4510  134.7950 C   0  0  1  0  0  3  0  0  0  0  0  0
  185.3340  176.8310  135.8720 C   0  0  0  0  0  0  0  0  0  0  0  0
  193.5170  175.4380  136.9240 C   0  0  1  0  0  3  0  0  0  0  0  0
  191.1550  175.2050  137.8640 C   0  0  2  0  0  3  0  0  0  0  0  0
  185.9460  174.4270  135.6350 C   0  0  0  0  0  2  0  0  0  0  0  0
  186.7340  176.6680  137.9160 C   0  0  0  0  0  2  0  0  0  0  0  0
  192.4190  176.0720  137.7880 C   0  0  0  0  0  2  0  0  0  0  0  0
  191.5100  175.1510  135.3260 C   0  0  2  0  0  3  0  0  0  0  0  0
  191.2020  176.5080  135.1610 O   0  0  0  0  0  1  0  0  0  0  0  0
  189.2910  174.5710  136.4980 N   0  0  1  0  0  0  0  0  0  0  0  0
  184.2900  177.2900  135.1890 C   0  0  0  0  0  2  0  0  0  0  0  0
  190.7610  174.5590  136.5440 C   0  0  2  0  0  3  0  0  0  0  0  0
  188.1360  173.9540  134.3580 C   0  0  2  0  0  3  0  0  0  0  0  0
  185.6430  177.3050  137.1930 N   0  0  0  0  0  0  0  0  0  0  0  0
  187.0760  172.1060  135.4350 C   0  0  1  0  0  3  0  0  0  0  0  0
  188.9950  172.7010  134.3570 C   0  0  0  0  0  2  0  0  0  0  0  0
  184.9780  178.4530  137.7970 C   0  0  0  0  0  2  0  0  0  0  0  0
  184.1850  178.0180  139.0150 C   0  0  0  0  0  2  0  0  0  0  0  0
  182.9990  177.1870  138.5730 C   0  0  0  0  0  1  0  0  0  0  0  0
  194.2920  174.0520  137.8130 S   0  0  0  0  0  0  0  0  0  0  0  0
  196.6150  173.7080  136.4330 C   0  0  0  0  0  1  0  0  0  0  0  0
  195.9690  174.6360  137.4400 C   0  0  0  0  0  2  0  0  0  0  0  0
  1  4  1  6  0  0  0
  2  5  1  0  0  0  0
  3 13  1  0  0  0  0
  5  1  1  0  0  0  0
  5 16  1  0  0  0  0
  6  2  1  0  0  0  0
  6 15  1  0  0  0  0
  6 12  1  0  0  0  0
  7  3  1  0  0  0  0
  8 25  1  0  0  0  0
  9  2  1  0  0  0  0
  9 20  1  0  0  0  0
 11 25  1  0  0  0  0
 11 15  1  0  0  0  0
 12 24  1  0  0  0  0
 13 17  1  0  0  0  0
 13 30  1  0  0  0  0
 14  4  1  0  0  0  0
 17 14  1  0  0  0  0
 18  3  1  0  0  0  0
 18 22  1  0  0  0  0
 19 18  1  0  0  0  0
 20 22  1  0  0  0  0
 20  1  1  0  0  0  0
 21 12  2  0  0  0  0
 22 14  1  0  0  0  0
 23 11  1  0  0  0  0
 23  9  1  0  0  0  0
 24 27  1  0  0  0  0
 24 16  1  0  0  0  0
 25 10  1  0  0  0  0
 26 23  1  0  0  0  0
 26  8  1  0  0  0  0
 27 28  1  0  0  0  0
 29 28  1  0  0  0  0
 31 32  1  0  0  0  0
 32 30  1  0  0  0  0
M  END
>  <MODEL>
8

>  <REMARK>
 VINA RESULT:      -3.8      2.211      4.535
  Name = 
  4 active torsions:
  status: ('A' for Active; 'I' for Inactive)
    1  A    between atoms: C_14  and  C_21
    2  A    between atoms: C_14  and  N_29
    3  A    between atoms: C_15  and  S_19
    4  A    between atoms: S_19  and  C_26
                            x       y       z     vdW  Elec       q    Type
                         _______ _______ _______ _____ _____    ______ ____

>  <TORSDO>
F 4

$$$$
=
 OpenBabel10272402073D

 32 37  0  0  1  0  0  0  0  0999 V2000
  184.3540  175.8860  136.2400 C   0  0  1  0  0  3  0  0  0  0  0  0
  185.1590  174.1450  137.7420 C   0  0  2  0  0  3  0  0  0  0  0  0
  180.9740  177.3230  139.1020 C   0  0  1  0  0  3  0  0  0  0  0  0
  184.2250  177.3230  136.4740 N   0  0  0  0  0  2  0  0  0  0  0  0
  185.6010  175.3600  136.9170 C   0  0  1  0  0  3  0  0  0  0  0  0
  185.7200  172.7860  137.2650 C   0  0  2  0  0  3  0  0  0  0  0  0
  180.7070  177.4400  140.5920 C   0  0  0  0  0  1  0  0  0  0  0  0
  181.1990  172.3480  136.0100 O   0  0  0  0  0  0  0  0  0  0  0  0
  183.6260  174.2060  137.7650 C   0  0  1  0  0  3  0  0  0  0  0  0
  182.7370  173.1220  134.3460 C   0  0  0  0  0  1  0  0  0  0  0  0
  183.4860  171.9730  136.4940 C   0  0  1  0  0  3  0  0  0  0  0  0
  187.1750  172.9070  136.9420 C   0  0  0  0  0  0  0  0  0  0  0  0
  181.3360  178.6950  138.5020 C   0  0  1  0  0  3  0  0  0  0  0  0
  182.8250  177.5490  136.7740 C   0  0  2  0  0  3  0  0  0  0  0  0
  184.9280  172.2780  136.0660 C   0  0  0  0  0  2  0  0  0  0  0  0
  186.6580  175.0720  135.8430 C   0  0  0  0  0  2  0  0  0  0  0  0
  182.6870  178.7040  137.7740 C   0  0  0  0  0  2  0  0  0  0  0  0
  181.9880  176.2130  138.7940 C   0  0  2  0  0  3  0  0  0  0  0  0
  183.1650  176.4100  139.5290 O   0  0  0  0  0  1  0  0  0  0  0  0
  183.1790  175.1790  136.7590 N   0  0  1  0  0  0  0  0  0  0  0  0
  188.0070  171.9380  137.3080 C   0  0  0  0  0  2  0  0  0  0  0  0
  182.2780  176.2210  137.2740 C   0  0  2  0  0  3  0  0  0  0  0  0
  182.9350  172.8300  137.6060 C   0  0  2  0  0  3  0  0  0  0  0  0
  187.6440  174.1120  136.3160 N   0  0  0  0  0  0  0  0  0  0  0  0
  182.4360  172.0620  135.4010 C   0  0  1  0  0  3  0  0  0  0  0  0
  181.4610  172.9520  137.2610 C   0  0  0  0  0  2  0  0  0  0  0  0
  189.0570  174.4570  136.2230 C   0  0  0  0  0  2  0  0  0  0  0  0
  189.2440  175.9530  136.3930 C   0  0  0  0  0  2  0  0  0  0  0  0
  190.2630  176.2130  137.4820 C   0  0  0  0  0  1  0  0  0  0  0  0
  180.0160  179.2540  137.3830 S   0  0  0  0  0  0  0  0  0  0  0  0
  180.6810  181.4530  135.9210 C   0  0  0  0  0  1  0  0  0  0  0  0
  180.6440  180.9560  137.3500 C   0  0  0  0  0  2  0  0  0  0  0  0
  1  4  1  1  0  0  0
  1 20  1  0  0  0  0
  1  5  1  0  0  0  0
  2  9  1  0  0  0  0
  3  7  1  0  0  0  0
  4 14  1  0  0  0  0
  5  2  1  0  0  0  0
  6  2  1  0  0  0  0
  8 26  1  0  0  0  0
 10 25  1  0  0  0  0
 11 23  1  0  0  0  0
 12  6  1  0  0  0  0
 12 21  2  0  0  0  0
 13  3  1  0  0  0  0
 14 22  1  0  0  0  0
 14 17  1  0  0  0  0
 15 11  1  0  0  0  0
 15  6  1  0  0  0  0
 16 24  1  0  0  0  0
 16  5  1  0  0  0  0
 17 13  1  0  0  0  0
 18  3  1  0  0  0  0
 18 19  1  0  0  0  0
 20 22  1  0  0  0  0
 20  9  1  0  0  0  0
 22 18  1  0  0  0  0
 23  9  1  0  0  0  0
 24 12  1  0  0  0  0
 25  8  1  0  0  0  0
 25 11  1  0  0  0  0
 26 23  1  0  0  0  0
 27 24  1  0  0  0  0
 27 28  1  0  0  0  0
 28 29  1  0  0  0  0
 30 13  1  0  0  0  0
 31 32  1  0  0  0  0
 32 30  1  0  0  0  0
M  END
>  <MODEL>
9

>  <REMARK>
 VINA RESULT:      -3.7      4.830      8.839
  Name = 
  4 active torsions:
  status: ('A' for Active; 'I' for Inactive)
    1  A    between atoms: C_14  and  C_21
    2  A    between atoms: C_14  and  N_29
    3  A    between atoms: C_15  and  S_19
    4  A    between atoms: S_19  and  C_26
                            x       y       z     vdW  Elec       q    Type
                         _______ _______ _______ _____ _____    ______ ____

>  <TORSDO>
F 4

$$$$
