=
 OpenBabel10272414003D

 30 34  0  0  1  0  0  0  0  0999 V2000
  191.4420  175.9520  138.1850 C   0  0  2  0  0  3  0  0  0  0  0  0
  193.9200  176.5390  135.6700 C   0  0  0  0  0  3  0  0  0  0  0  0
  190.9990  173.3920  136.9700 C   0  0  0  0  0  2  0  0  0  0  0  0
  190.4710  176.8910  137.4700 C   0  0  2  0  0  3  0  0  0  0  0  0
  191.9970  176.6750  139.4180 C   0  0  0  0  0  2  0  0  0  0  0  0
  186.9570  179.1030  136.1230 C   0  0  0  0  0  2  0  0  0  0  0  0
  189.7280  177.8610  139.6450 C   0  0  1  0  0  3  0  0  0  0  0  0
  188.6870  175.6780  136.0160 C   0  0  1  0  0  3  0  0  0  0  0  0
  188.8540  174.2380  136.5130 C   0  0  0  0  0  2  0  0  0  0  0  0
  190.8560  177.0940  140.3640 C   0  0  0  0  0  2  0  0  0  0  0  0
  189.2920  177.0430  138.4280 C   0  0  1  0  0  3  0  0  0  0  0  0
  194.0130  175.6770  134.6600 C   0  0  0  0  0  3  0  0  0  0  0  0
  187.6040  176.3350  136.7890 N   0  0  2  0  0  0  0  0  0  0  0  0
  186.7330  177.9700  135.1380 C   0  0  0  0  0  2  0  0  0  0  0  0
  193.7780  176.0920  137.0850 C   0  0  0  0  0  2  0  0  0  0  0  0
  192.2630  174.1590  136.6800 C   0  0  0  0  0  0  0  0  0  0  0  0
  193.9180  174.2110  134.8010 C   0  0  0  0  0  3  0  0  0  0  0  0
  192.4960  175.3460  137.2910 C   0  0  0  0  0  0  0  0  0  0  0  0
  190.6690  176.6120  135.1280 O   0  0  0  0  0  0  0  0  0  0  0  0
  190.0180  173.5960  135.9090 N   0  0  0  0  0  2  0  0  0  0  0  0
  189.9990  176.4070  136.1270 C   0  0  0  0  0  0  0  0  0  0  0  0
  186.4790  176.6810  135.9130 C   0  0  0  0  0  2  0  0  0  0  0  0
  188.1760  178.7880  136.9710 C   0  0  0  0  0  2  0  0  0  0  0  0
  193.2090  173.5360  135.7170 C   0  0  0  0  0  0  0  0  0  0  0  0
  193.2320  172.1830  135.6380 F   0  0  0  0  0  0  0  0  0  0  0  0
  188.0020  177.4450  137.7000 C   0  0  2  0  0  3  0  0  0  0  0  0
  188.5640  178.0630  140.6070 C   0  0  0  0  0  2  0  0  0  0  0  0
  189.0450  178.1070  142.0480 C   0  0  0  0  0  2  0  0  0  0  0  0
  187.9590  177.6080  142.9810 C   0  0  0  0  0  2  0  0  0  0  0  0
  188.2330  176.1630  143.3460 C   0  0  0  0  0  1  0  0  0  0  0  0
  1  5  1  1  0  0  0
  2 15  1  0  0  0  0
  4 21  1  6  0  0  0
  4  1  1  0  0  0  0
  4 11  1  0  0  0  0
  5 10  1  0  0  0  0
  6 23  1  0  0  0  0
  7 10  1  0  0  0  0
  7 27  1  1  0  0  0
  8 21  1  0  0  0  0
  8  9  1  1  0  0  0
  8 13  1  0  0  0  0
 11  7  1  0  0  0  0
 12 17  1  0  0  0  0
 12  2  2  0  0  0  0
 13 26  1  0  0  0  0
 14 22  1  0  0  0  0
 14  6  1  0  0  0  0
 15 18  1  0  0  0  0
 16  3  1  0  0  0  0
 16 18  2  0  0  0  0
 17 24  2  0  0  0  0
 18  1  1  0  0  0  0
 19 21  2  0  0  0  0
 20  9  1  0  0  0  0
 20  3  1  0  0  0  0
 22 13  1  0  0  0  0
 23 26  1  0  0  0  0
 24 16  1  0  0  0  0
 25 24  1  0  0  0  0
 26 11  1  0  0  0  0
 27 28  1  0  0  0  0
 28 29  1  0  0  0  0
 29 30  1  0  0  0  0
M  END
>  <MODEL>
1

>  <REMARK>
 VINA RESULT:      -6.1      0.000      0.000
  Name = 
  3 active torsions:
  status: ('A' for Active; 'I' for Inactive)
    1  A    between atoms: C_6  and  C_8
    2  A    between atoms: C_6  and  C_21
    3  A    between atoms: C_9  and  C_21
                            x       y       z     vdW  Elec       q    Type
                         _______ _______ _______ _____ _____    ______ ____

>  <TORSDO>
F 3

$$$$
=
 OpenBabel10272414003D

 30 34  0  0  1  0  0  0  0  0999 V2000
  181.6490  178.4350  141.4240 C   0  0  2  0  0  3  0  0  0  0  0  0
  180.7520  175.5430  139.5160 C   0  0  0  0  0  3  0  0  0  0  0  0
  181.7550  179.8780  138.9480 C   0  0  0  0  0  2  0  0  0  0  0  0
  183.0650  177.8900  141.6140 C   0  0  2  0  0  3  0  0  0  0  0  0
  180.8800  178.2570  142.7390 C   0  0  0  0  0  2  0  0  0  0  0  0
  187.3090  177.3810  142.4960 C   0  0  0  0  0  2  0  0  0  0  0  0
  183.0910  178.6450  143.9910 C   0  0  1  0  0  3  0  0  0  0  0  0
  184.8290  178.9170  140.0010 C   0  0  1  0  0  3  0  0  0  0  0  0
  184.0410  180.1090  139.4470 C   0  0  0  0  0  2  0  0  0  0  0  0
  181.5920  178.9910  143.8910 C   0  0  0  0  0  2  0  0  0  0  0  0
  183.7220  178.8400  142.6120 C   0  0  1  0  0  3  0  0  0  0  0  0
  180.8300  175.6110  138.1890 C   0  0  0  0  0  3  0  0  0  0  0  0
  185.6350  179.3680  141.1630 N   0  0  2  0  0  0  0  0  0  0  0  0
  187.5660  177.8120  141.0640 C   0  0  0  0  0  2  0  0  0  0  0  0
  180.1480  176.6340  140.3340 C   0  0  0  0  0  2  0  0  0  0  0  0
  181.0260  178.5610  139.0270 C   0  0  0  0  0  0  0  0  0  0  0  0
  180.4070  176.7730  137.3860 C   0  0  0  0  0  3  0  0  0  0  0  0
  180.9340  177.9020  140.2070 C   0  0  0  0  0  0  0  0  0  0  0  0
  183.7850  176.8290  139.6240 O   0  0  0  0  0  0  0  0  0  0  0  0
  183.1000  179.6910  138.4120 N   0  0  0  0  0  2  0  0  0  0  0  0
  183.8810  177.8030  140.3540 C   0  0  0  0  0  0  0  0  0  0  0  0
  187.0690  179.2420  140.8780 C   0  0  0  0  0  2  0  0  0  0  0  0
  185.8160  177.4240  142.7660 C   0  0  0  0  0  2  0  0  0  0  0  0
  180.4280  178.0600  137.7610 C   0  0  0  0  0  0  0  0  0  0  0  0
  180.0280  178.9760  136.8440 F   0  0  0  0  0  0  0  0  0  0  0  0
  185.2530  178.8300  142.5000 C   0  0  2  0  0  3  0  0  0  0  0  0
  183.7490  179.5540  145.0220 C   0  0  0  0  0  2  0  0  0  0  0  0
  184.3960  178.7440  146.1340 C   0  0  0  0  0  2  0  0  0  0  0  0
  185.8760  179.0620  146.2230 C   0  0  0  0  0  2  0  0  0  0  0  0
  186.6620  177.7730  146.3520 C   0  0  0  0  0  1  0  0  0  0  0  0
  1  4  1  0  0  0  0
  1  5  1  1  0  0  0
  2 15  1  0  0  0  0
  3 16  1  0  0  0  0
  4 21  1  6  0  0  0
  4 11  1  0  0  0  0
  5 10  1  0  0  0  0
  6 23  1  0  0  0  0
  7 27  1  1  0  0  0
  8  9  1  1  0  0  0
  8 21  1  0  0  0  0
  8 13  1  0  0  0  0
 10  7  1  0  0  0  0
 11  7  1  0  0  0  0
 12  2  2  0  0  0  0
 13 26  1  0  0  0  0
 14  6  1  0  0  0  0
 16 18  2  0  0  0  0
 17 24  2  0  0  0  0
 17 12  1  0  0  0  0
 18 15  1  0  0  0  0
 18  1  1  0  0  0  0
 19 21  2  0  0  0  0
 20  3  1  0  0  0  0
 20  9  1  0  0  0  0
 22 14  1  0  0  0  0
 22 13  1  0  0  0  0
 24 16  1  0  0  0  0
 25 24  1  0  0  0  0
 26 11  1  0  0  0  0
 26 23  1  0  0  0  0
 27 28  1  0  0  0  0
 28 29  1  0  0  0  0
 29 30  1  0  0  0  0
M  END
>  <MODEL>
2

>  <REMARK>
 VINA RESULT:      -5.6      6.443      9.668
  Name = 
  3 active torsions:
  status: ('A' for Active; 'I' for Inactive)
    1  A    between atoms: C_6  and  C_8
    2  A    between atoms: C_6  and  C_21
    3  A    between atoms: C_9  and  C_21
                            x       y       z     vdW  Elec       q    Type
                         _______ _______ _______ _____ _____    ______ ____

>  <TORSDO>
F 3

$$$$
=
 OpenBabel10272414003D

 30 34  0  0  1  0  0  0  0  0999 V2000
  184.4090  177.6580  137.6030 C   0  0  2  0  0  3  0  0  0  0  0  0
  183.6380  178.0830  141.0730 C   0  0  0  0  0  3  0  0  0  0  0  0
  181.7560  178.5860  137.0310 C   0  0  0  0  0  2  0  0  0  0  0  0
  184.2660  176.1420  137.7410 C   0  0  2  0  0  3  0  0  0  0  0  0
  185.9020  177.9990  137.5180 C   0  0  0  0  0  2  0  0  0  0  0  0
  183.8540  171.8580  137.0150 C   0  0  0  0  0  2  0  0  0  0  0  0
  186.2570  175.7720  136.2860 C   0  0  1  0  0  3  0  0  0  0  0  0
  181.9800  175.2070  136.9220 C   0  0  1  0  0  3  0  0  0  0  0  0
  181.4350  176.4240  136.1670 C   0  0  0  0  0  2  0  0  0  0  0  0
  186.5560  177.2840  136.3220 C   0  0  0  0  0  2  0  0  0  0  0  0
  184.7450  175.5780  136.4060 C   0  0  1  0  0  3  0  0  0  0  0  0
  182.3790  178.3500  141.4130 C   0  0  0  0  0  3  0  0  0  0  0  0
  182.6830  174.3180  135.9640 N   0  0  2  0  0  0  0  0  0  0  0  0
  182.3550  172.0930  137.0150 C   0  0  0  0  0  2  0  0  0  0  0  0
  184.3170  178.7690  139.9370 C   0  0  0  0  0  2  0  0  0  0  0  0
  182.3760  178.8480  138.3800 C   0  0  0  0  0  0  0  0  0  0  0  0
  181.4960  179.2810  140.6850 C   0  0  0  0  0  3  0  0  0  0  0  0
  183.6470  178.4530  138.6350 C   0  0  0  0  0  0  0  0  0  0  0  0
  182.4670  175.6390  139.1950 O   0  0  0  0  0  0  0  0  0  0  0  0
  180.8840  177.4180  137.0830 N   0  0  0  0  0  2  0  0  0  0  0  0
  182.8720  175.6650  138.0430 C   0  0  0  0  0  0  0  0  0  0  0  0
  181.9980  173.0240  135.8610 C   0  0  0  0  0  2  0  0  0  0  0  0
  184.5640  173.1850  137.2130 C   0  0  0  0  0  2  0  0  0  0  0  0
  181.5250  179.5550  139.3730 C   0  0  0  0  0  0  0  0  0  0  0  0
  180.5900  180.4180  138.9040 F   0  0  0  0  0  0  0  0  0  0  0  0
  184.1600  174.1890  136.1200 C   0  0  2  0  0  3  0  0  0  0  0  0
  186.7770  175.1870  134.9780 C   0  0  0  0  0  2  0  0  0  0  0  0
  187.9600  174.2640  135.2210 C   0  0  0  0  0  2  0  0  0  0  0  0
  188.1140  173.9870  136.7040 C   0  0  0  0  0  2  0  0  0  0  0  0
  188.1100  172.4910  136.9410 C   0  0  0  0  0  1  0  0  0  0  0  0
  1  5  1  1  0  0  0
  1  4  1  0  0  0  0
  1 18  1  0  0  0  0
  2 12  2  0  0  0  0
  3 20  1  0  0  0  0
  3 16  1  0  0  0  0
  4 21  1  6  0  0  0
  6 14  1  0  0  0  0
  6 23  1  0  0  0  0
  7 27  1  6  0  0  0
  7 10  1  0  0  0  0
  7 11  1  0  0  0  0
  8  9  1  6  0  0  0
  8 21  1  0  0  0  0
  9 20  1  0  0  0  0
 10  5  1  0  0  0  0
 11  4  1  0  0  0  0
 13 26  1  0  0  0  0
 13  8  1  0  0  0  0
 15  2  1  0  0  0  0
 16 18  2  0  0  0  0
 16 24  1  0  0  0  0
 17 12  1  0  0  0  0
 18 15  1  0  0  0  0
 21 19  2  0  0  0  0
 22 13  1  0  0  0  0
 22 14  1  0  0  0  0
 24 17  2  0  0  0  0
 25 24  1  0  0  0  0
 26 11  1  0  0  0  0
 26 23  1  0  0  0  0
 27 28  1  0  0  0  0
 28 29  1  0  0  0  0
 29 30  1  0  0  0  0
M  END
>  <MODEL>
3

>  <REMARK>
 VINA RESULT:      -5.5      5.420      9.001
  Name = 
  3 active torsions:
  status: ('A' for Active; 'I' for Inactive)
    1  A    between atoms: C_6  and  C_8
    2  A    between atoms: C_6  and  C_21
    3  A    between atoms: C_9  and  C_21
                            x       y       z     vdW  Elec       q    Type
                         _______ _______ _______ _____ _____    ______ ____

>  <TORSDO>
F 3

$$$$
=
 OpenBabel10272414003D

 30 34  0  0  1  0  0  0  0  0999 V2000
  187.4600  177.2140  138.5840 C   0  0  2  0  0  3  0  0  0  0  0  0
  188.8770  178.2080  135.4510 C   0  0  0  0  0  3  0  0  0  0  0  0
  186.7960  174.7140  137.3450 C   0  0  0  0  0  2  0  0  0  0  0  0
  186.2430  178.1040  138.3350 C   0  0  2  0  0  3  0  0  0  0  0  0
  188.3570  177.8990  139.6230 C   0  0  0  0  0  2  0  0  0  0  0  0
  182.3430  180.0580  138.4750 C   0  0  0  0  0  2  0  0  0  0  0  0
  186.2320  178.8440  140.7160 C   0  0  1  0  0  3  0  0  0  0  0  0
  184.1510  176.8300  137.4550 C   0  0  1  0  0  3  0  0  0  0  0  0
  184.5740  175.3810  137.7240 C   0  0  0  0  0  2  0  0  0  0  0  0
  187.5860  178.1400  140.9340 C   0  0  0  0  0  2  0  0  0  0  0  0
  185.4580  178.0750  139.6430 C   0  0  1  0  0  3  0  0  0  0  0  0
  188.6730  177.4310  134.3900 C   0  0  0  0  0  3  0  0  0  0  0  0
  183.3600  177.3250  138.6090 N   0  0  2  0  0  0  0  0  0  0  0  0
  181.8680  178.9800  137.5170 C   0  0  0  0  0  2  0  0  0  0  0  0
  189.2610  177.6530  136.7810 C   0  0  0  0  0  2  0  0  0  0  0  0
  187.8300  175.6170  136.7230 C   0  0  0  0  0  0  0  0  0  0  0  0
  188.7290  175.9570  134.4100 C   0  0  0  0  0  3  0  0  0  0  0  0
  188.1800  176.7750  137.3330 C   0  0  0  0  0  0  0  0  0  0  0  0
  185.6410  178.0080  136.0470 O   0  0  0  0  0  0  0  0  0  0  0  0
  185.4990  174.8970  136.7030 N   0  0  0  0  0  2  0  0  0  0  0  0
  185.3700  177.6710  137.1890 C   0  0  0  0  0  0  0  0  0  0  0  0
  181.9820  177.6220  138.2020 C   0  0  0  0  0  2  0  0  0  0  0  0
  183.7970  179.8020  138.8270 C   0  0  0  0  0  2  0  0  0  0  0  0
  188.4250  175.1550  135.4410 C   0  0  0  0  0  0  0  0  0  0  0  0
  188.5090  173.8190  135.2270 F   0  0  0  0  0  0  0  0  0  0  0  0
  183.9730  178.4020  139.4370 C   0  0  2  0  0  3  0  0  0  0  0  0
  185.4590  178.8670  142.0300 C   0  0  0  0  0  2  0  0  0  0  0  0
  186.1600  178.0370  143.0930 C   0  0  0  0  0  2  0  0  0  0  0  0
  185.6040  178.3620  144.4660 C   0  0  0  0  0  2  0  0  0  0  0  0
  184.1560  178.7890  144.3350 C   0  0  0  0  0  1  0  0  0  0  0  0
  1  5  1  1  0  0  0
  2 15  1  0  0  0  0
  4 21  1  6  0  0  0
  4  1  1  0  0  0  0
  4 11  1  0  0  0  0
  5 10  1  0  0  0  0
  6 23  1  0  0  0  0
  7 10  1  0  0  0  0
  7 27  1  1  0  0  0
  8  9  1  1  0  0  0
  8 13  1  0  0  0  0
 11  7  1  0  0  0  0
 12 17  1  0  0  0  0
 12  2  2  0  0  0  0
 13 26  1  0  0  0  0
 14 22  1  0  0  0  0
 14  6  1  0  0  0  0
 15 18  1  0  0  0  0
 16 18  2  0  0  0  0
 16  3  1  0  0  0  0
 17 24  2  0  0  0  0
 18  1  1  0  0  0  0
 19 21  2  0  0  0  0
 20  3  1  0  0  0  0
 20  9  1  0  0  0  0
 21  8  1  0  0  0  0
 22 13  1  0  0  0  0
 23 26  1  0  0  0  0
 24 16  1  0  0  0  0
 25 24  1  0  0  0  0
 26 11  1  0  0  0  0
 27 28  1  0  0  0  0
 28 29  1  0  0  0  0
 30 29  1  0  0  0  0
M  END
>  <MODEL>
4

>  <REMARK>
 VINA RESULT:      -5.4      3.341      4.644
  Name = 
  3 active torsions:
  status: ('A' for Active; 'I' for Inactive)
    1  A    between atoms: C_6  and  C_8
    2  A    between atoms: C_6  and  C_21
    3  A    between atoms: C_9  and  C_21
                            x       y       z     vdW  Elec       q    Type
                         _______ _______ _______ _____ _____    ______ ____

>  <TORSDO>
F 3

$$$$
=
 OpenBabel10272414003D

 30 34  0  0  1  0  0  0  0  0999 V2000
  182.1620  177.6710  136.4930 C   0  0  2  0  0  3  0  0  0  0  0  0
  181.4200  174.1720  136.6220 C   0  0  0  0  0  3  0  0  0  0  0  0
  184.8430  176.9460  135.7770 C   0  0  0  0  0  2  0  0  0  0  0  0
  182.1760  177.7410  138.0190 C   0  0  2  0  0  3  0  0  0  0  0  0
  180.8570  178.3010  135.9900 C   0  0  0  0  0  2  0  0  0  0  0  0
  182.6900  178.9350  142.1860 C   0  0  0  0  0  2  0  0  0  0  0  0
  180.9670  179.9220  137.9810 C   0  0  1  0  0  3  0  0  0  0  0  0
  184.5560  177.6970  139.0690 C   0  0  1  0  0  3  0  0  0  0  0  0
  185.4150  177.9490  137.8250 C   0  0  0  0  0  2  0  0  0  0  0  0
  180.7390  179.7610  136.4650 C   0  0  0  0  0  2  0  0  0  0  0  0
  182.2810  179.2280  138.3450 C   0  0  1  0  0  3  0  0  0  0  0  0
  182.4280  173.3080  136.5360 C   0  0  0  0  0  3  0  0  0  0  0  0
  184.2870  178.9910  139.7430 N   0  0  2  0  0  0  0  0  0  0  0  0
  184.0580  178.2830  142.1100 C   0  0  0  0  0  2  0  0  0  0  0  0
  181.3080  175.3550  135.7220 C   0  0  0  0  0  2  0  0  0  0  0  0
  183.7240  175.9450  135.6370 C   0  0  0  0  0  0  0  0  0  0  0  0
  183.5700  173.4460  135.6120 C   0  0  0  0  0  3  0  0  0  0  0  0
  182.4500  176.3020  135.9280 C   0  0  0  0  0  0  0  0  0  0  0  0
  183.1760  175.7840  138.8990 O   0  0  0  0  0  0  0  0  0  0  0  0
  185.5670  176.7370  137.0260 N   0  0  0  0  0  2  0  0  0  0  0  0
  183.2940  176.9790  138.6750 C   0  0  0  0  0  0  0  0  0  0  0  0
  184.9030  179.0180  141.0750 C   0  0  0  0  0  2  0  0  0  0  0  0
  182.0150  178.8280  140.8310 C   0  0  0  0  0  2  0  0  0  0  0  0
  184.1060  174.5890  135.1620 C   0  0  0  0  0  0  0  0  0  0  0  0
  185.1840  174.4840  134.3460 F   0  0  0  0  0  0  0  0  0  0  0  0
  182.8780  179.4760  139.7370 C   0  0  2  0  0  3  0  0  0  0  0  0
  181.0240  181.4050  138.3270 C   0  0  0  0  0  2  0  0  0  0  0  0
  180.7490  182.2650  137.1040 C   0  0  0  0  0  2  0  0  0  0  0  0
  180.9120  183.7330  137.4460 C   0  0  0  0  0  2  0  0  0  0  0  0
  181.1360  184.5250  136.1740 C   0  0  0  0  0  1  0  0  0  0  0  0
  1  5  1  1  0  0  0
  1  4  1  0  0  0  0
  3 20  1  0  0  0  0
  4 11  1  0  0  0  0
  4 21  1  6  0  0  0
  5 10  1  0  0  0  0
  7 27  1  6  0  0  0
  7 11  1  0  0  0  0
  8  9  1  6  0  0  0
  8 13  1  0  0  0  0
 10  7  1  0  0  0  0
 11 26  1  0  0  0  0
 12  2  2  0  0  0  0
 13 22  1  0  0  0  0
 14  6  1  0  0  0  0
 15 18  1  0  0  0  0
 15  2  1  0  0  0  0
 16  3  1  0  0  0  0
 16 18  2  0  0  0  0
 17 12  1  0  0  0  0
 18  1  1  0  0  0  0
 20  9  1  0  0  0  0
 21 19  2  0  0  0  0
 21  8  1  0  0  0  0
 22 14  1  0  0  0  0
 23  6  1  0  0  0  0
 24 17  2  0  0  0  0
 24 16  1  0  0  0  0
 25 24  1  0  0  0  0
 26 13  1  0  0  0  0
 26 23  1  0  0  0  0
 28 29  1  0  0  0  0
 28 27  1  0  0  0  0
 30 29  1  0  0  0  0
M  END
>  <MODEL>
5

>  <REMARK>
 VINA RESULT:      -5.4      6.112      9.071
  Name = 
  3 active torsions:
  status: ('A' for Active; 'I' for Inactive)
    1  A    between atoms: C_6  and  C_8
    2  A    between atoms: C_6  and  C_21
    3  A    between atoms: C_9  and  C_21
                            x       y       z     vdW  Elec       q    Type
                         _______ _______ _______ _____ _____    ______ ____

>  <TORSDO>
F 3

$$$$
=
 OpenBabel10272414003D

 30 34  0  0  1  0  0  0  0  0999 V2000
  184.1470  175.5370  137.4320 C   0  0  2  0  0  3  0  0  0  0  0  0
  181.8240  177.1480  135.2360 C   0  0  0  0  0  3  0  0  0  0  0  0
  184.1790  177.9580  138.9670 C   0  0  0  0  0  2  0  0  0  0  0  0
  185.2660  175.7160  136.4060 C   0  0  2  0  0  3  0  0  0  0  0  0
  183.7050  174.0680  137.4160 C   0  0  0  0  0  2  0  0  0  0  0  0
  189.1070  175.9520  134.3460 C   0  0  0  0  0  2  0  0  0  0  0  0
  186.1340  173.4260  136.8770 C   0  0  1  0  0  3  0  0  0  0  0  0
  186.8430  177.7290  136.8860 C   0  0  1  0  0  3  0  0  0  0  0  0
  186.4380  178.0630  138.3260 C   0  0  0  0  0  2  0  0  0  0  0  0
  184.8890  173.1390  137.7400 C   0  0  0  0  0  2  0  0  0  0  0  0
  186.4440  174.9220  136.9630 C   0  0  1  0  0  3  0  0  0  0  0  0
  181.6020  178.4500  135.3950 C   0  0  0  0  0  3  0  0  0  0  0  0
  188.0100  176.8130  136.9110 N   0  0  2  0  0  0  0  0  0  0  0  0
  189.1530  177.4030  134.7890 C   0  0  0  0  0  2  0  0  0  0  0  0
  181.8760  176.2030  136.3890 C   0  0  0  0  0  2  0  0  0  0  0  0
  183.0600  177.6940  137.9930 C   0  0  0  0  0  0  0  0  0  0  0  0
  181.4550  179.1190  136.7020 C   0  0  0  0  0  3  0  0  0  0  0  0
  183.0180  176.5290  137.3030 C   0  0  0  0  0  0  0  0  0  0  0  0
  185.0490  177.8230  135.3480 O   0  0  0  0  0  0  0  0  0  0  0  0
  185.1910  178.8220  138.3670 N   0  0  0  0  0  2  0  0  0  0  0  0
  185.6670  177.1430  136.1530 C   0  0  0  0  0  0  0  0  0  0  0  0
  189.1850  177.4570  136.3130 C   0  0  0  0  0  2  0  0  0  0  0  0
  187.8440  175.3090  134.8900 C   0  0  0  0  0  2  0  0  0  0  0  0
  182.0350  178.7630  137.8570 C   0  0  0  0  0  0  0  0  0  0  0  0
  181.7920  179.5480  138.9360 F   0  0  0  0  0  0  0  0  0  0  0  0
  187.7890  175.4230  136.4220 C   0  0  2  0  0  3  0  0  0  0  0  0
  187.3060  172.6000  137.3930 C   0  0  0  0  0  2  0  0  0  0  0  0
  187.8810  171.7180  136.2960 C   0  0  0  0  0  2  0  0  0  0  0  0
  186.9110  171.6260  135.1330 C   0  0  0  0  0  2  0  0  0  0  0  0
  186.3840  170.2110  135.0270 C   0  0  0  0  0  1  0  0  0  0  0  0
  1  5  1  6  0  0  0
  2 12  2  0  0  0  0
  2 15  1  0  0  0  0
  4 21  1  1  0  0  0
  4 11  1  0  0  0  0
  4  1  1  0  0  0  0
  5 10  1  0  0  0  0
  6 14  1  0  0  0  0
  6 23  1  0  0  0  0
  7 11  1  0  0  0  0
  7 27  1  1  0  0  0
  7 10  1  0  0  0  0
  8 13  1  0  0  0  0
  8  9  1  1  0  0  0
  9 20  1  0  0  0  0
 12 17  1  0  0  0  0
 14 22  1  0  0  0  0
 15 18  1  0  0  0  0
 16  3  1  0  0  0  0
 17 24  2  0  0  0  0
 18  1  1  0  0  0  0
 18 16  2  0  0  0  0
 19 21  2  0  0  0  0
 20  3  1  0  0  0  0
 21  8  1  0  0  0  0
 22 13  1  0  0  0  0
 23 26  1  0  0  0  0
 24 16  1  0  0  0  0
 24 25  1  0  0  0  0
 26 13  1  0  0  0  0
 26 11  1  0  0  0  0
 28 27  1  0  0  0  0
 29 28  1  0  0  0  0
 30 29  1  0  0  0  0
M  END
>  <MODEL>
6

>  <REMARK>
 VINA RESULT:      -5.1      4.421      8.255
  Name = 
  3 active torsions:
  status: ('A' for Active; 'I' for Inactive)
    1  A    between atoms: C_6  and  C_8
    2  A    between atoms: C_6  and  C_21
    3  A    between atoms: C_9  and  C_21
                            x       y       z     vdW  Elec       q    Type
                         _______ _______ _______ _____ _____    ______ ____

>  <TORSDO>
F 3

$$$$
=
 OpenBabel10272414003D

 30 34  0  0  1  0  0  0  0  0999 V2000
  185.2310  177.4660  137.1870 C   0  0  2  0  0  3  0  0  0  0  0  0
  182.9820  176.7880  139.8870 C   0  0  0  0  0  3  0  0  0  0  0  0
  182.9720  177.2880  135.4290 C   0  0  0  0  0  2  0  0  0  0  0  0
  185.7750  176.0400  137.2610 C   0  0  2  0  0  3  0  0  0  0  0  0
  186.2670  178.4130  137.8050 C   0  0  0  0  0  2  0  0  0  0  0  0
  187.7730  172.2380  136.4820 C   0  0  0  0  0  2  0  0  0  0  0  0
  188.1060  176.8570  136.9110 C   0  0  1  0  0  3  0  0  0  0  0  0
  184.7810  174.4240  135.4810 C   0  0  1  0  0  3  0  0  0  0  0  0
  184.1000  175.4260  134.5420 C   0  0  0  0  0  2  0  0  0  0  0  0
  187.6120  178.3090  137.0630 C   0  0  0  0  0  2  0  0  0  0  0  0
  186.9710  176.0240  136.3120 C   0  0  1  0  0  3  0  0  0  0  0  0
  181.7360  176.4220  139.5960 C   0  0  0  0  0  3  0  0  0  0  0  0
  186.1460  174.1360  134.9740 N   0  0  2  0  0  0  0  0  0  0  0  0
  186.4980  171.8150  135.7780 C   0  0  0  0  0  2  0  0  0  0  0  0
  183.6610  177.9180  139.1920 C   0  0  0  0  0  2  0  0  0  0  0  0
  182.7660  177.4970  136.9080 C   0  0  0  0  0  0  0  0  0  0  0  0
  180.9160  177.0250  138.5280 C   0  0  0  0  0  3  0  0  0  0  0  0
  183.8330  177.6300  137.7320 C   0  0  0  0  0  0  0  0  0  0  0  0
  184.0060  174.5330  137.7120 O   0  0  0  0  0  0  0  0  0  0  0  0
  182.8210  175.8790  135.0820 N   0  0  0  0  0  2  0  0  0  0  0  0
  184.7900  174.9690  136.8830 C   0  0  0  0  0  0  0  0  0  0  0  0
  186.2640  172.7280  134.5780 C   0  0  0  0  0  2  0  0  0  0  0  0
  187.6180  173.6670  136.9710 C   0  0  0  0  0  2  0  0  0  0  0  0
  181.3570  177.5550  137.3780 C   0  0  0  0  0  0  0  0  0  0  0  0
  180.4210  178.0210  136.5150 F   0  0  0  0  0  0  0  0  0  0  0  0
  187.2890  174.6120  135.8030 C   0  0  2  0  0  3  0  0  0  0  0  0
  189.3310  176.8340  136.0050 C   0  0  0  0  0  2  0  0  0  0  0  0
  190.5930  176.5330  136.7970 C   0  0  0  0  0  2  0  0  0  0  0  0
  190.2360  176.0140  138.1770 C   0  0  0  0  0  2  0  0  0  0  0  0
  190.9190  176.8660  139.2270 C   0  0  0  0  0  1  0  0  0  0  0  0
  1  4  1  0  0  0  0
  1 18  1  0  0  0  0
  1  5  1  1  0  0  0
  3 16  1  0  0  0  0
  4 21  1  6  0  0  0
  6 23  1  0  0  0  0
  7 27  1  6  0  0  0
  7 10  1  0  0  0  0
  8  9  1  6  0  0  0
  8 21  1  0  0  0  0
  9 20  1  0  0  0  0
 10  5  1  0  0  0  0
 11  7  1  0  0  0  0
 11  4  1  0  0  0  0
 12  2  2  0  0  0  0
 13  8  1  0  0  0  0
 13 26  1  0  0  0  0
 14  6  1  0  0  0  0
 15  2  1  0  0  0  0
 16 24  1  0  0  0  0
 16 18  2  0  0  0  0
 17 12  1  0  0  0  0
 18 15  1  0  0  0  0
 20  3  1  0  0  0  0
 21 19  2  0  0  0  0
 22 13  1  0  0  0  0
 22 14  1  0  0  0  0
 24 17  2  0  0  0  0
 25 24  1  0  0  0  0
 26 11  1  0  0  0  0
 26 23  1  0  0  0  0
 27 28  1  0  0  0  0
 28 29  1  0  0  0  0
 29 30  1  0  0  0  0
M  END
>  <MODEL>
7

>  <REMARK>
 VINA RESULT:      -5.1      4.309      7.823
  Name = 
  3 active torsions:
  status: ('A' for Active; 'I' for Inactive)
    1  A    between atoms: C_6  and  C_8
    2  A    between atoms: C_6  and  C_21
    3  A    between atoms: C_9  and  C_21
                            x       y       z     vdW  Elec       q    Type
                         _______ _______ _______ _____ _____    ______ ____

>  <TORSDO>
F 3

$$$$
=
 OpenBabel10272414003D

 30 34  0  0  1  0  0  0  0  0999 V2000
  186.6430  174.7760  136.5950 C   0  0  2  0  0  3  0  0  0  0  0  0
  188.6010  177.0460  138.5510 C   0  0  0  0  0  3  0  0  0  0  0  0
  187.0570  176.5370  134.3700 C   0  0  0  0  0  2  0  0  0  0  0  0
  185.3630  175.2860  137.2570 C   0  0  2  0  0  3  0  0  0  0  0  0
  186.9800  173.4020  137.1860 C   0  0  0  0  0  2  0  0  0  0  0  0
  181.2220  176.1840  138.3060 C   0  0  0  0  0  2  0  0  0  0  0  0
  184.4570  172.9670  137.4080 C   0  0  1  0  0  3  0  0  0  0  0  0
  184.0360  177.0100  135.8300 C   0  0  1  0  0  3  0  0  0  0  0  0
  184.7280  176.8410  134.4730 C   0  0  0  0  0  2  0  0  0  0  0  0
  185.8240  172.4120  136.9580 C   0  0  0  0  0  2  0  0  0  0  0  0
  184.2650  174.3440  136.7700 C   0  0  1  0  0  3  0  0  0  0  0  0
  188.9310  178.2200  138.0160 C   0  0  0  0  0  3  0  0  0  0  0  0
  182.8400  176.1330  135.8750 N   0  0  2  0  0  0  0  0  0  0  0  0
  181.3520  177.3990  137.4070 C   0  0  0  0  0  2  0  0  0  0  0  0
  188.7100  175.7680  137.7910 C   0  0  0  0  0  2  0  0  0  0  0  0
  187.9510  176.6230  135.5800 C   0  0  0  0  0  0  0  0  0  0  0  0
  189.3660  178.4090  136.6190 C   0  0  0  0  0  3  0  0  0  0  0  0
  187.7870  175.7600  136.6110 C   0  0  0  0  0  0  0  0  0  0  0  0
  185.5060  177.6270  137.5760 O   0  0  0  0  0  0  0  0  0  0  0  0
  186.0060  177.5470  134.4330 N   0  0  0  0  0  2  0  0  0  0  0  0
  185.0120  176.7120  136.9360 C   0  0  0  0  0  0  0  0  0  0  0  0
  181.6150  176.9350  135.9780 C   0  0  0  0  0  2  0  0  0  0  0  0
  182.5220  175.4010  138.2710 C   0  0  0  0  0  2  0  0  0  0  0  0
  188.9960  177.6800  135.5560 C   0  0  0  0  0  0  0  0  0  0  0  0
  189.4890  178.0560  134.3510 F   0  0  0  0  0  0  0  0  0  0  0  0
  182.8750  174.9910  136.8320 C   0  0  2  0  0  3  0  0  0  0  0  0
  183.3560  172.0080  136.9710 C   0  0  0  0  0  2  0  0  0  0  0  0
  183.8140  171.1390  135.8120 C   0  0  0  0  0  2  0  0  0  0  0  0
  183.0820  171.5280  134.5410 C   0  0  0  0  0  2  0  0  0  0  0  0
  181.6880  172.0070  134.8900 C   0  0  0  0  0  1  0  0  0  0  0  0
  1 18  1  0  0  0  0
  1  5  1  1  0  0  0
  1  4  1  0  0  0  0
  3 20  1  0  0  0  0
  3 16  1  0  0  0  0
  4 21  1  6  0  0  0
  7 27  1  6  0  0  0
  8  9  1  6  0  0  0
  8 13  1  0  0  0  0
  8 21  1  0  0  0  0
 10  5  1  0  0  0  0
 10  7  1  0  0  0  0
 11 26  1  0  0  0  0
 11  4  1  0  0  0  0
 11  7  1  0  0  0  0
 12  2  2  0  0  0  0
 13 22  1  0  0  0  0
 13 26  1  0  0  0  0
 14  6  1  0  0  0  0
 15  2  1  0  0  0  0
 16 18  2  0  0  0  0
 17 12  1  0  0  0  0
 18 15  1  0  0  0  0
 20  9  1  0  0  0  0
 21 19  2  0  0  0  0
 22 14  1  0  0  0  0
 23  6  1  0  0  0  0
 24 16  1  0  0  0  0
 24 17  2  0  0  0  0
 25 24  1  0  0  0  0
 26 23  1  0  0  0  0
 28 27  1  0  0  0  0
 29 30  1  0  0  0  0
 29 28  1  0  0  0  0
M  END
>  <MODEL>
8

>  <REMARK>
 VINA RESULT:      -4.9      4.015      6.752
  Name = 
  3 active torsions:
  status: ('A' for Active; 'I' for Inactive)
    1  A    between atoms: C_6  and  C_8
    2  A    between atoms: C_6  and  C_21
    3  A    between atoms: C_9  and  C_21
                            x       y       z     vdW  Elec       q    Type
                         _______ _______ _______ _____ _____    ______ ____

>  <TORSDO>
F 3

$$$$
=
 OpenBabel10272414003D

 30 34  0  0  1  0  0  0  0  0999 V2000
  191.1300  175.9700  135.4410 C   0  0  2  0  0  3  0  0  0  0  0  0
  191.3230  172.3970  135.3430 C   0  0  0  0  0  3  0  0  0  0  0  0
  193.9700  175.9860  135.8370 C   0  0  0  0  0  2  0  0  0  0  0  0
  190.5440  175.9160  136.8510 C   0  0  2  0  0  3  0  0  0  0  0  0
  190.0000  176.3010  134.4580 C   0  0  0  0  0  2  0  0  0  0  0  0
  189.1100  176.8540  140.8660 C   0  0  0  0  0  2  0  0  0  0  0  0
  188.9230  177.7300  136.3030 C   0  0  1  0  0  3  0  0  0  0  0  0
  192.2720  176.3700  138.7430 C   0  0  1  0  0  3  0  0  0  0  0  0
  193.4420  176.9270  137.9250 C   0  0  0  0  0  2  0  0  0  0  0  0
  189.3380  177.6430  134.8200 C   0  0  0  0  0  2  0  0  0  0  0  0
  190.1300  177.3520  137.1620 C   0  0  1  0  0  3  0  0  0  0  0  0
  192.4750  171.8170  135.6720 C   0  0  0  0  0  3  0  0  0  0  0  0
  191.4430  177.5000  139.2330 N   0  0  2  0  0  0  0  0  0  0  0  0
  190.5220  176.5660  141.3400 C   0  0  0  0  0  2  0  0  0  0  0  0
  191.2610  173.5870  134.4460 C   0  0  0  0  0  2  0  0  0  0  0  0
  193.2880  174.7560  135.2930 C   0  0  0  0  0  0  0  0  0  0  0  0
  193.8050  172.3060  135.2620 C   0  0  0  0  0  3  0  0  0  0  0  0
  191.9540  174.7640  135.0600 C   0  0  0  0  0  0  0  0  0  0  0  0
  191.6030  174.1990  138.0900 O   0  0  0  0  0  0  0  0  0  0  0  0
  194.1940  175.8590  137.2730 N   0  0  0  0  0  2  0  0  0  0  0  0
  191.4850  175.4000  137.9050 C   0  0  0  0  0  0  0  0  0  0  0  0
  191.4770  177.5680  140.6990 C   0  0  0  0  0  2  0  0  0  0  0  0
  189.0530  176.6950  139.3570 C   0  0  0  0  0  2  0  0  0  0  0  0
  194.1570  173.5790  135.0320 C   0  0  0  0  0  0  0  0  0  0  0  0
  195.4520  173.8090  134.7000 F   0  0  0  0  0  0  0  0  0  0  0  0
  190.0690  177.6240  138.6710 C   0  0  2  0  0  3  0  0  0  0  0  0
  188.4590  179.1480  136.6130 C   0  0  0  0  0  2  0  0  0  0  0  0
  186.9430  179.2470  136.5900 C   0  0  0  0  0  2  0  0  0  0  0  0
  186.3260  178.0250  137.2440 C   0  0  0  0  0  2  0  0  0  0  0  0
  185.7260  178.4150  138.5780 C   0  0  0  0  0  1  0  0  0  0  0  0
  1  5  1  6  0  0  0
  1  4  1  0  0  0  0
  2 12  2  0  0  0  0
  3 20  1  0  0  0  0
  4 11  1  0  0  0  0
  4 21  1  1  0  0  0
  5 10  1  0  0  0  0
  6 14  1  0  0  0  0
  7 27  1  1  0  0  0
  7 11  1  0  0  0  0
  8  9  1  6  0  0  0
  8 13  1  0  0  0  0
 10  7  1  0  0  0  0
 11 26  1  0  0  0  0
 13 22  1  0  0  0  0
 15 18  1  0  0  0  0
 15  2  1  0  0  0  0
 16  3  1  0  0  0  0
 17 12  1  0  0  0  0
 18 16  2  0  0  0  0
 18  1  1  0  0  0  0
 20  9  1  0  0  0  0
 21 19  2  0  0  0  0
 21  8  1  0  0  0  0
 22 14  1  0  0  0  0
 23  6  1  0  0  0  0
 24 17  2  0  0  0  0
 24 16  1  0  0  0  0
 25 24  1  0  0  0  0
 26 13  1  0  0  0  0
 26 23  1  0  0  0  0
 28 27  1  0  0  0  0
 28 29  1  0  0  0  0
 29 30  1  0  0  0  0
M  END
>  <MODEL>
9

>  <REMARK>
 VINA RESULT:      -4.8      2.070      4.398
  Name = 
  3 active torsions:
  status: ('A' for Active; 'I' for Inactive)
    1  A    between atoms: C_6  and  C_8
    2  A    between atoms: C_6  and  C_21
    3  A    between atoms: C_9  and  C_21
                            x       y       z     vdW  Elec       q    Type
                         _______ _______ _______ _____ _____    ______ ____

>  <TORSDO>
F 3

$$$$
