=
 OpenBabel10272413123D

 32 36  0  0  1  0  0  0  0  0999 V2000
  183.4790  178.1010  141.0710 C   0  0  1  0  0  3  0  0  0  0  0  0
  185.0670  178.2320  139.3400 C   0  0  0  0  0  0  0  0  0  0  0  0
  183.3330  176.6130  138.9530 C   0  0  0  0  0  3  0  0  0  0  0  0
  187.2940  178.2650  136.4090 N   0  0  0  0  0  2  0  0  0  0  0  0
  183.9300  177.5870  139.7490 C   0  0  0  0  0  0  0  0  0  0  0  0
  185.5290  176.6440  136.0990 C   0  0  0  0  0  3  0  0  0  0  0  0
  185.0260  176.9610  137.2990 C   0  0  0  0  0  0  0  0  0  0  0  0
  183.8990  176.3250  137.7430 N   0  0  0  0  0  0  0  0  0  0  0  0
  185.5230  179.1670  140.3040 N   0  0  0  0  0  2  0  0  0  0  0  0
  184.6070  179.1030  141.4500 C   0  0  2  0  0  3  0  0  0  0  0  0
  185.6530  177.9470  138.1030 C   0  0  0  0  0  0  0  0  0  0  0  0
  186.6750  177.3030  135.6330 O   0  0  0  0  0  0  0  0  0  0  0  0
  186.7510  178.5890  137.6920 C   0  0  0  0  0  3  0  0  0  0  0  0
  185.4810  178.4200  145.1060 C   0  0  0  0  0  0  0  0  0  0  0  0
  184.9760  178.6520  146.3770 O   0  0  0  0  0  1  0  0  0  0  0  0
  185.3290  178.6360  142.6860 C   0  0  0  0  0  0  0  0  0  0  0  0
  186.6550  177.6790  144.9660 C   0  0  0  0  0  3  0  0  0  0  0  0
  186.5040  177.8750  142.5620 C   0  0  0  0  0  3  0  0  0  0  0  0
  184.8170  178.9110  143.9710 C   0  0  0  0  0  0  0  0  0  0  0  0
  183.5460  179.6810  144.1340 C   0  0  0  0  0  1  0  0  0  0  0  0
  187.1710  177.4020  143.6980 C   0  0  0  0  0  0  0  0  0  0  0  0
  189.1590  176.6560  142.4300 C   0  0  0  0  0  1  0  0  0  0  0  0
  188.3430  176.6420  143.5950 O   0  0  0  0  0  0  0  0  0  0  0  0
  181.0590  178.4230  141.5400 C   0  0  0  0  0  2  0  0  0  0  0  0
  182.1540  178.8120  140.9470 C   0  0  2  0  0  3  0  0  0  0  0  0
  181.8630  179.8990  140.0820 N   0  0  0  0  0  0  0  0  0  0  0  0
  180.6040  180.3600  140.2920 O   0  0  0  0  0  0  0  0  0  0  0  0
  179.9820  179.3240  141.0320 C   0  0  0  0  0  2  0  0  0  0  0  0
  182.4950  180.0660  138.7820 C   0  0  0  0  0  2  0  0  0  0  0  0
  181.4360  180.1590  137.6900 C   0  0  0  0  0  2  0  0  0  0  0  0
  181.4070  178.8990  136.8320 C   0  0  0  0  0  2  0  0  0  0  0  0
  180.3140  177.9610  137.3340 C   0  0  0  0  0  1  0  0  0  0  0  0
  1  5  1  6  0  0  0
  1 10  1  0  0  0  0
  2  5  2  0  0  0  0
  2  9  1  0  0  0  0
  3  5  1  0  0  0  0
  4 13  1  0  0  0  0
  6  7  2  0  0  0  0
  7  8  1  0  0  0  0
  7 11  1  0  0  0  0
  8  3  2  0  0  0  0
  9 10  1  0  0  0  0
 10 16  1  1  0  0  0
 11  2  1  0  0  0  0
 12  6  1  0  0  0  0
 12  4  1  0  0  0  0
 13 11  2  0  0  0  0
 14 15  1  0  0  0  0
 16 19  1  0  0  0  0
 17 14  1  0  0  0  0
 18 16  2  0  0  0  0
 18 21  1  0  0  0  0
 19 20  1  0  0  0  0
 19 14  2  0  0  0  0
 21 17  2  0  0  0  0
 22 23  1  0  0  0  0
 23 21  1  0  0  0  0
 25  1  1  0  0  0  0
 25 24  1  6  0  0  0
 26 27  1  0  0  0  0
 26 25  1  0  0  0  0
 27 28  1  0  0  0  0
 28 24  1  0  0  0  0
 29 26  1  0  0  0  0
 30 29  1  0  0  0  0
 31 32  1  0  0  0  0
 31 30  1  0  0  0  0
M  END
>  <MODEL>
1

>  <REMARK>
 VINA RESULT:      -7.0      0.000      0.000
  Name = 
  6 active torsions:
  status: ('A' for Active; 'I' for Inactive)
    1  A    between atoms: C_1  and  C_5
    2  A    between atoms: C_13  and  C_18
    3  A    between atoms: N_14  and  C_29
    4  A    between atoms: O_15  and  C_26
    5  A    between atoms: C_16  and  C_27
    6  A    between atoms: C_18  and  C_29
                            x       y       z     vdW  Elec       q    Type
                         _______ _______ _______ _____ _____    ______ ____

>  <TORSDO>
F 6

$$$$
=
 OpenBabel10272413123D

 32 36  0  0  1  0  0  0  0  0999 V2000
  189.1090  176.4520  138.4930 C   0  0  1  0  0  3  0  0  0  0  0  0
  191.4020  175.9930  138.2350 C   0  0  0  0  0  0  0  0  0  0  0  0
  189.9620  174.4480  137.0850 C   0  0  0  0  0  3  0  0  0  0  0  0
  194.8940  175.0650  137.5250 N   0  0  0  0  0  2  0  0  0  0  0  0
  190.1450  175.5640  137.9000 C   0  0  0  0  0  0  0  0  0  0  0  0
  193.3820  173.5420  136.4140 C   0  0  0  0  0  3  0  0  0  0  0  0
  192.3360  174.2120  136.9160 C   0  0  0  0  0  0  0  0  0  0  0  0
  191.0680  173.7990  136.6130 N   0  0  0  0  0  0  0  0  0  0  0  0
  191.3670  177.1260  139.0870 N   0  0  0  0  0  2  0  0  0  0  0  0
  189.9560  177.4430  139.3430 C   0  0  2  0  0  3  0  0  0  0  0  0
  192.5400  175.3380  137.7540 C   0  0  0  0  0  0  0  0  0  0  0  0
  194.6840  173.9690  136.7090 O   0  0  0  0  0  0  0  0  0  0  0  0
  193.7690  175.7670  138.0610 C   0  0  0  0  0  3  0  0  0  0  0  0
  188.1010  177.5490  142.6810 C   0  0  0  0  0  0  0  0  0  0  0  0
  186.8870  177.9650  143.2060 O   0  0  0  0  0  1  0  0  0  0  0  0
  189.6300  177.2900  140.8050 C   0  0  0  0  0  0  0  0  0  0  0  0
  189.0200  176.9130  143.5170 C   0  0  0  0  0  3  0  0  0  0  0  0
  190.5380  176.6380  141.6560 C   0  0  0  0  0  3  0  0  0  0  0  0
  188.4030  177.7500  141.3250 C   0  0  0  0  0  0  0  0  0  0  0  0
  187.3990  178.4090  140.4350 C   0  0  0  0  0  1  0  0  0  0  0  0
  190.2390  176.4550  143.0120 C   0  0  0  0  0  0  0  0  0  0  0  0
  191.5890  176.4050  145.0840 C   0  0  0  0  0  1  0  0  0  0  0  0
  191.1310  175.8080  143.8770 O   0  0  0  0  0  0  0  0  0  0  0  0
  188.5400  178.4420  137.1160 C   0  0  0  0  0  2  0  0  0  0  0  0
  188.3510  177.1870  137.4140 C   0  0  2  0  0  3  0  0  0  0  0  0
  187.2510  176.6840  136.6720 N   0  0  0  0  0  0  0  0  0  0  0  0
  186.8690  177.5690  135.7170 O   0  0  0  0  0  0  0  0  0  0  0  0
  187.4960  178.7790  136.1030 C   0  0  0  0  0  2  0  0  0  0  0  0
  186.2880  175.7430  137.2250 C   0  0  0  0  0  2  0  0  0  0  0  0
  186.3080  174.4420  136.4310 C   0  0  0  0  0  2  0  0  0  0  0  0
  186.3610  173.2280  137.3510 C   0  0  0  0  0  2  0  0  0  0  0  0
  184.9450  172.8260  137.7510 C   0  0  0  0  0  1  0  0  0  0  0  0
  1  5  1  6  0  0  0
  1 10  1  0  0  0  0
  2  9  1  0  0  0  0
  3  5  1  0  0  0  0
  4 13  1  0  0  0  0
  5  2  2  0  0  0  0
  6 12  1  0  0  0  0
  6  7  2  0  0  0  0
  7 11  1  0  0  0  0
  8  7  1  0  0  0  0
  8  3  2  0  0  0  0
  9 10  1  0  0  0  0
 10 16  1  1  0  0  0
 11 13  2  0  0  0  0
 11  2  1  0  0  0  0
 12  4  1  0  0  0  0
 14 15  1  0  0  0  0
 14 17  1  0  0  0  0
 16 19  1  0  0  0  0
 16 18  2  0  0  0  0
 18 21  1  0  0  0  0
 19 14  2  0  0  0  0
 20 19  1  0  0  0  0
 21 17  2  0  0  0  0
 21 23  1  0  0  0  0
 23 22  1  0  0  0  0
 25 24  1  1  0  0  0
 25  1  1  0  0  0  0
 26 29  1  0  0  0  0
 26 25  1  0  0  0  0
 27 28  1  0  0  0  0
 27 26  1  0  0  0  0
 28 24  1  0  0  0  0
 30 29  1  0  0  0  0
 30 31  1  0  0  0  0
 31 32  1  0  0  0  0
M  END
>  <MODEL>
2

>  <REMARK>
 VINA RESULT:      -7.0      4.260      6.614
  Name = 
  6 active torsions:
  status: ('A' for Active; 'I' for Inactive)
    1  A    between atoms: C_1  and  C_5
    2  A    between atoms: C_13  and  C_18
    3  A    between atoms: N_14  and  C_29
    4  A    between atoms: O_15  and  C_26
    5  A    between atoms: C_16  and  C_27
    6  A    between atoms: C_18  and  C_29
                            x       y       z     vdW  Elec       q    Type
                         _______ _______ _______ _____ _____    ______ ____

>  <TORSDO>
F 6

$$$$
=
 OpenBabel10272413123D

 32 36  0  0  1  0  0  0  0  0999 V2000
  190.1900  177.3530  142.9750 C   0  0  1  0  0  3  0  0  0  0  0  0
  190.3620  176.5840  140.7580 C   0  0  0  0  0  0  0  0  0  0  0  0
  192.1800  178.0000  141.4440 C   0  0  0  0  0  3  0  0  0  0  0  0
  191.0040  175.4670  137.3090 N   0  0  0  0  0  2  0  0  0  0  0  0
  190.9730  177.3570  141.7100 C   0  0  0  0  0  0  0  0  0  0  0  0
  192.7870  176.9130  138.0650 C   0  0  0  0  0  3  0  0  0  0  0  0
  192.1740  177.0530  139.2480 C   0  0  0  0  0  0  0  0  0  0  0  0
  192.7510  177.8300  140.2140 N   0  0  0  0  0  0  0  0  0  0  0  0
  189.1380  176.0400  141.2230 N   0  0  0  0  0  2  0  0  0  0  0  0
  188.9290  176.5250  142.5930 C   0  0  2  0  0  3  0  0  0  0  0  0
  190.9400  176.4000  139.4990 C   0  0  0  0  0  0  0  0  0  0  0  0
  192.2070  176.1060  137.0760 O   0  0  0  0  0  0  0  0  0  0  0  0
  190.3560  175.6290  138.5750 C   0  0  0  0  0  3  0  0  0  0  0  0
  185.9030  178.4140  143.9600 C   0  0  0  0  0  0  0  0  0  0  0  0
  185.2460  178.6350  145.1620 O   0  0  0  0  0  1  0  0  0  0  0  0
  187.6940  177.3820  142.6750 C   0  0  0  0  0  0  0  0  0  0  0  0
  185.4450  179.0530  142.8080 C   0  0  0  0  0  3  0  0  0  0  0  0
  187.2290  178.0460  141.5270 C   0  0  0  0  0  3  0  0  0  0  0  0
  187.0220  177.5690  143.9000 C   0  0  0  0  0  0  0  0  0  0  0  0
  187.5180  176.9090  145.1470 C   0  0  0  0  0  1  0  0  0  0  0  0
  186.1030  178.8750  141.5890 C   0  0  0  0  0  0  0  0  0  0  0  0
  184.4660  179.1160  139.7510 C   0  0  0  0  0  1  0  0  0  0  0  0
  185.6240  179.5450  140.4560 O   0  0  0  0  0  0  0  0  0  0  0  0
  191.4340  175.4630  144.0020 C   0  0  0  0  0  2  0  0  0  0  0  0
  190.9590  176.6750  144.0810 C   0  0  2  0  0  3  0  0  0  0  0  0
  191.1630  177.1780  145.3920 N   0  0  0  0  0  0  0  0  0  0  0  0
  191.9810  176.3600  146.1020 O   0  0  0  0  0  0  0  0  0  0  0  0
  191.9920  175.1580  145.3530 C   0  0  0  0  0  2  0  0  0  0  0  0
  190.1880  178.0130  146.0790 C   0  0  0  0  0  2  0  0  0  0  0  0
  189.9300  177.4740  147.4820 C   0  0  0  0  0  2  0  0  0  0  0  0
  189.0370  178.4130  148.2840 C   0  0  0  0  0  2  0  0  0  0  0  0
  187.7860  177.6670  148.7400 C   0  0  0  0  0  1  0  0  0  0  0  0
  1  5  1  6  0  0  0
  1 25  1  0  0  0  0
  2  9  1  0  0  0  0
  2  5  2  0  0  0  0
  3  5  1  0  0  0  0
  4 13  1  0  0  0  0
  6  7  2  0  0  0  0
  7 11  1  0  0  0  0
  7  8  1  0  0  0  0
  8  3  2  0  0  0  0
  9 10  1  0  0  0  0
 10 16  1  6  0  0  0
 10  1  1  0  0  0  0
 11  2  1  0  0  0  0
 12  4  1  0  0  0  0
 12  6  1  0  0  0  0
 13 11  2  0  0  0  0
 14 15  1  0  0  0  0
 16 19  2  0  0  0  0
 17 14  2  0  0  0  0
 18 21  2  0  0  0  0
 18 16  1  0  0  0  0
 19 14  1  0  0  0  0
 19 20  1  0  0  0  0
 21 17  1  0  0  0  0
 22 23  1  0  0  0  0
 23 21  1  0  0  0  0
 24 28  1  0  0  0  0
 25 24  1  1  0  0  0
 25 26  1  0  0  0  0
 26 29  1  0  0  0  0
 26 27  1  0  0  0  0
 28 27  1  0  0  0  0
 29 30  1  0  0  0  0
 30 31  1  0  0  0  0
 31 32  1  0  0  0  0
M  END
>  <MODEL>
3

>  <REMARK>
 VINA RESULT:      -6.8      3.721      8.033
  Name = 
  6 active torsions:
  status: ('A' for Active; 'I' for Inactive)
    1  A    between atoms: C_1  and  C_5
    2  A    between atoms: C_13  and  C_18
    3  A    between atoms: N_14  and  C_29
    4  A    between atoms: O_15  and  C_26
    5  A    between atoms: C_16  and  C_27
    6  A    between atoms: C_18  and  C_29
                            x       y       z     vdW  Elec       q    Type
                         _______ _______ _______ _____ _____    ______ ____

>  <TORSDO>
F 6

$$$$
=
 OpenBabel10272413123D

 32 36  0  0  1  0  0  0  0  0999 V2000
  188.2150  176.5510  138.1060 C   0  0  1  0  0  3  0  0  0  0  0  0
  190.5600  176.4410  138.2680 C   0  0  0  0  0  0  0  0  0  0  0  0
  189.5540  174.4710  137.3260 C   0  0  0  0  0  3  0  0  0  0  0  0
  194.2140  175.9890  138.2630 N   0  0  0  0  0  2  0  0  0  0  0  0
  189.4460  175.7460  137.8770 C   0  0  0  0  0  0  0  0  0  0  0  0
  193.1290  174.0360  137.3430 C   0  0  0  0  0  3  0  0  0  0  0  0
  191.9330  174.6090  137.5330 C   0  0  0  0  0  0  0  0  0  0  0  0
  190.8010  173.9340  137.1680 N   0  0  0  0  0  0  0  0  0  0  0  0
  190.2300  177.7040  138.8220 N   0  0  0  0  0  2  0  0  0  0  0  0
  188.7670  177.8250  138.8080 C   0  0  2  0  0  3  0  0  0  0  0  0
  191.8400  175.9030  138.1070 C   0  0  0  0  0  0  0  0  0  0  0  0
  194.2930  174.7290  137.7020 O   0  0  0  0  0  0  0  0  0  0  0  0
  192.9310  176.5880  138.4670 C   0  0  0  0  0  3  0  0  0  0  0  0
  186.4050  178.3950  141.7560 C   0  0  0  0  0  0  0  0  0  0  0  0
  185.0980  178.7860  142.0070 O   0  0  0  0  0  1  0  0  0  0  0  0
  188.2250  177.9270  140.2090 C   0  0  0  0  0  0  0  0  0  0  0  0
  187.2200  178.0250  142.8260 C   0  0  0  0  0  3  0  0  0  0  0  0
  189.0280  177.5430  141.2960 C   0  0  0  0  0  3  0  0  0  0  0  0
  186.9030  178.3580  140.4450 C   0  0  0  0  0  0  0  0  0  0  0  0
  186.0110  178.7320  139.3040 C   0  0  0  0  0  1  0  0  0  0  0  0
  188.5310  177.5980  142.6040 C   0  0  0  0  0  0  0  0  0  0  0  0
  189.7950  178.1600  144.6540 C   0  0  0  0  0  1  0  0  0  0  0  0
  189.3160  177.2200  143.7010 O   0  0  0  0  0  0  0  0  0  0  0  0
  187.7910  178.0060  136.1360 C   0  0  0  0  0  2  0  0  0  0  0  0
  187.5560  176.9060  136.7960 C   0  0  2  0  0  3  0  0  0  0  0  0
  186.5070  176.1900  136.1630 N   0  0  0  0  0  0  0  0  0  0  0  0
  186.2160  176.7290  134.9520 O   0  0  0  0  0  0  0  0  0  0  0  0
  186.8340  178.0020  134.9900 C   0  0  0  0  0  2  0  0  0  0  0  0
  185.4870  175.4620  136.9040 C   0  0  0  0  0  2  0  0  0  0  0  0
  185.8460  173.9830  136.9790 C   0  0  0  0  0  2  0  0  0  0  0  0
  184.7970  173.1930  137.7530 C   0  0  0  0  0  2  0  0  0  0  0  0
  184.2280  172.0880  136.8680 C   0  0  0  0  0  1  0  0  0  0  0  0
  1  5  1  6  0  0  0
  1 10  1  0  0  0  0
  2  9  1  0  0  0  0
  3  5  1  0  0  0  0
  4 13  1  0  0  0  0
  5  2  2  0  0  0  0
  6  7  2  0  0  0  0
  6 12  1  0  0  0  0
  7 11  1  0  0  0  0
  8  3  2  0  0  0  0
  8  7  1  0  0  0  0
 10  9  1  0  0  0  0
 10 16  1  1  0  0  0
 11  2  1  0  0  0  0
 11 13  2  0  0  0  0
 12  4  1  0  0  0  0
 14 15  1  0  0  0  0
 14 17  1  0  0  0  0
 16 19  1  0  0  0  0
 16 18  2  0  0  0  0
 18 21  1  0  0  0  0
 19 14  2  0  0  0  0
 20 19  1  0  0  0  0
 21 17  2  0  0  0  0
 21 23  1  0  0  0  0
 23 22  1  0  0  0  0
 25 24  1  1  0  0  0
 25  1  1  0  0  0  0
 26 25  1  0  0  0  0
 26 29  1  0  0  0  0
 27 28  1  0  0  0  0
 27 26  1  0  0  0  0
 28 24  1  0  0  0  0
 29 30  1  0  0  0  0
 30 31  1  0  0  0  0
 32 31  1  0  0  0  0
M  END
>  <MODEL>
4

>  <REMARK>
 VINA RESULT:      -6.8      3.926      6.192
  Name = 
  6 active torsions:
  status: ('A' for Active; 'I' for Inactive)
    1  A    between atoms: C_1  and  C_5
    2  A    between atoms: C_13  and  C_18
    3  A    between atoms: N_14  and  C_29
    4  A    between atoms: O_15  and  C_26
    5  A    between atoms: C_16  and  C_27
    6  A    between atoms: C_18  and  C_29
                            x       y       z     vdW  Elec       q    Type
                         _______ _______ _______ _____ _____    ______ ____

>  <TORSDO>
F 6

$$$$
=
 OpenBabel10272413123D

 32 36  0  0  1  0  0  0  0  0999 V2000
  185.0200  178.0570  141.4690 C   0  0  1  0  0  3  0  0  0  0  0  0
  183.6060  179.1960  139.9730 C   0  0  0  0  0  0  0  0  0  0  0  0
  182.5120  177.4510  141.2120 C   0  0  0  0  0  3  0  0  0  0  0  0
  181.1000  180.8420  137.8350 N   0  0  0  0  0  2  0  0  0  0  0  0
  183.6520  178.1860  140.8970 C   0  0  0  0  0  0  0  0  0  0  0  0
  180.0750  179.0590  139.1030 C   0  0  0  0  0  3  0  0  0  0  0  0
  181.2560  178.7830  139.6740 C   0  0  0  0  0  0  0  0  0  0  0  0
  181.3380  177.7710  140.5890 N   0  0  0  0  0  0  0  0  0  0  0  0
  184.8750  179.8000  139.7830 N   0  0  0  0  0  2  0  0  0  0  0  0
  185.8320  179.1000  140.6490 C   0  0  2  0  0  3  0  0  0  0  0  0
  182.4100  179.5340  139.3330 C   0  0  0  0  0  0  0  0  0  0  0  0
  179.9820  180.1050  138.1760 O   0  0  0  0  0  0  0  0  0  0  0  0
  182.3570  180.5330  138.4450 C   0  0  0  0  0  3  0  0  0  0  0  0
  189.1670  177.5950  139.5490 C   0  0  0  0  0  0  0  0  0  0  0  0
  190.4620  177.4310  140.0180 O   0  0  0  0  0  1  0  0  0  0  0  0
  186.8910  178.4130  139.8290 C   0  0  0  0  0  0  0  0  0  0  0  0
  188.8190  177.0520  138.3120 C   0  0  0  0  0  3  0  0  0  0  0  0
  186.5540  177.8460  138.5880 C   0  0  0  0  0  3  0  0  0  0  0  0
  188.2110  178.2850  140.3100 C   0  0  0  0  0  0  0  0  0  0  0  0
  188.5890  178.8390  141.6460 C   0  0  0  0  0  1  0  0  0  0  0  0
  187.5160  177.1730  137.8250 C   0  0  0  0  0  0  0  0  0  0  0  0
  186.6920  177.3710  135.5020 C   0  0  0  0  0  1  0  0  0  0  0  0
  187.1990  176.6020  136.5860 O   0  0  0  0  0  0  0  0  0  0  0  0
  184.4820  179.4900  143.4270 C   0  0  0  0  0  2  0  0  0  0  0  0
  185.0240  178.4100  142.9350 C   0  0  2  0  0  3  0  0  0  0  0  0
  185.7160  177.7180  143.9630 N   0  0  0  0  0  0  0  0  0  0  0  0
  185.4260  178.2450  145.1800 O   0  0  0  0  0  0  0  0  0  0  0  0
  184.8390  179.4980  144.8770 C   0  0  0  0  0  2  0  0  0  0  0  0
  186.9850  177.0390  143.7440 C   0  0  0  0  0  2  0  0  0  0  0  0
  187.9170  177.2720  144.9280 C   0  0  0  0  0  2  0  0  0  0  0  0
  189.3510  176.8780  144.5940 C   0  0  0  0  0  2  0  0  0  0  0  0
  190.2870  178.0450  144.8940 C   0  0  0  0  0  1  0  0  0  0  0  0
  1  5  1  6  0  0  0
  1 25  1  0  0  0  0
  2  5  2  0  0  0  0
  4 12  1  0  0  0  0
  4 13  1  0  0  0  0
  5  3  1  0  0  0  0
  6  7  2  0  0  0  0
  7  8  1  0  0  0  0
  8  3  2  0  0  0  0
  9  2  1  0  0  0  0
  9 10  1  0  0  0  0
 10 16  1  6  0  0  0
 10  1  1  0  0  0  0
 11  7  1  0  0  0  0
 11  2  1  0  0  0  0
 12  6  1  0  0  0  0
 13 11  2  0  0  0  0
 14 15  1  0  0  0  0
 14 19  1  0  0  0  0
 16 19  2  0  0  0  0
 17 14  2  0  0  0  0
 18 16  1  0  0  0  0
 19 20  1  0  0  0  0
 21 17  1  0  0  0  0
 21 18  2  0  0  0  0
 22 23  1  0  0  0  0
 23 21  1  0  0  0  0
 24 28  1  0  0  0  0
 25 24  1  6  0  0  0
 25 26  1  0  0  0  0
 26 27  1  0  0  0  0
 28 27  1  0  0  0  0
 29 26  1  0  0  0  0
 29 30  1  0  0  0  0
 31 32  1  0  0  0  0
 31 30  1  0  0  0  0
M  END
>  <MODEL>
5

>  <REMARK>
 VINA RESULT:      -6.7      1.988      6.202
  Name = 
  6 active torsions:
  status: ('A' for Active; 'I' for Inactive)
    1  A    between atoms: C_1  and  C_5
    2  A    between atoms: C_13  and  C_18
    3  A    between atoms: N_14  and  C_29
    4  A    between atoms: O_15  and  C_26
    5  A    between atoms: C_16  and  C_27
    6  A    between atoms: C_18  and  C_29
                            x       y       z     vdW  Elec       q    Type
                         _______ _______ _______ _____ _____    ______ ____

>  <TORSDO>
F 6

$$$$
=
 OpenBabel10272413123D

 32 36  0  0  1  0  0  0  0  0999 V2000
  188.1570  178.2670  144.9090 C   0  0  1  0  0  3  0  0  0  0  0  0
  189.1490  177.3990  142.9600 C   0  0  0  0  0  0  0  0  0  0  0  0
  190.5100  179.0110  144.1130 C   0  0  0  0  0  3  0  0  0  0  0  0
  191.0360  176.1610  140.0510 N   0  0  0  0  0  2  0  0  0  0  0  0
  189.3330  178.2750  143.9970 C   0  0  0  0  0  0  0  0  0  0  0  0
  192.3370  177.8040  141.2530 C   0  0  0  0  0  3  0  0  0  0  0  0
  191.3400  177.9500  142.1360 C   0  0  0  0  0  0  0  0  0  0  0  0
  191.4870  178.8280  143.1740 N   0  0  0  0  0  0  0  0  0  0  0  0
  187.8790  176.7700  143.0160 N   0  0  0  0  0  2  0  0  0  0  0  0
  187.1700  177.3070  144.1850 C   0  0  2  0  0  3  0  0  0  0  0  0
  190.1430  177.2010  141.9980 C   0  0  0  0  0  0  0  0  0  0  0  0
  192.1980  176.8950  140.1960 O   0  0  0  0  0  0  0  0  0  0  0  0
  189.9750  176.3310  140.9960 C   0  0  0  0  0  3  0  0  0  0  0  0
  183.8250  179.1490  144.2970 C   0  0  0  0  0  0  0  0  0  0  0  0
  182.8620  179.5410  145.2150 O   0  0  0  0  0  1  0  0  0  0  0  0
  185.9310  178.0500  143.7630 C   0  0  0  0  0  0  0  0  0  0  0  0
  183.6730  179.5080  142.9580 C   0  0  0  0  0  3  0  0  0  0  0  0
  185.7700  178.4330  142.4210 C   0  0  0  0  0  3  0  0  0  0  0  0
  184.9470  178.4120  144.7070 C   0  0  0  0  0  0  0  0  0  0  0  0
  185.1110  178.0560  146.1500 C   0  0  0  0  0  1  0  0  0  0  0  0
  184.6410  179.1540  142.0150 C   0  0  0  0  0  0  0  0  0  0  0  0
  184.9540  178.7750  139.5910 C   0  0  0  0  0  1  0  0  0  0  0  0
  184.4620  179.5450  140.6820 O   0  0  0  0  0  0  0  0  0  0  0  0
  188.2500  178.3140  147.3920 C   0  0  0  0  0  2  0  0  0  0  0  0
  188.5330  177.7230  146.2650 C   0  0  2  0  0  3  0  0  0  0  0  0
  189.3500  176.5910  146.5170 N   0  0  0  0  0  0  0  0  0  0  0  0
  189.4070  176.3220  147.8460 O   0  0  0  0  0  0  0  0  0  0  0  0
  188.9220  177.5060  148.4530 C   0  0  0  0  0  2  0  0  0  0  0  0
  190.4460  176.1960  145.6440 C   0  0  0  0  0  2  0  0  0  0  0  0
  191.7830  176.5410  146.2890 C   0  0  0  0  0  2  0  0  0  0  0  0
  192.3630  175.3500  147.0420 C   0  0  0  0  0  2  0  0  0  0  0  0
  192.8040  175.7890  148.4350 C   0  0  0  0  0  1  0  0  0  0  0  0
  1  5  1  6  0  0  0
  1 25  1  0  0  0  0
  2  9  1  0  0  0  0
  2  5  2  0  0  0  0
  4 12  1  0  0  0  0
  4 13  1  0  0  0  0
  5  3  1  0  0  0  0
  6  7  2  0  0  0  0
  7  8  1  0  0  0  0
  8  3  2  0  0  0  0
  9 10  1  0  0  0  0
 10 16  1  6  0  0  0
 10  1  1  0  0  0  0
 11  7  1  0  0  0  0
 11  2  1  0  0  0  0
 12  6  1  0  0  0  0
 13 11  2  0  0  0  0
 14 19  1  0  0  0  0
 14 15  1  0  0  0  0
 16 19  2  0  0  0  0
 17 14  2  0  0  0  0
 18 16  1  0  0  0  0
 19 20  1  0  0  0  0
 21 18  2  0  0  0  0
 21 17  1  0  0  0  0
 22 23  1  0  0  0  0
 23 21  1  0  0  0  0
 24 28  1  0  0  0  0
 25 26  1  0  0  0  0
 25 24  1  1  0  0  0
 26 27  1  0  0  0  0
 27 28  1  0  0  0  0
 29 30  1  0  0  0  0
 29 26  1  0  0  0  0
 30 31  1  0  0  0  0
 31 32  1  0  0  0  0
M  END
>  <MODEL>
6

>  <REMARK>
 VINA RESULT:      -6.6      3.623      8.139
  Name = 
  6 active torsions:
  status: ('A' for Active; 'I' for Inactive)
    1  A    between atoms: C_1  and  C_5
    2  A    between atoms: C_13  and  C_18
    3  A    between atoms: N_14  and  C_29
    4  A    between atoms: O_15  and  C_26
    5  A    between atoms: C_16  and  C_27
    6  A    between atoms: C_18  and  C_29
                            x       y       z     vdW  Elec       q    Type
                         _______ _______ _______ _____ _____    ______ ____

>  <TORSDO>
F 6

$$$$
=
 OpenBabel10272413123D

 32 36  0  0  1  0  0  0  0  0999 V2000
  190.2590  177.3540  142.9680 C   0  0  1  0  0  3  0  0  0  0  0  0
  190.4390  176.6130  140.7420 C   0  0  0  0  0  0  0  0  0  0  0  0
  192.2870  177.9670  141.4720 C   0  0  0  0  0  3  0  0  0  0  0  0
  191.0940  175.5290  137.2850 N   0  0  0  0  0  2  0  0  0  0  0  0
  191.0590  177.3540  141.7130 C   0  0  0  0  0  0  0  0  0  0  0  0
  192.9060  176.9130  138.0840 C   0  0  0  0  0  3  0  0  0  0  0  0
  192.2830  177.0520  139.2620 C   0  0  0  0  0  0  0  0  0  0  0  0
  192.8690  177.7990  140.2470 N   0  0  0  0  0  0  0  0  0  0  0  0
  189.1940  176.0970  141.1830 N   0  0  0  0  0  2  0  0  0  0  0  0
  188.9810  176.5680  142.5570 C   0  0  2  0  0  3  0  0  0  0  0  0
  191.0280  176.4320  139.4870 C   0  0  0  0  0  0  0  0  0  0  0  0
  192.3180  176.1380  137.0770 O   0  0  0  0  0  0  0  0  0  0  0  0
  190.4350  175.6910  138.5440 C   0  0  0  0  0  3  0  0  0  0  0  0
  186.1210  178.9030  141.5790 C   0  0  0  0  0  0  0  0  0  0  0  0
  185.6070  179.5380  140.4580 O   0  0  0  0  0  1  0  0  0  0  0  0
  187.7700  177.4580  142.6360 C   0  0  0  0  0  0  0  0  0  0  0  0
  185.4600  179.0410  142.8010 C   0  0  0  0  0  3  0  0  0  0  0  0
  187.0830  177.5940  143.8540 C   0  0  0  0  0  3  0  0  0  0  0  0
  187.2820  178.1210  141.4910 C   0  0  0  0  0  0  0  0  0  0  0  0
  187.9660  177.9600  140.1710 C   0  0  0  0  0  1  0  0  0  0  0  0
  185.9340  178.3900  143.9410 C   0  0  0  0  0  0  0  0  0  0  0  0
  183.8370  178.7880  145.1900 C   0  0  0  0  0  1  0  0  0  0  0  0
  185.2360  178.5380  145.1460 O   0  0  0  0  0  0  0  0  0  0  0  0
  191.6070  175.4960  143.9210 C   0  0  0  0  0  2  0  0  0  0  0  0
  190.9950  176.6380  144.0730 C   0  0  2  0  0  3  0  0  0  0  0  0
  191.0200  177.0110  145.4420 N   0  0  0  0  0  0  0  0  0  0  0  0
  191.8560  176.2050  146.1460 O   0  0  0  0  0  0  0  0  0  0  0  0
  192.0690  175.1010  145.2850 C   0  0  0  0  0  2  0  0  0  0  0  0
  189.9000  177.6610  146.1060 C   0  0  0  0  0  2  0  0  0  0  0  0
  189.7350  177.1120  147.5180 C   0  0  0  0  0  2  0  0  0  0  0  0
  188.8860  178.0380  148.3810 C   0  0  0  0  0  2  0  0  0  0  0  0
  187.4580  178.0750  147.8450 C   0  0  0  0  0  1  0  0  0  0  0  0
  1  5  1  6  0  0  0
  1 25  1  0  0  0  0
  2  9  1  0  0  0  0
  2  5  2  0  0  0  0
  3  5  1  0  0  0  0
  4 13  1  0  0  0  0
  6  7  2  0  0  0  0
  7 11  1  0  0  0  0
  7  8  1  0  0  0  0
  8  3  2  0  0  0  0
  9 10  1  0  0  0  0
 10 16  1  6  0  0  0
 10  1  1  0  0  0  0
 11  2  1  0  0  0  0
 12  4  1  0  0  0  0
 12  6  1  0  0  0  0
 13 11  2  0  0  0  0
 14 17  1  0  0  0  0
 15 14  1  0  0  0  0
 16 18  2  0  0  0  0
 17 21  2  0  0  0  0
 18 21  1  0  0  0  0
 19 14  2  0  0  0  0
 19 16  1  0  0  0  0
 20 19  1  0  0  0  0
 21 23  1  0  0  0  0
 23 22  1  0  0  0  0
 24 28  1  0  0  0  0
 25 24  1  1  0  0  0
 25 26  1  0  0  0  0
 26 29  1  0  0  0  0
 26 27  1  0  0  0  0
 28 27  1  0  0  0  0
 29 30  1  0  0  0  0
 30 31  1  0  0  0  0
 32 31  1  0  0  0  0
M  END
>  <MODEL>
7

>  <REMARK>
 VINA RESULT:      -6.4      4.218      8.122
  Name = 
  6 active torsions:
  status: ('A' for Active; 'I' for Inactive)
    1  A    between atoms: C_1  and  C_5
    2  A    between atoms: C_13  and  C_18
    3  A    between atoms: N_14  and  C_29
    4  A    between atoms: O_15  and  C_26
    5  A    between atoms: C_16  and  C_27
    6  A    between atoms: C_18  and  C_29
                            x       y       z     vdW  Elec       q    Type
                         _______ _______ _______ _____ _____    ______ ____

>  <TORSDO>
F 6

$$$$
=
 OpenBabel10272413123D

 32 36  0  0  1  0  0  0  0  0999 V2000
  189.0990  177.9470  141.5830 C   0  0  1  0  0  3  0  0  0  0  0  0
  190.3630  176.5790  143.0210 C   0  0  0  0  0  0  0  0  0  0  0  0
  190.1030  178.8380  143.8020 C   0  0  0  0  0  3  0  0  0  0  0  0
  192.2690  174.6940  145.5440 N   0  0  0  0  0  2  0  0  0  0  0  0
  189.8750  177.8470  142.8500 C   0  0  0  0  0  0  0  0  0  0  0  0
  191.9820  176.9860  146.2540 C   0  0  0  0  0  3  0  0  0  0  0  0
  191.3020  177.2500  145.1310 C   0  0  0  0  0  0  0  0  0  0  0  0
  190.8140  178.5110  144.9230 N   0  0  0  0  0  0  0  0  0  0  0  0
  190.0390  175.7340  141.9290 N   0  0  0  0  0  2  0  0  0  0  0  0
  189.2910  176.5380  140.9540 C   0  0  2  0  0  3  0  0  0  0  0  0
  191.0880  176.2330  144.1650 C   0  0  0  0  0  0  0  0  0  0  0  0
  192.4710  175.6920  146.4790 O   0  0  0  0  0  0  0  0  0  0  0  0
  191.5480  174.9900  144.3450 C   0  0  0  0  0  3  0  0  0  0  0  0
  190.1060  177.0530  137.2570 C   0  0  0  0  0  0  0  0  0  0  0  0
  189.4670  177.3470  136.0620 O   0  0  0  0  0  1  0  0  0  0  0  0
  190.0470  176.6420  139.6560 C   0  0  0  0  0  0  0  0  0  0  0  0
  191.4950  176.9130  137.2680 C   0  0  0  0  0  3  0  0  0  0  0  0
  191.4460  176.5190  139.6520 C   0  0  0  0  0  3  0  0  0  0  0  0
  189.3740  176.9090  138.4450 C   0  0  0  0  0  0  0  0  0  0  0  0
  187.8890  177.0870  138.4250 C   0  0  0  0  0  1  0  0  0  0  0  0
  192.1710  176.6480  138.4610 C   0  0  0  0  0  0  0  0  0  0  0  0
  194.2210  175.3120  138.0990 C   0  0  0  0  0  1  0  0  0  0  0  0
  193.5660  176.5290  138.4370 O   0  0  0  0  0  0  0  0  0  0  0  0
  186.9710  179.2140  141.3690 C   0  0  0  0  0  2  0  0  0  0  0  0
  187.6410  178.2110  141.8670 C   0  0  2  0  0  3  0  0  0  0  0  0
  186.8290  177.5160  142.7990 N   0  0  0  0  0  0  0  0  0  0  0  0
  185.5420  177.9440  142.7330 O   0  0  0  0  0  0  0  0  0  0  0  0
  185.6270  179.1630  142.0170 C   0  0  0  0  0  2  0  0  0  0  0  0
  187.3490  176.9530  144.0360 C   0  0  0  0  0  2  0  0  0  0  0  0
  186.9670  177.8370  145.2180 C   0  0  0  0  0  2  0  0  0  0  0  0
  187.7870  177.4960  146.4570 C   0  0  0  0  0  2  0  0  0  0  0  0
  187.1490  178.1350  147.6870 C   0  0  0  0  0  1  0  0  0  0  0  0
  1 25  1  0  0  0  0
  1  5  1  1  0  0  0
  2 11  1  0  0  0  0
  3  8  2  0  0  0  0
  4 12  1  0  0  0  0
  5  2  2  0  0  0  0
  5  3  1  0  0  0  0
  6 12  1  0  0  0  0
  7  6  2  0  0  0  0
  8  7  1  0  0  0  0
  9  2  1  0  0  0  0
 10 16  1  6  0  0  0
 10  1  1  0  0  0  0
 10  9  1  0  0  0  0
 11 13  2  0  0  0  0
 11  7  1  0  0  0  0
 13  4  1  0  0  0  0
 14 17  2  0  0  0  0
 14 19  1  0  0  0  0
 15 14  1  0  0  0  0
 17 21  1  0  0  0  0
 18 16  1  0  0  0  0
 19 16  2  0  0  0  0
 20 19  1  0  0  0  0
 21 18  2  0  0  0  0
 22 23  1  0  0  0  0
 23 21  1  0  0  0  0
 24 28  1  0  0  0  0
 25 24  1  1  0  0  0
 25 26  1  0  0  0  0
 26 29  1  0  0  0  0
 27 26  1  0  0  0  0
 28 27  1  0  0  0  0
 29 30  1  0  0  0  0
 30 31  1  0  0  0  0
 31 32  1  0  0  0  0
M  END
>  <MODEL>
8

>  <REMARK>
 VINA RESULT:      -6.4      4.034      8.446
  Name = 
  6 active torsions:
  status: ('A' for Active; 'I' for Inactive)
    1  A    between atoms: C_1  and  C_5
    2  A    between atoms: C_13  and  C_18
    3  A    between atoms: N_14  and  C_29
    4  A    between atoms: O_15  and  C_26
    5  A    between atoms: C_16  and  C_27
    6  A    between atoms: C_18  and  C_29
                            x       y       z     vdW  Elec       q    Type
                         _______ _______ _______ _____ _____    ______ ____

>  <TORSDO>
F 6

$$$$
=
 OpenBabel10272413123D

 32 36  0  0  1  0  0  0  0  0999 V2000
  189.6950  177.2690  142.2630 C   0  0  1  0  0  3  0  0  0  0  0  0
  187.5610  178.1850  141.8800 C   0  0  0  0  0  0  0  0  0  0  0  0
  187.6730  176.7400  143.7990 C   0  0  0  0  0  3  0  0  0  0  0  0
  184.1430  179.5320  141.6450 N   0  0  0  0  0  2  0  0  0  0  0  0
  188.2760  177.3550  142.7040 C   0  0  0  0  0  0  0  0  0  0  0  0
  184.3290  178.0520  143.5460 C   0  0  0  0  0  3  0  0  0  0  0  0
  185.6170  177.8300  143.2500 C   0  0  0  0  0  0  0  0  0  0  0  0
  186.3530  176.9950  144.0430 N   0  0  0  0  0  0  0  0  0  0  0  0
  188.3530  178.6880  140.8170 N   0  0  0  0  0  2  0  0  0  0  0  0
  189.6970  178.1120  140.9550 C   0  0  2  0  0  3  0  0  0  0  0  0
  186.2120  178.4560  142.1240 C   0  0  0  0  0  0  0  0  0  0  0  0
  183.5730  178.9180  142.7450 O   0  0  0  0  0  0  0  0  0  0  0  0
  185.5170  179.2820  141.3350 C   0  0  0  0  0  3  0  0  0  0  0  0
  191.6480  176.0590  138.3920 C   0  0  0  0  0  0  0  0  0  0  0  0
  192.9550  175.6980  138.0960 O   0  0  0  0  0  1  0  0  0  0  0  0
  190.0300  177.2430  139.7720 C   0  0  0  0  0  0  0  0  0  0  0  0
  190.6100  175.5510  137.6100 C   0  0  0  0  0  3  0  0  0  0  0  0
  188.9950  176.7100  138.9850 C   0  0  0  0  0  3  0  0  0  0  0  0
  191.3680  176.9130  139.4690 C   0  0  0  0  0  0  0  0  0  0  0  0
  192.4880  177.4290  140.3150 C   0  0  0  0  0  1  0  0  0  0  0  0
  189.2820  175.8720  137.9010 C   0  0  0  0  0  0  0  0  0  0  0  0
  186.9410  175.8520  137.1060 C   0  0  0  0  0  1  0  0  0  0  0  0
  188.2640  175.3320  137.1050 O   0  0  0  0  0  0  0  0  0  0  0  0
  190.9710  179.1330  143.3000 C   0  0  0  0  0  2  0  0  0  0  0  0
  190.6140  177.8790  143.2930 C   0  0  2  0  0  3  0  0  0  0  0  0
  191.3240  177.1780  144.3020 N   0  0  0  0  0  0  0  0  0  0  0  0
  191.9820  178.0420  145.1170 O   0  0  0  0  0  0  0  0  0  0  0  0
  191.9780  179.2600  144.3950 C   0  0  0  0  0  2  0  0  0  0  0  0
  191.8180  175.8210  144.1250 C   0  0  0  0  0  2  0  0  0  0  0  0
  191.9820  175.1400  145.4790 C   0  0  0  0  0  2  0  0  0  0  0  0
  191.5060  176.0360  146.6150 C   0  0  0  0  0  2  0  0  0  0  0  0
  192.3570  175.7880  147.8560 C   0  0  0  0  0  1  0  0  0  0  0  0
  1  5  1  1  0  0  0
  1 25  1  0  0  0  0
  2 11  1  0  0  0  0
  2  5  2  0  0  0  0
  3  8  2  0  0  0  0
  4 12  1  0  0  0  0
  5  3  1  0  0  0  0
  7  6  2  0  0  0  0
  7  8  1  0  0  0  0
  9 10  1  0  0  0  0
  9  2  1  0  0  0  0
 10 16  1  6  0  0  0
 10  1  1  0  0  0  0
 11  7  1  0  0  0  0
 12  6  1  0  0  0  0
 13  4  1  0  0  0  0
 13 11  2  0  0  0  0
 14 19  1  0  0  0  0
 15 14  1  0  0  0  0
 17 21  1  0  0  0  0
 17 14  2  0  0  0  0
 18 16  1  0  0  0  0
 19 16  2  0  0  0  0
 19 20  1  0  0  0  0
 21 18  2  0  0  0  0
 23 22  1  0  0  0  0
 23 21  1  0  0  0  0
 24 28  1  0  0  0  0
 25 24  1  6  0  0  0
 25 26  1  0  0  0  0
 26 27  1  0  0  0  0
 28 27  1  0  0  0  0
 29 26  1  0  0  0  0
 29 30  1  0  0  0  0
 30 31  1  0  0  0  0
 31 32  1  0  0  0  0
M  END
>  <MODEL>
9

>  <REMARK>
 VINA RESULT:      -6.4      3.654      8.805
  Name = 
  6 active torsions:
  status: ('A' for Active; 'I' for Inactive)
    1  A    between atoms: C_1  and  C_5
    2  A    between atoms: C_13  and  C_18
    3  A    between atoms: N_14  and  C_29
    4  A    between atoms: O_15  and  C_26
    5  A    between atoms: C_16  and  C_27
    6  A    between atoms: C_18  and  C_29
                            x       y       z     vdW  Elec       q    Type
                         _______ _______ _______ _____ _____    ______ ____

>  <TORSDO>
F 6

$$$$
