=
 OpenBabel10272402113D

 32 37  0  0  1  0  0  0  0  0999 V2000
  182.6810  179.2280  141.6180 C   0  0  1  0  0  3  0  0  0  0  0  0
  184.9370  179.1900  142.7360 C   0  0  1  0  0  3  0  0  0  0  0  0
  182.3830  176.3160  137.8480 C   0  0  0  0  0  0  0  0  0  0  0  0
  181.2630  178.6440  141.7180 C   0  0  0  0  0  2  0  0  0  0  0  0
  183.4870  178.7470  142.8240 C   0  0  1  0  0  3  0  0  0  0  0  0
  185.7490  178.7750  143.9880 C   0  0  2  0  0  3  0  0  0  0  0  0
  181.1370  179.2780  135.9070 F   0  0  0  0  0  0  0  0  0  0  0  0
  181.9630  175.0970  137.4310 F   0  0  0  0  0  0  0  0  0  0  0  0
  185.5310  178.6410  141.4380 C   0  0  1  0  0  3  0  0  0  0  0  0
  187.7290  178.1780  142.5380 N   0  0  0  0  0  0  0  0  0  0  0  0
  182.8540  179.2970  144.1010 C   0  0  2  0  0  3  0  0  0  0  0  0
  182.1100  179.6460  137.9710 C   0  0  0  0  0  3  0  0  0  0  0  0
  183.1080  177.7740  139.5660 C   0  0  0  0  0  0  0  0  0  0  0  0
  186.8460  177.7510  143.6410 C   0  0  0  0  0  2  0  0  0  0  0  0
  183.6630  179.0860  145.3160 N   0  0  0  0  0  2  0  0  0  0  0  0
  182.5080  177.4190  136.7830 C   0  0  0  0  0  3  0  0  0  0  0  0
  182.7960  179.0900  139.1070 C   0  0  0  0  0  0  0  0  0  0  0  0
  181.4530  178.7100  144.2500 C   0  0  0  0  0  2  0  0  0  0  0  0
  182.8660  176.4350  139.1010 C   0  0  1  0  0  3  0  0  0  0  0  0
  182.9020  175.3810  139.9560 F   0  0  0  0  0  0  0  0  0  0  0  0
  184.8750  179.2540  140.2820 N   0  0  0  0  0  2  0  0  0  0  0  0
  181.8400  178.7950  136.9600 C   0  0  0  0  0  0  0  0  0  0  0  0
  183.4530  178.8950  140.3210 C   0  0  1  0  0  0  0  0  0  0  0  0
  187.0280  178.9290  141.4660 C   0  0  1  0  0  3  0  0  0  0  0  0
  184.8360  178.2240  145.1050 C   0  0  2  0  0  3  0  0  0  0  0  0
  180.5990  179.0820  143.0300 C   0  0  0  0  0  2  0  0  0  0  0  0
  187.6170  178.7560  140.2200 F   0  0  0  0  0  0  0  0  0  0  0  0
  185.6090  178.0930  146.4070 C   0  0  0  0  0  2  0  0  0  0  0  0
  185.5510  179.2940  147.1150 O   0  0  0  0  0  1  0  0  0  0  0  0
  188.2920  176.9480  141.9880 C   0  0  0  0  0  2  0  0  0  0  0  0
  190.2410  175.8030  142.9430 C   0  0  0  0  0  2  0  0  0  0  0  0
  188.9650  176.1590  143.0620 C   0  0  0  0  0  3  0  0  0  0  0  0
  1  4  1  6  0  0  0
  1  5  1  0  0  0  0
  2  5  1  0  0  0  0
  2  6  1  0  0  0  0
  3 19  1  0  0  0  0
  4 26  1  0  0  0  0
  5 11  1  0  0  0  0
  6 25  1  0  0  0  0
  7 22  1  0  0  0  0
  8  3  1  0  0  0  0
  9 24  1  0  0  0  0
  9  2  1  0  0  0  0
 10 14  1  0  0  0  0
 11 18  1  0  0  0  0
 11 15  1  0  0  0  0
 12 17  1  0  0  0  0
 13 23  1  0  0  0  0
 14  6  1  0  0  0  0
 16 22  1  0  0  0  0
 16  3  2  0  0  0  0
 17 13  2  0  0  0  0
 17 23  1  0  0  0  0
 19 13  1  0  0  0  0
 19 20  1  0  0  0  0
 21 23  1  0  0  0  0
 21  9  1  0  0  0  0
 22 12  2  0  0  0  0
 23  1  1  0  0  0  0
 24 10  1  0  0  0  0
 25 15  1  0  0  0  0
 25 28  1  0  0  0  0
 26 18  1  0  0  0  0
 27 24  1  0  0  0  0
 28 29  1  0  0  0  0
 30 10  1  0  0  0  0
 30 32  1  0  0  0  0
 31 32  2  0  0  0  0
M  END
>  <MODEL>
1

>  <REMARK>
 VINA RESULT:      -8.7      0.000      0.000
  Name = 
  3 active torsions:
  status: ('A' for Active; 'I' for Inactive)
    1  A    between atoms: C_11  and  N_12
    2  A    between atoms: C_11  and  C_31
    3  A    between atoms: C_13  and  CA_29
                            x       y       z     vdW  Elec       q    Type
                         _______ _______ _______ _____ _____    ______ ____

>  <TORSDO>
F 3

$$$$
=
 OpenBabel10272402113D

 32 37  0  0  1  0  0  0  0  0999 V2000
  183.8420  179.1860  141.7140 C   0  0  1  0  0  3  0  0  0  0  0  0
  186.3150  178.8730  142.0680 C   0  0  1  0  0  3  0  0  0  0  0  0
  182.1510  176.8170  137.9310 C   0  0  0  0  0  0  0  0  0  0  0  0
  182.4710  178.6750  142.1850 C   0  0  0  0  0  2  0  0  0  0  0  0
  184.9240  178.5050  142.5530 C   0  0  1  0  0  3  0  0  0  0  0  0
  187.4220  178.2510  142.9540 C   0  0  2  0  0  3  0  0  0  0  0  0
  180.6650  180.0750  136.8030 F   0  0  0  0  0  0  0  0  0  0  0  0
  181.5120  175.6890  137.5350 F   0  0  0  0  0  0  0  0  0  0  0  0
  186.4370  178.4660  140.5980 C   0  0  1  0  0  3  0  0  0  0  0  0
  188.8100  177.7380  140.9060 N   0  0  0  0  0  0  0  0  0  0  0  0
  184.7590  178.9170  144.0130 C   0  0  2  0  0  3  0  0  0  0  0  0
  182.2430  180.1130  138.4920 C   0  0  0  0  0  3  0  0  0  0  0  0
  183.4930  177.9920  139.4870 C   0  0  0  0  0  0  0  0  0  0  0  0
  188.2630  177.2210  142.1760 C   0  0  0  0  0  2  0  0  0  0  0  0
  185.8710  178.5020  144.8880 N   0  0  0  0  0  2  0  0  0  0  0  0
  182.0530  178.0430  137.0050 C   0  0  0  0  0  3  0  0  0  0  0  0
  183.1830  179.3740  139.2920 C   0  0  0  0  0  0  0  0  0  0  0  0
  183.4180  178.3960  144.5250 C   0  0  0  0  0  2  0  0  0  0  0  0
  182.9970  176.7430  138.9780 C   0  0  1  0  0  3  0  0  0  0  0  0
  183.1880  175.5850  139.6600 F   0  0  0  0  0  0  0  0  0  0  0  0
  185.5250  179.2620  139.7750 N   0  0  0  0  0  2  0  0  0  0  0  0
  181.6030  179.4190  137.5280 C   0  0  0  0  0  0  0  0  0  0  0  0
  184.1530  178.9830  140.2150 C   0  0  1  0  0  0  0  0  0  0  0  0
  187.8930  178.6630  140.1920 C   0  0  1  0  0  3  0  0  0  0  0  0
  186.8400  177.6100  144.2320 C   0  0  2  0  0  3  0  0  0  0  0  0
  182.2760  178.9740  143.6770 C   0  0  0  0  0  2  0  0  0  0  0  0
  188.0610  178.6220  138.8130 F   0  0  0  0  0  0  0  0  0  0  0  0
  187.9520  177.2650  145.2090 C   0  0  0  0  0  2  0  0  0  0  0  0
  187.4960  177.4170  146.5190 O   0  0  0  0  0  1  0  0  0  0  0  0
  189.0630  176.5620  140.0800 C   0  0  0  0  0  2  0  0  0  0  0  0
  191.3970  177.3110  140.1900 C   0  0  0  0  0  2  0  0  0  0  0  0
  190.4750  176.5620  139.5930 C   0  0  0  0  0  3  0  0  0  0  0  0
  1  4  1  1  0  0  0
  1  5  1  0  0  0  0
  2  5  1  0  0  0  0
  2  6  1  0  0  0  0
  3 19  1  0  0  0  0
  4 26  1  0  0  0  0
  5 11  1  0  0  0  0
  6 25  1  0  0  0  0
  7 22  1  0  0  0  0
  8  3  1  0  0  0  0
  9  2  1  0  0  0  0
 10 14  1  0  0  0  0
 11 18  1  0  0  0  0
 11 15  1  0  0  0  0
 12 17  1  0  0  0  0
 13 23  1  0  0  0  0
 14  6  1  0  0  0  0
 16 22  1  0  0  0  0
 16  3  2  0  0  0  0
 17 13  2  0  0  0  0
 17 23  1  0  0  0  0
 19 13  1  0  0  0  0
 19 20  1  0  0  0  0
 21 23  1  0  0  0  0
 21  9  1  0  0  0  0
 22 12  2  0  0  0  0
 23  1  1  0  0  0  0
 24  9  1  0  0  0  0
 24 10  1  0  0  0  0
 25 15  1  0  0  0  0
 25 28  1  0  0  0  0
 26 18  1  0  0  0  0
 27 24  1  0  0  0  0
 28 29  1  0  0  0  0
 30 10  1  0  0  0  0
 32 30  1  0  0  0  0
 32 31  2  0  0  0  0
M  END
>  <MODEL>
2

>  <REMARK>
 VINA RESULT:      -7.8      1.449      1.767
  Name = 
  3 active torsions:
  status: ('A' for Active; 'I' for Inactive)
    1  A    between atoms: C_11  and  N_12
    2  A    between atoms: C_11  and  C_31
    3  A    between atoms: C_13  and  CA_29
                            x       y       z     vdW  Elec       q    Type
                         _______ _______ _______ _____ _____    ______ ____

>  <TORSDO>
F 3

$$$$
=
 OpenBabel10272402113D

 32 37  0  0  1  0  0  0  0  0999 V2000
  185.2080  178.9200  140.7010 C   0  0  1  0  0  3  0  0  0  0  0  0
  187.4990  178.4900  139.7490 C   0  0  1  0  0  3  0  0  0  0  0  0
  181.6960  176.8950  138.1820 C   0  0  0  0  0  0  0  0  0  0  0  0
  184.2240  178.4290  141.7740 C   0  0  0  0  0  2  0  0  0  0  0  0
  186.5140  178.1410  140.8510 C   0  0  1  0  0  3  0  0  0  0  0  0
  188.8550  177.7650  139.9300 C   0  0  2  0  0  3  0  0  0  0  0  0
  180.0730  180.2790  138.0960 F   0  0  0  0  0  0  0  0  0  0  0  0
  180.8690  175.8230  138.1130 F   0  0  0  0  0  0  0  0  0  0  0  0
  186.8430  178.1860  138.4010 C   0  0  1  0  0  3  0  0  0  0  0  0
  188.9960  177.3490  137.4420 N   0  0  0  0  0  0  0  0  0  0  0  0
  187.1300  178.4530  142.2130 C   0  0  2  0  0  3  0  0  0  0  0  0
  182.2820  180.1360  138.7620 C   0  0  0  0  0  3  0  0  0  0  0  0
  183.7130  177.9040  138.9010 C   0  0  0  0  0  0  0  0  0  0  0  0
  189.1220  176.7630  138.7920 C   0  0  0  0  0  2  0  0  0  0  0  0
  188.4990  177.9350  142.3910 N   0  0  0  0  0  2  0  0  0  0  0  0
  181.2330  178.1860  137.4840 C   0  0  0  0  0  3  0  0  0  0  0  0
  183.4420  179.3060  138.9480 C   0  0  0  0  0  0  0  0  0  0  0  0
  186.1920  177.9480  143.3060 C   0  0  0  0  0  2  0  0  0  0  0  0
  182.9440  176.7130  138.6580 C   0  0  1  0  0  3  0  0  0  0  0  0
  183.3710  175.5040  139.1000 F   0  0  0  0  0  0  0  0  0  0  0  0
  185.6980  179.0730  138.1830 N   0  0  0  0  0  2  0  0  0  0  0  0
  181.2000  179.5370  138.2220 C   0  0  0  0  0  0  0  0  0  0  0  0
  184.7140  178.8140  139.2400 C   0  0  1  0  0  0  0  0  0  0  0  0
  187.9110  178.3560  137.3270 C   0  0  1  0  0  3  0  0  0  0  0  0
  188.9470  177.0570  141.2990 C   0  0  2  0  0  3  0  0  0  0  0  0
  184.8220  178.6280  143.1730 C   0  0  0  0  0  2  0  0  0  0  0  0
  187.3650  178.4080  136.0500 F   0  0  0  0  0  0  0  0  0  0  0  0
  190.3720  176.6010  141.5680 C   0  0  0  0  0  2  0  0  0  0  0  0
  190.3720  175.5910  142.5310 O   0  0  0  0  0  1  0  0  0  0  0  0
  188.7210  176.2260  136.5510 C   0  0  0  0  0  2  0  0  0  0  0  0
  186.7600  174.7860  136.8710 C   0  0  0  0  0  2  0  0  0  0  0  0
  187.9700  175.1580  137.2770 C   0  0  0  0  0  3  0  0  0  0  0  0
  1  5  1  0  0  0  0
  1  4  1  1  0  0  0
  2  6  1  0  0  0  0
  2  5  1  0  0  0  0
  3 19  1  0  0  0  0
  4 26  1  0  0  0  0
  5 11  1  0  0  0  0
  6 25  1  0  0  0  0
  7 22  1  0  0  0  0
  8  3  1  0  0  0  0
  9  2  1  0  0  0  0
 10 14  1  0  0  0  0
 11 15  1  0  0  0  0
 11 18  1  0  0  0  0
 12 17  1  0  0  0  0
 13 17  2  0  0  0  0
 13 23  1  0  0  0  0
 14  6  1  0  0  0  0
 16  3  2  0  0  0  0
 16 22  1  0  0  0  0
 17 23  1  0  0  0  0
 19 13  1  0  0  0  0
 19 20  1  0  0  0  0
 21  9  1  0  0  0  0
 21 23  1  0  0  0  0
 22 12  2  0  0  0  0
 23  1  1  0  0  0  0
 24 10  1  0  0  0  0
 24  9  1  0  0  0  0
 25 28  1  0  0  0  0
 25 15  1  0  0  0  0
 26 18  1  0  0  0  0
 27 24  1  0  0  0  0
 28 29  1  0  0  0  0
 30 32  1  0  0  0  0
 30 10  1  0  0  0  0
 31 32  2  0  0  0  0
M  END
>  <MODEL>
3

>  <REMARK>
 VINA RESULT:      -7.6      2.866      4.171
  Name = 
  3 active torsions:
  status: ('A' for Active; 'I' for Inactive)
    1  A    between atoms: C_11  and  N_12
    2  A    between atoms: C_11  and  C_31
    3  A    between atoms: C_13  and  CA_29
                            x       y       z     vdW  Elec       q    Type
                         _______ _______ _______ _____ _____    ______ ____

>  <TORSDO>
F 3

$$$$
=
 OpenBabel10272402113D

 32 37  0  0  1  0  0  0  0  0999 V2000
  190.1740  177.2950  136.6330 C   0  0  1  0  0  3  0  0  0  0  0  0
  189.6040  177.9940  138.9840 C   0  0  1  0  0  3  0  0  0  0  0  0
  192.4250  173.0930  136.3950 C   0  0  0  0  0  0  0  0  0  0  0  0
  189.5780  176.6310  135.3820 C   0  0  0  0  0  2  0  0  0  0  0  0
  189.0650  177.4490  137.6730 C   0  0  1  0  0  3  0  0  0  0  0  0
  188.4800  178.2250  140.0240 C   0  0  2  0  0  3  0  0  0  0  0  0
  195.0450  174.8360  134.3460 F   0  0  0  0  0  0  0  0  0  0  0  0
  192.2580  171.7680  136.1660 F   0  0  0  0  0  0  0  0  0  0  0  0
  190.6910  177.0440  139.4910 C   0  0  1  0  0  3  0  0  0  0  0  0
  189.9650  177.3420  141.8660 N   0  0  0  0  0  0  0  0  0  0  0  0
  187.9910  178.3860  137.1260 C   0  0  2  0  0  3  0  0  0  0  0  0
  193.5140  176.1260  135.5010 C   0  0  0  0  0  3  0  0  0  0  0  0
  191.5670  175.2000  137.0500 C   0  0  0  0  0  0  0  0  0  0  0  0
  188.6290  177.2930  141.2410 C   0  0  0  0  0  2  0  0  0  0  0  0
  186.9760  178.7870  138.1180 N   0  0  0  0  0  2  0  0  0  0  0  0
  193.8290  173.6770  136.1570 C   0  0  0  0  0  3  0  0  0  0  0  0
  192.4160  176.1670  136.4300 C   0  0  0  0  0  0  0  0  0  0  0  0
  187.3520  177.7410  135.8980 C   0  0  0  0  0  2  0  0  0  0  0  0
  191.4340  173.7690  137.0110 C   0  0  1  0  0  3  0  0  0  0  0  0
  190.2720  173.1650  137.3670 F   0  0  0  0  0  0  0  0  0  0  0  0
  191.8350  177.0490  138.5780 N   0  0  0  0  0  2  0  0  0  0  0  0
  194.0520  174.9120  135.2660 C   0  0  0  0  0  0  0  0  0  0  0  0
  191.3770  176.5640  137.2710 C   0  0  1  0  0  0  0  0  0  0  0  0
  191.0760  177.5020  140.8930 C   0  0  1  0  0  3  0  0  0  0  0  0
  187.0780  178.0660  139.3960 C   0  0  2  0  0  3  0  0  0  0  0  0
  188.4230  177.4780  134.8310 C   0  0  0  0  0  2  0  0  0  0  0  0
  192.2560  176.9120  141.3300 F   0  0  0  0  0  0  0  0  0  0  0  0
  186.0070  178.5700  140.3490 C   0  0  0  0  0  2  0  0  0  0  0  0
  185.2270  179.5380  139.7160 O   0  0  0  0  0  1  0  0  0  0  0  0
  190.1130  176.0750  142.5760 C   0  0  0  0  0  2  0  0  0  0  0  0
  190.1470  177.4280  144.6240 C   0  0  0  0  0  2  0  0  0  0  0  0
  190.5190  176.3180  143.9930 C   0  0  0  0  0  3  0  0  0  0  0  0
  1  4  1  6  0  0  0
  1 23  1  0  0  0  0
  1  5  1  0  0  0  0
  2  9  1  0  0  0  0
  2  6  1  0  0  0  0
  3 19  1  0  0  0  0
  5  2  1  0  0  0  0
  6 14  1  0  0  0  0
  7 22  1  0  0  0  0
  8  3  1  0  0  0  0
  9 24  1  0  0  0  0
 10 30  1  0  0  0  0
 11  5  1  0  0  0  0
 11 15  1  0  0  0  0
 12 17  1  0  0  0  0
 13 23  1  0  0  0  0
 14 10  1  0  0  0  0
 15 25  1  0  0  0  0
 16  3  2  0  0  0  0
 17 13  2  0  0  0  0
 17 23  1  0  0  0  0
 18 11  1  0  0  0  0
 19 13  1  0  0  0  0
 19 20  1  0  0  0  0
 21  9  1  0  0  0  0
 22 12  2  0  0  0  0
 22 16  1  0  0  0  0
 23 21  1  0  0  0  0
 24 27  1  0  0  0  0
 24 10  1  0  0  0  0
 25  6  1  0  0  0  0
 25 28  1  0  0  0  0
 26  4  1  0  0  0  0
 26 18  1  0  0  0  0
 29 28  1  0  0  0  0
 30 32  1  0  0  0  0
 32 31  2  0  0  0  0
M  END
>  <MODEL>
4

>  <REMARK>
 VINA RESULT:      -7.2      5.633      8.501
  Name = 
  3 active torsions:
  status: ('A' for Active; 'I' for Inactive)
    1  A    between atoms: C_11  and  N_12
    2  A    between atoms: C_11  and  C_31
    3  A    between atoms: C_13  and  CA_29
                            x       y       z     vdW  Elec       q    Type
                         _______ _______ _______ _____ _____    ______ ____

>  <TORSDO>
F 3

$$$$
=
 OpenBabel10272402113D

 32 37  0  0  1  0  0  0  0  0999 V2000
  185.5880  178.1080  137.2670 C   0  0  1  0  0  3  0  0  0  0  0  0
  185.1660  178.7870  139.6550 C   0  0  1  0  0  3  0  0  0  0  0  0
  188.8890  174.6900  136.8210 C   0  0  0  0  0  0  0  0  0  0  0  0
  185.0420  177.2160  136.1410 C   0  0  0  0  0  2  0  0  0  0  0  0
  184.6320  178.0210  138.4570 C   0  0  1  0  0  3  0  0  0  0  0  0
  184.1740  178.7710  140.8440 C   0  0  2  0  0  3  0  0  0  0  0  0
  190.6010  176.9410  134.3510 F   0  0  0  0  0  0  0  0  0  0  0  0
  189.0780  173.3580  136.6610 F   0  0  0  0  0  0  0  0  0  0  0  0
  186.5360  178.2160  140.0220 C   0  0  1  0  0  3  0  0  0  0  0  0
  186.0850  178.4700  142.4690 N   0  0  0  0  0  0  0  0  0  0  0  0
  183.2720  178.5820  138.0490 C   0  0  2  0  0  3  0  0  0  0  0  0
  188.9360  177.8340  135.6820 C   0  0  0  0  0  3  0  0  0  0  0  0
  187.5640  176.5170  137.5340 C   0  0  0  0  0  0  0  0  0  0  0  0
  184.7450  178.0070  142.0520 C   0  0  0  0  0  2  0  0  0  0  0  0
  182.3280  178.7550  139.1690 N   0  0  0  0  0  2  0  0  0  0  0  0
  190.0230  175.6220  136.3580 C   0  0  0  0  0  3  0  0  0  0  0  0
  188.0090  177.6360  136.7640 C   0  0  0  0  0  0  0  0  0  0  0  0
  182.6830  177.6990  136.9510 C   0  0  0  0  0  2  0  0  0  0  0  0
  187.8400  175.1070  137.5590 C   0  0  1  0  0  3  0  0  0  0  0  0
  186.9580  174.2310  138.1030 F   0  0  0  0  0  0  0  0  0  0  0  0
  187.4970  178.4730  138.9470 N   0  0  0  0  0  2  0  0  0  0  0  0
  189.7620  176.8040  135.4070 C   0  0  0  0  0  0  0  0  0  0  0  0
  187.0230  177.7870  137.7390 C   0  0  1  0  0  0  0  0  0  0  0  0
  186.9610  178.8620  141.3360 C   0  0  1  0  0  3  0  0  0  0  0  0
  182.8040  178.1840  140.4380 C   0  0  2  0  0  3  0  0  0  0  0  0
  183.6300  177.6680  135.7430 C   0  0  0  0  0  2  0  0  0  0  0  0
  188.3080  178.6560  141.6070 F   0  0  0  0  0  0  0  0  0  0  0  0
  181.7730  178.4390  141.5260 C   0  0  0  0  0  2  0  0  0  0  0  0
  180.9270  179.4800  141.1420 O   0  0  0  0  0  1  0  0  0  0  0  0
  186.6820  177.3480  143.1870 C   0  0  0  0  0  2  0  0  0  0  0  0
  187.7950  177.6100  145.3580 C   0  0  0  0  0  2  0  0  0  0  0  0
  186.6650  177.6050  144.6580 C   0  0  0  0  0  3  0  0  0  0  0  0
  1  4  1  6  0  0  0
  1 23  1  0  0  0  0
  1  5  1  0  0  0  0
  2  9  1  0  0  0  0
  2  6  1  0  0  0  0
  3 19  1  0  0  0  0
  5  2  1  0  0  0  0
  6 14  1  0  0  0  0
  7 22  1  0  0  0  0
  8  3  1  0  0  0  0
  9 24  1  0  0  0  0
 10 30  1  0  0  0  0
 11  5  1  0  0  0  0
 11 15  1  0  0  0  0
 12 17  1  0  0  0  0
 13 19  1  0  0  0  0
 13 23  1  0  0  0  0
 14 10  1  0  0  0  0
 15 25  1  0  0  0  0
 16  3  2  0  0  0  0
 17 13  2  0  0  0  0
 17 23  1  0  0  0  0
 18 11  1  0  0  0  0
 19 20  1  0  0  0  0
 21  9  1  0  0  0  0
 22 12  2  0  0  0  0
 22 16  1  0  0  0  0
 23 21  1  0  0  0  0
 24 27  1  0  0  0  0
 24 10  1  0  0  0  0
 25  6  1  0  0  0  0
 25 28  1  0  0  0  0
 26  4  1  0  0  0  0
 26 18  1  0  0  0  0
 29 28  1  0  0  0  0
 30 32  1  0  0  0  0
 32 31  2  0  0  0  0
M  END
>  <MODEL>
5

>  <REMARK>
 VINA RESULT:      -6.1      3.821      5.603
  Name = 
  3 active torsions:
  status: ('A' for Active; 'I' for Inactive)
    1  A    between atoms: C_11  and  N_12
    2  A    between atoms: C_11  and  C_31
    3  A    between atoms: C_13  and  CA_29
                            x       y       z     vdW  Elec       q    Type
                         _______ _______ _______ _____ _____    ______ ____

>  <TORSDO>
F 3

$$$$
=
 OpenBabel10272402113D

 32 37  0  0  1  0  0  0  0  0999 V2000
  187.1850  178.6450  139.7810 C   0  0  1  0  0  3  0  0  0  0  0  0
  188.2000  178.3160  142.0620 C   0  0  1  0  0  3  0  0  0  0  0  0
  188.7640  175.5240  136.5330 C   0  0  0  0  0  0  0  0  0  0  0  0
  185.9360  178.3220  138.9470 C   0  0  0  0  0  2  0  0  0  0  0  0
  186.9600  178.1360  141.2040 C   0  0  1  0  0  3  0  0  0  0  0  0
  187.9640  177.8740  143.5270 C   0  0  2  0  0  3  0  0  0  0  0  0
  189.5690  178.4840  134.3690 F   0  0  0  0  0  0  0  0  0  0  0  0
  188.4780  174.3640  135.8930 F   0  0  0  0  0  0  0  0  0  0  0  0
  189.3580  177.5680  141.3990 C   0  0  1  0  0  3  0  0  0  0  0  0
  190.2620  176.8290  143.6110 N   0  0  0  0  0  0  0  0  0  0  0  0
  185.7870  178.8890  141.8260 C   0  0  2  0  0  3  0  0  0  0  0  0
  189.0940  178.8510  136.6010 C   0  0  0  0  0  3  0  0  0  0  0  0
  188.5170  176.9740  138.3880 C   0  0  0  0  0  0  0  0  0  0  0  0
  188.8250  176.6530  143.8990 C   0  0  0  0  0  2  0  0  0  0  0  0
  185.6080  178.6450  143.2700 N   0  0  0  0  0  2  0  0  0  0  0  0
  189.7250  176.4980  135.8290 C   0  0  0  0  0  3  0  0  0  0  0  0
  188.8080  178.2820  137.8910 C   0  0  0  0  0  0  0  0  0  0  0  0
  184.5190  178.5650  141.0410 C   0  0  0  0  0  2  0  0  0  0  0  0
  188.3740  175.6630  137.8170 C   0  0  1  0  0  3  0  0  0  0  0  0
  187.6760  174.6930  138.4600 F   0  0  0  0  0  0  0  0  0  0  0  0
  189.6910  178.1860  140.1140 N   0  0  0  0  0  2  0  0  0  0  0  0
  189.3600  177.9780  135.6090 C   0  0  0  0  0  0  0  0  0  0  0  0
  188.5170  178.0790  139.2400 C   0  0  1  0  0  0  0  0  0  0  0  0
  190.5330  177.5980  142.3700 C   0  0  1  0  0  3  0  0  0  0  0  0
  186.4730  177.5810  143.8020 C   0  0  2  0  0  3  0  0  0  0  0  0
  184.6960  178.9750  139.5720 C   0  0  0  0  0  2  0  0  0  0  0  0
  191.7240  177.2240  141.7600 F   0  0  0  0  0  0  0  0  0  0  0  0
  186.2270  177.4290  145.2950 C   0  0  0  0  0  2  0  0  0  0  0  0
  186.3850  178.6620  145.9290 O   0  0  0  0  0  1  0  0  0  0  0  0
  190.8060  175.4810  143.4820 C   0  0  0  0  0  2  0  0  0  0  0  0
  191.9820  176.0690  145.5540 C   0  0  0  0  0  2  0  0  0  0  0  0
  191.8480  175.2380  144.5240 C   0  0  0  0  0  3  0  0  0  0  0  0
  1  4  1  6  0  0  0
  1  5  1  0  0  0  0
  2  6  1  0  0  0  0
  3 19  1  0  0  0  0
  4 26  1  0  0  0  0
  5 11  1  0  0  0  0
  5  2  1  0  0  0  0
  6 25  1  0  0  0  0
  6 14  1  0  0  0  0
  7 22  1  0  0  0  0
  8  3  1  0  0  0  0
  9  2  1  0  0  0  0
  9 24  1  0  0  0  0
 10 14  1  0  0  0  0
 11 15  1  0  0  0  0
 12 17  1  0  0  0  0
 13 23  1  0  0  0  0
 15 25  1  0  0  0  0
 16  3  2  0  0  0  0
 17 13  2  0  0  0  0
 17 23  1  0  0  0  0
 18 11  1  0  0  0  0
 19 13  1  0  0  0  0
 19 20  1  0  0  0  0
 21  9  1  0  0  0  0
 22 16  1  0  0  0  0
 22 12  2  0  0  0  0
 23  1  1  0  0  0  0
 23 21  1  0  0  0  0
 24 10  1  0  0  0  0
 25 28  1  0  0  0  0
 26 18  1  0  0  0  0
 27 24  1  0  0  0  0
 28 29  1  0  0  0  0
 30 10  1  0  0  0  0
 30 32  1  0  0  0  0
 32 31  2  0  0  0  0
M  END
>  <MODEL>
6

>  <REMARK>
 VINA RESULT:      -5.9      3.463      4.910
  Name = 
  3 active torsions:
  status: ('A' for Active; 'I' for Inactive)
    1  A    between atoms: C_11  and  N_12
    2  A    between atoms: C_11  and  C_31
    3  A    between atoms: C_13  and  CA_29
                            x       y       z     vdW  Elec       q    Type
                         _______ _______ _______ _____ _____    ______ ____

>  <TORSDO>
F 3

$$$$
=
 OpenBabel10272402113D

 32 37  0  0  1  0  0  0  0  0999 V2000
  184.4650  178.3050  139.1830 C   0  0  1  0  0  3  0  0  0  0  0  0
  186.9730  178.4250  139.0030 C   0  0  1  0  0  3  0  0  0  0  0  0
  182.5520  174.7200  136.6790 C   0  0  0  0  0  0  0  0  0  0  0  0
  183.3320  177.7920  140.0860 C   0  0  0  0  0  2  0  0  0  0  0  0
  185.7970  178.0480  139.8870 C   0  0  1  0  0  3  0  0  0  0  0  0
  188.3280  178.2410  139.7300 C   0  0  2  0  0  3  0  0  0  0  0  0
  180.2880  177.2780  135.1210 F   0  0  0  0  0  0  0  0  0  0  0  0
  182.0730  173.4550  136.7600 F   0  0  0  0  0  0  0  0  0  0  0  0
  186.8830  177.6160  137.7080 C   0  0  1  0  0  3  0  0  0  0  0  0
  189.3650  177.3160  137.6200 N   0  0  0  0  0  0  0  0  0  0  0  0
  185.8430  178.8550  141.1820 C   0  0  2  0  0  3  0  0  0  0  0  0
  182.1270  178.0170  136.3100 C   0  0  0  0  0  3  0  0  0  0  0  0
  183.9230  176.4660  137.5000 C   0  0  0  0  0  0  0  0  0  0  0  0
  189.1810  177.1390  139.0740 C   0  0  0  0  0  2  0  0  0  0  0  0
  187.1620  178.8640  141.8430 N   0  0  0  0  0  2  0  0  0  0  0  0
  182.0470  175.5900  135.5140 C   0  0  0  0  0  3  0  0  0  0  0  0
  183.3260  177.6750  137.0280 C   0  0  0  0  0  0  0  0  0  0  0  0
  184.7500  178.3480  142.1190 C   0  0  0  0  0  2  0  0  0  0  0  0
  183.5830  175.0700  137.4740 C   0  0  1  0  0  3  0  0  0  0  0  0
  184.1180  174.2030  138.3710 F   0  0  0  0  0  0  0  0  0  0  0  0
  185.6950  178.0080  136.9480 N   0  0  0  0  0  2  0  0  0  0  0  0
  181.4550  176.9920  135.7470 C   0  0  0  0  0  0  0  0  0  0  0  0
  184.5120  177.7040  137.7610 C   0  0  1  0  0  0  0  0  0  0  0  0
  188.1690  177.8630  136.9280 C   0  0  1  0  0  3  0  0  0  0  0  0
  188.1350  177.9450  141.2330 C   0  0  2  0  0  3  0  0  0  0  0  0
  183.3770  178.4970  141.4480 C   0  0  0  0  0  2  0  0  0  0  0  0
  188.0720  177.4320  135.6110 F   0  0  0  0  0  0  0  0  0  0  0  0
  189.4610  178.0500  141.9700 C   0  0  0  0  0  2  0  0  0  0  0  0
  189.2370  178.0540  143.3480 O   0  0  0  0  0  1  0  0  0  0  0  0
  189.6700  175.9880  137.0980 C   0  0  0  0  0  2  0  0  0  0  0  0
  191.4850  174.3470  137.2870 C   0  0  0  0  0  2  0  0  0  0  0  0
  190.8870  175.4350  137.7640 C   0  0  0  0  0  3  0  0  0  0  0  0
  1  5  1  0  0  0  0
  1  4  1  1  0  0  0
  2  6  1  0  0  0  0
  2  5  1  0  0  0  0
  3  8  1  0  0  0  0
  3 19  1  0  0  0  0
  4 26  1  0  0  0  0
  5 11  1  0  0  0  0
  6 25  1  0  0  0  0
  7 22  1  0  0  0  0
  9  2  1  0  0  0  0
 10 14  1  0  0  0  0
 11 15  1  0  0  0  0
 11 18  1  0  0  0  0
 12 17  1  0  0  0  0
 13 23  1  0  0  0  0
 14  6  1  0  0  0  0
 16 22  1  0  0  0  0
 16  3  2  0  0  0  0
 17 13  2  0  0  0  0
 17 23  1  0  0  0  0
 19 13  1  0  0  0  0
 19 20  1  0  0  0  0
 21  9  1  0  0  0  0
 21 23  1  0  0  0  0
 22 12  2  0  0  0  0
 23  1  1  0  0  0  0
 24 10  1  0  0  0  0
 24  9  1  0  0  0  0
 25 15  1  0  0  0  0
 25 28  1  0  0  0  0
 26 18  1  0  0  0  0
 27 24  1  0  0  0  0
 28 29  1  0  0  0  0
 30 10  1  0  0  0  0
 30 32  1  0  0  0  0
 31 32  2  0  0  0  0
M  END
>  <MODEL>
7

>  <REMARK>
 VINA RESULT:      -5.9      3.027      4.030
  Name = 
  3 active torsions:
  status: ('A' for Active; 'I' for Inactive)
    1  A    between atoms: C_11  and  N_12
    2  A    between atoms: C_11  and  C_31
    3  A    between atoms: C_13  and  CA_29
                            x       y       z     vdW  Elec       q    Type
                         _______ _______ _______ _____ _____    ______ ____

>  <TORSDO>
F 3

$$$$
