=
 OpenBabel10262423593D

 34 37  0  0  1  0  0  0  0  0999 V2000
  187.7240  178.1300  146.9070 C   0  0  0  0  0  2  0  0  0  0  0  0
  190.7090  176.5480  144.8050 C   0  0  0  0  0  2  0  0  0  0  0  0
  188.7950  177.3600  143.4320 C   0  0  1  0  0  3  0  0  0  0  0  0
  188.2810  178.1110  141.0630 N   0  0  0  0  0  0  0  0  0  0  0  0
  189.9400  177.4380  147.7590 C   0  0  0  0  0  2  0  0  0  0  0  0
  191.0130  176.4600  147.3100 C   0  0  0  0  0  2  0  0  0  0  0  0
  190.4690  177.6730  141.7430 O   0  0  0  0  0  0  0  0  0  0  0  0
  189.8340  177.7440  144.4770 C   0  0  0  0  0  2  0  0  0  0  0  0
  188.5760  176.9440  147.3190 C   0  0  0  0  0  2  0  0  0  0  0  0
  187.4230  177.9400  143.8300 C   0  0  1  0  0  3  0  0  0  0  0  0
  186.4750  177.6670  146.1700 C   0  0  0  0  0  2  0  0  0  0  0  0
  191.6250  176.8750  145.9740 C   0  0  0  0  0  2  0  0  0  0  0  0
  186.9070  178.2810  141.4140 C   0  0  0  0  0  3  0  0  0  0  0  0
  186.4620  178.1870  142.6720 C   0  0  0  0  0  0  0  0  0  0  0  0
  189.2480  177.7510  142.0540 C   0  0  0  0  0  0  0  0  0  0  0  0
  186.8010  176.9780  144.8460 C   0  0  0  0  0  2  0  0  0  0  0  0
  182.7000  178.4330  142.2580 C   0  0  0  0  0  0  0  0  0  0  0  0
  182.3380  179.1220  143.4180 C   0  0  0  0  0  3  0  0  0  0  0  0
  185.0400  178.5300  142.9180 C   0  0  0  0  0  0  0  0  0  0  0  0
  183.3190  179.5150  144.3310 C   0  0  0  0  0  3  0  0  0  0  0  0
  184.0430  178.1350  142.0130 C   0  0  0  0  0  3  0  0  0  0  0  0
  184.6620  179.2180  144.0850 C   0  0  0  0  0  3  0  0  0  0  0  0
  181.7490  178.0480  141.3740 F   0  0  0  0  0  0  0  0  0  0  0  0
  188.6870  178.4380  139.7050 C   0  0  0  0  0  2  0  0  0  0  0  0
  188.6950  177.1780  138.8630 C   0  0  0  0  0  2  0  0  0  0  0  0
  188.0470  177.4510  137.5210 C   0  0  0  0  0  2  0  0  0  0  0  0
  187.0070  178.5530  137.6640 C   0  0  0  0  0  2  0  0  0  0  0  0
  184.8340  179.7490  139.1230 O   0  0  0  0  0  0  0  0  0  0  0  0
  185.6760  177.9800  137.8320 N   0  0  0  0  0  0  0  0  0  0  0  0
  184.6110  178.7000  138.4630 C   0  0  0  0  0  0  0  0  0  0  0  0
  183.0430  177.6520  136.8970 C   0  0  0  0  0  2  0  0  0  0  0  0
  184.1140  176.6270  136.4710 C   0  0  0  0  0  2  0  0  0  0  0  0
  185.3960  176.6440  137.3210 C   0  0  0  0  0  2  0  0  0  0  0  0
  183.2210  178.1780  138.3220 C   0  0  0  0  0  2  0  0  0  0  0  0
  1  9  1  0  0  0  0
  2 12  1  0  0  0  0
  3 10  1  0  0  0  0
  3  8  1  1  0  0  0
  4 13  1  0  0  0  0
  4 15  1  0  0  0  0
  6  5  1  0  0  0  0
  7 15  2  0  0  0  0
  8  2  1  0  0  0  0
  9  5  1  0  0  0  0
 10 16  1  1  0  0  0
 11  1  1  0  0  0  0
 12  6  1  0  0  0  0
 13 14  2  0  0  0  0
 14 19  1  0  0  0  0
 14 10  1  0  0  0  0
 15  3  1  0  0  0  0
 16 11  1  0  0  0  0
 17 18  1  0  0  0  0
 18 20  2  0  0  0  0
 19 22  2  0  0  0  0
 21 17  2  0  0  0  0
 21 19  1  0  0  0  0
 22 20  1  0  0  0  0
 23 17  1  0  0  0  0
 24  4  1  0  0  0  0
 25 24  1  0  0  0  0
 26 27  1  0  0  0  0
 26 25  1  0  0  0  0
 27 29  1  0  0  0  0
 29 30  1  0  0  0  0
 30 28  2  0  0  0  0
 31 34  1  0  0  0  0
 32 31  1  0  0  0  0
 32 33  1  0  0  0  0
 33 29  1  0  0  0  0
 34 30  1  0  0  0  0
M  END
>  <MODEL>
1

>  <REMARK>
 VINA RESULT:     -10.4      0.000      0.000
  Name = 
  6 active torsions:
  status: ('A' for Active; 'I' for Inactive)
    1  A    between atoms: C_3  and  N_13
    2  A    between atoms: C_3  and  C_17
    3  A    between atoms: N_5  and  C_18
    4  A    between atoms: C_12  and  C_28
    5  A    between atoms: C_17  and  C_29
    6  A    between atoms: C_18  and  C_29
                            x       y       z     vdW  Elec       q    Type
                         _______ _______ _______ _____ _____    ______ ____

>  <TORSDO>
F 6

$$$$
=
 OpenBabel10262423593D

 34 37  0  0  1  0  0  0  0  0999 V2000
  187.6810  178.0940  146.8740 C   0  0  0  0  0  2  0  0  0  0  0  0
  190.7390  176.5880  144.8220 C   0  0  0  0  0  2  0  0  0  0  0  0
  188.8490  177.3980  143.4140 C   0  0  1  0  0  3  0  0  0  0  0  0
  188.3840  178.1830  141.0470 N   0  0  0  0  0  0  0  0  0  0  0  0
  189.8850  177.4170  147.7700 C   0  0  0  0  0  2  0  0  0  0  0  0
  190.9820  176.4610  147.3310 C   0  0  0  0  0  2  0  0  0  0  0  0
  190.5600  177.7620  141.7740 O   0  0  0  0  0  0  0  0  0  0  0  0
  189.8560  177.7780  144.4920 C   0  0  0  0  0  2  0  0  0  0  0  0
  188.5390  176.9130  147.2870 C   0  0  0  0  0  2  0  0  0  0  0  0
  187.4590  177.9530  143.7880 C   0  0  1  0  0  3  0  0  0  0  0  0
  186.4570  177.6280  146.0980 C   0  0  0  0  0  2  0  0  0  0  0  0
  191.6210  176.9070  146.0180 C   0  0  0  0  0  2  0  0  0  0  0  0
  186.9990  178.3290  141.3660 C   0  0  0  0  0  3  0  0  0  0  0  0
  186.5250  178.2070  142.6100 C   0  0  0  0  0  0  0  0  0  0  0  0
  189.3310  177.8190  142.0550 C   0  0  0  0  0  0  0  0  0  0  0  0
  186.8260  176.9660  144.7710 C   0  0  0  0  0  2  0  0  0  0  0  0
  182.7720  178.4200  142.1010 C   0  0  0  0  0  0  0  0  0  0  0  0
  182.3700  179.0750  143.2670 C   0  0  0  0  0  3  0  0  0  0  0  0
  185.0920  178.5270  142.8270 C   0  0  0  0  0  0  0  0  0  0  0  0
  183.3210  179.4550  144.2170 C   0  0  0  0  0  3  0  0  0  0  0  0
  184.1250  178.1430  141.8850 C   0  0  0  0  0  3  0  0  0  0  0  0
  184.6740  179.1810  143.9990 C   0  0  0  0  0  3  0  0  0  0  0  0
  181.8500  178.0460  141.1820 F   0  0  0  0  0  0  0  0  0  0  0  0
  188.8190  178.5390  139.7050 C   0  0  0  0  0  2  0  0  0  0  0  0
  188.3070  177.5100  138.7180 C   0  0  0  0  0  2  0  0  0  0  0  0
  189.4020  176.5130  138.3980 C   0  0  0  0  0  2  0  0  0  0  0  0
  190.7560  177.2070  138.4190 C   0  0  0  0  0  2  0  0  0  0  0  0
  193.5600  177.0050  139.0320 O   0  0  0  0  0  0  0  0  0  0  0  0
  191.7390  176.4330  137.6690 N   0  0  0  0  0  0  0  0  0  0  0  0
  193.0900  176.2800  138.1160 C   0  0  0  0  0  0  0  0  0  0  0  0
  193.0750  173.9980  137.2200 C   0  0  0  0  0  2  0  0  0  0  0  0
  191.7790  174.2880  136.4360 C   0  0  0  0  0  2  0  0  0  0  0  0
  191.3410  175.7620  136.4370 C   0  0  0  0  0  2  0  0  0  0  0  0
  193.9380  175.2370  137.4700 C   0  0  0  0  0  2  0  0  0  0  0  0
  1  9  1  0  0  0  0
  2 12  1  0  0  0  0
  3 10  1  0  0  0  0
  3  8  1  1  0  0  0
  4 13  1  0  0  0  0
  4 15  1  0  0  0  0
  6  5  1  0  0  0  0
  7 15  2  0  0  0  0
  8  2  1  0  0  0  0
  9  5  1  0  0  0  0
 10 16  1  1  0  0  0
 11  1  1  0  0  0  0
 12  6  1  0  0  0  0
 13 14  2  0  0  0  0
 14 19  1  0  0  0  0
 14 10  1  0  0  0  0
 15  3  1  0  0  0  0
 16 11  1  0  0  0  0
 17 18  1  0  0  0  0
 18 20  2  0  0  0  0
 19 22  2  0  0  0  0
 21 17  2  0  0  0  0
 21 19  1  0  0  0  0
 22 20  1  0  0  0  0
 23 17  1  0  0  0  0
 24  4  1  0  0  0  0
 25 24  1  0  0  0  0
 26 27  1  0  0  0  0
 26 25  1  0  0  0  0
 29 30  1  0  0  0  0
 29 27  1  0  0  0  0
 30 28  2  0  0  0  0
 31 34  1  0  0  0  0
 32 33  1  0  0  0  0
 32 31  1  0  0  0  0
 33 29  1  0  0  0  0
 34 30  1  0  0  0  0
M  END
>  <MODEL>
2

>  <REMARK>
 VINA RESULT:     -10.2      2.264      4.061
  Name = 
  6 active torsions:
  status: ('A' for Active; 'I' for Inactive)
    1  A    between atoms: C_3  and  N_13
    2  A    between atoms: C_3  and  C_17
    3  A    between atoms: N_5  and  C_18
    4  A    between atoms: C_12  and  C_28
    5  A    between atoms: C_17  and  C_29
    6  A    between atoms: C_18  and  C_29
                            x       y       z     vdW  Elec       q    Type
                         _______ _______ _______ _____ _____    ______ ____

>  <TORSDO>
F 6

$$$$
=
 OpenBabel10262423593D

 34 37  0  0  1  0  0  0  0  0999 V2000
  187.6950  178.1200  146.8740 C   0  0  0  0  0  2  0  0  0  0  0  0
  190.7360  176.5590  144.8370 C   0  0  0  0  0  2  0  0  0  0  0  0
  188.8530  177.3710  143.4220 C   0  0  1  0  0  3  0  0  0  0  0  0
  188.3930  178.1320  141.0450 N   0  0  0  0  0  0  0  0  0  0  0  0
  189.8940  177.4310  147.7760 C   0  0  0  0  0  2  0  0  0  0  0  0
  190.9810  176.4600  147.3480 C   0  0  0  0  0  2  0  0  0  0  0  0
  190.5660  177.6980  141.7760 O   0  0  0  0  0  0  0  0  0  0  0  0
  189.8650  177.7530  144.4940 C   0  0  0  0  0  2  0  0  0  0  0  0
  188.5420  176.9350  147.3010 C   0  0  0  0  0  2  0  0  0  0  0  0
  187.4700  177.9440  143.7900 C   0  0  1  0  0  3  0  0  0  0  0  0
  186.4670  177.6570  146.1050 C   0  0  0  0  0  2  0  0  0  0  0  0
  191.6230  176.8830  146.0290 C   0  0  0  0  0  2  0  0  0  0  0  0
  187.0110  178.2960  141.3640 C   0  0  0  0  0  3  0  0  0  0  0  0
  186.5360  178.1930  142.6100 C   0  0  0  0  0  0  0  0  0  0  0  0
  189.3380  177.7710  142.0570 C   0  0  0  0  0  0  0  0  0  0  0  0
  186.8270  176.9750  144.7850 C   0  0  0  0  0  2  0  0  0  0  0  0
  182.7860  178.4410  142.1000 C   0  0  0  0  0  0  0  0  0  0  0  0
  182.3910  179.1110  143.2600 C   0  0  0  0  0  3  0  0  0  0  0  0
  185.1070  178.5300  142.8240 C   0  0  0  0  0  0  0  0  0  0  0  0
  183.3470  179.4890  144.2060 C   0  0  0  0  0  3  0  0  0  0  0  0
  184.1360  178.1480  141.8860 C   0  0  0  0  0  3  0  0  0  0  0  0
  184.6970  179.1990  143.9910 C   0  0  0  0  0  3  0  0  0  0  0  0
  181.8600  178.0690  141.1850 F   0  0  0  0  0  0  0  0  0  0  0  0
  188.8310  178.4670  139.6990 C   0  0  0  0  0  2  0  0  0  0  0  0
  187.7880  178.0090  138.7000 C   0  0  0  0  0  2  0  0  0  0  0  0
  188.2560  178.3120  137.2900 C   0  0  0  0  0  2  0  0  0  0  0  0
  189.6540  177.7500  137.0790 C   0  0  0  0  0  2  0  0  0  0  0  0
  190.7090  175.4900  138.5150 O   0  0  0  0  0  0  0  0  0  0  0  0
  189.5850  176.3580  136.6480 N   0  0  0  0  0  0  0  0  0  0  0  0
  190.0190  175.2790  137.4830 C   0  0  0  0  0  0  0  0  0  0  0  0
  188.2000  173.9100  136.5730 C   0  0  0  0  0  2  0  0  0  0  0  0
  187.9690  174.9270  135.4380 C   0  0  0  0  0  2  0  0  0  0  0  0
  189.0310  176.0350  135.3380 C   0  0  0  0  0  2  0  0  0  0  0  0
  189.6350  173.8880  137.1030 C   0  0  0  0  0  2  0  0  0  0  0  0
  1  9  1  0  0  0  0
  2 12  1  0  0  0  0
  3 10  1  0  0  0  0
  3  8  1  1  0  0  0
  4 13  1  0  0  0  0
  4 15  1  0  0  0  0
  6  5  1  0  0  0  0
  7 15  2  0  0  0  0
  8  2  1  0  0  0  0
  9  5  1  0  0  0  0
 10 16  1  1  0  0  0
 11  1  1  0  0  0  0
 12  6  1  0  0  0  0
 13 14  2  0  0  0  0
 14 19  1  0  0  0  0
 14 10  1  0  0  0  0
 15  3  1  0  0  0  0
 16 11  1  0  0  0  0
 17 18  1  0  0  0  0
 18 20  2  0  0  0  0
 19 22  2  0  0  0  0
 21 17  2  0  0  0  0
 21 19  1  0  0  0  0
 22 20  1  0  0  0  0
 23 17  1  0  0  0  0
 24  4  1  0  0  0  0
 25 24  1  0  0  0  0
 26 25  1  0  0  0  0
 27 26  1  0  0  0  0
 29 27  1  0  0  0  0
 29 30  1  0  0  0  0
 30 28  2  0  0  0  0
 31 34  1  0  0  0  0
 32 31  1  0  0  0  0
 33 32  1  0  0  0  0
 33 29  1  0  0  0  0
 34 30  1  0  0  0  0
M  END
>  <MODEL>
3

>  <REMARK>
 VINA RESULT:     -10.1      2.062      2.781
  Name = 
  6 active torsions:
  status: ('A' for Active; 'I' for Inactive)
    1  A    between atoms: C_3  and  N_13
    2  A    between atoms: C_3  and  C_17
    3  A    between atoms: N_5  and  C_18
    4  A    between atoms: C_12  and  C_28
    5  A    between atoms: C_17  and  C_29
    6  A    between atoms: C_18  and  C_29
                            x       y       z     vdW  Elec       q    Type
                         _______ _______ _______ _____ _____    ______ ____

>  <TORSDO>
F 6

$$$$
=
 OpenBabel10262423593D

 34 37  0  0  1  0  0  0  0  0999 V2000
  187.7570  178.0580  146.8090 C   0  0  0  0  0  2  0  0  0  0  0  0
  190.8200  176.5230  144.7880 C   0  0  0  0  0  2  0  0  0  0  0  0
  188.9530  177.3520  143.3610 C   0  0  1  0  0  3  0  0  0  0  0  0
  188.5190  178.1410  140.9890 N   0  0  0  0  0  0  0  0  0  0  0  0
  189.9450  177.3600  147.7270 C   0  0  0  0  0  2  0  0  0  0  0  0
  191.0370  176.3940  147.2990 C   0  0  0  0  0  2  0  0  0  0  0  0
  190.6850  177.6990  141.7380 O   0  0  0  0  0  0  0  0  0  0  0  0
  189.9530  177.7210  144.4490 C   0  0  0  0  0  2  0  0  0  0  0  0
  188.5990  176.8690  147.2310 C   0  0  0  0  0  2  0  0  0  0  0  0
  187.5650  177.9200  143.7210 C   0  0  1  0  0  3  0  0  0  0  0  0
  186.5370  177.6040  146.0210 C   0  0  0  0  0  2  0  0  0  0  0  0
  191.6940  176.8330  145.9930 C   0  0  0  0  0  2  0  0  0  0  0  0
  187.1330  178.3000  141.2950 C   0  0  0  0  0  3  0  0  0  0  0  0
  186.6450  178.1830  142.5340 C   0  0  0  0  0  0  0  0  0  0  0  0
  189.4530  177.7680  142.0070 C   0  0  0  0  0  0  0  0  0  0  0  0
  186.9120  176.9390  144.6980 C   0  0  0  0  0  2  0  0  0  0  0  0
  182.8930  178.3860  142.0160 C   0  0  0  0  0  0  0  0  0  0  0  0
  182.4930  179.0930  143.1520 C   0  0  0  0  0  3  0  0  0  0  0  0
  185.2130  178.5170  142.7360 C   0  0  0  0  0  0  0  0  0  0  0  0
  183.4460  179.5110  144.0840 C   0  0  0  0  0  3  0  0  0  0  0  0
  184.2450  178.0950  141.8120 C   0  0  0  0  0  3  0  0  0  0  0  0
  184.7980  179.2230  143.8780 C   0  0  0  0  0  3  0  0  0  0  0  0
  181.9700  177.9750  141.1140 F   0  0  0  0  0  0  0  0  0  0  0  0
  188.9720  178.4930  139.6520 C   0  0  0  0  0  2  0  0  0  0  0  0
  189.1840  177.2290  138.8420 C   0  0  0  0  0  2  0  0  0  0  0  0
  189.7320  177.5810  137.4730 C   0  0  0  0  0  2  0  0  0  0  0  0
  189.1250  176.6610  136.4230 C   0  0  0  0  0  2  0  0  0  0  0  0
  187.2320  174.5000  136.5930 O   0  0  0  0  0  0  0  0  0  0  0  0
  187.6730  176.7970  136.4040 N   0  0  0  0  0  0  0  0  0  0  0  0
  186.8010  175.6830  136.6250 C   0  0  0  0  0  0  0  0  0  0  0  0
  185.2570  177.1880  137.7910 C   0  0  0  0  0  2  0  0  0  0  0  0
  186.0050  178.4210  137.2450 C   0  0  0  0  0  2  0  0  0  0  0  0
  187.0740  178.1080  136.1840 C   0  0  0  0  0  2  0  0  0  0  0  0
  185.3590  175.9530  136.8940 C   0  0  0  0  0  2  0  0  0  0  0  0
  1  9  1  0  0  0  0
  2 12  1  0  0  0  0
  3 10  1  0  0  0  0
  3  8  1  1  0  0  0
  4 13  1  0  0  0  0
  4 15  1  0  0  0  0
  6  5  1  0  0  0  0
  7 15  2  0  0  0  0
  8  2  1  0  0  0  0
  9  5  1  0  0  0  0
 10 16  1  1  0  0  0
 11  1  1  0  0  0  0
 12  6  1  0  0  0  0
 13 14  2  0  0  0  0
 14 19  1  0  0  0  0
 14 10  1  0  0  0  0
 15  3  1  0  0  0  0
 16 11  1  0  0  0  0
 17 18  1  0  0  0  0
 18 20  2  0  0  0  0
 19 22  2  0  0  0  0
 21 17  2  0  0  0  0
 21 19  1  0  0  0  0
 22 20  1  0  0  0  0
 23 17  1  0  0  0  0
 24  4  1  0  0  0  0
 25 24  1  0  0  0  0
 26 25  1  0  0  0  0
 27 26  1  0  0  0  0
 28 30  2  0  0  0  0
 29 27  1  0  0  0  0
 29 30  1  0  0  0  0
 30 34  1  0  0  0  0
 32 31  1  0  0  0  0
 33 29  1  0  0  0  0
 33 32  1  0  0  0  0
 34 31  1  0  0  0  0
M  END
>  <MODEL>
4

>  <REMARK>
 VINA RESULT:      -9.8      1.433      1.794
  Name = 
  6 active torsions:
  status: ('A' for Active; 'I' for Inactive)
    1  A    between atoms: C_3  and  N_13
    2  A    between atoms: C_3  and  C_17
    3  A    between atoms: N_5  and  C_18
    4  A    between atoms: C_12  and  C_28
    5  A    between atoms: C_17  and  C_29
    6  A    between atoms: C_18  and  C_29
                            x       y       z     vdW  Elec       q    Type
                         _______ _______ _______ _____ _____    ______ ____

>  <TORSDO>
F 6

$$$$
=
 OpenBabel10262423593D

 34 37  0  0  1  0  0  0  0  0999 V2000
  191.4670  176.1490  143.8680 C   0  0  0  0  0  2  0  0  0  0  0  0
  188.8960  177.7630  146.4400 C   0  0  0  0  0  2  0  0  0  0  0  0
  188.1710  177.8570  144.0580 C   0  0  1  0  0  3  0  0  0  0  0  0
  186.0550  178.0860  142.6770 N   0  0  0  0  0  0  0  0  0  0  0  0
  191.5830  176.0670  146.3380 C   0  0  0  0  0  2  0  0  0  0  0  0
  191.0380  176.9170  147.4740 C   0  0  0  0  0  2  0  0  0  0  0  0
  185.9630  177.8370  144.9950 O   0  0  0  0  0  0  0  0  0  0  0  0
  188.6180  176.9440  145.1930 C   0  0  0  0  0  2  0  0  0  0  0  0
  191.8260  176.9330  145.1170 C   0  0  0  0  0  2  0  0  0  0  0  0
  188.8850  177.4480  142.7550 C   0  0  1  0  0  3  0  0  0  0  0  0
  191.3930  177.0670  142.6570 C   0  0  0  0  0  2  0  0  0  0  0  0
  189.5130  176.8830  147.5160 C   0  0  0  0  0  2  0  0  0  0  0  0
  186.8340  178.0700  141.4800 C   0  0  0  0  0  3  0  0  0  0  0  0
  188.1450  177.8050  141.4700 C   0  0  0  0  0  0  0  0  0  0  0  0
  186.6730  177.8890  143.9520 C   0  0  0  0  0  0  0  0  0  0  0  0
  190.2710  178.0970  142.7730 C   0  0  0  0  0  2  0  0  0  0  0  0
  189.3920  178.6130  137.9810 C   0  0  0  0  0  0  0  0  0  0  0  0
  190.1060  177.4560  137.6660 C   0  0  0  0  0  3  0  0  0  0  0  0
  188.8040  177.6750  140.1470 C   0  0  0  0  0  0  0  0  0  0  0  0
  190.1760  176.4070  138.5860 C   0  0  0  0  0  3  0  0  0  0  0  0
  188.7480  178.7240  139.2170 C   0  0  0  0  0  3  0  0  0  0  0  0
  189.5310  176.5170  139.8210 C   0  0  0  0  0  3  0  0  0  0  0  0
  189.3270  179.6320  137.0910 F   0  0  0  0  0  0  0  0  0  0  0  0
  184.6090  178.1790  142.5530 C   0  0  0  0  0  2  0  0  0  0  0  0
  184.2520  178.6880  141.1700 C   0  0  0  0  0  2  0  0  0  0  0  0
  183.5270  177.6060  140.3950 C   0  0  0  0  0  2  0  0  0  0  0  0
  183.1720  178.1160  139.0060 C   0  0  0  0  0  2  0  0  0  0  0  0
  185.7310  179.0860  138.1140 O   0  0  0  0  0  0  0  0  0  0  0  0
  184.0200  177.4860  137.9990 N   0  0  0  0  0  0  0  0  0  0  0  0
  185.3380  177.9610  137.7060 C   0  0  0  0  0  0  0  0  0  0  0  0
  186.0390  175.6400  137.3410 C   0  0  0  0  0  2  0  0  0  0  0  0
  184.5690  175.1770  137.2990 C   0  0  0  0  0  2  0  0  0  0  0  0
  183.5340  176.3140  137.2790 C   0  0  0  0  0  2  0  0  0  0  0  0
  186.2430  177.0920  136.9010 C   0  0  0  0  0  2  0  0  0  0  0  0
  1  9  1  0  0  0  0
  2 12  1  0  0  0  0
  3  8  1  1  0  0  0
  4 15  1  0  0  0  0
  5  6  1  0  0  0  0
  6 12  1  0  0  0  0
  8  2  1  0  0  0  0
  9  5  1  0  0  0  0
 10 16  1  6  0  0  0
 10  3  1  0  0  0  0
 11 16  1  0  0  0  0
 11  1  1  0  0  0  0
 13  4  1  0  0  0  0
 14 13  2  0  0  0  0
 14 10  1  0  0  0  0
 15  3  1  0  0  0  0
 15  7  2  0  0  0  0
 17 21  1  0  0  0  0
 18 17  2  0  0  0  0
 18 20  1  0  0  0  0
 19 14  1  0  0  0  0
 20 22  2  0  0  0  0
 21 19  2  0  0  0  0
 22 19  1  0  0  0  0
 23 17  1  0  0  0  0
 24  4  1  0  0  0  0
 25 24  1  0  0  0  0
 26 25  1  0  0  0  0
 27 26  1  0  0  0  0
 29 27  1  0  0  0  0
 30 29  1  0  0  0  0
 30 28  2  0  0  0  0
 32 31  1  0  0  0  0
 33 32  1  0  0  0  0
 33 29  1  0  0  0  0
 34 31  1  0  0  0  0
 34 30  1  0  0  0  0
M  END
>  <MODEL>
5

>  <REMARK>
 VINA RESULT:      -9.4      2.283      4.680
  Name = 
  6 active torsions:
  status: ('A' for Active; 'I' for Inactive)
    1  A    between atoms: C_3  and  N_13
    2  A    between atoms: C_3  and  C_17
    3  A    between atoms: N_5  and  C_18
    4  A    between atoms: C_12  and  C_28
    5  A    between atoms: C_17  and  C_29
    6  A    between atoms: C_18  and  C_29
                            x       y       z     vdW  Elec       q    Type
                         _______ _______ _______ _____ _____    ______ ____

>  <TORSDO>
F 6

$$$$
=
 OpenBabel10262423593D

 34 37  0  0  1  0  0  0  0  0999 V2000
  191.2700  176.2110  143.9840 C   0  0  0  0  0  2  0  0  0  0  0  0
  188.6560  177.9170  146.4510 C   0  0  0  0  0  2  0  0  0  0  0  0
  188.0110  177.9970  144.0460 C   0  0  1  0  0  3  0  0  0  0  0  0
  185.9470  178.2560  142.5930 N   0  0  0  0  0  0  0  0  0  0  0  0
  191.3050  176.1590  146.4570 C   0  0  0  0  0  2  0  0  0  0  0  0
  190.7440  177.0360  147.5640 C   0  0  0  0  0  2  0  0  0  0  0  0
  185.7740  178.0400  144.9100 O   0  0  0  0  0  0  0  0  0  0  0  0
  188.3990  177.0890  145.2050 C   0  0  0  0  0  2  0  0  0  0  0  0
  191.6070  177.0020  145.2340 C   0  0  0  0  0  2  0  0  0  0  0  0
  188.7560  177.5540  142.7710 C   0  0  1  0  0  3  0  0  0  0  0  0
  191.2570  177.1140  142.7600 C   0  0  0  0  0  2  0  0  0  0  0  0
  189.2170  177.0370  147.5580 C   0  0  0  0  0  2  0  0  0  0  0  0
  186.7630  178.2060  141.4220 C   0  0  0  0  0  3  0  0  0  0  0  0
  188.0670  177.9110  141.4590 C   0  0  0  0  0  0  0  0  0  0  0  0
  186.5180  178.0620  143.8910 C   0  0  0  0  0  0  0  0  0  0  0  0
  190.1560  178.1710  142.8260 C   0  0  0  0  0  2  0  0  0  0  0  0
  189.3350  178.5920  137.9500 C   0  0  0  0  0  0  0  0  0  0  0  0
  190.1390  177.4730  137.7230 C   0  0  0  0  0  3  0  0  0  0  0  0
  188.7650  177.7490  140.1590 C   0  0  0  0  0  0  0  0  0  0  0  0
  190.2630  176.4910  138.7090 C   0  0  0  0  0  3  0  0  0  0  0  0
  188.6550  178.7310  139.1630 C   0  0  0  0  0  3  0  0  0  0  0  0
  189.5820  176.6300  139.9220 C   0  0  0  0  0  3  0  0  0  0  0  0
  189.2180  179.5460  136.9960 F   0  0  0  0  0  0  0  0  0  0  0  0
  184.5070  178.3820  142.4210 C   0  0  0  0  0  2  0  0  0  0  0  0
  184.1980  178.7070  140.9740 C   0  0  0  0  0  2  0  0  0  0  0  0
  183.1890  177.7170  140.4270 C   0  0  0  0  0  2  0  0  0  0  0  0
  181.8030  178.0440  140.9620 C   0  0  0  0  0  2  0  0  0  0  0  0
  180.2680  180.3290  141.8050 O   0  0  0  0  0  0  0  0  0  0  0  0
  181.1250  178.9890  140.0800 N   0  0  0  0  0  0  0  0  0  0  0  0
  180.4920  180.1740  140.5750 C   0  0  0  0  0  0  0  0  0  0  0  0
  181.1950  181.3400  138.5360 C   0  0  0  0  0  2  0  0  0  0  0  0
  181.5480  180.0000  137.8610 C   0  0  0  0  0  2  0  0  0  0  0  0
  181.1100  178.7490  138.6410 C   0  0  0  0  0  2  0  0  0  0  0  0
  180.0980  181.2290  139.5970 C   0  0  0  0  0  2  0  0  0  0  0  0
  1  9  1  0  0  0  0
  2 12  1  0  0  0  0
  3  8  1  1  0  0  0
  4 15  1  0  0  0  0
  5  6  1  0  0  0  0
  8  2  1  0  0  0  0
  9  5  1  0  0  0  0
 10 16  1  6  0  0  0
 10  3  1  0  0  0  0
 11 16  1  0  0  0  0
 11  1  1  0  0  0  0
 12  6  1  0  0  0  0
 13 14  2  0  0  0  0
 13  4  1  0  0  0  0
 14 10  1  0  0  0  0
 15  3  1  0  0  0  0
 15  7  2  0  0  0  0
 17 21  1  0  0  0  0
 18 17  2  0  0  0  0
 18 20  1  0  0  0  0
 19 14  1  0  0  0  0
 20 22  2  0  0  0  0
 21 19  2  0  0  0  0
 22 19  1  0  0  0  0
 23 17  1  0  0  0  0
 24  4  1  0  0  0  0
 25 24  1  0  0  0  0
 26 27  1  0  0  0  0
 26 25  1  0  0  0  0
 29 30  1  0  0  0  0
 29 27  1  0  0  0  0
 30 28  2  0  0  0  0
 31 34  1  0  0  0  0
 32 31  1  0  0  0  0
 32 33  1  0  0  0  0
 33 29  1  0  0  0  0
 34 30  1  0  0  0  0
M  END
>  <MODEL>
6

>  <REMARK>
 VINA RESULT:      -9.1      2.812      5.104
  Name = 
  6 active torsions:
  status: ('A' for Active; 'I' for Inactive)
    1  A    between atoms: C_3  and  N_13
    2  A    between atoms: C_3  and  C_17
    3  A    between atoms: N_5  and  C_18
    4  A    between atoms: C_12  and  C_28
    5  A    between atoms: C_17  and  C_29
    6  A    between atoms: C_18  and  C_29
                            x       y       z     vdW  Elec       q    Type
                         _______ _______ _______ _____ _____    ______ ____

>  <TORSDO>
F 6

$$$$
=
 OpenBabel10262423593D

 34 37  0  0  1  0  0  0  0  0999 V2000
  190.7020  177.2940  137.4490 C   0  0  0  0  0  2  0  0  0  0  0  0
  186.8630  177.5610  136.4400 C   0  0  0  0  0  2  0  0  0  0  0  0
  187.3100  177.8060  138.8790 C   0  0  1  0  0  3  0  0  0  0  0  0
  186.2430  178.7820  140.9640 N   0  0  0  0  0  0  0  0  0  0  0  0
  189.7680  177.3930  135.1610 C   0  0  0  0  0  2  0  0  0  0  0  0
  188.4290  177.0590  134.5250 C   0  0  0  0  0  2  0  0  0  0  0  0
  185.3110  179.1320  138.8530 O   0  0  0  0  0  0  0  0  0  0  0  0
  187.6350  178.3390  137.4900 C   0  0  0  0  0  2  0  0  0  0  0  0
  190.0070  176.4980  136.3600 C   0  0  0  0  0  2  0  0  0  0  0  0
  188.6080  177.6760  139.7000 C   0  0  1  0  0  3  0  0  0  0  0  0
  190.6790  176.5380  138.7700 C   0  0  0  0  0  2  0  0  0  0  0  0
  187.3190  177.9680  135.0480 C   0  0  0  0  0  2  0  0  0  0  0  0
  187.3330  178.2980  141.7500 C   0  0  0  0  0  3  0  0  0  0  0  0
  188.4320  177.7590  141.2120 C   0  0  0  0  0  0  0  0  0  0  0  0
  186.2480  178.6380  139.5410 C   0  0  0  0  0  0  0  0  0  0  0  0
  189.2620  176.3490  139.3080 C   0  0  0  0  0  2  0  0  0  0  0  0
  191.3710  178.1460  143.5770 C   0  0  0  0  0  0  0  0  0  0  0  0
  191.6250  176.8170  143.9250 C   0  0  0  0  0  3  0  0  0  0  0  0
  189.5500  177.4320  142.1310 C   0  0  0  0  0  0  0  0  0  0  0  0
  190.8450  175.7930  143.3830 C   0  0  0  0  0  3  0  0  0  0  0  0
  190.3360  178.4510  142.6890 C   0  0  0  0  0  3  0  0  0  0  0  0
  189.8110  176.0990  142.4930 C   0  0  0  0  0  3  0  0  0  0  0  0
  192.1240  179.1400  144.1060 F   0  0  0  0  0  0  0  0  0  0  0  0
  185.1930  179.5340  141.6360 C   0  0  0  0  0  2  0  0  0  0  0  0
  184.5780  178.6800  142.7250 C   0  0  0  0  0  2  0  0  0  0  0  0
  185.1830  179.0420  144.0670 C   0  0  0  0  0  2  0  0  0  0  0  0
  185.6070  177.7780  144.8000 C   0  0  0  0  0  2  0  0  0  0  0  0
  185.2170  178.7730  147.4720 O   0  0  0  0  0  0  0  0  0  0  0  0
  186.6630  178.0760  145.7620 N   0  0  0  0  0  0  0  0  0  0  0  0
  186.3800  178.4440  147.1160 C   0  0  0  0  0  0  0  0  0  0  0  0
  188.3830  177.2160  147.8160 C   0  0  0  0  0  2  0  0  0  0  0  0
  188.8730  177.1340  146.3570 C   0  0  0  0  0  2  0  0  0  0  0  0
  188.0600  177.9710  145.3550 C   0  0  0  0  0  2  0  0  0  0  0  0
  187.4960  178.4300  148.1040 C   0  0  0  0  0  2  0  0  0  0  0  0
  1 11  1  0  0  0  0
  2  8  1  0  0  0  0
  3  8  1  6  0  0  0
  3 15  1  0  0  0  0
  3 10  1  0  0  0  0
  4 24  1  0  0  0  0
  4 13  1  0  0  0  0
  5  9  1  0  0  0  0
  6 12  1  0  0  0  0
  6  5  1  0  0  0  0
  7 15  2  0  0  0  0
  9  1  1  0  0  0  0
 10 16  1  1  0  0  0
 10 14  1  0  0  0  0
 11 16  1  0  0  0  0
 12  2  1  0  0  0  0
 14 13  2  0  0  0  0
 14 19  1  0  0  0  0
 15  4  1  0  0  0  0
 17 18  1  0  0  0  0
 17 23  1  0  0  0  0
 19 22  2  0  0  0  0
 19 21  1  0  0  0  0
 20 18  2  0  0  0  0
 21 17  2  0  0  0  0
 22 20  1  0  0  0  0
 24 25  1  0  0  0  0
 25 26  1  0  0  0  0
 26 27  1  0  0  0  0
 27 29  1  0  0  0  0
 29 30  1  0  0  0  0
 30 28  2  0  0  0  0
 30 34  1  0  0  0  0
 31 34  1  0  0  0  0
 32 31  1  0  0  0  0
 33 29  1  0  0  0  0
 33 32  1  0  0  0  0
M  END
>  <MODEL>
7

>  <REMARK>
 VINA RESULT:      -8.8      2.905      8.280
  Name = 
  6 active torsions:
  status: ('A' for Active; 'I' for Inactive)
    1  A    between atoms: C_3  and  N_13
    2  A    between atoms: C_3  and  C_17
    3  A    between atoms: N_5  and  C_18
    4  A    between atoms: C_12  and  C_28
    5  A    between atoms: C_17  and  C_29
    6  A    between atoms: C_18  and  C_29
                            x       y       z     vdW  Elec       q    Type
                         _______ _______ _______ _____ _____    ______ ____

>  <TORSDO>
F 6

$$$$
=
 OpenBabel10262423593D

 34 37  0  0  1  0  0  0  0  0999 V2000
  186.1670  177.2680  145.6750 C   0  0  0  0  0  2  0  0  0  0  0  0
  185.3780  179.4800  142.4640 C   0  0  0  0  0  2  0  0  0  0  0  0
  187.6200  178.3920  142.4440 C   0  0  1  0  0  3  0  0  0  0  0  0
  189.4180  177.6730  140.8050 N   0  0  0  0  0  0  0  0  0  0  0  0
  184.0070  178.3210  145.0870 C   0  0  0  0  0  2  0  0  0  0  0  0
  183.5780  179.5030  144.2340 C   0  0  0  0  0  2  0  0  0  0  0  0
  187.3590  178.4800  140.0610 O   0  0  0  0  0  0  0  0  0  0  0  0
  186.1190  178.1590  142.5600 C   0  0  0  0  0  2  0  0  0  0  0  0
  185.3890  178.5710  145.6570 C   0  0  0  0  0  2  0  0  0  0  0  0
  188.3560  177.5470  143.5020 C   0  0  1  0  0  3  0  0  0  0  0  0
  187.6440  177.5240  145.9390 C   0  0  0  0  0  2  0  0  0  0  0  0
  183.9010  179.2750  142.7590 C   0  0  0  0  0  2  0  0  0  0  0  0
  190.2330  177.2320  141.8910 C   0  0  0  0  0  3  0  0  0  0  0  0
  189.7950  177.1810  143.1540 C   0  0  0  0  0  0  0  0  0  0  0  0
  188.0930  178.1600  141.0370 C   0  0  0  0  0  0  0  0  0  0  0  0
  188.3060  178.3250  144.8190 C   0  0  0  0  0  2  0  0  0  0  0  0
  191.6260  176.5180  146.4080 C   0  0  0  0  0  0  0  0  0  0  0  0
  192.3450  175.3640  146.0930 C   0  0  0  0  0  3  0  0  0  0  0  0
  190.6930  176.5660  144.1620 C   0  0  0  0  0  0  0  0  0  0  0  0
  192.2410  174.8040  144.8170 C   0  0  0  0  0  3  0  0  0  0  0  0
  190.8010  177.1130  145.4490 C   0  0  0  0  0  3  0  0  0  0  0  0
  191.4170  175.4000  143.8580 C   0  0  0  0  0  3  0  0  0  0  0  0
  191.7220  177.0590  147.6460 F   0  0  0  0  0  0  0  0  0  0  0  0
  189.9230  177.4940  139.4520 C   0  0  0  0  0  2  0  0  0  0  0  0
  190.9180  176.3510  139.4310 C   0  0  0  0  0  2  0  0  0  0  0  0
  191.9270  176.5670  138.3200 C   0  0  0  0  0  2  0  0  0  0  0  0
  191.8730  175.4040  137.3410 C   0  0  0  0  0  2  0  0  0  0  0  0
  189.8220  173.3880  137.4490 O   0  0  0  0  0  0  0  0  0  0  0  0
  190.6180  175.4230  136.5950 N   0  0  0  0  0  0  0  0  0  0  0  0
  189.5930  174.4460  136.8050 C   0  0  0  0  0  0  0  0  0  0  0  0
  187.9180  176.1930  136.4140 C   0  0  0  0  0  2  0  0  0  0  0  0
  188.9970  177.1340  135.8430 C   0  0  0  0  0  2  0  0  0  0  0  0
  190.3730  176.4820  135.6230 C   0  0  0  0  0  2  0  0  0  0  0  0
  188.2380  174.7070  136.2400 C   0  0  0  0  0  2  0  0  0  0  0  0
  1 11  1  0  0  0  0
  2  8  1  0  0  0  0
  2 12  1  0  0  0  0
  3  8  1  6  0  0  0
  3 10  1  0  0  0  0
  4 15  1  0  0  0  0
  4 13  1  0  0  0  0
  5  9  1  0  0  0  0
  6  5  1  0  0  0  0
  7 15  2  0  0  0  0
  9  1  1  0  0  0  0
 10 16  1  1  0  0  0
 12  6  1  0  0  0  0
 13 14  2  0  0  0  0
 14 10  1  0  0  0  0
 14 19  1  0  0  0  0
 15  3  1  0  0  0  0
 16 11  1  0  0  0  0
 17 23  1  0  0  0  0
 18 17  1  0  0  0  0
 19 21  1  0  0  0  0
 20 18  2  0  0  0  0
 21 17  2  0  0  0  0
 22 19  2  0  0  0  0
 22 20  1  0  0  0  0
 24  4  1  0  0  0  0
 25 24  1  0  0  0  0
 26 25  1  0  0  0  0
 27 26  1  0  0  0  0
 29 30  1  0  0  0  0
 29 27  1  0  0  0  0
 30 28  2  0  0  0  0
 32 31  1  0  0  0  0
 33 32  1  0  0  0  0
 33 29  1  0  0  0  0
 34 31  1  0  0  0  0
 34 30  1  0  0  0  0
M  END
>  <MODEL>
8

>  <REMARK>
 VINA RESULT:      -8.6      3.076      6.112
  Name = 
  6 active torsions:
  status: ('A' for Active; 'I' for Inactive)
    1  A    between atoms: C_3  and  N_13
    2  A    between atoms: C_3  and  C_17
    3  A    between atoms: N_5  and  C_18
    4  A    between atoms: C_12  and  C_28
    5  A    between atoms: C_17  and  C_29
    6  A    between atoms: C_18  and  C_29
                            x       y       z     vdW  Elec       q    Type
                         _______ _______ _______ _____ _____    ______ ____

>  <TORSDO>
F 6

$$$$
=
 OpenBabel10262423593D

 34 37  0  0  1  0  0  0  0  0999 V2000
  186.2580  177.2950  145.7560 C   0  0  0  0  0  2  0  0  0  0  0  0
  185.4750  179.3870  142.4640 C   0  0  0  0  0  2  0  0  0  0  0  0
  187.6950  178.2540  142.4640 C   0  0  1  0  0  3  0  0  0  0  0  0
  189.4590  177.4320  140.8380 N   0  0  0  0  0  0  0  0  0  0  0  0
  184.1120  178.3650  145.1480 C   0  0  0  0  0  2  0  0  0  0  0  0
  183.6970  179.5190  144.2500 C   0  0  0  0  0  2  0  0  0  0  0  0
  187.4080  178.2490  140.0830 O   0  0  0  0  0  0  0  0  0  0  0  0
  186.1910  178.0570  142.6060 C   0  0  0  0  0  2  0  0  0  0  0  0
  185.5060  178.6110  145.6920 C   0  0  0  0  0  2  0  0  0  0  0  0
  188.4270  177.4390  143.5490 C   0  0  1  0  0  3  0  0  0  0  0  0
  187.7420  177.5320  145.9930 C   0  0  0  0  0  2  0  0  0  0  0  0
  183.9980  179.2240  142.7830 C   0  0  0  0  0  2  0  0  0  0  0  0
  190.2790  177.0210  141.9330 C   0  0  0  0  0  3  0  0  0  0  0  0
  189.8540  177.0300  143.2010 C   0  0  0  0  0  0  0  0  0  0  0  0
  188.1470  177.9550  141.0630 C   0  0  0  0  0  0  0  0  0  0  0  0
  188.4070  178.2720  144.8330 C   0  0  0  0  0  2  0  0  0  0  0  0
  191.6950  176.4560  146.4660 C   0  0  0  0  0  0  0  0  0  0  0  0
  192.4020  175.2850  146.1840 C   0  0  0  0  0  3  0  0  0  0  0  0
  190.7520  176.4400  144.2240 C   0  0  0  0  0  0  0  0  0  0  0  0
  192.2860  174.6860  144.9280 C   0  0  0  0  0  3  0  0  0  0  0  0
  190.8710  177.0280  145.4920 C   0  0  0  0  0  3  0  0  0  0  0  0
  191.4630  175.2580  143.9540 C   0  0  0  0  0  3  0  0  0  0  0  0
  191.8040  177.0360  147.6850 F   0  0  0  0  0  0  0  0  0  0  0  0
  189.9450  177.1870  139.4880 C   0  0  0  0  0  2  0  0  0  0  0  0
  191.4350  176.9190  139.5280 C   0  0  0  0  0  2  0  0  0  0  0  0
  191.8240  175.9980  138.3890 C   0  0  0  0  0  2  0  0  0  0  0  0
  193.0800  176.5200  137.7070 C   0  0  0  0  0  2  0  0  0  0  0  0
  195.2280  175.1240  139.0170 O   0  0  0  0  0  0  0  0  0  0  0  0
  193.8500  175.4180  137.1420 N   0  0  0  0  0  0  0  0  0  0  0  0
  194.8160  174.6910  137.9090 C   0  0  0  0  0  0  0  0  0  0  0  0
  194.1680  172.6570  136.7040 C   0  0  0  0  0  2  0  0  0  0  0  0
  193.4090  173.4910  135.6530 C   0  0  0  0  0  2  0  0  0  0  0  0
  193.6200  175.0110  135.7600 C   0  0  0  0  0  2  0  0  0  0  0  0
  195.3300  173.4010  137.3640 C   0  0  0  0  0  2  0  0  0  0  0  0
  1 11  1  0  0  0  0
  2  8  1  0  0  0  0
  2 12  1  0  0  0  0
  3  8  1  6  0  0  0
  3 10  1  0  0  0  0
  4 15  1  0  0  0  0
  4 13  1  0  0  0  0
  5  9  1  0  0  0  0
  6  5  1  0  0  0  0
  7 15  2  0  0  0  0
  9  1  1  0  0  0  0
 10 16  1  1  0  0  0
 12  6  1  0  0  0  0
 13 14  2  0  0  0  0
 14 10  1  0  0  0  0
 14 19  1  0  0  0  0
 15  3  1  0  0  0  0
 16 11  1  0  0  0  0
 17 23  1  0  0  0  0
 18 17  1  0  0  0  0
 19 21  1  0  0  0  0
 20 18  2  0  0  0  0
 21 17  2  0  0  0  0
 22 19  2  0  0  0  0
 22 20  1  0  0  0  0
 24 25  1  0  0  0  0
 24  4  1  0  0  0  0
 26 25  1  0  0  0  0
 27 26  1  0  0  0  0
 29 27  1  0  0  0  0
 29 30  1  0  0  0  0
 30 28  2  0  0  0  0
 31 34  1  0  0  0  0
 32 33  1  0  0  0  0
 32 31  1  0  0  0  0
 33 29  1  0  0  0  0
 34 30  1  0  0  0  0
M  END
>  <MODEL>
9

>  <REMARK>
 VINA RESULT:      -8.6      4.065      7.341
  Name = 
  6 active torsions:
  status: ('A' for Active; 'I' for Inactive)
    1  A    between atoms: C_3  and  N_13
    2  A    between atoms: C_3  and  C_17
    3  A    between atoms: N_5  and  C_18
    4  A    between atoms: C_12  and  C_28
    5  A    between atoms: C_17  and  C_29
    6  A    between atoms: C_18  and  C_29
                            x       y       z     vdW  Elec       q    Type
                         _______ _______ _______ _____ _____    ______ ____

>  <TORSDO>
F 6

$$$$
