=
 OpenBabel10272414093D

 43 48  0  0  1  0  0  0  0  0999 V2000
  187.1390  178.5720  142.3200 C   0  0  1  0  0  3  0  0  0  0  0  0
  189.4040  177.1730  136.3440 C   0  0  1  0  0  3  0  0  0  0  0  0
  186.9390  177.8010  144.7120 C   0  0  0  0  0  1  0  0  0  0  0  0
  189.7540  177.2430  141.4920 C   0  0  0  0  0  0  0  0  0  0  0  0
  187.0540  177.3550  143.2630 C   0  0  2  0  0  3  0  0  0  0  0  0
  190.1170  176.5810  138.7130 C   0  0  1  0  0  3  0  0  0  0  0  0
  188.9590  178.5800  136.7660 C   0  0  0  0  0  2  0  0  0  0  0  0
  189.8560  177.1930  134.9000 C   0  0  0  0  0  1  0  0  0  0  0  0
  188.8960  177.4720  139.0440 C   0  0  2  0  0  3  0  0  0  0  0  0
  190.5320  176.6580  137.2360 C   0  0  0  0  0  2  0  0  0  0  0  0
  188.9740  178.7990  138.2850 C   0  0  0  0  0  2  0  0  0  0  0  0
  187.5370  178.2300  140.9110 C   0  0  0  0  0  3  0  0  0  0  0  0
  188.6990  177.6830  140.5270 C   0  0  0  0  0  0  0  0  0  0  0  0
  190.9580  176.8800  141.0270 C   0  0  0  0  0  3  0  0  0  0  0  0
  189.4350  177.1180  142.9680 C   0  0  1  0  0  3  0  0  0  0  0  0
  188.1670  176.4090  143.1200 N   0  0  0  0  0  2  0  0  0  0  0  0
  191.3130  176.9720  139.5750 C   0  0  0  0  0  2  0  0  0  0  0  0
  190.5170  176.4160  143.7840 C   0  0  0  0  0  2  0  0  0  0  0  0
  191.6040  177.4030  144.1730 C   0  0  0  0  0  2  0  0  0  0  0  0
  190.2490  177.9380  146.0110 C   0  0  0  0  0  2  0  0  0  0  0  0
  189.9070  177.1540  147.2610 C   0  0  1  0  0  0  0  0  0  0  0  0
  189.7770  178.0850  148.4500 C   0  0  0  0  0  1  0  0  0  0  0  0
  191.8720  176.2900  146.2090 C   0  0  0  0  0  2  0  0  0  0  0  0
  191.6090  177.5900  145.6140 N   0  0  0  0  0  0  0  0  0  0  0  0
  188.7190  176.4520  147.0730 O   0  0  0  0  0  1  0  0  0  0  0  0
  191.0500  176.1950  147.4730 C   0  0  0  0  0  2  0  0  0  0  0  0
  185.5730  179.5210  142.3180 S   0  0  0  0  0  0  0  0  0  0  0  0
  184.8300  178.6160  140.9170 C   0  0  1  0  0  3  0  0  0  0  0  0
  183.5350  177.9690  141.3630 C   0  0  0  0  0  1  0  0  0  0  0  0
  184.5720  179.4940  139.8600 O   0  0  0  0  0  0  0  0  0  0  0  0
  183.6060  178.8540  139.0760 C   0  0  2  0  0  3  0  0  0  0  0  0
  183.8750  176.5590  137.8830 C   0  0  2  0  0  0  0  0  0  0  0  0
  183.4610  177.6120  137.0060 O   0  0  0  0  0  0  0  0  0  0  0  0
  184.2970  178.0040  138.0170 C   0  0  1  0  0  0  0  0  0  0  0  0
  185.1160  175.9350  137.5620 O   0  0  0  0  0  0  0  0  0  0  0  0
  184.0300  175.4850  136.8480 C   0  0  1  0  0  3  0  0  0  0  0  0
  185.5440  178.4150  137.5250 O   0  0  0  0  0  1  0  0  0  0  0  0
  182.7330  173.4210  136.3900 C   0  0  0  0  0  1  0  0  0  0  0  0
  184.6780  173.3800  137.7520 O   0  0  0  0  0  1  0  0  0  0  0  0
  183.5690  174.1560  137.4170 C   0  0  1  0  0  3  0  0  0  0  0  0
  182.6780  179.8870  138.4490 C   0  0  0  0  0  2  0  0  0  0  0  0
  181.0830  178.2440  139.1130 F   0  0  0  0  0  0  0  0  0  0  0  0
  181.2280  179.5780  138.7790 C   0  0  0  0  0  2  0  0  0  0  0  0
  1 27  1  6  0  0  0
  1  5  1  0  0  0  0
  2  8  1  6  0  0  0
  2  7  1  0  0  0  0
  2 10  1  0  0  0  0
  4 15  1  0  0  0  0
  5  3  1  1  0  0  0
  6 10  1  6  0  0  0
  6  9  1  0  0  0  0
  6 17  1  0  0  0  0
  7 11  1  0  0  0  0
  9 11  1  6  0  0  0
  9 13  1  0  0  0  0
 12  1  1  0  0  0  0
 13 12  2  0  0  0  0
 13  4  1  0  0  0  0
 14  4  2  0  0  0  0
 15 16  1  0  0  0  0
 15 18  1  1  0  0  0
 16  5  1  0  0  0  0
 17 14  1  0  0  0  0
 18 19  1  0  0  0  0
 19 24  1  0  0  0  0
 20 21  1  0  0  0  0
 21 26  1  0  0  0  0
 21 22  1  1  0  0  0
 23 26  1  0  0  0  0
 24 20  1  0  0  0  0
 24 23  1  0  0  0  0
 25 21  1  0  0  0  0
 28 29  1  1  0  0  0
 28 27  1  0  0  0  0
 30 28  1  0  0  0  0
 31 41  1  6  0  0  0
 31 30  1  0  0  0  0
 32 33  1  6  0  0  0
 32 34  1  0  0  0  0
 33 34  1  0  0  0  0
 34 37  1  6  0  0  0
 34 31  1  0  0  0  0
 35 32  1  0  0  0  0
 36 40  1  1  0  0  0
 36 35  1  0  0  0  0
 36 32  1  0  0  0  0
 40 38  1  6  0  0  0
 40 39  1  0  0  0  0
 41 43  1  0  0  0  0
 43 42  1  0  0  0  0
M  END
>  <MODEL>
1

>  <REMARK>
 VINA RESULT:      -8.1      0.000      0.000
  Name = 
  11 active torsions:
  status: ('A' for Active; 'I' for Inactive)
    1  A    between atoms: C_1  and  C_34
    2  A    between atoms: C_1  and  C_35
    3  A    between atoms: C_2  and  S_6
    4  A    between atoms: O_3  and  C_4
    5  A    between atoms: O_3  and  C_12
    6  A    between atoms: C_4  and  C_15
    7  A    between atoms: C_4  and  C_22
    8  A    between atoms: S_6  and  C_12
    9  A    between atoms: C_15  and  C_42
   10  A    between atoms: C_31  and  C_40
   11  A    between atoms: N_32  and  C_35
                            x       y       z     vdW  Elec       q    Type
                         _______ _______ _______ _____ _____    ______ ____

>  <TORSDO>
F 11

$$$$
=
 OpenBabel10272414093D

 43 48  0  0  1  0  0  0  0  0999 V2000
  188.8770  177.6980  140.0880 C   0  0  1  0  0  3  0  0  0  0  0  0
  183.5160  179.3920  143.4330 C   0  0  1  0  0  3  0  0  0  0  0  0
  191.3790  177.3920  140.1660 C   0  0  0  0  0  1  0  0  0  0  0  0
  188.1240  177.1140  142.9830 C   0  0  0  0  0  0  0  0  0  0  0  0
  190.1970  178.1610  140.7370 C   0  0  2  0  0  3  0  0  0  0  0  0
  185.7630  178.3710  144.0490 C   0  0  1  0  0  3  0  0  0  0  0  0
  183.4700  178.6330  142.0990 C   0  0  0  0  0  2  0  0  0  0  0  0
  182.1070  179.6380  143.9280 C   0  0  0  0  0  1  0  0  0  0  0  0
  185.9640  178.4940  142.5190 C   0  0  2  0  0  3  0  0  0  0  0  0
  184.3100  178.6190  144.4830 C   0  0  0  0  0  2  0  0  0  0  0  0
  184.7740  177.8950  141.7680 C   0  0  0  0  0  2  0  0  0  0  0  0
  187.6420  178.1970  140.7870 C   0  0  0  0  0  3  0  0  0  0  0  0
  187.2770  177.9160  142.0460 C   0  0  0  0  0  0  0  0  0  0  0  0
  187.6100  176.7200  144.1570 C   0  0  0  0  0  3  0  0  0  0  0  0
  189.5760  176.8340  142.6510 C   0  0  1  0  0  3  0  0  0  0  0  0
  190.2070  178.0720  142.2010 N   0  0  0  0  0  2  0  0  0  0  0  0
  186.1870  176.9890  144.5350 C   0  0  0  0  0  2  0  0  0  0  0  0
  190.3780  176.2380  143.8060 C   0  0  0  0  0  2  0  0  0  0  0  0
  191.5980  177.0950  144.0940 C   0  0  0  0  0  2  0  0  0  0  0  0
  190.3060  177.8100  145.9160 C   0  0  0  0  0  2  0  0  0  0  0  0
  190.0050  177.1500  147.2460 C   0  0  1  0  0  0  0  0  0  0  0  0
  189.9160  178.1910  148.3440 C   0  0  0  0  0  1  0  0  0  0  0  0
  191.9320  176.1800  146.2160 C   0  0  0  0  0  2  0  0  0  0  0  0
  191.6510  177.4190  145.5090 N   0  0  0  0  0  0  0  0  0  0  0  0
  188.8100  176.4390  147.1650 O   0  0  0  0  0  1  0  0  0  0  0  0
  191.1530  176.2100  147.5100 C   0  0  0  0  0  2  0  0  0  0  0  0
  188.8170  178.1440  138.3130 S   0  0  0  0  0  0  0  0  0  0  0  0
  187.5270  176.9280  137.8770 C   0  0  1  0  0  3  0  0  0  0  0  0
  186.1970  177.6350  137.7200 C   0  0  0  0  0  1  0  0  0  0  0  0
  187.8580  176.2860  136.6790 O   0  0  0  0  0  0  0  0  0  0  0  0
  188.5440  175.1270  137.0580 C   0  0  2  0  0  3  0  0  0  0  0  0
  191.1420  175.1920  136.9790 C   0  0  2  0  0  0  0  0  0  0  0  0
  190.5920  173.9290  136.5920 O   0  0  0  0  0  0  0  0  0  0  0  0
  189.8300  175.0140  136.2490 C   0  0  1  0  0  0  0  0  0  0  0  0
  191.9220  175.8580  135.9890 O   0  0  0  0  0  0  0  0  0  0  0  0
  192.5810  174.8800  136.6950 C   0  0  1  0  0  3  0  0  0  0  0  0
  189.7760  175.1870  134.8600 O   0  0  0  0  0  1  0  0  0  0  0  0
  194.6250  174.6100  138.0750 C   0  0  0  0  0  1  0  0  0  0  0  0
  193.9500  176.7400  137.2710 O   0  0  0  0  0  1  0  0  0  0  0  0
  193.4620  175.5240  137.7490 C   0  0  1  0  0  3  0  0  0  0  0  0
  187.6500  173.9080  136.8660 C   0  0  0  0  0  2  0  0  0  0  0  0
  185.4140  174.4270  136.2210 F   0  0  0  0  0  0  0  0  0  0  0  0
  186.6710  174.1340  135.7270 C   0  0  0  0  0  2  0  0  0  0  0  0
  1 27  1  6  0  0  0
  1  5  1  0  0  0  0
  1 12  1  0  0  0  0
  2  8  1  1  0  0  0
  2 10  1  0  0  0  0
  4 14  2  0  0  0  0
  5  3  1  6  0  0  0
  5 16  1  0  0  0  0
  6 10  1  6  0  0  0
  6 17  1  0  0  0  0
  7  2  1  0  0  0  0
  9 11  1  6  0  0  0
  9  6  1  0  0  0  0
 11  7  1  0  0  0  0
 12 13  2  0  0  0  0
 13  9  1  0  0  0  0
 13  4  1  0  0  0  0
 14 17  1  0  0  0  0
 15  4  1  0  0  0  0
 15 18  1  1  0  0  0
 16 15  1  0  0  0  0
 18 19  1  0  0  0  0
 19 24  1  0  0  0  0
 20 21  1  0  0  0  0
 21 26  1  0  0  0  0
 21 22  1  1  0  0  0
 23 26  1  0  0  0  0
 24 20  1  0  0  0  0
 24 23  1  0  0  0  0
 25 21  1  0  0  0  0
 28 29  1  6  0  0  0
 28 27  1  0  0  0  0
 30 31  1  0  0  0  0
 30 28  1  0  0  0  0
 31 41  1  6  0  0  0
 32 35  1  6  0  0  0
 33 32  1  0  0  0  0
 34 37  1  6  0  0  0
 34 33  1  0  0  0  0
 34 32  1  0  0  0  0
 34 31  1  0  0  0  0
 35 36  1  0  0  0  0
 36 32  1  0  0  0  0
 36 40  1  1  0  0  0
 39 40  1  0  0  0  0
 40 38  1  6  0  0  0
 43 42  1  0  0  0  0
 43 41  1  0  0  0  0
M  END
>  <MODEL>
2

>  <REMARK>
 VINA RESULT:      -8.0      3.019      6.154
  Name = 
  11 active torsions:
  status: ('A' for Active; 'I' for Inactive)
    1  A    between atoms: C_1  and  C_34
    2  A    between atoms: C_1  and  C_35
    3  A    between atoms: C_2  and  S_6
    4  A    between atoms: O_3  and  C_4
    5  A    between atoms: O_3  and  C_12
    6  A    between atoms: C_4  and  C_15
    7  A    between atoms: C_4  and  C_22
    8  A    between atoms: S_6  and  C_12
    9  A    between atoms: C_15  and  C_42
   10  A    between atoms: C_31  and  C_40
   11  A    between atoms: N_32  and  C_35
                            x       y       z     vdW  Elec       q    Type
                         _______ _______ _______ _____ _____    ______ ____

>  <TORSDO>
F 11

$$$$
=
 OpenBabel10272414093D

 43 48  0  0  1  0  0  0  0  0999 V2000
  189.4850  178.0040  140.7280 C   0  0  1  0  0  3  0  0  0  0  0  0
  183.4410  178.6020  143.1610 C   0  0  1  0  0  3  0  0  0  0  0  0
  190.9120  177.0190  138.8970 C   0  0  0  0  0  1  0  0  0  0  0  0
  186.8280  178.3540  139.2760 C   0  0  0  0  0  0  0  0  0  0  0  0
  189.6490  176.8430  139.7260 C   0  0  2  0  0  3  0  0  0  0  0  0
  184.4090  178.2550  140.8340 C   0  0  1  0  0  3  0  0  0  0  0  0
  184.6080  179.5090  143.5750 C   0  0  0  0  0  2  0  0  0  0  0  0
  182.1930  178.9970  143.9210 C   0  0  0  0  0  1  0  0  0  0  0  0
  185.7300  178.3250  141.6370 C   0  0  2  0  0  3  0  0  0  0  0  0
  183.1840  178.6810  141.6580 C   0  0  0  0  0  2  0  0  0  0  0  0
  185.7450  179.5550  142.5460 C   0  0  0  0  0  2  0  0  0  0  0  0
  188.1320  178.0610  141.3830 C   0  0  0  0  0  3  0  0  0  0  0  0
  186.9600  178.2550  140.7630 C   0  0  0  0  0  0  0  0  0  0  0  0
  185.6560  178.7320  138.7450 C   0  0  0  0  0  3  0  0  0  0  0  0
  187.9750  177.9370  138.3780 C   0  0  1  0  0  3  0  0  0  0  0  0
  188.4950  176.6520  138.8390 N   0  0  0  0  0  2  0  0  0  0  0  0
  184.4900  179.1370  139.5920 C   0  0  0  0  0  2  0  0  0  0  0  0
  187.6100  177.8430  136.8990 C   0  0  0  0  0  2  0  0  0  0  0  0
  187.8190  176.4260  136.3960 C   0  0  0  0  0  2  0  0  0  0  0  0
  185.8730  175.1590  136.7290 C   0  0  0  0  0  2  0  0  0  0  0  0
  184.4090  175.5350  136.6330 C   0  0  1  0  0  0  0  0  0  0  0  0
  183.6000  174.3760  136.0880 C   0  0  0  0  0  1  0  0  0  0  0  0
  185.7840  177.1140  135.4790 C   0  0  0  0  0  2  0  0  0  0  0  0
  186.6110  175.9480  135.7480 N   0  0  0  0  0  0  0  0  0  0  0  0
  183.9290  175.9030  137.8890 O   0  0  0  0  0  1  0  0  0  0  0  0
  184.3440  176.7070  135.6890 C   0  0  0  0  0  2  0  0  0  0  0  0
  190.7990  177.9710  142.0020 S   0  0  0  0  0  0  0  0  0  0  0  0
  189.6720  177.6250  143.3980 C   0  0  1  0  0  3  0  0  0  0  0  0
  189.4860  176.1290  143.5390 C   0  0  0  0  0  1  0  0  0  0  0  0
  190.2030  178.1430  144.5830 O   0  0  0  0  0  0  0  0  0  0  0  0
  190.3530  177.0410  145.4320 C   0  0  2  0  0  3  0  0  0  0  0  0
  188.2200  177.8930  146.6520 C   0  0  2  0  0  0  0  0  0  0  0  0
  188.5040  176.5110  146.8980 O   0  0  0  0  0  0  0  0  0  0  0  0
  189.6100  177.3030  146.7360 C   0  0  1  0  0  0  0  0  0  0  0  0
  188.2070  178.7380  147.8000 O   0  0  0  0  0  0  0  0  0  0  0  0
  187.0510  178.0270  147.5810 C   0  0  1  0  0  3  0  0  0  0  0  0
  190.3430  177.4130  147.9250 O   0  0  0  0  0  1  0  0  0  0  0  0
  184.6930  178.1970  146.8290 C   0  0  0  0  0  1  0  0  0  0  0  0
  185.8270  180.0590  147.7720 O   0  0  0  0  0  1  0  0  0  0  0  0
  186.0080  178.9380  146.9630 C   0  0  1  0  0  3  0  0  0  0  0  0
  191.8330  176.7690  145.6740 C   0  0  0  0  0  2  0  0  0  0  0  0
  192.9420  175.5410  147.3890 F   0  0  0  0  0  0  0  0  0  0  0  0
  192.0280  175.4280  146.3580 C   0  0  0  0  0  2  0  0  0  0  0  0
  1 12  1  0  0  0  0
  1 27  1  1  0  0  0
  2  7  1  0  0  0  0
  2  8  1  1  0  0  0
  4 13  1  0  0  0  0
  5  3  1  6  0  0  0
  5  1  1  0  0  0  0
  6 17  1  6  0  0  0
  6  9  1  0  0  0  0
  6 10  1  0  0  0  0
  9 11  1  6  0  0  0
 10  2  1  0  0  0  0
 11  7  1  0  0  0  0
 13 12  2  0  0  0  0
 13  9  1  0  0  0  0
 14  4  2  0  0  0  0
 14 17  1  0  0  0  0
 15 18  1  6  0  0  0
 15 16  1  0  0  0  0
 15  4  1  0  0  0  0
 16  5  1  0  0  0  0
 19 18  1  0  0  0  0
 21 22  1  6  0  0  0
 21 20  1  0  0  0  0
 21 25  1  0  0  0  0
 23 26  1  0  0  0  0
 23 24  1  0  0  0  0
 24 19  1  0  0  0  0
 24 20  1  0  0  0  0
 26 21  1  0  0  0  0
 27 28  1  0  0  0  0
 28 29  1  1  0  0  0
 28 30  1  0  0  0  0
 30 31  1  0  0  0  0
 31 41  1  1  0  0  0
 31 34  1  0  0  0  0
 32 34  1  0  0  0  0
 32 33  1  1  0  0  0
 32 36  1  0  0  0  0
 32 35  1  0  0  0  0
 34 33  1  0  0  0  0
 34 37  1  1  0  0  0
 36 40  1  6  0  0  0
 36 35  1  0  0  0  0
 40 38  1  1  0  0  0
 40 39  1  0  0  0  0
 41 43  1  0  0  0  0
 43 42  1  0  0  0  0
M  END
>  <MODEL>
3

>  <REMARK>
 VINA RESULT:      -7.7      3.272      9.361
  Name = 
  11 active torsions:
  status: ('A' for Active; 'I' for Inactive)
    1  A    between atoms: C_1  and  C_34
    2  A    between atoms: C_1  and  C_35
    3  A    between atoms: C_2  and  S_6
    4  A    between atoms: O_3  and  C_4
    5  A    between atoms: O_3  and  C_12
    6  A    between atoms: C_4  and  C_15
    7  A    between atoms: C_4  and  C_22
    8  A    between atoms: S_6  and  C_12
    9  A    between atoms: C_15  and  C_42
   10  A    between atoms: C_31  and  C_40
   11  A    between atoms: N_32  and  C_35
                            x       y       z     vdW  Elec       q    Type
                         _______ _______ _______ _____ _____    ______ ____

>  <TORSDO>
F 11

$$$$
=
 OpenBabel10272414093D

 43 48  0  0  1  0  0  0  0  0999 V2000
  186.9190  178.1670  140.2440 C   0  0  1  0  0  3  0  0  0  0  0  0
  189.0100  178.0370  146.4420 C   0  0  1  0  0  3  0  0  0  0  0  0
  187.5820  178.3640  137.8190 C   0  0  0  0  0  1  0  0  0  0  0  0
  189.4130  176.8760  141.4300 C   0  0  0  0  0  0  0  0  0  0  0  0
  187.9420  178.7480  139.2460 C   0  0  2  0  0  3  0  0  0  0  0  0
  190.0190  177.3890  144.1980 C   0  0  1  0  0  3  0  0  0  0  0  0
  187.6130  177.5670  146.0160 C   0  0  0  0  0  2  0  0  0  0  0  0
  189.1640  177.8890  147.9400 C   0  0  0  0  0  1  0  0  0  0  0  0
  188.6250  177.8540  143.7110 C   0  0  2  0  0  3  0  0  0  0  0  0
  190.1030  177.2460  145.7250 C   0  0  0  0  0  2  0  0  0  0  0  0
  187.5180  177.1890  144.5320 C   0  0  0  0  0  2  0  0  0  0  0  0
  187.3490  178.2560  141.6830 C   0  0  0  0  0  3  0  0  0  0  0  0
  188.4190  177.6610  142.2270 C   0  0  0  0  0  0  0  0  0  0  0  0
  190.3480  176.1590  142.0700 C   0  0  0  0  0  3  0  0  0  0  0  0
  189.4220  176.9670  139.9180 C   0  0  1  0  0  3  0  0  0  0  0  0
  189.3320  178.3720  139.5270 N   0  0  0  0  0  2  0  0  0  0  0  0
  190.3890  176.0530  143.5630 C   0  0  0  0  0  2  0  0  0  0  0  0
  190.6420  176.3280  139.2590 C   0  0  0  0  0  2  0  0  0  0  0  0
  190.9270  176.9940  137.9250 C   0  0  0  0  0  2  0  0  0  0  0  0
  193.1490  176.5480  137.3200 C   0  0  0  0  0  2  0  0  0  0  0  0
  193.9970  175.3040  137.4830 C   0  0  1  0  0  0  0  0  0  0  0  0
  194.9300  175.1400  136.3000 C   0  0  0  0  0  1  0  0  0  0  0  0
  191.6700  174.7930  137.6740 C   0  0  0  0  0  2  0  0  0  0  0  0
  191.7660  176.1310  137.1110 N   0  0  0  0  0  0  0  0  0  0  0  0
  194.7340  175.3820  138.6640 O   0  0  0  0  0  1  0  0  0  0  0  0
  193.0310  174.1500  137.5490 C   0  0  0  0  0  2  0  0  0  0  0  0
  185.2720  178.9370  140.0320 S   0  0  0  0  0  0  0  0  0  0  0  0
  184.4540  177.9450  141.3280 C   0  0  1  0  0  3  0  0  0  0  0  0
  184.1060  178.8350  142.5030 C   0  0  0  0  0  1  0  0  0  0  0  0
  183.2860  177.3640  140.8220 O   0  0  0  0  0  0  0  0  0  0  0  0
  183.0630  177.9950  139.5940 C   0  0  2  0  0  3  0  0  0  0  0  0
  181.5520  179.9260  138.7270 C   0  0  2  0  0  0  0  0  0  0  0  0
  181.0110  178.6240  138.4790 O   0  0  0  0  0  0  0  0  0  0  0  0
  181.7310  178.7330  139.6390 C   0  0  1  0  0  0  0  0  0  0  0  0
  180.7580  180.7830  139.5420 O   0  0  0  0  0  0  0  0  0  0  0  0
  180.3900  180.7260  138.2190 C   0  0  1  0  0  3  0  0  0  0  0  0
  180.9140  178.5910  140.7690 O   0  0  0  0  0  1  0  0  0  0  0  0
  180.5460  181.8830  136.0300 C   0  0  0  0  0  1  0  0  0  0  0  0
  180.3070  183.0990  138.0550 O   0  0  0  0  0  1  0  0  0  0  0  0
  180.8960  181.9630  137.5010 C   0  0  1  0  0  3  0  0  0  0  0  0
  183.0980  176.9670  138.4690 C   0  0  0  0  0  2  0  0  0  0  0  0
  181.3680  175.4960  139.1950 F   0  0  0  0  0  0  0  0  0  0  0  0
  182.7320  175.5880  138.9900 C   0  0  0  0  0  2  0  0  0  0  0  0
  1 27  1  1  0  0  0
  1 12  1  0  0  0  0
  2  8  1  1  0  0  0
  4 14  2  0  0  0  0
  4 13  1  0  0  0  0
  5  3  1  6  0  0  0
  5 16  1  0  0  0  0
  5  1  1  0  0  0  0
  6 17  1  6  0  0  0
  6 10  1  0  0  0  0
  7  2  1  0  0  0  0
  9  6  1  0  0  0  0
  9 11  1  1  0  0  0
 10  2  1  0  0  0  0
 11  7  1  0  0  0  0
 12 13  2  0  0  0  0
 13  9  1  0  0  0  0
 14 17  1  0  0  0  0
 15 18  1  1  0  0  0
 15  4  1  0  0  0  0
 16 15  1  0  0  0  0
 19 18  1  0  0  0  0
 20 21  1  0  0  0  0
 21 22  1  6  0  0  0
 21 26  1  0  0  0  0
 21 25  1  0  0  0  0
 24 20  1  0  0  0  0
 24 23  1  0  0  0  0
 24 19  1  0  0  0  0
 26 23  1  0  0  0  0
 27 28  1  0  0  0  0
 28 29  1  1  0  0  0
 30 28  1  0  0  0  0
 31 41  1  6  0  0  0
 31 34  1  0  0  0  0
 31 30  1  0  0  0  0
 32 33  1  1  0  0  0
 32 35  1  0  0  0  0
 32 34  1  0  0  0  0
 33 34  1  0  0  0  0
 34 37  1  1  0  0  0
 36 40  1  6  0  0  0
 36 32  1  0  0  0  0
 36 35  1  0  0  0  0
 40 38  1  6  0  0  0
 40 39  1  0  0  0  0
 41 43  1  0  0  0  0
 43 42  1  0  0  0  0
M  END
>  <MODEL>
4

>  <REMARK>
 VINA RESULT:      -7.6      2.946      6.700
  Name = 
  11 active torsions:
  status: ('A' for Active; 'I' for Inactive)
    1  A    between atoms: C_1  and  C_34
    2  A    between atoms: C_1  and  C_35
    3  A    between atoms: C_2  and  S_6
    4  A    between atoms: O_3  and  C_4
    5  A    between atoms: O_3  and  C_12
    6  A    between atoms: C_4  and  C_15
    7  A    between atoms: C_4  and  C_22
    8  A    between atoms: S_6  and  C_12
    9  A    between atoms: C_15  and  C_42
   10  A    between atoms: C_31  and  C_40
   11  A    between atoms: N_32  and  C_35
                            x       y       z     vdW  Elec       q    Type
                         _______ _______ _______ _____ _____    ______ ____

>  <TORSDO>
F 11

$$$$
=
 OpenBabel10272414093D

 43 48  0  0  1  0  0  0  0  0999 V2000
  189.0090  177.6320  140.1140 C   0  0  1  0  0  3  0  0  0  0  0  0
  183.5630  179.3070  143.3280 C   0  0  1  0  0  3  0  0  0  0  0  0
  191.5090  177.3340  140.2520 C   0  0  0  0  0  1  0  0  0  0  0  0
  188.1890  177.0450  142.9900 C   0  0  0  0  0  0  0  0  0  0  0  0
  190.3120  178.1000  140.7950 C   0  0  2  0  0  3  0  0  0  0  0  0
  185.7980  178.2940  143.9990 C   0  0  1  0  0  3  0  0  0  0  0  0
  183.5520  178.5480  141.9950 C   0  0  0  0  0  2  0  0  0  0  0  0
  182.1420  179.5480  143.7900 C   0  0  0  0  0  1  0  0  0  0  0  0
  186.0360  178.4180  142.4750 C   0  0  2  0  0  3  0  0  0  0  0  0
  184.3340  178.5360  144.3980 C   0  0  0  0  0  2  0  0  0  0  0  0
  184.8660  177.8150  141.6950 C   0  0  0  0  0  2  0  0  0  0  0  0
  187.7560  178.1270  140.7830 C   0  0  0  0  0  3  0  0  0  0  0  0
  187.3620  177.8440  142.0330 C   0  0  0  0  0  0  0  0  0  0  0  0
  187.6480  176.6490  144.1520 C   0  0  0  0  0  3  0  0  0  0  0  0
  189.6490  176.7700  142.6930 C   0  0  1  0  0  3  0  0  0  0  0  0
  190.2860  178.0110  142.2590 N   0  0  0  0  0  2  0  0  0  0  0  0
  186.2150  176.9130  144.4950 C   0  0  0  0  0  2  0  0  0  0  0  0
  190.4250  176.1770  143.8670 C   0  0  0  0  0  2  0  0  0  0  0  0
  191.6330  177.0390  144.1860 C   0  0  0  0  0  2  0  0  0  0  0  0
  190.2650  177.6900  145.9770 C   0  0  0  0  0  2  0  0  0  0  0  0
  189.9800  177.0250  147.3070 C   0  0  1  0  0  0  0  0  0  0  0  0
  189.8060  178.0680  148.3930 C   0  0  0  0  0  1  0  0  0  0  0  0
  191.9830  176.1670  146.3240 C   0  0  0  0  0  2  0  0  0  0  0  0
  191.6400  177.3790  145.5980 N   0  0  0  0  0  0  0  0  0  0  0  0
  188.8330  176.2400  147.2110 O   0  0  0  0  0  1  0  0  0  0  0  0
  191.1780  176.1600  147.6030 C   0  0  0  0  0  2  0  0  0  0  0  0
  188.9910  178.0780  138.3390 S   0  0  0  0  0  0  0  0  0  0  0  0
  187.2700  177.5400  138.0470 C   0  0  1  0  0  3  0  0  0  0  0  0
  186.6590  178.3750  136.9420 C   0  0  0  0  0  1  0  0  0  0  0  0
  187.2440  176.1910  137.6800 O   0  0  0  0  0  0  0  0  0  0  0  0
  186.3730  176.1230  136.5870 C   0  0  2  0  0  3  0  0  0  0  0  0
  183.9560  175.9940  137.5370 C   0  0  2  0  0  0  0  0  0  0  0  0
  184.0610  175.5400  136.1840 O   0  0  0  0  0  0  0  0  0  0  0  0
  185.1580  175.2820  136.9610 C   0  0  1  0  0  0  0  0  0  0  0  0
  183.4880  175.0330  138.4800 O   0  0  0  0  0  0  0  0  0  0  0  0
  182.5090  175.6620  137.7490 C   0  0  1  0  0  3  0  0  0  0  0  0
  185.3250  173.9070  137.1780 O   0  0  0  0  0  1  0  0  0  0  0  0
  180.4880  177.0700  138.0420 C   0  0  0  0  0  1  0  0  0  0  0  0
  181.7240  176.2790  139.9090 O   0  0  0  0  0  1  0  0  0  0  0  0
  181.8570  176.7360  138.5990 C   0  0  1  0  0  3  0  0  0  0  0  0
  187.1020  175.5500  135.3770 C   0  0  0  0  0  2  0  0  0  0  0  0
  189.3800  176.2500  135.3220 F   0  0  0  0  0  0  0  0  0  0  0  0
  188.5440  175.2250  135.7230 C   0  0  0  0  0  2  0  0  0  0  0  0
  1 27  1  6  0  0  0
  1 12  1  0  0  0  0
  1  5  1  0  0  0  0
  2  8  1  1  0  0  0
  2 10  1  0  0  0  0
  4 14  2  0  0  0  0
  5  3  1  6  0  0  0
  5 16  1  0  0  0  0
  6 10  1  6  0  0  0
  6 17  1  0  0  0  0
  7  2  1  0  0  0  0
  9 11  1  6  0  0  0
  9  6  1  0  0  0  0
 11  7  1  0  0  0  0
 12 13  2  0  0  0  0
 13  9  1  0  0  0  0
 13  4  1  0  0  0  0
 14 17  1  0  0  0  0
 15  4  1  0  0  0  0
 15 18  1  1  0  0  0
 16 15  1  0  0  0  0
 18 19  1  0  0  0  0
 19 24  1  0  0  0  0
 20 21  1  0  0  0  0
 21 26  1  0  0  0  0
 21 22  1  1  0  0  0
 23 26  1  0  0  0  0
 24 20  1  0  0  0  0
 24 23  1  0  0  0  0
 25 21  1  0  0  0  0
 28 29  1  6  0  0  0
 28 27  1  0  0  0  0
 30 28  1  0  0  0  0
 31 41  1  6  0  0  0
 31 34  1  0  0  0  0
 31 30  1  0  0  0  0
 32 33  1  6  0  0  0
 32 36  1  0  0  0  0
 32 35  1  0  0  0  0
 33 34  1  0  0  0  0
 34 37  1  1  0  0  0
 34 32  1  0  0  0  0
 36 35  1  0  0  0  0
 36 40  1  1  0  0  0
 40 38  1  6  0  0  0
 40 39  1  0  0  0  0
 41 43  1  0  0  0  0
 42 43  1  0  0  0  0
M  END
>  <MODEL>
5

>  <REMARK>
 VINA RESULT:      -7.5      2.396      4.987
  Name = 
  11 active torsions:
  status: ('A' for Active; 'I' for Inactive)
    1  A    between atoms: C_1  and  C_34
    2  A    between atoms: C_1  and  C_35
    3  A    between atoms: C_2  and  S_6
    4  A    between atoms: O_3  and  C_4
    5  A    between atoms: O_3  and  C_12
    6  A    between atoms: C_4  and  C_15
    7  A    between atoms: C_4  and  C_22
    8  A    between atoms: S_6  and  C_12
    9  A    between atoms: C_15  and  C_42
   10  A    between atoms: C_31  and  C_40
   11  A    between atoms: N_32  and  C_35
                            x       y       z     vdW  Elec       q    Type
                         _______ _______ _______ _____ _____    ______ ____

>  <TORSDO>
F 11

$$$$
=
 OpenBabel10272414093D

 43 48  0  0  1  0  0  0  0  0999 V2000
  186.8020  178.2850  139.8450 C   0  0  1  0  0  3  0  0  0  0  0  0
  188.5290  178.0860  146.1520 C   0  0  1  0  0  3  0  0  0  0  0  0
  187.6090  178.4580  137.4620 C   0  0  0  0  0  1  0  0  0  0  0  0
  189.1790  176.9100  141.1700 C   0  0  0  0  0  0  0  0  0  0  0  0
  187.8990  178.8310  138.9080 C   0  0  2  0  0  3  0  0  0  0  0  0
  189.6420  177.4040  143.9690 C   0  0  1  0  0  3  0  0  0  0  0  0
  187.1430  177.6630  145.6470 C   0  0  0  0  0  2  0  0  0  0  0  0
  188.5920  177.9330  147.6560 C   0  0  0  0  0  1  0  0  0  0  0  0
  188.2950  177.9160  143.4040 C   0  0  2  0  0  3  0  0  0  0  0  0
  189.6340  177.2590  145.4980 C   0  0  0  0  0  2  0  0  0  0  0  0
  187.1210  177.2890  144.1590 C   0  0  0  0  0  2  0  0  0  0  0  0
  187.1510  178.3590  141.3060 C   0  0  0  0  0  3  0  0  0  0  0  0
  188.1680  177.7290  141.9100 C   0  0  0  0  0  0  0  0  0  0  0  0
  190.0510  176.1630  141.8610 C   0  0  0  0  0  3  0  0  0  0  0  0
  189.2770  177.0010  139.6610 C   0  0  1  0  0  3  0  0  0  0  0  0
  189.2570  178.4080  139.2680 N   0  0  0  0  0  2  0  0  0  0  0  0
  190.0030  176.0560  143.3540 C   0  0  0  0  0  2  0  0  0  0  0  0
  190.5100  176.3200  139.0720 C   0  0  0  0  0  2  0  0  0  0  0  0
  190.1150  175.4420  137.8980 C   0  0  0  0  0  2  0  0  0  0  0  0
  192.2170  176.3360  137.3630 C   0  0  0  0  0  2  0  0  0  0  0  0
  193.5800  175.6840  137.2550 C   0  0  1  0  0  0  0  0  0  0  0  0
  194.3860  176.3240  136.1430 C   0  0  0  0  0  1  0  0  0  0  0  0
  191.8320  174.0570  137.1320 C   0  0  0  0  0  2  0  0  0  0  0  0
  191.2130  175.3600  136.9500 N   0  0  0  0  0  0  0  0  0  0  0  0
  194.2600  175.8020  138.4650 O   0  0  0  0  0  1  0  0  0  0  0  0
  193.3210  174.2330  136.9430 C   0  0  0  0  0  2  0  0  0  0  0  0
  185.1970  179.1100  139.5400 S   0  0  0  0  0  0  0  0  0  0  0  0
  184.1780  177.7450  140.1980 C   0  0  1  0  0  3  0  0  0  0  0  0
  183.7410  178.0750  141.6100 C   0  0  0  0  0  1  0  0  0  0  0  0
  183.0490  177.5580  139.3940 O   0  0  0  0  0  0  0  0  0  0  0  0
  182.9500  176.1740  139.2150 C   0  0  2  0  0  3  0  0  0  0  0  0
  184.6650  175.2060  137.5170 C   0  0  2  0  0  0  0  0  0  0  0  0
  183.4340  174.4760  137.5620 O   0  0  0  0  0  0  0  0  0  0  0  0
  183.3090  175.8230  137.7770 C   0  0  1  0  0  0  0  0  0  0  0  0
  184.9980  175.7850  136.2580 O   0  0  0  0  0  0  0  0  0  0  0  0
  185.3050  174.4520  136.3900 C   0  0  1  0  0  3  0  0  0  0  0  0
  182.6170  176.4500  136.7310 O   0  0  0  0  0  1  0  0  0  0  0  0
  187.1380  172.8340  136.8110 C   0  0  0  0  0  1  0  0  0  0  0  0
  187.5130  174.8350  135.5880 O   0  0  0  0  0  1  0  0  0  0  0  0
  186.7910  174.3000  136.6550 C   0  0  1  0  0  3  0  0  0  0  0  0
  181.5450  175.7040  139.5740 C   0  0  0  0  0  2  0  0  0  0  0  0
  180.2850  177.2230  140.9100 F   0  0  0  0  0  0  0  0  0  0  0  0
  180.5780  176.8740  139.6050 C   0  0  0  0  0  2  0  0  0  0  0  0
  1 27  1  1  0  0  0
  1 12  1  0  0  0  0
  2  8  1  1  0  0  0
  4 14  2  0  0  0  0
  4 13  1  0  0  0  0
  5  3  1  6  0  0  0
  5 16  1  0  0  0  0
  5  1  1  0  0  0  0
  6 17  1  6  0  0  0
  6 10  1  0  0  0  0
  7  2  1  0  0  0  0
  9  6  1  0  0  0  0
  9 11  1  1  0  0  0
 10  2  1  0  0  0  0
 11  7  1  0  0  0  0
 12 13  2  0  0  0  0
 13  9  1  0  0  0  0
 14 17  1  0  0  0  0
 15 18  1  1  0  0  0
 15  4  1  0  0  0  0
 16 15  1  0  0  0  0
 19 18  1  0  0  0  0
 21 22  1  6  0  0  0
 21 20  1  0  0  0  0
 21 25  1  0  0  0  0
 24 23  1  0  0  0  0
 24 20  1  0  0  0  0
 24 19  1  0  0  0  0
 26 23  1  0  0  0  0
 26 21  1  0  0  0  0
 27 28  1  0  0  0  0
 28 29  1  1  0  0  0
 30 28  1  0  0  0  0
 31 30  1  0  0  0  0
 31 41  1  6  0  0  0
 32 35  1  6  0  0  0
 32 33  1  0  0  0  0
 32 34  1  0  0  0  0
 33 34  1  0  0  0  0
 34 37  1  6  0  0  0
 34 31  1  0  0  0  0
 35 36  1  0  0  0  0
 36 40  1  1  0  0  0
 36 32  1  0  0  0  0
 39 40  1  0  0  0  0
 40 38  1  6  0  0  0
 41 43  1  0  0  0  0
 43 42  1  0  0  0  0
M  END
>  <MODEL>
6

>  <REMARK>
 VINA RESULT:      -7.3      2.704      6.119
  Name = 
  11 active torsions:
  status: ('A' for Active; 'I' for Inactive)
    1  A    between atoms: C_1  and  C_34
    2  A    between atoms: C_1  and  C_35
    3  A    between atoms: C_2  and  S_6
    4  A    between atoms: O_3  and  C_4
    5  A    between atoms: O_3  and  C_12
    6  A    between atoms: C_4  and  C_15
    7  A    between atoms: C_4  and  C_22
    8  A    between atoms: S_6  and  C_12
    9  A    between atoms: C_15  and  C_42
   10  A    between atoms: C_31  and  C_40
   11  A    between atoms: N_32  and  C_35
                            x       y       z     vdW  Elec       q    Type
                         _______ _______ _______ _____ _____    ______ ____

>  <TORSDO>
F 11

$$$$
=
 OpenBabel10272414093D

 43 48  0  0  1  0  0  0  0  0999 V2000
  189.8130  177.4140  140.5010 C   0  0  1  0  0  3  0  0  0  0  0  0
  193.8280  175.5500  135.6840 C   0  0  1  0  0  3  0  0  0  0  0  0
  187.7110  178.6710  141.1000 C   0  0  0  0  0  1  0  0  0  0  0  0
  189.1590  176.4960  137.6690 C   0  0  0  0  0  0  0  0  0  0  0  0
  188.8730  178.5770  140.1230 C   0  0  2  0  0  3  0  0  0  0  0  0
  191.3450  176.0830  135.8400 C   0  0  1  0  0  3  0  0  0  0  0  0
  193.8400  174.9160  137.0810 C   0  0  0  0  0  2  0  0  0  0  0  0
  194.8870  174.9010  134.8200 C   0  0  0  0  0  1  0  0  0  0  0  0
  191.7340  176.3020  137.3220 C   0  0  2  0  0  3  0  0  0  0  0  0
  192.4580  175.4090  135.0230 C   0  0  0  0  0  2  0  0  0  0  0  0
  192.5290  175.1080  137.8540 C   0  0  0  0  0  2  0  0  0  0  0  0
  190.8220  177.0720  139.4390 C   0  0  0  0  0  3  0  0  0  0  0  0
  190.5510  176.6290  138.2030 C   0  0  0  0  0  0  0  0  0  0  0  0
  188.9640  175.8730  136.4970 C   0  0  0  0  0  3  0  0  0  0  0  0
  187.9980  177.1430  138.3940 C   0  0  1  0  0  3  0  0  0  0  0  0
  188.3640  178.5130  138.7490 N   0  0  0  0  0  2  0  0  0  0  0  0
  190.0840  175.2330  135.7380 C   0  0  0  0  0  2  0  0  0  0  0  0
  186.6920  177.1490  137.6040 C   0  0  0  0  0  2  0  0  0  0  0  0
  185.8990  178.4080  137.9090 C   0  0  0  0  0  2  0  0  0  0  0  0
  184.1040  179.3260  139.1090 C   0  0  0  0  0  2  0  0  0  0  0  0
  182.6070  179.2070  138.9120 C   0  0  1  0  0  0  0  0  0  0  0  0
  181.8980  179.1880  140.2510 C   0  0  0  0  0  1  0  0  0  0  0  0
  183.7710  177.4550  137.7750 C   0  0  0  0  0  2  0  0  0  0  0  0
  184.7200  178.0720  138.6880 N   0  0  0  0  0  0  0  0  0  0  0  0
  182.1430  180.2710  138.1410 O   0  0  0  0  0  1  0  0  0  0  0  0
  182.3880  177.9050  138.1860 C   0  0  0  0  0  2  0  0  0  0  0  0
  190.6600  177.7340  142.0920 S   0  0  0  0  0  0  0  0  0  0  0  0
  189.1840  177.4490  143.1290 C   0  0  1  0  0  3  0  0  0  0  0  0
  188.9910  175.9620  143.3360 C   0  0  0  0  0  1  0  0  0  0  0  0
  189.3410  178.0760  144.3690 O   0  0  0  0  0  0  0  0  0  0  0  0
  188.8710  177.1530  145.3100 C   0  0  2  0  0  3  0  0  0  0  0  0
  186.5180  178.2110  144.9850 C   0  0  2  0  0  0  0  0  0  0  0  0
  186.4810  176.9150  145.5910 O   0  0  0  0  0  0  0  0  0  0  0  0
  187.5740  177.6700  145.9210 C   0  0  1  0  0  0  0  0  0  0  0  0
  185.9750  179.2760  145.7620 O   0  0  0  0  0  0  0  0  0  0  0  0
  185.0530  178.5190  145.0790 C   0  0  1  0  0  3  0  0  0  0  0  0
  187.5590  178.0350  147.2740 O   0  0  0  0  0  1  0  0  0  0  0  0
  184.4290  178.2960  142.6880 C   0  0  0  0  0  1  0  0  0  0  0  0
  183.3960  179.9110  144.0900 O   0  0  0  0  0  1  0  0  0  0  0  0
  184.6070  179.2670  143.8370 C   0  0  1  0  0  3  0  0  0  0  0  0
  189.9340  176.9090  146.3740 C   0  0  0  0  0  2  0  0  0  0  0  0
  191.8650  176.0520  145.2690 F   0  0  0  0  0  0  0  0  0  0  0  0
  191.3210  177.1950  145.8240 C   0  0  0  0  0  2  0  0  0  0  0  0
  1 27  1  1  0  0  0
  2  8  1  6  0  0  0
  2  7  1  0  0  0  0
  4 13  1  0  0  0  0
  4 15  1  0  0  0  0
  5  1  1  0  0  0  0
  5  3  1  1  0  0  0
  6 10  1  6  0  0  0
  6  9  1  0  0  0  0
  7 11  1  0  0  0  0
  9 11  1  1  0  0  0
  9 13  1  0  0  0  0
 10  2  1  0  0  0  0
 12  1  1  0  0  0  0
 13 12  2  0  0  0  0
 14  4  2  0  0  0  0
 15 18  1  6  0  0  0
 15 16  1  0  0  0  0
 16  5  1  0  0  0  0
 17  6  1  0  0  0  0
 17 14  1  0  0  0  0
 18 19  1  0  0  0  0
 19 24  1  0  0  0  0
 21 20  1  0  0  0  0
 21 22  1  1  0  0  0
 23 26  1  0  0  0  0
 23 24  1  0  0  0  0
 24 20  1  0  0  0  0
 25 21  1  0  0  0  0
 26 21  1  0  0  0  0
 27 28  1  0  0  0  0
 28 29  1  1  0  0  0
 28 30  1  0  0  0  0
 30 31  1  0  0  0  0
 31 34  1  0  0  0  0
 31 41  1  1  0  0  0
 32 36  1  0  0  0  0
 32 33  1  1  0  0  0
 32 35  1  0  0  0  0
 32 34  1  0  0  0  0
 33 34  1  0  0  0  0
 34 37  1  1  0  0  0
 36 40  1  6  0  0  0
 36 35  1  0  0  0  0
 40 38  1  6  0  0  0
 40 39  1  0  0  0  0
 42 43  1  0  0  0  0
 43 41  1  0  0  0  0
M  END
>  <MODEL>
7

>  <REMARK>
 VINA RESULT:      -7.2      3.352      7.877
  Name = 
  11 active torsions:
  status: ('A' for Active; 'I' for Inactive)
    1  A    between atoms: C_1  and  C_34
    2  A    between atoms: C_1  and  C_35
    3  A    between atoms: C_2  and  S_6
    4  A    between atoms: O_3  and  C_4
    5  A    between atoms: O_3  and  C_12
    6  A    between atoms: C_4  and  C_15
    7  A    between atoms: C_4  and  C_22
    8  A    between atoms: S_6  and  C_12
    9  A    between atoms: C_15  and  C_42
   10  A    between atoms: C_31  and  C_40
   11  A    between atoms: N_32  and  C_35
                            x       y       z     vdW  Elec       q    Type
                         _______ _______ _______ _____ _____    ______ ____

>  <TORSDO>
F 11

$$$$
=
 OpenBabel10272414093D

 43 48  0  0  1  0  0  0  0  0999 V2000
  187.0540  177.9190  138.6610 C   0  0  1  0  0  3  0  0  0  0  0  0
  181.9570  179.4670  142.4590 C   0  0  1  0  0  3  0  0  0  0  0  0
  189.5440  178.1230  138.3200 C   0  0  0  0  0  1  0  0  0  0  0  0
  186.8650  178.0640  141.6990 C   0  0  0  0  0  0  0  0  0  0  0  0
  188.3050  178.7890  138.8990 C   0  0  2  0  0  3  0  0  0  0  0  0
  184.4440  179.1080  142.8580 C   0  0  1  0  0  3  0  0  0  0  0  0
  181.9080  178.3610  141.3960 C   0  0  0  0  0  2  0  0  0  0  0  0
  180.6120  179.5760  143.1440 C   0  0  0  0  0  1  0  0  0  0  0  0
  184.3990  178.8200  141.3380 C   0  0  2  0  0  3  0  0  0  0  0  0
  183.0480  179.1930  143.4930 C   0  0  0  0  0  2  0  0  0  0  0  0
  183.2900  177.8170  141.0110 C   0  0  0  0  0  2  0  0  0  0  0  0
  185.8450  178.3570  139.4410 C   0  0  0  0  0  3  0  0  0  0  0  0
  185.7330  178.3880  140.7760 C   0  0  0  0  0  0  0  0  0  0  0  0
  186.6240  177.9370  143.0130 C   0  0  0  0  0  3  0  0  0  0  0  0
  188.2820  177.9780  141.1700 C   0  0  1  0  0  3  0  0  0  0  0  0
  188.5360  179.1300  140.3070 N   0  0  0  0  0  2  0  0  0  0  0  0
  185.2430  178.0310  143.5830 C   0  0  0  0  0  2  0  0  0  0  0  0
  189.3520  177.9030  142.2560 C   0  0  0  0  0  2  0  0  0  0  0  0
  190.0440  176.5520  142.2180 C   0  0  0  0  0  2  0  0  0  0  0  0
  191.4920  176.3440  144.0520 C   0  0  0  0  0  2  0  0  0  0  0  0
  191.3660  176.8260  145.4820 C   0  0  1  0  0  0  0  0  0  0  0  0
  191.9930  175.8270  146.4340 C   0  0  0  0  0  1  0  0  0  0  0  0
  189.2360  176.7710  144.3980 C   0  0  0  0  0  2  0  0  0  0  0  0
  190.1570  176.0160  143.5630 N   0  0  0  0  0  0  0  0  0  0  0  0
  191.9820  178.0680  145.6210 O   0  0  0  0  0  1  0  0  0  0  0  0
  189.8880  176.9450  145.7500 C   0  0  0  0  0  2  0  0  0  0  0  0
  186.6480  177.8140  136.8790 S   0  0  0  0  0  0  0  0  0  0  0  0
  186.7210  175.9910  136.7960 C   0  0  1  0  0  3  0  0  0  0  0  0
  185.3160  175.4310  136.7270 C   0  0  0  0  0  1  0  0  0  0  0  0
  187.4380  175.5910  135.6640 O   0  0  0  0  0  0  0  0  0  0  0  0
  188.4590  174.7650  136.1470 C   0  0  2  0  0  3  0  0  0  0  0  0
  191.0130  175.0670  136.5330 C   0  0  2  0  0  0  0  0  0  0  0  0
  190.7000  174.2820  135.3770 O   0  0  0  0  0  0  0  0  0  0  0  0
  189.8040  175.2800  135.6500 C   0  0  1  0  0  0  0  0  0  0  0  0
  191.7490  176.2620  136.2900 O   0  0  0  0  0  0  0  0  0  0  0  0
  192.5000  175.1120  136.3490 C   0  0  1  0  0  3  0  0  0  0  0  0
  189.8270  176.2780  134.6660 O   0  0  0  0  0  1  0  0  0  0  0  0
  194.1840  173.8850  137.6960 C   0  0  0  0  0  1  0  0  0  0  0  0
  193.8510  176.2220  137.9630 O   0  0  0  0  0  1  0  0  0  0  0  0
  193.1860  175.0250  137.6990 C   0  0  1  0  0  3  0  0  0  0  0  0
  188.2130  173.3260  135.7100 C   0  0  0  0  0  2  0  0  0  0  0  0
  186.8750  172.5950  137.5430 F   0  0  0  0  0  0  0  0  0  0  0  0
  188.0940  172.4110  136.9160 C   0  0  0  0  0  2  0  0  0  0  0  0
  1 27  1  6  0  0  0
  1  5  1  0  0  0  0
  1 12  1  0  0  0  0
  2  8  1  1  0  0  0
  2 10  1  0  0  0  0
  4 14  2  0  0  0  0
  5  3  1  1  0  0  0
  5 16  1  0  0  0  0
  6 10  1  1  0  0  0
  6 17  1  0  0  0  0
  7  2  1  0  0  0  0
  9 11  1  1  0  0  0
  9  6  1  0  0  0  0
 11  7  1  0  0  0  0
 12 13  2  0  0  0  0
 13  9  1  0  0  0  0
 13  4  1  0  0  0  0
 14 17  1  0  0  0  0
 15  4  1  0  0  0  0
 15 18  1  1  0  0  0
 16 15  1  0  0  0  0
 19 18  1  0  0  0  0
 19 24  1  0  0  0  0
 20 21  1  0  0  0  0
 21 25  1  0  0  0  0
 21 26  1  0  0  0  0
 21 22  1  1  0  0  0
 23 26  1  0  0  0  0
 24 20  1  0  0  0  0
 24 23  1  0  0  0  0
 28 29  1  6  0  0  0
 28 27  1  0  0  0  0
 30 31  1  0  0  0  0
 30 28  1  0  0  0  0
 31 41  1  6  0  0  0
 32 33  1  6  0  0  0
 33 34  1  0  0  0  0
 34 37  1  6  0  0  0
 34 31  1  0  0  0  0
 34 32  1  0  0  0  0
 35 36  1  0  0  0  0
 35 32  1  0  0  0  0
 36 32  1  0  0  0  0
 36 40  1  1  0  0  0
 40 38  1  6  0  0  0
 40 39  1  0  0  0  0
 41 43  1  0  0  0  0
 43 42  1  0  0  0  0
M  END
>  <MODEL>
8

>  <REMARK>
 VINA RESULT:      -7.2      3.387      6.656
  Name = 
  11 active torsions:
  status: ('A' for Active; 'I' for Inactive)
    1  A    between atoms: C_1  and  C_34
    2  A    between atoms: C_1  and  C_35
    3  A    between atoms: C_2  and  S_6
    4  A    between atoms: O_3  and  C_4
    5  A    between atoms: O_3  and  C_12
    6  A    between atoms: C_4  and  C_15
    7  A    between atoms: C_4  and  C_22
    8  A    between atoms: S_6  and  C_12
    9  A    between atoms: C_15  and  C_42
   10  A    between atoms: C_31  and  C_40
   11  A    between atoms: N_32  and  C_35
                            x       y       z     vdW  Elec       q    Type
                         _______ _______ _______ _____ _____    ______ ____

>  <TORSDO>
F 11

$$$$
=
 OpenBabel10272414093D

 43 48  0  0  1  0  0  0  0  0999 V2000
  187.5550  177.8610  138.7070 C   0  0  1  0  0  3  0  0  0  0  0  0
  188.4680  177.9130  145.1850 C   0  0  1  0  0  3  0  0  0  0  0  0
  188.6170  178.2000  136.4440 C   0  0  0  0  0  1  0  0  0  0  0  0
  189.9500  176.9220  140.3420 C   0  0  0  0  0  0  0  0  0  0  0  0
  188.6480  178.6040  137.9100 C   0  0  2  0  0  3  0  0  0  0  0  0
  189.9550  177.4630  143.1700 C   0  0  1  0  0  3  0  0  0  0  0  0
  187.2560  177.2530  144.5120 C   0  0  0  0  0  2  0  0  0  0  0  0
  188.3630  177.7580  146.6860 C   0  0  0  0  0  1  0  0  0  0  0  0
  188.6220  177.7300  142.4320 C   0  0  2  0  0  3  0  0  0  0  0  0
  189.7770  177.3030  144.6880 C   0  0  0  0  0  2  0  0  0  0  0  0
  187.4920  176.8960  143.0380 C   0  0  0  0  0  2  0  0  0  0  0  0
  187.6950  177.9830  140.1990 C   0  0  0  0  0  3  0  0  0  0  0  0
  188.7230  177.5390  140.9370 C   0  0  0  0  0  0  0  0  0  0  0  0
  190.8460  176.3360  141.1490 C   0  0  0  0  0  3  0  0  0  0  0  0
  190.2230  177.0440  138.8570 C   0  0  1  0  0  3  0  0  0  0  0  0
  190.0020  178.4280  138.4460 N   0  0  0  0  0  2  0  0  0  0  0  0
  190.6270  176.2080  142.6250 C   0  0  0  0  0  2  0  0  0  0  0  0
  191.6230  176.6010  138.4400 C   0  0  0  0  0  2  0  0  0  0  0  0
  191.7310  176.5590  136.9260 C   0  0  0  0  0  2  0  0  0  0  0  0
  194.0170  176.0340  136.9700 C   0  0  0  0  0  2  0  0  0  0  0  0
  194.7600  174.8640  137.5800 C   0  0  1  0  0  0  0  0  0  0  0  0
  195.9400  174.4760  136.7110 C   0  0  0  0  0  1  0  0  0  0  0  0
  192.4380  174.3660  137.3100 C   0  0  0  0  0  2  0  0  0  0  0  0
  192.7090  175.5620  136.5280 N   0  0  0  0  0  0  0  0  0  0  0  0
  195.1990  175.1930  138.8610 O   0  0  0  0  0  1  0  0  0  0  0  0
  193.7670  173.7320  137.6460 C   0  0  0  0  0  2  0  0  0  0  0  0
  185.8810  178.3880  138.1880 S   0  0  0  0  0  0  0  0  0  0  0  0
  185.4650  176.8230  137.3440 C   0  0  1  0  0  3  0  0  0  0  0  0
  185.2150  177.0910  135.8750 C   0  0  0  0  0  1  0  0  0  0  0  0
  186.5160  175.9110  137.4800 O   0  0  0  0  0  0  0  0  0  0  0  0
  186.3850  175.0340  136.3970 C   0  0  2  0  0  3  0  0  0  0  0  0
  184.3150  173.4660  136.2590 C   0  0  2  0  0  0  0  0  0  0  0  0
  185.5360  172.8330  135.8630 O   0  0  0  0  0  0  0  0  0  0  0  0
  185.6710  173.7680  136.8550 C   0  0  1  0  0  0  0  0  0  0  0  0
  183.6450  172.8820  137.3740 O   0  0  0  0  0  0  0  0  0  0  0  0
  183.4250  172.2630  136.1660 C   0  0  1  0  0  3  0  0  0  0  0  0
  186.0450  173.1800  138.0710 O   0  0  0  0  0  1  0  0  0  0  0  0
  181.7570  171.8940  134.3680 C   0  0  0  0  0  1  0  0  0  0  0  0
  181.0870  172.4070  136.5880 O   0  0  0  0  0  1  0  0  0  0  0  0
  182.0660  172.6710  135.6300 C   0  0  1  0  0  3  0  0  0  0  0  0
  187.7570  174.7250  135.8110 C   0  0  0  0  0  2  0  0  0  0  0  0
  189.2650  173.1630  136.7960 F   0  0  0  0  0  0  0  0  0  0  0  0
  188.7620  174.4450  136.9140 C   0  0  0  0  0  2  0  0  0  0  0  0
  1 27  1  6  0  0  0
  1 12  1  0  0  0  0
  2  8  1  1  0  0  0
  4 13  1  0  0  0  0
  4 14  2  0  0  0  0
  5  3  1  6  0  0  0
  5 16  1  0  0  0  0
  5  1  1  0  0  0  0
  6 17  1  6  0  0  0
  6 10  1  0  0  0  0
  7  2  1  0  0  0  0
  9 11  1  1  0  0  0
  9  6  1  0  0  0  0
 10  2  1  0  0  0  0
 11  7  1  0  0  0  0
 12 13  2  0  0  0  0
 13  9  1  0  0  0  0
 14 17  1  0  0  0  0
 15 18  1  1  0  0  0
 15  4  1  0  0  0  0
 16 15  1  0  0  0  0
 19 18  1  0  0  0  0
 20 21  1  0  0  0  0
 21 22  1  6  0  0  0
 21 26  1  0  0  0  0
 21 25  1  0  0  0  0
 23 26  1  0  0  0  0
 24 19  1  0  0  0  0
 24 20  1  0  0  0  0
 24 23  1  0  0  0  0
 28 29  1  6  0  0  0
 28 30  1  0  0  0  0
 28 27  1  0  0  0  0
 31 41  1  1  0  0  0
 31 34  1  0  0  0  0
 31 30  1  0  0  0  0
 32 33  1  1  0  0  0
 32 34  1  0  0  0  0
 32 35  1  0  0  0  0
 33 34  1  0  0  0  0
 34 37  1  1  0  0  0
 36 40  1  6  0  0  0
 36 32  1  0  0  0  0
 36 35  1  0  0  0  0
 40 38  1  6  0  0  0
 40 39  1  0  0  0  0
 41 43  1  0  0  0  0
 42 43  1  0  0  0  0
M  END
>  <MODEL>
9

>  <REMARK>
 VINA RESULT:      -7.0      3.425      6.775
  Name = 
  11 active torsions:
  status: ('A' for Active; 'I' for Inactive)
    1  A    between atoms: C_1  and  C_34
    2  A    between atoms: C_1  and  C_35
    3  A    between atoms: C_2  and  S_6
    4  A    between atoms: O_3  and  C_4
    5  A    between atoms: O_3  and  C_12
    6  A    between atoms: C_4  and  C_15
    7  A    between atoms: C_4  and  C_22
    8  A    between atoms: S_6  and  C_12
    9  A    between atoms: C_15  and  C_42
   10  A    between atoms: C_31  and  C_40
   11  A    between atoms: N_32  and  C_35
                            x       y       z     vdW  Elec       q    Type
                         _______ _______ _______ _____ _____    ______ ____

>  <TORSDO>
F 11

$$$$
