=
 OpenBabel10272402083D

 32 34  0  0  1  0  0  0  0  0999 V2000
  186.4310  178.1950  143.7340 C   0  0  2  0  0  3  0  0  0  0  0  0
  185.2430  178.6730  142.8770 C   0  0  1  0  0  3  0  0  0  0  0  0
  184.6100  179.9140  143.4790 C   0  0  0  0  0  1  0  0  0  0  0  0
  186.4400  178.3790  138.5610 C   0  0  0  0  0  1  0  0  0  0  0  0
  184.6460  178.4310  140.3970 N   0  0  0  0  0  0  0  0  0  0  0  0
  185.0140  178.4070  138.9970 C   0  0  0  0  0  0  0  0  0  0  0  0
  184.1220  178.3710  138.1070 O   0  0  0  0  0  0  0  0  0  0  0  0
  186.6090  179.5110  141.1030 O   0  0  0  0  0  0  0  0  0  0  0  0
  185.5600  178.8860  141.4170 C   0  0  0  0  0  0  0  0  0  0  0  0
  182.6710  176.6010  139.8900 S   0  0  0  0  0  0  0  0  0  0  0  0
  180.9520  177.1740  140.0360 C   0  0  0  0  0  2  0  0  0  0  0  0
  183.2900  178.0520  140.8110 C   0  0  2  0  0  3  0  0  0  0  0  0
  179.9820  179.3000  140.3650 O   0  0  0  0  0  0  0  0  0  0  0  0
  182.3170  179.2120  140.6850 C   0  0  0  0  0  2  0  0  0  0  0  0
  180.9940  178.6200  140.3670 C   0  0  0  0  0  0  0  0  0  0  0  0
  186.9300  176.7990  143.3800 C   0  0  0  0  0  2  0  0  0  0  0  0
  188.2690  176.8800  142.6640 C   0  0  0  0  0  2  0  0  0  0  0  0
  189.1410  175.6970  143.0520 C   0  0  0  0  0  2  0  0  0  0  0  0
  190.4540  175.9110  142.6260 O   0  0  0  0  0  0  0  0  0  0  0  0
  191.9370  177.6530  141.9880 C   0  0  0  0  0  2  0  0  0  0  0  0
  191.5710  179.1350  143.9300 C   0  0  0  0  0  1  0  0  0  0  0  0
  190.5980  177.3000  142.6010 C   0  0  2  0  0  3  0  0  0  0  0  0
  191.7610  177.6980  143.4910 C   0  0  1  0  0  3  0  0  0  0  0  0
  186.2650  178.4010  145.2490 C   0  0  1  0  0  3  0  0  0  0  0  0
  184.8440  178.8160  145.6130 C   0  0  0  0  0  2  0  0  0  0  0  0
  184.5010  178.3790  146.8940 O   0  0  0  0  0  1  0  0  0  0  0  0
  186.7470  177.2370  146.1160 C   0  0  0  0  0  2  0  0  0  0  0  0
  189.2850  176.8810  146.5320 C   0  0  0  0  0  2  0  0  0  0  0  0
  189.0250  178.2950  146.0300 C   0  0  0  0  0  2  0  0  0  0  0  0
  188.0010  177.5970  146.8960 C   0  0  0  0  0  0  0  0  0  0  0  0
  187.8810  178.2120  148.2590 C   0  0  0  0  0  3  0  0  0  0  0  0
  188.7990  178.1630  149.0650 O   0  0  0  0  0  0  0  0  0  0  0  0
  1 16  1  1  0  0  0
  1 24  1  0  0  0  0
  2  3  1  1  0  0  0
  2  1  1  0  0  0  0
  4  6  1  0  0  0  0
  5  9  1  0  0  0  0
  6  5  1  0  0  0  0
  7  6  2  0  0  0  0
  8  9  2  0  0  0  0
  9  2  1  0  0  0  0
 10 11  1  0  0  0  0
 10 12  1  0  0  0  0
 11 15  1  0  0  0  0
 12  5  1  6  0  0  0
 13 15  2  0  0  0  0
 14 12  1  0  0  0  0
 15 14  1  0  0  0  0
 17 18  1  0  0  0  0
 17 16  1  0  0  0  0
 19 18  1  0  0  0  0
 20 22  1  0  0  0  0
 20 23  1  0  0  0  0
 22 19  1  1  0  0  0
 22 23  1  0  0  0  0
 23 21  1  6  0  0  0
 24 25  1  6  0  0  0
 24 27  1  0  0  0  0
 25 26  1  0  0  0  0
 27 30  1  0  0  0  0
 28 30  1  0  0  0  0
 29 28  1  0  0  0  0
 29 30  1  0  0  0  0
 30 31  1  0  0  0  0
 31 32  2  0  0  0  0
M  END
>  <MODEL>
1

>  <REMARK>
 VINA RESULT:      -6.8      0.000      0.000
  Name = 
  13 active torsions:
  status: ('A' for Active; 'I' for Inactive)
    1  A    between atoms: C_1  and  C_5
    2  A    between atoms: C_1  and  C_27
    3  A    between atoms: C_2  and  C_5
    4  A    between atoms: C_2  and  C_28
    5  A    between atoms: C_5  and  C_14
    6  A    between atoms: C_6  and  C_29
    7  A    between atoms: O_10  and  C_12
    8  A    between atoms: O_10  and  C_32
    9  A    between atoms: C_14  and  C_18
   10  A    between atoms: C_14  and  C_21
   11  A    between atoms: C_15  and  N_16
   12  A    between atoms: C_18  and  C_29
   13  A    between atoms: C_28  and  C_32
                            x       y       z     vdW  Elec       q    Type
                         _______ _______ _______ _____ _____    ______ ____

>  <TORSDO>
F 13

$$$$
=
 OpenBabel10272402083D

 32 34  0  0  1  0  0  0  0  0999 V2000
  188.7780  178.0190  143.3630 C   0  0  2  0  0  3  0  0  0  0  0  0
  187.5570  177.0850  143.2620 C   0  0  1  0  0  3  0  0  0  0  0  0
  187.9620  175.6420  143.5030 C   0  0  0  0  0  1  0  0  0  0  0  0
  184.4420  179.1180  145.7730 C   0  0  0  0  0  1  0  0  0  0  0  0
  185.2050  178.0570  143.5630 N   0  0  0  0  0  0  0  0  0  0  0  0
  184.1690  178.6470  144.3840 C   0  0  0  0  0  0  0  0  0  0  0  0
  183.0090  178.8110  143.9210 O   0  0  0  0  0  0  0  0  0  0  0  0
  186.4470  177.2230  145.3750 O   0  0  0  0  0  0  0  0  0  0  0  0
  186.3910  177.4690  144.1390 C   0  0  0  0  0  0  0  0  0  0  0  0
  185.5860  179.5100  141.2720 S   0  0  0  0  0  0  0  0  0  0  0  0
  184.3860  179.2690  139.9280 C   0  0  0  0  0  2  0  0  0  0  0  0
  185.0400  177.9800  142.1070 C   0  0  2  0  0  3  0  0  0  0  0  0
  182.3450  178.0960  139.7790 O   0  0  0  0  0  0  0  0  0  0  0  0
  183.6080  177.6500  141.7190 C   0  0  0  0  0  2  0  0  0  0  0  0
  183.3600  178.3150  140.4170 C   0  0  0  0  0  0  0  0  0  0  0  0
  189.3400  178.4520  142.0130 C   0  0  0  0  0  2  0  0  0  0  0  0
  188.7010  177.6510  140.8910 C   0  0  0  0  0  2  0  0  0  0  0  0
  188.9790  178.3130  139.5520 C   0  0  0  0  0  2  0  0  0  0  0  0
  187.7830  178.5050  138.8550 O   0  0  0  0  0  0  0  0  0  0  0  0
  188.9440  178.5930  136.7850 C   0  0  0  0  0  2  0  0  0  0  0  0
  187.1070  177.7990  135.3350 C   0  0  0  0  0  1  0  0  0  0  0  0
  187.9630  177.8260  137.6480 C   0  0  2  0  0  3  0  0  0  0  0  0
  187.4580  178.6920  136.5070 C   0  0  1  0  0  3  0  0  0  0  0  0
  189.8710  177.5570  144.3420 C   0  0  1  0  0  3  0  0  0  0  0  0
  191.2340  177.4550  143.6640 C   0  0  0  0  0  2  0  0  0  0  0  0
  191.6080  176.1230  143.4790 O   0  0  0  0  0  1  0  0  0  0  0  0
  189.9520  178.3550  145.6430 C   0  0  0  0  0  2  0  0  0  0  0  0
  189.3130  177.8160  148.1010 C   0  0  0  0  0  2  0  0  0  0  0  0
  188.7970  176.7260  147.1700 C   0  0  0  0  0  2  0  0  0  0  0  0
  190.0890  177.4460  146.8540 C   0  0  0  0  0  0  0  0  0  0  0  0
  191.2920  176.5610  146.9910 C   0  0  0  0  0  3  0  0  0  0  0  0
  192.1170  176.7370  147.8750 O   0  0  0  0  0  0  0  0  0  0  0  0
  1 16  1  6  0  0  0
  1 24  1  0  0  0  0
  2  1  1  0  0  0  0
  2  3  1  1  0  0  0
  2  9  1  0  0  0  0
  5  9  1  0  0  0  0
  5  6  1  0  0  0  0
  6  4  1  0  0  0  0
  7  6  2  0  0  0  0
  9  8  2  0  0  0  0
 10 12  1  0  0  0  0
 11 15  1  0  0  0  0
 11 10  1  0  0  0  0
 12  5  1  1  0  0  0
 13 15  2  0  0  0  0
 14 12  1  0  0  0  0
 15 14  1  0  0  0  0
 17 16  1  0  0  0  0
 18 17  1  0  0  0  0
 19 18  1  0  0  0  0
 20 22  1  0  0  0  0
 22 19  1  1  0  0  0
 23 21  1  6  0  0  0
 23 20  1  0  0  0  0
 23 22  1  0  0  0  0
 24 25  1  6  0  0  0
 24 27  1  0  0  0  0
 26 25  1  0  0  0  0
 27 30  1  0  0  0  0
 29 28  1  0  0  0  0
 30 31  1  0  0  0  0
 30 29  1  0  0  0  0
 30 28  1  0  0  0  0
 31 32  2  0  0  0  0
M  END
>  <MODEL>
2

>  <REMARK>
 VINA RESULT:      -6.7      2.143      4.818
  Name = 
  13 active torsions:
  status: ('A' for Active; 'I' for Inactive)
    1  A    between atoms: C_1  and  C_5
    2  A    between atoms: C_1  and  C_27
    3  A    between atoms: C_2  and  C_5
    4  A    between atoms: C_2  and  C_28
    5  A    between atoms: C_5  and  C_14
    6  A    between atoms: C_6  and  C_29
    7  A    between atoms: O_10  and  C_12
    8  A    between atoms: O_10  and  C_32
    9  A    between atoms: C_14  and  C_18
   10  A    between atoms: C_14  and  C_21
   11  A    between atoms: C_15  and  N_16
   12  A    between atoms: C_18  and  C_29
   13  A    between atoms: C_28  and  C_32
                            x       y       z     vdW  Elec       q    Type
                         _______ _______ _______ _____ _____    ______ ____

>  <TORSDO>
F 13

$$$$
=
 OpenBabel10272402083D

 32 34  0  0  1  0  0  0  0  0999 V2000
  190.1560  177.8320  143.1990 C   0  0  2  0  0  3  0  0  0  0  0  0
  189.3000  176.8690  142.3550 C   0  0  1  0  0  3  0  0  0  0  0  0
  189.1890  175.5150  143.0310 C   0  0  0  0  0  1  0  0  0  0  0  0
  185.6570  179.2960  141.3640 C   0  0  0  0  0  1  0  0  0  0  0  0
  187.6860  177.8950  140.6490 N   0  0  0  0  0  0  0  0  0  0  0  0
  186.4750  178.6150  140.3190 C   0  0  0  0  0  0  0  0  0  0  0  0
  186.1020  178.7130  139.1190 O   0  0  0  0  0  0  0  0  0  0  0  0
  187.0060  177.3470  142.8300 O   0  0  0  0  0  0  0  0  0  0  0  0
  187.9370  177.3960  141.9800 C   0  0  0  0  0  0  0  0  0  0  0  0
  189.0370  179.0460  138.5620 S   0  0  0  0  0  0  0  0  0  0  0  0
  189.3990  177.9910  137.1260 C   0  0  0  0  0  2  0  0  0  0  0  0
  188.6730  177.5920  139.6060 C   0  0  2  0  0  3  0  0  0  0  0  0
  188.7450  175.8050  136.5240 O   0  0  0  0  0  0  0  0  0  0  0  0
  188.2400  176.4180  138.7440 C   0  0  0  0  0  2  0  0  0  0  0  0
  188.7950  176.6610  137.3910 C   0  0  0  0  0  0  0  0  0  0  0  0
  191.5340  178.1140  142.6110 C   0  0  0  0  0  2  0  0  0  0  0  0
  191.9400  177.0040  141.6550 C   0  0  0  0  0  2  0  0  0  0  0  0
  192.4170  177.5940  140.3390 C   0  0  0  0  0  2  0  0  0  0  0  0
  191.9200  176.8450  139.2700 O   0  0  0  0  0  0  0  0  0  0  0  0
  192.6170  176.3280  137.0590 C   0  0  0  0  0  2  0  0  0  0  0  0
  194.2800  174.5920  137.6290 C   0  0  0  0  0  1  0  0  0  0  0  0
  193.0430  176.5400  138.4980 C   0  0  2  0  0  3  0  0  0  0  0  0
  192.9010  175.1330  137.9440 C   0  0  1  0  0  3  0  0  0  0  0  0
  190.2060  177.5120  144.7030 C   0  0  1  0  0  3  0  0  0  0  0  0
  191.6380  177.3630  145.2050 C   0  0  0  0  0  2  0  0  0  0  0  0
  191.9220  176.0370  145.5370 O   0  0  0  0  0  1  0  0  0  0  0  0
  189.3970  178.4560  145.5910 C   0  0  0  0  0  2  0  0  0  0  0  0
  189.0480  176.6810  147.4540 C   0  0  0  0  0  2  0  0  0  0  0  0
  188.6470  178.0610  147.9580 C   0  0  0  0  0  2  0  0  0  0  0  0
  188.4470  177.6960  146.5040 C   0  0  0  0  0  0  0  0  0  0  0  0
  187.0000  177.5670  146.1330 C   0  0  0  0  0  3  0  0  0  0  0  0
  186.2680  178.5440  146.0620 O   0  0  0  0  0  0  0  0  0  0  0  0
  1 16  1  6  0  0  0
  1 24  1  0  0  0  0
  2  3  1  1  0  0  0
  2  1  1  0  0  0  0
  5  9  1  0  0  0  0
  6  5  1  0  0  0  0
  6  4  1  0  0  0  0
  7  6  2  0  0  0  0
  9  2  1  0  0  0  0
  9  8  2  0  0  0  0
 10 12  1  0  0  0  0
 11 15  1  0  0  0  0
 11 10  1  0  0  0  0
 12  5  1  1  0  0  0
 13 15  2  0  0  0  0
 14 12  1  0  0  0  0
 15 14  1  0  0  0  0
 17 16  1  0  0  0  0
 18 17  1  0  0  0  0
 19 18  1  0  0  0  0
 20 23  1  0  0  0  0
 20 22  1  0  0  0  0
 22 19  1  1  0  0  0
 23 21  1  6  0  0  0
 23 22  1  0  0  0  0
 24 25  1  1  0  0  0
 24 27  1  0  0  0  0
 25 26  1  0  0  0  0
 27 30  1  0  0  0  0
 28 29  1  0  0  0  0
 30 28  1  0  0  0  0
 30 29  1  0  0  0  0
 31 30  1  0  0  0  0
 32 31  2  0  0  0  0
M  END
>  <MODEL>
3

>  <REMARK>
 VINA RESULT:      -6.6      2.968      5.289
  Name = 
  13 active torsions:
  status: ('A' for Active; 'I' for Inactive)
    1  A    between atoms: C_1  and  C_5
    2  A    between atoms: C_1  and  C_27
    3  A    between atoms: C_2  and  C_5
    4  A    between atoms: C_2  and  C_28
    5  A    between atoms: C_5  and  C_14
    6  A    between atoms: C_6  and  C_29
    7  A    between atoms: O_10  and  C_12
    8  A    between atoms: O_10  and  C_32
    9  A    between atoms: C_14  and  C_18
   10  A    between atoms: C_14  and  C_21
   11  A    between atoms: C_15  and  N_16
   12  A    between atoms: C_18  and  C_29
   13  A    between atoms: C_28  and  C_32
                            x       y       z     vdW  Elec       q    Type
                         _______ _______ _______ _____ _____    ______ ____

>  <TORSDO>
F 13

$$$$
=
 OpenBabel10272402083D

 32 34  0  0  1  0  0  0  0  0999 V2000
  189.2110  176.6180  138.7730 C   0  0  2  0  0  3  0  0  0  0  0  0
  189.2070  178.0390  139.3700 C   0  0  1  0  0  3  0  0  0  0  0  0
  189.0700  179.0810  138.2760 C   0  0  0  0  0  1  0  0  0  0  0  0
  186.0110  177.7730  142.5090 C   0  0  0  0  0  1  0  0  0  0  0  0
  188.4820  177.8980  141.8240 N   0  0  0  0  0  0  0  0  0  0  0  0
  187.4590  177.8840  142.8480 C   0  0  0  0  0  0  0  0  0  0  0  0
  187.7800  177.9290  144.0660 O   0  0  0  0  0  0  0  0  0  0  0  0
  187.0970  178.8290  140.1700 O   0  0  0  0  0  0  0  0  0  0  0  0
  188.1890  178.2660  140.4590 C   0  0  0  0  0  0  0  0  0  0  0  0
  190.0790  175.8910  142.7860 S   0  0  0  0  0  0  0  0  0  0  0  0
  191.4850  176.3790  143.8300 C   0  0  0  0  0  2  0  0  0  0  0  0
  189.8760  177.5980  142.1680 C   0  0  2  0  0  3  0  0  0  0  0  0
  192.1560  178.4340  144.7760 O   0  0  0  0  0  0  0  0  0  0  0  0
  190.4360  178.5930  143.1710 C   0  0  0  0  0  2  0  0  0  0  0  0
  191.4270  177.8540  143.9900 C   0  0  0  0  0  0  0  0  0  0  0  0
  190.5370  175.8840  138.9290 C   0  0  0  0  0  2  0  0  0  0  0  0
  191.6770  176.8760  139.0910 C   0  0  0  0  0  2  0  0  0  0  0  0
  192.7360  176.6340  138.0280 C   0  0  0  0  0  2  0  0  0  0  0  0
  192.8460  175.2670  137.7640 O   0  0  0  0  0  0  0  0  0  0  0  0
  194.7910  174.5410  136.6110 C   0  0  0  0  0  2  0  0  0  0  0  0
  195.7000  173.0720  138.3780 C   0  0  0  0  0  1  0  0  0  0  0  0
  194.2020  174.9800  137.9360 C   0  0  2  0  0  3  0  0  0  0  0  0
  194.4400  173.5060  137.6600 C   0  0  1  0  0  3  0  0  0  0  0  0
  188.6330  176.5080  137.3520 C   0  0  1  0  0  3  0  0  0  0  0  0
  189.5160  175.6590  136.4440 C   0  0  0  0  0  2  0  0  0  0  0  0
  190.1580  176.4450  135.4850 O   0  0  0  0  0  1  0  0  0  0  0  0
  187.1710  176.0680  137.2810 C   0  0  0  0  0  2  0  0  0  0  0  0
  186.8440  177.9230  135.4940 C   0  0  0  0  0  2  0  0  0  0  0  0
  185.8580  176.7850  135.2610 C   0  0  0  0  0  2  0  0  0  0  0  0
  186.2880  177.1420  136.6670 C   0  0  0  0  0  0  0  0  0  0  0  0
  185.1780  177.7480  137.4740 C   0  0  0  0  0  3  0  0  0  0  0  0
  184.4230  177.0570  138.1430 O   0  0  0  0  0  0  0  0  0  0  0  0
  1 16  1  6  0  0  0
  1  2  1  0  0  0  0
  2  3  1  6  0  0  0
  2  9  1  0  0  0  0
  4  6  1  0  0  0  0
  5  6  1  0  0  0  0
  6  7  2  0  0  0  0
  8  9  2  0  0  0  0
  9  5  1  0  0  0  0
 10 11  1  0  0  0  0
 11 15  1  0  0  0  0
 12  5  1  1  0  0  0
 12 10  1  0  0  0  0
 12 14  1  0  0  0  0
 14 15  1  0  0  0  0
 15 13  2  0  0  0  0
 16 17  1  0  0  0  0
 18 17  1  0  0  0  0
 19 18  1  0  0  0  0
 20 23  1  0  0  0  0
 20 22  1  0  0  0  0
 22 19  1  6  0  0  0
 23 22  1  0  0  0  0
 23 21  1  1  0  0  0
 24 25  1  6  0  0  0
 24  1  1  0  0  0  0
 26 25  1  0  0  0  0
 27 24  1  0  0  0  0
 28 30  1  0  0  0  0
 29 28  1  0  0  0  0
 29 30  1  0  0  0  0
 30 27  1  0  0  0  0
 30 31  1  0  0  0  0
 31 32  2  0  0  0  0
M  END
>  <MODEL>
4

>  <REMARK>
 VINA RESULT:      -6.4      3.977      8.369
  Name = 
  13 active torsions:
  status: ('A' for Active; 'I' for Inactive)
    1  A    between atoms: C_1  and  C_5
    2  A    between atoms: C_1  and  C_27
    3  A    between atoms: C_2  and  C_5
    4  A    between atoms: C_2  and  C_28
    5  A    between atoms: C_5  and  C_14
    6  A    between atoms: C_6  and  C_29
    7  A    between atoms: O_10  and  C_12
    8  A    between atoms: O_10  and  C_32
    9  A    between atoms: C_14  and  C_18
   10  A    between atoms: C_14  and  C_21
   11  A    between atoms: C_15  and  N_16
   12  A    between atoms: C_18  and  C_29
   13  A    between atoms: C_28  and  C_32
                            x       y       z     vdW  Elec       q    Type
                         _______ _______ _______ _____ _____    ______ ____

>  <TORSDO>
F 13

$$$$
=
 OpenBabel10272402083D

 32 34  0  0  1  0  0  0  0  0999 V2000
  185.3010  178.8430  140.6800 C   0  0  2  0  0  3  0  0  0  0  0  0
  184.6250  178.7340  139.3000 C   0  0  1  0  0  3  0  0  0  0  0  0
  183.9420  180.0380  138.9320 C   0  0  0  0  0  1  0  0  0  0  0  0
  187.6280  176.7180  136.6420 C   0  0  0  0  0  1  0  0  0  0  0  0
  185.2130  177.0740  137.4390 N   0  0  0  0  0  0  0  0  0  0  0  0
  186.1620  176.4690  136.5280 C   0  0  0  0  0  0  0  0  0  0  0  0
  185.7640  175.6800  135.6300 O   0  0  0  0  0  0  0  0  0  0  0  0
  186.5370  178.9640  137.8830 O   0  0  0  0  0  0  0  0  0  0  0  0
  185.5290  178.2680  138.1860 C   0  0  0  0  0  0  0  0  0  0  0  0
  183.8830  174.6990  137.7500 S   0  0  0  0  0  0  0  0  0  0  0  0
  182.2550  174.5500  136.9560 C   0  0  0  0  0  2  0  0  0  0  0  0
  183.8620  176.5170  137.5760 C   0  0  2  0  0  3  0  0  0  0  0  0
  181.0580  175.9250  135.4580 O   0  0  0  0  0  0  0  0  0  0  0  0
  182.9640  176.9260  136.4210 C   0  0  0  0  0  2  0  0  0  0  0  0
  182.0060  175.8130  136.2160 C   0  0  0  0  0  0  0  0  0  0  0  0
  186.5870  178.0330  140.8060 C   0  0  0  0  0  2  0  0  0  0  0  0
  187.7360  178.9260  141.2430 C   0  0  0  0  0  2  0  0  0  0  0  0
  188.9210  178.0800  141.6780 C   0  0  0  0  0  2  0  0  0  0  0  0
  188.5730  177.3020  142.7840 O   0  0  0  0  0  0  0  0  0  0  0  0
  190.4710  176.9820  144.1750 C   0  0  0  0  0  2  0  0  0  0  0  0
  189.4550  177.7150  146.3050 C   0  0  0  0  0  1  0  0  0  0  0  0
  189.2820  177.8620  143.8490 C   0  0  2  0  0  3  0  0  0  0  0  0
  189.2280  176.9180  145.0370 C   0  0  1  0  0  3  0  0  0  0  0  0
  184.3610  178.6560  141.8830 C   0  0  1  0  0  3  0  0  0  0  0  0
  183.0210  178.0570  141.4690 C   0  0  0  0  0  2  0  0  0  0  0  0
  181.9700  178.9370  141.7310 O   0  0  0  0  0  1  0  0  0  0  0  0
  184.9680  177.9040  143.0670 C   0  0  0  0  0  2  0  0  0  0  0  0
  184.3210  180.1180  144.2600 C   0  0  0  0  0  2  0  0  0  0  0  0
  183.5570  178.9480  144.8670 C   0  0  0  0  0  2  0  0  0  0  0  0
  184.9580  178.7460  144.3340 C   0  0  0  0  0  0  0  0  0  0  0  0
  185.9560  178.4730  145.4190 C   0  0  0  0  0  3  0  0  0  0  0  0
  185.6210  177.9740  146.4850 O   0  0  0  0  0  0  0  0  0  0  0  0
  1 16  1  6  0  0  0
  1 24  1  0  0  0  0
  2  3  1  6  0  0  0
  2  1  1  0  0  0  0
  5  9  1  0  0  0  0
  6  4  1  0  0  0  0
  6  5  1  0  0  0  0
  7  6  2  0  0  0  0
  8  9  2  0  0  0  0
  9  2  1  0  0  0  0
 11 10  1  0  0  0  0
 12  5  1  6  0  0  0
 12 10  1  0  0  0  0
 13 15  2  0  0  0  0
 14 12  1  0  0  0  0
 15 14  1  0  0  0  0
 15 11  1  0  0  0  0
 16 17  1  0  0  0  0
 17 18  1  0  0  0  0
 18 19  1  0  0  0  0
 20 23  1  0  0  0  0
 22 19  1  6  0  0  0
 22 20  1  0  0  0  0
 22 23  1  0  0  0  0
 23 21  1  1  0  0  0
 24 25  1  6  0  0  0
 24 27  1  0  0  0  0
 25 26  1  0  0  0  0
 27 30  1  0  0  0  0
 28 30  1  0  0  0  0
 28 29  1  0  0  0  0
 30 29  1  0  0  0  0
 30 31  1  0  0  0  0
 31 32  2  0  0  0  0
M  END
>  <MODEL>
5

>  <REMARK>
 VINA RESULT:      -6.2      2.382      3.956
  Name = 
  13 active torsions:
  status: ('A' for Active; 'I' for Inactive)
    1  A    between atoms: C_1  and  C_5
    2  A    between atoms: C_1  and  C_27
    3  A    between atoms: C_2  and  C_5
    4  A    between atoms: C_2  and  C_28
    5  A    between atoms: C_5  and  C_14
    6  A    between atoms: C_6  and  C_29
    7  A    between atoms: O_10  and  C_12
    8  A    between atoms: O_10  and  C_32
    9  A    between atoms: C_14  and  C_18
   10  A    between atoms: C_14  and  C_21
   11  A    between atoms: C_15  and  N_16
   12  A    between atoms: C_18  and  C_29
   13  A    between atoms: C_28  and  C_32
                            x       y       z     vdW  Elec       q    Type
                         _______ _______ _______ _____ _____    ______ ____

>  <TORSDO>
F 13

$$$$
=
 OpenBabel10272402083D

 32 34  0  0  1  0  0  0  0  0999 V2000
  186.4580  178.5070  143.2770 C   0  0  2  0  0  3  0  0  0  0  0  0
  186.5440  177.3290  144.2660 C   0  0  1  0  0  3  0  0  0  0  0  0
  187.4600  176.2430  143.7320 C   0  0  0  0  0  1  0  0  0  0  0  0
  187.6940  177.5100  148.6000 C   0  0  0  0  0  1  0  0  0  0  0  0
  188.3010  177.6180  146.1080 N   0  0  0  0  0  0  0  0  0  0  0  0
  188.6730  177.7490  147.5010 C   0  0  0  0  0  0  0  0  0  0  0  0
  189.8590  178.0370  147.8170 O   0  0  0  0  0  0  0  0  0  0  0  0
  186.0400  178.1570  146.4520 O   0  0  0  0  0  0  0  0  0  0  0  0
  186.9270  177.7100  145.6740 C   0  0  0  0  0  0  0  0  0  0  0  0
  190.6790  176.3440  145.6290 S   0  0  0  0  0  0  0  0  0  0  0  0
  191.8940  177.2170  144.5960 C   0  0  0  0  0  2  0  0  0  0  0  0
  189.3350  177.4530  145.0800 C   0  0  2  0  0  3  0  0  0  0  0  0
  191.9850  179.4020  143.7100 O   0  0  0  0  0  0  0  0  0  0  0  0
  189.9030  178.7890  144.6320 C   0  0  0  0  0  2  0  0  0  0  0  0
  191.3170  178.5430  144.2590 C   0  0  0  0  0  0  0  0  0  0  0  0
  185.1760  179.3230  143.3950 C   0  0  0  0  0  2  0  0  0  0  0  0
  183.9910  178.4130  143.6710 C   0  0  0  0  0  2  0  0  0  0  0  0
  183.0040  179.1050  144.5960 C   0  0  0  0  0  2  0  0  0  0  0  0
  181.7010  178.7000  144.2950 O   0  0  0  0  0  0  0  0  0  0  0  0
  180.1560  179.8750  142.9270 C   0  0  0  0  0  2  0  0  0  0  0  0
  180.3480  178.4590  140.9110 C   0  0  0  0  0  1  0  0  0  0  0  0
  181.4830  179.1460  142.9900 C   0  0  2  0  0  3  0  0  0  0  0  0
  180.2580  178.4500  142.4230 C   0  0  1  0  0  3  0  0  0  0  0  0
  186.8110  178.1610  141.8200 C   0  0  1  0  0  3  0  0  0  0  0  0
  185.6040  178.2910  140.8970 C   0  0  0  0  0  2  0  0  0  0  0  0
  185.5860  179.5320  140.2600 O   0  0  0  0  0  1  0  0  0  0  0  0
  188.0270  178.8970  141.2580 C   0  0  0  0  0  2  0  0  0  0  0  0
  188.3720  177.2810  139.2550 C   0  0  0  0  0  2  0  0  0  0  0  0
  189.2680  178.5030  139.1080 C   0  0  0  0  0  2  0  0  0  0  0  0
  188.9420  177.9620  140.4820 C   0  0  0  0  0  0  0  0  0  0  0  0
  190.1320  177.3490  141.1590 C   0  0  0  0  0  3  0  0  0  0  0  0
  190.1550  176.1650  141.4600 O   0  0  0  0  0  0  0  0  0  0  0  0
  1 16  1  6  0  0  0
  1  2  1  0  0  0  0
  2  3  1  6  0  0  0
  2  9  1  0  0  0  0
  5  6  1  0  0  0  0
  6  7  2  0  0  0  0
  6  4  1  0  0  0  0
  9  5  1  0  0  0  0
  9  8  2  0  0  0  0
 11 10  1  0  0  0  0
 12 10  1  0  0  0  0
 12  5  1  1  0  0  0
 13 15  2  0  0  0  0
 14 12  1  0  0  0  0
 15 11  1  0  0  0  0
 15 14  1  0  0  0  0
 16 17  1  0  0  0  0
 17 18  1  0  0  0  0
 19 18  1  0  0  0  0
 20 22  1  0  0  0  0
 22 19  1  1  0  0  0
 23 21  1  6  0  0  0
 23 20  1  0  0  0  0
 23 22  1  0  0  0  0
 24 25  1  6  0  0  0
 24  1  1  0  0  0  0
 26 25  1  0  0  0  0
 27 24  1  0  0  0  0
 28 30  1  0  0  0  0
 29 28  1  0  0  0  0
 29 30  1  0  0  0  0
 30 31  1  0  0  0  0
 30 27  1  0  0  0  0
 31 32  2  0  0  0  0
M  END
>  <MODEL>
6

>  <REMARK>
 VINA RESULT:      -6.1      2.810      8.159
  Name = 
  13 active torsions:
  status: ('A' for Active; 'I' for Inactive)
    1  A    between atoms: C_1  and  C_5
    2  A    between atoms: C_1  and  C_27
    3  A    between atoms: C_2  and  C_5
    4  A    between atoms: C_2  and  C_28
    5  A    between atoms: C_5  and  C_14
    6  A    between atoms: C_6  and  C_29
    7  A    between atoms: O_10  and  C_12
    8  A    between atoms: O_10  and  C_32
    9  A    between atoms: C_14  and  C_18
   10  A    between atoms: C_14  and  C_21
   11  A    between atoms: C_15  and  N_16
   12  A    between atoms: C_18  and  C_29
   13  A    between atoms: C_28  and  C_32
                            x       y       z     vdW  Elec       q    Type
                         _______ _______ _______ _____ _____    ______ ____

>  <TORSDO>
F 13

$$$$
=
 OpenBabel10272402083D

 32 34  0  0  1  0  0  0  0  0999 V2000
  189.3370  177.4830  142.6100 C   0  0  2  0  0  3  0  0  0  0  0  0
  188.0930  176.6550  142.9830 C   0  0  1  0  0  3  0  0  0  0  0  0
  188.4820  175.2290  143.3320 C   0  0  0  0  0  1  0  0  0  0  0  0
  185.9890  179.2590  145.9720 C   0  0  0  0  0  1  0  0  0  0  0  0
  186.0560  178.0210  143.7230 N   0  0  0  0  0  0  0  0  0  0  0  0
  185.3400  178.8030  144.7090 C   0  0  0  0  0  0  0  0  0  0  0  0
  184.1460  179.1490  144.4990 O   0  0  0  0  0  0  0  0  0  0  0  0
  187.5240  177.0390  145.2730 O   0  0  0  0  0  0  0  0  0  0  0  0
  187.2320  177.2560  144.0650 C   0  0  0  0  0  0  0  0  0  0  0  0
  185.9610  179.4250  141.3730 S   0  0  0  0  0  0  0  0  0  0  0  0
  184.4750  179.2220  140.3450 C   0  0  0  0  0  2  0  0  0  0  0  0
  185.5580  177.9330  142.3460 C   0  0  2  0  0  3  0  0  0  0  0  0
  182.4070  178.1410  140.6950 O   0  0  0  0  0  0  0  0  0  0  0  0
  184.0630  177.6630  142.3040 C   0  0  0  0  0  2  0  0  0  0  0  0
  183.5500  178.3220  141.0780 C   0  0  0  0  0  0  0  0  0  0  0  0
  189.4650  178.7920  143.3820 C   0  0  0  0  0  2  0  0  0  0  0  0
  190.6880  178.7580  144.2850 C   0  0  0  0  0  2  0  0  0  0  0  0
  191.4290  177.4420  144.1130 C   0  0  0  0  0  2  0  0  0  0  0  0
  191.0630  176.5510  145.1250 O   0  0  0  0  0  0  0  0  0  0  0  0
  191.4210  176.5350  147.4730 C   0  0  0  0  0  2  0  0  0  0  0  0
  189.4080  177.8090  148.1290 C   0  0  0  0  0  1  0  0  0  0  0  0
  190.9640  177.3400  146.2740 C   0  0  2  0  0  3  0  0  0  0  0  0
  189.9410  176.7260  147.2140 C   0  0  1  0  0  3  0  0  0  0  0  0
  189.5740  177.6580  141.1000 C   0  0  1  0  0  3  0  0  0  0  0  0
  190.8000  176.8870  140.6250 C   0  0  0  0  0  2  0  0  0  0  0  0
  191.9560  177.6630  140.7220 O   0  0  0  0  0  1  0  0  0  0  0  0
  188.3580  177.3760  140.2190 C   0  0  0  0  0  2  0  0  0  0  0  0
  188.7340  176.4490  137.8220 C   0  0  0  0  0  2  0  0  0  0  0  0
  187.4730  177.3020  137.8670 C   0  0  0  0  0  2  0  0  0  0  0  0
  188.6520  177.6430  138.7510 C   0  0  0  0  0  0  0  0  0  0  0  0
  189.3290  178.9180  138.3450 C   0  0  0  0  0  3  0  0  0  0  0  0
  188.9810  179.5380  137.3500 O   0  0  0  0  0  0  0  0  0  0  0  0
  1  2  1  0  0  0  0
  1 16  1  1  0  0  0
  2  3  1  1  0  0  0
  2  9  1  0  0  0  0
  5  9  1  0  0  0  0
  5  6  1  0  0  0  0
  6  4  1  0  0  0  0
  7  6  2  0  0  0  0
  9  8  2  0  0  0  0
 10 12  1  0  0  0  0
 11 15  1  0  0  0  0
 11 10  1  0  0  0  0
 12  5  1  1  0  0  0
 13 15  2  0  0  0  0
 14 12  1  0  0  0  0
 15 14  1  0  0  0  0
 16 17  1  0  0  0  0
 18 17  1  0  0  0  0
 18 19  1  0  0  0  0
 22 19  1  6  0  0  0
 22 23  1  0  0  0  0
 22 20  1  0  0  0  0
 23 20  1  0  0  0  0
 23 21  1  1  0  0  0
 24 27  1  6  0  0  0
 24  1  1  0  0  0  0
 25 26  1  0  0  0  0
 25 24  1  0  0  0  0
 28 29  1  0  0  0  0
 28 30  1  0  0  0  0
 29 30  1  0  0  0  0
 30 27  1  0  0  0  0
 31 30  1  0  0  0  0
 32 31  2  0  0  0  0
M  END
>  <MODEL>
7

>  <REMARK>
 VINA RESULT:      -6.1      2.283      5.893
  Name = 
  13 active torsions:
  status: ('A' for Active; 'I' for Inactive)
    1  A    between atoms: C_1  and  C_5
    2  A    between atoms: C_1  and  C_27
    3  A    between atoms: C_2  and  C_5
    4  A    between atoms: C_2  and  C_28
    5  A    between atoms: C_5  and  C_14
    6  A    between atoms: C_6  and  C_29
    7  A    between atoms: O_10  and  C_12
    8  A    between atoms: O_10  and  C_32
    9  A    between atoms: C_14  and  C_18
   10  A    between atoms: C_14  and  C_21
   11  A    between atoms: C_15  and  N_16
   12  A    between atoms: C_18  and  C_29
   13  A    between atoms: C_28  and  C_32
                            x       y       z     vdW  Elec       q    Type
                         _______ _______ _______ _____ _____    ______ ____

>  <TORSDO>
F 13

$$$$
=
 OpenBabel10272402083D

 32 34  0  0  1  0  0  0  0  0999 V2000
  187.9940  177.5270  138.6860 C   0  0  2  0  0  3  0  0  0  0  0  0
  186.8800  178.0810  137.7780 C   0  0  1  0  0  3  0  0  0  0  0  0
  187.4700  178.7890  136.5720 C   0  0  0  0  0  1  0  0  0  0  0  0
  184.0890  174.5980  137.3030 C   0  0  0  0  0  1  0  0  0  0  0  0
  184.5550  177.0260  137.9960 N   0  0  0  0  0  0  0  0  0  0  0  0
  183.6300  175.9340  137.7810 C   0  0  0  0  0  0  0  0  0  0  0  0
  182.4040  176.0820  138.0340 O   0  0  0  0  0  0  0  0  0  0  0  0
  186.1080  176.2910  136.3930 O   0  0  0  0  0  0  0  0  0  0  0  0
  185.8460  177.0680  137.3520 C   0  0  0  0  0  0  0  0  0  0  0  0
  183.7090  177.6550  140.5240 S   0  0  0  0  0  0  0  0  0  0  0  0
  182.5510  179.0470  140.6890 C   0  0  0  0  0  2  0  0  0  0  0  0
  184.1690  178.1680  138.8320 C   0  0  2  0  0  3  0  0  0  0  0  0
  181.3760  180.3630  139.1210 O   0  0  0  0  0  0  0  0  0  0  0  0
  183.0460  178.9740  138.2020 C   0  0  0  0  0  2  0  0  0  0  0  0
  182.2510  179.5380  139.3200 C   0  0  0  0  0  0  0  0  0  0  0  0
  188.3890  178.4610  139.8240 C   0  0  0  0  0  2  0  0  0  0  0  0
  187.6670  178.0710  141.1040 C   0  0  0  0  0  2  0  0  0  0  0  0
  188.5820  177.2440  141.9900 C   0  0  0  0  0  2  0  0  0  0  0  0
  187.8550  176.6920  143.0470 O   0  0  0  0  0  0  0  0  0  0  0  0
  188.1980  177.6210  145.2060 C   0  0  0  0  0  2  0  0  0  0  0  0
  185.8980  178.4370  145.5910 C   0  0  0  0  0  1  0  0  0  0  0  0
  187.5250  177.7800  143.8580 C   0  0  2  0  0  3  0  0  0  0  0  0
  186.7280  177.2900  145.0540 C   0  0  1  0  0  3  0  0  0  0  0  0
  189.2110  176.9470  137.9430 C   0  0  1  0  0  3  0  0  0  0  0  0
  190.5070  177.1740  138.7140 C   0  0  0  0  0  2  0  0  0  0  0  0
  190.8570  176.0450  139.4570 O   0  0  0  0  0  1  0  0  0  0  0  0
  189.0670  175.4900  137.5060 C   0  0  0  0  0  2  0  0  0  0  0  0
  189.0210  175.2000  134.9260 C   0  0  0  0  0  2  0  0  0  0  0  0
  189.8480  176.4210  135.3060 C   0  0  0  0  0  2  0  0  0  0  0  0
  189.8190  175.2120  136.2140 C   0  0  0  0  0  0  0  0  0  0  0  0
  191.1310  174.4870  136.2550 C   0  0  0  0  0  3  0  0  0  0  0  0
  191.4180  173.7360  137.1760 O   0  0  0  0  0  0  0  0  0  0  0  0
  1 16  1  1  0  0  0
  2  3  1  6  0  0  0
  2  1  1  0  0  0  0
  4  6  1  0  0  0  0
  6  5  1  0  0  0  0
  6  7  2  0  0  0  0
  8  9  2  0  0  0  0
  9  2  1  0  0  0  0
  9  5  1  0  0  0  0
 10 11  1  0  0  0  0
 12  5  1  6  0  0  0
 12 10  1  0  0  0  0
 13 15  2  0  0  0  0
 14 12  1  0  0  0  0
 14 15  1  0  0  0  0
 15 11  1  0  0  0  0
 16 17  1  0  0  0  0
 17 18  1  0  0  0  0
 18 19  1  0  0  0  0
 22 19  1  6  0  0  0
 22 23  1  0  0  0  0
 22 20  1  0  0  0  0
 23 20  1  0  0  0  0
 23 21  1  1  0  0  0
 24 27  1  1  0  0  0
 24  1  1  0  0  0  0
 24 25  1  0  0  0  0
 25 26  1  0  0  0  0
 28 29  1  0  0  0  0
 28 30  1  0  0  0  0
 29 30  1  0  0  0  0
 30 31  1  0  0  0  0
 30 27  1  0  0  0  0
 31 32  2  0  0  0  0
M  END
>  <MODEL>
8

>  <REMARK>
 VINA RESULT:      -6.0      3.140      6.665
  Name = 
  13 active torsions:
  status: ('A' for Active; 'I' for Inactive)
    1  A    between atoms: C_1  and  C_5
    2  A    between atoms: C_1  and  C_27
    3  A    between atoms: C_2  and  C_5
    4  A    between atoms: C_2  and  C_28
    5  A    between atoms: C_5  and  C_14
    6  A    between atoms: C_6  and  C_29
    7  A    between atoms: O_10  and  C_12
    8  A    between atoms: O_10  and  C_32
    9  A    between atoms: C_14  and  C_18
   10  A    between atoms: C_14  and  C_21
   11  A    between atoms: C_15  and  N_16
   12  A    between atoms: C_18  and  C_29
   13  A    between atoms: C_28  and  C_32
                            x       y       z     vdW  Elec       q    Type
                         _______ _______ _______ _____ _____    ______ ____

>  <TORSDO>
F 13

$$$$
=
 OpenBabel10272402083D

 32 34  0  0  1  0  0  0  0  0999 V2000
  189.3280  177.7260  143.3790 C   0  0  2  0  0  3  0  0  0  0  0  0
  187.9440  177.0510  143.3250 C   0  0  1  0  0  3  0  0  0  0  0  0
  188.0810  175.5400  143.3610 C   0  0  0  0  0  1  0  0  0  0  0  0
  185.3800  179.3350  146.2150 C   0  0  0  0  0  1  0  0  0  0  0  0
  185.7070  178.1160  143.9790 N   0  0  0  0  0  0  0  0  0  0  0  0
  184.8510  178.7890  144.9320 C   0  0  0  0  0  0  0  0  0  0  0  0
  183.6290  178.9620  144.6750 O   0  0  0  0  0  0  0  0  0  0  0  0
  187.2390  177.3540  145.5900 O   0  0  0  0  0  0  0  0  0  0  0  0
  186.9650  177.5260  144.3700 C   0  0  0  0  0  0  0  0  0  0  0  0
  186.0840  179.1640  141.4760 S   0  0  0  0  0  0  0  0  0  0  0  0
  184.6530  179.1720  140.3560 C   0  0  0  0  0  2  0  0  0  0  0  0
  185.2790  177.9560  142.5840 C   0  0  2  0  0  3  0  0  0  0  0  0
  182.3680  178.6610  140.6540 O   0  0  0  0  0  0  0  0  0  0  0  0
  183.7680  178.0380  142.4460 C   0  0  0  0  0  2  0  0  0  0  0  0
  183.4980  178.6220  141.1100 C   0  0  0  0  0  0  0  0  0  0  0  0
  189.9380  178.0000  142.0100 C   0  0  0  0  0  2  0  0  0  0  0  0
  188.9260  177.7140  140.9110 C   0  0  0  0  0  2  0  0  0  0  0  0
  189.6160  177.6910  139.5580 C   0  0  0  0  0  2  0  0  0  0  0  0
  190.4430  176.5690  139.4600 O   0  0  0  0  0  0  0  0  0  0  0  0
  190.8750  175.4190  137.4280 C   0  0  0  0  0  2  0  0  0  0  0  0
  193.2050  176.1730  137.1030 C   0  0  0  0  0  1  0  0  0  0  0  0
  191.0690  176.6970  138.2180 C   0  0  2  0  0  3  0  0  0  0  0  0
  192.1960  175.6830  138.1200 C   0  0  1  0  0  3  0  0  0  0  0  0
  190.3270  177.0850  144.3580 C   0  0  1  0  0  3  0  0  0  0  0  0
  191.5980  176.6250  143.6520 C   0  0  0  0  0  2  0  0  0  0  0  0
  191.7660  175.2440  143.7630 O   0  0  0  0  0  1  0  0  0  0  0  0
  190.6460  177.9230  145.5960 C   0  0  0  0  0  2  0  0  0  0  0  0
  190.9660  175.7490  146.9790 C   0  0  0  0  0  2  0  0  0  0  0  0
  191.6730  176.9150  147.6570 C   0  0  0  0  0  2  0  0  0  0  0  0
  190.3960  177.1500  146.8800 C   0  0  0  0  0  0  0  0  0  0  0  0
  189.2430  177.5210  147.7640 C   0  0  0  0  0  3  0  0  0  0  0  0
  189.3370  178.4100  148.5980 O   0  0  0  0  0  0  0  0  0  0  0  0
  1 16  1  6  0  0  0
  1 24  1  0  0  0  0
  2  3  1  1  0  0  0
  2  1  1  0  0  0  0
  2  9  1  0  0  0  0
  5  9  1  0  0  0  0
  5  6  1  0  0  0  0
  6  4  1  0  0  0  0
  7  6  2  0  0  0  0
  9  8  2  0  0  0  0
 10 12  1  0  0  0  0
 11 15  1  0  0  0  0
 11 10  1  0  0  0  0
 12  5  1  1  0  0  0
 13 15  2  0  0  0  0
 14 12  1  0  0  0  0
 15 14  1  0  0  0  0
 17 16  1  0  0  0  0
 18 17  1  0  0  0  0
 19 18  1  0  0  0  0
 20 23  1  0  0  0  0
 20 22  1  0  0  0  0
 22 19  1  1  0  0  0
 23 21  1  6  0  0  0
 23 22  1  0  0  0  0
 24 25  1  6  0  0  0
 24 27  1  0  0  0  0
 25 26  1  0  0  0  0
 27 30  1  0  0  0  0
 28 29  1  0  0  0  0
 30 28  1  0  0  0  0
 30 29  1  0  0  0  0
 30 31  1  0  0  0  0
 31 32  2  0  0  0  0
M  END
>  <MODEL>
9

>  <REMARK>
 VINA RESULT:      -6.0      2.571      4.592
  Name = 
  13 active torsions:
  status: ('A' for Active; 'I' for Inactive)
    1  A    between atoms: C_1  and  C_5
    2  A    between atoms: C_1  and  C_27
    3  A    between atoms: C_2  and  C_5
    4  A    between atoms: C_2  and  C_28
    5  A    between atoms: C_5  and  C_14
    6  A    between atoms: C_6  and  C_29
    7  A    between atoms: O_10  and  C_12
    8  A    between atoms: O_10  and  C_32
    9  A    between atoms: C_14  and  C_18
   10  A    between atoms: C_14  and  C_21
   11  A    between atoms: C_15  and  N_16
   12  A    between atoms: C_18  and  C_29
   13  A    between atoms: C_28  and  C_32
                            x       y       z     vdW  Elec       q    Type
                         _______ _______ _______ _____ _____    ______ ____

>  <TORSDO>
F 13

$$$$
