=
 OpenBabel10272413233D

 32 37  0  0  0  0  0  0  0  0999 V2000
  189.5300  176.3640  137.6690 C   0  0  0  0  0  3  0  0  0  0  0  0
  188.8220  177.8160  142.4470 C   0  0  0  0  0  0  0  0  0  0  0  0
  183.9120  178.5040  142.2450 N   0  0  0  0  0  2  0  0  0  0  0  0
  183.9210  179.0910  143.5820 C   0  0  0  0  0  2  0  0  0  0  0  0
  189.6590  177.2780  144.8300 C   0  0  0  0  0  0  0  0  0  0  0  0
  191.0220  176.9440  144.8500 C   0  0  0  0  0  0  0  0  0  0  0  0
  189.9020  177.1770  140.3220 C   0  0  0  0  0  0  0  0  0  0  0  0
  187.7530  178.4860  140.2610 C   0  0  0  0  0  2  0  0  0  0  0  0
  189.4830  176.9770  147.2340 C   0  0  0  0  0  0  0  0  0  0  0  0
  188.5790  177.1820  138.2860 C   0  0  0  0  0  3  0  0  0  0  0  0
  185.1600  178.8770  141.5830 C   0  0  0  0  0  2  0  0  0  0  0  0
  187.6410  178.2070  141.6960 N   0  0  0  0  0  0  0  0  0  0  0  0
  186.3660  178.4040  142.3620 C   0  0  0  0  0  0  0  0  0  0  0  0
  187.4560  177.8610  144.4060 N   0  0  0  0  0  0  0  0  0  0  0  0
  190.8440  176.6420  147.2720 C   0  0  0  0  0  3  0  0  0  0  0  0
  188.7580  177.5850  139.6120 C   0  0  0  0  0  0  0  0  0  0  0  0
  191.6070  176.6260  146.0880 C   0  0  0  0  0  3  0  0  0  0  0  0
  190.8550  176.3690  139.6980 C   0  0  0  0  0  3  0  0  0  0  0  0
  190.6700  175.9570  138.3730 C   0  0  0  0  0  0  0  0  0  0  0  0
  184.9740  178.3930  144.4380 C   0  0  0  0  0  2  0  0  0  0  0  0
  186.2800  178.2520  143.7020 C   0  0  0  0  0  0  0  0  0  0  0  0
  187.5910  177.6390  145.7550 O   0  0  0  0  0  0  0  0  0  0  0  0
  190.1270  177.6350  141.7290 C   0  0  0  0  0  2  0  0  0  0  0  0
  191.7810  176.9140  143.7320 F   0  0  0  0  0  0  0  0  0  0  0  0
  188.7410  176.9930  148.3690 F   0  0  0  0  0  0  0  0  0  0  0  0
  188.7070  177.6560  143.7700 C   0  0  0  0  0  0  0  0  0  0  0  0
  188.9140  177.2890  146.0030 C   0  0  0  0  0  0  0  0  0  0  0  0
  191.6770  175.0710  137.7200 C   0  0  0  0  0  2  0  0  0  0  0  0
  192.4160  175.8030  136.6070 C   0  0  0  0  0  2  0  0  0  0  0  0
  193.8010  176.1600  137.0290 C   0  0  0  0  0  0  0  0  0  0  0  0
  194.6070  176.9250  136.1980 O   0  0  0  0  0  0  0  0  0  0  0  0
  194.2310  175.7880  138.1520 O   0  0  0  0  0  1  0  0  0  0  0  0
  1 10  2  0  0  0  0
  1 19  1  0  0  0  0
  2 26  2  0  0  0  0
  3  4  1  0  0  0  0
  4 20  1  0  0  0  0
  5  6  2  0  0  0  0
  5 27  1  0  0  0  0
  6 17  1  0  0  0  0
  7 23  1  0  0  0  0
  8 12  1  0  0  0  0
  9 15  1  0  0  0  0
  9 25  1  0  0  0  0
 10 16  1  0  0  0  0
 11  3  1  0  0  0  0
 11 13  1  0  0  0  0
 12 13  1  0  0  0  0
 12  2  1  0  0  0  0
 13 21  2  0  0  0  0
 14 22  1  0  0  0  0
 16  8  1  0  0  0  0
 16  7  2  0  0  0  0
 17 15  2  0  0  0  0
 18  7  1  0  0  0  0
 19 18  2  0  0  0  0
 21 14  1  0  0  0  0
 21 20  1  0  0  0  0
 22 27  1  0  0  0  0
 23  2  1  0  0  0  0
 24  6  1  0  0  0  0
 26 14  1  0  0  0  0
 26  5  1  0  0  0  0
 27  9  2  0  0  0  0
 28 19  1  0  0  0  0
 29 30  1  0  0  0  0
 29 28  1  0  0  0  0
 30 32  1  0  0  0  0
 31 30  2  0  0  0  0
M  END
>  <MODEL>
1

>  <REMARK>
 VINA RESULT:     -10.9      0.000      0.000
  Name = 
  3 active torsions:
  status: ('A' for Active; 'I' for Inactive)
    1  A    between atoms: C_1  and  C_10
    2  A    between atoms: C_10  and  C_19
    3  A    between atoms: C_19  and  C_24
                            x       y       z     vdW  Elec       q    Type
                         _______ _______ _______ _____ _____    ______ ____

>  <TORSDO>
F 3

$$$$
=
 OpenBabel10272413233D

 32 37  0  0  0  0  0  0  0  0999 V2000
  189.4920  176.6240  137.8260 C   0  0  0  0  0  3  0  0  0  0  0  0
  188.6530  177.9160  142.6280 C   0  0  0  0  0  0  0  0  0  0  0  0
  183.7200  178.3940  142.3690 N   0  0  0  0  0  2  0  0  0  0  0  0
  183.6840  178.9450  143.7200 C   0  0  0  0  0  2  0  0  0  0  0  0
  189.4780  177.3520  145.0100 C   0  0  0  0  0  0  0  0  0  0  0  0
  190.8540  177.0770  145.0420 C   0  0  0  0  0  0  0  0  0  0  0  0
  189.7890  177.3820  140.5050 C   0  0  0  0  0  0  0  0  0  0  0  0
  187.5860  178.5970  140.4450 C   0  0  0  0  0  2  0  0  0  0  0  0
  189.2810  176.9790  147.4020 C   0  0  0  0  0  0  0  0  0  0  0  0
  188.4970  177.3830  138.4500 C   0  0  0  0  0  3  0  0  0  0  0  0
  184.9600  178.8390  141.7360 C   0  0  0  0  0  2  0  0  0  0  0  0
  187.4660  178.2750  141.8700 N   0  0  0  0  0  0  0  0  0  0  0  0
  186.1740  178.3980  142.5210 C   0  0  0  0  0  0  0  0  0  0  0  0
  187.2580  177.8490  144.5670 N   0  0  0  0  0  0  0  0  0  0  0  0
  190.6550  176.7040  147.4520 C   0  0  0  0  0  3  0  0  0  0  0  0
  188.6390  177.7590  139.7880 C   0  0  0  0  0  0  0  0  0  0  0  0
  191.4340  176.7520  146.2810 C   0  0  0  0  0  3  0  0  0  0  0  0
  190.7860  176.6330  139.8750 C   0  0  0  0  0  3  0  0  0  0  0  0
  190.6380  176.2490  138.5370 C   0  0  0  0  0  0  0  0  0  0  0  0
  184.7550  178.2710  144.5750 C   0  0  0  0  0  2  0  0  0  0  0  0
  186.0760  178.2070  143.8550 C   0  0  0  0  0  0  0  0  0  0  0  0
  187.3830  177.5970  145.9120 O   0  0  0  0  0  0  0  0  0  0  0  0
  189.9740  177.8110  141.9260 C   0  0  0  0  0  2  0  0  0  0  0  0
  191.6290  177.1110  143.9350 F   0  0  0  0  0  0  0  0  0  0  0  0
  188.5230  176.9330  148.5250 F   0  0  0  0  0  0  0  0  0  0  0  0
  188.5260  177.7160  143.9450 C   0  0  0  0  0  0  0  0  0  0  0  0
  188.7170  177.2990  146.1710 C   0  0  0  0  0  0  0  0  0  0  0  0
  191.6930  175.4260  137.8760 C   0  0  0  0  0  2  0  0  0  0  0  0
  191.2600  174.9890  136.4830 C   0  0  0  0  0  2  0  0  0  0  0  0
  190.8120  173.5660  136.4840 C   0  0  0  0  0  0  0  0  0  0  0  0
  189.7320  173.1770  137.2630 O   0  0  0  0  0  1  0  0  0  0  0  0
  191.3990  172.7230  135.7580 O   0  0  0  0  0  0  0  0  0  0  0  0
  1 10  2  0  0  0  0
  1 19  1  0  0  0  0
  2 26  2  0  0  0  0
  3  4  1  0  0  0  0
  4 20  1  0  0  0  0
  5  6  2  0  0  0  0
  5 27  1  0  0  0  0
  6 17  1  0  0  0  0
  7 23  1  0  0  0  0
  8 12  1  0  0  0  0
  9 15  1  0  0  0  0
  9 25  1  0  0  0  0
 10 16  1  0  0  0  0
 11  3  1  0  0  0  0
 11 13  1  0  0  0  0
 12 13  1  0  0  0  0
 12  2  1  0  0  0  0
 13 21  2  0  0  0  0
 14 22  1  0  0  0  0
 16  8  1  0  0  0  0
 16  7  2  0  0  0  0
 17 15  2  0  0  0  0
 18  7  1  0  0  0  0
 19 18  2  0  0  0  0
 21 14  1  0  0  0  0
 21 20  1  0  0  0  0
 22 27  1  0  0  0  0
 23  2  1  0  0  0  0
 24  6  1  0  0  0  0
 26 14  1  0  0  0  0
 26  5  1  0  0  0  0
 27  9  2  0  0  0  0
 28 19  1  0  0  0  0
 29 30  1  0  0  0  0
 29 28  1  0  0  0  0
 30 31  1  0  0  0  0
 32 30  2  0  0  0  0
M  END
>  <MODEL>
2

>  <REMARK>
 VINA RESULT:     -10.3      1.384      1.604
  Name = 
  3 active torsions:
  status: ('A' for Active; 'I' for Inactive)
    1  A    between atoms: C_1  and  C_10
    2  A    between atoms: C_10  and  C_19
    3  A    between atoms: C_19  and  C_24
                            x       y       z     vdW  Elec       q    Type
                         _______ _______ _______ _____ _____    ______ ____

>  <TORSDO>
F 3

$$$$
=
 OpenBabel10272413233D

 32 37  0  0  0  0  0  0  0  0999 V2000
  190.9580  177.7070  138.9770 C   0  0  0  0  0  3  0  0  0  0  0  0
  188.3200  177.1060  143.2330 C   0  0  0  0  0  0  0  0  0  0  0  0
  192.1430  176.7310  146.3750 N   0  0  0  0  0  2  0  0  0  0  0  0
  191.2380  176.3710  147.4620 C   0  0  0  0  0  2  0  0  0  0  0  0
  186.1690  177.9670  144.3750 C   0  0  0  0  0  0  0  0  0  0  0  0
  185.1390  178.2060  143.4530 C   0  0  0  0  0  0  0  0  0  0  0  0
  188.9120  177.3140  140.8480 C   0  0  0  0  0  0  0  0  0  0  0  0
  190.5110  176.1620  142.4120 C   0  0  0  0  0  2  0  0  0  0  0  0
  184.7620  178.6680  146.2270 C   0  0  0  0  0  0  0  0  0  0  0  0
  191.2350  177.0670  140.1890 C   0  0  0  0  0  3  0  0  0  0  0  0
  191.6040  176.1700  145.1380 C   0  0  0  0  0  2  0  0  0  0  0  0
  189.6820  176.6790  143.5050 N   0  0  0  0  0  0  0  0  0  0  0  0
  190.2080  176.6810  144.8580 C   0  0  0  0  0  0  0  0  0  0  0  0
  188.0850  177.4750  145.5820 N   0  0  0  0  0  0  0  0  0  0  0  0
  183.7220  178.9110  145.3190 C   0  0  0  0  0  3  0  0  0  0  0  0
  190.2180  176.8740  141.1270 C   0  0  0  0  0  0  0  0  0  0  0  0
  183.9100  178.6810  143.9420 C   0  0  0  0  0  3  0  0  0  0  0  0
  188.6360  177.9430  139.6310 C   0  0  0  0  0  3  0  0  0  0  0  0
  189.6580  178.1440  138.6960 C   0  0  0  0  0  0  0  0  0  0  0  0
  189.9210  177.1260  147.3010 C   0  0  0  0  0  2  0  0  0  0  0  0
  189.4140  177.0550  145.8850 C   0  0  0  0  0  0  0  0  0  0  0  0
  187.1210  177.9040  146.4610 O   0  0  0  0  0  0  0  0  0  0  0  0
  187.8040  177.0780  141.8260 C   0  0  0  0  0  2  0  0  0  0  0  0
  185.2890  178.0010  142.1250 F   0  0  0  0  0  0  0  0  0  0  0  0
  184.5890  178.8880  147.5540 F   0  0  0  0  0  0  0  0  0  0  0  0
  187.5580  177.4870  144.2660 C   0  0  0  0  0  0  0  0  0  0  0  0
  185.9750  178.1990  145.7310 C   0  0  0  0  0  0  0  0  0  0  0  0
  189.3640  178.8400  137.4090 C   0  0  0  0  0  2  0  0  0  0  0  0
  188.6300  177.9230  136.4400 C   0  0  0  0  0  2  0  0  0  0  0  0
  187.2030  178.3300  136.2940 C   0  0  0  0  0  0  0  0  0  0  0  0
  186.3960  177.7100  135.3510 O   0  0  0  0  0  0  0  0  0  0  0  0
  186.7240  179.2190  137.0450 O   0  0  0  0  0  1  0  0  0  0  0  0
  1 10  1  0  0  0  0
  2 12  1  0  0  0  0
  2 26  2  0  0  0  0
  3  4  1  0  0  0  0
  5 27  1  0  0  0  0
  6 17  1  0  0  0  0
  6  5  2  0  0  0  0
  7 16  1  0  0  0  0
  7 23  1  0  0  0  0
  8 12  1  0  0  0  0
  9 25  1  0  0  0  0
 10 16  2  0  0  0  0
 11  3  1  0  0  0  0
 12 13  1  0  0  0  0
 13 11  1  0  0  0  0
 13 21  2  0  0  0  0
 14 21  1  0  0  0  0
 14 22  1  0  0  0  0
 15  9  1  0  0  0  0
 16  8  1  0  0  0  0
 17 15  2  0  0  0  0
 18  7  2  0  0  0  0
 19  1  2  0  0  0  0
 19 18  1  0  0  0  0
 20  4  1  0  0  0  0
 21 20  1  0  0  0  0
 23  2  1  0  0  0  0
 24  6  1  0  0  0  0
 26  5  1  0  0  0  0
 26 14  1  0  0  0  0
 27  9  2  0  0  0  0
 27 22  1  0  0  0  0
 28 19  1  0  0  0  0
 29 28  1  0  0  0  0
 30 29  1  0  0  0  0
 30 32  1  0  0  0  0
 31 30  2  0  0  0  0
M  END
>  <MODEL>
3

>  <REMARK>
 VINA RESULT:     -10.0      3.112      5.249
  Name = 
  3 active torsions:
  status: ('A' for Active; 'I' for Inactive)
    1  A    between atoms: C_1  and  C_10
    2  A    between atoms: C_10  and  C_19
    3  A    between atoms: C_19  and  C_24
                            x       y       z     vdW  Elec       q    Type
                         _______ _______ _______ _____ _____    ______ ____

>  <TORSDO>
F 3

$$$$
=
 OpenBabel10272413233D

 32 37  0  0  0  0  0  0  0  0999 V2000
  181.5770  178.6210  143.7290 C   0  0  0  0  0  3  0  0  0  0  0  0
  186.5780  178.5460  143.0750 C   0  0  0  0  0  0  0  0  0  0  0  0
  187.8520  177.0120  147.6200 N   0  0  0  0  0  2  0  0  0  0  0  0
  189.2620  177.2400  147.3220 C   0  0  0  0  0  2  0  0  0  0  0  0
  188.3370  177.9370  141.2860 C   0  0  0  0  0  0  0  0  0  0  0  0
  187.9020  178.2450  139.9880 C   0  0  0  0  0  0  0  0  0  0  0  0
  184.1670  178.9240  142.7100 C   0  0  0  0  0  0  0  0  0  0  0  0
  185.1010  179.1250  145.0380 C   0  0  0  0  0  2  0  0  0  0  0  0
  190.4490  177.0800  140.4430 C   0  0  0  0  0  0  0  0  0  0  0  0
  182.6560  178.7790  144.6050 C   0  0  0  0  0  3  0  0  0  0  0  0
  187.0740  178.0330  146.9190 C   0  0  0  0  0  2  0  0  0  0  0  0
  186.3280  178.5240  144.5070 N   0  0  0  0  0  0  0  0  0  0  0  0
  187.3150  177.9870  145.4270 C   0  0  0  0  0  0  0  0  0  0  0  0
  188.7030  177.5590  143.5430 N   0  0  0  0  0  0  0  0  0  0  0  0
  190.0290  177.3840  139.1400 C   0  0  0  0  0  3  0  0  0  0  0  0
  183.9510  178.9250  144.1000 C   0  0  0  0  0  0  0  0  0  0  0  0
  188.7650  177.9620  138.9150 C   0  0  0  0  0  3  0  0  0  0  0  0
  183.0850  178.7770  141.8390 C   0  0  0  0  0  3  0  0  0  0  0  0
  181.7900  178.6210  142.3460 C   0  0  0  0  0  0  0  0  0  0  0  0
  189.5320  176.9150  145.8540 C   0  0  0  0  0  2  0  0  0  0  0  0
  188.4940  177.5300  144.9530 C   0  0  0  0  0  0  0  0  0  0  0  0
  189.8110  177.1360  142.8500 O   0  0  0  0  0  0  0  0  0  0  0  0
  185.5430  179.1200  142.1540 C   0  0  0  0  0  2  0  0  0  0  0  0
  186.6920  178.7960  139.7380 F   0  0  0  0  0  0  0  0  0  0  0  0
  191.6630  176.5220  140.6680 F   0  0  0  0  0  0  0  0  0  0  0  0
  187.7470  178.0720  142.6290 C   0  0  0  0  0  0  0  0  0  0  0  0
  189.5850  177.3640  141.4970 C   0  0  0  0  0  0  0  0  0  0  0  0
  180.6410  178.4370  141.4120 C   0  0  0  0  0  2  0  0  0  0  0  0
  181.1150  177.9950  140.0340 C   0  0  0  0  0  2  0  0  0  0  0  0
  181.2100  176.5080  139.9520 C   0  0  0  0  0  0  0  0  0  0  0  0
  182.4020  175.9070  139.5740 O   0  0  0  0  0  0  0  0  0  0  0  0
  180.2150  175.7980  140.2500 O   0  0  0  0  0  1  0  0  0  0  0  0
  1 10  1  0  0  0  0
  2 12  1  0  0  0  0
  4  3  1  0  0  0  0
  5 27  1  0  0  0  0
  5 26  1  0  0  0  0
  6  5  2  0  0  0  0
  7 16  1  0  0  0  0
  9 25  1  0  0  0  0
  9 27  2  0  0  0  0
 11  3  1  0  0  0  0
 12  8  1  0  0  0  0
 12 13  1  0  0  0  0
 13 11  1  0  0  0  0
 14 21  1  0  0  0  0
 15  9  1  0  0  0  0
 16 10  2  0  0  0  0
 16  8  1  0  0  0  0
 17 15  2  0  0  0  0
 17  6  1  0  0  0  0
 18 19  1  0  0  0  0
 18  7  2  0  0  0  0
 19  1  2  0  0  0  0
 20  4  1  0  0  0  0
 21 13  2  0  0  0  0
 21 20  1  0  0  0  0
 22 14  1  0  0  0  0
 23  7  1  0  0  0  0
 23  2  1  0  0  0  0
 24  6  1  0  0  0  0
 26  2  2  0  0  0  0
 26 14  1  0  0  0  0
 27 22  1  0  0  0  0
 28 19  1  0  0  0  0
 29 28  1  0  0  0  0
 30 29  1  0  0  0  0
 30 32  1  0  0  0  0
 31 30  2  0  0  0  0
M  END
>  <MODEL>
4

>  <REMARK>
 VINA RESULT:      -9.6      3.246      7.660
  Name = 
  3 active torsions:
  status: ('A' for Active; 'I' for Inactive)
    1  A    between atoms: C_1  and  C_10
    2  A    between atoms: C_10  and  C_19
    3  A    between atoms: C_19  and  C_24
                            x       y       z     vdW  Elec       q    Type
                         _______ _______ _______ _____ _____    ______ ____

>  <TORSDO>
F 3

$$$$
=
 OpenBabel10272413233D

 32 37  0  0  0  0  0  0  0  0999 V2000
  183.6040  178.4410  145.7860 C   0  0  0  0  0  3  0  0  0  0  0  0
  188.0480  178.1250  143.4220 C   0  0  0  0  0  0  0  0  0  0  0  0
  190.6320  175.9870  147.0800 N   0  0  0  0  0  2  0  0  0  0  0  0
  191.8720  176.1580  146.3290 C   0  0  0  0  0  2  0  0  0  0  0  0
  189.0220  177.6200  141.0840 C   0  0  0  0  0  0  0  0  0  0  0  0
  188.2040  178.1070  140.0530 C   0  0  0  0  0  0  0  0  0  0  0  0
  185.7080  178.6960  143.9570 C   0  0  0  0  0  0  0  0  0  0  0  0
  187.3940  178.5610  145.8200 C   0  0  0  0  0  2  0  0  0  0  0  0
  190.6230  176.7360  139.4850 C   0  0  0  0  0  0  0  0  0  0  0  0
  184.9270  178.4250  146.2390 C   0  0  0  0  0  3  0  0  0  0  0  0
  189.7690  177.1310  146.7890 C   0  0  0  0  0  2  0  0  0  0  0  0
  188.3010  177.9500  144.8430 N   0  0  0  0  0  0  0  0  0  0  0  0
  189.4820  177.2470  145.3090 C   0  0  0  0  0  0  0  0  0  0  0  0
  190.0940  176.9560  143.0280 N   0  0  0  0  0  0  0  0  0  0  0  0
  189.8170  177.2180  138.4430 C   0  0  0  0  0  3  0  0  0  0  0  0
  185.9800  178.5470  145.3290 C   0  0  0  0  0  0  0  0  0  0  0  0
  188.6170  177.8980  138.7260 C   0  0  0  0  0  3  0  0  0  0  0  0
  184.3850  178.7220  143.5090 C   0  0  0  0  0  3  0  0  0  0  0  0
  183.3320  178.5910  144.4210 C   0  0  0  0  0  0  0  0  0  0  0  0
  191.5920  175.9930  144.8370 C   0  0  0  0  0  2  0  0  0  0  0  0
  190.3770  176.7740  144.4140 C   0  0  0  0  0  0  0  0  0  0  0  0
  190.8520  176.5480  141.9570 O   0  0  0  0  0  0  0  0  0  0  0  0
  186.8250  178.8690  142.9760 C   0  0  0  0  0  2  0  0  0  0  0  0
  187.0440  178.7590  140.2910 F   0  0  0  0  0  0  0  0  0  0  0  0
  191.7780  176.0790  139.2200 F   0  0  0  0  0  0  0  0  0  0  0  0
  188.9410  177.6330  142.5560 C   0  0  0  0  0  0  0  0  0  0  0  0
  190.2030  176.9480  140.7940 C   0  0  0  0  0  0  0  0  0  0  0  0
  181.9210  178.5910  143.9350 C   0  0  0  0  0  2  0  0  0  0  0  0
  181.8570  178.7930  142.4270 C   0  0  0  0  0  2  0  0  0  0  0  0
  180.6280  179.5440  142.0390 C   0  0  0  0  0  0  0  0  0  0  0  0
  180.1970  180.6170  142.8070 O   0  0  0  0  0  1  0  0  0  0  0  0
  179.9950  179.2200  141.0010 O   0  0  0  0  0  0  0  0  0  0  0  0
  1 10  1  0  0  0  0
  2 12  1  0  0  0  0
  4  3  1  0  0  0  0
  5 26  1  0  0  0  0
  6 24  1  0  0  0  0
  6  5  2  0  0  0  0
  7 16  1  0  0  0  0
  9 27  2  0  0  0  0
 11  3  1  0  0  0  0
 12 13  1  0  0  0  0
 12  8  1  0  0  0  0
 13 11  1  0  0  0  0
 14 21  1  0  0  0  0
 15 17  2  0  0  0  0
 15  9  1  0  0  0  0
 16  8  1  0  0  0  0
 16 10  2  0  0  0  0
 17  6  1  0  0  0  0
 18  7  2  0  0  0  0
 18 19  1  0  0  0  0
 19  1  2  0  0  0  0
 20  4  1  0  0  0  0
 21 20  1  0  0  0  0
 21 13  2  0  0  0  0
 22 14  1  0  0  0  0
 23  2  1  0  0  0  0
 23  7  1  0  0  0  0
 25  9  1  0  0  0  0
 26 14  1  0  0  0  0
 26  2  2  0  0  0  0
 27  5  1  0  0  0  0
 27 22  1  0  0  0  0
 28 19  1  0  0  0  0
 29 28  1  0  0  0  0
 30 29  1  0  0  0  0
 30 31  1  0  0  0  0
 32 30  2  0  0  0  0
M  END
>  <MODEL>
5

>  <REMARK>
 VINA RESULT:      -9.4      3.155      8.324
  Name = 
  3 active torsions:
  status: ('A' for Active; 'I' for Inactive)
    1  A    between atoms: C_1  and  C_10
    2  A    between atoms: C_10  and  C_19
    3  A    between atoms: C_19  and  C_24
                            x       y       z     vdW  Elec       q    Type
                         _______ _______ _______ _____ _____    ______ ____

>  <TORSDO>
F 3

$$$$
=
 OpenBabel10272413233D

 32 37  0  0  0  0  0  0  0  0999 V2000
  190.8770  177.0480  144.7770 C   0  0  0  0  0  3  0  0  0  0  0  0
  189.3560  177.7520  140.0200 C   0  0  0  0  0  0  0  0  0  0  0  0
  193.0660  175.3690  137.7420 N   0  0  0  0  0  2  0  0  0  0  0  0
  192.5910  175.8340  136.4430 C   0  0  0  0  0  2  0  0  0  0  0  0
  187.1890  177.8020  138.6160 C   0  0  0  0  0  0  0  0  0  0  0  0
  186.1100  178.3490  139.3260 C   0  0  0  0  0  0  0  0  0  0  0  0
  189.5280  177.9010  142.4770 C   0  0  0  0  0  0  0  0  0  0  0  0
  191.6300  177.6670  141.1120 C   0  0  0  0  0  2  0  0  0  0  0  0
  185.7990  177.4370  136.6570 C   0  0  0  0  0  0  0  0  0  0  0  0
  191.5600  177.1300  143.5590 C   0  0  0  0  0  3  0  0  0  0  0  0
  192.7950  176.4200  138.7220 C   0  0  0  0  0  2  0  0  0  0  0  0
  190.7560  177.3650  139.9740 N   0  0  0  0  0  0  0  0  0  0  0  0
  191.3220  176.7550  138.7840 C   0  0  0  0  0  0  0  0  0  0  0  0
  189.1760  176.9560  137.7750 N   0  0  0  0  0  0  0  0  0  0  0  0
  184.7110  177.9820  137.3530 C   0  0  0  0  0  3  0  0  0  0  0  0
  190.8890  177.5510  142.4080 C   0  0  0  0  0  0  0  0  0  0  0  0
  184.8660  178.4340  138.6770 C   0  0  0  0  0  3  0  0  0  0  0  0
  188.8530  177.8280  143.6980 C   0  0  0  0  0  3  0  0  0  0  0  0
  189.5240  177.3980  144.8480 C   0  0  0  0  0  0  0  0  0  0  0  0
  191.0660  175.8980  136.4500 C   0  0  0  0  0  2  0  0  0  0  0  0
  190.5470  176.5720  137.6920 C   0  0  0  0  0  0  0  0  0  0  0  0
  188.2150  176.8480  136.7990 O   0  0  0  0  0  0  0  0  0  0  0  0
  188.8080  178.3920  141.2610 C   0  0  0  0  0  2  0  0  0  0  0  0
  186.2240  178.7880  140.6000 F   0  0  0  0  0  0  0  0  0  0  0  0
  185.6570  176.9970  135.3820 F   0  0  0  0  0  0  0  0  0  0  0  0
  188.6060  177.5450  138.9320 C   0  0  0  0  0  0  0  0  0  0  0  0
  187.0260  177.3560  137.3100 C   0  0  0  0  0  0  0  0  0  0  0  0
  188.7910  177.2950  146.1440 C   0  0  0  0  0  2  0  0  0  0  0  0
  187.3210  177.6550  145.9760 C   0  0  0  0  0  2  0  0  0  0  0  0
  186.8170  178.4120  147.1590 C   0  0  0  0  0  0  0  0  0  0  0  0
  185.6120  179.0970  147.0840 O   0  0  0  0  0  0  0  0  0  0  0  0
  187.4730  178.4100  148.2320 O   0  0  0  0  0  1  0  0  0  0  0  0
  1 19  1  0  0  0  0
  2 23  1  0  0  0  0
  3 11  1  0  0  0  0
  4 20  1  0  0  0  0
  4  3  1  0  0  0  0
  5 26  1  0  0  0  0
  5  6  1  0  0  0  0
  6 24  1  0  0  0  0
  7 18  1  0  0  0  0
  8 16  1  0  0  0  0
  9 27  1  0  0  0  0
  9 15  2  0  0  0  0
 10  1  2  0  0  0  0
 11 13  1  0  0  0  0
 12  2  1  0  0  0  0
 12  8  1  0  0  0  0
 13 12  1  0  0  0  0
 14 26  1  0  0  0  0
 15 17  1  0  0  0  0
 16  7  2  0  0  0  0
 16 10  1  0  0  0  0
 17  6  2  0  0  0  0
 18 19  2  0  0  0  0
 19 28  1  0  0  0  0
 20 21  1  0  0  0  0
 21 14  1  0  0  0  0
 21 13  2  0  0  0  0
 22 27  1  0  0  0  0
 22 14  1  0  0  0  0
 23  7  1  0  0  0  0
 25  9  1  0  0  0  0
 26  2  2  0  0  0  0
 27  5  2  0  0  0  0
 29 28  1  0  0  0  0
 29 30  1  0  0  0  0
 30 32  1  0  0  0  0
 31 30  2  0  0  0  0
M  END
>  <MODEL>
6

>  <REMARK>
 VINA RESULT:      -9.3      3.385      8.623
  Name = 
  3 active torsions:
  status: ('A' for Active; 'I' for Inactive)
    1  A    between atoms: C_1  and  C_10
    2  A    between atoms: C_10  and  C_19
    3  A    between atoms: C_19  and  C_24
                            x       y       z     vdW  Elec       q    Type
                         _______ _______ _______ _____ _____    ______ ____

>  <TORSDO>
F 3

$$$$
=
 OpenBabel10272413233D

 32 37  0  0  0  0  0  0  0  0999 V2000
  188.7760  177.7670  148.1390 C   0  0  0  0  0  3  0  0  0  0  0  0
  187.7870  177.3560  143.2100 C   0  0  0  0  0  0  0  0  0  0  0  0
  183.2960  179.4690  143.2230 N   0  0  0  0  0  2  0  0  0  0  0  0
  183.0940  179.0900  141.8280 C   0  0  0  0  0  2  0  0  0  0  0  0
  188.9730  177.5450  140.9240 C   0  0  0  0  0  0  0  0  0  0  0  0
  190.2940  177.0750  140.9720 C   0  0  0  0  0  0  0  0  0  0  0  0
  188.8610  177.1130  145.4170 C   0  0  0  0  0  0  0  0  0  0  0  0
  186.3500  177.2020  145.2790 C   0  0  0  0  0  2  0  0  0  0  0  0
  189.1870  178.0970  138.5680 C   0  0  0  0  0  0  0  0  0  0  0  0
  187.5870  177.6630  147.4090 C   0  0  0  0  0  3  0  0  0  0  0  0
  184.0810  178.4160  143.8650 C   0  0  0  0  0  2  0  0  0  0  0  0
  186.5260  177.6170  143.8840 N   0  0  0  0  0  0  0  0  0  0  0  0
  185.4090  178.2120  143.1720 C   0  0  0  0  0  0  0  0  0  0  0  0
  186.7820  178.2370  141.2290 N   0  0  0  0  0  0  0  0  0  0  0  0
  190.5090  177.6290  138.5990 C   0  0  0  0  0  3  0  0  0  0  0  0
  187.6260  177.3420  146.0500 C   0  0  0  0  0  0  0  0  0  0  0  0
  191.0570  177.1220  139.7930 C   0  0  0  0  0  3  0  0  0  0  0  0
  190.0460  177.2060  146.1520 C   0  0  0  0  0  3  0  0  0  0  0  0
  190.0070  177.5370  147.5110 C   0  0  0  0  0  0  0  0  0  0  0  0
  184.4240  179.1630  141.0810 C   0  0  0  0  0  2  0  0  0  0  0  0
  185.5290  178.4990  141.8580 C   0  0  0  0  0  0  0  0  0  0  0  0
  187.1270  178.4620  139.9180 O   0  0  0  0  0  0  0  0  0  0  0  0
  188.9150  176.7280  143.9730 C   0  0  0  0  0  2  0  0  0  0  0  0
  190.8520  176.5870  142.1030 F   0  0  0  0  0  0  0  0  0  0  0  0
  188.6530  178.5880  137.4230 F   0  0  0  0  0  0  0  0  0  0  0  0
  187.8860  177.6650  141.9120 C   0  0  0  0  0  0  0  0  0  0  0  0
  188.4420  178.0460  139.7420 C   0  0  0  0  0  0  0  0  0  0  0  0
  191.2760  177.6630  148.2850 C   0  0  0  0  0  2  0  0  0  0  0  0
  192.2340  176.5230  147.9630 C   0  0  0  0  0  2  0  0  0  0  0  0
  193.0980  176.2040  149.1360 C   0  0  0  0  0  0  0  0  0  0  0  0
  193.8710  177.1970  149.7210 O   0  0  0  0  0  1  0  0  0  0  0  0
  193.1070  175.0390  149.6110 O   0  0  0  0  0  0  0  0  0  0  0  0
  2 12  1  0  0  0  0
  2 23  1  0  0  0  0
  3 11  1  0  0  0  0
  4  3  1  0  0  0  0
  5  6  1  0  0  0  0
  5 26  1  0  0  0  0
  6 24  1  0  0  0  0
  7 16  2  0  0  0  0
  7 18  1  0  0  0  0
  8 16  1  0  0  0  0
  9 15  2  0  0  0  0
  9 27  1  0  0  0  0
 10  1  2  0  0  0  0
 12  8  1  0  0  0  0
 13 11  1  0  0  0  0
 13 12  1  0  0  0  0
 14 21  1  0  0  0  0
 14 26  1  0  0  0  0
 15 17  1  0  0  0  0
 16 10  1  0  0  0  0
 17  6  2  0  0  0  0
 18 19  2  0  0  0  0
 19  1  1  0  0  0  0
 19 28  1  0  0  0  0
 20  4  1  0  0  0  0
 20 21  1  0  0  0  0
 21 13  2  0  0  0  0
 22 14  1  0  0  0  0
 23  7  1  0  0  0  0
 25  9  1  0  0  0  0
 26  2  2  0  0  0  0
 27 22  1  0  0  0  0
 27  5  2  0  0  0  0
 29 28  1  0  0  0  0
 29 30  1  0  0  0  0
 30 32  2  0  0  0  0
 30 31  1  0  0  0  0
M  END
>  <MODEL>
7

>  <REMARK>
 VINA RESULT:      -9.0      2.964      7.121
  Name = 
  3 active torsions:
  status: ('A' for Active; 'I' for Inactive)
    1  A    between atoms: C_1  and  C_10
    2  A    between atoms: C_10  and  C_19
    3  A    between atoms: C_19  and  C_24
                            x       y       z     vdW  Elec       q    Type
                         _______ _______ _______ _____ _____    ______ ____

>  <TORSDO>
F 3

$$$$
=
 OpenBabel10272413233D

 32 37  0  0  0  0  0  0  0  0999 V2000
  191.8400  177.2890  141.2020 C   0  0  0  0  0  3  0  0  0  0  0  0
  187.5580  177.3340  143.8670 C   0  0  0  0  0  0  0  0  0  0  0  0
  189.5280  178.2100  148.3360 N   0  0  0  0  0  2  0  0  0  0  0  0
  188.2320  177.9910  148.9710 C   0  0  0  0  0  2  0  0  0  0  0  0
  185.1110  178.1370  143.6790 C   0  0  0  0  0  0  0  0  0  0  0  0
  184.6120  178.0170  142.3730 C   0  0  0  0  0  0  0  0  0  0  0  0
  189.1710  177.0650  142.0200 C   0  0  0  0  0  0  0  0  0  0  0  0
  189.8970  176.5310  144.3690 C   0  0  0  0  0  2  0  0  0  0  0  0
  183.0020  179.0500  144.4690 C   0  0  0  0  0  0  0  0  0  0  0  0
  191.5420  176.9890  142.5350 C   0  0  0  0  0  3  0  0  0  0  0  0
  189.6230  177.3120  147.1870 C   0  0  0  0  0  2  0  0  0  0  0  0
  188.6520  177.1680  144.8090 N   0  0  0  0  0  0  0  0  0  0  0  0
  188.5020  177.5530  146.2010 C   0  0  0  0  0  0  0  0  0  0  0  0
  186.2710  178.1980  145.6840 N   0  0  0  0  0  0  0  0  0  0  0  0
  182.4890  178.9340  143.1690 C   0  0  0  0  0  3  0  0  0  0  0  0
  190.2120  176.8820  142.9480 C   0  0  0  0  0  0  0  0  0  0  0  0
  183.2880  178.4220  142.1290 C   0  0  0  0  0  3  0  0  0  0  0  0
  189.4730  177.3540  140.6860 C   0  0  0  0  0  3  0  0  0  0  0  0
  190.8060  177.4710  140.2760 C   0  0  0  0  0  0  0  0  0  0  0  0
  187.1230  178.5050  148.0560 C   0  0  0  0  0  2  0  0  0  0  0  0
  187.3210  178.0420  146.6370 C   0  0  0  0  0  0  0  0  0  0  0  0
  185.0050  178.6840  145.9040 O   0  0  0  0  0  0  0  0  0  0  0  0
  187.7430  176.9140  142.4390 C   0  0  0  0  0  2  0  0  0  0  0  0
  185.3550  177.5340  141.3520 F   0  0  0  0  0  0  0  0  0  0  0  0
  182.2390  179.5440  145.4740 F   0  0  0  0  0  0  0  0  0  0  0  0
  186.4030  177.8360  144.3190 C   0  0  0  0  0  0  0  0  0  0  0  0
  184.3140  178.6460  144.6970 C   0  0  0  0  0  0  0  0  0  0  0  0
  191.1220  177.8060  138.8570 C   0  0  0  0  0  2  0  0  0  0  0  0
  190.1020  177.1950  137.9050 C   0  0  0  0  0  2  0  0  0  0  0  0
  189.3360  178.2560  137.1890 C   0  0  0  0  0  0  0  0  0  0  0  0
  188.9900  178.0850  135.8560 O   0  0  0  0  0  0  0  0  0  0  0  0
  188.9820  179.2970  137.8010 O   0  0  0  0  0  1  0  0  0  0  0  0
  1 10  1  0  0  0  0
  2 26  2  0  0  0  0
  2 12  1  0  0  0  0
  3  4  1  0  0  0  0
  5 26  1  0  0  0  0
  5 27  1  0  0  0  0
  6  5  2  0  0  0  0
  7 23  1  0  0  0  0
  7 16  1  0  0  0  0
  8 12  1  0  0  0  0
  9 27  2  0  0  0  0
  9 25  1  0  0  0  0
 10 16  2  0  0  0  0
 11  3  1  0  0  0  0
 12 13  1  0  0  0  0
 13 21  2  0  0  0  0
 13 11  1  0  0  0  0
 14 22  1  0  0  0  0
 14 21  1  0  0  0  0
 15  9  1  0  0  0  0
 16  8  1  0  0  0  0
 17  6  1  0  0  0  0
 17 15  2  0  0  0  0
 18  7  2  0  0  0  0
 19 18  1  0  0  0  0
 19  1  2  0  0  0  0
 20  4  1  0  0  0  0
 21 20  1  0  0  0  0
 23  2  1  0  0  0  0
 24  6  1  0  0  0  0
 26 14  1  0  0  0  0
 27 22  1  0  0  0  0
 28 19  1  0  0  0  0
 29 28  1  0  0  0  0
 30 32  1  0  0  0  0
 30 29  1  0  0  0  0
 31 30  2  0  0  0  0
M  END
>  <MODEL>
8

>  <REMARK>
 VINA RESULT:      -9.0      2.954      5.319
  Name = 
  3 active torsions:
  status: ('A' for Active; 'I' for Inactive)
    1  A    between atoms: C_1  and  C_10
    2  A    between atoms: C_10  and  C_19
    3  A    between atoms: C_19  and  C_24
                            x       y       z     vdW  Elec       q    Type
                         _______ _______ _______ _____ _____    ______ ____

>  <TORSDO>
F 3

$$$$
=
 OpenBabel10272413233D

 32 37  0  0  0  0  0  0  0  0999 V2000
  186.9070  178.2280  146.9090 C   0  0  0  0  0  3  0  0  0  0  0  0
  187.0350  177.6120  141.9050 C   0  0  0  0  0  0  0  0  0  0  0  0
  182.8600  180.0550  140.7960 N   0  0  0  0  0  2  0  0  0  0  0  0
  182.9480  179.6130  139.4080 C   0  0  0  0  0  2  0  0  0  0  0  0
  188.7230  177.5800  139.9510 C   0  0  0  0  0  0  0  0  0  0  0  0
  189.9520  177.0140  140.3220 C   0  0  0  0  0  0  0  0  0  0  0  0
  187.5530  177.4140  144.3090 C   0  0  0  0  0  0  0  0  0  0  0  0
  185.1570  177.6850  143.5890 C   0  0  0  0  0  2  0  0  0  0  0  0
  189.5140  177.9780  137.6890 C   0  0  0  0  0  0  0  0  0  0  0  0
  185.9110  178.1730  145.9290 C   0  0  0  0  0  3  0  0  0  0  0  0
  183.3830  178.9840  141.6420 C   0  0  0  0  0  2  0  0  0  0  0  0
  185.6810  178.0060  142.2580 N   0  0  0  0  0  0  0  0  0  0  0  0
  184.8110  178.6410  141.2840 C   0  0  0  0  0  0  0  0  0  0  0  0
  186.5880  178.4510  139.7130 N   0  0  0  0  0  0  0  0  0  0  0  0
  190.7490  177.4140  138.0430 C   0  0  0  0  0  3  0  0  0  0  0  0
  186.2300  177.7720  144.6290 C   0  0  0  0  0  0  0  0  0  0  0  0
  190.9650  176.9370  139.3500 C   0  0  0  0  0  3  0  0  0  0  0  0
  188.5430  177.4600  145.2940 C   0  0  0  0  0  3  0  0  0  0  0  0
  188.2240  177.8710  146.5930 C   0  0  0  0  0  0  0  0  0  0  0  0
  184.4140  179.5430  138.9870 C   0  0  0  0  0  2  0  0  0  0  0  0
  185.2530  178.8430  140.0230 C   0  0  0  0  0  0  0  0  0  0  0  0
  187.2400  178.5740  138.5100 O   0  0  0  0  0  0  0  0  0  0  0  0
  187.9010  176.9450  142.9320 C   0  0  0  0  0  2  0  0  0  0  0  0
  190.1930  176.5510  141.5690 F   0  0  0  0  0  0  0  0  0  0  0  0
  189.3000  178.4420  136.4330 F   0  0  0  0  0  0  0  0  0  0  0  0
  187.4530  177.8370  140.6540 C   0  0  0  0  0  0  0  0  0  0  0  0
  188.5200  178.0510  138.6590 C   0  0  0  0  0  0  0  0  0  0  0  0
  189.2900  177.9440  147.6350 C   0  0  0  0  0  2  0  0  0  0  0  0
  190.0650  176.6370  147.7240 C   0  0  0  0  0  2  0  0  0  0  0  0
  191.5050  176.8460  147.3960 C   0  0  0  0  0  0  0  0  0  0  0  0
  192.4540  176.8630  148.4100 O   0  0  0  0  0  1  0  0  0  0  0  0
  191.8640  176.9810  146.1980 O   0  0  0  0  0  0  0  0  0  0  0  0
  2 12  1  0  0  0  0
  2 23  1  0  0  0  0
  3 11  1  0  0  0  0
  4  3  1  0  0  0  0
  5  6  1  0  0  0  0
  5 26  1  0  0  0  0
  6 24  1  0  0  0  0
  7 16  2  0  0  0  0
  7 18  1  0  0  0  0
  8 16  1  0  0  0  0
  9 15  2  0  0  0  0
  9 27  1  0  0  0  0
 10  1  2  0  0  0  0
 12  8  1  0  0  0  0
 13 11  1  0  0  0  0
 13 12  1  0  0  0  0
 14 21  1  0  0  0  0
 14 26  1  0  0  0  0
 15 17  1  0  0  0  0
 16 10  1  0  0  0  0
 17  6  2  0  0  0  0
 18 19  2  0  0  0  0
 19  1  1  0  0  0  0
 19 28  1  0  0  0  0
 20  4  1  0  0  0  0
 20 21  1  0  0  0  0
 21 13  2  0  0  0  0
 22 27  1  0  0  0  0
 22 14  1  0  0  0  0
 23  7  1  0  0  0  0
 25  9  1  0  0  0  0
 26  2  2  0  0  0  0
 27  5  2  0  0  0  0
 28 29  1  0  0  0  0
 30 29  1  0  0  0  0
 30 31  1  0  0  0  0
 32 30  2  0  0  0  0
M  END
>  <MODEL>
9

>  <REMARK>
 VINA RESULT:      -8.8      2.888      7.042
  Name = 
  3 active torsions:
  status: ('A' for Active; 'I' for Inactive)
    1  A    between atoms: C_1  and  C_10
    2  A    between atoms: C_10  and  C_19
    3  A    between atoms: C_19  and  C_24
                            x       y       z     vdW  Elec       q    Type
                         _______ _______ _______ _____ _____    ______ ____

>  <TORSDO>
F 3

$$$$
