=
 OpenBabel10272401223D

 55 61  0  0  1  0  0  0  0  0999 V2000
  192.0370  176.1280  137.0760 C   0  0  0  0  0  2  0  0  0  0  0  0
  188.1170  171.7260  135.4900 C   0  0  0  0  0  2  0  0  0  0  0  0
  190.2110  172.7740  134.5890 C   0  0  2  0  0  3  0  0  0  0  0  0
  191.9720  170.4650  134.5250 C   0  0  0  0  0  3  0  0  0  0  0  0
  192.8230  169.3640  134.4160 C   0  0  0  0  0  3  0  0  0  0  0  0
  193.8880  171.9290  134.8070 C   0  0  0  0  0  0  0  0  0  0  0  0
  194.7300  170.8200  134.6680 C   0  0  0  0  0  3  0  0  0  0  0  0
  189.6650  174.1670  134.3460 C   0  0  0  0  0  1  0  0  0  0  0  0
  194.2020  169.5430  134.4780 C   0  0  0  0  0  3  0  0  0  0  0  0
  190.5670  177.7430  138.2900 C   0  0  0  0  0  3  0  0  0  0  0  0
  192.4850  171.7550  134.7110 C   0  0  0  0  0  0  0  0  0  0  0  0
  188.3050  176.1880  137.7320 C   0  0  0  0  0  0  0  0  0  0  0  0
  192.3820  174.7470  137.6150 C   0  0  0  0  0  2  0  0  0  0  0  0
  189.5630  175.7840  137.2790 C   0  0  0  0  0  3  0  0  0  0  0  0
  193.8260  174.3140  135.5420 C   0  0  0  0  0  2  0  0  0  0  0  0
  186.4580  173.3150  135.0020 C   0  0  0  0  0  2  0  0  0  0  0  0
  194.4960  173.1780  135.0130 O   0  0  0  0  0  0  0  0  0  0  0  0
  187.1760  172.6600  136.0890 N   0  0  0  0  0  2  0  0  0  0  0  0
  189.5440  172.1510  135.8040 C   0  0  0  0  0  2  0  0  0  0  0  0
  189.3060  178.1560  138.7300 C   0  0  0  0  0  3  0  0  0  0  0  0
  185.6960  174.5510  135.4940 C   0  0  2  0  0  3  0  0  0  0  0  0
  190.6960  176.5530  137.5650 C   0  0  0  0  0  0  0  0  0  0  0  0
  191.6220  172.8580  134.7870 O   0  0  0  0  0  0  0  0  0  0  0  0
  193.6950  174.1780  137.0560 C   0  0  1  0  0  3  0  0  0  0  0  0
  186.5750  175.6730  136.0470 C   0  0  0  0  0  2  0  0  0  0  0  0
  187.1150  175.3500  137.4360 C   0  0  0  0  0  2  0  0  0  0  0  0
  188.1750  177.3800  138.4510 C   0  0  0  0  0  3  0  0  0  0  0  0
  195.8680  173.4960  137.7700 C   0  0  0  0  0  2  0  0  0  0  0  0
  197.0770  175.2160  139.1020 N   0  0  0  0  0  0  0  0  0  0  0  0
  194.6130  175.0340  139.1300 C   0  0  0  0  0  2  0  0  0  0  0  0
  195.8890  175.2240  139.9570 C   0  0  0  0  0  2  0  0  0  0  0  0
  197.1900  173.9130  138.4270 C   0  0  0  0  0  2  0  0  0  0  0  0
  194.9130  174.6090  137.7560 N   0  0  0  0  0  0  0  0  0  0  0  0
  198.2570  175.4870  139.9270 C   0  0  0  0  0  3  0  0  0  0  0  0
  199.4340  174.6260  139.4980 C   0  0  0  0  0  1  0  0  0  0  0  0
  198.0080  175.3400  141.4230 C   0  0  0  0  0  1  0  0  0  0  0  0
  184.4180  174.2610  136.2820 C   0  0  0  0  0  2  0  0  0  0  0  0
  183.6120  175.5060  136.6190 C   0  0  0  0  0  2  0  0  0  0  0  0
  183.5840  175.7230  138.1260 C   0  0  0  0  0  2  0  0  0  0  0  0
  184.1860  179.2430  139.3650 C   0  0  2  0  0  3  0  0  0  0  0  0
  181.7890  176.0770  140.0660 F   0  0  0  0  0  0  0  0  0  0  0  0
  182.4200  177.2830  139.8160 C   0  0  2  0  0  0  0  0  0  0  0  0
  181.3850  178.2690  139.8310 O   0  0  0  0  0  0  0  0  0  0  0  0
  183.1740  177.1560  138.4650 C   0  0  1  0  0  3  0  0  0  0  0  0
  185.2900  178.6920  141.5270 C   0  0  0  0  0  1  0  0  0  0  0  0
  182.9910  180.0570  138.8840 C   0  0  0  0  0  2  0  0  0  0  0  0
  180.9400  180.5550  140.0780 C   0  0  0  0  0  1  0  0  0  0  0  0
  181.5590  179.5240  139.1580 C   0  0  2  0  0  0  0  0  0  0  0  0
  184.4040  178.0600  138.4440 C   0  0  0  0  0  2  0  0  0  0  0  0
  183.3220  177.4980  140.8880 O   0  0  0  0  0  0  0  0  0  0  0  0
  183.9620  178.7610  140.8010 C   0  0  2  0  0  3  0  0  0  0  0  0
  179.9830  178.3360  137.3650 C   0  0  0  0  0  1  0  0  0  0  0  0
  180.7520  179.5640  137.8350 C   0  0  0  0  0  0  0  0  0  0  0  0
  181.2110  180.5010  136.7340 C   0  0  0  0  0  2  0  0  0  0  0  0
  179.9870  180.8420  137.5720 C   0  0  0  0  0  2  0  0  0  0  0  0
  1 22  1  0  0  0  0
  1 13  1  0  0  0  0
  2 19  1  0  0  0  0
  2 18  1  0  0  0  0
  3  8  1  1  0  0  0
  3 23  1  0  0  0  0
  3 19  1  0  0  0  0
  4 11  1  0  0  0  0
  5  9  1  0  0  0  0
  5  4  2  0  0  0  0
  6 17  1  0  0  0  0
  7  6  1  0  0  0  0
  9  7  2  0  0  0  0
 10 20  1  0  0  0  0
 11 23  1  0  0  0  0
 11  6  2  0  0  0  0
 12 27  1  0  0  0  0
 14 22  1  0  0  0  0
 14 12  2  0  0  0  0
 16 21  1  0  0  0  0
 16 18  1  0  0  0  0
 17 15  1  0  0  0  0
 21 25  1  0  0  0  0
 21 37  1  1  0  0  0
 22 10  2  0  0  0  0
 24 15  1  6  0  0  0
 24 13  1  0  0  0  0
 24 33  1  0  0  0  0
 25 26  1  0  0  0  0
 26 12  1  0  0  0  0
 27 20  2  0  0  0  0
 28 32  1  0  0  0  0
 29 34  1  0  0  0  0
 29 31  1  0  0  0  0
 30 31  1  0  0  0  0
 32 29  1  0  0  0  0
 33 28  1  0  0  0  0
 33 30  1  0  0  0  0
 34 36  1  0  0  0  0
 35 34  1  0  0  0  0
 37 38  1  0  0  0  0
 38 39  1  0  0  0  0
 40 49  1  6  0  0  0
 40 51  1  0  0  0  0
 42 43  1  0  0  0  0
 42 41  1  1  0  0  0
 42 50  1  0  0  0  0
 44 39  1  1  0  0  0
 44 42  1  0  0  0  0
 46 48  1  0  0  0  0
 46 40  1  0  0  0  0
 48 43  1  0  0  0  0
 48 47  1  1  0  0  0
 49 44  1  0  0  0  0
 51 50  1  0  0  0  0
 51 45  1  6  0  0  0
 52 53  1  0  0  0  0
 53 48  1  0  0  0  0
 54 55  1  0  0  0  0
 54 53  1  0  0  0  0
 55 53  1  0  0  0  0
M  END
>  <MODEL>
1

>  <REMARK>
 VINA RESULT:      -6.3      0.000      0.000
  Name = 
  7 active torsions:
  status: ('A' for Active; 'I' for Inactive)
    1  A    between atoms: C_7  and  C_20
    2  A    between atoms: C_7  and  C_22
    3  A    between atoms: C_8  and  C_22
    4  A    between atoms: C_8  and  C_43
    5  A    between atoms: C_10  and  N_32
    6  A    between atoms: C_12  and  C_38
    7  A    between atoms: C_49  and  N_52
                            x       y       z     vdW  Elec       q    Type
                         _______ _______ _______ _____ _____    ______ ____

>  <TORSDO>
F 7

$$$$
=
 OpenBabel10272401223D

 55 61  0  0  1  0  0  0  0  0999 V2000
  187.2480  176.2130  136.1780 C   0  0  0  0  0  2  0  0  0  0  0  0
  190.2660  177.1940  141.3920 C   0  0  0  0  0  2  0  0  0  0  0  0
  188.5620  178.3680  139.9720 C   0  0  2  0  0  3  0  0  0  0  0  0
  186.3590  178.5760  141.8530 C   0  0  0  0  0  3  0  0  0  0  0  0
  185.3050  178.7540  142.7510 C   0  0  0  0  0  3  0  0  0  0  0  0
  184.7890  178.5660  140.0010 C   0  0  0  0  0  0  0  0  0  0  0  0
  183.7460  178.7730  140.9110 C   0  0  0  0  0  3  0  0  0  0  0  0
  189.4220  178.5830  138.7430 C   0  0  0  0  0  1  0  0  0  0  0  0
  184.0000  178.8630  142.2800 C   0  0  0  0  0  3  0  0  0  0  0  0
  188.8920  174.8790  134.8500 C   0  0  0  0  0  3  0  0  0  0  0  0
  186.1220  178.4890  140.4760 C   0  0  0  0  0  0  0  0  0  0  0  0
  190.8080  175.1190  136.8790 C   0  0  0  0  0  0  0  0  0  0  0  0
  186.5540  175.6800  137.4220 C   0  0  0  0  0  2  0  0  0  0  0  0
  189.5500  175.7070  137.0300 C   0  0  0  0  0  3  0  0  0  0  0  0
  185.2870  177.8980  137.6480 C   0  0  0  0  0  2  0  0  0  0  0  0
  192.2740  177.5260  140.2220 C   0  0  0  0  0  2  0  0  0  0  0  0
  184.4480  178.4700  138.6420 O   0  0  0  0  0  0  0  0  0  0  0  0
  191.3160  176.5140  140.6490 N   0  0  0  0  0  2  0  0  0  0  0  0
  188.9390  177.0650  140.6570 C   0  0  0  0  0  2  0  0  0  0  0  0
  190.1550  174.3040  134.6930 C   0  0  0  0  0  3  0  0  0  0  0  0
  193.2280  176.9820  139.1520 C   0  0  2  0  0  3  0  0  0  0  0  0
  188.5870  175.5800  136.0220 C   0  0  0  0  0  0  0  0  0  0  0  0
  187.1910  178.3430  139.5790 O   0  0  0  0  0  0  0  0  0  0  0  0
  185.2180  176.3750  137.7280 C   0  0  1  0  0  3  0  0  0  0  0  0
  192.5590  176.5690  137.8400 C   0  0  0  0  0  2  0  0  0  0  0  0
  191.8120  175.2460  137.9660 C   0  0  0  0  0  2  0  0  0  0  0  0
  191.1150  174.4240  135.7060 C   0  0  0  0  0  3  0  0  0  0  0  0
  182.9900  175.5580  137.9800 C   0  0  0  0  0  2  0  0  0  0  0  0
  181.9690  174.7440  135.8610 N   0  0  0  0  0  0  0  0  0  0  0  0
  184.4010  174.6150  136.2750 C   0  0  0  0  0  2  0  0  0  0  0  0
  183.1550  173.8940  135.7500 C   0  0  0  0  0  2  0  0  0  0  0  0
  181.7200  175.0610  137.2760 C   0  0  0  0  0  2  0  0  0  0  0  0
  184.0530  175.8380  137.0100 N   0  0  0  0  0  0  0  0  0  0  0  0
  180.8260  174.0440  135.2680 C   0  0  0  0  0  3  0  0  0  0  0  0
  181.2730  172.7840  134.5440 C   0  0  0  0  0  1  0  0  0  0  0  0
  179.9830  174.9160  134.3460 C   0  0  0  0  0  1  0  0  0  0  0  0
  194.3180  176.0390  139.6660 C   0  0  0  0  0  2  0  0  0  0  0  0
  195.0280  175.2690  138.5630 C   0  0  0  0  0  2  0  0  0  0  0  0
  195.3490  173.8560  139.0310 C   0  0  0  0  0  2  0  0  0  0  0  0
  197.9720  173.3380  136.3590 C   0  0  2  0  0  3  0  0  0  0  0  0
  193.9700  173.2300  136.8350 F   0  0  0  0  0  0  0  0  0  0  0  0
  195.3190  173.0630  136.5780 C   0  0  2  0  0  0  0  0  0  0  0  0
  195.4220  171.8410  135.8430 O   0  0  0  0  0  0  0  0  0  0  0  0
  196.0690  173.0670  137.9370 C   0  0  1  0  0  3  0  0  0  0  0  0
  197.6080  175.4360  135.0700 C   0  0  0  0  0  1  0  0  0  0  0  0
  197.9930  171.8390  136.0900 C   0  0  0  0  0  2  0  0  0  0  0  0
  196.7810  170.6040  134.3910 C   0  0  0  0  0  1  0  0  0  0  0  0
  196.6530  171.1050  135.8140 C   0  0  2  0  0  0  0  0  0  0  0  0
  197.4890  173.5990  137.7720 C   0  0  0  0  0  2  0  0  0  0  0  0
  195.7160  174.1590  135.7710 O   0  0  0  0  0  0  0  0  0  0  0  0
  197.0660  174.0490  135.3510 C   0  0  2  0  0  3  0  0  0  0  0  0
  195.3800  169.6410  137.6430 C   0  0  0  0  0  1  0  0  0  0  0  0
  196.5760  169.8520  136.7230 C   0  0  0  0  0  0  0  0  0  0  0  0
  197.8700  169.2110  137.1870 C   0  0  0  0  0  2  0  0  0  0  0  0
  197.0370  168.5560  136.0950 C   0  0  0  0  0  2  0  0  0  0  0  0
  1 13  1  0  0  0  0
  3  8  1  6  0  0  0
  3 19  1  0  0  0  0
  4  5  1  0  0  0  0
  6 11  1  0  0  0  0
  6  7  2  0  0  0  0
  7  9  1  0  0  0  0
  9  5  2  0  0  0  0
 10 22  1  0  0  0  0
 11  4  2  0  0  0  0
 12 14  1  0  0  0  0
 12 26  1  0  0  0  0
 13 24  1  0  0  0  0
 15 24  1  0  0  0  0
 15 17  1  0  0  0  0
 16 18  1  0  0  0  0
 17  6  1  0  0  0  0
 18  2  1  0  0  0  0
 19  2  1  0  0  0  0
 20 10  2  0  0  0  0
 20 27  1  0  0  0  0
 21 37  1  1  0  0  0
 21 16  1  0  0  0  0
 22  1  1  0  0  0  0
 22 14  2  0  0  0  0
 23  3  1  0  0  0  0
 23 11  1  0  0  0  0
 24 33  1  6  0  0  0
 25 26  1  0  0  0  0
 25 21  1  0  0  0  0
 27 12  2  0  0  0  0
 29 32  1  0  0  0  0
 30 33  1  0  0  0  0
 31 29  1  0  0  0  0
 31 30  1  0  0  0  0
 32 28  1  0  0  0  0
 33 28  1  0  0  0  0
 34 29  1  0  0  0  0
 35 34  1  0  0  0  0
 36 34  1  0  0  0  0
 38 39  1  0  0  0  0
 38 37  1  0  0  0  0
 40 46  1  6  0  0  0
 40 49  1  0  0  0  0
 42 41  1  1  0  0  0
 42 44  1  0  0  0  0
 43 42  1  0  0  0  0
 44 39  1  1  0  0  0
 48 47  1  6  0  0  0
 48 43  1  0  0  0  0
 48 46  1  0  0  0  0
 48 53  1  0  0  0  0
 49 44  1  0  0  0  0
 50 42  1  0  0  0  0
 51 45  1  1  0  0  0
 51 50  1  0  0  0  0
 51 40  1  0  0  0  0
 53 54  1  0  0  0  0
 53 52  1  0  0  0  0
 55 53  1  0  0  0  0
 55 54  1  0  0  0  0
M  END
>  <MODEL>
2

>  <REMARK>
 VINA RESULT:      -5.9      3.207     12.790
  Name = 
  7 active torsions:
  status: ('A' for Active; 'I' for Inactive)
    1  A    between atoms: C_7  and  C_20
    2  A    between atoms: C_7  and  C_22
    3  A    between atoms: C_8  and  C_22
    4  A    between atoms: C_8  and  C_43
    5  A    between atoms: C_10  and  N_32
    6  A    between atoms: C_12  and  C_38
    7  A    between atoms: C_49  and  N_52
                            x       y       z     vdW  Elec       q    Type
                         _______ _______ _______ _____ _____    ______ ____

>  <TORSDO>
F 7

$$$$
=
 OpenBabel10272401223D

 55 61  0  0  1  0  0  0  0  0999 V2000
  188.8510  178.3600  140.8360 C   0  0  0  0  0  2  0  0  0  0  0  0
  188.6390  175.6820  135.3550 C   0  0  0  0  0  2  0  0  0  0  0  0
  190.2490  177.0610  136.6980 C   0  0  2  0  0  3  0  0  0  0  0  0
  192.4840  175.2170  136.8980 C   0  0  0  0  0  3  0  0  0  0  0  0
  193.6020  174.3830  136.9560 C   0  0  0  0  0  3  0  0  0  0  0  0
  193.1370  176.2500  138.9960 C   0  0  0  0  0  0  0  0  0  0  0  0
  194.2680  175.4270  139.0260 C   0  0  0  0  0  3  0  0  0  0  0  0
  189.4340  178.3370  136.7640 C   0  0  0  0  0  1  0  0  0  0  0  0
  194.4990  174.4940  138.0140 C   0  0  0  0  0  3  0  0  0  0  0  0
  186.4600  178.9730  141.2260 C   0  0  0  0  0  3  0  0  0  0  0  0
  192.2390  176.1610  137.9030 C   0  0  0  0  0  0  0  0  0  0  0  0
  185.7470  178.0250  138.6880 C   0  0  0  0  0  0  0  0  0  0  0  0
  189.3500  176.9220  140.8120 C   0  0  0  0  0  2  0  0  0  0  0  0
  187.0750  177.9590  139.1130 C   0  0  0  0  0  3  0  0  0  0  0  0
  191.7320  177.7700  140.3920 C   0  0  0  0  0  2  0  0  0  0  0  0
  187.0740  177.2590  134.5940 C   0  0  0  0  0  2  0  0  0  0  0  0
  192.9670  177.1500  140.0600 O   0  0  0  0  0  0  0  0  0  0  0  0
  187.2480  176.0970  135.4560 N   0  0  0  0  0  2  0  0  0  0  0  0
  189.3320  175.8490  136.6990 C   0  0  0  0  0  2  0  0  0  0  0  0
  185.1330  179.0530  140.7950 C   0  0  0  0  0  3  0  0  0  0  0  0
  185.7530  177.9810  134.8820 C   0  0  2  0  0  3  0  0  0  0  0  0
  187.4330  178.4220  140.3840 C   0  0  0  0  0  0  0  0  0  0  0  0
  191.1310  177.0170  137.8190 O   0  0  0  0  0  0  0  0  0  0  0  0
  190.8430  176.7830  141.1430 C   0  0  1  0  0  3  0  0  0  0  0  0
  185.6350  178.5780  136.2850 C   0  0  0  0  0  2  0  0  0  0  0  0
  185.3800  177.5110  137.3440 C   0  0  0  0  0  2  0  0  0  0  0  0
  184.7750  178.5810  139.5260 C   0  0  0  0  0  3  0  0  0  0  0  0
  189.9710  176.3120  143.3140 C   0  0  0  0  0  2  0  0  0  0  0  0
  191.5830  176.7350  145.1620 N   0  0  0  0  0  0  0  0  0  0  0  0
  191.6290  178.0370  143.0630 C   0  0  0  0  0  2  0  0  0  0  0  0
  191.7080  178.0780  144.5920 C   0  0  0  0  0  2  0  0  0  0  0  0
  190.2700  176.1720  144.8130 C   0  0  0  0  0  2  0  0  0  0  0  0
  191.1660  176.7310  142.5760 N   0  0  0  0  0  0  0  0  0  0  0  0
  191.7520  176.8190  146.6160 C   0  0  0  0  0  3  0  0  0  0  0  0
  192.3380  175.5320  147.1730 C   0  0  0  0  0  1  0  0  0  0  0  0
  190.4770  177.1890  147.3620 C   0  0  0  0  0  1  0  0  0  0  0  0
  184.4970  177.2870  134.3500 C   0  0  0  0  0  2  0  0  0  0  0  0
  183.8310  176.3700  135.3640 C   0  0  0  0  0  2  0  0  0  0  0  0
  184.1470  174.9150  135.0450 C   0  0  0  0  0  2  0  0  0  0  0  0
  180.5040  174.1560  135.7110 C   0  0  2  0  0  3  0  0  0  0  0  0
  184.1160  173.7930  137.4650 F   0  0  0  0  0  0  0  0  0  0  0  0
  182.8520  173.6990  136.9130 C   0  0  2  0  0  0  0  0  0  0  0  0
  182.3960  172.3790  137.2190 O   0  0  0  0  0  0  0  0  0  0  0  0
  182.9670  174.0080  135.3960 C   0  0  1  0  0  3  0  0  0  0  0  0
  180.0480  175.9530  137.3730 C   0  0  0  0  0  1  0  0  0  0  0  0
  180.3790  172.6400  135.6250 C   0  0  0  0  0  2  0  0  0  0  0  0
  180.4970  171.0240  137.4300 C   0  0  0  0  0  1  0  0  0  0  0  0
  181.3690  171.7570  136.4330 C   0  0  2  0  0  0  0  0  0  0  0  0
  181.6740  174.6220  134.8670 C   0  0  0  0  0  2  0  0  0  0  0  0
  182.0490  174.6640  137.5720 O   0  0  0  0  0  0  0  0  0  0  0  0
  180.6920  174.5970  137.1650 C   0  0  2  0  0  3  0  0  0  0  0  0
  181.1290  169.4820  135.0640 C   0  0  0  0  0  1  0  0  0  0  0  0
  181.9640  170.6840  135.4860 C   0  0  0  0  0  0  0  0  0  0  0  0
  183.4640  170.4600  135.4960 C   0  0  0  0  0  2  0  0  0  0  0  0
  182.8080  171.2110  134.3460 C   0  0  0  0  0  2  0  0  0  0  0  0
  2 18  1  0  0  0  0
  2 19  1  0  0  0  0
  3 19  1  0  0  0  0
  3  8  1  1  0  0  0
  3 23  1  0  0  0  0
  4  5  2  0  0  0  0
  4 11  1  0  0  0  0
  5  9  1  0  0  0  0
  6  7  1  0  0  0  0
  6 17  1  0  0  0  0
  9  7  2  0  0  0  0
 11  6  2  0  0  0  0
 12 14  2  0  0  0  0
 12 27  1  0  0  0  0
 13  1  1  0  0  0  0
 13 24  1  0  0  0  0
 14 22  1  0  0  0  0
 16 21  1  0  0  0  0
 16 18  1  0  0  0  0
 17 15  1  0  0  0  0
 20 10  1  0  0  0  0
 21 37  1  1  0  0  0
 21 25  1  0  0  0  0
 22  1  1  0  0  0  0
 22 10  2  0  0  0  0
 23 11  1  0  0  0  0
 24 15  1  1  0  0  0
 24 33  1  0  0  0  0
 25 26  1  0  0  0  0
 26 12  1  0  0  0  0
 27 20  2  0  0  0  0
 28 32  1  0  0  0  0
 29 34  1  0  0  0  0
 30 31  1  0  0  0  0
 31 29  1  0  0  0  0
 32 29  1  0  0  0  0
 33 30  1  0  0  0  0
 33 28  1  0  0  0  0
 34 35  1  0  0  0  0
 34 36  1  0  0  0  0
 37 38  1  0  0  0  0
 39 38  1  0  0  0  0
 40 49  1  6  0  0  0
 40 51  1  0  0  0  0
 42 43  1  0  0  0  0
 42 41  1  1  0  0  0
 42 50  1  0  0  0  0
 44 39  1  1  0  0  0
 44 42  1  0  0  0  0
 46 40  1  0  0  0  0
 46 48  1  0  0  0  0
 48 43  1  0  0  0  0
 48 47  1  1  0  0  0
 49 44  1  0  0  0  0
 51 45  1  6  0  0  0
 51 50  1  0  0  0  0
 52 53  1  0  0  0  0
 53 54  1  0  0  0  0
 53 48  1  0  0  0  0
 55 53  1  0  0  0  0
 55 54  1  0  0  0  0
M  END
>  <MODEL>
3

>  <REMARK>
 VINA RESULT:      -5.8      3.981      6.398
  Name = 
  7 active torsions:
  status: ('A' for Active; 'I' for Inactive)
    1  A    between atoms: C_7  and  C_20
    2  A    between atoms: C_7  and  C_22
    3  A    between atoms: C_8  and  C_22
    4  A    between atoms: C_8  and  C_43
    5  A    between atoms: C_10  and  N_32
    6  A    between atoms: C_12  and  C_38
    7  A    between atoms: C_49  and  N_52
                            x       y       z     vdW  Elec       q    Type
                         _______ _______ _______ _____ _____    ______ ____

>  <TORSDO>
F 7

$$$$
=
 OpenBabel10272401223D

 55 61  0  0  1  0  0  0  0  0999 V2000
  186.5880  173.3820  135.0950 C   0  0  0  0  0  2  0  0  0  0  0  0
  187.4970  177.8160  139.1890 C   0  0  0  0  0  2  0  0  0  0  0  0
  186.2320  177.4840  137.0480 C   0  0  2  0  0  3  0  0  0  0  0  0
  183.5150  177.9580  137.9590 C   0  0  0  0  0  3  0  0  0  0  0  0
  182.2060  178.2470  138.3470 C   0  0  0  0  0  3  0  0  0  0  0  0
  182.6820  176.4990  136.2060 C   0  0  0  0  0  0  0  0  0  0  0  0
  181.3750  176.8200  136.5880 C   0  0  0  0  0  3  0  0  0  0  0  0
  187.4200  177.2750  136.1290 C   0  0  0  0  0  1  0  0  0  0  0  0
  181.1360  177.6860  137.6560 C   0  0  0  0  0  3  0  0  0  0  0  0
  188.7490  172.1300  135.1720 C   0  0  0  0  0  3  0  0  0  0  0  0
  183.7730  177.0950  136.8870 C   0  0  0  0  0  0  0  0  0  0  0  0
  189.8130  173.9710  136.9950 C   0  0  0  0  0  0  0  0  0  0  0  0
  185.5920  173.3960  136.2460 C   0  0  0  0  0  2  0  0  0  0  0  0
  188.5110  174.1310  136.5160 C   0  0  0  0  0  3  0  0  0  0  0  0
  184.0350  174.8890  134.8600 C   0  0  0  0  0  2  0  0  0  0  0  0
  189.7180  178.0840  138.4750 C   0  0  0  0  0  2  0  0  0  0  0  0
  182.8390  175.6070  135.1330 O   0  0  0  0  0  0  0  0  0  0  0  0
  188.8190  177.2090  139.2180 N   0  0  0  0  0  2  0  0  0  0  0  0
  186.5280  176.9220  138.4280 C   0  0  0  0  0  2  0  0  0  0  0  0
  190.0570  171.9780  135.6390 C   0  0  0  0  0  3  0  0  0  0  0  0
  191.0420  177.3840  138.1500 C   0  0  2  0  0  3  0  0  0  0  0  0
  187.9730  173.2080  135.6130 C   0  0  0  0  0  0  0  0  0  0  0  0
  185.0920  176.8370  136.4830 O   0  0  0  0  0  0  0  0  0  0  0  0
  184.1500  173.6990  135.8090 C   0  0  1  0  0  3  0  0  0  0  0  0
  190.9200  176.1640  137.2360 C   0  0  0  0  0  2  0  0  0  0  0  0
  190.3620  174.9490  137.9690 C   0  0  0  0  0  2  0  0  0  0  0  0
  190.5910  172.8980  136.5500 C   0  0  0  0  0  3  0  0  0  0  0  0
  182.0080  172.6480  135.8340 C   0  0  0  0  0  2  0  0  0  0  0  0
  181.9490  170.4500  134.6670 N   0  0  0  0  0  0  0  0  0  0  0  0
  183.9870  171.2800  135.7910 C   0  0  0  0  0  2  0  0  0  0  0  0
  183.0620  170.0840  135.5440 C   0  0  0  0  0  2  0  0  0  0  0  0
  181.1390  171.4970  135.3090 C   0  0  0  0  0  2  0  0  0  0  0  0
  183.3820  172.5390  135.3350 N   0  0  0  0  0  0  0  0  0  0  0  0
  181.1470  169.2550  134.3930 C   0  0  0  0  0  3  0  0  0  0  0  0
  180.0030  169.1240  135.3860 C   0  0  0  0  0  1  0  0  0  0  0  0
  181.9600  167.9680  134.3460 C   0  0  0  0  0  1  0  0  0  0  0  0
  192.0110  177.2370  139.3250 C   0  0  0  0  0  2  0  0  0  0  0  0
  191.6450  178.0900  140.5290 C   0  0  0  0  0  2  0  0  0  0  0  0
  191.9830  177.3540  141.8180 C   0  0  0  0  0  2  0  0  0  0  0  0
  190.6660  178.0360  145.2950 C   0  0  2  0  0  3  0  0  0  0  0  0
  190.4020  175.2770  142.3660 F   0  0  0  0  0  0  0  0  0  0  0  0
  190.2670  176.2190  143.3700 C   0  0  2  0  0  0  0  0  0  0  0  0
  188.8670  176.2830  143.6510 O   0  0  0  0  0  0  0  0  0  0  0  0
  190.8870  177.5490  142.8650 C   0  0  1  0  0  3  0  0  0  0  0  0
  192.0210  176.3600  146.5400 C   0  0  0  0  0  1  0  0  0  0  0  0
  189.1940  178.3870  145.1140 C   0  0  0  0  0  2  0  0  0  0  0  0
  187.2750  176.9110  145.2510 C   0  0  0  0  0  1  0  0  0  0  0  0
  188.2950  177.4450  144.2680 C   0  0  2  0  0  0  0  0  0  0  0  0
  191.4310  178.3710  144.0300 C   0  0  0  0  0  2  0  0  0  0  0  0
  190.9740  175.7180  144.4920 O   0  0  0  0  0  0  0  0  0  0  0  0
  190.8240  176.5510  145.6310 C   0  0  2  0  0  3  0  0  0  0  0  0
  188.2650  179.1650  142.2310 C   0  0  0  0  0  1  0  0  0  0  0  0
  187.5160  178.2980  143.2350 C   0  0  0  0  0  0  0  0  0  0  0  0
  186.1230  178.7810  143.5950 C   0  0  0  0  0  2  0  0  0  0  0  0
  186.3080  177.6330  142.6120 C   0  0  0  0  0  2  0  0  0  0  0  0
  1 22  1  0  0  0  0
  1 13  1  0  0  0  0
  2 18  1  0  0  0  0
  3  8  1  6  0  0  0
  3 19  1  0  0  0  0
  4  5  1  0  0  0  0
  6  7  2  0  0  0  0
  6 11  1  0  0  0  0
  7  9  1  0  0  0  0
  9  5  2  0  0  0  0
 10 22  2  0  0  0  0
 10 20  1  0  0  0  0
 11  4  2  0  0  0  0
 12 26  1  0  0  0  0
 14 12  2  0  0  0  0
 15 17  1  0  0  0  0
 16 18  1  0  0  0  0
 17  6  1  0  0  0  0
 19  2  1  0  0  0  0
 20 27  2  0  0  0  0
 21 16  1  0  0  0  0
 21 37  1  1  0  0  0
 22 14  1  0  0  0  0
 23 11  1  0  0  0  0
 23  3  1  0  0  0  0
 24 15  1  6  0  0  0
 24 13  1  0  0  0  0
 25 26  1  0  0  0  0
 25 21  1  0  0  0  0
 27 12  1  0  0  0  0
 29 32  1  0  0  0  0
 29 31  1  0  0  0  0
 31 30  1  0  0  0  0
 32 28  1  0  0  0  0
 33 30  1  0  0  0  0
 33 24  1  0  0  0  0
 33 28  1  0  0  0  0
 34 29  1  0  0  0  0
 34 35  1  0  0  0  0
 36 34  1  0  0  0  0
 37 38  1  0  0  0  0
 38 39  1  0  0  0  0
 40 49  1  6  0  0  0
 40 51  1  0  0  0  0
 42 41  1  6  0  0  0
 42 43  1  0  0  0  0
 42 50  1  0  0  0  0
 43 48  1  0  0  0  0
 44 39  1  6  0  0  0
 44 42  1  0  0  0  0
 44 49  1  0  0  0  0
 46 40  1  0  0  0  0
 48 46  1  0  0  0  0
 48 47  1  1  0  0  0
 50 51  1  0  0  0  0
 51 45  1  1  0  0  0
 52 53  1  0  0  0  0
 53 54  1  0  0  0  0
 53 48  1  0  0  0  0
 55 53  1  0  0  0  0
 55 54  1  0  0  0  0
M  END
>  <MODEL>
4

>  <REMARK>
 VINA RESULT:      -5.4      4.095     10.354
  Name = 
  7 active torsions:
  status: ('A' for Active; 'I' for Inactive)
    1  A    between atoms: C_7  and  C_20
    2  A    between atoms: C_7  and  C_22
    3  A    between atoms: C_8  and  C_22
    4  A    between atoms: C_8  and  C_43
    5  A    between atoms: C_10  and  N_32
    6  A    between atoms: C_12  and  C_38
    7  A    between atoms: C_49  and  N_52
                            x       y       z     vdW  Elec       q    Type
                         _______ _______ _______ _____ _____    ______ ____

>  <TORSDO>
F 7

$$$$
=
 OpenBabel10272401223D

 55 61  0  0  1  0  0  0  0  0999 V2000
  189.4350  178.3010  141.0140 C   0  0  0  0  0  2  0  0  0  0  0  0
  189.5430  175.3200  135.6880 C   0  0  0  0  0  2  0  0  0  0  0  0
  191.0750  176.7710  137.0470 C   0  0  2  0  0  3  0  0  0  0  0  0
  193.2860  174.9400  137.4860 C   0  0  0  0  0  3  0  0  0  0  0  0
  194.3950  174.1100  137.6570 C   0  0  0  0  0  3  0  0  0  0  0  0
  193.8150  176.0890  139.5580 C   0  0  0  0  0  0  0  0  0  0  0  0
  194.9390  175.2680  139.7020 C   0  0  0  0  0  3  0  0  0  0  0  0
  190.2620  178.0490  136.9920 C   0  0  0  0  0  1  0  0  0  0  0  0
  195.2270  174.2800  138.7600 C   0  0  0  0  0  3  0  0  0  0  0  0
  187.0270  178.9370  141.2230 C   0  0  0  0  0  3  0  0  0  0  0  0
  192.9850  175.9400  138.4190 C   0  0  0  0  0  0  0  0  0  0  0  0
  186.4640  177.8480  138.7050 C   0  0  0  0  0  0  0  0  0  0  0  0
  189.9280  176.8640  141.1010 C   0  0  0  0  0  2  0  0  0  0  0  0
  187.7650  177.8060  139.2120 C   0  0  0  0  0  3  0  0  0  0  0  0
  192.3350  177.6860  140.7780 C   0  0  0  0  0  2  0  0  0  0  0  0
  188.0340  176.8530  134.7470 C   0  0  0  0  0  2  0  0  0  0  0  0
  193.5850  177.0480  140.5580 O   0  0  0  0  0  0  0  0  0  0  0  0
  188.1500  175.7410  135.6820 N   0  0  0  0  0  2  0  0  0  0  0  0
  190.1550  175.5610  137.0610 C   0  0  0  0  0  2  0  0  0  0  0  0
  185.7290  178.9940  140.7090 C   0  0  0  0  0  3  0  0  0  0  0  0
  186.7000  177.5910  134.9140 C   0  0  2  0  0  3  0  0  0  0  0  0
  188.0470  178.3400  140.4750 C   0  0  0  0  0  0  0  0  0  0  0  0
  191.8870  176.7900  138.2200 O   0  0  0  0  0  0  0  0  0  0  0  0
  191.3980  176.7430  141.5290 C   0  0  1  0  0  3  0  0  0  0  0  0
  186.5010  178.2650  136.2710 C   0  0  0  0  0  2  0  0  0  0  0  0
  186.1780  177.2600  137.3720 C   0  0  0  0  0  2  0  0  0  0  0  0
  185.4460  178.4510  139.4500 C   0  0  0  0  0  3  0  0  0  0  0  0
  191.4700  175.4150  143.5110 C   0  0  0  0  0  2  0  0  0  0  0  0
  191.8950  176.7220  145.5860 N   0  0  0  0  0  0  0  0  0  0  0  0
  190.7060  177.6920  143.6500 C   0  0  0  0  0  2  0  0  0  0  0  0
  190.7490  177.5330  145.1730 C   0  0  0  0  0  2  0  0  0  0  0  0
  191.7750  175.3710  145.0140 C   0  0  0  0  0  2  0  0  0  0  0  0
  191.6340  176.7710  142.9790 N   0  0  0  0  0  0  0  0  0  0  0  0
  191.9400  176.6740  147.0500 C   0  0  0  0  0  3  0  0  0  0  0  0
  192.3520  175.2940  147.5390 C   0  0  0  0  0  1  0  0  0  0  0  0
  190.6420  177.1090  147.7180 C   0  0  0  0  0  1  0  0  0  0  0  0
  185.4760  176.8690  134.3470 C   0  0  0  0  0  2  0  0  0  0  0  0
  184.9400  175.7720  135.2540 C   0  0  0  0  0  2  0  0  0  0  0  0
  183.4210  175.7170  135.1710 C   0  0  0  0  0  2  0  0  0  0  0  0
  182.3110  174.3930  138.5340 C   0  0  2  0  0  3  0  0  0  0  0  0
  180.8270  176.3210  135.3180 F   0  0  0  0  0  0  0  0  0  0  0  0
  181.2400  175.8250  136.5410 C   0  0  2  0  0  0  0  0  0  0  0  0
  180.6300  176.6660  137.5230 O   0  0  0  0  0  0  0  0  0  0  0  0
  182.7920  175.8290  136.5600 C   0  0  1  0  0  3  0  0  0  0  0  0
  181.0260  172.4120  137.7470 C   0  0  0  0  0  1  0  0  0  0  0  0
  182.0690  175.6240  139.3990 C   0  0  0  0  0  2  0  0  0  0  0  0
  179.9840  176.8060  139.7700 C   0  0  0  0  0  1  0  0  0  0  0  0
  181.1810  176.7700  138.8440 C   0  0  2  0  0  0  0  0  0  0  0  0
  183.3280  174.7160  137.4570 C   0  0  0  0  0  2  0  0  0  0  0  0
  180.7310  174.5050  136.6360 O   0  0  0  0  0  0  0  0  0  0  0  0
  181.0010  173.9190  137.8990 C   0  0  2  0  0  3  0  0  0  0  0  0
  182.6700  178.7520  137.8610 C   0  0  0  0  0  1  0  0  0  0  0  0
  181.9310  178.1140  139.0300 C   0  0  0  0  0  0  0  0  0  0  0  0
  182.4750  178.4570  140.4040 C   0  0  0  0  0  2  0  0  0  0  0  0
  181.2240  179.1480  139.8800 C   0  0  0  0  0  2  0  0  0  0  0  0
  1 13  1  0  0  0  0
  2 19  1  0  0  0  0
  3  8  1  1  0  0  0
  3 19  1  0  0  0  0
  3 23  1  0  0  0  0
  4  5  2  0  0  0  0
  4 11  1  0  0  0  0
  5  9  1  0  0  0  0
  6  7  1  0  0  0  0
  6 17  1  0  0  0  0
  9  7  2  0  0  0  0
 11  6  2  0  0  0  0
 12 14  2  0  0  0  0
 12 27  1  0  0  0  0
 13 24  1  0  0  0  0
 14 22  1  0  0  0  0
 16 21  1  0  0  0  0
 16 18  1  0  0  0  0
 17 15  1  0  0  0  0
 18  2  1  0  0  0  0
 20 10  1  0  0  0  0
 21 37  1  1  0  0  0
 21 25  1  0  0  0  0
 22  1  1  0  0  0  0
 22 10  2  0  0  0  0
 23 11  1  0  0  0  0
 24 15  1  6  0  0  0
 24 33  1  0  0  0  0
 25 26  1  0  0  0  0
 26 12  1  0  0  0  0
 27 20  2  0  0  0  0
 28 32  1  0  0  0  0
 29 34  1  0  0  0  0
 30 31  1  0  0  0  0
 31 29  1  0  0  0  0
 32 29  1  0  0  0  0
 33 28  1  0  0  0  0
 33 30  1  0  0  0  0
 34 35  1  0  0  0  0
 34 36  1  0  0  0  0
 37 38  1  0  0  0  0
 39 38  1  0  0  0  0
 40 49  1  6  0  0  0
 40 46  1  0  0  0  0
 42 41  1  6  0  0  0
 42 44  1  0  0  0  0
 42 50  1  0  0  0  0
 42 43  1  0  0  0  0
 43 48  1  0  0  0  0
 44 39  1  6  0  0  0
 44 49  1  0  0  0  0
 48 53  1  0  0  0  0
 48 46  1  0  0  0  0
 48 47  1  1  0  0  0
 50 51  1  0  0  0  0
 51 45  1  6  0  0  0
 51 40  1  0  0  0  0
 52 53  1  0  0  0  0
 53 55  1  0  0  0  0
 53 54  1  0  0  0  0
 55 54  1  0  0  0  0
M  END
>  <MODEL>
5

>  <REMARK>
 VINA RESULT:      -4.8      3.706      5.440
  Name = 
  7 active torsions:
  status: ('A' for Active; 'I' for Inactive)
    1  A    between atoms: C_7  and  C_20
    2  A    between atoms: C_7  and  C_22
    3  A    between atoms: C_8  and  C_22
    4  A    between atoms: C_8  and  C_43
    5  A    between atoms: C_10  and  N_32
    6  A    between atoms: C_12  and  C_38
    7  A    between atoms: C_49  and  N_52
                            x       y       z     vdW  Elec       q    Type
                         _______ _______ _______ _____ _____    ______ ____

>  <TORSDO>
F 7

$$$$
=
 OpenBabel10272401223D

 55 61  0  0  1  0  0  0  0  0999 V2000
  193.6260  173.7150  136.6210 C   0  0  0  0  0  2  0  0  0  0  0  0
  187.5700  173.7920  137.3780 C   0  0  0  0  0  2  0  0  0  0  0  0
  189.2210  173.1440  135.6030 C   0  0  2  0  0  3  0  0  0  0  0  0
  188.5920  170.3240  135.2990 C   0  0  0  0  0  3  0  0  0  0  0  0
  188.2700  168.9840  135.0790 C   0  0  0  0  0  3  0  0  0  0  0  0
  190.8770  169.8990  134.5990 C   0  0  0  0  0  0  0  0  0  0  0  0
  190.5330  168.5650  134.3560 C   0  0  0  0  0  3  0  0  0  0  0  0
  189.8010  174.5190  135.3390 C   0  0  0  0  0  1  0  0  0  0  0  0
  189.2370  168.1070  134.5980 C   0  0  0  0  0  3  0  0  0  0  0  0
  194.3620  175.6720  137.9890 C   0  0  0  0  0  3  0  0  0  0  0  0
  189.8860  170.8020  135.0570 C   0  0  0  0  0  0  0  0  0  0  0  0
  191.7040  176.3280  138.5800 C   0  0  0  0  0  0  0  0  0  0  0  0
  193.0460  172.4450  137.2270 C   0  0  0  0  0  2  0  0  0  0  0  0
  191.9910  175.2230  137.7750 C   0  0  0  0  0  3  0  0  0  0  0  0
  192.8180  171.4450  134.8770 C   0  0  0  0  0  2  0  0  0  0  0  0
  187.5390  176.1370  137.2640 C   0  0  0  0  0  2  0  0  0  0  0  0
  192.2060  170.2770  134.3460 O   0  0  0  0  0  0  0  0  0  0  0  0
  187.9030  175.0050  138.1080 N   0  0  0  0  0  2  0  0  0  0  0  0
  188.8360  173.0060  137.0660 C   0  0  0  0  0  2  0  0  0  0  0  0
  194.0750  176.7860  138.7820 C   0  0  0  0  0  3  0  0  0  0  0  0
  188.1530  177.4440  137.7780 C   0  0  2  0  0  3  0  0  0  0  0  0
  193.3180  174.8870  137.4860 C   0  0  0  0  0  0  0  0  0  0  0  0
  190.1910  172.1580  135.2500 O   0  0  0  0  0  0  0  0  0  0  0  0
  193.2090  171.2060  136.3330 C   0  0  1  0  0  3  0  0  0  0  0  0
  189.6820  177.4870  137.7660 C   0  0  0  0  0  2  0  0  0  0  0  0
  190.2910  176.6590  138.8930 C   0  0  0  0  0  2  0  0  0  0  0  0
  192.7460  177.1150  139.0770 C   0  0  0  0  0  3  0  0  0  0  0  0
  194.2510  169.0830  136.6580 C   0  0  0  0  0  2  0  0  0  0  0  0
  196.7320  169.1910  136.8120 N   0  0  0  0  0  0  0  0  0  0  0  0
  195.2930  171.0540  137.5620 C   0  0  0  0  0  2  0  0  0  0  0  0
  196.5090  170.1750  137.8730 C   0  0  0  0  0  2  0  0  0  0  0  0
  195.5680  168.2980  136.7160 C   0  0  0  0  0  2  0  0  0  0  0  0
  194.5000  170.5130  136.4500 N   0  0  0  0  0  0  0  0  0  0  0  0
  197.9530  168.4380  137.1130 C   0  0  0  0  0  3  0  0  0  0  0  0
  198.1140  168.2340  138.6110 C   0  0  0  0  0  1  0  0  0  0  0  0
  199.2150  169.0520  136.5220 C   0  0  0  0  0  1  0  0  0  0  0  0
  187.4840  178.0380  139.0190 C   0  0  0  0  0  2  0  0  0  0  0  0
  188.3730  178.0370  140.2530 C   0  0  0  0  0  2  0  0  0  0  0  0
  187.5400  177.7790  141.5010 C   0  0  0  0  0  2  0  0  0  0  0  0
  190.6910  178.5600  143.4390 C   0  0  2  0  0  3  0  0  0  0  0  0
  188.1730  175.4930  142.7220 F   0  0  0  0  0  0  0  0  0  0  0  0
  189.0080  176.4930  143.1850 C   0  0  2  0  0  0  0  0  0  0  0  0
  189.0980  176.2950  144.5980 O   0  0  0  0  0  0  0  0  0  0  0  0
  188.4020  177.8580  142.7610 C   0  0  1  0  0  3  0  0  0  0  0  0
  192.3230  177.3570  141.9940 C   0  0  0  0  0  1  0  0  0  0  0  0
  190.2770  178.5730  144.9050 C   0  0  0  0  0  2  0  0  0  0  0  0
  190.3780  176.7530  146.5050 C   0  0  0  0  0  1  0  0  0  0  0  0
  189.4670  177.3740  145.4680 C   0  0  2  0  0  0  0  0  0  0  0  0
  189.4990  178.9020  142.5670 C   0  0  0  0  0  2  0  0  0  0  0  0
  190.2700  176.2820  142.5750 O   0  0  0  0  0  0  0  0  0  0  0  0
  191.2510  177.1890  143.0530 C   0  0  2  0  0  3  0  0  0  0  0  0
  186.9470  178.2470  145.4790 C   0  0  0  0  0  1  0  0  0  0  0  0
  188.2330  177.9230  146.2290 C   0  0  0  0  0  0  0  0  0  0  0  0
  188.4590  178.7210  147.5000 C   0  0  0  0  0  2  0  0  0  0  0  0
  187.9540  177.2870  147.5730 C   0  0  0  0  0  2  0  0  0  0  0  0
  1 13  1  0  0  0  0
  1 22  1  0  0  0  0
  2 18  1  0  0  0  0
  3  8  1  1  0  0  0
  3 19  1  0  0  0  0
  5  4  1  0  0  0  0
  6 11  1  0  0  0  0
  7  9  1  0  0  0  0
  7  6  2  0  0  0  0
  9  5  2  0  0  0  0
 10 20  1  0  0  0  0
 11 23  1  0  0  0  0
 11  4  2  0  0  0  0
 12 26  1  0  0  0  0
 12 27  1  0  0  0  0
 14 12  2  0  0  0  0
 16 21  1  0  0  0  0
 16 18  1  0  0  0  0
 17  6  1  0  0  0  0
 17 15  1  0  0  0  0
 19  2  1  0  0  0  0
 20 27  2  0  0  0  0
 21 37  1  1  0  0  0
 22 14  1  0  0  0  0
 22 10  2  0  0  0  0
 23  3  1  0  0  0  0
 24 15  1  6  0  0  0
 24 33  1  0  0  0  0
 24 13  1  0  0  0  0
 25 21  1  0  0  0  0
 25 26  1  0  0  0  0
 28 32  1  0  0  0  0
 29 34  1  0  0  0  0
 29 31  1  0  0  0  0
 30 31  1  0  0  0  0
 32 29  1  0  0  0  0
 33 28  1  0  0  0  0
 33 30  1  0  0  0  0
 34 35  1  0  0  0  0
 36 34  1  0  0  0  0
 37 38  1  0  0  0  0
 38 39  1  0  0  0  0
 40 49  1  6  0  0  0
 40 46  1  0  0  0  0
 42 41  1  6  0  0  0
 42 43  1  0  0  0  0
 43 48  1  0  0  0  0
 44 39  1  6  0  0  0
 44 42  1  0  0  0  0
 46 48  1  0  0  0  0
 48 53  1  0  0  0  0
 48 47  1  1  0  0  0
 49 44  1  0  0  0  0
 50 51  1  0  0  0  0
 50 42  1  0  0  0  0
 51 45  1  6  0  0  0
 51 40  1  0  0  0  0
 52 53  1  0  0  0  0
 53 54  1  0  0  0  0
 53 55  1  0  0  0  0
 54 55  1  0  0  0  0
M  END
>  <MODEL>
6

>  <REMARK>
 VINA RESULT:      -4.6      4.014      6.345
  Name = 
  7 active torsions:
  status: ('A' for Active; 'I' for Inactive)
    1  A    between atoms: C_7  and  C_20
    2  A    between atoms: C_7  and  C_22
    3  A    between atoms: C_8  and  C_22
    4  A    between atoms: C_8  and  C_43
    5  A    between atoms: C_10  and  N_32
    6  A    between atoms: C_12  and  C_38
    7  A    between atoms: C_49  and  N_52
                            x       y       z     vdW  Elec       q    Type
                         _______ _______ _______ _____ _____    ______ ____

>  <TORSDO>
F 7

$$$$
=
 OpenBabel10272401223D

 55 61  0  0  1  0  0  0  0  0999 V2000
  186.9320  178.6330  142.6950 C   0  0  0  0  0  2  0  0  0  0  0  0
  186.0400  176.4080  137.0820 C   0  0  0  0  0  2  0  0  0  0  0  0
  187.6620  177.9210  138.2540 C   0  0  2  0  0  3  0  0  0  0  0  0
  190.1400  176.4640  137.8390 C   0  0  0  0  0  3  0  0  0  0  0  0
  191.3580  175.8250  137.6000 C   0  0  0  0  0  3  0  0  0  0  0  0
  191.0340  177.4190  139.8850 C   0  0  0  0  0  0  0  0  0  0  0  0
  192.2580  176.7950  139.6170 C   0  0  0  0  0  3  0  0  0  0  0  0
  186.6970  179.0350  138.6080 C   0  0  0  0  0  1  0  0  0  0  0  0
  192.4200  175.9990  138.4830 C   0  0  0  0  0  3  0  0  0  0  0  0
  184.6000  178.8070  143.5790 C   0  0  0  0  0  3  0  0  0  0  0  0
  189.9620  177.2710  138.9700 C   0  0  0  0  0  0  0  0  0  0  0  0
  183.5490  177.9610  141.1250 C   0  0  0  0  0  0  0  0  0  0  0  0
  187.6220  177.3050  142.4230 C   0  0  0  0  0  2  0  0  0  0  0  0
  184.9300  178.0830  141.2910 C   0  0  0  0  0  3  0  0  0  0  0  0
  189.7230  178.5680  141.6720 C   0  0  0  0  0  2  0  0  0  0  0  0
  184.1410  177.7590  136.7980 C   0  0  0  0  0  2  0  0  0  0  0  0
  190.9470  178.1900  141.0550 O   0  0  0  0  0  0  0  0  0  0  0  0
  184.6510  176.5760  137.4800 N   0  0  0  0  0  2  0  0  0  0  0  0
  186.9530  176.5780  138.2880 C   0  0  0  0  0  2  0  0  0  0  0  0
  183.2180  178.7010  143.4090 C   0  0  0  0  0  3  0  0  0  0  0  0
  182.8110  178.2260  137.3990 C   0  0  2  0  0  3  0  0  0  0  0  0
  185.4590  178.4960  142.5190 C   0  0  0  0  0  0  0  0  0  0  0  0
  188.7450  177.9350  139.1840 O   0  0  0  0  0  0  0  0  0  0  0  0
  189.1560  177.3890  142.4590 C   0  0  1  0  0  3  0  0  0  0  0  0
  182.8860  178.6800  138.8580 C   0  0  0  0  0  2  0  0  0  0  0  0
  183.0040  177.5040  139.8210 C   0  0  0  0  0  2  0  0  0  0  0  0
  182.6910  178.2790  142.1810 C   0  0  0  0  0  3  0  0  0  0  0  0
  190.6040  176.0790  143.8300 C   0  0  0  0  0  2  0  0  0  0  0  0
  190.7820  176.8930  146.1750 N   0  0  0  0  0  0  0  0  0  0  0  0
  188.7270  177.1980  144.8370 C   0  0  0  0  0  2  0  0  0  0  0  0
  189.3200  176.8080  146.1950 C   0  0  0  0  0  2  0  0  0  0  0  0
  191.3180  175.9490  145.1830 C   0  0  0  0  0  2  0  0  0  0  0  0
  189.7590  177.2760  143.7940 N   0  0  0  0  0  0  0  0  0  0  0  0
  191.2920  176.5960  147.5170 C   0  0  0  0  0  3  0  0  0  0  0  0
  191.5760  177.8750  148.2890 C   0  0  0  0  0  1  0  0  0  0  0  0
  192.5170  175.6900  147.5210 C   0  0  0  0  0  1  0  0  0  0  0  0
  181.5920  177.3780  137.0310 C   0  0  0  0  0  2  0  0  0  0  0  0
  181.8250  175.8820  137.1690 C   0  0  0  0  0  2  0  0  0  0  0  0
  181.2710  175.1490  135.9540 C   0  0  0  0  0  2  0  0  0  0  0  0
  181.9570  171.7960  134.3500 C   0  0  2  0  0  3  0  0  0  0  0  0
  182.1050  173.5960  137.9550 F   0  0  0  0  0  0  0  0  0  0  0  0
  182.2660  172.9130  136.7630 C   0  0  2  0  0  0  0  0  0  0  0  0
  183.5430  172.2760  136.8530 O   0  0  0  0  0  0  0  0  0  0  0  0
  182.1340  173.9370  135.6040 C   0  0  1  0  0  3  0  0  0  0  0  0
  179.9820  170.5570  135.2210 C   0  0  0  0  0  1  0  0  0  0  0  0
  183.4730  171.6450  134.3500 C   0  0  0  0  0  2  0  0  0  0  0  0
  184.8690  170.5450  136.0000 C   0  0  0  0  0  1  0  0  0  0  0  0
  184.2540  171.8880  135.6700 C   0  0  2  0  0  0  0  0  0  0  0  0
  181.5890  173.2660  134.3460 C   0  0  0  0  0  2  0  0  0  0  0  0
  181.2330  171.9430  136.7090 O   0  0  0  0  0  0  0  0  0  0  0  0
  181.3510  171.1020  135.5730 C   0  0  2  0  0  3  0  0  0  0  0  0
  185.1600  174.2350  134.7870 C   0  0  0  0  0  1  0  0  0  0  0  0
  185.4280  172.8590  135.3810 C   0  0  0  0  0  0  0  0  0  0  0  0
  186.7930  172.2740  135.0700 C   0  0  0  0  0  2  0  0  0  0  0  0
  186.5180  172.9010  136.4290 C   0  0  0  0  0  2  0  0  0  0  0  0
  2 18  1  0  0  0  0
  2 19  1  0  0  0  0
  3 19  1  0  0  0  0
  3  8  1  1  0  0  0
  3 23  1  0  0  0  0
  4 11  1  0  0  0  0
  5  4  2  0  0  0  0
  5  9  1  0  0  0  0
  6 17  1  0  0  0  0
  7  6  1  0  0  0  0
  9  7  2  0  0  0  0
 11 23  1  0  0  0  0
 11  6  2  0  0  0  0
 12 14  2  0  0  0  0
 12 27  1  0  0  0  0
 13 24  1  0  0  0  0
 13  1  1  0  0  0  0
 14 22  1  0  0  0  0
 16 21  1  0  0  0  0
 16 18  1  0  0  0  0
 17 15  1  0  0  0  0
 20 10  1  0  0  0  0
 21 37  1  1  0  0  0
 21 25  1  0  0  0  0
 22  1  1  0  0  0  0
 22 10  2  0  0  0  0
 24 15  1  1  0  0  0
 24 33  1  0  0  0  0
 25 26  1  0  0  0  0
 26 12  1  0  0  0  0
 27 20  2  0  0  0  0
 28 32  1  0  0  0  0
 29 31  1  0  0  0  0
 29 34  1  0  0  0  0
 30 31  1  0  0  0  0
 32 29  1  0  0  0  0
 33 28  1  0  0  0  0
 33 30  1  0  0  0  0
 34 36  1  0  0  0  0
 34 35  1  0  0  0  0
 37 38  1  0  0  0  0
 39 38  1  0  0  0  0
 40 49  1  1  0  0  0
 40 46  1  0  0  0  0
 40 51  1  0  0  0  0
 42 43  1  0  0  0  0
 42 41  1  1  0  0  0
 44 39  1  1  0  0  0
 44 42  1  0  0  0  0
 46 48  1  0  0  0  0
 48 47  1  1  0  0  0
 48 43  1  0  0  0  0
 49 44  1  0  0  0  0
 50 42  1  0  0  0  0
 51 45  1  6  0  0  0
 51 50  1  0  0  0  0
 52 53  1  0  0  0  0
 53 48  1  0  0  0  0
 53 55  1  0  0  0  0
 54 53  1  0  0  0  0
 54 55  1  0  0  0  0
M  END
>  <MODEL>
7

>  <REMARK>
 VINA RESULT:      -4.3      4.232      7.759
  Name = 
  7 active torsions:
  status: ('A' for Active; 'I' for Inactive)
    1  A    between atoms: C_7  and  C_20
    2  A    between atoms: C_7  and  C_22
    3  A    between atoms: C_8  and  C_22
    4  A    between atoms: C_8  and  C_43
    5  A    between atoms: C_10  and  N_32
    6  A    between atoms: C_12  and  C_38
    7  A    between atoms: C_49  and  N_52
                            x       y       z     vdW  Elec       q    Type
                         _______ _______ _______ _____ _____    ______ ____

>  <TORSDO>
F 7

$$$$
=
 OpenBabel10272401223D

 55 61  0  0  1  0  0  0  0  0999 V2000
  186.8890  173.9480  135.3040 C   0  0  0  0  0  2  0  0  0  0  0  0
  189.8830  177.2440  139.4790 C   0  0  0  0  0  2  0  0  0  0  0  0
  188.1160  177.6030  137.7340 C   0  0  2  0  0  3  0  0  0  0  0  0
  185.9160  178.5230  139.3910 C   0  0  0  0  0  3  0  0  0  0  0  0
  184.8600  179.0330  140.1480 C   0  0  0  0  0  3  0  0  0  0  0  0
  184.3370  177.6350  137.7730 C   0  0  0  0  0  0  0  0  0  0  0  0
  183.2910  178.1770  138.5280 C   0  0  0  0  0  3  0  0  0  0  0  0
  188.9570  177.2920  136.5120 C   0  0  0  0  0  1  0  0  0  0  0  0
  183.5480  178.8690  139.7120 C   0  0  0  0  0  3  0  0  0  0  0  0
  188.5890  172.2360  134.6520 C   0  0  0  0  0  3  0  0  0  0  0  0
  185.6760  177.8300  138.1980 C   0  0  0  0  0  0  0  0  0  0  0  0
  190.5020  173.4230  136.3190 C   0  0  0  0  0  0  0  0  0  0  0  0
  186.2280  173.9870  136.6750 C   0  0  0  0  0  2  0  0  0  0  0  0
  189.2180  173.9640  136.2300 C   0  0  0  0  0  3  0  0  0  0  0  0
  184.8550  176.0230  135.9390 C   0  0  0  0  0  2  0  0  0  0  0  0
  191.8660  177.1120  138.2280 C   0  0  0  0  0  2  0  0  0  0  0  0
  183.9950  176.9380  136.6040 O   0  0  0  0  0  0  0  0  0  0  0  0
  190.9610  176.3520  139.0810 N   0  0  0  0  0  2  0  0  0  0  0  0
  188.5610  176.7500  138.9100 C   0  0  0  0  0  2  0  0  0  0  0  0
  189.8780  171.7040  134.7290 C   0  0  0  0  0  3  0  0  0  0  0  0
  192.8400  176.1940  137.4800 C   0  0  2  0  0  3  0  0  0  0  0  0
  188.2570  173.3670  135.4060 C   0  0  0  0  0  0  0  0  0  0  0  0
  186.7450  177.3500  137.4280 O   0  0  0  0  0  0  0  0  0  0  0  0
  184.8620  174.6880  136.6800 C   0  0  1  0  0  3  0  0  0  0  0  0
  192.1850  175.2200  136.5000 C   0  0  0  0  0  2  0  0  0  0  0  0
  191.5040  174.0560  137.2130 C   0  0  0  0  0  2  0  0  0  0  0  0
  190.8360  172.2970  135.5610 C   0  0  0  0  0  3  0  0  0  0  0  0
  182.5190  174.6790  136.2280 C   0  0  0  0  0  2  0  0  0  0  0  0
  181.5900  172.4150  135.7690 N   0  0  0  0  0  0  0  0  0  0  0  0
  183.5220  172.7560  137.2700 C   0  0  0  0  0  2  0  0  0  0  0  0
  182.1880  172.0350  137.0500 C   0  0  0  0  0  2  0  0  0  0  0  0
  181.3060  173.8590  135.7670 C   0  0  0  0  0  2  0  0  0  0  0  0
  183.7210  173.8430  136.3020 N   0  0  0  0  0  0  0  0  0  0  0  0
  180.3660  171.6360  135.5670 C   0  0  0  0  0  3  0  0  0  0  0  0
  180.0150  170.8370  136.8120 C   0  0  0  0  0  1  0  0  0  0  0  0
  180.4120  170.7250  134.3470 C   0  0  0  0  0  1  0  0  0  0  0  0
  193.9780  175.6190  138.3250 C   0  0  0  0  0  2  0  0  0  0  0  0
  194.5270  174.3030  137.7960 C   0  0  0  0  0  2  0  0  0  0  0  0
  195.5370  174.5630  136.6860 C   0  0  0  0  0  2  0  0  0  0  0  0
  195.6080  171.1570  135.0480 C   0  0  2  0  0  3  0  0  0  0  0  0
  196.4710  172.9210  138.5690 F   0  0  0  0  0  0  0  0  0  0  0  0
  196.3820  172.2280  137.3760 C   0  0  2  0  0  0  0  0  0  0  0  0
  197.5800  171.4510  137.2920 O   0  0  0  0  0  0  0  0  0  0  0  0
  196.2000  173.2620  136.2330 C   0  0  1  0  0  3  0  0  0  0  0  0
  193.6520  170.1460  136.2090 C   0  0  0  0  0  1  0  0  0  0  0  0
  197.0820  170.8370  134.8330 C   0  0  0  0  0  2  0  0  0  0  0  0
  198.5690  169.5840  136.2820 C   0  0  0  0  0  1  0  0  0  0  0  0
  198.0660  170.9880  136.0250 C   0  0  2  0  0  0  0  0  0  0  0  0
  195.4090  172.6600  135.0760 C   0  0  0  0  0  2  0  0  0  0  0  0
  195.2510  171.3800  137.4840 O   0  0  0  0  0  0  0  0  0  0  0  0
  195.1100  170.5340  136.3540 C   0  0  2  0  0  3  0  0  0  0  0  0
  200.2310  171.2740  134.4940 C   0  0  0  0  0  1  0  0  0  0  0  0
  199.2870  171.8210  135.5570 C   0  0  0  0  0  0  0  0  0  0  0  0
  199.9090  172.8060  136.5300 C   0  0  0  0  0  2  0  0  0  0  0  0
  199.0420  173.3040  135.3820 C   0  0  0  0  0  2  0  0  0  0  0  0
  1 22  1  0  0  0  0
  1 13  1  0  0  0  0
  3  8  1  6  0  0  0
  3 19  1  0  0  0  0
  4  5  1  0  0  0  0
  6 11  1  0  0  0  0
  6  7  2  0  0  0  0
  7  9  1  0  0  0  0
  9  5  2  0  0  0  0
 10 20  2  0  0  0  0
 10 22  1  0  0  0  0
 11  4  2  0  0  0  0
 12 26  1  0  0  0  0
 13 24  1  0  0  0  0
 14 12  1  0  0  0  0
 15 17  1  0  0  0  0
 16 18  1  0  0  0  0
 17  6  1  0  0  0  0
 18  2  1  0  0  0  0
 19  2  1  0  0  0  0
 20 27  1  0  0  0  0
 21 16  1  0  0  0  0
 21 37  1  1  0  0  0
 22 14  2  0  0  0  0
 23  3  1  0  0  0  0
 23 11  1  0  0  0  0
 24 15  1  6  0  0  0
 25 26  1  0  0  0  0
 25 21  1  0  0  0  0
 27 12  2  0  0  0  0
 28 33  1  0  0  0  0
 29 31  1  0  0  0  0
 31 30  1  0  0  0  0
 32 29  1  0  0  0  0
 32 28  1  0  0  0  0
 33 24  1  0  0  0  0
 33 30  1  0  0  0  0
 34 29  1  0  0  0  0
 34 35  1  0  0  0  0
 36 34  1  0  0  0  0
 38 37  1  0  0  0  0
 39 38  1  0  0  0  0
 40 46  1  1  0  0  0
 40 49  1  0  0  0  0
 40 51  1  0  0  0  0
 42 50  1  0  0  0  0
 42 41  1  1  0  0  0
 43 42  1  0  0  0  0
 44 39  1  1  0  0  0
 44 42  1  0  0  0  0
 46 48  1  0  0  0  0
 48 47  1  1  0  0  0
 48 43  1  0  0  0  0
 49 44  1  0  0  0  0
 51 45  1  6  0  0  0
 51 50  1  0  0  0  0
 52 53  1  0  0  0  0
 53 48  1  0  0  0  0
 53 54  1  0  0  0  0
 55 53  1  0  0  0  0
 55 54  1  0  0  0  0
M  END
>  <MODEL>
8

>  <REMARK>
 VINA RESULT:      -4.3      3.426     12.998
  Name = 
  7 active torsions:
  status: ('A' for Active; 'I' for Inactive)
    1  A    between atoms: C_7  and  C_20
    2  A    between atoms: C_7  and  C_22
    3  A    between atoms: C_8  and  C_22
    4  A    between atoms: C_8  and  C_43
    5  A    between atoms: C_10  and  N_32
    6  A    between atoms: C_12  and  C_38
    7  A    between atoms: C_49  and  N_52
                            x       y       z     vdW  Elec       q    Type
                         _______ _______ _______ _____ _____    ______ ____

>  <TORSDO>
F 7

$$$$
=
 OpenBabel10272401223D

 55 61  0  0  1  0  0  0  0  0999 V2000
  192.4110  176.2690  137.3070 C   0  0  0  0  0  2  0  0  0  0  0  0
  188.7310  171.8160  135.3360 C   0  0  0  0  0  2  0  0  0  0  0  0
  190.8200  172.9820  134.5810 C   0  0  2  0  0  3  0  0  0  0  0  0
  192.6690  170.7430  134.4810 C   0  0  0  0  0  3  0  0  0  0  0  0
  193.5650  169.6800  134.3560 C   0  0  0  0  0  3  0  0  0  0  0  0
  194.5140  172.2590  134.9190 C   0  0  0  0  0  0  0  0  0  0  0  0
  195.4020  171.1890  134.7640 C   0  0  0  0  0  3  0  0  0  0  0  0
  190.2330  174.3650  134.3820 C   0  0  0  0  0  1  0  0  0  0  0  0
  194.9320  169.9050  134.4880 C   0  0  0  0  0  3  0  0  0  0  0  0
  190.8300  177.7670  138.5330 C   0  0  0  0  0  3  0  0  0  0  0  0
  193.1230  172.0390  134.7530 C   0  0  0  0  0  0  0  0  0  0  0  0
  188.6550  176.1620  137.7990 C   0  0  0  0  0  0  0  0  0  0  0  0
  192.7850  174.8750  137.7920 C   0  0  0  0  0  2  0  0  0  0  0  0
  189.9450  175.8270  137.3830 C   0  0  0  0  0  3  0  0  0  0  0  0
  194.3310  174.6000  135.7660 C   0  0  0  0  0  2  0  0  0  0  0  0
  187.0360  173.3670  134.8530 C   0  0  0  0  0  2  0  0  0  0  0  0
  195.0650  173.5160  135.2130 O   0  0  0  0  0  0  0  0  0  0  0  0
  187.7300  172.6840  135.9370 N   0  0  0  0  0  2  0  0  0  0  0  0
  190.1270  172.2740  135.7330 C   0  0  0  0  0  2  0  0  0  0  0  0
  189.5380  178.1110  138.9360 C   0  0  0  0  0  3  0  0  0  0  0  0
  186.2070  174.5490  135.3710 C   0  0  2  0  0  3  0  0  0  0  0  0
  191.0360  176.6210  137.7560 C   0  0  0  0  0  0  0  0  0  0  0  0
  192.2180  173.1060  134.8440 O   0  0  0  0  0  0  0  0  0  0  0  0
  194.1410  174.3830  137.2650 C   0  0  1  0  0  3  0  0  0  0  0  0
  187.0180  175.6720  136.0170 C   0  0  0  0  0  2  0  0  0  0  0  0
  187.5110  175.2980  137.4110 C   0  0  0  0  0  2  0  0  0  0  0  0
  188.4490  177.3110  138.5690 C   0  0  0  0  0  3  0  0  0  0  0  0
  196.3970  173.8560  137.8380 C   0  0  0  0  0  2  0  0  0  0  0  0
  197.4120  175.4250  139.4820 N   0  0  0  0  0  0  0  0  0  0  0  0
  194.9910  174.9320  139.4680 C   0  0  0  0  0  2  0  0  0  0  0  0
  196.2510  175.1180  140.3200 C   0  0  0  0  0  2  0  0  0  0  0  0
  197.6710  174.3010  138.5680 C   0  0  0  0  0  2  0  0  0  0  0  0
  195.3110  174.8210  138.0380 N   0  0  0  0  0  0  0  0  0  0  0  0
  198.5670  175.6790  140.3480 C   0  0  0  0  0  3  0  0  0  0  0  0
  199.8240  175.0340  139.7850 C   0  0  0  0  0  1  0  0  0  0  0  0
  198.3550  175.2560  141.7950 C   0  0  0  0  0  1  0  0  0  0  0  0
  184.9080  174.1730  136.0870 C   0  0  0  0  0  2  0  0  0  0  0  0
  183.8140  175.2220  135.9570 C   0  0  0  0  0  2  0  0  0  0  0  0
  182.6890  174.9330  136.9410 C   0  0  0  0  0  2  0  0  0  0  0  0
  180.4560  177.9750  136.7070 C   0  0  2  0  0  3  0  0  0  0  0  0
  184.3100  177.0030  137.3880 F   0  0  0  0  0  0  0  0  0  0  0  0
  183.0050  177.4600  137.3430 C   0  0  2  0  0  0  0  0  0  0  0  0
  182.8890  178.3990  138.4140 O   0  0  0  0  0  0  0  0  0  0  0  0
  182.0640  176.2300  137.4550 C   0  0  1  0  0  3  0  0  0  0  0  0
  181.2210  178.8280  134.4980 C   0  0  0  0  0  1  0  0  0  0  0  0
  180.3230  178.4950  138.1330 C   0  0  0  0  0  2  0  0  0  0  0  0
  181.6440  180.2060  139.2320 C   0  0  0  0  0  1  0  0  0  0  0  0
  181.6080  178.7150  138.9770 C   0  0  2  0  0  0  0  0  0  0  0  0
  180.7460  176.4870  136.7310 C   0  0  0  0  0  2  0  0  0  0  0  0
  182.8470  178.1120  136.0940 O   0  0  0  0  0  0  0  0  0  0  0  0
  181.5710  178.7190  135.9680 C   0  0  2  0  0  3  0  0  0  0  0  0
  182.6320  177.6240  141.1840 C   0  0  0  0  0  1  0  0  0  0  0  0
  181.4200  178.0300  140.3550 C   0  0  0  0  0  0  0  0  0  0  0  0
  180.1680  177.2070  140.5910 C   0  0  0  0  0  2  0  0  0  0  0  0
  180.3090  178.5870  141.2180 C   0  0  0  0  0  2  0  0  0  0  0  0
  1 22  1  0  0  0  0
  1 13  1  0  0  0  0
  2 19  1  0  0  0  0
  2 18  1  0  0  0  0
  3  8  1  1  0  0  0
  3 23  1  0  0  0  0
  3 19  1  0  0  0  0
  4 11  1  0  0  0  0
  5  4  2  0  0  0  0
  5  9  1  0  0  0  0
  6 17  1  0  0  0  0
  7  6  1  0  0  0  0
  9  7  2  0  0  0  0
 10 20  1  0  0  0  0
 11 23  1  0  0  0  0
 11  6  2  0  0  0  0
 12 27  1  0  0  0  0
 14 22  1  0  0  0  0
 14 12  2  0  0  0  0
 16 21  1  0  0  0  0
 16 18  1  0  0  0  0
 17 15  1  0  0  0  0
 21 25  1  0  0  0  0
 21 37  1  1  0  0  0
 22 10  2  0  0  0  0
 24 15  1  6  0  0  0
 24 13  1  0  0  0  0
 24 33  1  0  0  0  0
 25 26  1  0  0  0  0
 26 12  1  0  0  0  0
 27 20  2  0  0  0  0
 28 33  1  0  0  0  0
 28 32  1  0  0  0  0
 29 31  1  0  0  0  0
 29 34  1  0  0  0  0
 30 31  1  0  0  0  0
 32 29  1  0  0  0  0
 33 30  1  0  0  0  0
 34 36  1  0  0  0  0
 35 34  1  0  0  0  0
 38 37  1  0  0  0  0
 38 39  1  0  0  0  0
 40 49  1  1  0  0  0
 40 46  1  0  0  0  0
 42 41  1  1  0  0  0
 42 44  1  0  0  0  0
 42 43  1  0  0  0  0
 43 48  1  0  0  0  0
 44 39  1  6  0  0  0
 46 48  1  0  0  0  0
 48 47  1  1  0  0  0
 48 53  1  0  0  0  0
 49 44  1  0  0  0  0
 50 42  1  0  0  0  0
 51 45  1  6  0  0  0
 51 50  1  0  0  0  0
 51 40  1  0  0  0  0
 53 54  1  0  0  0  0
 53 52  1  0  0  0  0
 53 55  1  0  0  0  0
 54 55  1  0  0  0  0
M  END
>  <MODEL>
9

>  <REMARK>
 VINA RESULT:      -4.2      1.258      2.307
  Name = 
  7 active torsions:
  status: ('A' for Active; 'I' for Inactive)
    1  A    between atoms: C_7  and  C_20
    2  A    between atoms: C_7  and  C_22
    3  A    between atoms: C_8  and  C_22
    4  A    between atoms: C_8  and  C_43
    5  A    between atoms: C_10  and  N_32
    6  A    between atoms: C_12  and  C_38
    7  A    between atoms: C_49  and  N_52
                            x       y       z     vdW  Elec       q    Type
                         _______ _______ _______ _____ _____    ______ ____

>  <TORSDO>
F 7

$$$$
