=
 OpenBabel10272400123D

 34 37  0  0  1  0  0  0  0  0999 V2000
  182.1360  174.4940  137.4140 C   0  0  0  0  0  2  0  0  0  0  0  0
  184.5630  174.5360  134.3840 C   0  0  0  0  0  1  0  0  0  0  0  0
  188.9800  179.8530  137.1950 N   0  0  0  0  0  2  0  0  0  0  0  0
  183.8360  176.3970  135.9190 C   0  0  1  0  0  3  0  0  0  0  0  0
  185.4100  176.9160  137.9070 C   0  0  1  0  0  3  0  0  0  0  0  0
  186.0970  177.3750  135.5290 C   0  0  0  0  0  3  0  0  0  0  0  0
  189.5740  178.3000  138.8470 N   0  0  0  0  0  2  0  0  0  0  0  0
  183.4600  175.0250  135.3160 C   0  0  2  0  0  0  0  0  0  0  0  0
  187.1710  178.0280  135.9710 C   0  0  0  0  0  3  0  0  0  0  0  0
  186.8760  177.0870  138.2950 C   0  0  0  0  0  2  0  0  0  0  0  0
  182.7840  176.8820  136.9420 C   0  0  2  0  0  3  0  0  0  0  0  0
  183.2180  174.0040  136.4510 C   0  0  2  0  0  3  0  0  0  0  0  0
  182.2930  175.1770  134.5600 O   0  0  0  0  0  1  0  0  0  0  0  0
  184.6060  178.1840  138.2300 C   0  0  0  0  0  2  0  0  0  0  0  0
  183.2350  178.2250  137.5340 C   0  0  2  0  0  3  0  0  0  0  0  0
  187.5920  177.9460  137.3440 N   0  0  0  0  0  0  0  0  0  0  0  0
  185.2930  176.4840  136.4330 C   0  0  2  0  0  3  0  0  0  0  0  0
  182.5360  175.8280  138.0300 C   0  0  0  0  0  2  0  0  0  0  0  0
  188.7210  178.7280  137.7770 C   0  0  0  0  0  0  0  0  0  0  0  0
  181.0820  179.5420  137.9540 C   0  0  0  0  0  0  0  0  0  0  0  0
  180.3990  179.9180  139.0040 O   0  0  0  0  0  0  0  0  0  0  0  0
  182.1890  178.8620  138.3940 C   0  0  0  0  0  0  0  0  0  0  0  0
  181.0390  179.4830  140.0700 C   0  0  0  0  0  3  0  0  0  0  0  0
  182.1660  178.8110  139.7390 N   0  0  0  0  0  0  0  0  0  0  0  0
  180.7080  179.8420  136.5420 C   0  0  0  0  0  2  0  0  0  0  0  0
  180.7030  181.3400  136.3200 C   0  0  0  0  0  1  0  0  0  0  0  0
  182.8690  172.6350  135.9480 C   0  0  0  0  0  0  0  0  0  0  0  0
  183.8600  171.6860  135.7290 O   0  0  0  0  0  0  0  0  0  0  0  0
  181.6650  172.3410  135.7300 O   0  0  0  0  0  1  0  0  0  0  0  0
  189.6110  176.9470  139.3890 C   0  0  0  0  0  3  0  0  0  0  0  0
  190.7700  176.1480  138.7850 C   0  0  0  0  0  2  0  0  0  0  0  0
  190.3340  175.3150  137.5900 C   0  0  0  0  0  1  0  0  0  0  0  0
  189.6920  177.0030  140.9080 C   0  0  0  0  0  2  0  0  0  0  0  0
  188.7190  178.0330  141.4510 C   0  0  0  0  0  1  0  0  0  0  0  0
  1 18  1  0  0  0  0
  2  8  1  0  0  0  0
  3 19  2  0  0  0  0
  4 17  1  0  0  0  0
  4 11  1  0  0  0  0
  5 14  1  0  0  0  0
  5 10  1  0  0  0  0
  6  9  2  0  0  0  0
  6 17  1  0  0  0  0
  7 30  1  0  0  0  0
  8  4  1  0  0  0  0
  8 12  1  0  0  0  0
  9 16  1  0  0  0  0
 11 15  1  0  0  0  0
 11 18  1  0  0  0  0
 12  1  1  0  0  0  0
 13  8  1  0  0  0  0
 15 14  1  0  0  0  0
 15 22  1  0  0  0  0
 16 19  1  0  0  0  0
 16 10  1  0  0  0  0
 17  5  1  0  0  0  0
 19  7  1  0  0  0  0
 20 22  2  0  0  0  0
 20 21  1  0  0  0  0
 21 23  1  0  0  0  0
 22 24  1  0  0  0  0
 24 23  2  0  0  0  0
 25 20  1  0  0  0  0
 26 25  1  0  0  0  0
 27 12  1  0  0  0  0
 28 27  2  0  0  0  0
 29 27  1  0  0  0  0
 30 33  1  0  0  0  0
 31 30  1  0  0  0  0
 32 31  1  0  0  0  0
 33 34  1  0  0  0  0
M  END
>  <MODEL>
1

>  <REMARK>
 VINA RESULT:      -4.8      0.000      0.000
  Name = 
  6 active torsions:
  status: ('A' for Active; 'I' for Inactive)
    1  A    between atoms: C_6  and  C_24
    2  A    between atoms: C_7  and  C_23
    3  A    between atoms: C_11  and  C_20
    4  A    between atoms: C_12  and  C_28
    5  A    between atoms: N_13  and  C_20
    6  A    between atoms: C_14  and  C_20
                            x       y       z     vdW  Elec       q    Type
                         _______ _______ _______ _____ _____    ______ ____

>  <TORSDO>
F 6

$$$$
=
 OpenBabel10272400123D

 34 37  0  0  1  0  0  0  0  0999 V2000
  193.7840  172.9930  136.2580 C   0  0  0  0  0  2  0  0  0  0  0  0
  194.2200  176.8450  136.0430 C   0  0  0  0  0  1  0  0  0  0  0  0
  187.6360  178.3960  139.1920 N   0  0  0  0  0  2  0  0  0  0  0  0
  192.1430  175.4260  135.8910 C   0  0  1  0  0  3  0  0  0  0  0  0
  190.8000  175.1340  138.0850 C   0  0  1  0  0  3  0  0  0  0  0  0
  190.9510  177.3600  136.9190 C   0  0  0  0  0  3  0  0  0  0  0  0
  188.5080  177.4660  141.1590 N   0  0  0  0  0  2  0  0  0  0  0  0
  193.6750  175.4640  135.6940 C   0  0  2  0  0  0  0  0  0  0  0  0
  190.0230  177.8490  137.7410 C   0  0  0  0  0  3  0  0  0  0  0  0
  190.2730  175.8830  139.3060 C   0  0  0  0  0  2  0  0  0  0  0  0
  191.5660  174.0150  135.6390 C   0  0  2  0  0  3  0  0  0  0  0  0
  194.3430  174.3810  136.5720 C   0  0  2  0  0  3  0  0  0  0  0  0
  193.9550  175.2180  134.3460 O   0  0  0  0  0  1  0  0  0  0  0  0
  189.6510  174.4750  137.3090 C   0  0  0  0  0  2  0  0  0  0  0  0
  190.0520  174.0330  135.8920 C   0  0  2  0  0  3  0  0  0  0  0  0
  189.6220  177.1450  138.9310 N   0  0  0  0  0  0  0  0  0  0  0  0
  191.6600  176.0700  137.2140 C   0  0  2  0  0  3  0  0  0  0  0  0
  192.2800  172.9580  136.4940 C   0  0  0  0  0  2  0  0  0  0  0  0
  188.5670  177.6890  139.7430 C   0  0  0  0  0  0  0  0  0  0  0  0
  188.0320  172.5040  135.5340 C   0  0  0  0  0  0  0  0  0  0  0  0
  187.8380  171.2960  135.0730 O   0  0  0  0  0  0  0  0  0  0  0  0
  189.3800  172.7590  135.4900 C   0  0  0  0  0  0  0  0  0  0  0  0
  189.0130  170.8060  134.7360 C   0  0  0  0  0  3  0  0  0  0  0  0
  190.0110  171.6870  134.9740 N   0  0  0  0  0  0  0  0  0  0  0  0
  186.9580  173.4070  136.0390 C   0  0  0  0  0  2  0  0  0  0  0  0
  186.3340  172.8150  137.2860 C   0  0  0  0  0  1  0  0  0  0  0  0
  195.8370  174.3670  136.4560 C   0  0  0  0  0  0  0  0  0  0  0  0
  196.4640  173.6070  135.4750 O   0  0  0  0  0  0  0  0  0  0  0  0
  196.5300  175.0570  137.2470 O   0  0  0  0  0  1  0  0  0  0  0  0
  189.6130  176.9680  141.9680 C   0  0  0  0  0  3  0  0  0  0  0  0
  190.4550  178.1260  142.5140 C   0  0  0  0  0  2  0  0  0  0  0  0
  191.1190  177.7810  143.8380 C   0  0  0  0  0  1  0  0  0  0  0  0
  189.0770  176.0830  143.0830 C   0  0  0  0  0  2  0  0  0  0  0  0
  187.6840  176.5270  143.4860 C   0  0  0  0  0  1  0  0  0  0  0  0
  1 18  1  0  0  0  0
  1 12  1  0  0  0  0
  3 19  2  0  0  0  0
  4 17  1  0  0  0  0
  5 10  1  0  0  0  0
  6 17  1  0  0  0  0
  6  9  2  0  0  0  0
  7 30  1  0  0  0  0
  8  4  1  0  0  0  0
  8  2  1  0  0  0  0
  8 12  1  0  0  0  0
  9 16  1  0  0  0  0
 11  4  1  0  0  0  0
 11 15  1  0  0  0  0
 11 18  1  0  0  0  0
 13  8  1  0  0  0  0
 14  5  1  0  0  0  0
 15 14  1  0  0  0  0
 16 10  1  0  0  0  0
 16 19  1  0  0  0  0
 17  5  1  0  0  0  0
 19  7  1  0  0  0  0
 20 25  1  0  0  0  0
 21 20  1  0  0  0  0
 22 20  2  0  0  0  0
 22 15  1  0  0  0  0
 23 24  2  0  0  0  0
 23 21  1  0  0  0  0
 24 22  1  0  0  0  0
 25 26  1  0  0  0  0
 27 12  1  0  0  0  0
 27 29  1  0  0  0  0
 28 27  2  0  0  0  0
 30 31  1  0  0  0  0
 30 33  1  0  0  0  0
 31 32  1  0  0  0  0
 33 34  1  0  0  0  0
M  END
>  <MODEL>
2

>  <REMARK>
 VINA RESULT:      -4.4      5.098      8.760
  Name = 
  6 active torsions:
  status: ('A' for Active; 'I' for Inactive)
    1  A    between atoms: C_6  and  C_24
    2  A    between atoms: C_7  and  C_23
    3  A    between atoms: C_11  and  C_20
    4  A    between atoms: C_12  and  C_28
    5  A    between atoms: N_13  and  C_20
    6  A    between atoms: C_14  and  C_20
                            x       y       z     vdW  Elec       q    Type
                         _______ _______ _______ _____ _____    ______ ____

>  <TORSDO>
F 6

$$$$
=
 OpenBabel10272400123D

 34 37  0  0  1  0  0  0  0  0999 V2000
  188.4210  172.8060  137.3080 C   0  0  0  0  0  2  0  0  0  0  0  0
  188.7160  176.1970  135.4400 C   0  0  0  0  0  1  0  0  0  0  0  0
  181.4190  177.7250  135.7590 N   0  0  0  0  0  2  0  0  0  0  0  0
  186.8540  174.4990  135.4560 C   0  0  1  0  0  3  0  0  0  0  0  0
  184.9230  174.9420  137.1220 C   0  0  1  0  0  3  0  0  0  0  0  0
  185.3140  176.4340  135.1330 C   0  0  0  0  0  3  0  0  0  0  0  0
  181.6950  177.9100  138.0790 N   0  0  0  0  0  2  0  0  0  0  0  0
  188.3690  174.7270  135.6510 C   0  0  2  0  0  0  0  0  0  0  0  0
  184.1580  177.0510  135.3740 C   0  0  0  0  0  3  0  0  0  0  0  0
  184.0140  176.0340  137.6800 C   0  0  0  0  0  2  0  0  0  0  0  0
  186.4500  173.0380  135.7550 C   0  0  2  0  0  3  0  0  0  0  0  0
  188.7900  174.2710  137.0670 C   0  0  2  0  0  3  0  0  0  0  0  0
  189.0580  173.9800  134.6900 O   0  0  0  0  0  1  0  0  0  0  0  0
  184.0980  173.8150  136.4850 C   0  0  0  0  0  2  0  0  0  0  0  0
  184.9320  172.8880  135.5860 C   0  0  2  0  0  3  0  0  0  0  0  0
  183.4490  176.8680  136.6120 N   0  0  0  0  0  0  0  0  0  0  0  0
  185.9610  175.5500  136.1600 C   0  0  2  0  0  3  0  0  0  0  0  0
  186.9190  172.6030  137.1510 C   0  0  0  0  0  2  0  0  0  0  0  0
  182.1710  177.5070  136.7880 C   0  0  0  0  0  0  0  0  0  0  0  0
  185.1220  170.3740  135.1500 C   0  0  0  0  0  0  0  0  0  0  0  0
  184.4270  169.3100  135.4600 O   0  0  0  0  0  0  0  0  0  0  0  0
  184.4750  171.4650  135.6710 C   0  0  0  0  0  0  0  0  0  0  0  0
  183.3850  169.7070  136.1610 C   0  0  0  0  0  3  0  0  0  0  0  0
  183.3730  171.0510  136.3250 N   0  0  0  0  0  0  0  0  0  0  0  0
  186.3770  170.3660  134.3460 C   0  0  0  0  0  2  0  0  0  0  0  0
  187.3890  169.4340  134.9810 C   0  0  0  0  0  1  0  0  0  0  0  0
  190.2480  174.4800  137.3460 C   0  0  0  0  0  0  0  0  0  0  0  0
  190.6630  175.4310  138.2700 O   0  0  0  0  0  1  0  0  0  0  0  0
  191.1030  173.7800  136.7440 O   0  0  0  0  0  0  0  0  0  0  0  0
  182.5250  178.0200  139.2730 C   0  0  0  0  0  3  0  0  0  0  0  0
  183.3010  179.3400  139.2780 C   0  0  0  0  0  2  0  0  0  0  0  0
  184.7360  179.1630  139.7490 C   0  0  0  0  0  1  0  0  0  0  0  0
  181.6610  177.8660  140.5160 C   0  0  0  0  0  2  0  0  0  0  0  0
  181.0940  179.2090  140.9340 C   0  0  0  0  0  1  0  0  0  0  0  0
  2  8  1  0  0  0  0
  3 19  2  0  0  0  0
  4  8  1  0  0  0  0
  4 11  1  0  0  0  0
  4 17  1  0  0  0  0
  5 10  1  0  0  0  0
  6  9  2  0  0  0  0
  6 17  1  0  0  0  0
  7 30  1  0  0  0  0
  8 12  1  0  0  0  0
  9 16  1  0  0  0  0
 11 18  1  0  0  0  0
 12  1  1  0  0  0  0
 12 27  1  0  0  0  0
 13  8  1  0  0  0  0
 14  5  1  0  0  0  0
 15 22  1  0  0  0  0
 15 11  1  0  0  0  0
 15 14  1  0  0  0  0
 16 19  1  0  0  0  0
 16 10  1  0  0  0  0
 17  5  1  0  0  0  0
 18  1  1  0  0  0  0
 19  7  1  0  0  0  0
 20 21  1  0  0  0  0
 20 22  2  0  0  0  0
 21 23  1  0  0  0  0
 22 24  1  0  0  0  0
 23 24  2  0  0  0  0
 25 26  1  0  0  0  0
 25 20  1  0  0  0  0
 27 28  1  0  0  0  0
 29 27  2  0  0  0  0
 30 31  1  0  0  0  0
 30 33  1  0  0  0  0
 31 32  1  0  0  0  0
 33 34  1  0  0  0  0
M  END
>  <MODEL>
3

>  <REMARK>
 VINA RESULT:      -4.2      3.608      7.375
  Name = 
  6 active torsions:
  status: ('A' for Active; 'I' for Inactive)
    1  A    between atoms: C_6  and  C_24
    2  A    between atoms: C_7  and  C_23
    3  A    between atoms: C_11  and  C_20
    4  A    between atoms: C_12  and  C_28
    5  A    between atoms: N_13  and  C_20
    6  A    between atoms: C_14  and  C_20
                            x       y       z     vdW  Elec       q    Type
                         _______ _______ _______ _____ _____    ______ ____

>  <TORSDO>
F 6

$$$$
=
 OpenBabel10272400123D

 34 37  0  0  1  0  0  0  0  0999 V2000
  189.9590  173.5440  136.9260 C   0  0  0  0  0  2  0  0  0  0  0  0
  189.8690  176.9780  135.1160 C   0  0  0  0  0  1  0  0  0  0  0  0
  182.4300  177.5470  135.2220 N   0  0  0  0  0  2  0  0  0  0  0  0
  188.2430  175.0540  135.0490 C   0  0  1  0  0  3  0  0  0  0  0  0
  186.2210  175.2140  136.6570 C   0  0  1  0  0  3  0  0  0  0  0  0
  186.4760  176.7800  134.7030 C   0  0  0  0  0  3  0  0  0  0  0  0
  182.6100  177.7230  137.5520 N   0  0  0  0  0  2  0  0  0  0  0  0
  189.7100  175.4720  135.2950 C   0  0  2  0  0  0  0  0  0  0  0  0
  185.2430  177.2380  134.9160 C   0  0  0  0  0  3  0  0  0  0  0  0
  185.1630  176.1700  137.2020 C   0  0  0  0  0  2  0  0  0  0  0  0
  188.0220  173.5480  135.3140 C   0  0  2  0  0  3  0  0  0  0  0  0
  190.1430  175.0480  136.7170 C   0  0  2  0  0  3  0  0  0  0  0  0
  190.5170  174.8370  134.3460 O   0  0  0  0  0  1  0  0  0  0  0  0
  185.5690  174.0020  135.9790 C   0  0  0  0  0  2  0  0  0  0  0  0
  186.5420  173.2060  135.0940 C   0  0  2  0  0  3  0  0  0  0  0  0
  184.5270  176.9430  136.1280 N   0  0  0  0  0  0  0  0  0  0  0  0
  187.2010  175.9680  135.7380 C   0  0  2  0  0  3  0  0  0  0  0  0
  188.5020  173.1520  136.7170 C   0  0  0  0  0  2  0  0  0  0  0  0
  183.1730  177.4090  136.2710 C   0  0  0  0  0  0  0  0  0  0  0  0
  185.0530  171.1430  135.3580 C   0  0  0  0  0  0  0  0  0  0  0  0
  185.2210  169.8470  135.2990 O   0  0  0  0  0  0  0  0  0  0  0  0
  186.2710  171.7360  135.1440 C   0  0  0  0  0  0  0  0  0  0  0  0
  186.4940  169.6240  135.0430 C   0  0  0  0  0  3  0  0  0  0  0  0
  187.1930  170.7770  134.9330 N   0  0  0  0  0  0  0  0  0  0  0  0
  183.7550  171.8200  135.6410 C   0  0  0  0  0  2  0  0  0  0  0  0
  183.1730  171.2960  136.9370 C   0  0  0  0  0  1  0  0  0  0  0  0
  191.5530  175.4380  137.0460 C   0  0  0  0  0  0  0  0  0  0  0  0
  191.8220  176.6270  137.7110 O   0  0  0  0  0  1  0  0  0  0  0  0
  192.5000  174.6750  136.7230 O   0  0  0  0  0  0  0  0  0  0  0  0
  183.3820  177.9180  138.7740 C   0  0  0  0  0  3  0  0  0  0  0  0
  183.5730  179.4090  139.0670 C   0  0  0  0  0  2  0  0  0  0  0  0
  182.3550  180.2330  138.6790 C   0  0  0  0  0  1  0  0  0  0  0  0
  182.7080  177.1950  139.9300 C   0  0  0  0  0  2  0  0  0  0  0  0
  182.2560  175.8120  139.4960 C   0  0  0  0  0  1  0  0  0  0  0  0
  2  8  1  0  0  0  0
  3 19  2  0  0  0  0
  4  8  1  0  0  0  0
  4 11  1  0  0  0  0
  4 17  1  0  0  0  0
  5 10  1  0  0  0  0
  6  9  2  0  0  0  0
  6 17  1  0  0  0  0
  7 30  1  0  0  0  0
  8 12  1  0  0  0  0
  9 16  1  0  0  0  0
 11 18  1  0  0  0  0
 12  1  1  0  0  0  0
 12 27  1  0  0  0  0
 13  8  1  0  0  0  0
 14  5  1  0  0  0  0
 15 22  1  0  0  0  0
 15 11  1  0  0  0  0
 15 14  1  0  0  0  0
 16 19  1  0  0  0  0
 16 10  1  0  0  0  0
 17  5  1  0  0  0  0
 18  1  1  0  0  0  0
 19  7  1  0  0  0  0
 20 25  1  0  0  0  0
 21 20  1  0  0  0  0
 22 20  2  0  0  0  0
 23 21  1  0  0  0  0
 24 23  2  0  0  0  0
 24 22  1  0  0  0  0
 25 26  1  0  0  0  0
 27 28  1  0  0  0  0
 29 27  2  0  0  0  0
 30 31  1  0  0  0  0
 30 33  1  0  0  0  0
 32 31  1  0  0  0  0
 34 33  1  0  0  0  0
M  END
>  <MODEL>
4

>  <REMARK>
 VINA RESULT:      -4.1      3.714      7.564
  Name = 
  6 active torsions:
  status: ('A' for Active; 'I' for Inactive)
    1  A    between atoms: C_6  and  C_24
    2  A    between atoms: C_7  and  C_23
    3  A    between atoms: C_11  and  C_20
    4  A    between atoms: C_12  and  C_28
    5  A    between atoms: N_13  and  C_20
    6  A    between atoms: C_14  and  C_20
                            x       y       z     vdW  Elec       q    Type
                         _______ _______ _______ _____ _____    ______ ____

>  <TORSDO>
F 6

$$$$
=
 OpenBabel10272400123D

 34 37  0  0  1  0  0  0  0  0999 V2000
  189.8700  176.2910  142.6030 C   0  0  0  0  0  2  0  0  0  0  0  0
  187.1300  178.8840  141.6820 C   0  0  0  0  0  1  0  0  0  0  0  0
  187.4590  177.5610  134.3460 N   0  0  0  0  0  2  0  0  0  0  0  0
  189.1750  178.1470  140.4070 C   0  0  1  0  0  3  0  0  0  0  0  0
  188.8100  176.2920  138.6400 C   0  0  1  0  0  3  0  0  0  0  0  0
  187.8450  178.5980  138.3460 C   0  0  0  0  0  3  0  0  0  0  0  0
  186.6060  175.4320  134.8260 N   0  0  0  0  0  2  0  0  0  0  0  0
  188.5300  178.2920  141.8040 C   0  0  2  0  0  0  0  0  0  0  0  0
  187.4990  178.2890  137.0970 C   0  0  0  0  0  3  0  0  0  0  0  0
  187.8740  175.8300  137.5260 C   0  0  0  0  0  2  0  0  0  0  0  0
  190.5580  177.4640  140.4820 C   0  0  2  0  0  3  0  0  0  0  0  0
  188.4760  176.9140  142.5010 C   0  0  2  0  0  3  0  0  0  0  0  0
  189.3060  179.1760  142.5610 O   0  0  0  0  0  1  0  0  0  0  0  0
  190.2350  176.5000  138.1080 C   0  0  0  0  0  2  0  0  0  0  0  0
  191.1250  177.3110  139.0640 C   0  0  2  0  0  3  0  0  0  0  0  0
  187.5210  176.9310  136.6220 N   0  0  0  0  0  0  0  0  0  0  0  0
  188.2360  177.5400  139.3370 C   0  0  2  0  0  3  0  0  0  0  0  0
  190.4780  176.1180  141.2180 C   0  0  0  0  0  2  0  0  0  0  0  0
  187.2010  176.6680  135.2440 C   0  0  0  0  0  0  0  0  0  0  0  0
  193.1200  176.0300  138.0990 C   0  0  0  0  0  0  0  0  0  0  0  0
  194.3740  175.8590  138.4250 O   0  0  0  0  0  0  0  0  0  0  0  0
  192.5430  176.8310  139.0520 C   0  0  0  0  0  0  0  0  0  0  0  0
  194.5910  176.5350  139.5350 C   0  0  0  0  0  3  0  0  0  0  0  0
  193.4740  177.1650  139.9650 N   0  0  0  0  0  0  0  0  0  0  0  0
  192.4590  175.4220  136.9090 C   0  0  0  0  0  2  0  0  0  0  0  0
  192.5760  173.9140  136.9710 C   0  0  0  0  0  1  0  0  0  0  0  0
  187.8410  176.9640  143.8590 C   0  0  0  0  0  0  0  0  0  0  0  0
  188.6230  177.0750  145.0020 O   0  0  0  0  0  1  0  0  0  0  0  0
  186.5880  176.9130  143.9610 O   0  0  0  0  0  0  0  0  0  0  0  0
  185.9800  174.4670  135.7230 C   0  0  0  0  0  3  0  0  0  0  0  0
  184.4870  174.7650  135.8880 C   0  0  0  0  0  2  0  0  0  0  0  0
  184.1860  175.5000  137.1860 C   0  0  0  0  0  1  0  0  0  0  0  0
  186.2230  173.0550  135.2100 C   0  0  0  0  0  2  0  0  0  0  0  0
  185.5930  172.0390  136.1440 C   0  0  0  0  0  1  0  0  0  0  0  0
  2  8  1  0  0  0  0
  3 19  2  0  0  0  0
  4 11  1  0  0  0  0
  4  8  1  0  0  0  0
  5 17  1  0  0  0  0
  6 17  1  0  0  0  0
  7 19  1  0  0  0  0
  7 30  1  0  0  0  0
  8 12  1  0  0  0  0
  8 13  1  0  0  0  0
  9  6  2  0  0  0  0
 10  5  1  0  0  0  0
 11 18  1  0  0  0  0
 12  1  1  0  0  0  0
 12 27  1  0  0  0  0
 14  5  1  0  0  0  0
 14 15  1  0  0  0  0
 15 11  1  0  0  0  0
 16  9  1  0  0  0  0
 16 10  1  0  0  0  0
 17  4  1  0  0  0  0
 18  1  1  0  0  0  0
 19 16  1  0  0  0  0
 20 21  1  0  0  0  0
 20 22  2  0  0  0  0
 21 23  1  0  0  0  0
 22 15  1  0  0  0  0
 22 24  1  0  0  0  0
 23 24  2  0  0  0  0
 25 26  1  0  0  0  0
 25 20  1  0  0  0  0
 27 29  2  0  0  0  0
 27 28  1  0  0  0  0
 30 31  1  0  0  0  0
 31 32  1  0  0  0  0
 33 30  1  0  0  0  0
 33 34  1  0  0  0  0
M  END
>  <MODEL>
5

>  <REMARK>
 VINA RESULT:      -4.1      4.485      8.792
  Name = 
  6 active torsions:
  status: ('A' for Active; 'I' for Inactive)
    1  A    between atoms: C_6  and  C_24
    2  A    between atoms: C_7  and  C_23
    3  A    between atoms: C_11  and  C_20
    4  A    between atoms: C_12  and  C_28
    5  A    between atoms: N_13  and  C_20
    6  A    between atoms: C_14  and  C_20
                            x       y       z     vdW  Elec       q    Type
                         _______ _______ _______ _____ _____    ______ ____

>  <TORSDO>
F 6

$$$$
=
 OpenBabel10272400123D

 34 37  0  0  1  0  0  0  0  0999 V2000
  190.2660  176.4160  141.8280 C   0  0  0  0  0  2  0  0  0  0  0  0
  187.2130  178.7750  141.3920 C   0  0  0  0  0  1  0  0  0  0  0  0
  185.8460  176.7310  134.3460 N   0  0  0  0  0  2  0  0  0  0  0  0
  188.9340  178.0060  139.7200 C   0  0  1  0  0  3  0  0  0  0  0  0
  188.2810  175.9660  138.2660 C   0  0  1  0  0  3  0  0  0  0  0  0
  187.1180  178.1850  138.0200 C   0  0  0  0  0  3  0  0  0  0  0  0
  185.2840  174.6250  135.2070 N   0  0  0  0  0  2  0  0  0  0  0  0
  188.6380  178.2630  141.2140 C   0  0  2  0  0  0  0  0  0  0  0  0
  186.5010  177.7360  136.9280 C   0  0  0  0  0  3  0  0  0  0  0  0
  187.1370  175.3520  137.4630 C   0  0  0  0  0  2  0  0  0  0  0  0
  190.3380  177.3970  139.5090 C   0  0  2  0  0  3  0  0  0  0  0  0
  188.8500  176.9610  142.0210 C   0  0  2  0  0  3  0  0  0  0  0  0
  189.5120  179.2530  141.6760 O   0  0  0  0  0  1  0  0  0  0  0  0
  189.5160  176.1840  137.3820 C   0  0  0  0  0  2  0  0  0  0  0  0
  190.5540  177.1270  138.0130 C   0  0  2  0  0  3  0  0  0  0  0  0
  186.5010  176.3390  136.5820 N   0  0  0  0  0  0  0  0  0  0  0  0
  187.8080  177.2520  138.9720 C   0  0  2  0  0  3  0  0  0  0  0  0
  190.5310  176.1310  140.3560 C   0  0  0  0  0  2  0  0  0  0  0  0
  185.8760  175.9230  135.3540 C   0  0  0  0  0  0  0  0  0  0  0  0
  192.4080  176.2480  136.4840 C   0  0  0  0  0  0  0  0  0  0  0  0
  193.6920  176.0240  136.5950 O   0  0  0  0  0  0  0  0  0  0  0  0
  191.9560  176.7120  137.6930 C   0  0  0  0  0  0  0  0  0  0  0  0
  194.0460  176.3460  137.8230 C   0  0  0  0  0  3  0  0  0  0  0  0
  192.9930  176.7880  138.5490 N   0  0  0  0  0  0  0  0  0  0  0  0
  191.6040  176.0010  135.2530 C   0  0  0  0  0  2  0  0  0  0  0  0
  191.6930  174.5400  134.8650 C   0  0  0  0  0  1  0  0  0  0  0  0
  188.5600  177.1200  143.4830 C   0  0  0  0  0  0  0  0  0  0  0  0
  189.4040  177.8680  144.2950 O   0  0  0  0  0  1  0  0  0  0  0  0
  187.5380  176.5780  143.9770 O   0  0  0  0  0  0  0  0  0  0  0  0
  184.9610  173.7290  136.3110 C   0  0  0  0  0  3  0  0  0  0  0  0
  183.5130  173.9270  136.7690 C   0  0  0  0  0  2  0  0  0  0  0  0
  183.3960  174.9590  137.8800 C   0  0  0  0  0  1  0  0  0  0  0  0
  185.2340  172.2890  135.9020 C   0  0  0  0  0  2  0  0  0  0  0  0
  184.1260  171.3800  136.4000 C   0  0  0  0  0  1  0  0  0  0  0  0
  1 12  1  0  0  0  0
  3 19  2  0  0  0  0
  4  8  1  0  0  0  0
  5 17  1  0  0  0  0
  6 17  1  0  0  0  0
  7 19  1  0  0  0  0
  7 30  1  0  0  0  0
  8  2  1  0  0  0  0
  8 13  1  0  0  0  0
  8 12  1  0  0  0  0
  9  6  2  0  0  0  0
 10  5  1  0  0  0  0
 11  4  1  0  0  0  0
 11 18  1  0  0  0  0
 12 27  1  0  0  0  0
 14 15  1  0  0  0  0
 14  5  1  0  0  0  0
 15 11  1  0  0  0  0
 16  9  1  0  0  0  0
 16 10  1  0  0  0  0
 17  4  1  0  0  0  0
 18  1  1  0  0  0  0
 19 16  1  0  0  0  0
 20 21  1  0  0  0  0
 20 22  2  0  0  0  0
 21 23  1  0  0  0  0
 22 15  1  0  0  0  0
 22 24  1  0  0  0  0
 23 24  2  0  0  0  0
 25 20  1  0  0  0  0
 26 25  1  0  0  0  0
 27 29  2  0  0  0  0
 27 28  1  0  0  0  0
 30 31  1  0  0  0  0
 31 32  1  0  0  0  0
 33 30  1  0  0  0  0
 33 34  1  0  0  0  0
M  END
>  <MODEL>
6

>  <REMARK>
 VINA RESULT:      -3.7      4.587      8.666
  Name = 
  6 active torsions:
  status: ('A' for Active; 'I' for Inactive)
    1  A    between atoms: C_6  and  C_24
    2  A    between atoms: C_7  and  C_23
    3  A    between atoms: C_11  and  C_20
    4  A    between atoms: C_12  and  C_28
    5  A    between atoms: N_13  and  C_20
    6  A    between atoms: C_14  and  C_20
                            x       y       z     vdW  Elec       q    Type
                         _______ _______ _______ _____ _____    ______ ____

>  <TORSDO>
F 6

$$$$
=
 OpenBabel10272400123D

 34 37  0  0  1  0  0  0  0  0999 V2000
  180.9970  174.1580  138.3540 C   0  0  0  0  0  2  0  0  0  0  0  0
  182.2400  173.6360  134.7130 C   0  0  0  0  0  1  0  0  0  0  0  0
  187.3980  179.0180  135.0360 N   0  0  0  0  0  2  0  0  0  0  0  0
  182.0980  175.7320  136.1050 C   0  0  1  0  0  3  0  0  0  0  0  0
  184.2620  176.4260  137.3440 C   0  0  1  0  0  3  0  0  0  0  0  0
  184.0970  176.5100  134.8330 C   0  0  0  0  0  3  0  0  0  0  0  0
  188.5090  177.6760  136.6040 N   0  0  0  0  0  2  0  0  0  0  0  0
  181.5270  174.3150  135.8780 C   0  0  2  0  0  0  0  0  0  0  0  0
  185.2640  177.1520  134.7830 C   0  0  0  0  0  3  0  0  0  0  0  0
  185.7750  176.5610  137.1840 C   0  0  0  0  0  2  0  0  0  0  0  0
  181.4650  176.4150  137.3380 C   0  0  2  0  0  3  0  0  0  0  0  0
  181.6790  173.4760  137.1680 C   0  0  2  0  0  3  0  0  0  0  0  0
  180.1730  174.4300  135.5460 O   0  0  0  0  0  1  0  0  0  0  0  0
  183.6290  177.7710  137.7240 C   0  0  0  0  0  2  0  0  0  0  0  0
  182.1030  177.7980  137.5350 C   0  0  2  0  0  3  0  0  0  0  0  0
  186.1290  177.2370  135.9290 N   0  0  0  0  0  0  0  0  0  0  0  0
  183.6440  175.8020  136.0780 C   0  0  2  0  0  3  0  0  0  0  0  0
  181.5960  175.5380  138.5910 C   0  0  0  0  0  2  0  0  0  0  0  0
  187.3440  178.0020  135.8330 C   0  0  0  0  0  0  0  0  0  0  0  0
  181.9710  179.0220  139.7770 C   0  0  0  0  0  0  0  0  0  0  0  0
  181.0730  179.7310  140.4100 O   0  0  0  0  0  0  0  0  0  0  0  0
  181.4210  178.6090  138.5910 C   0  0  0  0  0  0  0  0  0  0  0  0
  179.9980  179.7790  139.6510 C   0  0  0  0  0  3  0  0  0  0  0  0
  180.1680  179.0940  138.4970 N   0  0  0  0  0  0  0  0  0  0  0  0
  183.3340  178.7130  140.2980 C   0  0  0  0  0  2  0  0  0  0  0  0
  183.2280  178.0660  141.6630 C   0  0  0  0  0  1  0  0  0  0  0  0
  181.1670  172.0740  137.0230 C   0  0  0  0  0  0  0  0  0  0  0  0
  181.9910  171.0650  136.5410 O   0  0  0  0  0  0  0  0  0  0  0  0
  179.9820  171.8090  137.3520 O   0  0  0  0  0  1  0  0  0  0  0  0
  188.7170  176.4110  137.2990 C   0  0  0  0  0  3  0  0  0  0  0  0
  189.5900  175.4680  136.4650 C   0  0  0  0  0  2  0  0  0  0  0  0
  190.6760  174.8010  137.2970 C   0  0  0  0  0  1  0  0  0  0  0  0
  189.3160  176.6710  138.6730 C   0  0  0  0  0  2  0  0  0  0  0  0
  189.0550  178.1040  139.1000 C   0  0  0  0  0  1  0  0  0  0  0  0
  1 18  1  0  0  0  0
  2  8  1  0  0  0  0
  3 19  2  0  0  0  0
  4 11  1  0  0  0  0
  5 14  1  0  0  0  0
  6 17  1  0  0  0  0
  7 30  1  0  0  0  0
  8  4  1  0  0  0  0
  8 12  1  0  0  0  0
  9  6  2  0  0  0  0
  9 16  1  0  0  0  0
 10  5  1  0  0  0  0
 11 15  1  0  0  0  0
 11 18  1  0  0  0  0
 12  1  1  0  0  0  0
 13  8  1  0  0  0  0
 15 14  1  0  0  0  0
 15 22  1  0  0  0  0
 16 10  1  0  0  0  0
 17  4  1  0  0  0  0
 17  5  1  0  0  0  0
 19 16  1  0  0  0  0
 19  7  1  0  0  0  0
 20 25  1  0  0  0  0
 20 21  1  0  0  0  0
 22 20  2  0  0  0  0
 23 21  1  0  0  0  0
 24 22  1  0  0  0  0
 24 23  2  0  0  0  0
 25 26  1  0  0  0  0
 27 12  1  0  0  0  0
 27 29  1  0  0  0  0
 28 27  2  0  0  0  0
 30 33  1  0  0  0  0
 31 32  1  0  0  0  0
 31 30  1  0  0  0  0
 33 34  1  0  0  0  0
M  END
>  <MODEL>
7

>  <REMARK>
 VINA RESULT:      -3.4      1.689      2.410
  Name = 
  6 active torsions:
  status: ('A' for Active; 'I' for Inactive)
    1  A    between atoms: C_6  and  C_24
    2  A    between atoms: C_7  and  C_23
    3  A    between atoms: C_11  and  C_20
    4  A    between atoms: C_12  and  C_28
    5  A    between atoms: N_13  and  C_20
    6  A    between atoms: C_14  and  C_20
                            x       y       z     vdW  Elec       q    Type
                         _______ _______ _______ _____ _____    ______ ____

>  <TORSDO>
F 6

$$$$
=
 OpenBabel10272400123D

 34 37  0  0  1  0  0  0  0  0999 V2000
  182.3260  175.7450  138.6110 C   0  0  0  0  0  2  0  0  0  0  0  0
  182.6370  176.4560  134.8060 C   0  0  0  0  0  1  0  0  0  0  0  0
  189.9660  177.8390  135.0240 N   0  0  0  0  0  2  0  0  0  0  0  0
  183.8940  177.4360  136.7580 C   0  0  1  0  0  3  0  0  0  0  0  0
  186.1720  176.3390  137.3120 C   0  0  1  0  0  3  0  0  0  0  0  0
  185.8230  177.6480  135.1910 C   0  0  0  0  0  3  0  0  0  0  0  0
  190.2410  175.5780  135.5770 N   0  0  0  0  0  2  0  0  0  0  0  0
  182.5830  176.7600  136.3000 C   0  0  2  0  0  0  0  0  0  0  0  0
  187.1310  177.5910  134.9460 C   0  0  0  0  0  3  0  0  0  0  0  0
  187.4510  175.7890  136.6850 C   0  0  0  0  0  2  0  0  0  0  0  0
  183.9150  177.6740  138.2840 C   0  0  2  0  0  3  0  0  0  0  0  0
  182.3510  175.4630  137.1080 C   0  0  2  0  0  3  0  0  0  0  0  0
  181.5250  177.6490  136.5200 O   0  0  0  0  0  1  0  0  0  0  0  0
  186.4890  177.4660  138.3040 C   0  0  0  0  0  2  0  0  0  0  0  0
  185.2570  178.3050  138.6810 C   0  0  2  0  0  3  0  0  0  0  0  0
  187.9980  176.7060  135.6770 N   0  0  0  0  0  0  0  0  0  0  0  0
  185.1770  176.7600  136.2140 C   0  0  2  0  0  3  0  0  0  0  0  0
  183.6400  176.3750  139.0560 C   0  0  0  0  0  2  0  0  0  0  0  0
  189.4130  176.7380  135.4140 C   0  0  0  0  0  0  0  0  0  0  0  0
  186.4050  178.8060  140.9120 C   0  0  0  0  0  0  0  0  0  0  0  0
  186.0340  179.2660  142.0780 O   0  0  0  0  0  0  0  0  0  0  0  0
  185.2930  178.7440  140.1110 C   0  0  0  0  0  0  0  0  0  0  0  0
  184.7390  179.5010  142.0180 C   0  0  0  0  0  3  0  0  0  0  0  0
  184.2290  179.1940  140.8030 N   0  0  0  0  0  0  0  0  0  0  0  0
  187.7960  178.4020  140.5590 C   0  0  0  0  0  2  0  0  0  0  0  0
  188.3790  177.5480  141.6660 C   0  0  0  0  0  1  0  0  0  0  0  0
  181.1050  174.7320  136.7070 C   0  0  0  0  0  0  0  0  0  0  0  0
  181.1800  173.5510  135.9790 O   0  0  0  0  0  0  0  0  0  0  0  0
  179.9820  175.1890  137.0420 O   0  0  0  0  0  1  0  0  0  0  0  0
  189.7430  174.2140  135.7060 C   0  0  0  0  0  3  0  0  0  0  0  0
  189.7380  173.5050  134.3480 C   0  0  0  0  0  2  0  0  0  0  0  0
  189.0920  172.1300  134.4180 C   0  0  0  0  0  1  0  0  0  0  0  0
  190.5710  173.4590  136.7360 C   0  0  0  0  0  2  0  0  0  0  0  0
  191.7090  174.3280  137.2380 C   0  0  0  0  0  1  0  0  0  0  0  0
  1 18  1  0  0  0  0
  2  8  1  0  0  0  0
  3 19  2  0  0  0  0
  4 11  1  0  0  0  0
  5 14  1  0  0  0  0
  6 17  1  0  0  0  0
  7 30  1  0  0  0  0
  8 13  1  0  0  0  0
  8  4  1  0  0  0  0
  8 12  1  0  0  0  0
  9  6  2  0  0  0  0
  9 16  1  0  0  0  0
 10  5  1  0  0  0  0
 11 15  1  0  0  0  0
 11 18  1  0  0  0  0
 12  1  1  0  0  0  0
 14 15  1  0  0  0  0
 15 22  1  0  0  0  0
 16 10  1  0  0  0  0
 17  4  1  0  0  0  0
 17  5  1  0  0  0  0
 19  7  1  0  0  0  0
 19 16  1  0  0  0  0
 20 21  1  0  0  0  0
 22 24  1  0  0  0  0
 22 20  2  0  0  0  0
 23 21  1  0  0  0  0
 24 23  2  0  0  0  0
 25 20  1  0  0  0  0
 25 26  1  0  0  0  0
 27 29  1  0  0  0  0
 27 12  1  0  0  0  0
 28 27  2  0  0  0  0
 30 33  1  0  0  0  0
 31 32  1  0  0  0  0
 31 30  1  0  0  0  0
 33 34  1  0  0  0  0
M  END
>  <MODEL>
8

>  <REMARK>
 VINA RESULT:      -3.3      2.453      4.042
  Name = 
  6 active torsions:
  status: ('A' for Active; 'I' for Inactive)
    1  A    between atoms: C_6  and  C_24
    2  A    between atoms: C_7  and  C_23
    3  A    between atoms: C_11  and  C_20
    4  A    between atoms: C_12  and  C_28
    5  A    between atoms: N_13  and  C_20
    6  A    between atoms: C_14  and  C_20
                            x       y       z     vdW  Elec       q    Type
                         _______ _______ _______ _____ _____    ______ ____

>  <TORSDO>
F 6

$$$$
=
 OpenBabel10272400123D

 34 37  0  0  1  0  0  0  0  0999 V2000
  189.7820  174.4070  136.9720 C   0  0  0  0  0  2  0  0  0  0  0  0
  193.4370  175.5160  137.6690 C   0  0  0  0  0  1  0  0  0  0  0  0
  191.7020  179.6850  143.6090 N   0  0  0  0  0  2  0  0  0  0  0  0
  191.2630  176.7390  138.0270 C   0  0  1  0  0  3  0  0  0  0  0  0
  190.2550  176.5990  140.4070 C   0  0  1  0  0  3  0  0  0  0  0  0
  192.3960  177.8420  139.9560 C   0  0  0  0  0  3  0  0  0  0  0  0
  191.1140  177.6830  144.6760 N   0  0  0  0  0  2  0  0  0  0  0  0
  191.9850  175.6400  137.2170 C   0  0  2  0  0  0  0  0  0  0  0  0
  192.3660  178.3340  141.1940 C   0  0  0  0  0  3  0  0  0  0  0  0
  190.6060  176.6640  141.8910 C   0  0  0  0  0  2  0  0  0  0  0  0
  189.7640  176.8300  137.6630 C   0  0  2  0  0  3  0  0  0  0  0  0
  191.2480  174.2920  137.3900 C   0  0  2  0  0  3  0  0  0  0  0  0
  191.9840  176.0100  135.8680 O   0  0  0  0  0  1  0  0  0  0  0  0
  189.2140  177.6670  140.0430 C   0  0  0  0  0  2  0  0  0  0  0  0
  189.0960  177.9070  138.5290 C   0  0  2  0  0  3  0  0  0  0  0  0
  191.4750  177.8080  142.1930 N   0  0  0  0  0  0  0  0  0  0  0  0
  191.5320  176.6830  139.5510 C   0  0  2  0  0  3  0  0  0  0  0  0
  189.0720  175.4670  137.8040 C   0  0  0  0  0  2  0  0  0  0  0  0
  191.4400  178.4250  143.4930 C   0  0  0  0  0  0  0  0  0  0  0  0
  187.2120  178.2310  136.8290 C   0  0  0  0  0  0  0  0  0  0  0  0
  185.9300  178.4840  136.8820 O   0  0  0  0  0  0  0  0  0  0  0  0
  187.6870  178.1950  138.1150 C   0  0  0  0  0  0  0  0  0  0  0  0
  185.5990  178.5910  138.1530 C   0  0  0  0  0  3  0  0  0  0  0  0
  186.6670  178.4130  138.9650 N   0  0  0  0  0  0  0  0  0  0  0  0
  187.9920  178.0500  135.5710 C   0  0  0  0  0  2  0  0  0  0  0  0
  187.1470  177.3270  134.5420 C   0  0  0  0  0  1  0  0  0  0  0  0
  191.9010  173.1630  136.6510 C   0  0  0  0  0  0  0  0  0  0  0  0
  193.1810  172.7420  136.9890 O   0  0  0  0  0  1  0  0  0  0  0  0
  191.2790  172.5870  135.7210 O   0  0  0  0  0  0  0  0  0  0  0  0
  191.0980  176.2280  144.7660 C   0  0  0  0  0  3  0  0  0  0  0  0
  191.9820  175.7420  145.9180 C   0  0  0  0  0  2  0  0  0  0  0  0
  191.5560  176.3260  147.2570 C   0  0  0  0  0  1  0  0  0  0  0  0
  189.6640  175.7370  144.9060 C   0  0  0  0  0  2  0  0  0  0  0  0
  188.7080  176.9130  144.9760 C   0  0  0  0  0  1  0  0  0  0  0  0
  1 12  1  0  0  0  0
  1 18  1  0  0  0  0
  4 17  1  0  0  0  0
  5 10  1  0  0  0  0
  6  9  2  0  0  0  0
  7 30  1  0  0  0  0
  8 12  1  0  0  0  0
  8  2  1  0  0  0  0
  8  4  1  0  0  0  0
  9 16  1  0  0  0  0
 10 16  1  0  0  0  0
 11 18  1  0  0  0  0
 11  4  1  0  0  0  0
 11 15  1  0  0  0  0
 13  8  1  0  0  0  0
 14  5  1  0  0  0  0
 15 14  1  0  0  0  0
 16 19  1  0  0  0  0
 17  6  1  0  0  0  0
 17  5  1  0  0  0  0
 19  3  2  0  0  0  0
 19  7  1  0  0  0  0
 20 21  1  0  0  0  0
 20 22  2  0  0  0  0
 21 23  1  0  0  0  0
 22 15  1  0  0  0  0
 22 24  1  0  0  0  0
 23 24  2  0  0  0  0
 25 20  1  0  0  0  0
 26 25  1  0  0  0  0
 27 28  1  0  0  0  0
 27 12  1  0  0  0  0
 29 27  2  0  0  0  0
 30 33  1  0  0  0  0
 30 31  1  0  0  0  0
 31 32  1  0  0  0  0
 33 34  1  0  0  0  0
M  END
>  <MODEL>
9

>  <REMARK>
 VINA RESULT:      -2.9      4.016      7.137
  Name = 
  6 active torsions:
  status: ('A' for Active; 'I' for Inactive)
    1  A    between atoms: C_6  and  C_24
    2  A    between atoms: C_7  and  C_23
    3  A    between atoms: C_11  and  C_20
    4  A    between atoms: C_12  and  C_28
    5  A    between atoms: N_13  and  C_20
    6  A    between atoms: C_14  and  C_20
                            x       y       z     vdW  Elec       q    Type
                         _______ _______ _______ _____ _____    ______ ____

>  <TORSDO>
F 6

$$$$
