=
 OpenBabel10272401023D

 27 30  0  0  1  0  0  0  0  0999 V2000
  189.0400  177.0870  138.2490 C   0  0  2  0  0  3  0  0  0  0  0  0
  188.3460  178.7730  136.4220 O   0  0  0  0  0  1  0  0  0  0  0  0
  192.7900  175.1940  137.7490 C   0  0  0  0  0  3  0  0  0  0  0  0
  190.3900  176.6090  137.9000 N   0  0  1  0  0  0  0  0  0  0  0  0
  191.3470  176.8410  138.9900 C   0  0  0  0  0  2  0  0  0  0  0  0
  186.5630  176.7810  137.8930 C   0  0  0  0  0  1  0  0  0  0  0  0
  189.2470  174.7000  136.7460 C   0  0  0  0  0  2  0  0  0  0  0  0
  192.7620  176.4940  138.5170 C   0  0  0  0  0  2  0  0  0  0  0  0
  188.8280  175.8440  135.8400 C   0  0  0  0  0  2  0  0  0  0  0  0
  191.6640  174.5870  137.3470 C   0  0  0  0  0  3  0  0  0  0  0  0
  187.9310  177.1640  136.7580 P   0  0  0  0  0  0  0  0  0  0  0  0
  190.3210  175.1450  137.7390 C   0  0  1  0  0  3  0  0  0  0  0  0
  185.3950  177.2480  135.8810 O   0  0  0  0  0  1  0  0  0  0  0  0
  186.9200  178.2730  134.5220 O   0  0  0  0  0  1  0  0  0  0  0  0
  186.7010  177.1970  135.3880 C   0  0  0  0  0  3  0  0  0  0  0  0
  189.0330  178.4190  139.0250 C   0  0  0  0  0  2  0  0  0  0  0  0
  188.4390  178.3040  140.3970 C   0  0  0  0  0  0  0  0  0  0  0  0
  186.4590  177.7180  144.0900 C   0  0  0  0  0  3  0  0  0  0  0  0
  184.6350  178.3190  145.5500 O   0  0  0  0  0  1  0  0  0  0  0  0
  189.2320  177.7490  141.5600 C   0  0  0  0  0  2  0  0  0  0  0  0
  185.3820  179.3540  142.0860 C   0  0  0  0  0  3  0  0  0  0  0  0
  184.7390  179.2440  143.3230 C   0  0  0  0  0  3  0  0  0  0  0  0
  187.2350  178.7610  140.5870 N   0  0  0  0  0  0  0  0  0  0  0  0
  185.2790  178.4290  144.3250 C   0  0  0  0  0  0  0  0  0  0  0  0
  187.1120  177.8390  142.8600 C   0  0  0  0  0  0  0  0  0  0  0  0
  186.5700  178.6550  141.8530 C   0  0  0  0  0  0  0  0  0  0  0  0
  188.3310  177.0220  142.5590 C   0  0  0  0  0  2  0  0  0  0  0  0
  1 16  1  6  0  0  0
  2 11  1  0  0  0  0
  3  8  1  0  0  0  0
  4  1  1  0  0  0  0
  4  5  1  1  0  0  0
  8  5  1  0  0  0  0
  9  7  1  0  0  0  0
  9 11  1  0  0  0  0
 10 12  1  0  0  0  0
 10  3  2  0  0  0  0
 11  6  1  0  0  0  0
 11  1  1  0  0  0  0
 12  7  1  6  0  0  0
 12  4  1  0  0  0  0
 14 15  1  0  0  0  0
 15 13  1  0  0  0  0
 15 11  1  0  0  0  0
 16 17  1  0  0  0  0
 17 23  2  0  0  0  0
 17 20  1  0  0  0  0
 18 24  1  0  0  0  0
 20 27  1  0  0  0  0
 21 22  1  0  0  0  0
 22 24  2  0  0  0  0
 23 26  1  0  0  0  0
 24 19  1  0  0  0  0
 25 18  2  0  0  0  0
 26 21  2  0  0  0  0
 26 25  1  0  0  0  0
 27 25  1  0  0  0  0
M  END
>  <MODEL>
1

>  <REMARK>
 VINA RESULT:      -7.3      0.000      0.000
  Name = 
  3 active torsions:
  status: ('A' for Active; 'I' for Inactive)
    1  A    between atoms: C_1  and  C_15
    2  A    between atoms: C_2  and  C_15
    3  A    between atoms: C_20  and  P_26
                            x       y       z     vdW  Elec       q    Type
                         _______ _______ _______ _____ _____    ______ ____

>  <TORSDO>
F 3

$$$$
=
 OpenBabel10272401023D

 27 30  0  0  1  0  0  0  0  0999 V2000
  184.4980  177.6350  138.4520 C   0  0  2  0  0  3  0  0  0  0  0  0
  182.2680  178.6180  137.6010 O   0  0  0  0  0  1  0  0  0  0  0  0
  187.5550  177.1100  135.5750 C   0  0  0  0  0  3  0  0  0  0  0  0
  185.4190  177.6030  137.3020 N   0  0  1  0  0  0  0  0  0  0  0  0
  186.6570  178.3450  137.5760 C   0  0  0  0  0  2  0  0  0  0  0  0
  182.6630  176.4270  139.6880 C   0  0  0  0  0  1  0  0  0  0  0  0
  184.6540  175.2420  136.9530 C   0  0  0  0  0  2  0  0  0  0  0  0
  187.4990  178.4340  136.2990 C   0  0  0  0  0  2  0  0  0  0  0  0
  183.3780  175.9860  136.6030 C   0  0  0  0  0  2  0  0  0  0  0  0
  186.7550  176.0880  135.9100 C   0  0  0  0  0  3  0  0  0  0  0  0
  182.7940  177.0530  137.9860 P   0  0  0  0  0  0  0  0  0  0  0  0
  185.8340  176.2040  137.0960 C   0  0  1  0  0  3  0  0  0  0  0  0
  181.0810  175.0140  137.6480 O   0  0  0  0  0  1  0  0  0  0  0  0
  180.1910  176.8650  138.6500 O   0  0  0  0  0  1  0  0  0  0  0  0
  181.0960  176.4100  137.6850 C   0  0  0  0  0  3  0  0  0  0  0  0
  184.4500  178.9970  139.1720 C   0  0  0  0  0  2  0  0  0  0  0  0
  184.8310  178.9170  140.6200 C   0  0  0  0  0  0  0  0  0  0  0  0
  185.6850  178.3140  144.7200 C   0  0  0  0  0  3  0  0  0  0  0  0
  184.9410  178.4760  147.0090 O   0  0  0  0  0  1  0  0  0  0  0  0
  186.2790  178.8830  141.0580 C   0  0  0  0  0  2  0  0  0  0  0  0
  183.1410  179.1000  143.8470 C   0  0  0  0  0  3  0  0  0  0  0  0
  183.4090  178.9840  145.2150 C   0  0  0  0  0  3  0  0  0  0  0  0
  183.8810  178.9480  141.5100 N   0  0  0  0  0  0  0  0  0  0  0  0
  184.6810  178.5940  145.6510 C   0  0  0  0  0  0  0  0  0  0  0  0
  185.4250  178.4440  143.3530 C   0  0  0  0  0  0  0  0  0  0  0  0
  184.1480  178.8340  142.9140 C   0  0  0  0  0  0  0  0  0  0  0  0
  186.4610  178.0680  142.3390 C   0  0  0  0  0  2  0  0  0  0  0  0
  1 16  1  6  0  0  0
  2 11  1  0  0  0  0
  3 10  2  0  0  0  0
  3  8  1  0  0  0  0
  4  5  1  1  0  0  0
  4  1  1  0  0  0  0
  7 12  1  0  0  0  0
  8  5  1  0  0  0  0
  9  7  1  0  0  0  0
  9 11  1  0  0  0  0
 11  1  1  0  0  0  0
 11  6  1  0  0  0  0
 12 10  1  6  0  0  0
 12  4  1  0  0  0  0
 13 15  1  0  0  0  0
 15 11  1  0  0  0  0
 15 14  1  0  0  0  0
 16 17  1  0  0  0  0
 17 20  1  0  0  0  0
 17 23  2  0  0  0  0
 18 24  1  0  0  0  0
 20 27  1  0  0  0  0
 21 22  1  0  0  0  0
 22 24  2  0  0  0  0
 23 26  1  0  0  0  0
 24 19  1  0  0  0  0
 25 18  2  0  0  0  0
 26 25  1  0  0  0  0
 26 21  2  0  0  0  0
 27 25  1  0  0  0  0
M  END
>  <MODEL>
2

>  <REMARK>
 VINA RESULT:      -7.3      3.579      4.522
  Name = 
  3 active torsions:
  status: ('A' for Active; 'I' for Inactive)
    1  A    between atoms: C_1  and  C_15
    2  A    between atoms: C_2  and  C_15
    3  A    between atoms: C_20  and  P_26
                            x       y       z     vdW  Elec       q    Type
                         _______ _______ _______ _____ _____    ______ ____

>  <TORSDO>
F 3

$$$$
=
 OpenBabel10272401023D

 27 30  0  0  1  0  0  0  0  0999 V2000
  188.8090  177.6490  142.3270 C   0  0  2  0  0  3  0  0  0  0  0  0
  190.6780  179.0240  143.4570 O   0  0  0  0  0  1  0  0  0  0  0  0
  184.8380  178.9410  143.0030 C   0  0  0  0  0  3  0  0  0  0  0  0
  187.5330  178.3140  142.6480 N   0  0  1  0  0  0  0  0  0  0  0  0
  186.7890  178.6760  141.4350 C   0  0  0  0  0  2  0  0  0  0  0  0
  190.5500  175.9970  143.0960 C   0  0  0  0  0  1  0  0  0  0  0  0
  187.3680  176.7230  144.5780 C   0  0  0  0  0  2  0  0  0  0  0  0
  185.5660  179.5170  141.8120 C   0  0  0  0  0  2  0  0  0  0  0  0
  188.5470  177.5650  145.0320 C   0  0  0  0  0  2  0  0  0  0  0  0
  185.3700  177.9630  143.7500 C   0  0  0  0  0  3  0  0  0  0  0  0
  189.9250  177.5470  143.8120 P   0  0  0  0  0  0  0  0  0  0  0  0
  186.6840  177.3400  143.3580 C   0  0  1  0  0  3  0  0  0  0  0  0
  190.4070  177.2670  146.4370 O   0  0  0  0  0  1  0  0  0  0  0  0
  191.8340  176.1220  145.0670 O   0  0  0  0  0  1  0  0  0  0  0  0
  191.0870  177.2940  145.2170 C   0  0  0  0  0  3  0  0  0  0  0  0
  189.5390  178.2570  141.1140 C   0  0  0  0  0  2  0  0  0  0  0  0
  189.6180  177.3280  139.9400 C   0  0  0  0  0  0  0  0  0  0  0  0
  189.7860  175.0560  136.3750 C   0  0  0  0  0  3  0  0  0  0  0  0
  188.5880  173.9630  134.5880 O   0  0  0  0  0  1  0  0  0  0  0  0
  190.8440  176.4790  139.6830 C   0  0  0  0  0  2  0  0  0  0  0  0
  187.3710  176.0960  137.3450 C   0  0  0  0  0  3  0  0  0  0  0  0
  187.3790  175.2850  136.2050 C   0  0  0  0  0  3  0  0  0  0  0  0
  188.5710  177.2100  139.1750 N   0  0  0  0  0  0  0  0  0  0  0  0
  188.5850  174.7640  135.7220 C   0  0  0  0  0  0  0  0  0  0  0  0
  189.7790  175.8520  137.5230 C   0  0  0  0  0  0  0  0  0  0  0  0
  188.5690  176.3780  138.0070 C   0  0  0  0  0  0  0  0  0  0  0  0
  191.0630  176.2450  138.1880 C   0  0  0  0  0  2  0  0  0  0  0  0
  1 16  1  6  0  0  0
  1  4  1  0  0  0  0
  1 11  1  0  0  0  0
  2 11  1  0  0  0  0
  3 10  2  0  0  0  0
  4  5  1  6  0  0  0
  4 12  1  0  0  0  0
  5  8  1  0  0  0  0
  6 11  1  0  0  0  0
  7  9  1  0  0  0  0
  8  3  1  0  0  0  0
 11  9  1  0  0  0  0
 11 15  1  0  0  0  0
 12 10  1  1  0  0  0
 12  7  1  0  0  0  0
 14 15  1  0  0  0  0
 15 13  1  0  0  0  0
 17 16  1  0  0  0  0
 18 25  1  0  0  0  0
 19 24  1  0  0  0  0
 20 17  1  0  0  0  0
 21 26  1  0  0  0  0
 22 21  2  0  0  0  0
 23 17  2  0  0  0  0
 24 22  1  0  0  0  0
 24 18  2  0  0  0  0
 25 26  2  0  0  0  0
 25 27  1  0  0  0  0
 26 23  1  0  0  0  0
 27 20  1  0  0  0  0
M  END
>  <MODEL>
3

>  <REMARK>
 VINA RESULT:      -7.2      3.113      7.825
  Name = 
  3 active torsions:
  status: ('A' for Active; 'I' for Inactive)
    1  A    between atoms: C_1  and  C_15
    2  A    between atoms: C_2  and  C_15
    3  A    between atoms: C_20  and  P_26
                            x       y       z     vdW  Elec       q    Type
                         _______ _______ _______ _____ _____    ______ ____

>  <TORSDO>
F 3

$$$$
=
 OpenBabel10272401023D

 27 30  0  0  1  0  0  0  0  0999 V2000
  189.1720  177.4880  138.8430 C   0  0  2  0  0  3  0  0  0  0  0  0
  188.5110  179.4860  137.3490 O   0  0  0  0  0  1  0  0  0  0  0  0
  192.9810  175.7830  138.1460 C   0  0  0  0  0  3  0  0  0  0  0  0
  190.5450  177.1060  138.4660 N   0  0  1  0  0  0  0  0  0  0  0  0
  191.4540  177.1370  139.6200 C   0  0  0  0  0  2  0  0  0  0  0  0
  186.7190  177.2200  138.3320 C   0  0  0  0  0  1  0  0  0  0  0  0
  189.4910  175.4410  136.9190 C   0  0  0  0  0  2  0  0  0  0  0  0
  192.8940  176.9090  139.1480 C   0  0  0  0  0  2  0  0  0  0  0  0
  189.0810  176.7320  136.2330 C   0  0  0  0  0  2  0  0  0  0  0  0
  191.8850  175.2490  137.5870 C   0  0  0  0  0  3  0  0  0  0  0  0
  188.1190  177.8360  137.3500 P   0  0  0  0  0  0  0  0  0  0  0  0
  190.5160  175.7010  138.0230 C   0  0  1  0  0  3  0  0  0  0  0  0
  187.5330  177.8220  134.7310 O   0  0  0  0  0  1  0  0  0  0  0  0
  185.7730  177.3650  136.1150 O   0  0  0  0  0  1  0  0  0  0  0  0
  186.9430  178.1160  135.9620 C   0  0  0  0  0  3  0  0  0  0  0  0
  189.1060  178.6440  139.8610 C   0  0  0  0  0  2  0  0  0  0  0  0
  188.8290  178.1860  141.2620 C   0  0  0  0  0  0  0  0  0  0  0  0
  188.1680  177.2960  145.3450 C   0  0  0  0  0  3  0  0  0  0  0  0
  189.1010  176.6520  147.4740 O   0  0  0  0  0  1  0  0  0  0  0  0
  187.4540  177.7150  141.6840 C   0  0  0  0  0  2  0  0  0  0  0  0
  190.7530  177.4860  144.2800 C   0  0  0  0  0  3  0  0  0  0  0  0
  190.5700  177.1150  145.6160 C   0  0  0  0  0  3  0  0  0  0  0  0
  189.8220  178.1350  142.1020 N   0  0  0  0  0  0  0  0  0  0  0  0
  189.2780  177.0170  146.1470 C   0  0  0  0  0  0  0  0  0  0  0  0
  188.3470  177.6510  144.0060 C   0  0  0  0  0  0  0  0  0  0  0  0
  189.6430  177.7520  143.4720 C   0  0  0  0  0  0  0  0  0  0  0  0
  187.1770  178.0350  143.1530 C   0  0  0  0  0  2  0  0  0  0  0  0
  1 16  1  1  0  0  0
  2 11  1  0  0  0  0
  3  8  1  0  0  0  0
  4  1  1  0  0  0  0
  4  5  1  1  0  0  0
  8  5  1  0  0  0  0
  9  7  1  0  0  0  0
  9 11  1  0  0  0  0
 10 12  1  0  0  0  0
 10  3  2  0  0  0  0
 11  6  1  0  0  0  0
 11  1  1  0  0  0  0
 12  7  1  6  0  0  0
 12  4  1  0  0  0  0
 13 15  1  0  0  0  0
 15 14  1  0  0  0  0
 15 11  1  0  0  0  0
 16 17  1  0  0  0  0
 17 20  1  0  0  0  0
 17 23  2  0  0  0  0
 18 24  1  0  0  0  0
 20 27  1  0  0  0  0
 21 22  1  0  0  0  0
 22 24  2  0  0  0  0
 23 26  1  0  0  0  0
 24 19  1  0  0  0  0
 25 18  2  0  0  0  0
 26 25  1  0  0  0  0
 26 21  2  0  0  0  0
 27 25  1  0  0  0  0
M  END
>  <MODEL>
4

>  <REMARK>
 VINA RESULT:      -7.0      1.876      2.626
  Name = 
  3 active torsions:
  status: ('A' for Active; 'I' for Inactive)
    1  A    between atoms: C_1  and  C_15
    2  A    between atoms: C_2  and  C_15
    3  A    between atoms: C_20  and  P_26
                            x       y       z     vdW  Elec       q    Type
                         _______ _______ _______ _____ _____    ______ ____

>  <TORSDO>
F 3

$$$$
=
 OpenBabel10272401023D

 27 30  0  0  1  0  0  0  0  0999 V2000
  184.4120  177.9020  138.8910 C   0  0  2  0  0  3  0  0  0  0  0  0
  182.3640  179.3070  138.1870 O   0  0  0  0  0  1  0  0  0  0  0  0
  187.4300  177.3650  135.9760 C   0  0  0  0  0  3  0  0  0  0  0  0
  185.3460  177.9040  137.7510 N   0  0  1  0  0  0  0  0  0  0  0  0
  186.6690  178.4130  138.1340 C   0  0  0  0  0  2  0  0  0  0  0  0
  182.3960  176.8040  139.9330 C   0  0  0  0  0  1  0  0  0  0  0  0
  184.2620  175.7530  137.0590 C   0  0  0  0  0  2  0  0  0  0  0  0
  187.5450  178.5640  136.8860 C   0  0  0  0  0  2  0  0  0  0  0  0
  183.1120  176.7150  136.8180 C   0  0  0  0  0  2  0  0  0  0  0  0
  186.4860  176.4300  136.1560 C   0  0  0  0  0  3  0  0  0  0  0  0
  182.6540  177.6430  138.3400 P   0  0  0  0  0  0  0  0  0  0  0  0
  185.5630  176.5040  137.3440 C   0  0  1  0  0  3  0  0  0  0  0  0
  180.6610  175.9310  137.7920 O   0  0  0  0  0  1  0  0  0  0  0  0
  180.0300  177.8150  138.9220 O   0  0  0  0  0  1  0  0  0  0  0  0
  180.8890  177.3010  137.9450 C   0  0  0  0  0  3  0  0  0  0  0  0
  184.5400  179.1380  139.8020 C   0  0  0  0  0  2  0  0  0  0  0  0
  184.8460  178.7950  141.2300 C   0  0  0  0  0  0  0  0  0  0  0  0
  185.9780  178.1710  145.2580 C   0  0  0  0  0  3  0  0  0  0  0  0
  187.5980  177.2880  146.8140 O   0  0  0  0  0  1  0  0  0  0  0  0
  183.7640  178.7640  142.2860 C   0  0  0  0  0  2  0  0  0  0  0  0
  187.7030  177.5640  143.1340 C   0  0  0  0  0  3  0  0  0  0  0  0
  188.0800  177.2740  144.4490 C   0  0  0  0  0  3  0  0  0  0  0  0
  186.0650  178.4510  141.5340 N   0  0  0  0  0  0  0  0  0  0  0  0
  187.2170  177.5750  145.5100 C   0  0  0  0  0  0  0  0  0  0  0  0
  185.5920  178.4470  143.9440 C   0  0  0  0  0  0  0  0  0  0  0  0
  186.4580  178.1480  142.8790 C   0  0  0  0  0  0  0  0  0  0  0  0
  184.3070  179.1610  143.6600 C   0  0  0  0  0  2  0  0  0  0  0  0
  1 16  1  6  0  0  0
  2 11  1  0  0  0  0
  3 10  2  0  0  0  0
  3  8  1  0  0  0  0
  4  5  1  1  0  0  0
  4  1  1  0  0  0  0
  7 12  1  0  0  0  0
  8  5  1  0  0  0  0
  9  7  1  0  0  0  0
  9 11  1  0  0  0  0
 11  1  1  0  0  0  0
 11  6  1  0  0  0  0
 12 10  1  6  0  0  0
 12  4  1  0  0  0  0
 13 15  1  0  0  0  0
 15 11  1  0  0  0  0
 15 14  1  0  0  0  0
 16 17  1  0  0  0  0
 17 23  2  0  0  0  0
 17 20  1  0  0  0  0
 18 24  1  0  0  0  0
 20 27  1  0  0  0  0
 21 22  1  0  0  0  0
 22 24  2  0  0  0  0
 23 26  1  0  0  0  0
 24 19  1  0  0  0  0
 25 18  2  0  0  0  0
 26 21  2  0  0  0  0
 26 25  1  0  0  0  0
 27 25  1  0  0  0  0
M  END
>  <MODEL>
5

>  <REMARK>
 VINA RESULT:      -7.0      3.603      4.830
  Name = 
  3 active torsions:
  status: ('A' for Active; 'I' for Inactive)
    1  A    between atoms: C_1  and  C_15
    2  A    between atoms: C_2  and  C_15
    3  A    between atoms: C_20  and  P_26
                            x       y       z     vdW  Elec       q    Type
                         _______ _______ _______ _____ _____    ______ ____

>  <TORSDO>
F 3

$$$$
=
 OpenBabel10272401023D

 27 30  0  0  1  0  0  0  0  0999 V2000
  188.8940  177.7210  142.3040 C   0  0  2  0  0  3  0  0  0  0  0  0
  190.7310  179.0740  143.5110 O   0  0  0  0  0  1  0  0  0  0  0  0
  184.8940  178.8780  143.0510 C   0  0  0  0  0  3  0  0  0  0  0  0
  187.6030  178.3360  142.6620 N   0  0  1  0  0  0  0  0  0  0  0  0
  186.8490  178.7480  141.4710 C   0  0  0  0  0  2  0  0  0  0  0  0
  190.6750  176.0690  142.9800 C   0  0  0  0  0  1  0  0  0  0  0  0
  187.4780  176.6350  144.4990 C   0  0  0  0  0  2  0  0  0  0  0  0
  185.6070  179.5380  141.8950 C   0  0  0  0  0  2  0  0  0  0  0  0
  188.6370  177.4780  145.0010 C   0  0  0  0  0  2  0  0  0  0  0  0
  185.4500  177.8720  143.7410 C   0  0  0  0  0  3  0  0  0  0  0  0
  190.0140  177.5620  143.7810 P   0  0  0  0  0  0  0  0  0  0  0  0
  186.7780  177.3040  143.3150 C   0  0  1  0  0  3  0  0  0  0  0  0
  190.5090  177.1870  146.3920 O   0  0  0  0  0  1  0  0  0  0  0  0
  191.9280  176.0900  144.9750 O   0  0  0  0  0  1  0  0  0  0  0  0
  191.1820  177.2580  145.1700 C   0  0  0  0  0  3  0  0  0  0  0  0
  189.6080  178.4140  141.1280 C   0  0  0  0  0  2  0  0  0  0  0  0
  189.5620  177.6220  139.8550 C   0  0  0  0  0  0  0  0  0  0  0  0
  189.4060  175.0310  136.5150 C   0  0  0  0  0  3  0  0  0  0  0  0
  190.5790  173.5300  135.0340 O   0  0  0  0  0  1  0  0  0  0  0  0
  188.4680  177.8310  138.8320 C   0  0  0  0  0  2  0  0  0  0  0  0
  191.7080  175.2560  138.0960 C   0  0  0  0  0  3  0  0  0  0  0  0
  191.7170  174.4470  136.9550 C   0  0  0  0  0  3  0  0  0  0  0  0
  190.5340  176.7900  139.6110 N   0  0  0  0  0  0  0  0  0  0  0  0
  190.5670  174.3370  136.1630 C   0  0  0  0  0  0  0  0  0  0  0  0
  189.3990  175.8520  137.6450 C   0  0  0  0  0  0  0  0  0  0  0  0
  190.5520  175.9610  138.4420 C   0  0  0  0  0  0  0  0  0  0  0  0
  188.1420  176.5360  138.0850 C   0  0  0  0  0  2  0  0  0  0  0  0
  1 16  1  6  0  0  0
  1  4  1  0  0  0  0
  1 11  1  0  0  0  0
  2 11  1  0  0  0  0
  3 10  2  0  0  0  0
  4  5  1  6  0  0  0
  4 12  1  0  0  0  0
  5  8  1  0  0  0  0
  6 11  1  0  0  0  0
  7  9  1  0  0  0  0
  8  3  1  0  0  0  0
 11  9  1  0  0  0  0
 11 15  1  0  0  0  0
 12 10  1  1  0  0  0
 12  7  1  0  0  0  0
 14 15  1  0  0  0  0
 15 13  1  0  0  0  0
 17 16  1  0  0  0  0
 18 25  1  0  0  0  0
 19 24  1  0  0  0  0
 20 17  1  0  0  0  0
 21 26  1  0  0  0  0
 22 21  2  0  0  0  0
 23 17  2  0  0  0  0
 24 18  2  0  0  0  0
 24 22  1  0  0  0  0
 25 27  1  0  0  0  0
 25 26  2  0  0  0  0
 26 23  1  0  0  0  0
 27 20  1  0  0  0  0
M  END
>  <MODEL>
6

>  <REMARK>
 VINA RESULT:      -6.9      3.193      8.059
  Name = 
  3 active torsions:
  status: ('A' for Active; 'I' for Inactive)
    1  A    between atoms: C_1  and  C_15
    2  A    between atoms: C_2  and  C_15
    3  A    between atoms: C_20  and  P_26
                            x       y       z     vdW  Elec       q    Type
                         _______ _______ _______ _____ _____    ______ ____

>  <TORSDO>
F 3

$$$$
=
 OpenBabel10272401023D

 27 30  0  0  1  0  0  0  0  0999 V2000
  184.5810  177.9600  138.9790 C   0  0  2  0  0  3  0  0  0  0  0  0
  182.4850  179.3970  138.5280 O   0  0  0  0  0  1  0  0  0  0  0  0
  187.1730  177.3140  135.6990 C   0  0  0  0  0  3  0  0  0  0  0  0
  185.3550  177.9250  137.7250 N   0  0  1  0  0  0  0  0  0  0  0  0
  186.7270  178.4110  137.9200 C   0  0  0  0  0  2  0  0  0  0  0  0
  182.7010  176.9210  140.2980 C   0  0  0  0  0  1  0  0  0  0  0  0
  184.1480  175.7860  137.2220 C   0  0  0  0  0  2  0  0  0  0  0  0
  187.4310  178.5240  136.5640 C   0  0  0  0  0  2  0  0  0  0  0  0
  182.9950  176.7690  137.1180 C   0  0  0  0  0  2  0  0  0  0  0  0
  186.2440  176.4020  136.0200 C   0  0  0  0  0  3  0  0  0  0  0  0
  182.7610  177.7300  138.6710 P   0  0  0  0  0  0  0  0  0  0  0  0
  185.4890  176.5140  137.3180 C   0  0  1  0  0  3  0  0  0  0  0  0
  180.6540  176.0680  138.7050 O   0  0  0  0  0  1  0  0  0  0  0  0
  180.2170  178.1930  139.4230 O   0  0  0  0  0  1  0  0  0  0  0  0
  180.9530  177.4200  138.5200 C   0  0  0  0  0  3  0  0  0  0  0  0
  184.8530  179.2070  139.8430 C   0  0  0  0  0  2  0  0  0  0  0  0
  185.5440  178.8940  141.1370 C   0  0  0  0  0  0  0  0  0  0  0  0
  187.2360  177.6580  144.8120 C   0  0  0  0  0  3  0  0  0  0  0  0
  187.0620  177.5730  147.2170 O   0  0  0  0  0  1  0  0  0  0  0  0
  187.0380  178.6670  141.2020 C   0  0  0  0  0  2  0  0  0  0  0  0
  184.6750  178.7880  144.6770 C   0  0  0  0  0  3  0  0  0  0  0  0
  185.2330  178.4620  145.9170 C   0  0  0  0  0  3  0  0  0  0  0  0
  184.8350  178.8900  142.2290 N   0  0  0  0  0  0  0  0  0  0  0  0
  186.5140  177.8990  145.9850 C   0  0  0  0  0  0  0  0  0  0  0  0
  186.6860  177.9980  143.5730 C   0  0  0  0  0  0  0  0  0  0  0  0
  185.4000  178.5600  143.5040 C   0  0  0  0  0  0  0  0  0  0  0  0
  187.4080  177.6700  142.3020 C   0  0  0  0  0  2  0  0  0  0  0  0
  1 16  1  6  0  0  0
  2 11  1  0  0  0  0
  3 10  2  0  0  0  0
  3  8  1  0  0  0  0
  4  5  1  1  0  0  0
  4  1  1  0  0  0  0
  7 12  1  0  0  0  0
  8  5  1  0  0  0  0
  9  7  1  0  0  0  0
  9 11  1  0  0  0  0
 11  1  1  0  0  0  0
 11  6  1  0  0  0  0
 12 10  1  6  0  0  0
 12  4  1  0  0  0  0
 15 11  1  0  0  0  0
 15 13  1  0  0  0  0
 15 14  1  0  0  0  0
 16 17  1  0  0  0  0
 17 20  1  0  0  0  0
 17 23  2  0  0  0  0
 18 24  1  0  0  0  0
 20 27  1  0  0  0  0
 21 22  1  0  0  0  0
 22 24  2  0  0  0  0
 23 26  1  0  0  0  0
 24 19  1  0  0  0  0
 25 18  2  0  0  0  0
 26 25  1  0  0  0  0
 26 21  2  0  0  0  0
 27 25  1  0  0  0  0
M  END
>  <MODEL>
7

>  <REMARK>
 VINA RESULT:      -6.9      3.684      4.660
  Name = 
  3 active torsions:
  status: ('A' for Active; 'I' for Inactive)
    1  A    between atoms: C_1  and  C_15
    2  A    between atoms: C_2  and  C_15
    3  A    between atoms: C_20  and  P_26
                            x       y       z     vdW  Elec       q    Type
                         _______ _______ _______ _____ _____    ______ ____

>  <TORSDO>
F 3

$$$$
=
 OpenBabel10272401023D

 27 30  0  0  1  0  0  0  0  0999 V2000
  189.6650  176.6780  138.3010 C   0  0  2  0  0  3  0  0  0  0  0  0
  189.4750  178.8500  136.9180 O   0  0  0  0  0  1  0  0  0  0  0  0
  191.5170  173.3820  136.4020 C   0  0  0  0  0  3  0  0  0  0  0  0
  190.3900  175.7020  137.4680 N   0  0  1  0  0  0  0  0  0  0  0  0
  191.5910  175.1960  138.1460 C   0  0  0  0  0  2  0  0  0  0  0  0
  187.4220  177.6870  138.8540 C   0  0  0  0  0  1  0  0  0  0  0  0
  188.1370  174.8890  136.7310 C   0  0  0  0  0  2  0  0  0  0  0  0
  192.4020  174.3270  137.1790 C   0  0  0  0  0  2  0  0  0  0  0  0
  188.1450  176.2630  136.0850 C   0  0  0  0  0  2  0  0  0  0  0  0
  190.1810  173.4980  136.4110 C   0  0  0  0  0  3  0  0  0  0  0  0
  188.3900  177.6090  137.3170 P   0  0  0  0  0  0  0  0  0  0  0  0
  189.5160  174.5290  137.2840 C   0  0  1  0  0  3  0  0  0  0  0  0
  187.2040  179.9130  136.6200 O   0  0  0  0  0  1  0  0  0  0  0  0
  186.9270  178.1990  135.1340 O   0  0  0  0  0  1  0  0  0  0  0  0
  187.0310  178.5330  136.4880 C   0  0  0  0  0  3  0  0  0  0  0  0
  190.5860  177.6370  139.0790 C   0  0  0  0  0  2  0  0  0  0  0  0
  190.4210  177.5440  140.5660 C   0  0  0  0  0  0  0  0  0  0  0  0
  189.7480  176.9010  144.6940 C   0  0  0  0  0  3  0  0  0  0  0  0
  188.2290  177.0390  146.5630 O   0  0  0  0  0  1  0  0  0  0  0  0
  191.6160  177.5080  141.4950 C   0  0  0  0  0  2  0  0  0  0  0  0
  187.6840  177.6910  142.9710 C   0  0  0  0  0  3  0  0  0  0  0  0
  187.4420  177.5620  144.3430 C   0  0  0  0  0  3  0  0  0  0  0  0
  189.2150  177.5640  141.0560 N   0  0  0  0  0  0  0  0  0  0  0  0
  188.4740  177.1700  145.2040 C   0  0  0  0  0  0  0  0  0  0  0  0
  189.9950  177.0450  143.3260 C   0  0  0  0  0  0  0  0  0  0  0  0
  188.9600  177.4360  142.4610 C   0  0  0  0  0  0  0  0  0  0  0  0
  191.3290  176.6810  142.7490 C   0  0  0  0  0  2  0  0  0  0  0  0
  1 16  1  6  0  0  0
  2 11  1  0  0  0  0
  3 10  2  0  0  0  0
  3  8  1  0  0  0  0
  4  5  1  1  0  0  0
  4  1  1  0  0  0  0
  7 12  1  0  0  0  0
  8  5  1  0  0  0  0
  9  7  1  0  0  0  0
  9 11  1  0  0  0  0
 11  1  1  0  0  0  0
 11  6  1  0  0  0  0
 12 10  1  6  0  0  0
 12  4  1  0  0  0  0
 14 15  1  0  0  0  0
 15 13  1  0  0  0  0
 15 11  1  0  0  0  0
 16 17  1  0  0  0  0
 17 23  2  0  0  0  0
 17 20  1  0  0  0  0
 18 24  1  0  0  0  0
 20 27  1  0  0  0  0
 21 22  1  0  0  0  0
 22 24  2  0  0  0  0
 23 26  1  0  0  0  0
 24 19  1  0  0  0  0
 25 18  2  0  0  0  0
 26 21  2  0  0  0  0
 26 25  1  0  0  0  0
 27 25  1  0  0  0  0
M  END
>  <MODEL>
8

>  <REMARK>
 VINA RESULT:      -6.7      1.743      2.355
  Name = 
  3 active torsions:
  status: ('A' for Active; 'I' for Inactive)
    1  A    between atoms: C_1  and  C_15
    2  A    between atoms: C_2  and  C_15
    3  A    between atoms: C_20  and  P_26
                            x       y       z     vdW  Elec       q    Type
                         _______ _______ _______ _____ _____    ______ ____

>  <TORSDO>
F 3

$$$$
=
 OpenBabel10272401023D

 27 30  0  0  1  0  0  0  0  0999 V2000
  185.6600  178.2090  139.5330 C   0  0  2  0  0  3  0  0  0  0  0  0
  183.9920  180.0570  138.8490 O   0  0  0  0  0  1  0  0  0  0  0  0
  188.9640  177.5980  136.9630 C   0  0  0  0  0  3  0  0  0  0  0  0
  186.7460  178.2210  138.5360 N   0  0  1  0  0  0  0  0  0  0  0  0
  188.0590  178.4140  139.1660 C   0  0  0  0  0  2  0  0  0  0  0  0
  183.3600  177.3470  140.1000 C   0  0  0  0  0  1  0  0  0  0  0  0
  185.4540  176.4400  137.3360 C   0  0  0  0  0  2  0  0  0  0  0  0
  189.1270  178.5970  138.0830 C   0  0  0  0  0  2  0  0  0  0  0  0
  184.5210  177.6220  137.1340 C   0  0  0  0  0  2  0  0  0  0  0  0
  187.8680  176.8350  136.8520 C   0  0  0  0  0  3  0  0  0  0  0  0
  183.9880  178.3660  138.7320 P   0  0  0  0  0  0  0  0  0  0  0  0
  186.7980  176.8870  137.9110 C   0  0  1  0  0  3  0  0  0  0  0  0
  182.2390  178.0380  136.7220 O   0  0  0  0  0  1  0  0  0  0  0  0
  181.4050  177.6090  138.8060 O   0  0  0  0  0  1  0  0  0  0  0  0
  182.2730  178.4180  138.0660 C   0  0  0  0  0  3  0  0  0  0  0  0
  185.8420  179.2410  140.6630 C   0  0  0  0  0  2  0  0  0  0  0  0
  186.2580  178.6280  141.9660 C   0  0  0  0  0  0  0  0  0  0  0  0
  187.6000  177.2880  145.7480 C   0  0  0  0  0  3  0  0  0  0  0  0
  189.4280  176.4850  147.1030 O   0  0  0  0  0  1  0  0  0  0  0  0
  185.2450  178.0380  142.9230 C   0  0  0  0  0  2  0  0  0  0  0  0
  189.3780  177.7350  143.6290 C   0  0  0  0  0  3  0  0  0  0  0  0
  189.8470  177.2190  144.8420 C   0  0  0  0  0  3  0  0  0  0  0  0
  187.5300  178.5490  142.2320 N   0  0  0  0  0  0  0  0  0  0  0  0
  188.9580  176.9940  145.9000 C   0  0  0  0  0  0  0  0  0  0  0  0
  187.1270  177.7880  144.5320 C   0  0  0  0  0  0  0  0  0  0  0  0
  188.0180  178.0180  143.4710 C   0  0  0  0  0  0  0  0  0  0  0  0
  185.6910  178.1890  144.3780 C   0  0  0  0  0  2  0  0  0  0  0  0
  1 16  1  1  0  0  0
  3  8  1  0  0  0  0
  4  5  1  1  0  0  0
  4  1  1  0  0  0  0
  7 12  1  0  0  0  0
  8  5  1  0  0  0  0
  9  7  1  0  0  0  0
  9 11  1  0  0  0  0
 10  3  2  0  0  0  0
 11  2  1  0  0  0  0
 11  1  1  0  0  0  0
 11  6  1  0  0  0  0
 12 10  1  6  0  0  0
 12  4  1  0  0  0  0
 13 15  1  0  0  0  0
 15 11  1  0  0  0  0
 15 14  1  0  0  0  0
 16 17  1  0  0  0  0
 17 23  2  0  0  0  0
 17 20  1  0  0  0  0
 18 24  1  0  0  0  0
 20 27  1  0  0  0  0
 21 22  1  0  0  0  0
 22 24  2  0  0  0  0
 23 26  1  0  0  0  0
 24 19  1  0  0  0  0
 25 18  2  0  0  0  0
 26 21  2  0  0  0  0
 26 25  1  0  0  0  0
 27 25  1  0  0  0  0
M  END
>  <MODEL>
9

>  <REMARK>
 VINA RESULT:      -6.7      2.952      4.200
  Name = 
  3 active torsions:
  status: ('A' for Active; 'I' for Inactive)
    1  A    between atoms: C_1  and  C_15
    2  A    between atoms: C_2  and  C_15
    3  A    between atoms: C_20  and  P_26
                            x       y       z     vdW  Elec       q    Type
                         _______ _______ _______ _____ _____    ______ ____

>  <TORSDO>
F 3

$$$$
