=
 OpenBabel10272401033D

 27 31  0  0  1  0  0  0  0  0999 V2000
  186.8200  177.9770  141.7330 N   0  0  0  0  0  0  0  0  0  0  0  0
  187.4820  177.6660  144.2130 C   0  0  1  0  0  3  0  0  0  0  0  0
  189.8080  176.5670  142.7770 S   0  0  0  0  0  0  0  0  0  0  0  0
  189.6990  176.9030  147.5700 N   0  0  0  0  0  0  0  0  0  0  0  0
  191.9900  175.9110  147.7150 C   0  0  0  0  0  1  0  0  0  0  0  0
  186.9040  177.9190  145.5840 C   0  0  0  0  0  3  0  0  0  0  0  0
  190.8360  176.4720  145.5460 N   0  0  0  0  0  0  0  0  0  0  0  0
  190.7140  177.3880  139.0830 C   0  0  0  0  0  3  0  0  0  0  0  0
  191.9570  176.9300  144.8780 C   0  0  0  0  0  1  0  0  0  0  0  0
  189.8670  178.0180  138.2500 C   0  0  0  0  0  3  0  0  0  0  0  0
  189.7330  177.4300  145.3400 C   0  0  2  0  0  3  0  0  0  0  0  0
  186.5240  177.9400  143.0290 C   0  0  0  0  0  0  0  0  0  0  0  0
  191.0280  176.8150  146.9160 C   0  0  1  0  0  3  0  0  0  0  0  0
  188.9700  177.3600  146.5730 C   0  0  0  0  0  0  0  0  0  0  0  0
  188.0020  177.8340  140.9400 C   0  0  0  0  0  0  0  0  0  0  0  0
  188.7840  177.2250  144.1000 C   0  0  1  0  0  3  0  0  0  0  0  0
  190.2520  176.6180  140.2910 C   0  0  0  0  0  2  0  0  0  0  0  0
  187.5770  177.7150  146.7090 N   0  0  0  0  0  0  0  0  0  0  0  0
  188.4680  178.3490  138.4110 C   0  0  0  0  0  3  0  0  0  0  0  0
  187.6870  178.3260  139.5290 C   0  0  0  0  0  3  0  0  0  0  0  0
  189.1780  177.2420  141.2000 C   0  0  0  0  0  0  0  0  0  0  0  0
  182.4700  179.0380  143.8270 C   0  0  0  0  0  3  0  0  0  0  0  0
  185.1000  178.3070  143.3300 C   0  0  0  0  0  0  0  0  0  0  0  0
  184.1720  178.3620  142.2690 C   0  0  0  0  0  3  0  0  0  0  0  0
  182.8650  178.7040  142.5270 C   0  0  0  0  0  3  0  0  0  0  0  0
  183.4040  179.0550  144.8760 C   0  0  0  0  0  3  0  0  0  0  0  0
  184.7110  178.6890  144.6260 C   0  0  0  0  0  3  0  0  0  0  0  0
  1 12  2  0  0  0  0
  2  6  1  6  0  0  0
  6 18  2  0  0  0  0
  7 13  1  0  0  0  0
  8 17  1  0  0  0  0
  9  7  1  0  0  0  0
 10 19  1  0  0  0  0
 10  8  2  0  0  0  0
 11  7  1  0  0  0  0
 11 14  1  1  0  0  0
 12 23  1  0  0  0  0
 12  2  1  0  0  0  0
 13  4  1  0  0  0  0
 13  5  1  1  0  0  0
 14 18  1  0  0  0  0
 14  4  2  0  0  0  0
 15 21  2  0  0  0  0
 15  1  1  0  0  0  0
 16  3  1  6  0  0  0
 16  2  1  0  0  0  0
 16 11  1  0  0  0  0
 17 21  1  0  0  0  0
 19 20  2  0  0  0  0
 20 15  1  0  0  0  0
 21  3  1  0  0  0  0
 22 26  1  0  0  0  0
 23 27  1  0  0  0  0
 24 25  1  0  0  0  0
 24 23  2  0  0  0  0
 25 22  2  0  0  0  0
 27 26  2  0  0  0  0
M  END
>  <MODEL>
1

>  <REMARK>
 VINA RESULT:     -10.6      0.000      0.000
  Name = 
  1 active torsions:
  status: ('A' for Active; 'I' for Inactive)
    1  A    between atoms: C_9  and  C_15
                            x       y       z     vdW  Elec       q    Type
                         _______ _______ _______ _____ _____    ______ ____

>  <TORSDO>
F 1

$$$$
=
 OpenBabel10272401033D

 27 31  0  0  1  0  0  0  0  0999 V2000
  189.6110  177.3520  142.8470 N   0  0  0  0  0  0  0  0  0  0  0  0
  187.4190  177.8520  144.1250 C   0  0  1  0  0  3  0  0  0  0  0  0
  186.7590  178.6490  141.3660 S   0  0  0  0  0  0  0  0  0  0  0  0
  183.5080  178.7790  144.9010 N   0  0  0  0  0  0  0  0  0  0  0  0
  181.7740  179.6220  143.3080 C   0  0  0  0  0  1  0  0  0  0  0  0
  186.8790  177.7700  145.5310 C   0  0  0  0  0  3  0  0  0  0  0  0
  184.1010  178.9370  142.6220 N   0  0  0  0  0  0  0  0  0  0  0  0
  188.6560  177.4220  138.1990 C   0  0  0  0  0  3  0  0  0  0  0  0
  183.7490  178.3420  141.4240 C   0  0  0  0  0  1  0  0  0  0  0  0
  189.8340  176.7740  138.2610 C   0  0  0  0  0  3  0  0  0  0  0  0
  185.0210  178.0410  143.3480 C   0  0  2  0  0  3  0  0  0  0  0  0
  188.9260  177.5320  143.9730 C   0  0  0  0  0  0  0  0  0  0  0  0
  183.0060  178.7130  143.5070 C   0  0  1  0  0  3  0  0  0  0  0  0
  184.7160  178.2790  144.7460 C   0  0  0  0  0  0  0  0  0  0  0  0
  189.3120  177.3390  141.4480 C   0  0  0  0  0  0  0  0  0  0  0  0
  186.5680  178.1900  143.0940 C   0  0  1  0  0  3  0  0  0  0  0  0
  188.1640  178.3320  139.2910 C   0  0  0  0  0  2  0  0  0  0  0  0
  185.6180  178.0330  145.8460 N   0  0  0  0  0  0  0  0  0  0  0  0
  190.7230  176.5550  139.3810 C   0  0  0  0  0  3  0  0  0  0  0  0
  190.5100  176.7370  140.7160 C   0  0  0  0  0  3  0  0  0  0  0  0
  188.2960  177.8720  140.7540 C   0  0  0  0  0  0  0  0  0  0  0  0
  191.2470  176.7760  147.4830 C   0  0  0  0  0  3  0  0  0  0  0  0
  189.7360  177.2930  145.2130 C   0  0  0  0  0  0  0  0  0  0  0  0
  191.0100  176.6990  145.0910 C   0  0  0  0  0  3  0  0  0  0  0  0
  191.7620  176.4660  146.2190 C   0  0  0  0  0  3  0  0  0  0  0  0
  189.9510  177.3020  147.6180 C   0  0  0  0  0  3  0  0  0  0  0  0
  189.2030  177.5600  146.4880 C   0  0  0  0  0  3  0  0  0  0  0  0
  1 12  2  0  0  0  0
  2  6  1  6  0  0  0
  6 18  2  0  0  0  0
  7 11  1  0  0  0  0
  7 13  1  0  0  0  0
  8 10  2  0  0  0  0
  8 17  1  0  0  0  0
  9  7  1  0  0  0  0
 10 19  1  0  0  0  0
 11 14  1  1  0  0  0
 12  2  1  0  0  0  0
 12 23  1  0  0  0  0
 13  5  1  1  0  0  0
 13  4  1  0  0  0  0
 14  4  2  0  0  0  0
 14 18  1  0  0  0  0
 15  1  1  0  0  0  0
 16  3  1  6  0  0  0
 16 11  1  0  0  0  0
 16  2  1  0  0  0  0
 17 21  1  0  0  0  0
 19 20  2  0  0  0  0
 20 15  1  0  0  0  0
 21  3  1  0  0  0  0
 21 15  2  0  0  0  0
 22 26  1  0  0  0  0
 23 27  1  0  0  0  0
 24 23  2  0  0  0  0
 24 25  1  0  0  0  0
 25 22  2  0  0  0  0
 27 26  2  0  0  0  0
M  END
>  <MODEL>
2

>  <REMARK>
 VINA RESULT:     -10.3      1.630      5.756
  Name = 
  1 active torsions:
  status: ('A' for Active; 'I' for Inactive)
    1  A    between atoms: C_9  and  C_15
                            x       y       z     vdW  Elec       q    Type
                         _______ _______ _______ _____ _____    ______ ____

>  <TORSDO>
F 1

$$$$
=
 OpenBabel10272401033D

 27 31  0  0  1  0  0  0  0  0999 V2000
  190.4420  177.0160  142.9530 N   0  0  0  0  0  0  0  0  0  0  0  0
  188.4820  177.6920  141.4070 C   0  0  1  0  0  3  0  0  0  0  0  0
  187.1430  177.2390  143.9920 S   0  0  0  0  0  0  0  0  0  0  0  0
  184.7590  178.8240  140.1330 N   0  0  0  0  0  0  0  0  0  0  0  0
  182.6310  178.8920  141.4450 C   0  0  0  0  0  1  0  0  0  0  0  0
  188.2500  178.0690  139.9640 C   0  0  0  0  0  3  0  0  0  0  0  0
  184.8790  178.3280  142.4380 N   0  0  0  0  0  0  0  0  0  0  0  0
  188.9350  177.2870  147.4460 C   0  0  0  0  0  3  0  0  0  0  0  0
  184.6950  178.9830  143.6420 C   0  0  0  0  0  1  0  0  0  0  0  0
  190.2750  177.2760  147.5700 C   0  0  0  0  0  2  0  0  0  0  0  0
  186.2080  178.6800  141.9020 C   0  0  2  0  0  3  0  0  0  0  0  0
  189.9180  177.2280  141.7480 C   0  0  0  0  0  0  0  0  0  0  0  0
  184.1620  179.0850  141.4650 C   0  0  1  0  0  3  0  0  0  0  0  0
  186.0240  178.6620  140.4630 C   0  0  0  0  0  0  0  0  0  0  0  0
  189.9950  177.1330  144.3070 C   0  0  0  0  0  0  0  0  0  0  0  0
  187.4390  177.7840  142.3040 C   0  0  1  0  0  3  0  0  0  0  0  0
  188.2220  176.7670  146.2270 C   0  0  0  0  0  3  0  0  0  0  0  0
  187.0760  178.4670  139.4930 N   0  0  0  0  0  0  0  0  0  0  0  0
  191.3060  177.0640  146.5780 C   0  0  0  0  0  3  0  0  0  0  0  0
  191.2190  177.0490  145.2160 C   0  0  0  0  0  3  0  0  0  0  0  0
  188.7620  177.1460  144.8350 C   0  0  0  0  0  0  0  0  0  0  0  0
  192.7190  176.7210  138.5580 C   0  0  0  0  0  3  0  0  0  0  0  0
  190.9070  177.0770  140.6300 C   0  0  0  0  0  0  0  0  0  0  0  0
  190.5260  176.3620  139.4750 C   0  0  0  0  0  3  0  0  0  0  0  0
  191.4220  176.2080  138.4440 C   0  0  0  0  0  3  0  0  0  0  0  0
  193.1300  177.3720  139.7340 C   0  0  0  0  0  3  0  0  0  0  0  0
  192.2260  177.5500  140.7610 C   0  0  0  0  0  3  0  0  0  0  0  0
  1 15  1  0  0  0  0
  2  6  1  1  0  0  0
  2 12  1  0  0  0  0
  2 16  1  0  0  0  0
  3 21  1  0  0  0  0
  4 14  2  0  0  0  0
  4 13  1  0  0  0  0
  7  9  1  0  0  0  0
  8 10  1  0  0  0  0
 11 14  1  6  0  0  0
 11 16  1  0  0  0  0
 11  7  1  0  0  0  0
 12  1  2  0  0  0  0
 13  5  1  6  0  0  0
 13  7  1  0  0  0  0
 15 21  2  0  0  0  0
 15 20  1  0  0  0  0
 16  3  1  1  0  0  0
 17  8  2  0  0  0  0
 18  6  2  0  0  0  0
 18 14  1  0  0  0  0
 19 10  1  0  0  0  0
 20 19  2  0  0  0  0
 21 17  1  0  0  0  0
 22 26  1  0  0  0  0
 23 27  1  0  0  0  0
 23 12  1  0  0  0  0
 24 23  2  0  0  0  0
 25 22  2  0  0  0  0
 25 24  1  0  0  0  0
 26 27  2  0  0  0  0
M  END
>  <MODEL>
3

>  <REMARK>
 VINA RESULT:     -10.2      1.947      7.449
  Name = 
  1 active torsions:
  status: ('A' for Active; 'I' for Inactive)
    1  A    between atoms: C_9  and  C_15
                            x       y       z     vdW  Elec       q    Type
                         _______ _______ _______ _____ _____    ______ ____

>  <TORSDO>
F 1

$$$$
=
 OpenBabel10272401033D

 27 31  0  0  1  0  0  0  0  0999 V2000
  188.5560  177.7420  143.5240 N   0  0  0  0  0  0  0  0  0  0  0  0
  186.0510  178.2410  143.9250 C   0  0  1  0  0  3  0  0  0  0  0  0
  186.3520  178.7140  141.0320 S   0  0  0  0  0  0  0  0  0  0  0  0
  182.0900  179.0140  143.2320 N   0  0  0  0  0  0  0  0  0  0  0  0
  180.9850  179.5890  141.0640 C   0  0  0  0  0  1  0  0  0  0  0  0
  185.0670  178.2720  145.0690 C   0  0  0  0  0  3  0  0  0  0  0  0
  183.4190  178.9740  141.2810 N   0  0  0  0  0  0  0  0  0  0  0  0
  189.2360  177.2820  138.8490 C   0  0  0  0  0  3  0  0  0  0  0  0
  183.5080  178.2400  140.1120 C   0  0  0  0  0  1  0  0  0  0  0  0
  190.3350  176.7130  139.3770 C   0  0  0  0  0  3  0  0  0  0  0  0
  184.0560  178.2110  142.3720 C   0  0  2  0  0  3  0  0  0  0  0  0
  187.5260  177.9960  144.3260 C   0  0  0  0  0  0  0  0  0  0  0  0
  182.0930  178.7780  141.7680 C   0  0  1  0  0  3  0  0  0  0  0  0
  183.2900  178.5720  143.5500 C   0  0  0  0  0  0  0  0  0  0  0  0
  188.7510  177.5690  142.1170 C   0  0  0  0  0  0  0  0  0  0  0  0
  185.5940  178.4230  142.6370 C   0  0  1  0  0  3  0  0  0  0  0  0
  188.3840  178.2690  139.6000 C   0  0  0  0  0  2  0  0  0  0  0  0
  183.7690  178.4930  144.9100 N   0  0  0  0  0  0  0  0  0  0  0  0
  190.7960  176.6610  140.7480 C   0  0  0  0  0  3  0  0  0  0  0  0
  190.1380  176.9660  141.9040 C   0  0  0  0  0  3  0  0  0  0  0  0
  188.0200  177.9680  141.0650 C   0  0  0  0  0  0  0  0  0  0  0  0
  188.5210  177.7340  148.4750 C   0  0  0  0  0  3  0  0  0  0  0  0
  187.8700  177.9310  145.7840 C   0  0  0  0  0  0  0  0  0  0  0  0
  189.0500  177.2640  146.1770 C   0  0  0  0  0  3  0  0  0  0  0  0
  189.3760  177.1890  147.5110 C   0  0  0  0  0  3  0  0  0  0  0  0
  187.3100  178.3380  148.0970 C   0  0  0  0  0  3  0  0  0  0  0  0
  186.9900  178.4360  146.7590 C   0  0  0  0  0  3  0  0  0  0  0  0
  1 12  2  0  0  0  0
  2 12  1  0  0  0  0
  2  6  1  6  0  0  0
  3 21  1  0  0  0  0
  4 14  2  0  0  0  0
  7 13  1  0  0  0  0
  7 11  1  0  0  0  0
  8 10  2  0  0  0  0
  8 17  1  0  0  0  0
  9  7  1  0  0  0  0
 10 19  1  0  0  0  0
 11 16  1  0  0  0  0
 11 14  1  1  0  0  0
 12 23  1  0  0  0  0
 13  5  1  6  0  0  0
 13  4  1  0  0  0  0
 14 18  1  0  0  0  0
 15  1  1  0  0  0  0
 16  3  1  6  0  0  0
 16  2  1  0  0  0  0
 17 21  1  0  0  0  0
 18  6  2  0  0  0  0
 19 20  2  0  0  0  0
 20 15  1  0  0  0  0
 21 15  2  0  0  0  0
 23 24  2  0  0  0  0
 23 27  1  0  0  0  0
 24 25  1  0  0  0  0
 25 22  2  0  0  0  0
 26 22  1  0  0  0  0
 27 26  2  0  0  0  0
M  END
>  <MODEL>
4

>  <REMARK>
 VINA RESULT:     -10.1      2.094      5.962
  Name = 
  1 active torsions:
  status: ('A' for Active; 'I' for Inactive)
    1  A    between atoms: C_9  and  C_15
                            x       y       z     vdW  Elec       q    Type
                         _______ _______ _______ _____ _____    ______ ____

>  <TORSDO>
F 1

$$$$
=
 OpenBabel10272401033D

 27 31  0  0  1  0  0  0  0  0999 V2000
  188.4740  177.4000  145.8770 N   0  0  0  0  0  0  0  0  0  0  0  0
  190.0530  177.1570  143.8440 C   0  0  1  0  0  3  0  0  0  0  0  0
  187.3950  177.3320  142.5840 S   0  0  0  0  0  0  0  0  0  0  0  0
  191.4320  177.0970  139.9890 N   0  0  0  0  0  0  0  0  0  0  0  0
  190.1050  177.1930  137.8710 C   0  0  0  0  0  1  0  0  0  0  0  0
  191.5260  176.9920  143.5620 C   0  0  0  0  0  3  0  0  0  0  0  0
  189.1000  177.4130  140.1730 N   0  0  0  0  0  0  0  0  0  0  0  0
  184.2380  178.8370  144.2900 C   0  0  0  0  0  3  0  0  0  0  0  0
  188.1640  178.3790  139.8510 C   0  0  0  0  0  1  0  0  0  0  0  0
  184.1850  179.1170  145.6040 C   0  0  0  0  0  2  0  0  0  0  0  0
  189.7880  177.8100  141.4160 C   0  0  2  0  0  3  0  0  0  0  0  0
  189.6540  177.1050  145.3380 C   0  0  0  0  0  0  0  0  0  0  0  0
  190.2270  177.6640  139.3360 C   0  0  1  0  0  3  0  0  0  0  0  0
  191.1330  177.2900  141.2570 C   0  0  0  0  0  0  0  0  0  0  0  0
  187.2090  177.8670  145.3990 C   0  0  0  0  0  0  0  0  0  0  0  0
  189.1810  177.3410  142.7910 C   0  0  1  0  0  3  0  0  0  0  0  0
  185.1860  177.8250  143.7060 C   0  0  0  0  0  3  0  0  0  0  0  0
  192.0400  176.9890  142.3390 N   0  0  0  0  0  0  0  0  0  0  0  0
  185.1070  178.7880  146.6690 C   0  0  0  0  0  3  0  0  0  0  0  0
  186.3850  178.3140  146.6050 C   0  0  0  0  0  3  0  0  0  0  0  0
  186.6510  177.8230  144.1800 C   0  0  0  0  0  0  0  0  0  0  0  0
  192.6510  176.1140  148.2210 C   0  0  0  0  0  3  0  0  0  0  0  0
  190.7130  176.7840  146.3510 C   0  0  0  0  0  0  0  0  0  0  0  0
  191.6080  175.7250  146.0890 C   0  0  0  0  0  3  0  0  0  0  0  0
  192.5800  175.4130  147.0110 C   0  0  0  0  0  3  0  0  0  0  0  0
  191.7190  177.1220  148.5200 C   0  0  0  0  0  3  0  0  0  0  0  0
  190.7580  177.4540  147.5880 C   0  0  0  0  0  3  0  0  0  0  0  0
  2  6  1  1  0  0  0
  2 12  1  0  0  0  0
  3 21  1  0  0  0  0
  4 14  2  0  0  0  0
  7 11  1  0  0  0  0
  8 10  1  0  0  0  0
  9  7  1  0  0  0  0
 10 19  1  0  0  0  0
 11 14  1  6  0  0  0
 11 16  1  0  0  0  0
 12  1  2  0  0  0  0
 12 23  1  0  0  0  0
 13  5  1  6  0  0  0
 13  4  1  0  0  0  0
 13  7  1  0  0  0  0
 14 18  1  0  0  0  0
 15  1  1  0  0  0  0
 15 20  1  0  0  0  0
 16  3  1  1  0  0  0
 16  2  1  0  0  0  0
 17 21  1  0  0  0  0
 17  8  2  0  0  0  0
 18  6  2  0  0  0  0
 20 19  2  0  0  0  0
 21 15  2  0  0  0  0
 22 26  1  0  0  0  0
 23 27  1  0  0  0  0
 24 23  2  0  0  0  0
 24 25  1  0  0  0  0
 25 22  2  0  0  0  0
 27 26  2  0  0  0  0
M  END
>  <MODEL>
5

>  <REMARK>
 VINA RESULT:     -10.0      1.714      7.035
  Name = 
  1 active torsions:
  status: ('A' for Active; 'I' for Inactive)
    1  A    between atoms: C_9  and  C_15
                            x       y       z     vdW  Elec       q    Type
                         _______ _______ _______ _____ _____    ______ ____

>  <TORSDO>
F 1

$$$$
=
 OpenBabel10272401033D

 27 31  0  0  1  0  0  0  0  0999 V2000
  189.5330  177.2920  142.7740 N   0  0  0  0  0  0  0  0  0  0  0  0
  187.1660  177.9740  141.9870 C   0  0  1  0  0  3  0  0  0  0  0  0
  186.7380  177.2990  144.8230 S   0  0  0  0  0  0  0  0  0  0  0  0
  183.2070  179.0130  142.0520 N   0  0  0  0  0  0  0  0  0  0  0  0
  181.6110  178.9020  143.9750 C   0  0  0  0  0  1  0  0  0  0  0  0
  186.4750  178.4300  140.7260 C   0  0  0  0  0  3  0  0  0  0  0  0
  184.0710  178.3790  144.1550 N   0  0  0  0  0  0  0  0  0  0  0  0
  189.5410  177.2100  147.5200 C   0  0  0  0  0  3  0  0  0  0  0  0
  184.2680  178.9490  145.4010 C   0  0  0  0  0  1  0  0  0  0  0  0
  190.8500  177.2520  147.2110 C   0  0  0  0  0  2  0  0  0  0  0  0
  185.1490  178.8240  143.2520 C   0  0  2  0  0  3  0  0  0  0  0  0
  188.6460  177.5550  141.8180 C   0  0  0  0  0  0  0  0  0  0  0  0
  183.0630  179.1630  143.5210 C   0  0  1  0  0  3  0  0  0  0  0  0
  184.5140  178.8890  141.9490 C   0  0  0  0  0  0  0  0  0  0  0  0
  189.5410  177.3020  144.2050 C   0  0  0  0  0  0  0  0  0  0  0  0
  186.4640  177.9620  143.1740 C   0  0  1  0  0  3  0  0  0  0  0  0
  188.4870  176.7360  146.5560 C   0  0  0  0  0  3  0  0  0  0  0  0
  185.2030  178.8030  140.6840 N   0  0  0  0  0  0  0  0  0  0  0  0
  191.5130  177.1500  145.9290 C   0  0  0  0  0  3  0  0  0  0  0  0
  190.9950  177.2170  144.6680 C   0  0  0  0  0  3  0  0  0  0  0  0
  188.5430  177.2260  145.0980 C   0  0  0  0  0  0  0  0  0  0  0  0
  190.3730  177.4570  137.9080 C   0  0  0  0  0  3  0  0  0  0  0  0
  189.2270  177.5200  140.4350 C   0  0  0  0  0  0  0  0  0  0  0  0
  190.2740  176.6150  140.1580 C   0  0  0  0  0  3  0  0  0  0  0  0
  190.8220  176.5750  138.8980 C   0  0  0  0  0  3  0  0  0  0  0  0
  189.3810  178.4090  138.1960 C   0  0  0  0  0  3  0  0  0  0  0  0
  188.8110  178.4360  139.4520 C   0  0  0  0  0  3  0  0  0  0  0  0
  1 15  1  0  0  0  0
  2  6  1  1  0  0  0
  2 16  1  0  0  0  0
  3 21  1  0  0  0  0
  4 13  1  0  0  0  0
  7  9  1  0  0  0  0
 10  8  1  0  0  0  0
 11 14  1  6  0  0  0
 11  7  1  0  0  0  0
 12  2  1  0  0  0  0
 12  1  2  0  0  0  0
 13  5  1  1  0  0  0
 13  7  1  0  0  0  0
 14  4  2  0  0  0  0
 15 20  1  0  0  0  0
 15 21  2  0  0  0  0
 16 11  1  0  0  0  0
 16  3  1  1  0  0  0
 17  8  2  0  0  0  0
 18  6  2  0  0  0  0
 18 14  1  0  0  0  0
 19 10  1  0  0  0  0
 20 19  2  0  0  0  0
 21 17  1  0  0  0  0
 22 26  2  0  0  0  0
 22 25  1  0  0  0  0
 23 12  1  0  0  0  0
 24 23  1  0  0  0  0
 25 24  2  0  0  0  0
 26 27  1  0  0  0  0
 27 23  2  0  0  0  0
M  END
>  <MODEL>
6

>  <REMARK>
 VINA RESULT:      -9.9      1.860      6.912
  Name = 
  1 active torsions:
  status: ('A' for Active; 'I' for Inactive)
    1  A    between atoms: C_9  and  C_15
                            x       y       z     vdW  Elec       q    Type
                         _______ _______ _______ _____ _____    ______ ____

>  <TORSDO>
F 1

$$$$
=
 OpenBabel10272401033D

 27 31  0  0  1  0  0  0  0  0999 V2000
  187.0750  178.1560  141.7260 N   0  0  0  0  0  0  0  0  0  0  0  0
  189.2820  177.4090  142.8470 C   0  0  1  0  0  3  0  0  0  0  0  0
  187.6880  178.3730  145.1300 S   0  0  0  0  0  0  0  0  0  0  0  0
  192.0310  176.4000  145.7090 N   0  0  0  0  0  0  0  0  0  0  0  0
  191.8710  176.7160  148.1840 C   0  0  0  0  0  1  0  0  0  0  0  0
  190.6180  176.8290  142.4520 C   0  0  0  0  0  3  0  0  0  0  0  0
  190.0030  177.2420  146.5750 N   0  0  0  0  0  0  0  0  0  0  0  0
  183.8130  178.7240  145.1260 C   0  0  0  0  0  3  0  0  0  0  0  0
  188.9660  176.8030  147.3790 C   0  0  0  0  0  1  0  0  0  0  0  0
  183.0760  178.6440  144.0030 C   0  0  0  0  0  3  0  0  0  0  0  0
  189.8140  176.7020  145.2150 C   0  0  2  0  0  3  0  0  0  0  0  0
  188.3560  177.8010  141.6710 C   0  0  0  0  0  0  0  0  0  0  0  0
  191.1160  176.4030  146.8750 C   0  0  1  0  0  3  0  0  0  0  0  0
  191.1650  176.5070  144.7220 C   0  0  0  0  0  0  0  0  0  0  0  0
  186.0850  178.2920  142.7490 C   0  0  0  0  0  0  0  0  0  0  0  0
  188.9750  177.5460  144.1840 C   0  0  1  0  0  3  0  0  0  0  0  0
  185.2690  179.1020  145.1240 C   0  0  0  0  0  2  0  0  0  0  0  0
  191.5420  176.4600  143.3290 N   0  0  0  0  0  0  0  0  0  0  0  0
  183.4850  178.6110  142.6160 C   0  0  0  0  0  3  0  0  0  0  0  0
  184.7210  178.4180  142.0730 C   0  0  0  0  0  3  0  0  0  0  0  0
  186.1980  178.4640  144.0750 C   0  0  0  0  0  0  0  0  0  0  0  0
  189.8040  177.5100  137.6590 C   0  0  0  0  0  3  0  0  0  0  0  0
  188.8890  177.6910  140.2720 C   0  0  0  0  0  0  0  0  0  0  0  0
  188.6360  178.7400  139.3630 C   0  0  0  0  0  3  0  0  0  0  0  0
  189.1120  178.6520  138.0750 C   0  0  0  0  0  3  0  0  0  0  0  0
  189.9970  176.4300  138.5380 C   0  0  0  0  0  3  0  0  0  0  0  0
  189.5430  176.5250  139.8370 C   0  0  0  0  0  3  0  0  0  0  0  0
  1 15  1  0  0  0  0
  2  6  1  1  0  0  0
  2 16  1  0  0  0  0
  4 13  1  0  0  0  0
  6 18  2  0  0  0  0
  7 13  1  0  0  0  0
  7  9  1  0  0  0  0
 10  8  2  0  0  0  0
 11 14  1  6  0  0  0
 11  7  1  0  0  0  0
 12  1  2  0  0  0  0
 12  2  1  0  0  0  0
 13  5  1  1  0  0  0
 14  4  2  0  0  0  0
 15 21  2  0  0  0  0
 16  3  1  6  0  0  0
 16 11  1  0  0  0  0
 17  8  1  0  0  0  0
 18 14  1  0  0  0  0
 19 10  1  0  0  0  0
 20 19  2  0  0  0  0
 20 15  1  0  0  0  0
 21 17  1  0  0  0  0
 21  3  1  0  0  0  0
 22 25  2  0  0  0  0
 22 26  1  0  0  0  0
 23 12  1  0  0  0  0
 24 23  2  0  0  0  0
 25 24  1  0  0  0  0
 26 27  2  0  0  0  0
 27 23  1  0  0  0  0
M  END
>  <MODEL>
7

>  <REMARK>
 VINA RESULT:      -9.7      1.243      5.324
  Name = 
  1 active torsions:
  status: ('A' for Active; 'I' for Inactive)
    1  A    between atoms: C_9  and  C_15
                            x       y       z     vdW  Elec       q    Type
                         _______ _______ _______ _____ _____    ______ ____

>  <TORSDO>
F 1

$$$$
=
 OpenBabel10272401033D

 27 31  0  0  1  0  0  0  0  0999 V2000
  187.0710  178.1360  144.2780 N   0  0  0  0  0  0  0  0  0  0  0  0
  186.6870  178.3740  141.7320 C   0  0  1  0  0  3  0  0  0  0  0  0
  189.6260  178.3550  141.9470 S   0  0  0  0  0  0  0  0  0  0  0  0
  187.3830  178.4960  137.6990 N   0  0  0  0  0  0  0  0  0  0  0  0
  189.5840  178.5260  136.5110 C   0  0  0  0  0  1  0  0  0  0  0  0
  185.5370  178.4830  140.7610 C   0  0  0  0  0  3  0  0  0  0  0  0
  189.3360  178.2770  139.0080 N   0  0  0  0  0  0  0  0  0  0  0  0
  191.6100  176.9360  144.9780 C   0  0  0  0  0  3  0  0  0  0  0  0
  190.3590  177.3630  139.1830 C   0  0  0  0  0  1  0  0  0  0  0  0
  191.0240  176.6170  146.1460 C   0  0  0  0  0  2  0  0  0  0  0  0
  188.1480  177.8100  139.7470 C   0  0  2  0  0  3  0  0  0  0  0  0
  186.2950  178.3960  143.2290 C   0  0  0  0  0  0  0  0  0  0  0  0
  188.7820  178.0040  137.7220 C   0  0  1  0  0  3  0  0  0  0  0  0
  187.0290  178.2760  138.9490 C   0  0  0  0  0  0  0  0  0  0  0  0
  188.4300  177.7400  144.4830 C   0  0  0  0  0  0  0  0  0  0  0  0
  187.9720  178.2620  141.2450 C   0  0  1  0  0  3  0  0  0  0  0  0
  191.0190  177.9240  144.0090 C   0  0  0  0  0  3  0  0  0  0  0  0
  185.6930  178.5030  139.4440 N   0  0  0  0  0  0  0  0  0  0  0  0
  189.6800  176.8710  146.6200 C   0  0  0  0  0  3  0  0  0  0  0  0
  188.5770  177.2920  145.9370 C   0  0  0  0  0  3  0  0  0  0  0  0
  189.5130  177.8470  143.6990 C   0  0  0  0  0  0  0  0  0  0  0  0
  182.2090  179.0310  144.3130 C   0  0  0  0  0  3  0  0  0  0  0  0
  184.8590  178.6380  143.5910 C   0  0  0  0  0  0  0  0  0  0  0  0
  184.5140  178.7850  144.9510 C   0  0  0  0  0  3  0  0  0  0  0  0
  183.2010  179.0010  145.2990 C   0  0  0  0  0  3  0  0  0  0  0  0
  182.5350  178.8160  142.9630 C   0  0  0  0  0  3  0  0  0  0  0  0
  183.8540  178.6230  142.6070 C   0  0  0  0  0  3  0  0  0  0  0  0
  1 15  1  0  0  0  0
  2  6  1  6  0  0  0
  2 12  1  0  0  0  0
  3 21  1  0  0  0  0
  4 13  1  0  0  0  0
  4 14  2  0  0  0  0
  7  9  1  0  0  0  0
  7 11  1  0  0  0  0
  8 10  1  0  0  0  0
 10 19  1  0  0  0  0
 11 14  1  6  0  0  0
 11 16  1  0  0  0  0
 12 23  1  0  0  0  0
 12  1  2  0  0  0  0
 13  5  1  6  0  0  0
 13  7  1  0  0  0  0
 14 18  1  0  0  0  0
 15 20  1  0  0  0  0
 16  2  1  0  0  0  0
 16  3  1  1  0  0  0
 17  8  2  0  0  0  0
 18  6  2  0  0  0  0
 20 19  2  0  0  0  0
 21 17  1  0  0  0  0
 21 15  2  0  0  0  0
 22 25  1  0  0  0  0
 23 24  1  0  0  0  0
 24 25  2  0  0  0  0
 26 22  2  0  0  0  0
 27 26  1  0  0  0  0
 27 23  2  0  0  0  0
M  END
>  <MODEL>
8

>  <REMARK>
 VINA RESULT:      -9.6      1.673      5.777
  Name = 
  1 active torsions:
  status: ('A' for Active; 'I' for Inactive)
    1  A    between atoms: C_9  and  C_15
                            x       y       z     vdW  Elec       q    Type
                         _______ _______ _______ _____ _____    ______ ____

>  <TORSDO>
F 1

$$$$
=
 OpenBabel10272401033D

 27 31  0  0  1  0  0  0  0  0999 V2000
  187.8150  177.6180  145.1210 N   0  0  0  0  0  0  0  0  0  0  0  0
  189.5440  177.2800  143.2290 C   0  0  1  0  0  3  0  0  0  0  0  0
  186.9980  177.4680  141.7570 S   0  0  0  0  0  0  0  0  0  0  0  0
  191.2220  177.0730  139.4990 N   0  0  0  0  0  0  0  0  0  0  0  0
  190.0680  177.1280  137.2810 C   0  0  0  0  0  1  0  0  0  0  0  0
  191.0310  177.0780  143.0700 C   0  0  0  0  0  3  0  0  0  0  0  0
  188.8900  177.4400  139.4870 N   0  0  0  0  0  0  0  0  0  0  0  0
  183.7500  179.0870  143.1610 C   0  0  0  0  0  3  0  0  0  0  0  0
  188.0030  178.4140  139.0640 C   0  0  0  0  0  1  0  0  0  0  0  0
  183.6000  179.4090  144.4580 C   0  0  0  0  0  2  0  0  0  0  0  0
  189.4860  177.8630  140.7690 C   0  0  2  0  0  3  0  0  0  0  0  0
  189.0270  177.2840  144.6870 C   0  0  0  0  0  0  0  0  0  0  0  0
  190.0840  177.6420  138.7360 C   0  0  1  0  0  3  0  0  0  0  0  0
  190.8280  177.3120  140.7330 C   0  0  0  0  0  0  0  0  0  0  0  0
  186.6030  178.0940  144.5310 C   0  0  0  0  0  0  0  0  0  0  0  0
  188.7630  177.4480  142.1050 C   0  0  1  0  0  3  0  0  0  0  0  0
  184.7190  178.0380  142.6840 C   0  0  0  0  0  3  0  0  0  0  0  0
  191.6390  177.0260  141.8920 N   0  0  0  0  0  0  0  0  0  0  0  0
  184.4280  179.0960  145.6020 C   0  0  0  0  0  3  0  0  0  0  0  0
  185.6960  178.5950  145.6540 C   0  0  0  0  0  3  0  0  0  0  0  0
  186.1420  178.0230  143.2730 C   0  0  0  0  0  0  0  0  0  0  0  0
  191.7930  176.4760  147.8460 C   0  0  0  0  0  3  0  0  0  0  0  0
  189.9960  176.9730  145.7910 C   0  0  0  0  0  0  0  0  0  0  0  0
  189.8160  177.5890  147.0480 C   0  0  0  0  0  3  0  0  0  0  0  0
  190.6990  177.3200  148.0680 C   0  0  0  0  0  3  0  0  0  0  0  0
  192.0190  175.9160  146.5770 C   0  0  0  0  0  3  0  0  0  0  0  0
  191.1220  176.1630  145.5580 C   0  0  0  0  0  3  0  0  0  0  0  0
  2  6  1  1  0  0  0
  2 12  1  0  0  0  0
  3 21  1  0  0  0  0
  4 14  2  0  0  0  0
  7 11  1  0  0  0  0
  8 10  1  0  0  0  0
  9  7  1  0  0  0  0
 10 19  1  0  0  0  0
 11 14  1  1  0  0  0
 11 16  1  0  0  0  0
 12  1  2  0  0  0  0
 12 23  1  0  0  0  0
 13  5  1  6  0  0  0
 13  7  1  0  0  0  0
 13  4  1  0  0  0  0
 14 18  1  0  0  0  0
 15  1  1  0  0  0  0
 15 20  1  0  0  0  0
 16  3  1  1  0  0  0
 16  2  1  0  0  0  0
 17  8  2  0  0  0  0
 17 21  1  0  0  0  0
 18  6  2  0  0  0  0
 19 20  2  0  0  0  0
 21 15  2  0  0  0  0
 22 25  1  0  0  0  0
 23 24  1  0  0  0  0
 24 25  2  0  0  0  0
 26 22  2  0  0  0  0
 27 23  2  0  0  0  0
 27 26  1  0  0  0  0
M  END
>  <MODEL>
9

>  <REMARK>
 VINA RESULT:      -9.5      1.782      6.827
  Name = 
  1 active torsions:
  status: ('A' for Active; 'I' for Inactive)
    1  A    between atoms: C_9  and  C_15
                            x       y       z     vdW  Elec       q    Type
                         _______ _______ _______ _____ _____    ______ ____

>  <TORSDO>
F 1

$$$$
