=
 OpenBabel10272413533D

 30 33  0  0  0  0  0  0  0  0999 V2000
  188.0640  177.5590  143.8530 C   0  0  0  0  0  3  0  0  0  0  0  0
  187.5320  177.7000  146.2220 C   0  0  0  0  0  0  0  0  0  0  0  0
  184.2760  179.0060  142.8780 N   0  0  0  0  0  0  0  0  0  0  0  0
  187.7140  177.7120  142.5060 C   0  0  0  0  0  0  0  0  0  0  0  0
  183.9010  179.2050  141.5870 C   0  0  0  0  0  3  0  0  0  0  0  0
  186.6230  178.0070  147.2370 C   0  0  0  0  0  3  0  0  0  0  0  0
  188.7960  177.2290  146.5610 O   0  0  0  0  0  1  0  0  0  0  0  0
  185.5090  178.5250  143.2060 C   0  0  0  0  0  0  0  0  0  0  0  0
  185.3480  178.4810  146.9230 C   0  0  0  0  0  3  0  0  0  0  0  0
  187.1650  177.8670  144.8770 C   0  0  0  0  0  0  0  0  0  0  0  0
  186.4350  178.2120  142.1800 C   0  0  0  0  0  0  0  0  0  0  0  0
  184.7870  178.9230  140.5480 C   0  0  0  0  0  3  0  0  0  0  0  0
  186.0540  178.4280  140.8490 C   0  0  0  0  0  3  0  0  0  0  0  0
  184.9740  178.6520  145.5870 C   0  0  0  0  0  3  0  0  0  0  0  0
  185.8730  178.3490  144.5540 C   0  0  0  0  0  0  0  0  0  0  0  0
  190.6430  176.2220  140.9780 O   0  0  0  0  0  0  0  0  0  0  0  0
  190.0150  176.9410  141.8010 C   0  0  0  0  0  0  0  0  0  0  0  0
  188.6740  177.3690  141.4900 N   0  0  0  0  0  0  0  0  0  0  0  0
  191.0530  176.4750  144.0070 N   0  0  0  0  0  0  0  0  0  0  0  0
  191.0570  178.6070  143.3450 N   0  0  0  0  0  2  0  0  0  0  0  0
  190.6950  177.3440  143.0480 C   0  0  0  0  0  0  0  0  0  0  0  0
  191.6480  177.1840  144.9510 N   0  0  0  0  0  0  0  0  0  0  0  0
  191.6500  178.4700  144.5480 C   0  0  0  0  0  3  0  0  0  0  0  0
  188.2740  177.4820  140.0910 C   0  0  0  0  0  2  0  0  0  0  0  0
  189.2200  178.4140  139.3520 C   0  0  0  0  0  2  0  0  0  0  0  0
  189.3760  177.9670  137.9120 C   0  0  0  0  0  2  0  0  0  0  0  0
  189.3950  176.5120  137.8420 N   0  0  0  0  0  0  0  0  0  0  0  0
  191.7400  176.4840  137.4920 N   0  0  0  0  0  1  0  0  0  0  0  0
  190.4810  175.8320  137.6490 C   0  0  0  0  0  0  0  0  0  0  0  0
  190.4170  174.4120  137.5930 N   0  0  0  0  0  1  0  0  0  0  0  0
  1 10  1  0  0  0  0
  2  7  1  0  0  0  0
  2  6  1  0  0  0  0
  3  8  1  0  0  0  0
  4  1  2  0  0  0  0
  5  3  2  0  0  0  0
  8 15  1  0  0  0  0
  9  6  2  0  0  0  0
 10  2  2  0  0  0  0
 11  4  1  0  0  0  0
 11  8  2  0  0  0  0
 12 13  2  0  0  0  0
 12  5  1  0  0  0  0
 13 11  1  0  0  0  0
 14  9  1  0  0  0  0
 15 10  1  0  0  0  0
 15 14  2  0  0  0  0
 16 17  2  0  0  0  0
 17 21  1  0  0  0  0
 18 17  1  0  0  0  0
 18  4  1  0  0  0  0
 19 22  1  0  0  0  0
 20 23  1  0  0  0  0
 21 20  1  0  0  0  0
 21 19  2  0  0  0  0
 23 22  2  0  0  0  0
 24 18  1  0  0  0  0
 25 24  1  0  0  0  0
 26 25  1  0  0  0  0
 27 26  1  0  0  0  0
 28 29  1  0  0  0  0
 29 27  2  0  0  0  0
 30 29  1  0  0  0  0
M  END
>  <MODEL>
1

>  <REMARK>
 VINA RESULT:      -8.7      0.000      0.000
  Name = 
  6 active torsions:
  status: ('A' for Active; 'I' for Inactive)
    1  A    between atoms: C_4  and  N_13
    2  A    between atoms: N_7  and  C_16
    3  A    between atoms: C_8  and  C_12
    4  A    between atoms: N_13  and  C_27
    5  A    between atoms: C_16  and  C_30
    6  A    between atoms: C_27  and  C_30
                            x       y       z     vdW  Elec       q    Type
                         _______ _______ _______ _____ _____    ______ ____

>  <TORSDO>
F 6

$$$$
=
 OpenBabel10272413533D

 30 33  0  0  0  0  0  0  0  0999 V2000
  188.1110  177.6080  143.7550 C   0  0  0  0  0  3  0  0  0  0  0  0
  187.6560  177.7260  146.1410 C   0  0  0  0  0  0  0  0  0  0  0  0
  184.2570  178.9630  142.9150 N   0  0  0  0  0  0  0  0  0  0  0  0
  187.7120  177.7580  142.4220 C   0  0  0  0  0  0  0  0  0  0  0  0
  183.8330  179.1580  141.6380 C   0  0  0  0  0  3  0  0  0  0  0  0
  186.7740  178.0050  147.1880 C   0  0  0  0  0  3  0  0  0  0  0  0
  188.9420  177.2860  146.4350 O   0  0  0  0  0  1  0  0  0  0  0  0
  185.5120  178.5120  143.1990 C   0  0  0  0  0  0  0  0  0  0  0  0
  185.4770  178.4480  146.9190 C   0  0  0  0  0  3  0  0  0  0  0  0
  187.2390  177.8890  144.8100 C   0  0  0  0  0  0  0  0  0  0  0  0
  186.4100  178.2270  142.1410 C   0  0  0  0  0  0  0  0  0  0  0  0
  184.6910  178.9020  140.5690 C   0  0  0  0  0  3  0  0  0  0  0  0
  185.9800  178.4390  140.8250 C   0  0  0  0  0  3  0  0  0  0  0  0
  185.0550  178.6150  145.5980 C   0  0  0  0  0  3  0  0  0  0  0  0
  185.9250  178.3390  144.5330 C   0  0  0  0  0  0  0  0  0  0  0  0
  190.5550  176.2490  140.7580 O   0  0  0  0  0  0  0  0  0  0  0  0
  189.9690  176.9370  141.6360 C   0  0  0  0  0  0  0  0  0  0  0  0
  188.6460  177.4440  141.3720 N   0  0  0  0  0  0  0  0  0  0  0  0
  191.0150  176.2720  143.7870 N   0  0  0  0  0  0  0  0  0  0  0  0
  191.0910  178.4450  143.2820 N   0  0  0  0  0  2  0  0  0  0  0  0
  190.6790  177.2220  142.8990 C   0  0  0  0  0  0  0  0  0  0  0  0
  191.6480  176.8880  144.7700 N   0  0  0  0  0  0  0  0  0  0  0  0
  191.6920  178.1990  144.4630 C   0  0  0  0  0  3  0  0  0  0  0  0
  188.2370  177.6720  139.9900 C   0  0  0  0  0  2  0  0  0  0  0  0
  189.1840  178.6540  139.3210 C   0  0  0  0  0  2  0  0  0  0  0  0
  188.9050  178.7210  137.8320 C   0  0  0  0  0  2  0  0  0  0  0  0
  187.4760  178.5770  137.5880 N   0  0  0  0  0  0  0  0  0  0  0  0
  187.8310  176.7210  136.1570 N   0  0  0  0  0  1  0  0  0  0  0  0
  186.9840  177.6580  136.8180 C   0  0  0  0  0  0  0  0  0  0  0  0
  185.5760  177.5820  136.6290 N   0  0  0  0  0  1  0  0  0  0  0  0
  1 10  1  0  0  0  0
  2  7  1  0  0  0  0
  2  6  1  0  0  0  0
  3  8  1  0  0  0  0
  4  1  2  0  0  0  0
  5  3  2  0  0  0  0
  8 15  1  0  0  0  0
  9  6  2  0  0  0  0
 10  2  2  0  0  0  0
 11  4  1  0  0  0  0
 11  8  2  0  0  0  0
 12 13  2  0  0  0  0
 12  5  1  0  0  0  0
 13 11  1  0  0  0  0
 14  9  1  0  0  0  0
 15 10  1  0  0  0  0
 15 14  2  0  0  0  0
 16 17  2  0  0  0  0
 17 21  1  0  0  0  0
 18 17  1  0  0  0  0
 18  4  1  0  0  0  0
 19 22  1  0  0  0  0
 20 23  1  0  0  0  0
 21 20  1  0  0  0  0
 21 19  2  0  0  0  0
 23 22  2  0  0  0  0
 24 18  1  0  0  0  0
 25 24  1  0  0  0  0
 26 25  1  0  0  0  0
 27 26  1  0  0  0  0
 28 29  1  0  0  0  0
 29 27  2  0  0  0  0
 30 29  1  0  0  0  0
M  END
>  <MODEL>
2

>  <REMARK>
 VINA RESULT:      -8.6      1.277      1.606
  Name = 
  6 active torsions:
  status: ('A' for Active; 'I' for Inactive)
    1  A    between atoms: C_4  and  N_13
    2  A    between atoms: N_7  and  C_16
    3  A    between atoms: C_8  and  C_12
    4  A    between atoms: N_13  and  C_27
    5  A    between atoms: C_16  and  C_30
    6  A    between atoms: C_27  and  C_30
                            x       y       z     vdW  Elec       q    Type
                         _______ _______ _______ _____ _____    ______ ____

>  <TORSDO>
F 6

$$$$
=
 OpenBabel10272413533D

 30 33  0  0  0  0  0  0  0  0999 V2000
  188.5680  177.7460  144.1540 C   0  0  0  0  0  3  0  0  0  0  0  0
  189.2330  177.6580  146.4920 C   0  0  0  0  0  0  0  0  0  0  0  0
  184.6290  178.5470  145.2650 N   0  0  0  0  0  0  0  0  0  0  0  0
  187.5950  177.9100  143.1610 C   0  0  0  0  0  0  0  0  0  0  0  0
  183.6550  178.7480  144.3390 C   0  0  0  0  0  3  0  0  0  0  0  0
  188.8950  177.7400  147.8450 C   0  0  0  0  0  3  0  0  0  0  0  0
  190.5520  177.4020  146.1340 O   0  0  0  0  0  1  0  0  0  0  0  0
  185.9180  178.2760  144.9120 C   0  0  0  0  0  0  0  0  0  0  0  0
  187.5780  177.9960  148.2290 C   0  0  0  0  0  3  0  0  0  0  0  0
  188.2430  177.8320  145.5100 C   0  0  0  0  0  0  0  0  0  0  0  0
  186.2640  178.1910  143.5400 C   0  0  0  0  0  0  0  0  0  0  0  0
  183.9570  178.6870  142.9790 C   0  0  0  0  0  3  0  0  0  0  0  0
  185.2650  178.4100  142.5840 C   0  0  0  0  0  3  0  0  0  0  0  0
  186.5870  178.1720  147.2600 C   0  0  0  0  0  3  0  0  0  0  0  0
  186.9060  178.0920  145.8960 C   0  0  0  0  0  0  0  0  0  0  0  0
  189.0930  176.5370  140.1610 O   0  0  0  0  0  0  0  0  0  0  0  0
  189.0800  176.9770  141.3410 C   0  0  0  0  0  0  0  0  0  0  0  0
  187.9800  177.8010  141.7780 N   0  0  0  0  0  0  0  0  0  0  0  0
  191.1870  177.5270  142.5330 N   0  0  0  0  0  0  0  0  0  0  0  0
  190.3840  175.4680  142.8470 N   0  0  0  0  0  2  0  0  0  0  0  0
  190.2150  176.6520  142.2280 C   0  0  0  0  0  0  0  0  0  0  0  0
  192.0090  176.9000  143.3570 N   0  0  0  0  0  0  0  0  0  0  0  0
  191.5220  175.6580  143.5440 C   0  0  0  0  0  3  0  0  0  0  0  0
  187.2390  178.5750  140.7890 C   0  0  0  0  0  2  0  0  0  0  0  0
  187.6550  178.1640  139.3860 C   0  0  0  0  0  2  0  0  0  0  0  0
  186.4310  177.9690  138.5130 C   0  0  0  0  0  2  0  0  0  0  0  0
  185.5220  179.0960  138.6720 N   0  0  0  0  0  0  0  0  0  0  0  0
  183.6900  177.6550  139.1070 N   0  0  0  0  0  1  0  0  0  0  0  0
  184.2630  178.9510  138.9450 C   0  0  0  0  0  0  0  0  0  0  0  0
  183.4400  180.1020  139.0860 N   0  0  0  0  0  1  0  0  0  0  0  0
  1 10  1  0  0  0  0
  2  6  1  0  0  0  0
  4 11  1  0  0  0  0
  4  1  2  0  0  0  0
  5  3  2  0  0  0  0
  6  9  2  0  0  0  0
  7  2  1  0  0  0  0
  8  3  1  0  0  0  0
  8 15  1  0  0  0  0
 10 15  1  0  0  0  0
 10  2  2  0  0  0  0
 11  8  2  0  0  0  0
 12  5  1  0  0  0  0
 13 12  2  0  0  0  0
 13 11  1  0  0  0  0
 14  9  1  0  0  0  0
 15 14  2  0  0  0  0
 16 17  2  0  0  0  0
 17 18  1  0  0  0  0
 17 21  1  0  0  0  0
 18  4  1  0  0  0  0
 19 22  1  0  0  0  0
 20 23  1  0  0  0  0
 21 19  2  0  0  0  0
 21 20  1  0  0  0  0
 22 23  2  0  0  0  0
 24 18  1  0  0  0  0
 25 24  1  0  0  0  0
 26 27  1  0  0  0  0
 26 25  1  0  0  0  0
 27 29  2  0  0  0  0
 29 30  1  0  0  0  0
 29 28  1  0  0  0  0
M  END
>  <MODEL>
3

>  <REMARK>
 VINA RESULT:      -8.4      2.196      3.315
  Name = 
  6 active torsions:
  status: ('A' for Active; 'I' for Inactive)
    1  A    between atoms: C_4  and  N_13
    2  A    between atoms: N_7  and  C_16
    3  A    between atoms: C_8  and  C_12
    4  A    between atoms: N_13  and  C_27
    5  A    between atoms: C_16  and  C_30
    6  A    between atoms: C_27  and  C_30
                            x       y       z     vdW  Elec       q    Type
                         _______ _______ _______ _____ _____    ______ ____

>  <TORSDO>
F 6

$$$$
=
 OpenBabel10272413533D

 30 33  0  0  0  0  0  0  0  0999 V2000
  187.4240  178.4060  140.5280 C   0  0  0  0  0  3  0  0  0  0  0  0
  185.3740  179.0930  141.6420 C   0  0  0  0  0  0  0  0  0  0  0  0
  188.8420  176.7460  144.0820 N   0  0  0  0  0  0  0  0  0  0  0  0
  188.6870  177.8020  140.5480 C   0  0  0  0  0  0  0  0  0  0  0  0
  190.0460  176.1190  144.1440 C   0  0  0  0  0  3  0  0  0  0  0  0
  184.5960  179.1620  142.8000 C   0  0  0  0  0  3  0  0  0  0  0  0
  184.8850  179.6400  140.4600 O   0  0  0  0  0  1  0  0  0  0  0  0
  188.3740  177.3000  142.9270 C   0  0  0  0  0  0  0  0  0  0  0  0
  185.0650  178.6210  143.9980 C   0  0  0  0  0  3  0  0  0  0  0  0
  186.6360  178.4770  141.6800 C   0  0  0  0  0  0  0  0  0  0  0  0
  189.1600  177.2320  141.7490 C   0  0  0  0  0  0  0  0  0  0  0  0
  190.8430  176.0190  143.0040 C   0  0  0  0  0  3  0  0  0  0  0  0
  190.3950  176.5750  141.8080 C   0  0  0  0  0  3  0  0  0  0  0  0
  186.3180  178.0040  144.0450 C   0  0  0  0  0  3  0  0  0  0  0  0
  187.1140  177.9250  142.8920 C   0  0  0  0  0  0  0  0  0  0  0  0
  189.5920  178.3750  137.0860 O   0  0  0  0  0  0  0  0  0  0  0  0
  188.8780  177.9470  138.0320 C   0  0  0  0  0  0  0  0  0  0  0  0
  189.4640  177.7660  139.3360 N   0  0  0  0  0  0  0  0  0  0  0  0
  186.5020  178.5460  137.6320 N   0  0  0  0  0  0  0  0  0  0  0  0
  186.9950  176.3700  137.5700 N   0  0  0  0  0  0  0  0  0  0  0  0
  187.4650  177.6180  137.7560 C   0  0  0  0  0  0  0  0  0  0  0  0
  185.3840  177.8910  137.3700 N   0  0  0  0  0  2  0  0  0  0  0  0
  185.6850  176.5780  137.3340 C   0  0  0  0  0  3  0  0  0  0  0  0
  190.8970  177.5140  139.4400 C   0  0  0  0  0  2  0  0  0  0  0  0
  191.2500  176.2130  138.7380 C   0  0  0  0  0  2  0  0  0  0  0  0
  192.3470  176.4490  137.7170 C   0  0  0  0  0  2  0  0  0  0  0  0
  193.6460  176.1620  138.3080 N   0  0  0  0  0  0  0  0  0  0  0  0
  193.7030  174.0060  137.3230 N   0  0  0  0  0  1  0  0  0  0  0  0
  194.2690  175.0390  138.1270 C   0  0  0  0  0  0  0  0  0  0  0  0
  195.5360  174.8340  138.7400 N   0  0  0  0  0  1  0  0  0  0  0  0
  1  4  2  0  0  0  0
  1 10  1  0  0  0  0
  2 10  2  0  0  0  0
  2  6  1  0  0  0  0
  3  5  1  0  0  0  0
  4 11  1  0  0  0  0
  6  9  2  0  0  0  0
  7  2  1  0  0  0  0
  8  3  2  0  0  0  0
  9 14  1  0  0  0  0
 10 15  1  0  0  0  0
 11 13  2  0  0  0  0
 11  8  1  0  0  0  0
 12  5  2  0  0  0  0
 13 12  1  0  0  0  0
 15  8  1  0  0  0  0
 15 14  2  0  0  0  0
 16 17  2  0  0  0  0
 17 18  1  0  0  0  0
 18 24  1  0  0  0  0
 18  4  1  0  0  0  0
 19 21  2  0  0  0  0
 20 21  1  0  0  0  0
 21 17  1  0  0  0  0
 22 19  1  0  0  0  0
 23 22  1  0  0  0  0
 23 20  2  0  0  0  0
 25 24  1  0  0  0  0
 26 27  1  0  0  0  0
 26 25  1  0  0  0  0
 28 29  1  0  0  0  0
 29 27  2  0  0  0  0
 29 30  1  0  0  0  0
M  END
>  <MODEL>
4

>  <REMARK>
 VINA RESULT:      -8.2      2.621      5.228
  Name = 
  6 active torsions:
  status: ('A' for Active; 'I' for Inactive)
    1  A    between atoms: C_4  and  N_13
    2  A    between atoms: N_7  and  C_16
    3  A    between atoms: C_8  and  C_12
    4  A    between atoms: N_13  and  C_27
    5  A    between atoms: C_16  and  C_30
    6  A    between atoms: C_27  and  C_30
                            x       y       z     vdW  Elec       q    Type
                         _______ _______ _______ _____ _____    ______ ____

>  <TORSDO>
F 6

$$$$
=
 OpenBabel10272413533D

 30 33  0  0  0  0  0  0  0  0999 V2000
  187.0220  178.2180  144.6040 C   0  0  0  0  0  3  0  0  0  0  0  0
  186.6500  178.3930  147.0010 C   0  0  0  0  0  0  0  0  0  0  0  0
  190.7980  176.5750  145.2720 N   0  0  0  0  0  0  0  0  0  0  0  0
  187.8250  177.8730  143.5100 C   0  0  0  0  0  0  0  0  0  0  0  0
  191.5990  176.1930  144.2440 C   0  0  0  0  0  3  0  0  0  0  0  0
  187.1070  178.2110  148.3090 C   0  0  0  0  0  3  0  0  0  0  0  0
  185.3850  178.9310  146.7920 O   0  0  0  0  0  1  0  0  0  0  0  0
  189.5650  177.1210  145.0640 C   0  0  0  0  0  0  0  0  0  0  0  0
  188.3740  177.6730  148.5440 C   0  0  0  0  0  3  0  0  0  0  0  0
  187.4670  178.0350  145.9160 C   0  0  0  0  0  0  0  0  0  0  0  0
  189.0970  177.3080  143.7390 C   0  0  0  0  0  0  0  0  0  0  0  0
  191.1710  176.3470  142.9260 C   0  0  0  0  0  3  0  0  0  0  0  0
  189.9170  176.9040  142.6780 C   0  0  0  0  0  3  0  0  0  0  0  0
  189.1930  177.3130  147.4710 C   0  0  0  0  0  3  0  0  0  0  0  0
  188.7520  177.4880  146.1510 C   0  0  0  0  0  0  0  0  0  0  0  0
  185.9850  179.4140  140.7940 O   0  0  0  0  0  0  0  0  0  0  0  0
  186.1270  178.8540  141.9140 C   0  0  0  0  0  0  0  0  0  0  0  0
  187.3230  178.0930  142.1780 N   0  0  0  0  0  0  0  0  0  0  0  0
  184.8620  180.0690  143.6700 N   0  0  0  0  0  0  0  0  0  0  0  0
  184.1080  178.0370  143.1370 N   0  0  0  0  0  2  0  0  0  0  0  0
  185.0430  178.9780  142.9080 C   0  0  0  0  0  0  0  0  0  0  0  0
  183.7960  179.8310  144.4150 N   0  0  0  0  0  0  0  0  0  0  0  0
  183.3440  178.6040  144.0910 C   0  0  0  0  0  3  0  0  0  0  0  0
  188.0460  177.4980  141.0590 C   0  0  0  0  0  2  0  0  0  0  0  0
  188.7660  178.5790  140.2700 C   0  0  0  0  0  2  0  0  0  0  0  0
  188.9850  178.1270  138.8390 C   0  0  0  0  0  2  0  0  0  0  0  0
  190.0030  177.0870  138.7960 N   0  0  0  0  0  0  0  0  0  0  0  0
  188.7140  175.7800  137.2960 N   0  0  0  0  0  1  0  0  0  0  0  0
  189.8780  176.0090  138.0880 C   0  0  0  0  0  0  0  0  0  0  0  0
  190.9180  175.0390  138.0990 N   0  0  0  0  0  1  0  0  0  0  0  0
  1 10  1  0  0  0  0
  2  6  1  0  0  0  0
  4 11  1  0  0  0  0
  4  1  2  0  0  0  0
  5  3  2  0  0  0  0
  6  9  2  0  0  0  0
  7  2  1  0  0  0  0
  8  3  1  0  0  0  0
  8 15  1  0  0  0  0
 10 15  1  0  0  0  0
 10  2  2  0  0  0  0
 11  8  2  0  0  0  0
 12  5  1  0  0  0  0
 13 12  2  0  0  0  0
 13 11  1  0  0  0  0
 14  9  1  0  0  0  0
 15 14  2  0  0  0  0
 16 17  2  0  0  0  0
 17 18  1  0  0  0  0
 17 21  1  0  0  0  0
 18  4  1  0  0  0  0
 19 22  1  0  0  0  0
 20 23  1  0  0  0  0
 21 20  1  0  0  0  0
 21 19  2  0  0  0  0
 23 22  2  0  0  0  0
 24 18  1  0  0  0  0
 25 24  1  0  0  0  0
 26 25  1  0  0  0  0
 27 26  1  0  0  0  0
 28 29  1  0  0  0  0
 29 30  1  0  0  0  0
 29 27  2  0  0  0  0
M  END
>  <MODEL>
5

>  <REMARK>
 VINA RESULT:      -8.2      1.785      4.644
  Name = 
  6 active torsions:
  status: ('A' for Active; 'I' for Inactive)
    1  A    between atoms: C_4  and  N_13
    2  A    between atoms: N_7  and  C_16
    3  A    between atoms: C_8  and  C_12
    4  A    between atoms: N_13  and  C_27
    5  A    between atoms: C_16  and  C_30
    6  A    between atoms: C_27  and  C_30
                            x       y       z     vdW  Elec       q    Type
                         _______ _______ _______ _____ _____    ______ ____

>  <TORSDO>
F 6

$$$$
=
 OpenBabel10272413533D

 30 33  0  0  0  0  0  0  0  0999 V2000
  186.7350  177.6590  142.4810 C   0  0  0  0  0  3  0  0  0  0  0  0
  184.4540  178.2790  141.9110 C   0  0  0  0  0  0  0  0  0  0  0  0
  185.9800  178.4400  146.5080 N   0  0  0  0  0  0  0  0  0  0  0  0
  187.7600  177.4840  143.4180 C   0  0  0  0  0  0  0  0  0  0  0  0
  186.9310  178.2530  147.4600 C   0  0  0  0  0  3  0  0  0  0  0  0
  183.1910  178.7290  142.3060 C   0  0  0  0  0  3  0  0  0  0  0  0
  184.6890  178.0110  140.5660 O   0  0  0  0  0  1  0  0  0  0  0  0
  186.2200  178.1950  145.1880 C   0  0  0  0  0  0  0  0  0  0  0  0
  182.9310  179.0040  143.6500 C   0  0  0  0  0  3  0  0  0  0  0  0
  185.4680  178.1030  142.8670 C   0  0  0  0  0  0  0  0  0  0  0  0
  187.4990  177.7390  144.7820 C   0  0  0  0  0  0  0  0  0  0  0  0
  188.1980  177.7920  147.1030 C   0  0  0  0  0  3  0  0  0  0  0  0
  188.4770  177.5340  145.7620 C   0  0  0  0  0  3  0  0  0  0  0  0
  183.9330  178.8310  144.6080 C   0  0  0  0  0  3  0  0  0  0  0  0
  185.2060  178.3810  144.2300 C   0  0  0  0  0  0  0  0  0  0  0  0
  190.8400  177.3980  141.5110 O   0  0  0  0  0  0  0  0  0  0  0  0
  189.5910  177.3920  141.6780 C   0  0  0  0  0  0  0  0  0  0  0  0
  189.0520  177.0350  142.9670 N   0  0  0  0  0  0  0  0  0  0  0  0
  188.0870  178.9010  140.4050 N   0  0  0  0  0  0  0  0  0  0  0  0
  188.5020  176.9110  139.4820 N   0  0  0  0  0  0  0  0  0  0  0  0
  188.7240  177.7250  140.5320 C   0  0  0  0  0  0  0  0  0  0  0  0
  187.4310  178.8480  139.2590 N   0  0  0  0  0  2  0  0  0  0  0  0
  187.6830  177.6470  138.7040 C   0  0  0  0  0  3  0  0  0  0  0  0
  189.8290  176.1660  143.8440 C   0  0  0  0  0  2  0  0  0  0  0  0
  191.2780  176.6220  143.8790 C   0  0  0  0  0  2  0  0  0  0  0  0
  191.6280  177.1520  145.2560 C   0  0  0  0  0  2  0  0  0  0  0  0
  192.0100  176.0520  146.1300 N   0  0  0  0  0  0  0  0  0  0  0  0
  191.6910  177.3800  148.0680 N   0  0  0  0  0  1  0  0  0  0  0  0
  192.0390  176.1580  147.4220 C   0  0  0  0  0  0  0  0  0  0  0  0
  192.4250  175.0360  148.2070 N   0  0  0  0  0  1  0  0  0  0  0  0
  1 10  2  0  0  0  0
  1  4  1  0  0  0  0
  2  6  2  0  0  0  0
  2 10  1  0  0  0  0
  3  5  2  0  0  0  0
  4 11  2  0  0  0  0
  6  9  1  0  0  0  0
  7  2  1  0  0  0  0
  8  3  1  0  0  0  0
  9 14  2  0  0  0  0
 10 15  1  0  0  0  0
 11  8  1  0  0  0  0
 11 13  1  0  0  0  0
 12  5  1  0  0  0  0
 13 12  2  0  0  0  0
 15 14  1  0  0  0  0
 15  8  2  0  0  0  0
 16 17  2  0  0  0  0
 17 18  1  0  0  0  0
 18  4  1  0  0  0  0
 18 24  1  0  0  0  0
 19 21  2  0  0  0  0
 20 21  1  0  0  0  0
 21 17  1  0  0  0  0
 22 19  1  0  0  0  0
 23 22  1  0  0  0  0
 23 20  2  0  0  0  0
 24 25  1  0  0  0  0
 25 26  1  0  0  0  0
 26 27  1  0  0  0  0
 27 29  2  0  0  0  0
 29 28  1  0  0  0  0
 29 30  1  0  0  0  0
M  END
>  <MODEL>
6

>  <REMARK>
 VINA RESULT:      -8.1      2.177      5.743
  Name = 
  6 active torsions:
  status: ('A' for Active; 'I' for Inactive)
    1  A    between atoms: C_4  and  N_13
    2  A    between atoms: N_7  and  C_16
    3  A    between atoms: C_8  and  C_12
    4  A    between atoms: N_13  and  C_27
    5  A    between atoms: C_16  and  C_30
    6  A    between atoms: C_27  and  C_30
                            x       y       z     vdW  Elec       q    Type
                         _______ _______ _______ _____ _____    ______ ____

>  <TORSDO>
F 6

$$$$
=
 OpenBabel10272413533D

 30 33  0  0  0  0  0  0  0  0999 V2000
  185.3230  178.7240  142.4260 C   0  0  0  0  0  3  0  0  0  0  0  0
  184.1090  179.0050  144.5140 C   0  0  0  0  0  0  0  0  0  0  0  0
  188.4960  176.9440  144.4660 N   0  0  0  0  0  0  0  0  0  0  0  0
  186.4500  178.3040  141.7100 C   0  0  0  0  0  0  0  0  0  0  0  0
  189.5960  176.4890  143.8120 C   0  0  0  0  0  3  0  0  0  0  0  0
  184.0440  178.8520  145.9020 C   0  0  0  0  0  3  0  0  0  0  0  0
  183.0390  179.5890  143.8440 O   0  0  0  0  0  1  0  0  0  0  0  0
  187.4570  177.5350  143.8090 C   0  0  0  0  0  0  0  0  0  0  0  0
  185.1050  178.2680  146.5970 C   0  0  0  0  0  3  0  0  0  0  0  0
  185.2460  178.5710  143.8130 C   0  0  0  0  0  0  0  0  0  0  0  0
  187.5180  177.6920  142.4020 C   0  0  0  0  0  0  0  0  0  0  0  0
  189.6890  176.6120  142.4270 C   0  0  0  0  0  3  0  0  0  0  0  0
  188.6460  177.2130  141.7240 C   0  0  0  0  0  3  0  0  0  0  0  0
  186.2390  177.8330  145.9070 C   0  0  0  0  0  3  0  0  0  0  0  0
  186.3230  177.9780  144.5140 C   0  0  0  0  0  0  0  0  0  0  0  0
  185.3890  179.3500  138.4060 O   0  0  0  0  0  0  0  0  0  0  0  0
  185.2950  178.7380  139.5040 C   0  0  0  0  0  0  0  0  0  0  0  0
  186.4840  178.4940  140.2830 N   0  0  0  0  0  0  0  0  0  0  0  0
  183.0120  179.0820  140.4150 N   0  0  0  0  0  0  0  0  0  0  0  0
  183.5520  176.9860  139.8710 N   0  0  0  0  0  2  0  0  0  0  0  0
  183.9650  178.2660  139.9370 C   0  0  0  0  0  0  0  0  0  0  0  0
  181.9650  178.3200  140.6760 N   0  0  0  0  0  0  0  0  0  0  0  0
  182.2930  177.0560  140.3470 C   0  0  0  0  0  3  0  0  0  0  0  0
  187.7720  178.4140  139.6030 C   0  0  0  0  0  2  0  0  0  0  0  0
  187.6780  177.4700  138.4160 C   0  0  0  0  0  2  0  0  0  0  0  0
  188.9400  177.5510  137.5800 C   0  0  0  0  0  2  0  0  0  0  0  0
  189.5280  176.2260  137.4380 N   0  0  0  0  0  0  0  0  0  0  0  0
  191.1740  176.6960  139.0780 N   0  0  0  0  0  1  0  0  0  0  0  0
  190.5540  175.8350  138.1260 C   0  0  0  0  0  0  0  0  0  0  0  0
  191.0710  174.5240  137.9290 N   0  0  0  0  0  1  0  0  0  0  0  0
  1 10  1  0  0  0  0
  2  6  1  0  0  0  0
  4 11  1  0  0  0  0
  4  1  2  0  0  0  0
  5  3  1  0  0  0  0
  6  9  2  0  0  0  0
  7  2  1  0  0  0  0
  8  3  2  0  0  0  0
  8 15  1  0  0  0  0
 10 15  1  0  0  0  0
 10  2  2  0  0  0  0
 11  8  1  0  0  0  0
 12  5  2  0  0  0  0
 13 11  2  0  0  0  0
 13 12  1  0  0  0  0
 14  9  1  0  0  0  0
 15 14  2  0  0  0  0
 16 17  2  0  0  0  0
 17 21  1  0  0  0  0
 17 18  1  0  0  0  0
 18  4  1  0  0  0  0
 19 22  1  0  0  0  0
 20 21  1  0  0  0  0
 20 23  1  0  0  0  0
 21 19  2  0  0  0  0
 23 22  2  0  0  0  0
 24 18  1  0  0  0  0
 25 24  1  0  0  0  0
 26 25  1  0  0  0  0
 27 26  1  0  0  0  0
 27 29  2  0  0  0  0
 29 28  1  0  0  0  0
 30 29  1  0  0  0  0
M  END
>  <MODEL>
7

>  <REMARK>
 VINA RESULT:      -8.0      2.374      4.950
  Name = 
  6 active torsions:
  status: ('A' for Active; 'I' for Inactive)
    1  A    between atoms: C_4  and  N_13
    2  A    between atoms: N_7  and  C_16
    3  A    between atoms: C_8  and  C_12
    4  A    between atoms: N_13  and  C_27
    5  A    between atoms: C_16  and  C_30
    6  A    between atoms: C_27  and  C_30
                            x       y       z     vdW  Elec       q    Type
                         _______ _______ _______ _____ _____    ______ ____

>  <TORSDO>
F 6

$$$$
=
 OpenBabel10272413533D

 30 33  0  0  0  0  0  0  0  0999 V2000
  187.9380  178.1390  140.7490 C   0  0  0  0  0  3  0  0  0  0  0  0
  185.9280  178.7360  139.5170 C   0  0  0  0  0  0  0  0  0  0  0  0
  185.7620  177.9950  144.3040 N   0  0  0  0  0  0  0  0  0  0  0  0
  188.5960  177.8260  141.9440 C   0  0  0  0  0  0  0  0  0  0  0  0
  186.3480  177.6630  145.4840 C   0  0  0  0  0  3  0  0  0  0  0  0
  184.5590  179.0180  139.5060 C   0  0  0  0  0  3  0  0  0  0  0  0
  186.6400  178.7760  138.3230 O   0  0  0  0  0  1  0  0  0  0  0  0
  186.4670  178.0530  143.1380 C   0  0  0  0  0  0  0  0  0  0  0  0
  183.8230  178.9840  140.6920 C   0  0  0  0  0  3  0  0  0  0  0  0
  186.5690  178.4180  140.7260 C   0  0  0  0  0  0  0  0  0  0  0  0
  187.8550  177.7680  143.1440 C   0  0  0  0  0  0  0  0  0  0  0  0
  187.7080  177.3620  145.5310 C   0  0  0  0  0  3  0  0  0  0  0  0
  188.4580  177.4140  144.3570 C   0  0  0  0  0  3  0  0  0  0  0  0
  184.4520  178.6670  141.8980 C   0  0  0  0  0  3  0  0  0  0  0  0
  185.8250  178.3820  141.9290 C   0  0  0  0  0  0  0  0  0  0  0  0
  191.9940  177.6990  140.6920 O   0  0  0  0  0  0  0  0  0  0  0  0
  190.7570  177.4600  140.6850 C   0  0  0  0  0  0  0  0  0  0  0  0
  190.0110  177.5590  141.9150 N   0  0  0  0  0  0  0  0  0  0  0  0
  189.8430  177.9200  138.4240 N   0  0  0  0  0  0  0  0  0  0  0  0
  189.7870  175.7930  139.0970 N   0  0  0  0  0  0  0  0  0  0  0  0
  190.1230  177.0580  139.4150 C   0  0  0  0  0  0  0  0  0  0  0  0
  189.3060  177.2070  137.4490 N   0  0  0  0  0  2  0  0  0  0  0  0
  189.2740  175.9240  137.8580 C   0  0  0  0  0  3  0  0  0  0  0  0
  190.7040  177.3580  143.1830 C   0  0  0  0  0  2  0  0  0  0  0  0
  191.1830  175.9200  143.2930 C   0  0  0  0  0  2  0  0  0  0  0  0
  191.9820  175.7300  144.5680 C   0  0  0  0  0  2  0  0  0  0  0  0
  191.4430  176.5760  145.6230 N   0  0  0  0  0  0  0  0  0  0  0  0
  192.6370  175.3890  147.2910 N   0  0  0  0  0  1  0  0  0  0  0  0
  191.7450  176.4190  146.8740 C   0  0  0  0  0  0  0  0  0  0  0  0
  191.1760  177.2890  147.8450 N   0  0  0  0  0  1  0  0  0  0  0  0
  1  4  1  0  0  0  0
  2 10  1  0  0  0  0
  3  5  2  0  0  0  0
  4 11  2  0  0  0  0
  5 12  1  0  0  0  0
  6  2  2  0  0  0  0
  6  9  1  0  0  0  0
  7  2  1  0  0  0  0
  8 11  1  0  0  0  0
  8  3  1  0  0  0  0
  9 14  2  0  0  0  0
 10  1  2  0  0  0  0
 10 15  1  0  0  0  0
 11 13  1  0  0  0  0
 13 12  2  0  0  0  0
 14 15  1  0  0  0  0
 15  8  2  0  0  0  0
 17 16  2  0  0  0  0
 17 18  1  0  0  0  0
 18  4  1  0  0  0  0
 18 24  1  0  0  0  0
 19 21  2  0  0  0  0
 20 21  1  0  0  0  0
 21 17  1  0  0  0  0
 22 23  1  0  0  0  0
 22 19  1  0  0  0  0
 23 20  2  0  0  0  0
 24 25  1  0  0  0  0
 25 26  1  0  0  0  0
 26 27  1  0  0  0  0
 27 29  2  0  0  0  0
 29 28  1  0  0  0  0
 29 30  1  0  0  0  0
M  END
>  <MODEL>
8

>  <REMARK>
 VINA RESULT:      -7.8      1.898      5.864
  Name = 
  6 active torsions:
  status: ('A' for Active; 'I' for Inactive)
    1  A    between atoms: C_4  and  N_13
    2  A    between atoms: N_7  and  C_16
    3  A    between atoms: C_8  and  C_12
    4  A    between atoms: N_13  and  C_27
    5  A    between atoms: C_16  and  C_30
    6  A    between atoms: C_27  and  C_30
                            x       y       z     vdW  Elec       q    Type
                         _______ _______ _______ _____ _____    ______ ____

>  <TORSDO>
F 6

$$$$
=
 OpenBabel10272413533D

 30 33  0  0  0  0  0  0  0  0999 V2000
  190.8540  176.5740  139.5320 C   0  0  0  0  0  3  0  0  0  0  0  0
  190.0900  176.9260  141.8140 C   0  0  0  0  0  0  0  0  0  0  0  0
  187.5560  178.6650  138.0660 N   0  0  0  0  0  0  0  0  0  0  0  0
  190.6980  176.7270  138.1490 C   0  0  0  0  0  0  0  0  0  0  0  0
  187.3780  178.8700  136.7340 C   0  0  0  0  0  3  0  0  0  0  0  0
  189.1460  177.4470  142.7030 C   0  0  0  0  0  3  0  0  0  0  0  0
  191.1910  176.2400  142.3160 O   0  0  0  0  0  1  0  0  0  0  0  0
  188.6270  177.9750  138.5540 C   0  0  0  0  0  0  0  0  0  0  0  0
  188.0320  178.1380  142.2230 C   0  0  0  0  0  3  0  0  0  0  0  0
  189.9190  177.0960  140.4300 C   0  0  0  0  0  0  0  0  0  0  0  0
  189.5860  177.4440  137.6560 C   0  0  0  0  0  0  0  0  0  0  0  0
  188.3060  178.3760  135.8190 C   0  0  0  0  0  3  0  0  0  0  0  0
  189.4110  177.6650  136.2840 C   0  0  0  0  0  3  0  0  0  0  0  0
  187.8550  178.3130  140.8480 C   0  0  0  0  0  3  0  0  0  0  0  0
  188.7910  177.7970  139.9400 C   0  0  0  0  0  0  0  0  0  0  0  0
  192.0950  175.1250  135.2150 O   0  0  0  0  0  0  0  0  0  0  0  0
  191.3460  175.2250  136.2230 C   0  0  0  0  0  0  0  0  0  0  0  0
  191.6840  176.1610  137.2660 N   0  0  0  0  0  0  0  0  0  0  0  0
  189.2390  174.2590  135.3340 N   0  0  0  0  0  0  0  0  0  0  0  0
  189.8840  173.5380  137.3460 N   0  0  0  0  0  0  0  0  0  0  0  0
  190.1580  174.3520  136.3090 C   0  0  0  0  0  0  0  0  0  0  0  0
  188.3450  173.3780  135.7480 N   0  0  0  0  0  2  0  0  0  0  0  0
  188.7370  172.9450  136.9620 C   0  0  0  0  0  3  0  0  0  0  0  0
  193.0810  176.5360  137.4560 C   0  0  0  0  0  2  0  0  0  0  0  0
  193.8690  175.3540  137.9960 C   0  0  0  0  0  2  0  0  0  0  0  0
  194.9940  174.9960  137.0450 C   0  0  0  0  0  2  0  0  0  0  0  0
  196.1990  174.6750  137.7980 N   0  0  0  0  0  0  0  0  0  0  0  0
  197.5740  175.7880  136.2200 N   0  0  0  0  0  1  0  0  0  0  0  0
  197.3840  175.0390  137.4190 C   0  0  0  0  0  0  0  0  0  0  0  0
  198.5120  174.6860  138.2100 N   0  0  0  0  0  1  0  0  0  0  0  0
  1 10  1  0  0  0  0
  2  7  1  0  0  0  0
  2  6  1  0  0  0  0
  3  8  1  0  0  0  0
  4  1  2  0  0  0  0
  5  3  2  0  0  0  0
  8 15  1  0  0  0  0
  9  6  2  0  0  0  0
 10  2  2  0  0  0  0
 11  4  1  0  0  0  0
 11  8  2  0  0  0  0
 12 13  2  0  0  0  0
 12  5  1  0  0  0  0
 13 11  1  0  0  0  0
 14  9  1  0  0  0  0
 15 10  1  0  0  0  0
 15 14  2  0  0  0  0
 16 17  2  0  0  0  0
 17 21  1  0  0  0  0
 17 18  1  0  0  0  0
 18 24  1  0  0  0  0
 18  4  1  0  0  0  0
 19 22  1  0  0  0  0
 19 21  2  0  0  0  0
 21 20  1  0  0  0  0
 22 23  1  0  0  0  0
 23 20  2  0  0  0  0
 24 25  1  0  0  0  0
 26 27  1  0  0  0  0
 26 25  1  0  0  0  0
 28 29  1  0  0  0  0
 29 27  2  0  0  0  0
 29 30  1  0  0  0  0
M  END
>  <MODEL>
9

>  <REMARK>
 VINA RESULT:      -7.8      3.641      6.499
  Name = 
  6 active torsions:
  status: ('A' for Active; 'I' for Inactive)
    1  A    between atoms: C_4  and  N_13
    2  A    between atoms: N_7  and  C_16
    3  A    between atoms: C_8  and  C_12
    4  A    between atoms: N_13  and  C_27
    5  A    between atoms: C_16  and  C_30
    6  A    between atoms: C_27  and  C_30
                            x       y       z     vdW  Elec       q    Type
                         _______ _______ _______ _____ _____    ______ ____

>  <TORSDO>
F 6

$$$$
