=
 OpenBabel10272400263D

 31 34  0  0  1  0  0  0  0  0999 V2000
  185.1540  178.4020  145.2290 C   0  0  0  0  0  0  0  0  0  0  0  0
  188.4900  177.7880  143.6230 C   0  0  0  0  0  0  0  0  0  0  0  0
  189.4180  177.4440  144.7560 C   0  0  0  0  0  0  0  0  0  0  0  0
  189.8430  176.6300  147.0150 C   0  0  0  0  0  3  0  0  0  0  0  0
  187.1100  178.0840  143.8060 C   0  0  0  0  0  0  0  0  0  0  0  0
  184.3700  178.6810  144.1100 C   0  0  0  0  0  3  0  0  0  0  0  0
  188.9510  176.9670  145.9930 C   0  0  0  0  0  3  0  0  0  0  0  0
  188.2090  178.1580  141.2010 C   0  0  0  0  0  0  0  0  0  0  0  0
  184.4370  178.4200  146.8260 Cl  0  0  0  0  0  0  0  0  0  0  0  0
  191.3480  178.0280  143.2520 C   0  0  0  0  0  2  0  0  0  0  0  0
  191.2180  176.7580  146.8120 C   0  0  0  0  0  0  0  0  0  0  0  0
  186.8580  178.4160  141.4110 C   0  0  0  0  0  3  0  0  0  0  0  0
  189.0390  177.8470  142.3100 C   0  0  0  0  0  0  0  0  0  0  0  0
  186.5100  178.1090  145.0770 C   0  0  0  0  0  3  0  0  0  0  0  0
  192.0820  176.4370  147.8050 F   0  0  0  0  0  0  0  0  0  0  0  0
  186.3050  178.3880  142.6840 C   0  0  0  0  0  0  0  0  0  0  0  0
  184.9450  178.6760  142.8400 C   0  0  0  0  0  3  0  0  0  0  0  0
  190.4890  177.4870  142.1150 C   0  0  0  0  0  2  0  0  0  0  0  0
  190.8120  177.5400  144.5580 C   0  0  0  0  0  0  0  0  0  0  0  0
  191.7030  177.2120  145.5850 C   0  0  0  0  0  3  0  0  0  0  0  0
  188.6720  178.2260  139.8420 N   0  0  0  0  0  2  0  0  0  0  0  0
  188.5980  177.1760  138.8380 C   0  0  0  0  0  2  0  0  0  0  0  0
  189.0840  177.7760  136.2650 S   0  0  0  0  0  0  0  0  0  0  0  0
  188.0790  177.7360  137.5620 C   0  0  0  0  0  0  0  0  0  0  0  0
  186.8590  178.4940  137.5940 N   0  0  0  0  0  2  0  0  0  0  0  0
  185.0400  177.3140  136.5310 C   0  0  0  0  0  2  0  0  0  0  0  0
  185.5140  177.9930  137.5710 C   0  0  0  0  0  0  0  0  0  0  0  0
  184.7140  178.0250  138.8300 C   0  0  0  0  0  2  0  0  0  0  0  0
  183.7070  179.1650  138.8080 C   0  0  2  0  0  3  0  0  0  0  0  0
  184.3470  180.3710  139.0960 O   0  0  0  0  0  1  0  0  0  0  0  0
  182.6340  178.9070  139.8440 C   0  0  0  0  0  1  0  0  0  0  0  0
  1  9  1  0  0  0  0
  2  5  1  0  0  0  0
  2  3  1  0  0  0  0
  3  7  1  0  0  0  0
  5 14  2  0  0  0  0
  6  1  2  0  0  0  0
  7  4  2  0  0  0  0
  8 12  2  0  0  0  0
  8 13  1  0  0  0  0
 10 19  1  0  0  0  0
 11  4  1  0  0  0  0
 11 15  1  0  0  0  0
 12 16  1  0  0  0  0
 13  2  2  0  0  0  0
 14  1  1  0  0  0  0
 16 17  2  0  0  0  0
 16  5  1  0  0  0  0
 17  6  1  0  0  0  0
 18 13  1  0  0  0  0
 18 10  1  0  0  0  0
 19  3  2  0  0  0  0
 19 20  1  0  0  0  0
 20 11  2  0  0  0  0
 21  8  1  0  0  0  0
 22 21  1  0  0  0  0
 23 24  2  0  0  0  0
 24 25  1  0  0  0  0
 24 22  1  0  0  0  0
 26 27  2  0  0  0  0
 27 25  1  0  0  0  0
 27 28  1  0  0  0  0
 29 28  1  0  0  0  0
 29 30  1  0  0  0  0
 29 31  1  1  0  0  0
M  END
>  <MODEL>
1

>  <REMARK>
 VINA RESULT:      -9.5      0.000      0.000
  Name = 
  7 active torsions:
  status: ('A' for Active; 'I' for Inactive)
    1  A    between atoms: C_1  and  C_24
    2  A    between atoms: N_3  and  C_19
    3  A    between atoms: N_3  and  C_22
    4  A    between atoms: C_9  and  C_22
    5  A    between atoms: C_9  and  N_23
    6  A    between atoms: C_15  and  N_23
    7  A    between atoms: C_19  and  C_24
                            x       y       z     vdW  Elec       q    Type
                         _______ _______ _______ _____ _____    ______ ____

>  <TORSDO>
F 7

$$$$
=
 OpenBabel10272400263D

 31 34  0  0  1  0  0  0  0  0999 V2000
  189.6190  177.2830  147.1310 C   0  0  0  0  0  0  0  0  0  0  0  0
  187.4760  177.7040  144.0780 C   0  0  0  0  0  0  0  0  0  0  0  0
  188.3880  177.4330  142.9140 C   0  0  0  0  0  0  0  0  0  0  0  0
  190.3850  176.4330  141.9330 C   0  0  0  0  0  3  0  0  0  0  0  0
  187.9010  177.6380  145.4350 C   0  0  0  0  0  0  0  0  0  0  0  0
  188.6890  177.5240  148.1410 C   0  0  0  0  0  3  0  0  0  0  0  0
  189.5750  176.6910  143.0430 C   0  0  0  0  0  3  0  0  0  0  0  0
  185.2220  178.3330  144.8550 C   0  0  0  0  0  0  0  0  0  0  0  0
  191.2790  176.9070  147.5410 Cl  0  0  0  0  0  0  0  0  0  0  0  0
  186.7530  178.6610  141.4460 C   0  0  0  0  0  2  0  0  0  0  0  0
  190.0160  176.9100  140.6740 C   0  0  0  0  0  0  0  0  0  0  0  0
  185.6620  178.2340  146.1720 C   0  0  0  0  0  3  0  0  0  0  0  0
  186.1300  178.0740  143.7960 C   0  0  0  0  0  0  0  0  0  0  0  0
  189.2280  177.3420  145.7920 C   0  0  0  0  0  3  0  0  0  0  0  0
  190.8040  176.6650  139.6000 F   0  0  0  0  0  0  0  0  0  0  0  0
  186.9750  177.8980  146.4720 C   0  0  0  0  0  0  0  0  0  0  0  0
  187.3690  177.8320  147.8120 C   0  0  0  0  0  3  0  0  0  0  0  0
  185.6720  178.0970  142.3600 C   0  0  0  0  0  2  0  0  0  0  0  0
  188.0150  177.8820  141.6280 C   0  0  0  0  0  0  0  0  0  0  0  0
  188.8320  177.6320  140.5210 C   0  0  0  0  0  3  0  0  0  0  0  0
  183.8440  178.6990  144.6650 N   0  0  0  0  0  2  0  0  0  0  0  0
  183.3160  179.6510  143.7000 C   0  0  0  0  0  2  0  0  0  0  0  0
  180.8140  178.7070  143.9460 S   0  0  0  0  0  0  0  0  0  0  0  0
  182.1220  179.0740  143.0270 C   0  0  0  0  0  0  0  0  0  0  0  0
  182.2670  178.5740  141.6880 N   0  0  0  0  0  2  0  0  0  0  0  0
  180.1860  178.9340  140.5170 C   0  0  0  0  0  2  0  0  0  0  0  0
  181.5150  178.9510  140.5250 C   0  0  0  0  0  0  0  0  0  0  0  0
  182.2290  179.6010  139.3870 C   0  0  0  0  0  2  0  0  0  0  0  0
  183.7120  179.2640  139.4090 C   0  0  2  0  0  3  0  0  0  0  0  0
  184.4620  180.3890  139.0630 O   0  0  0  0  0  1  0  0  0  0  0  0
  183.9900  178.1530  138.4190 C   0  0  0  0  0  1  0  0  0  0  0  0
  1  9  1  0  0  0  0
  1  6  1  0  0  0  0
  2  5  1  0  0  0  0
  3  7  1  0  0  0  0
  3  2  1  0  0  0  0
  4  7  2  0  0  0  0
  5 14  1  0  0  0  0
  5 16  2  0  0  0  0
  8 12  2  0  0  0  0
 10 19  1  0  0  0  0
 10 18  1  0  0  0  0
 11  4  1  0  0  0  0
 12 16  1  0  0  0  0
 13  2  2  0  0  0  0
 13  8  1  0  0  0  0
 14  1  2  0  0  0  0
 15 11  1  0  0  0  0
 16 17  1  0  0  0  0
 17  6  2  0  0  0  0
 18 13  1  0  0  0  0
 19  3  2  0  0  0  0
 20 11  2  0  0  0  0
 20 19  1  0  0  0  0
 21  8  1  0  0  0  0
 22 21  1  0  0  0  0
 24 22  1  0  0  0  0
 24 23  2  0  0  0  0
 25 24  1  0  0  0  0
 26 27  2  0  0  0  0
 27 25  1  0  0  0  0
 28 29  1  0  0  0  0
 28 27  1  0  0  0  0
 29 31  1  6  0  0  0
 30 29  1  0  0  0  0
M  END
>  <MODEL>
2

>  <REMARK>
 VINA RESULT:      -9.3      3.504      5.369
  Name = 
  7 active torsions:
  status: ('A' for Active; 'I' for Inactive)
    1  A    between atoms: C_1  and  C_24
    2  A    between atoms: N_3  and  C_19
    3  A    between atoms: N_3  and  C_22
    4  A    between atoms: C_9  and  C_22
    5  A    between atoms: C_9  and  N_23
    6  A    between atoms: C_15  and  N_23
    7  A    between atoms: C_19  and  C_24
                            x       y       z     vdW  Elec       q    Type
                         _______ _______ _______ _____ _____    ______ ____

>  <TORSDO>
F 7

$$$$
=
 OpenBabel10272400263D

 31 34  0  0  1  0  0  0  0  0999 V2000
  188.4110  177.3290  147.2480 C   0  0  0  0  0  0  0  0  0  0  0  0
  187.1440  178.0840  143.7960 C   0  0  0  0  0  0  0  0  0  0  0  0
  185.6740  178.3560  143.9640 C   0  0  0  0  0  0  0  0  0  0  0  0
  183.7500  179.0140  145.3100 C   0  0  0  0  0  3  0  0  0  0  0  0
  188.0080  177.7630  144.8810 C   0  0  0  0  0  0  0  0  0  0  0  0
  189.7660  177.1220  146.9920 C   0  0  0  0  0  3  0  0  0  0  0  0
  185.1150  178.7410  145.1950 C   0  0  0  0  0  3  0  0  0  0  0  0
  189.0610  177.8810  142.2590 C   0  0  0  0  0  0  0  0  0  0  0  0
  187.7980  177.1930  148.8820 Cl  0  0  0  0  0  0  0  0  0  0  0  0
  185.3850  177.8950  141.5070 C   0  0  0  0  0  2  0  0  0  0  0  0
  182.9210  178.9120  144.1910 C   0  0  0  0  0  0  0  0  0  0  0  0
  189.8850  177.5970  143.3440 C   0  0  0  0  0  3  0  0  0  0  0  0
  187.6800  178.1210  142.4770 C   0  0  0  0  0  0  0  0  0  0  0  0
  187.5420  177.6440  146.2010 C   0  0  0  0  0  3  0  0  0  0  0  0
  181.5960  179.1710  144.3030 F   0  0  0  0  0  0  0  0  0  0  0  0
  189.3810  177.5310  144.6360 C   0  0  0  0  0  0  0  0  0  0  0  0
  190.2500  177.2220  145.6870 C   0  0  0  0  0  3  0  0  0  0  0  0
  186.7710  178.5070  141.3380 C   0  0  0  0  0  2  0  0  0  0  0  0
  184.8280  178.2860  142.8370 C   0  0  0  0  0  0  0  0  0  0  0  0
  183.4590  178.5500  142.9550 C   0  0  0  0  0  3  0  0  0  0  0  0
  189.6910  177.9120  140.9670 N   0  0  0  0  0  2  0  0  0  0  0  0
  190.5900  176.9140  140.4060 C   0  0  0  0  0  2  0  0  0  0  0  0
  191.6950  176.1790  138.0720 S   0  0  0  0  0  0  0  0  0  0  0  0
  190.5290  176.9610  138.9210 C   0  0  0  0  0  0  0  0  0  0  0  0
  189.6640  177.9260  138.3020 N   0  0  0  0  0  2  0  0  0  0  0  0
  188.9050  177.8320  136.0120 C   0  0  0  0  0  2  0  0  0  0  0  0
  188.6550  177.6890  137.3090 C   0  0  0  0  0  0  0  0  0  0  0  0
  187.3760  177.0420  137.7250 C   0  0  0  0  0  2  0  0  0  0  0  0
  186.1760  177.8520  137.2580 C   0  0  2  0  0  3  0  0  0  0  0  0
  186.0040  178.9670  138.0790 O   0  0  0  0  0  1  0  0  0  0  0  0
  184.9330  176.9900  137.3170 C   0  0  0  0  0  1  0  0  0  0  0  0
  1  9  1  0  0  0  0
  2  3  1  0  0  0  0
  2  5  1  0  0  0  0
  3  7  1  0  0  0  0
  5 14  1  0  0  0  0
  6  1  1  0  0  0  0
  7  4  2  0  0  0  0
  8 13  1  0  0  0  0
  8 12  2  0  0  0  0
 10 19  1  0  0  0  0
 11 15  1  0  0  0  0
 11  4  1  0  0  0  0
 12 16  1  0  0  0  0
 13  2  2  0  0  0  0
 14  1  2  0  0  0  0
 16  5  2  0  0  0  0
 16 17  1  0  0  0  0
 17  6  2  0  0  0  0
 18 10  1  0  0  0  0
 18 13  1  0  0  0  0
 19 20  1  0  0  0  0
 19  3  2  0  0  0  0
 20 11  2  0  0  0  0
 21  8  1  0  0  0  0
 22 21  1  0  0  0  0
 23 24  2  0  0  0  0
 24 22  1  0  0  0  0
 25 24  1  0  0  0  0
 26 27  2  0  0  0  0
 27 28  1  0  0  0  0
 27 25  1  0  0  0  0
 29 31  1  1  0  0  0
 29 28  1  0  0  0  0
 29 30  1  0  0  0  0
M  END
>  <MODEL>
3

>  <REMARK>
 VINA RESULT:      -9.1      2.693      4.798
  Name = 
  7 active torsions:
  status: ('A' for Active; 'I' for Inactive)
    1  A    between atoms: C_1  and  C_24
    2  A    between atoms: N_3  and  C_19
    3  A    between atoms: N_3  and  C_22
    4  A    between atoms: C_9  and  C_22
    5  A    between atoms: C_9  and  N_23
    6  A    between atoms: C_15  and  N_23
    7  A    between atoms: C_19  and  C_24
                            x       y       z     vdW  Elec       q    Type
                         _______ _______ _______ _____ _____    ______ ____

>  <TORSDO>
F 7

$$$$
=
 OpenBabel10272400263D

 31 34  0  0  1  0  0  0  0  0999 V2000
  185.2290  178.4760  145.1790 C   0  0  0  0  0  0  0  0  0  0  0  0
  188.5650  177.5620  143.7220 C   0  0  0  0  0  0  0  0  0  0  0  0
  189.4500  177.2800  144.9050 C   0  0  0  0  0  0  0  0  0  0  0  0
  189.7860  176.6570  147.2380 C   0  0  0  0  0  3  0  0  0  0  0  0
  187.1980  177.9390  143.8410 C   0  0  0  0  0  0  0  0  0  0  0  0
  184.4840  178.6880  144.0190 C   0  0  0  0  0  3  0  0  0  0  0  0
  188.9350  176.9410  146.1680 C   0  0  0  0  0  3  0  0  0  0  0  0
  188.3560  177.7220  141.2700 C   0  0  0  0  0  0  0  0  0  0  0  0
  184.4800  178.6730  146.7480 Cl  0  0  0  0  0  0  0  0  0  0  0  0
  191.4400  177.6340  143.4050 C   0  0  0  0  0  2  0  0  0  0  0  0
  191.1700  176.7020  147.0610 C   0  0  0  0  0  0  0  0  0  0  0  0
  187.0140  178.0620  141.4200 C   0  0  0  0  0  3  0  0  0  0  0  0
  189.1450  177.4760  142.4240 C   0  0  0  0  0  0  0  0  0  0  0  0
  186.5730  178.1070  145.0890 C   0  0  0  0  0  3  0  0  0  0  0  0
  191.9960  176.4330  148.1000 F   0  0  0  0  0  0  0  0  0  0  0  0
  186.4330  178.1750  142.6760 C   0  0  0  0  0  0  0  0  0  0  0  0
  185.0860  178.5390  142.7690 C   0  0  0  0  0  3  0  0  0  0  0  0
  190.5800  177.0320  142.3000 C   0  0  0  0  0  2  0  0  0  0  0  0
  190.8520  177.2930  144.7350 C   0  0  0  0  0  0  0  0  0  0  0  0
  191.7030  177.0180  145.8100 C   0  0  0  0  0  3  0  0  0  0  0  0
  188.8510  177.6450  139.9230 N   0  0  0  0  0  2  0  0  0  0  0  0
  189.0020  178.7430  138.9800 C   0  0  0  0  0  2  0  0  0  0  0  0
  186.8600  177.9760  137.5520 S   0  0  0  0  0  0  0  0  0  0  0  0
  188.4550  178.3470  137.6550 C   0  0  0  0  0  0  0  0  0  0  0  0
  189.3790  178.0030  136.6100 N   0  0  0  0  0  2  0  0  0  0  0  0
  190.0310  176.4410  134.8890 C   0  0  0  0  0  2  0  0  0  0  0  0
  189.7470  176.6900  136.1620 C   0  0  0  0  0  0  0  0  0  0  0  0
  190.0500  175.6430  137.1820 C   0  0  0  0  0  2  0  0  0  0  0  0
  191.5480  175.5250  137.4150 C   0  0  2  0  0  3  0  0  0  0  0  0
  191.8710  174.2200  137.7920 O   0  0  0  0  0  1  0  0  0  0  0  0
  191.9620  176.4800  138.5140 C   0  0  0  0  0  1  0  0  0  0  0  0
  1  9  1  0  0  0  0
  2  5  1  0  0  0  0
  2  3  1  0  0  0  0
  3  7  1  0  0  0  0
  5 14  2  0  0  0  0
  6  1  2  0  0  0  0
  7  4  2  0  0  0  0
  8 12  2  0  0  0  0
  8 13  1  0  0  0  0
 10 19  1  0  0  0  0
 11  4  1  0  0  0  0
 11 15  1  0  0  0  0
 12 16  1  0  0  0  0
 13  2  2  0  0  0  0
 14  1  1  0  0  0  0
 16 17  2  0  0  0  0
 16  5  1  0  0  0  0
 17  6  1  0  0  0  0
 18 13  1  0  0  0  0
 18 10  1  0  0  0  0
 19  3  2  0  0  0  0
 19 20  1  0  0  0  0
 20 11  2  0  0  0  0
 21  8  1  0  0  0  0
 22 21  1  0  0  0  0
 23 24  2  0  0  0  0
 24 22  1  0  0  0  0
 25 24  1  0  0  0  0
 26 27  2  0  0  0  0
 27 25  1  0  0  0  0
 27 28  1  0  0  0  0
 28 29  1  0  0  0  0
 29 30  1  0  0  0  0
 29 31  1  1  0  0  0
M  END
>  <MODEL>
4

>  <REMARK>
 VINA RESULT:      -9.1      2.430      3.473
  Name = 
  7 active torsions:
  status: ('A' for Active; 'I' for Inactive)
    1  A    between atoms: C_1  and  C_24
    2  A    between atoms: N_3  and  C_19
    3  A    between atoms: N_3  and  C_22
    4  A    between atoms: C_9  and  C_22
    5  A    between atoms: C_9  and  N_23
    6  A    between atoms: C_15  and  N_23
    7  A    between atoms: C_19  and  C_24
                            x       y       z     vdW  Elec       q    Type
                         _______ _______ _______ _____ _____    ______ ____

>  <TORSDO>
F 7

$$$$
=
 OpenBabel10272400263D

 31 34  0  0  1  0  0  0  0  0999 V2000
  188.3500  177.3770  146.2560 C   0  0  0  0  0  0  0  0  0  0  0  0
  186.5430  178.2640  143.0880 C   0  0  0  0  0  0  0  0  0  0  0  0
  185.1020  178.4280  143.4870 C   0  0  0  0  0  0  0  0  0  0  0  0
  183.3660  178.8720  145.1410 C   0  0  0  0  0  3  0  0  0  0  0  0
  187.5750  177.9320  144.0100 C   0  0  0  0  0  0  0  0  0  0  0  0
  189.6610  177.2750  145.7920 C   0  0  0  0  0  3  0  0  0  0  0  0
  184.7120  178.6970  144.8100 C   0  0  0  0  0  3  0  0  0  0  0  0
  188.2180  178.2850  141.2790 C   0  0  0  0  0  0  0  0  0  0  0  0
  187.9960  177.0980  147.9470 Cl  0  0  0  0  0  0  0  0  0  0  0  0
  184.4760  178.1070  141.0710 C   0  0  0  0  0  2  0  0  0  0  0  0
  182.3870  178.7870  144.1500 C   0  0  0  0  0  0  0  0  0  0  0  0
  189.2080  177.9870  142.2100 C   0  0  0  0  0  3  0  0  0  0  0  0
  186.8730  178.4200  141.7120 C   0  0  0  0  0  0  0  0  0  0  0  0
  187.3180  177.7000  145.3720 C   0  0  0  0  0  3  0  0  0  0  0  0
  181.0810  178.9510  144.4710 F   0  0  0  0  0  0  0  0  0  0  0  0
  188.9080  177.8070  143.5530 C   0  0  0  0  0  0  0  0  0  0  0  0
  189.9390  177.4890  144.4420 C   0  0  0  0  0  3  0  0  0  0  0  0
  185.7850  178.8170  140.7470 C   0  0  0  0  0  2  0  0  0  0  0  0
  184.1020  178.3740  142.4920 C   0  0  0  0  0  0  0  0  0  0  0  0
  182.7540  178.5400  142.8260 C   0  0  0  0  0  3  0  0  0  0  0  0
  188.6450  178.4390  139.9150 N   0  0  0  0  0  2  0  0  0  0  0  0
  189.7580  177.7640  139.2640 C   0  0  0  0  0  2  0  0  0  0  0  0
  187.7190  177.1640  137.6230 S   0  0  0  0  0  0  0  0  0  0  0  0
  189.3270  177.2470  137.9380 C   0  0  0  0  0  0  0  0  0  0  0  0
  190.2910  176.5580  137.1270 N   0  0  0  0  0  2  0  0  0  0  0  0
  190.1900  174.1450  137.0900 C   0  0  0  0  0  2  0  0  0  0  0  0
  190.8620  175.2600  137.3550 C   0  0  0  0  0  0  0  0  0  0  0  0
  192.3180  175.1610  137.6660 C   0  0  0  0  0  2  0  0  0  0  0  0
  192.9600  176.5390  137.7200 C   0  0  2  0  0  3  0  0  0  0  0  0
  194.1620  176.5340  137.0100 O   0  0  0  0  0  1  0  0  0  0  0  0
  193.2320  176.9110  139.1630 C   0  0  0  0  0  1  0  0  0  0  0  0
  1  9  1  0  0  0  0
  2  3  1  0  0  0  0
  2  5  1  0  0  0  0
  3  7  1  0  0  0  0
  5 14  1  0  0  0  0
  6  1  1  0  0  0  0
  7  4  2  0  0  0  0
  8 13  1  0  0  0  0
  8 12  2  0  0  0  0
 10 19  1  0  0  0  0
 11 15  1  0  0  0  0
 11  4  1  0  0  0  0
 12 16  1  0  0  0  0
 13  2  2  0  0  0  0
 14  1  2  0  0  0  0
 16  5  2  0  0  0  0
 16 17  1  0  0  0  0
 17  6  2  0  0  0  0
 18 10  1  0  0  0  0
 18 13  1  0  0  0  0
 19 20  1  0  0  0  0
 19  3  2  0  0  0  0
 20 11  2  0  0  0  0
 21  8  1  0  0  0  0
 22 21  1  0  0  0  0
 23 24  2  0  0  0  0
 24 22  1  0  0  0  0
 25 27  1  0  0  0  0
 25 24  1  0  0  0  0
 26 27  2  0  0  0  0
 27 28  1  0  0  0  0
 28 29  1  0  0  0  0
 29 31  1  1  0  0  0
 30 29  1  0  0  0  0
M  END
>  <MODEL>
5

>  <REMARK>
 VINA RESULT:      -8.9      3.561      6.074
  Name = 
  7 active torsions:
  status: ('A' for Active; 'I' for Inactive)
    1  A    between atoms: C_1  and  C_24
    2  A    between atoms: N_3  and  C_19
    3  A    between atoms: N_3  and  C_22
    4  A    between atoms: C_9  and  C_22
    5  A    between atoms: C_9  and  N_23
    6  A    between atoms: C_15  and  N_23
    7  A    between atoms: C_19  and  C_24
                            x       y       z     vdW  Elec       q    Type
                         _______ _______ _______ _____ _____    ______ ____

>  <TORSDO>
F 7

$$$$
=
 OpenBabel10272400263D

 31 34  0  0  1  0  0  0  0  0999 V2000
  189.2730  177.5580  140.5560 C   0  0  0  0  0  0  0  0  0  0  0  0
  187.5790  178.0320  143.8720 C   0  0  0  0  0  0  0  0  0  0  0  0
  188.5990  177.6240  144.9000 C   0  0  0  0  0  0  0  0  0  0  0  0
  190.9000  177.2470  145.6140 C   0  0  0  0  0  3  0  0  0  0  0  0
  187.8300  178.0100  142.4710 C   0  0  0  0  0  0  0  0  0  0  0  0
  188.2710  177.9840  139.6850 C   0  0  0  0  0  3  0  0  0  0  0  0
  189.9770  177.6040  144.6270 C   0  0  0  0  0  3  0  0  0  0  0  0
  185.2930  178.8340  143.4110 C   0  0  0  0  0  0  0  0  0  0  0  0
  190.8090  177.0080  139.9220 Cl  0  0  0  0  0  0  0  0  0  0  0  0
  186.7150  177.3330  146.5420 C   0  0  0  0  0  2  0  0  0  0  0  0
  190.4570  176.9090  146.8930 C   0  0  0  0  0  0  0  0  0  0  0  0
  185.5790  178.8260  142.0490 C   0  0  0  0  0  3  0  0  0  0  0  0
  186.2920  178.4300  144.3350 C   0  0  0  0  0  0  0  0  0  0  0  0
  189.0530  177.5700  141.9350 C   0  0  0  0  0  3  0  0  0  0  0  0
  191.3500  176.5570  147.8490 F   0  0  0  0  0  0  0  0  0  0  0  0
  186.8180  178.4210  141.5730 C   0  0  0  0  0  0  0  0  0  0  0  0
  187.0450  178.4130  140.1930 C   0  0  0  0  0  3  0  0  0  0  0  0
  186.0470  178.4960  145.8200 C   0  0  0  0  0  2  0  0  0  0  0  0
  188.1700  177.3080  146.2070 C   0  0  0  0  0  0  0  0  0  0  0  0
  189.0940  176.9410  147.1910 C   0  0  0  0  0  3  0  0  0  0  0  0
  183.9740  179.2630  143.7870 N   0  0  0  0  0  2  0  0  0  0  0  0
  182.8280  178.4160  144.0820 C   0  0  0  0  0  2  0  0  0  0  0  0
  180.1660  178.7550  143.9720 S   0  0  0  0  0  0  0  0  0  0  0  0
  181.6530  178.8660  143.2880 C   0  0  0  0  0  0  0  0  0  0  0  0
  181.8210  179.0750  141.8770 N   0  0  0  0  0  2  0  0  0  0  0  0
  180.5700  177.8400  140.2210 C   0  0  0  0  0  2  0  0  0  0  0  0
  181.7230  178.0990  140.8280 C   0  0  0  0  0  0  0  0  0  0  0  0
  182.9790  177.5410  140.2470 C   0  0  0  0  0  2  0  0  0  0  0  0
  183.2340  178.1020  138.8560 C   0  0  2  0  0  3  0  0  0  0  0  0
  184.2140  177.3470  138.2100 O   0  0  0  0  0  1  0  0  0  0  0  0
  183.7020  179.5370  138.9710 C   0  0  0  0  0  1  0  0  0  0  0  0
  1 14  1  0  0  0  0
  2 13  2  0  0  0  0
  2  3  1  0  0  0  0
  3 19  1  0  0  0  0
  4 11  2  0  0  0  0
  5  2  1  0  0  0  0
  6 17  1  0  0  0  0
  6  1  2  0  0  0  0
  7  3  2  0  0  0  0
  7  4  1  0  0  0  0
  8 21  1  0  0  0  0
  8 13  1  0  0  0  0
  9  1  1  0  0  0  0
 11 20  1  0  0  0  0
 11 15  1  0  0  0  0
 12  8  2  0  0  0  0
 13 18  1  0  0  0  0
 14  5  2  0  0  0  0
 16 12  1  0  0  0  0
 16  5  1  0  0  0  0
 17 16  2  0  0  0  0
 18 10  1  0  0  0  0
 19 10  1  0  0  0  0
 19 20  2  0  0  0  0
 21 22  1  0  0  0  0
 24 23  2  0  0  0  0
 24 22  1  0  0  0  0
 25 24  1  0  0  0  0
 26 27  2  0  0  0  0
 27 25  1  0  0  0  0
 28 27  1  0  0  0  0
 29 31  1  1  0  0  0
 29 28  1  0  0  0  0
 30 29  1  0  0  0  0
M  END
>  <MODEL>
6

>  <REMARK>
 VINA RESULT:      -8.7      3.443      4.949
  Name = 
  7 active torsions:
  status: ('A' for Active; 'I' for Inactive)
    1  A    between atoms: C_1  and  C_24
    2  A    between atoms: N_3  and  C_19
    3  A    between atoms: N_3  and  C_22
    4  A    between atoms: C_9  and  C_22
    5  A    between atoms: C_9  and  N_23
    6  A    between atoms: C_15  and  N_23
    7  A    between atoms: C_19  and  C_24
                            x       y       z     vdW  Elec       q    Type
                         _______ _______ _______ _____ _____    ______ ____

>  <TORSDO>
F 7

$$$$
=
 OpenBabel10272400263D

 31 34  0  0  1  0  0  0  0  0999 V2000
  185.1690  178.4110  144.9510 C   0  0  0  0  0  0  0  0  0  0  0  0
  188.5780  177.5820  143.6150 C   0  0  0  0  0  0  0  0  0  0  0  0
  189.4210  177.3010  144.8290 C   0  0  0  0  0  0  0  0  0  0  0  0
  189.6770  176.6530  147.1650 C   0  0  0  0  0  3  0  0  0  0  0  0
  187.2000  177.9300  143.6860 C   0  0  0  0  0  0  0  0  0  0  0  0
  184.4660  178.6240  143.7650 C   0  0  0  0  0  3  0  0  0  0  0  0
  188.8630  176.9350  146.0660 C   0  0  0  0  0  3  0  0  0  0  0  0
  188.4610  177.7720  141.1590 C   0  0  0  0  0  0  0  0  0  0  0  0
  184.3550  178.5720  146.4920 Cl  0  0  0  0  0  0  0  0  0  0  0  0
  191.4600  177.7140  143.4130 C   0  0  0  0  0  2  0  0  0  0  0  0
  191.0650  176.7270  147.0440 C   0  0  0  0  0  0  0  0  0  0  0  0
  187.1080  178.0830  141.2610 C   0  0  0  0  0  3  0  0  0  0  0  0
  189.2090  177.5250  142.3400 C   0  0  0  0  0  0  0  0  0  0  0  0
  186.5220  178.0690  144.9100 C   0  0  0  0  0  3  0  0  0  0  0  0
  191.8550  176.4600  148.1110 F   0  0  0  0  0  0  0  0  0  0  0  0
  186.4760  178.1680  142.4940 C   0  0  0  0  0  0  0  0  0  0  0  0
  185.1200  178.5050  142.5390 C   0  0  0  0  0  3  0  0  0  0  0  0
  190.6560  177.1110  142.2680 C   0  0  0  0  0  2  0  0  0  0  0  0
  190.8270  177.3440  144.7150 C   0  0  0  0  0  0  0  0  0  0  0  0
  191.6410  177.0710  145.8190 C   0  0  0  0  0  3  0  0  0  0  0  0
  189.0100  177.7230  139.8320 N   0  0  0  0  0  2  0  0  0  0  0  0
  189.0110  178.7910  138.8440 C   0  0  0  0  0  2  0  0  0  0  0  0
  186.8450  177.9840  137.4760 S   0  0  0  0  0  0  0  0  0  0  0  0
  188.4550  178.2880  137.5590 C   0  0  0  0  0  0  0  0  0  0  0  0
  189.3670  177.7950  136.5660 N   0  0  0  0  0  2  0  0  0  0  0  0
  190.3590  176.1080  135.1520 C   0  0  0  0  0  2  0  0  0  0  0  0
  189.6220  176.4280  136.2100 C   0  0  0  0  0  0  0  0  0  0  0  0
  189.2550  175.3530  137.1780 C   0  0  0  0  0  2  0  0  0  0  0  0
  188.2570  174.3830  136.5640 C   0  0  2  0  0  3  0  0  0  0  0  0
  187.0830  174.3650  137.3190 O   0  0  0  0  0  1  0  0  0  0  0  0
  188.8570  172.9930  136.5390 C   0  0  0  0  0  1  0  0  0  0  0  0
  1  9  1  0  0  0  0
  2  5  1  0  0  0  0
  2  3  1  0  0  0  0
  3  7  1  0  0  0  0
  5 14  2  0  0  0  0
  6  1  2  0  0  0  0
  7  4  2  0  0  0  0
  8 12  2  0  0  0  0
  8 13  1  0  0  0  0
 10 19  1  0  0  0  0
 11  4  1  0  0  0  0
 11 15  1  0  0  0  0
 12 16  1  0  0  0  0
 13  2  2  0  0  0  0
 14  1  1  0  0  0  0
 16 17  2  0  0  0  0
 16  5  1  0  0  0  0
 17  6  1  0  0  0  0
 18 13  1  0  0  0  0
 18 10  1  0  0  0  0
 19  3  2  0  0  0  0
 19 20  1  0  0  0  0
 20 11  2  0  0  0  0
 21  8  1  0  0  0  0
 22 21  1  0  0  0  0
 23 24  2  0  0  0  0
 24 22  1  0  0  0  0
 25 24  1  0  0  0  0
 26 27  2  0  0  0  0
 27 25  1  0  0  0  0
 27 28  1  0  0  0  0
 29 31  1  1  0  0  0
 29 28  1  0  0  0  0
 29 30  1  0  0  0  0
M  END
>  <MODEL>
7

>  <REMARK>
 VINA RESULT:      -8.5      2.054      3.023
  Name = 
  7 active torsions:
  status: ('A' for Active; 'I' for Inactive)
    1  A    between atoms: C_1  and  C_24
    2  A    between atoms: N_3  and  C_19
    3  A    between atoms: N_3  and  C_22
    4  A    between atoms: C_9  and  C_22
    5  A    between atoms: C_9  and  N_23
    6  A    between atoms: C_15  and  N_23
    7  A    between atoms: C_19  and  C_24
                            x       y       z     vdW  Elec       q    Type
                         _______ _______ _______ _____ _____    ______ ____

>  <TORSDO>
F 7

$$$$
=
 OpenBabel10272400263D

 31 34  0  0  1  0  0  0  0  0999 V2000
  188.3320  177.3920  146.3990 C   0  0  0  0  0  0  0  0  0  0  0  0
  186.6210  178.2600  143.1720 C   0  0  0  0  0  0  0  0  0  0  0  0
  185.1690  178.4270  143.5270 C   0  0  0  0  0  0  0  0  0  0  0  0
  183.3840  178.8820  145.1250 C   0  0  0  0  0  3  0  0  0  0  0  0
  187.6250  177.9340  144.1270 C   0  0  0  0  0  0  0  0  0  0  0  0
  189.6560  177.2870  145.9750 C   0  0  0  0  0  3  0  0  0  0  0  0
  184.7400  178.7040  144.8360 C   0  0  0  0  0  3  0  0  0  0  0  0
  188.3490  178.2690  141.4140 C   0  0  0  0  0  0  0  0  0  0  0  0
  187.9280  177.1240  148.0800 Cl  0  0  0  0  0  0  0  0  0  0  0  0
  184.6150  178.0910  141.0950 C   0  0  0  0  0  2  0  0  0  0  0  0
  182.4350  178.7910  144.1060 C   0  0  0  0  0  0  0  0  0  0  0  0
  189.3120  177.9770  142.3760 C   0  0  0  0  0  3  0  0  0  0  0  0
  186.9920  178.4070  141.8050 C   0  0  0  0  0  0  0  0  0  0  0  0
  187.3270  177.7100  145.4820 C   0  0  0  0  0  3  0  0  0  0  0  0
  181.1210  178.9580  144.3870 F   0  0  0  0  0  0  0  0  0  0  0  0
  188.9710  177.8050  143.7100 C   0  0  0  0  0  0  0  0  0  0  0  0
  189.9750  177.4920  144.6320 C   0  0  0  0  0  3  0  0  0  0  0  0
  185.9340  178.7980  140.8070 C   0  0  0  0  0  2  0  0  0  0  0  0
  184.1990  178.3670  142.5030 C   0  0  0  0  0  0  0  0  0  0  0  0
  182.8420  178.5360  142.7950 C   0  0  0  0  0  3  0  0  0  0  0  0
  188.8170  178.4140  140.0620 N   0  0  0  0  0  2  0  0  0  0  0  0
  189.7620  177.5540  139.3650 C   0  0  0  0  0  2  0  0  0  0  0  0
  189.9990  176.7000  136.8300 S   0  0  0  0  0  0  0  0  0  0  0  0
  189.1030  176.9380  138.1830 C   0  0  0  0  0  0  0  0  0  0  0  0
  187.6680  176.8690  138.1590 N   0  0  0  0  0  2  0  0  0  0  0  0
  186.8380  178.0260  136.2080 C   0  0  0  0  0  2  0  0  0  0  0  0
  186.8040  176.9720  137.0170 C   0  0  0  0  0  0  0  0  0  0  0  0
  186.0260  175.7700  136.5950 C   0  0  0  0  0  2  0  0  0  0  0  0
  186.8150  174.4940  136.8430 C   0  0  2  0  0  3  0  0  0  0  0  0
  187.4180  174.0680  135.6590 O   0  0  0  0  0  1  0  0  0  0  0  0
  185.8800  173.4140  137.3440 C   0  0  0  0  0  1  0  0  0  0  0  0
  1  9  1  0  0  0  0
  2  3  1  0  0  0  0
  2  5  1  0  0  0  0
  3  7  1  0  0  0  0
  5 14  1  0  0  0  0
  6  1  1  0  0  0  0
  7  4  2  0  0  0  0
  8 13  1  0  0  0  0
  8 12  2  0  0  0  0
 10 19  1  0  0  0  0
 11 15  1  0  0  0  0
 11  4  1  0  0  0  0
 12 16  1  0  0  0  0
 13  2  2  0  0  0  0
 14  1  2  0  0  0  0
 16  5  2  0  0  0  0
 16 17  1  0  0  0  0
 17  6  2  0  0  0  0
 18 10  1  0  0  0  0
 18 13  1  0  0  0  0
 19 20  1  0  0  0  0
 19  3  2  0  0  0  0
 20 11  2  0  0  0  0
 21  8  1  0  0  0  0
 22 21  1  0  0  0  0
 23 24  2  0  0  0  0
 24 22  1  0  0  0  0
 25 24  1  0  0  0  0
 26 27  2  0  0  0  0
 27 25  1  0  0  0  0
 28 29  1  0  0  0  0
 28 27  1  0  0  0  0
 29 31  1  6  0  0  0
 30 29  1  0  0  0  0
M  END
>  <MODEL>
8

>  <REMARK>
 VINA RESULT:      -8.5      3.009      5.141
  Name = 
  7 active torsions:
  status: ('A' for Active; 'I' for Inactive)
    1  A    between atoms: C_1  and  C_24
    2  A    between atoms: N_3  and  C_19
    3  A    between atoms: N_3  and  C_22
    4  A    between atoms: C_9  and  C_22
    5  A    between atoms: C_9  and  N_23
    6  A    between atoms: C_15  and  N_23
    7  A    between atoms: C_19  and  C_24
                            x       y       z     vdW  Elec       q    Type
                         _______ _______ _______ _____ _____    ______ ____

>  <TORSDO>
F 7

$$$$
=
 OpenBabel10272400263D

 31 34  0  0  1  0  0  0  0  0999 V2000
  191.2050  176.5360  144.4180 C   0  0  0  0  0  0  0  0  0  0  0  0
  187.9810  177.8920  143.0570 C   0  0  0  0  0  0  0  0  0  0  0  0
  187.0670  178.0070  144.2460 C   0  0  0  0  0  0  0  0  0  0  0  0
  186.6740  178.2180  146.6440 C   0  0  0  0  0  3  0  0  0  0  0  0
  189.3210  177.4200  143.1460 C   0  0  0  0  0  0  0  0  0  0  0  0
  191.9820  176.4930  143.2610 C   0  0  0  0  0  3  0  0  0  0  0  0
  187.5500  178.0830  145.5640 C   0  0  0  0  0  3  0  0  0  0  0  0
  188.2770  178.1650  140.6250 C   0  0  0  0  0  0  0  0  0  0  0  0
  191.8820  176.0150  145.9460 Cl  0  0  0  0  0  0  0  0  0  0  0  0
  185.1210  178.0480  142.6510 C   0  0  0  0  0  2  0  0  0  0  0  0
  185.2980  178.2870  146.4220 C   0  0  0  0  0  0  0  0  0  0  0  0
  189.5920  177.7250  140.7480 C   0  0  0  0  0  3  0  0  0  0  0  0
  187.4580  178.2450  141.7810 C   0  0  0  0  0  0  0  0  0  0  0  0
  189.8870  176.9930  144.3590 C   0  0  0  0  0  3  0  0  0  0  0  0
  184.4470  178.4130  147.4690 F   0  0  0  0  0  0  0  0  0  0  0  0
  190.1170  177.3530  141.9790 C   0  0  0  0  0  0  0  0  0  0  0  0
  191.4380  176.9000  142.0430 C   0  0  0  0  0  3  0  0  0  0  0  0
  186.0540  178.7880  141.6990 C   0  0  0  0  0  2  0  0  0  0  0  0
  185.6740  178.1080  144.0370 C   0  0  0  0  0  0  0  0  0  0  0  0
  184.7980  178.2340  145.1200 C   0  0  0  0  0  3  0  0  0  0  0  0
  187.8390  178.5130  139.3000 N   0  0  0  0  0  2  0  0  0  0  0  0
  188.6790  178.7680  138.1390 C   0  0  0  0  0  2  0  0  0  0  0  0
  187.3280  178.0020  135.9490 S   0  0  0  0  0  0  0  0  0  0  0  0
  188.4490  177.7180  137.1120 C   0  0  0  0  0  0  0  0  0  0  0  0
  188.9690  176.4010  137.3530 N   0  0  0  0  0  2  0  0  0  0  0  0
  190.7080  176.0970  135.7050 C   0  0  0  0  0  2  0  0  0  0  0  0
  190.2280  175.8630  136.9220 C   0  0  0  0  0  0  0  0  0  0  0  0
  191.1240  175.2310  137.9350 C   0  0  0  0  0  2  0  0  0  0  0  0
  192.5850  175.5300  137.6350 C   0  0  2  0  0  3  0  0  0  0  0  0
  193.3390  174.3590  137.7230 O   0  0  0  0  0  1  0  0  0  0  0  0
  193.1080  176.5390  138.6350 C   0  0  0  0  0  1  0  0  0  0  0  0
  1  9  1  0  0  0  0
  2  5  1  0  0  0  0
  2  3  1  0  0  0  0
  3  7  1  0  0  0  0
  5 14  2  0  0  0  0
  6  1  2  0  0  0  0
  7  4  2  0  0  0  0
  8 12  2  0  0  0  0
  8 13  1  0  0  0  0
 10 19  1  0  0  0  0
 11  4  1  0  0  0  0
 11 15  1  0  0  0  0
 12 16  1  0  0  0  0
 13  2  2  0  0  0  0
 14  1  1  0  0  0  0
 16 17  2  0  0  0  0
 16  5  1  0  0  0  0
 17  6  1  0  0  0  0
 18 13  1  0  0  0  0
 18 10  1  0  0  0  0
 19  3  2  0  0  0  0
 19 20  1  0  0  0  0
 20 11  2  0  0  0  0
 21  8  1  0  0  0  0
 22 21  1  0  0  0  0
 23 24  2  0  0  0  0
 24 25  1  0  0  0  0
 24 22  1  0  0  0  0
 26 27  2  0  0  0  0
 27 25  1  0  0  0  0
 27 28  1  0  0  0  0
 29 30  1  0  0  0  0
 29 28  1  0  0  0  0
 29 31  1  1  0  0  0
M  END
>  <MODEL>
9

>  <REMARK>
 VINA RESULT:      -8.4      3.360      5.608
  Name = 
  7 active torsions:
  status: ('A' for Active; 'I' for Inactive)
    1  A    between atoms: C_1  and  C_24
    2  A    between atoms: N_3  and  C_19
    3  A    between atoms: N_3  and  C_22
    4  A    between atoms: C_9  and  C_22
    5  A    between atoms: C_9  and  N_23
    6  A    between atoms: C_15  and  N_23
    7  A    between atoms: C_19  and  C_24
                            x       y       z     vdW  Elec       q    Type
                         _______ _______ _______ _____ _____    ______ ____

>  <TORSDO>
F 7

$$$$
