=
 OpenBabel10262423533D

 34 40  0  0  1  0  0  0  0  0999 V2000
  189.8170  177.3140  140.5450 C   0  0  0  0  0  0  0  0  0  0  0  0
  187.8850  178.0900  139.1770 C   0  0  0  0  0  0  0  0  0  0  0  0
  187.7600  178.0540  141.6250 N   0  0  0  0  0  0  0  0  0  0  0  0
  185.6470  178.5540  142.6380 C   0  0  0  0  0  0  0  0  0  0  0  0
  189.8500  177.1650  138.1350 C   0  0  0  0  0  3  0  0  0  0  0  0
  188.4950  177.6590  138.1100 N   0  0  0  0  0  0  0  0  0  0  0  0
  185.7900  178.6580  140.1950 C   0  0  0  0  0  0  0  0  0  0  0  0
  188.6380  178.2410  140.4750 C   0  0  1  0  0  3  0  0  0  0  0  0
  184.3470  179.0980  140.1320 C   0  0  2  0  0  3  0  0  0  0  0  0
  184.2250  179.0330  142.5340 C   0  0  0  0  0  2  0  0  0  0  0  0
  190.4980  176.9720  139.2910 C   0  0  0  0  0  3  0  0  0  0  0  0
  188.3140  177.6910  142.8960 C   0  0  0  0  0  0  0  0  0  0  0  0
  190.2370  176.8620  141.6920 N   0  0  0  0  0  0  0  0  0  0  0  0
  186.5040  178.4830  139.1170 N   0  0  0  0  0  0  0  0  0  0  0  0
  186.2310  178.3030  143.9300 N   0  0  0  0  0  0  0  0  0  0  0  0
  187.4650  177.9000  144.1050 C   0  0  0  0  0  0  0  0  0  0  0  0
  183.6090  178.5670  141.2850 N   0  0  0  0  0  2  0  0  0  0  0  0
  186.3880  178.4430  141.5290 C   0  0  0  0  0  0  0  0  0  0  0  0
  189.5210  177.1080  142.9180 C   0  0  0  0  0  3  0  0  0  0  0  0
  189.6790  177.0130  147.0730 C   0  0  0  0  0  0  0  0  0  0  0  0
  188.8370  177.3290  148.1420 C   0  0  0  0  0  3  0  0  0  0  0  0
  187.9480  177.6830  145.4960 C   0  0  0  0  0  0  0  0  0  0  0  0
  187.5550  177.8240  147.8960 C   0  0  0  0  0  3  0  0  0  0  0  0
  189.2380  177.1930  145.7590 C   0  0  0  0  0  3  0  0  0  0  0  0
  187.1160  178.0030  146.5810 C   0  0  0  0  0  3  0  0  0  0  0  0
  191.2880  176.3960  147.3770 Cl  0  0  0  0  0  0  0  0  0  0  0  0
  183.6770  178.6280  138.8460 C   0  0  0  0  0  2  0  0  0  0  0  0
  182.5720  175.8880  139.2180 C   0  0  0  0  0  1  0  0  0  0  0  0
  182.2610  178.3460  139.0850 N   0  0  0  0  0  0  0  0  0  0  0  0
  181.8780  177.0420  138.5130 C   0  0  1  0  0  3  0  0  0  0  0  0
  181.8080  178.3040  136.3030 C   0  0  0  0  0  2  0  0  0  0  0  0
  180.8630  179.1630  137.1310 C   0  0  0  0  0  2  0  0  0  0  0  0
  181.4710  179.4550  138.5140 C   0  0  0  0  0  2  0  0  0  0  0  0
  182.0760  176.9640  136.9910 C   0  0  0  0  0  2  0  0  0  0  0  0
  1 13  2  0  0  0  0
  3 12  1  0  0  0  0
  4 15  1  0  0  0  0
  5 11  2  0  0  0  0
  6  5  1  0  0  0  0
  6  2  2  0  0  0  0
  7 18  1  0  0  0  0
  8  2  1  6  0  0  0
  8  1  1  0  0  0  0
  8  3  1  0  0  0  0
  9 27  1  6  0  0  0
  9  7  1  0  0  0  0
  9 17  1  0  0  0  0
 10  4  1  0  0  0  0
 11  1  1  0  0  0  0
 12 19  2  0  0  0  0
 12 16  1  0  0  0  0
 13 19  1  0  0  0  0
 14  2  1  0  0  0  0
 14  7  2  0  0  0  0
 15 16  2  0  0  0  0
 16 22  1  0  0  0  0
 17 10  1  0  0  0  0
 18  3  1  0  0  0  0
 18  4  2  0  0  0  0
 20 26  1  0  0  0  0
 20 21  1  0  0  0  0
 22 24  1  0  0  0  0
 22 25  2  0  0  0  0
 23 21  2  0  0  0  0
 24 20  2  0  0  0  0
 25 23  1  0  0  0  0
 27 29  1  0  0  0  0
 30 29  1  0  0  0  0
 30 28  1  1  0  0  0
 31 34  1  0  0  0  0
 31 32  1  0  0  0  0
 32 33  1  0  0  0  0
 33 29  1  0  0  0  0
 34 30  1  0  0  0  0
M  END
>  <MODEL>
1

>  <REMARK>
 VINA RESULT:     -10.3      0.000      0.000
  Name = 
  3 active torsions:
  status: ('A' for Active; 'I' for Inactive)
    1  A    between atoms: C_3  and  N_13
    2  A    between atoms: C_3  and  C_17
    3  A    between atoms: C_12  and  C_28
                            x       y       z     vdW  Elec       q    Type
                         _______ _______ _______ _____ _____    ______ ____

>  <TORSDO>
F 3

$$$$
=
 OpenBabel10262423533D

 34 40  0  0  1  0  0  0  0  0999 V2000
  190.0080  177.2130  139.7120 C   0  0  0  0  0  0  0  0  0  0  0  0
  187.8960  178.0280  138.6710 C   0  0  0  0  0  0  0  0  0  0  0  0
  188.1480  177.9460  141.1080 N   0  0  0  0  0  0  0  0  0  0  0  0
  186.2210  178.4410  142.4430 C   0  0  0  0  0  0  0  0  0  0  0  0
  189.6690  177.1110  137.3230 C   0  0  0  0  0  3  0  0  0  0  0  0
  188.3300  177.6130  137.5150 N   0  0  0  0  0  0  0  0  0  0  0  0
  185.9880  178.5910  140.0090 C   0  0  0  0  0  0  0  0  0  0  0  0
  188.8410  178.1490  139.8410 C   0  0  1  0  0  3  0  0  0  0  0  0
  184.5560  179.0420  140.1760 C   0  0  2  0  0  3  0  0  0  0  0  0
  184.8040  178.9310  142.5670 C   0  0  0  0  0  2  0  0  0  0  0  0
  190.4840  176.8900  138.3620 C   0  0  0  0  0  3  0  0  0  0  0  0
  188.8870  177.5550  142.2720 C   0  0  0  0  0  0  0  0  0  0  0  0
  190.5940  176.7360  140.7720 N   0  0  0  0  0  0  0  0  0  0  0  0
  186.5260  178.4320  138.8310 N   0  0  0  0  0  0  0  0  0  0  0  0
  186.9940  178.1610  143.6250 N   0  0  0  0  0  0  0  0  0  0  0  0
  188.2360  177.7470  143.6010 C   0  0  0  0  0  0  0  0  0  0  0  0
  183.9990  178.4940  141.4190 N   0  0  0  0  0  2  0  0  0  0  0  0
  186.7820  178.3460  141.2310 C   0  0  0  0  0  0  0  0  0  0  0  0
  190.0780  176.9630  142.0980 C   0  0  0  0  0  3  0  0  0  0  0  0
  188.9360  177.4450  147.3310 C   0  0  0  0  0  0  0  0  0  0  0  0
  190.2530  176.9790  147.3220 C   0  0  0  0  0  3  0  0  0  0  0  0
  188.9250  177.5000  144.8970 C   0  0  0  0  0  0  0  0  0  0  0  0
  190.9080  176.7680  146.1080 C   0  0  0  0  0  3  0  0  0  0  0  0
  188.2760  177.7000  146.1260 C   0  0  0  0  0  3  0  0  0  0  0  0
  190.2460  177.0240  144.9030 C   0  0  0  0  0  3  0  0  0  0  0  0
  188.1100  177.7060  148.8520 Cl  0  0  0  0  0  0  0  0  0  0  0  0
  183.6920  178.6010  139.0000 C   0  0  0  0  0  2  0  0  0  0  0  0
  182.2030  176.0600  139.4390 C   0  0  0  0  0  1  0  0  0  0  0  0
  182.2860  178.5400  139.3990 N   0  0  0  0  0  0  0  0  0  0  0  0
  181.6320  177.3380  138.8460 C   0  0  1  0  0  3  0  0  0  0  0  0
  181.5200  178.6860  136.6900 C   0  0  0  0  0  2  0  0  0  0  0  0
  180.8290  179.6500  137.6430 C   0  0  0  0  0  2  0  0  0  0  0  0
  181.6280  179.7830  138.9510 C   0  0  0  0  0  2  0  0  0  0  0  0
  181.6410  177.2930  137.3110 C   0  0  0  0  0  2  0  0  0  0  0  0
  1  8  1  0  0  0  0
  1 13  2  0  0  0  0
  2 14  1  0  0  0  0
  3 18  1  0  0  0  0
  3 12  1  0  0  0  0
  4 10  1  0  0  0  0
  4 15  1  0  0  0  0
  5  6  1  0  0  0  0
  5 11  2  0  0  0  0
  6  2  2  0  0  0  0
  7  9  1  0  0  0  0
  7 18  1  0  0  0  0
  8  2  1  6  0  0  0
  8  3  1  0  0  0  0
  9 27  1  6  0  0  0
  9 17  1  0  0  0  0
 11  1  1  0  0  0  0
 12 16  1  0  0  0  0
 13 19  1  0  0  0  0
 14  7  2  0  0  0  0
 16 15  2  0  0  0  0
 16 22  1  0  0  0  0
 17 10  1  0  0  0  0
 18  4  2  0  0  0  0
 19 12  2  0  0  0  0
 20 26  1  0  0  0  0
 21 20  1  0  0  0  0
 22 25  2  0  0  0  0
 22 24  1  0  0  0  0
 23 21  2  0  0  0  0
 24 20  2  0  0  0  0
 25 23  1  0  0  0  0
 27 29  1  0  0  0  0
 30 29  1  0  0  0  0
 30 28  1  1  0  0  0
 31 34  1  0  0  0  0
 31 32  1  0  0  0  0
 32 33  1  0  0  0  0
 33 29  1  0  0  0  0
 34 30  1  0  0  0  0
M  END
>  <MODEL>
2

>  <REMARK>
 VINA RESULT:     -10.1      0.963      1.341
  Name = 
  3 active torsions:
  status: ('A' for Active; 'I' for Inactive)
    1  A    between atoms: C_3  and  N_13
    2  A    between atoms: C_3  and  C_17
    3  A    between atoms: C_12  and  C_28
                            x       y       z     vdW  Elec       q    Type
                         _______ _______ _______ _____ _____    ______ ____

>  <TORSDO>
F 3

$$$$
=
 OpenBabel10262423533D

 34 40  0  0  1  0  0  0  0  0999 V2000
  183.8200  178.8420  144.1940 C   0  0  0  0  0  0  0  0  0  0  0  0
  186.2370  178.2800  144.4040 C   0  0  0  0  0  0  0  0  0  0  0  0
  185.2350  178.7240  142.2120 N   0  0  0  0  0  0  0  0  0  0  0  0
  186.5940  178.3620  140.2730 C   0  0  0  0  0  0  0  0  0  0  0  0
  184.7770  178.2050  146.3180 C   0  0  0  0  0  3  0  0  0  0  0  0
  186.0360  177.9710  145.6530 N   0  0  0  0  0  0  0  0  0  0  0  0
  187.6180  177.9850  142.4660 C   0  0  0  0  0  0  0  0  0  0  0  0
  185.1970  179.0520  143.6330 C   0  0  1  0  0  3  0  0  0  0  0  0
  188.9300  177.6550  141.7950 C   0  0  2  0  0  3  0  0  0  0  0  0
  187.9300  178.0660  139.6450 C   0  0  0  0  0  2  0  0  0  0  0  0
  183.6950  178.6020  145.6360 C   0  0  0  0  0  3  0  0  0  0  0  0
  184.0830  178.9590  141.3930 C   0  0  0  0  0  0  0  0  0  0  0  0
  182.7730  178.9100  143.4220 N   0  0  0  0  0  0  0  0  0  0  0  0
  187.4790  177.9420  143.7630 N   0  0  0  0  0  0  0  0  0  0  0  0
  185.4690  178.7100  139.4440 N   0  0  0  0  0  0  0  0  0  0  0  0
  184.2810  178.9950  139.9140 C   0  0  0  0  0  0  0  0  0  0  0  0
  188.6850  177.1030  140.4570 N   0  0  0  0  0  2  0  0  0  0  0  0
  186.4820  178.3790  141.6060 C   0  0  0  0  0  0  0  0  0  0  0  0
  182.8860  179.0440  141.9920 C   0  0  0  0  0  3  0  0  0  0  0  0
  181.6680  180.9550  137.9570 C   0  0  0  0  0  0  0  0  0  0  0  0
  181.1960  179.9750  137.0800 C   0  0  0  0  0  3  0  0  0  0  0  0
  183.2030  179.3460  138.9500 C   0  0  0  0  0  0  0  0  0  0  0  0
  181.7240  178.6840  137.1310 C   0  0  0  0  0  3  0  0  0  0  0  0
  182.6680  180.6420  138.8820 C   0  0  0  0  0  3  0  0  0  0  0  0
  182.7240  178.3730  138.0570 C   0  0  0  0  0  3  0  0  0  0  0  0
  181.0130  182.5760  137.8940 Cl  0  0  0  0  0  0  0  0  0  0  0  0
  189.7380  176.6540  142.6120 C   0  0  0  0  0  2  0  0  0  0  0  0
  191.8610  175.1190  144.0270 C   0  0  0  0  0  1  0  0  0  0  0  0
  191.1110  177.1320  142.7850 N   0  0  0  0  0  0  0  0  0  0  0  0
  191.6890  176.6290  144.0460 C   0  0  1  0  0  3  0  0  0  0  0  0
  190.3320  178.4900  145.1300 C   0  0  0  0  0  2  0  0  0  0  0  0
  191.1250  179.2960  144.1090 C   0  0  0  0  0  2  0  0  0  0  0  0
  191.0920  178.6070  142.7340 C   0  0  0  0  0  2  0  0  0  0  0  0
  190.9190  177.0870  145.2940 C   0  0  0  0  0  2  0  0  0  0  0  0
  1 11  1  0  0  0  0
  2  6  2  0  0  0  0
  3  8  1  0  0  0  0
  4 18  2  0  0  0  0
  6  5  1  0  0  0  0
  7 14  2  0  0  0  0
  8  1  1  1  0  0  0
  8  2  1  0  0  0  0
  9  7  1  0  0  0  0
  9 27  1  1  0  0  0
 10  4  1  0  0  0  0
 10 17  1  0  0  0  0
 11  5  2  0  0  0  0
 12 19  2  0  0  0  0
 12  3  1  0  0  0  0
 13  1  2  0  0  0  0
 14  2  1  0  0  0  0
 15 16  2  0  0  0  0
 15  4  1  0  0  0  0
 16 12  1  0  0  0  0
 17  9  1  0  0  0  0
 18  3  1  0  0  0  0
 18  7  1  0  0  0  0
 19 13  1  0  0  0  0
 20 24  1  0  0  0  0
 21 23  1  0  0  0  0
 21 20  2  0  0  0  0
 22 16  1  0  0  0  0
 23 25  2  0  0  0  0
 24 22  2  0  0  0  0
 25 22  1  0  0  0  0
 26 20  1  0  0  0  0
 27 29  1  0  0  0  0
 29 30  1  0  0  0  0
 30 28  1  6  0  0  0
 30 34  1  0  0  0  0
 31 34  1  0  0  0  0
 32 31  1  0  0  0  0
 33 29  1  0  0  0  0
 33 32  1  0  0  0  0
M  END
>  <MODEL>
3

>  <REMARK>
 VINA RESULT:      -9.5      3.188      8.748
  Name = 
  3 active torsions:
  status: ('A' for Active; 'I' for Inactive)
    1  A    between atoms: C_3  and  N_13
    2  A    between atoms: C_3  and  C_17
    3  A    between atoms: C_12  and  C_28
                            x       y       z     vdW  Elec       q    Type
                         _______ _______ _______ _____ _____    ______ ____

>  <TORSDO>
F 3

$$$$
=
 OpenBabel10262423533D

 34 40  0  0  1  0  0  0  0  0999 V2000
  189.6000  177.1170  145.1920 C   0  0  0  0  0  0  0  0  0  0  0  0
  191.0810  176.9280  143.1980 C   0  0  0  0  0  0  0  0  0  0  0  0
  188.7400  177.6150  142.9650 N   0  0  0  0  0  0  0  0  0  0  0  0
  187.8670  177.8590  140.7480 C   0  0  0  0  0  0  0  0  0  0  0  0
  191.8450  176.2500  145.3800 C   0  0  0  0  0  3  0  0  0  0  0  0
  191.9810  176.3560  143.9470 N   0  0  0  0  0  0  0  0  0  0  0  0
  190.2250  177.2400  140.9800 C   0  0  0  0  0  0  0  0  0  0  0  0
  189.9170  177.6530  143.8260 C   0  0  1  0  0  3  0  0  0  0  0  0
  190.3780  177.2640  139.4780 C   0  0  2  0  0  3  0  0  0  0  0  0
  188.0710  177.9110  139.2580 C   0  0  0  0  0  2  0  0  0  0  0  0
  190.7060  176.5880  145.9970 C   0  0  0  0  0  3  0  0  0  0  0  0
  187.4370  177.8110  143.5280 C   0  0  0  0  0  0  0  0  0  0  0  0
  188.3830  177.1600  145.6540 N   0  0  0  0  0  0  0  0  0  0  0  0
  191.2180  176.9260  141.7670 N   0  0  0  0  0  0  0  0  0  0  0  0
  186.5790  178.1710  141.3110 N   0  0  0  0  0  0  0  0  0  0  0  0
  186.3260  178.1620  142.5960 C   0  0  0  0  0  0  0  0  0  0  0  0
  189.0950  176.9470  138.8380 N   0  0  0  0  0  2  0  0  0  0  0  0
  188.9090  177.6010  141.5470 C   0  0  0  0  0  0  0  0  0  0  0  0
  187.2720  177.5830  144.8400 C   0  0  0  0  0  3  0  0  0  0  0  0
  182.5710  178.7930  142.6210 C   0  0  0  0  0  0  0  0  0  0  0  0
  182.3630  179.1350  143.9590 C   0  0  0  0  0  3  0  0  0  0  0  0
  184.9520  178.5110  143.0490 C   0  0  0  0  0  0  0  0  0  0  0  0
  183.4420  179.1630  144.8460 C   0  0  0  0  0  3  0  0  0  0  0  0
  183.8560  178.4800  142.1710 C   0  0  0  0  0  3  0  0  0  0  0  0
  184.7270  178.8500  144.3930 C   0  0  0  0  0  3  0  0  0  0  0  0
  181.2210  178.7520  141.5080 Cl  0  0  0  0  0  0  0  0  0  0  0  0
  191.4340  176.2710  139.0090 C   0  0  0  0  0  2  0  0  0  0  0  0
  189.9730  174.6820  136.9580 C   0  0  0  0  0  1  0  0  0  0  0  0
  191.6510  176.4040  137.5680 N   0  0  0  0  0  0  0  0  0  0  0  0
  191.4260  175.1190  136.8780 C   0  0  1  0  0  3  0  0  0  0  0  0
  193.7560  174.5350  137.7210 C   0  0  0  0  0  2  0  0  0  0  0  0
  194.0550  175.8360  136.9880 C   0  0  0  0  0  2  0  0  0  0  0  0
  193.0210  176.9130  137.3560 C   0  0  0  0  0  2  0  0  0  0  0  0
  192.3710  174.0030  137.3500 C   0  0  0  0  0  2  0  0  0  0  0  0
  1 13  2  0  0  0  0
  1 11  1  0  0  0  0
  2  6  2  0  0  0  0
  3 12  1  0  0  0  0
  3  8  1  0  0  0  0
  4 15  1  0  0  0  0
  4 18  2  0  0  0  0
  5 11  2  0  0  0  0
  6  5  1  0  0  0  0
  7 18  1  0  0  0  0
  7 14  2  0  0  0  0
  8  2  1  6  0  0  0
  8  1  1  0  0  0  0
  9 27  1  1  0  0  0
  9  7  1  0  0  0  0
 10  4  1  0  0  0  0
 12 19  2  0  0  0  0
 14  2  1  0  0  0  0
 15 16  2  0  0  0  0
 16 22  1  0  0  0  0
 16 12  1  0  0  0  0
 17 10  1  0  0  0  0
 17  9  1  0  0  0  0
 18  3  1  0  0  0  0
 19 13  1  0  0  0  0
 20 21  1  0  0  0  0
 21 23  2  0  0  0  0
 22 25  2  0  0  0  0
 24 20  2  0  0  0  0
 24 22  1  0  0  0  0
 25 23  1  0  0  0  0
 26 20  1  0  0  0  0
 29 27  1  0  0  0  0
 30 28  1  1  0  0  0
 30 34  1  0  0  0  0
 30 29  1  0  0  0  0
 32 33  1  0  0  0  0
 32 31  1  0  0  0  0
 33 29  1  0  0  0  0
 34 31  1  0  0  0  0
M  END
>  <MODEL>
4

>  <REMARK>
 VINA RESULT:      -9.1      3.446      7.126
  Name = 
  3 active torsions:
  status: ('A' for Active; 'I' for Inactive)
    1  A    between atoms: C_3  and  N_13
    2  A    between atoms: C_3  and  C_17
    3  A    between atoms: C_12  and  C_28
                            x       y       z     vdW  Elec       q    Type
                         _______ _______ _______ _____ _____    ______ ____

>  <TORSDO>
F 3

$$$$
=
 OpenBabel10262423533D

 34 40  0  0  1  0  0  0  0  0999 V2000
  186.5560  177.8350  138.4520 C   0  0  0  0  0  0  0  0  0  0  0  0
  187.0160  178.7240  140.7330 C   0  0  0  0  0  0  0  0  0  0  0  0
  188.7210  177.4580  139.5100 N   0  0  0  0  0  0  0  0  0  0  0  0
  190.7400  176.9000  140.6710 C   0  0  0  0  0  0  0  0  0  0  0  0
  184.8240  178.9070  139.7500 C   0  0  0  0  0  3  0  0  0  0  0  0
  185.7540  179.0270  140.8480 N   0  0  0  0  0  0  0  0  0  0  0  0
  189.0660  178.2240  141.8720 C   0  0  0  0  0  0  0  0  0  0  0  0
  187.5980  178.3810  139.3850 C   0  0  1  0  0  3  0  0  0  0  0  0
  189.9850  178.2980  143.0680 C   0  0  2  0  0  3  0  0  0  0  0  0
  191.6420  177.0310  141.8690 C   0  0  0  0  0  2  0  0  0  0  0  0
  185.1790  178.3210  138.6000 C   0  0  0  0  0  3  0  0  0  0  0  0
  189.1100  176.6520  138.3910 C   0  0  0  0  0  0  0  0  0  0  0  0
  186.8810  176.9850  137.5210 N   0  0  0  0  0  0  0  0  0  0  0  0
  187.8810  178.7710  141.8800 N   0  0  0  0  0  0  0  0  0  0  0  0
  191.1880  176.1830  139.5050 N   0  0  0  0  0  0  0  0  0  0  0  0
  190.4700  176.0390  138.4200 C   0  0  0  0  0  0  0  0  0  0  0  0
  190.8560  177.1160  143.1060 N   0  0  0  0  0  2  0  0  0  0  0  0
  189.5550  177.5210  140.6680 C   0  0  0  0  0  0  0  0  0  0  0  0
  188.2050  176.4250  137.4270 C   0  0  0  0  0  3  0  0  0  0  0  0
  192.5740  175.1100  135.3850 C   0  0  0  0  0  0  0  0  0  0  0  0
  192.1630  173.7940  135.1640 C   0  0  0  0  0  3  0  0  0  0  0  0
  191.0540  175.2800  137.2810 C   0  0  0  0  0  0  0  0  0  0  0  0
  191.2030  173.2150  135.9960 C   0  0  0  0  0  3  0  0  0  0  0  0
  192.0250  175.8460  136.4390 C   0  0  0  0  0  3  0  0  0  0  0  0
  190.6550  173.9530  137.0500 C   0  0  0  0  0  3  0  0  0  0  0  0
  193.7800  175.8380  134.3460 Cl  0  0  0  0  0  0  0  0  0  0  0  0
  189.1990  178.3860  144.3710 C   0  0  0  0  0  2  0  0  0  0  0  0
  186.5910  176.9560  144.2140 C   0  0  0  0  0  1  0  0  0  0  0  0
  188.9700  177.0480  144.9160 N   0  0  0  0  0  0  0  0  0  0  0  0
  187.5740  176.8950  145.3710 C   0  0  1  0  0  3  0  0  0  0  0  0
  188.3570  178.1830  147.4230 C   0  0  0  0  0  2  0  0  0  0  0  0
  189.3660  177.0430  147.4230 C   0  0  0  0  0  2  0  0  0  0  0  0
  189.9360  176.8270  146.0100 C   0  0  0  0  0  2  0  0  0  0  0  0
  187.1870  177.8800  146.4850 C   0  0  0  0  0  2  0  0  0  0  0  0
  1 11  1  0  0  0  0
  2  6  2  0  0  0  0
  2 14  1  0  0  0  0
  3 18  1  0  0  0  0
  4 10  1  0  0  0  0
  5  6  1  0  0  0  0
  7 14  2  0  0  0  0
  7  9  1  0  0  0  0
  8  1  1  6  0  0  0
  8  3  1  0  0  0  0
  8  2  1  0  0  0  0
  9 17  1  0  0  0  0
  9 27  1  1  0  0  0
 10 17  1  0  0  0  0
 11  5  2  0  0  0  0
 12 16  1  0  0  0  0
 12  3  1  0  0  0  0
 13  1  2  0  0  0  0
 15  4  1  0  0  0  0
 16 15  2  0  0  0  0
 18  4  2  0  0  0  0
 18  7  1  0  0  0  0
 19 13  1  0  0  0  0
 19 12  2  0  0  0  0
 20 24  1  0  0  0  0
 21 20  2  0  0  0  0
 21 23  1  0  0  0  0
 22 16  1  0  0  0  0
 23 25  2  0  0  0  0
 24 22  2  0  0  0  0
 25 22  1  0  0  0  0
 26 20  1  0  0  0  0
 27 29  1  0  0  0  0
 29 30  1  0  0  0  0
 29 33  1  0  0  0  0
 30 28  1  6  0  0  0
 30 34  1  0  0  0  0
 31 32  1  0  0  0  0
 33 32  1  0  0  0  0
 34 31  1  0  0  0  0
M  END
>  <MODEL>
5

>  <REMARK>
 VINA RESULT:      -8.9      3.142      8.339
  Name = 
  3 active torsions:
  status: ('A' for Active; 'I' for Inactive)
    1  A    between atoms: C_3  and  N_13
    2  A    between atoms: C_3  and  C_17
    3  A    between atoms: C_12  and  C_28
                            x       y       z     vdW  Elec       q    Type
                         _______ _______ _______ _____ _____    ______ ____

>  <TORSDO>
F 3

$$$$
=
 OpenBabel10262423533D

 34 40  0  0  1  0  0  0  0  0999 V2000
  182.9610  178.9150  143.3310 C   0  0  0  0  0  0  0  0  0  0  0  0
  185.4100  178.7010  143.7330 C   0  0  0  0  0  0  0  0  0  0  0  0
  184.5150  178.8040  141.4540 N   0  0  0  0  0  0  0  0  0  0  0  0
  186.0400  178.4500  139.6410 C   0  0  0  0  0  0  0  0  0  0  0  0
  183.8410  178.6090  145.5580 C   0  0  0  0  0  3  0  0  0  0  0  0
  185.1640  178.4840  144.9930 N   0  0  0  0  0  0  0  0  0  0  0  0
  186.9490  178.4150  141.9150 C   0  0  0  0  0  0  0  0  0  0  0  0
  184.3360  179.2530  142.8300 C   0  0  1  0  0  3  0  0  0  0  0  0
  188.3350  178.2030  141.3570 C   0  0  2  0  0  3  0  0  0  0  0  0
  187.4420  178.2780  139.1230 C   0  0  0  0  0  2  0  0  0  0  0  0
  182.7680  178.7940  144.7800 C   0  0  0  0  0  3  0  0  0  0  0  0
  183.4020  178.8070  140.5510 C   0  0  0  0  0  0  0  0  0  0  0  0
  181.9710  178.7710  142.4980 N   0  0  0  0  0  0  0  0  0  0  0  0
  186.7260  178.4730  143.2000 N   0  0  0  0  0  0  0  0  0  0  0  0
  184.9400  178.5670  138.7190 N   0  0  0  0  0  0  0  0  0  0  0  0
  183.6950  178.7330  139.0900 C   0  0  0  0  0  0  0  0  0  0  0  0
  188.2550  177.5020  140.0690 N   0  0  0  0  0  2  0  0  0  0  0  0
  185.8340  178.5740  140.9580 C   0  0  0  0  0  0  0  0  0  0  0  0
  182.1650  178.7880  141.0700 C   0  0  0  0  0  3  0  0  0  0  0  0
  181.4350  177.9400  136.1310 C   0  0  0  0  0  0  0  0  0  0  0  0
  180.6380  179.0860  136.0850 C   0  0  0  0  0  3  0  0  0  0  0  0
  182.6520  178.8470  138.0350 C   0  0  0  0  0  0  0  0  0  0  0  0
  180.8400  180.1120  137.0100 C   0  0  0  0  0  3  0  0  0  0  0  0
  182.4320  177.8210  137.1030 C   0  0  0  0  0  3  0  0  0  0  0  0
  181.8380  179.9910  137.9810 C   0  0  0  0  0  3  0  0  0  0  0  0
  181.1810  176.6500  134.9760 Cl  0  0  0  0  0  0  0  0  0  0  0  0
  189.2050  177.3970  142.3150 C   0  0  0  0  0  2  0  0  0  0  0  0
  191.9220  177.2900  141.1000 C   0  0  0  0  0  1  0  0  0  0  0  0
  190.3350  178.2050  142.7740 N   0  0  0  0  0  0  0  0  0  0  0  0
  191.6110  177.4910  142.5740 C   0  0  1  0  0  3  0  0  0  0  0  0
  190.9580  176.2300  144.6870 C   0  0  0  0  0  2  0  0  0  0  0  0
  190.8730  177.6640  145.1940 C   0  0  0  0  0  2  0  0  0  0  0  0
  190.1090  178.5460  144.1920 C   0  0  0  0  0  2  0  0  0  0  0  0
  191.6930  176.1660  143.3470 C   0  0  0  0  0  2  0  0  0  0  0  0
  1 11  1  0  0  0  0
  2  6  2  0  0  0  0
  3  8  1  0  0  0  0
  4 18  2  0  0  0  0
  6  5  1  0  0  0  0
  7 14  2  0  0  0  0
  8  1  1  1  0  0  0
  8  2  1  0  0  0  0
  9  7  1  0  0  0  0
  9 27  1  1  0  0  0
 10  4  1  0  0  0  0
 10 17  1  0  0  0  0
 11  5  2  0  0  0  0
 12 19  2  0  0  0  0
 12  3  1  0  0  0  0
 13  1  2  0  0  0  0
 14  2  1  0  0  0  0
 15 16  2  0  0  0  0
 15  4  1  0  0  0  0
 16 12  1  0  0  0  0
 17  9  1  0  0  0  0
 18  3  1  0  0  0  0
 18  7  1  0  0  0  0
 19 13  1  0  0  0  0
 20 24  1  0  0  0  0
 21 20  2  0  0  0  0
 21 23  1  0  0  0  0
 22 16  1  0  0  0  0
 23 25  2  0  0  0  0
 24 22  2  0  0  0  0
 25 22  1  0  0  0  0
 26 20  1  0  0  0  0
 27 29  1  0  0  0  0
 29 33  1  0  0  0  0
 30 28  1  6  0  0  0
 30 29  1  0  0  0  0
 30 34  1  0  0  0  0
 31 32  1  0  0  0  0
 33 32  1  0  0  0  0
 34 31  1  0  0  0  0
M  END
>  <MODEL>
6

>  <REMARK>
 VINA RESULT:      -8.4      3.336      8.962
  Name = 
  3 active torsions:
  status: ('A' for Active; 'I' for Inactive)
    1  A    between atoms: C_3  and  N_13
    2  A    between atoms: C_3  and  C_17
    3  A    between atoms: C_12  and  C_28
                            x       y       z     vdW  Elec       q    Type
                         _______ _______ _______ _____ _____    ______ ____

>  <TORSDO>
F 3

$$$$
=
 OpenBabel10262423533D

 34 40  0  0  1  0  0  0  0  0999 V2000
  187.3530  177.9810  138.5670 C   0  0  0  0  0  0  0  0  0  0  0  0
  189.3800  177.2980  137.2910 C   0  0  0  0  0  0  0  0  0  0  0  0
  189.3930  177.3440  139.7410 N   0  0  0  0  0  0  0  0  0  0  0  0
  191.4790  176.9480  140.8510 C   0  0  0  0  0  0  0  0  0  0  0  0
  187.4220  178.1240  136.1570 C   0  0  0  0  0  3  0  0  0  0  0  0
  188.8000  177.6970  136.1950 N   0  0  0  0  0  0  0  0  0  0  0  0
  191.4520  176.8330  138.4040 C   0  0  0  0  0  0  0  0  0  0  0  0
  188.5780  177.1120  138.5540 C   0  0  1  0  0  3  0  0  0  0  0  0
  192.9170  176.4640  138.4070 C   0  0  2  0  0  3  0  0  0  0  0  0
  192.9260  176.5390  140.8120 C   0  0  0  0  0  2  0  0  0  0  0  0
  186.7140  178.2880  137.2820 C   0  0  0  0  0  3  0  0  0  0  0  0
  188.7650  177.6810  140.9840 C   0  0  0  0  0  0  0  0  0  0  0  0
  186.8600  178.4130  139.6920 N   0  0  0  0  0  0  0  0  0  0  0  0
  190.7800  176.9710  137.2940 N   0  0  0  0  0  0  0  0  0  0  0  0
  190.8260  177.1730  142.1140 N   0  0  0  0  0  0  0  0  0  0  0  0
  189.5680  177.5150  142.2320 C   0  0  0  0  0  0  0  0  0  0  0  0
  193.5750  177.0310  139.5910 N   0  0  0  0  0  2  0  0  0  0  0  0
  190.7840  177.0210  139.7090 C   0  0  0  0  0  0  0  0  0  0  0  0
  187.5310  178.2050  140.9500 C   0  0  0  0  0  3  0  0  0  0  0  0
  187.1260  177.9470  145.1210 C   0  0  0  0  0  0  0  0  0  0  0  0
  188.0020  178.0380  146.2040 C   0  0  0  0  0  3  0  0  0  0  0  0
  189.0120  177.7100  143.5980 C   0  0  0  0  0  0  0  0  0  0  0  0
  189.3800  177.9620  145.9930 C   0  0  0  0  0  3  0  0  0  0  0  0
  187.6280  177.7810  143.8270 C   0  0  0  0  0  3  0  0  0  0  0  0
  189.8810  177.7960  144.6980 C   0  0  0  0  0  3  0  0  0  0  0  0
  185.3980  178.0370  145.3820 Cl  0  0  0  0  0  0  0  0  0  0  0  0
  193.6200  176.9640  137.1510 C   0  0  0  0  0  2  0  0  0  0  0  0
  195.6250  177.4910  135.0130 C   0  0  0  0  0  1  0  0  0  0  0  0
  194.6020  175.9790  136.6940 N   0  0  0  0  0  0  0  0  0  0  0  0
  194.9160  176.1710  135.2650 C   0  0  1  0  0  3  0  0  0  0  0  0
  192.7130  174.9570  134.8680 C   0  0  0  0  0  2  0  0  0  0  0  0
  193.4230  173.9400  135.7510 C   0  0  0  0  0  2  0  0  0  0  0  0
  194.0620  174.6330  136.9660 C   0  0  0  0  0  2  0  0  0  0  0  0
  193.6930  176.0110  134.3480 C   0  0  0  0  0  2  0  0  0  0  0  0
  1 13  2  0  0  0  0
  2 14  1  0  0  0  0
  3 12  1  0  0  0  0
  4 15  1  0  0  0  0
  5  6  1  0  0  0  0
  5 11  2  0  0  0  0
  6  2  2  0  0  0  0
  7  9  1  0  0  0  0
  7 18  1  0  0  0  0
  8  2  1  6  0  0  0
  8  1  1  0  0  0  0
  8  3  1  0  0  0  0
  9 27  1  6  0  0  0
  9 17  1  0  0  0  0
 10  4  1  0  0  0  0
 11  1  1  0  0  0  0
 12 16  1  0  0  0  0
 13 19  1  0  0  0  0
 14  7  2  0  0  0  0
 15 16  2  0  0  0  0
 16 22  1  0  0  0  0
 17 10  1  0  0  0  0
 18  3  1  0  0  0  0
 18  4  2  0  0  0  0
 19 12  2  0  0  0  0
 20 26  1  0  0  0  0
 20 21  1  0  0  0  0
 22 24  1  0  0  0  0
 22 25  2  0  0  0  0
 23 21  2  0  0  0  0
 24 20  2  0  0  0  0
 25 23  1  0  0  0  0
 29 33  1  0  0  0  0
 29 27  1  0  0  0  0
 30 28  1  1  0  0  0
 30 29  1  0  0  0  0
 31 32  1  0  0  0  0
 32 33  1  0  0  0  0
 34 31  1  0  0  0  0
 34 30  1  0  0  0  0
M  END
>  <MODEL>
7

>  <REMARK>
 VINA RESULT:      -8.4      3.248      7.477
  Name = 
  3 active torsions:
  status: ('A' for Active; 'I' for Inactive)
    1  A    between atoms: C_3  and  N_13
    2  A    between atoms: C_3  and  C_17
    3  A    between atoms: C_12  and  C_28
                            x       y       z     vdW  Elec       q    Type
                         _______ _______ _______ _____ _____    ______ ____

>  <TORSDO>
F 3

$$$$
=
 OpenBabel10262423533D

 34 40  0  0  1  0  0  0  0  0999 V2000
  187.5780  177.9040  143.0040 C   0  0  0  0  0  0  0  0  0  0  0  0
  189.4830  177.3460  141.4990 C   0  0  0  0  0  0  0  0  0  0  0  0
  187.3350  178.0950  140.5850 N   0  0  0  0  0  0  0  0  0  0  0  0
  187.0570  178.0380  138.2060 C   0  0  0  0  0  0  0  0  0  0  0  0
  189.6290  176.9740  143.8740 C   0  0  0  0  0  3  0  0  0  0  0  0
  190.1210  176.8550  142.5230 N   0  0  0  0  0  0  0  0  0  0  0  0
  189.2270  177.3550  139.1140 C   0  0  0  0  0  0  0  0  0  0  0  0
  188.2640  178.2110  141.7040 C   0  0  1  0  0  3  0  0  0  0  0  0
  189.7460  177.1430  137.7120 C   0  0  2  0  0  3  0  0  0  0  0  0
  187.6250  177.8530  136.8250 C   0  0  0  0  0  2  0  0  0  0  0  0
  188.4060  177.4540  144.1280 C   0  0  0  0  0  3  0  0  0  0  0  0
  185.9550  178.4340  140.7650 C   0  0  0  0  0  0  0  0  0  0  0  0
  186.2930  178.0720  143.1290 N   0  0  0  0  0  0  0  0  0  0  0  0
  189.9670  177.1200  140.1640 N   0  0  0  0  0  0  0  0  0  0  0  0
  185.7010  178.4900  138.3750 N   0  0  0  0  0  0  0  0  0  0  0  0
  185.1400  178.6890  139.5410 C   0  0  0  0  0  0  0  0  0  0  0  0
  188.6380  176.7900  136.8150 N   0  0  0  0  0  2  0  0  0  0  0  0
  187.8470  177.8580  139.2720 C   0  0  0  0  0  0  0  0  0  0  0  0
  185.4550  178.4160  142.0090 C   0  0  0  0  0  3  0  0  0  0  0  0
  181.9800  180.7080  138.8800 C   0  0  0  0  0  0  0  0  0  0  0  0
  181.0450  180.0030  139.6400 C   0  0  0  0  0  3  0  0  0  0  0  0
  183.7300  179.1640  139.5770 C   0  0  0  0  0  0  0  0  0  0  0  0
  181.4430  178.8790  140.3660 C   0  0  0  0  0  3  0  0  0  0  0  0
  183.3130  180.2890  138.8460 C   0  0  0  0  0  3  0  0  0  0  0  0
  182.7770  178.4610  140.3310 C   0  0  0  0  0  3  0  0  0  0  0  0
  181.4840  182.1150  137.9650 Cl  0  0  0  0  0  0  0  0  0  0  0  0
  190.7990  176.0420  137.6680 C   0  0  0  0  0  2  0  0  0  0  0  0
  191.3560  175.8590  134.7480 C   0  0  0  0  0  1  0  0  0  0  0  0
  192.0240  176.5380  137.0390 N   0  0  0  0  0  0  0  0  0  0  0  0
  192.3810  175.7240  135.8620 C   0  0  1  0  0  3  0  0  0  0  0  0
  193.2870  174.0760  137.5780 C   0  0  0  0  0  2  0  0  0  0  0  0
  194.0450  175.3320  137.9870 C   0  0  0  0  0  2  0  0  0  0  0  0
  193.0940  176.5380  138.0560 C   0  0  0  0  0  2  0  0  0  0  0  0
  192.6440  174.2480  136.2010 C   0  0  0  0  0  2  0  0  0  0  0  0
  1 13  2  0  0  0  0
  1 11  1  0  0  0  0
  2  6  2  0  0  0  0
  3 12  1  0  0  0  0
  3  8  1  0  0  0  0
  4 15  1  0  0  0  0
  4 18  2  0  0  0  0
  5 11  2  0  0  0  0
  6  5  1  0  0  0  0
  7 18  1  0  0  0  0
  7 14  2  0  0  0  0
  8  2  1  6  0  0  0
  8  1  1  0  0  0  0
  9 27  1  1  0  0  0
  9  7  1  0  0  0  0
 10  4  1  0  0  0  0
 12 19  2  0  0  0  0
 14  2  1  0  0  0  0
 15 16  2  0  0  0  0
 16 22  1  0  0  0  0
 16 12  1  0  0  0  0
 17 10  1  0  0  0  0
 17  9  1  0  0  0  0
 18  3  1  0  0  0  0
 19 13  1  0  0  0  0
 20 21  1  0  0  0  0
 21 23  2  0  0  0  0
 22 25  2  0  0  0  0
 24 20  2  0  0  0  0
 24 22  1  0  0  0  0
 25 23  1  0  0  0  0
 26 20  1  0  0  0  0
 29 27  1  0  0  0  0
 29 33  1  0  0  0  0
 30 28  1  6  0  0  0
 30 34  1  0  0  0  0
 30 29  1  0  0  0  0
 31 32  1  0  0  0  0
 32 33  1  0  0  0  0
 34 31  1  0  0  0  0
M  END
>  <MODEL>
8

>  <REMARK>
 VINA RESULT:      -8.3      3.286      8.017
  Name = 
  3 active torsions:
  status: ('A' for Active; 'I' for Inactive)
    1  A    between atoms: C_3  and  N_13
    2  A    between atoms: C_3  and  C_17
    3  A    between atoms: C_12  and  C_28
                            x       y       z     vdW  Elec       q    Type
                         _______ _______ _______ _____ _____    ______ ____

>  <TORSDO>
F 3

$$$$
=
 OpenBabel10262423533D

 34 40  0  0  1  0  0  0  0  0999 V2000
  188.4010  177.6880  143.5250 C   0  0  0  0  0  0  0  0  0  0  0  0
  190.3920  177.3160  142.0750 C   0  0  0  0  0  0  0  0  0  0  0  0
  188.2360  177.9650  141.1080 N   0  0  0  0  0  0  0  0  0  0  0  0
  188.0500  177.9900  138.7190 C   0  0  0  0  0  0  0  0  0  0  0  0
  190.4750  176.8540  144.4380 C   0  0  0  0  0  3  0  0  0  0  0  0
  191.0230  176.8240  143.1030 N   0  0  0  0  0  0  0  0  0  0  0  0
  190.2240  177.4080  139.6850 C   0  0  0  0  0  0  0  0  0  0  0  0
  189.1130  178.0920  142.2660 C   0  0  1  0  0  3  0  0  0  0  0  0
  190.8070  177.2890  138.2970 C   0  0  2  0  0  3  0  0  0  0  0  0
  188.6780  177.8990  137.3550 C   0  0  0  0  0  2  0  0  0  0  0  0
  189.2140  177.2450  144.6620 C   0  0  0  0  0  3  0  0  0  0  0  0
  186.8300  178.2070  141.2460 C   0  0  0  0  0  0  0  0  0  0  0  0
  187.1040  177.7680  143.6060 N   0  0  0  0  0  0  0  0  0  0  0  0
  190.9380  177.1770  140.7530 N   0  0  0  0  0  0  0  0  0  0  0  0
  186.6610  178.3470  138.8520 N   0  0  0  0  0  0  0  0  0  0  0  0
  186.0460  178.4610  140.0020 C   0  0  0  0  0  0  0  0  0  0  0  0
  189.7580  176.9050  137.3440 N   0  0  0  0  0  2  0  0  0  0  0  0
  188.8090  177.8160  139.8080 C   0  0  0  0  0  0  0  0  0  0  0  0
  186.2870  178.1060  142.4680 C   0  0  0  0  0  3  0  0  0  0  0  0
  182.4280  178.9510  141.0810 C   0  0  0  0  0  0  0  0  0  0  0  0
  181.9050  179.6250  139.9750 C   0  0  0  0  0  3  0  0  0  0  0  0
  184.6080  178.8440  140.0010 C   0  0  0  0  0  0  0  0  0  0  0  0
  182.7260  179.9150  138.8840 C   0  0  0  0  0  3  0  0  0  0  0  0
  183.7710  178.5660  141.0940 C   0  0  0  0  0  3  0  0  0  0  0  0
  184.0700  179.5290  138.8990 C   0  0  0  0  0  3  0  0  0  0  0  0
  181.4020  178.5900  142.4520 Cl  0  0  0  0  0  0  0  0  0  0  0  0
  191.9310  176.2600  138.2500 C   0  0  0  0  0  2  0  0  0  0  0  0
  190.9340  173.7630  136.9710 C   0  0  0  0  0  1  0  0  0  0  0  0
  192.2170  175.8840  136.8650 N   0  0  0  0  0  0  0  0  0  0  0  0
  192.2820  174.4170  136.7190 C   0  0  1  0  0  3  0  0  0  0  0  0
  194.6180  174.6660  137.7020 C   0  0  0  0  0  2  0  0  0  0  0  0
  194.7190  175.6290  136.5260 C   0  0  0  0  0  2  0  0  0  0  0  0
  193.4790  176.5370  136.4650 C   0  0  0  0  0  2  0  0  0  0  0  0
  193.3840  173.7700  137.5720 C   0  0  0  0  0  2  0  0  0  0  0  0
  1 13  2  0  0  0  0
  1 11  1  0  0  0  0
  2  6  2  0  0  0  0
  3 12  1  0  0  0  0
  3  8  1  0  0  0  0
  4 15  1  0  0  0  0
  4 18  2  0  0  0  0
  5 11  2  0  0  0  0
  6  5  1  0  0  0  0
  7 18  1  0  0  0  0
  7 14  2  0  0  0  0
  8  2  1  6  0  0  0
  8  1  1  0  0  0  0
  9 27  1  1  0  0  0
  9  7  1  0  0  0  0
 10  4  1  0  0  0  0
 12 19  2  0  0  0  0
 14  2  1  0  0  0  0
 15 16  2  0  0  0  0
 16 12  1  0  0  0  0
 17 10  1  0  0  0  0
 17  9  1  0  0  0  0
 18  3  1  0  0  0  0
 19 13  1  0  0  0  0
 20 24  1  0  0  0  0
 20 26  1  0  0  0  0
 21 20  2  0  0  0  0
 22 16  1  0  0  0  0
 22 24  2  0  0  0  0
 23 25  2  0  0  0  0
 23 21  1  0  0  0  0
 25 22  1  0  0  0  0
 29 27  1  0  0  0  0
 30 29  1  0  0  0  0
 30 28  1  1  0  0  0
 30 34  1  0  0  0  0
 32 31  1  0  0  0  0
 33 32  1  0  0  0  0
 33 29  1  0  0  0  0
 34 31  1  0  0  0  0
M  END
>  <MODEL>
9

>  <REMARK>
 VINA RESULT:      -8.2      2.981      7.886
  Name = 
  3 active torsions:
  status: ('A' for Active; 'I' for Inactive)
    1  A    between atoms: C_3  and  N_13
    2  A    between atoms: C_3  and  C_17
    3  A    between atoms: C_12  and  C_28
                            x       y       z     vdW  Elec       q    Type
                         _______ _______ _______ _____ _____    ______ ____

>  <TORSDO>
F 3

$$$$
