=
 OpenBabel10272400313D

 31 35  0  0  1  0  0  0  0  0999 V2000
  190.3760  176.9130  146.5050 C   0  0  0  0  0  0  0  0  0  0  0  0
  188.0040  177.7340  143.6920 C   0  0  0  0  0  0  0  0  0  0  0  0
  186.6980  177.8350  144.2820 C   0  0  0  0  0  0  0  0  0  0  0  0
  185.9690  178.5650  146.5290 C   0  0  0  0  0  3  0  0  0  0  0  0
  189.1930  177.4160  144.4240 C   0  0  0  0  0  0  0  0  0  0  0  0
  191.5800  176.7990  145.8120 C   0  0  0  0  0  3  0  0  0  0  0  0
  186.4320  177.4190  145.6980 C   0  0  0  0  0  2  0  0  0  0  0  0
  189.3670  177.8350  141.6320 C   0  0  0  0  0  0  0  0  0  0  0  0
  190.3460  176.7240  147.8450 F   0  0  0  0  0  0  0  0  0  0  0  0
  185.7530  178.4140  142.1200 C   0  0  0  0  0  3  0  0  0  0  0  0
  184.7980  179.1630  146.3260 C   0  0  0  0  0  3  0  0  0  0  0  0
  190.5020  177.5110  142.3710 C   0  0  0  0  0  3  0  0  0  0  0  0
  188.1250  177.9540  142.2860 C   0  0  0  0  0  0  0  0  0  0  0  0
  189.2010  177.2210  145.8170 C   0  0  0  0  0  3  0  0  0  0  0  0
  183.8720  178.8290  145.2290 C   0  0  0  0  0  3  0  0  0  0  0  0
  190.4320  177.3070  143.7410 C   0  0  0  0  0  0  0  0  0  0  0  0
  191.6070  176.9980  144.4320 C   0  0  0  0  0  3  0  0  0  0  0  0
  186.9980  178.2830  141.5270 C   0  0  0  0  0  3  0  0  0  0  0  0
  185.5900  178.2150  143.4860 C   0  0  0  0  0  0  0  0  0  0  0  0
  184.2180  178.4090  144.0070 C   0  0  0  0  0  3  0  0  0  0  0  0
  190.4220  175.9910  139.5760 O   0  0  0  0  0  0  0  0  0  0  0  0
  189.9280  177.0980  139.2320 C   0  0  0  0  0  0  0  0  0  0  0  0
  189.4470  178.0320  140.2080 N   0  0  0  0  0  2  0  0  0  0  0  0
  188.9790  177.0110  135.0240 N   0  0  0  0  0  0  0  0  0  0  0  0
  190.4640  176.3720  136.9270 C   0  0  0  0  0  2  0  0  0  0  0  0
  187.8350  178.7490  138.0840 O   0  0  0  0  0  1  0  0  0  0  0  0
  188.1990  175.7790  135.0660 C   0  0  0  0  0  1  0  0  0  0  0  0
  190.3620  176.7470  135.4470 C   0  0  0  0  0  2  0  0  0  0  0  0
  188.3950  177.6980  137.3540 C   0  0  2  0  0  3  0  0  0  0  0  0
  189.8410  177.4660  137.7860 C   0  0  1  0  0  3  0  0  0  0  0  0
  188.3460  178.0390  135.8620 C   0  0  0  0  0  2  0  0  0  0  0  0
  1  9  1  0  0  0  0
  2  3  1  0  0  0  0
  2  5  1  0  0  0  0
  3  7  1  0  0  0  0
  5 14  2  0  0  0  0
  6  1  2  0  0  0  0
  7  4  1  0  0  0  0
  8 13  1  0  0  0  0
  8 12  2  0  0  0  0
 10 19  1  0  0  0  0
 11  4  2  0  0  0  0
 12 16  1  0  0  0  0
 13  2  2  0  0  0  0
 14  1  1  0  0  0  0
 15 11  1  0  0  0  0
 16  5  1  0  0  0  0
 16 17  2  0  0  0  0
 17  6  1  0  0  0  0
 18 10  2  0  0  0  0
 18 13  1  0  0  0  0
 19 20  1  0  0  0  0
 19  3  2  0  0  0  0
 20 15  2  0  0  0  0
 22 21  2  0  0  0  0
 22 23  1  0  0  0  0
 23  8  1  0  0  0  0
 24 27  1  0  0  0  0
 24 28  1  0  0  0  0
 24 31  1  0  0  0  0
 25 30  1  0  0  0  0
 28 25  1  0  0  0  0
 29 30  1  0  0  0  0
 29 26  1  1  0  0  0
 30 22  1  1  0  0  0
 31 29  1  0  0  0  0
M  END
>  <MODEL>
1

>  <REMARK>
 VINA RESULT:     -11.8      0.000      0.000
  Name = 
  2 active torsions:
  status: ('A' for Active; 'I' for Inactive)
    1  A    between atoms: C_9  and  C_22
    2  A    between atoms: C_15  and  N_23
                            x       y       z     vdW  Elec       q    Type
                         _______ _______ _______ _____ _____    ______ ____

>  <TORSDO>
F 2

$$$$
=
 OpenBabel10272400313D

 31 35  0  0  1  0  0  0  0  0999 V2000
  185.2020  178.6250  145.0220 C   0  0  0  0  0  0  0  0  0  0  0  0
  188.6000  177.5590  143.7820 C   0  0  0  0  0  0  0  0  0  0  0  0
  189.4410  177.4630  144.9430 C   0  0  0  0  0  0  0  0  0  0  0  0
  188.9320  176.8620  147.2870 C   0  0  0  0  0  3  0  0  0  0  0  0
  187.2240  177.9550  143.8190 C   0  0  0  0  0  0  0  0  0  0  0  0
  184.5010  178.7250  143.8220 C   0  0  0  0  0  3  0  0  0  0  0  0
  189.0010  177.9640  146.2860 C   0  0  0  0  0  2  0  0  0  0  0  0
  188.4180  177.3580  141.3250 C   0  0  0  0  0  0  0  0  0  0  0  0
  184.5810  178.9010  146.1920 F   0  0  0  0  0  0  0  0  0  0  0  0
  191.2900  176.7180  143.5550 C   0  0  0  0  0  3  0  0  0  0  0  0
  190.0180  176.2220  147.7140 C   0  0  0  0  0  3  0  0  0  0  0  0
  187.0870  177.7600  141.3930 C   0  0  0  0  0  3  0  0  0  0  0  0
  189.1720  177.2510  142.5100 C   0  0  0  0  0  0  0  0  0  0  0  0
  186.5440  178.2420  145.0160 C   0  0  0  0  0  3  0  0  0  0  0  0
  191.3790  176.4590  147.2020 C   0  0  0  0  0  3  0  0  0  0  0  0
  186.4870  178.0510  142.6090 C   0  0  0  0  0  0  0  0  0  0  0  0
  185.1430  178.4370  142.6180 C   0  0  0  0  0  3  0  0  0  0  0  0
  190.5050  176.8430  142.4210 C   0  0  0  0  0  3  0  0  0  0  0  0
  190.7740  177.0030  144.8140 C   0  0  0  0  0  0  0  0  0  0  0  0
  191.7000  176.8070  145.9510 C   0  0  0  0  0  3  0  0  0  0  0  0
  188.9660  179.2070  139.0840 O   0  0  0  0  0  0  0  0  0  0  0  0
  189.3250  178.0010  139.0050 C   0  0  0  0  0  0  0  0  0  0  0  0
  189.0360  177.0710  140.0570 N   0  0  0  0  0  2  0  0  0  0  0  0
  191.1400  175.4060  136.0750 N   0  0  0  0  0  0  0  0  0  0  0  0
  191.2690  176.6880  138.2140 C   0  0  0  0  0  2  0  0  0  0  0  0
  188.0750  177.4460  136.4460 O   0  0  0  0  0  1  0  0  0  0  0  0
  190.7490  174.1530  136.7130 C   0  0  0  0  0  1  0  0  0  0  0  0
  192.0080  176.1800  136.9740 C   0  0  0  0  0  2  0  0  0  0  0  0
  189.1520  176.6780  136.8950 C   0  0  2  0  0  3  0  0  0  0  0  0
  190.0570  177.5130  137.7970 C   0  0  1  0  0  3  0  0  0  0  0  0
  189.9460  176.1700  135.6880 C   0  0  0  0  0  2  0  0  0  0  0  0
  1  9  1  0  0  0  0
  2  5  1  0  0  0  0
  2  3  1  0  0  0  0
  3  7  1  0  0  0  0
  4 11  2  0  0  0  0
  5 14  2  0  0  0  0
  6  1  2  0  0  0  0
  7  4  1  0  0  0  0
  8 12  2  0  0  0  0
  8 13  1  0  0  0  0
 10 19  1  0  0  0  0
 12 16  1  0  0  0  0
 13  2  2  0  0  0  0
 14  1  1  0  0  0  0
 15 11  1  0  0  0  0
 16 17  2  0  0  0  0
 16  5  1  0  0  0  0
 17  6  1  0  0  0  0
 18 13  1  0  0  0  0
 18 10  2  0  0  0  0
 19  3  2  0  0  0  0
 19 20  1  0  0  0  0
 20 15  2  0  0  0  0
 22 21  2  0  0  0  0
 22 23  1  0  0  0  0
 23  8  1  0  0  0  0
 24 27  1  0  0  0  0
 24 28  1  0  0  0  0
 28 25  1  0  0  0  0
 29 26  1  6  0  0  0
 29 30  1  0  0  0  0
 30 25  1  0  0  0  0
 30 22  1  1  0  0  0
 31 24  1  0  0  0  0
 31 29  1  0  0  0  0
M  END
>  <MODEL>
2

>  <REMARK>
 VINA RESULT:     -11.4      1.766      4.228
  Name = 
  2 active torsions:
  status: ('A' for Active; 'I' for Inactive)
    1  A    between atoms: C_9  and  C_22
    2  A    between atoms: C_15  and  N_23
                            x       y       z     vdW  Elec       q    Type
                         _______ _______ _______ _____ _____    ______ ____

>  <TORSDO>
F 2

$$$$
=
 OpenBabel10272400313D

 31 35  0  0  1  0  0  0  0  0999 V2000
  185.0790  178.4330  146.3410 C   0  0  0  0  0  0  0  0  0  0  0  0
  188.1080  177.8120  144.1840 C   0  0  0  0  0  0  0  0  0  0  0  0
  189.2120  177.6240  145.0830 C   0  0  0  0  0  0  0  0  0  0  0  0
  189.3220  176.6710  147.3630 C   0  0  0  0  0  3  0  0  0  0  0  0
  186.7680  178.0920  144.6050 C   0  0  0  0  0  0  0  0  0  0  0  0
  184.1010  178.6420  145.3710 C   0  0  0  0  0  3  0  0  0  0  0  0
  189.0960  177.9010  146.5520 C   0  0  0  0  0  2  0  0  0  0  0  0
  187.3360  177.9360  141.8380 C   0  0  0  0  0  0  0  0  0  0  0  0
  184.7540  178.4980  147.6530 F   0  0  0  0  0  0  0  0  0  0  0  0
  190.6930  177.2200  143.2000 C   0  0  0  0  0  3  0  0  0  0  0  0
  190.5050  176.0630  147.4180 C   0  0  0  0  0  3  0  0  0  0  0  0
  186.0470  178.2210  142.2810 C   0  0  0  0  0  3  0  0  0  0  0  0
  188.3620  177.7260  142.7810 C   0  0  0  0  0  0  0  0  0  0  0  0
  186.3930  178.1590  145.9590 C   0  0  0  0  0  3  0  0  0  0  0  0
  191.6870  176.4730  146.6390 C   0  0  0  0  0  3  0  0  0  0  0  0
  185.7540  178.2960  143.6340 C   0  0  0  0  0  0  0  0  0  0  0  0
  184.4380  178.5720  144.0200 C   0  0  0  0  0  3  0  0  0  0  0  0
  189.6480  177.4380  142.3170 C   0  0  0  0  0  3  0  0  0  0  0  0
  190.4900  177.2890  144.5730 C   0  0  0  0  0  0  0  0  0  0  0  0
  191.6760  177.0120  145.4150 C   0  0  0  0  0  3  0  0  0  0  0  0
  185.6500  178.7790  139.5610 O   0  0  0  0  0  0  0  0  0  0  0  0
  186.8090  178.3300  139.3520 C   0  0  0  0  0  0  0  0  0  0  0  0
  187.6340  177.8730  140.4320 N   0  0  0  0  0  2  0  0  0  0  0  0
  189.0380  177.0900  135.8710 N   0  0  0  0  0  0  0  0  0  0  0  0
  188.8580  178.4370  137.9670 C   0  0  0  0  0  2  0  0  0  0  0  0
  185.6030  176.7830  137.2130 O   0  0  0  0  0  1  0  0  0  0  0  0
  189.7140  175.9670  136.5120 C   0  0  0  0  0  1  0  0  0  0  0  0
  189.4040  178.3470  136.5400 C   0  0  0  0  0  2  0  0  0  0  0  0
  186.9900  176.9280  137.2930 C   0  0  2  0  0  3  0  0  0  0  0  0
  187.3460  178.2560  137.9590 C   0  0  1  0  0  3  0  0  0  0  0  0
  187.5840  176.8770  135.8830 C   0  0  0  0  0  2  0  0  0  0  0  0
  1  9  1  0  0  0  0
  2  5  1  0  0  0  0
  2  3  1  0  0  0  0
  3  7  1  0  0  0  0
  4 11  2  0  0  0  0
  5 14  2  0  0  0  0
  6  1  2  0  0  0  0
  7  4  1  0  0  0  0
  8 12  2  0  0  0  0
  8 13  1  0  0  0  0
 10 19  1  0  0  0  0
 12 16  1  0  0  0  0
 13  2  2  0  0  0  0
 14  1  1  0  0  0  0
 15 11  1  0  0  0  0
 16 17  2  0  0  0  0
 16  5  1  0  0  0  0
 17  6  1  0  0  0  0
 18 13  1  0  0  0  0
 18 10  2  0  0  0  0
 19  3  2  0  0  0  0
 19 20  1  0  0  0  0
 20 15  2  0  0  0  0
 22 21  2  0  0  0  0
 22 23  1  0  0  0  0
 23  8  1  0  0  0  0
 24 31  1  0  0  0  0
 24 27  1  0  0  0  0
 24 28  1  0  0  0  0
 28 25  1  0  0  0  0
 29 26  1  6  0  0  0
 29 30  1  0  0  0  0
 30 25  1  0  0  0  0
 30 22  1  1  0  0  0
 31 29  1  0  0  0  0
M  END
>  <MODEL>
3

>  <REMARK>
 VINA RESULT:     -11.3      1.784      4.359
  Name = 
  2 active torsions:
  status: ('A' for Active; 'I' for Inactive)
    1  A    between atoms: C_9  and  C_22
    2  A    between atoms: C_15  and  N_23
                            x       y       z     vdW  Elec       q    Type
                         _______ _______ _______ _____ _____    ______ ____

>  <TORSDO>
F 2

$$$$
=
 OpenBabel10272400313D

 31 35  0  0  1  0  0  0  0  0999 V2000
  190.8530  176.7640  142.3950 C   0  0  0  0  0  0  0  0  0  0  0  0
  187.4980  177.9470  143.6420 C   0  0  0  0  0  0  0  0  0  0  0  0
  187.4890  177.7150  145.0600 C   0  0  0  0  0  0  0  0  0  0  0  0
  189.3100  177.7410  146.7330 C   0  0  0  0  0  3  0  0  0  0  0  0
  188.5940  177.6170  142.7810 C   0  0  0  0  0  0  0  0  0  0  0  0
  190.7240  176.9950  141.0270 C   0  0  0  0  0  3  0  0  0  0  0  0
  188.5620  176.9190  145.7410 C   0  0  0  0  0  2  0  0  0  0  0  0
  186.2590  178.7560  141.6610 C   0  0  0  0  0  0  0  0  0  0  0  0
  191.9990  176.2360  142.8870 F   0  0  0  0  0  0  0  0  0  0  0  0
  185.2720  178.6950  145.2190 C   0  0  0  0  0  3  0  0  0  0  0  0
  188.7420  178.2070  147.8430 C   0  0  0  0  0  3  0  0  0  0  0  0
  187.3360  178.4100  140.8500 C   0  0  0  0  0  3  0  0  0  0  0  0
  186.3370  178.5340  143.0500 C   0  0  0  0  0  0  0  0  0  0  0  0
  189.8010  177.0750  143.2580 C   0  0  0  0  0  3  0  0  0  0  0  0
  187.3170  178.0420  148.1790 C   0  0  0  0  0  3  0  0  0  0  0  0
  188.4890  177.8560  141.3860 C   0  0  0  0  0  0  0  0  0  0  0  0
  189.5440  177.5420  140.5240 C   0  0  0  0  0  3  0  0  0  0  0  0
  185.2460  178.8890  143.8480 C   0  0  0  0  0  3  0  0  0  0  0  0
  186.3820  178.1320  145.8380 C   0  0  0  0  0  0  0  0  0  0  0  0
  186.3020  177.9990  147.3100 C   0  0  0  0  0  3  0  0  0  0  0  0
  183.8260  177.3540  140.7350 O   0  0  0  0  0  0  0  0  0  0  0  0
  183.8800  178.6130  140.6930 C   0  0  0  0  0  0  0  0  0  0  0  0
  185.0620  179.3190  141.0940 N   0  0  0  0  0  2  0  0  0  0  0  0
  180.2270  179.7170  138.6790 N   0  0  0  0  0  0  0  0  0  0  0  0
  182.7130  179.4740  138.6870 C   0  0  0  0  0  2  0  0  0  0  0  0
  181.3390  178.7830  142.0830 O   0  0  0  0  0  1  0  0  0  0  0  0
  179.9850  178.4130  138.0710 C   0  0  0  0  0  1  0  0  0  0  0  0
  181.5010  180.2700  138.1960 C   0  0  0  0  0  2  0  0  0  0  0  0
  181.3890  178.7900  140.6870 C   0  0  2  0  0  3  0  0  0  0  0  0
  182.7050  179.3990  140.2080 C   0  0  1  0  0  3  0  0  0  0  0  0
  180.2110  179.6030  140.1430 C   0  0  0  0  0  2  0  0  0  0  0  0
  1  9  1  0  0  0  0
  1 14  1  0  0  0  0
  2  3  1  0  0  0  0
  3  7  1  0  0  0  0
  3 19  2  0  0  0  0
  4 11  2  0  0  0  0
  5 14  2  0  0  0  0
  5  2  1  0  0  0  0
  6  1  2  0  0  0  0
  7  4  1  0  0  0  0
  8 13  1  0  0  0  0
 10 19  1  0  0  0  0
 11 15  1  0  0  0  0
 12 16  1  0  0  0  0
 12  8  2  0  0  0  0
 13  2  2  0  0  0  0
 13 18  1  0  0  0  0
 16  5  1  0  0  0  0
 17  6  1  0  0  0  0
 17 16  2  0  0  0  0
 18 10  2  0  0  0  0
 19 20  1  0  0  0  0
 20 15  2  0  0  0  0
 22 21  2  0  0  0  0
 22 23  1  0  0  0  0
 23  8  1  0  0  0  0
 24 31  1  0  0  0  0
 25 30  1  0  0  0  0
 27 24  1  0  0  0  0
 28 24  1  0  0  0  0
 28 25  1  0  0  0  0
 29 26  1  1  0  0  0
 30 29  1  0  0  0  0
 30 22  1  6  0  0  0
 31 29  1  0  0  0  0
M  END
>  <MODEL>
4

>  <REMARK>
 VINA RESULT:     -10.9      3.715      5.572
  Name = 
  2 active torsions:
  status: ('A' for Active; 'I' for Inactive)
    1  A    between atoms: C_9  and  C_22
    2  A    between atoms: C_15  and  N_23
                            x       y       z     vdW  Elec       q    Type
                         _______ _______ _______ _____ _____    ______ ____

>  <TORSDO>
F 2

$$$$
=
 OpenBabel10272400313D

 31 35  0  0  1  0  0  0  0  0999 V2000
  188.5440  177.4080  147.7350 C   0  0  0  0  0  0  0  0  0  0  0  0
  187.4320  177.8930  144.1650 C   0  0  0  0  0  0  0  0  0  0  0  0
  185.9980  177.9790  144.1970 C   0  0  0  0  0  0  0  0  0  0  0  0
  184.4490  178.8500  145.9170 C   0  0  0  0  0  3  0  0  0  0  0  0
  188.2500  177.6900  145.3230 C   0  0  0  0  0  0  0  0  0  0  0  0
  189.9230  177.2960  147.5710 C   0  0  0  0  0  3  0  0  0  0  0  0
  185.2120  177.6640  145.4340 C   0  0  0  0  0  2  0  0  0  0  0  0
  189.4840  177.8950  142.7860 C   0  0  0  0  0  0  0  0  0  0  0  0
  188.0010  177.3230  148.9720 F   0  0  0  0  0  0  0  0  0  0  0  0
  185.9550  178.3420  141.7950 C   0  0  0  0  0  3  0  0  0  0  0  0
  183.4400  179.3740  145.2260 C   0  0  0  0  0  3  0  0  0  0  0  0
  190.2490  177.6840  143.9290 C   0  0  0  0  0  3  0  0  0  0  0  0
  188.0840  178.0070  142.8990 C   0  0  0  0  0  0  0  0  0  0  0  0
  187.7220  177.6050  146.6240 C   0  0  0  0  0  3  0  0  0  0  0  0
  183.0150  178.9120  143.8930 C   0  0  0  0  0  3  0  0  0  0  0  0
  189.6580  177.5850  145.1800 C   0  0  0  0  0  0  0  0  0  0  0  0
  190.4790  177.3860  146.2950 C   0  0  0  0  0  3  0  0  0  0  0  0
  187.3340  178.2220  141.7400 C   0  0  0  0  0  3  0  0  0  0  0  0
  185.2790  178.2430  143.0060 C   0  0  0  0  0  0  0  0  0  0  0  0
  183.8110  178.4140  142.9410 C   0  0  0  0  0  3  0  0  0  0  0  0
  190.7330  175.7390  141.1950 O   0  0  0  0  0  0  0  0  0  0  0  0
  190.6660  176.9070  140.7260 C   0  0  0  0  0  0  0  0  0  0  0  0
  190.1050  177.9830  141.4910 N   0  0  0  0  0  2  0  0  0  0  0  0
  192.2150  176.4020  136.7310 N   0  0  0  0  0  0  0  0  0  0  0  0
  192.5870  176.6250  139.1910 C   0  0  0  0  0  2  0  0  0  0  0  0
  188.9950  177.1970  138.3720 O   0  0  0  0  0  1  0  0  0  0  0  0
  192.2100  174.9430  136.7460 C   0  0  0  0  0  1  0  0  0  0  0  0
  193.1080  176.9130  137.7800 C   0  0  0  0  0  2  0  0  0  0  0  0
  190.2660  176.6250  138.2780 C   0  0  2  0  0  3  0  0  0  0  0  0
  191.1850  177.1970  139.3550 C   0  0  1  0  0  3  0  0  0  0  0  0
  190.8480  176.9130  136.8910 C   0  0  0  0  0  2  0  0  0  0  0  0
  1  9  1  0  0  0  0
  2  3  1  0  0  0  0
  2  5  1  0  0  0  0
  3  7  1  0  0  0  0
  5 14  1  0  0  0  0
  6  1  1  0  0  0  0
  7  4  1  0  0  0  0
  8 13  1  0  0  0  0
  8 12  2  0  0  0  0
 10 19  1  0  0  0  0
 11  4  2  0  0  0  0
 12 16  1  0  0  0  0
 13  2  2  0  0  0  0
 14  1  2  0  0  0  0
 15 11  1  0  0  0  0
 16  5  2  0  0  0  0
 16 17  1  0  0  0  0
 17  6  2  0  0  0  0
 18 10  2  0  0  0  0
 18 13  1  0  0  0  0
 19  3  2  0  0  0  0
 20 19  1  0  0  0  0
 20 15  2  0  0  0  0
 22 21  2  0  0  0  0
 22 23  1  0  0  0  0
 23  8  1  0  0  0  0
 24 27  1  0  0  0  0
 24 31  1  0  0  0  0
 24 28  1  0  0  0  0
 25 30  1  0  0  0  0
 28 25  1  0  0  0  0
 29 26  1  6  0  0  0
 29 30  1  0  0  0  0
 30 22  1  1  0  0  0
 31 29  1  0  0  0  0
M  END
>  <MODEL>
5

>  <REMARK>
 VINA RESULT:     -10.8      1.587      2.079
  Name = 
  2 active torsions:
  status: ('A' for Active; 'I' for Inactive)
    1  A    between atoms: C_9  and  C_22
    2  A    between atoms: C_15  and  N_23
                            x       y       z     vdW  Elec       q    Type
                         _______ _______ _______ _____ _____    ______ ____

>  <TORSDO>
F 2

$$$$
=
 OpenBabel10272400313D

 31 35  0  0  1  0  0  0  0  0999 V2000
  186.3480  178.1110  146.8110 C   0  0  0  0  0  0  0  0  0  0  0  0
  187.3370  178.1950  143.1740 C   0  0  0  0  0  0  0  0  0  0  0  0
  188.7540  177.9620  143.1350 C   0  0  0  0  0  0  0  0  0  0  0  0
  190.2340  176.6350  144.6060 C   0  0  0  0  0  3  0  0  0  0  0  0
  186.5660  178.2580  144.3790 C   0  0  0  0  0  0  0  0  0  0  0  0
  184.9850  178.3890  146.7220 C   0  0  0  0  0  3  0  0  0  0  0  0
  189.5920  177.9600  144.3790 C   0  0  0  0  0  2  0  0  0  0  0  0
  185.2710  178.6560  141.8960 C   0  0  0  0  0  0  0  0  0  0  0  0
  186.9180  177.9070  148.0210 F   0  0  0  0  0  0  0  0  0  0  0  0
  188.7160  178.0530  140.7080 C   0  0  0  0  0  3  0  0  0  0  0  0
  191.1700  176.1500  143.7930 C   0  0  0  0  0  3  0  0  0  0  0  0
  184.5530  178.7250  143.0860 C   0  0  0  0  0  3  0  0  0  0  0  0
  186.6530  178.3860  141.9340 C   0  0  0  0  0  0  0  0  0  0  0  0
  187.1230  178.0440  145.6530 C   0  0  0  0  0  3  0  0  0  0  0  0
  191.6170  176.8100  142.5530 C   0  0  0  0  0  3  0  0  0  0  0  0
  185.1740  178.5270  144.3110 C   0  0  0  0  0  0  0  0  0  0  0  0
  184.4000  178.5950  145.4730 C   0  0  0  0  0  3  0  0  0  0  0  0
  187.3560  178.3180  140.7280 C   0  0  0  0  0  3  0  0  0  0  0  0
  189.4190  177.8560  141.8900 C   0  0  0  0  0  0  0  0  0  0  0  0
  190.8610  177.5550  141.7400 C   0  0  0  0  0  3  0  0  0  0  0  0
  183.2210  176.9910  140.5670 O   0  0  0  0  0  0  0  0  0  0  0  0
  183.5980  178.0690  140.0320 C   0  0  0  0  0  0  0  0  0  0  0  0
  184.6210  178.8760  140.6310 N   0  0  0  0  0  2  0  0  0  0  0  0
  181.0760  178.2930  136.5390 N   0  0  0  0  0  0  0  0  0  0  0  0
  183.1240  177.4400  137.6860 C   0  0  0  0  0  2  0  0  0  0  0  0
  181.3790  179.9290  139.8440 O   0  0  0  0  0  1  0  0  0  0  0  0
  180.2680  177.1200  136.8550 C   0  0  0  0  0  1  0  0  0  0  0  0
  182.4840  177.9060  136.3760 C   0  0  0  0  0  2  0  0  0  0  0  0
  181.5130  178.8850  138.9270 C   0  0  2  0  0  3  0  0  0  0  0  0
  182.9860  178.5240  138.7470 C   0  0  1  0  0  3  0  0  0  0  0  0
  180.9150  179.3130  137.5840 C   0  0  0  0  0  2  0  0  0  0  0  0
  1  9  1  0  0  0  0
  2  5  1  0  0  0  0
  3  2  1  0  0  0  0
  3  7  1  0  0  0  0
  5 14  1  0  0  0  0
  6  1  1  0  0  0  0
  7  4  1  0  0  0  0
  8 13  1  0  0  0  0
  8 12  2  0  0  0  0
 10 18  2  0  0  0  0
 10 19  1  0  0  0  0
 11  4  2  0  0  0  0
 12 16  1  0  0  0  0
 13  2  2  0  0  0  0
 14  1  2  0  0  0  0
 15 11  1  0  0  0  0
 16  5  2  0  0  0  0
 16 17  1  0  0  0  0
 17  6  2  0  0  0  0
 18 13  1  0  0  0  0
 19  3  2  0  0  0  0
 20 19  1  0  0  0  0
 20 15  2  0  0  0  0
 22 21  2  0  0  0  0
 22 23  1  0  0  0  0
 23  8  1  0  0  0  0
 24 27  1  0  0  0  0
 24 31  1  0  0  0  0
 25 30  1  0  0  0  0
 28 24  1  0  0  0  0
 28 25  1  0  0  0  0
 29 26  1  1  0  0  0
 30 29  1  0  0  0  0
 30 22  1  1  0  0  0
 31 29  1  0  0  0  0
M  END
>  <MODEL>
6

>  <REMARK>
 VINA RESULT:     -10.4      3.673      5.857
  Name = 
  2 active torsions:
  status: ('A' for Active; 'I' for Inactive)
    1  A    between atoms: C_9  and  C_22
    2  A    between atoms: C_15  and  N_23
                            x       y       z     vdW  Elec       q    Type
                         _______ _______ _______ _____ _____    ______ ____

>  <TORSDO>
F 2

$$$$
=
 OpenBabel10272400313D

 31 35  0  0  1  0  0  0  0  0999 V2000
  186.6830  178.0190  146.8190 C   0  0  0  0  0  0  0  0  0  0  0  0
  186.7890  178.2680  143.0590 C   0  0  0  0  0  0  0  0  0  0  0  0
  188.1520  178.0240  142.6760 C   0  0  0  0  0  0  0  0  0  0  0  0
  189.9100  176.6150  143.6950 C   0  0  0  0  0  3  0  0  0  0  0  0
  186.3250  178.2800  144.4140 C   0  0  0  0  0  0  0  0  0  0  0  0
  185.3440  178.3140  147.0670 C   0  0  0  0  0  3  0  0  0  0  0  0
  189.2590  177.9550  143.6850 C   0  0  0  0  0  2  0  0  0  0  0  0
  184.4890  178.8070  142.3270 C   0  0  0  0  0  0  0  0  0  0  0  0
  187.5190  177.7540  147.8500 F   0  0  0  0  0  0  0  0  0  0  0  0
  187.5440  178.2310  140.3330 C   0  0  0  0  0  3  0  0  0  0  0  0
  190.6190  176.1620  142.6630 C   0  0  0  0  0  3  0  0  0  0  0  0
  184.0740  178.8260  143.6560 C   0  0  0  0  0  3  0  0  0  0  0  0
  185.8360  178.5230  142.0260 C   0  0  0  0  0  0  0  0  0  0  0  0
  187.1630  178.0010  145.5090 C   0  0  0  0  0  3  0  0  0  0  0  0
  190.7740  176.8750  141.3830 C   0  0  0  0  0  3  0  0  0  0  0  0
  184.9620  178.5650  144.6880 C   0  0  0  0  0  0  0  0  0  0  0  0
  184.4850  178.5840  146.0030 C   0  0  0  0  0  3  0  0  0  0  0  0
  186.2330  178.5060  140.6860 C   0  0  0  0  0  3  0  0  0  0  0  0
  188.5030  177.9710  141.3060 C   0  0  0  0  0  0  0  0  0  0  0  0
  189.8610  177.6640  140.8060 C   0  0  0  0  0  3  0  0  0  0  0  0
  182.9800  176.9040  140.6420 O   0  0  0  0  0  0  0  0  0  0  0  0
  182.8150  178.1440  140.4900 C   0  0  0  0  0  0  0  0  0  0  0  0
  183.5640  179.0920  141.2630 N   0  0  0  0  0  2  0  0  0  0  0  0
  180.6570  180.7540  137.8170 N   0  0  0  0  0  0  0  0  0  0  0  0
  180.9980  179.7770  140.0900 C   0  0  0  0  0  2  0  0  0  0  0  0
  183.2420  178.1140  137.6210 O   0  0  0  0  0  1  0  0  0  0  0  0
  181.4590  181.9440  138.0800 C   0  0  0  0  0  1  0  0  0  0  0  0
  180.0020  180.3040  139.0530 C   0  0  0  0  0  2  0  0  0  0  0  0
  182.5320  179.1540  138.2240 C   0  0  2  0  0  3  0  0  0  0  0  0
  181.8320  178.6540  139.4860 C   0  0  1  0  0  3  0  0  0  0  0  0
  181.4970  179.6980  137.2360 C   0  0  0  0  0  2  0  0  0  0  0  0
  1  6  1  0  0  0  0
  1  9  1  0  0  0  0
  2  5  1  0  0  0  0
  3  2  1  0  0  0  0
  3  7  1  0  0  0  0
  5 16  2  0  0  0  0
  5 14  1  0  0  0  0
  7  4  1  0  0  0  0
  8 12  2  0  0  0  0
 10 18  2  0  0  0  0
 10 19  1  0  0  0  0
 11  4  2  0  0  0  0
 12 16  1  0  0  0  0
 13  8  1  0  0  0  0
 13  2  2  0  0  0  0
 14  1  2  0  0  0  0
 15 11  1  0  0  0  0
 16 17  1  0  0  0  0
 17  6  2  0  0  0  0
 18 13  1  0  0  0  0
 19  3  2  0  0  0  0
 20 19  1  0  0  0  0
 20 15  2  0  0  0  0
 22 21  2  0  0  0  0
 22 23  1  0  0  0  0
 23  8  1  0  0  0  0
 24 27  1  0  0  0  0
 24 28  1  0  0  0  0
 28 25  1  0  0  0  0
 29 26  1  6  0  0  0
 29 30  1  0  0  0  0
 30 25  1  0  0  0  0
 30 22  1  1  0  0  0
 31 24  1  0  0  0  0
 31 29  1  0  0  0  0
M  END
>  <MODEL>
7

>  <REMARK>
 VINA RESULT:     -10.3      3.741      6.302
  Name = 
  2 active torsions:
  status: ('A' for Active; 'I' for Inactive)
    1  A    between atoms: C_9  and  C_22
    2  A    between atoms: C_15  and  N_23
                            x       y       z     vdW  Elec       q    Type
                         _______ _______ _______ _____ _____    ______ ____

>  <TORSDO>
F 2

$$$$
=
 OpenBabel10272400313D

 31 35  0  0  1  0  0  0  0  0999 V2000
  191.1590  177.2180  142.0240 C   0  0  0  0  0  0  0  0  0  0  0  0
  187.6020  177.8410  143.1090 C   0  0  0  0  0  0  0  0  0  0  0  0
  187.5720  177.6360  144.5310 C   0  0  0  0  0  0  0  0  0  0  0  0
  189.2900  177.9980  146.2720 C   0  0  0  0  0  3  0  0  0  0  0  0
  188.7740  177.6850  142.3000 C   0  0  0  0  0  0  0  0  0  0  0  0
  191.0520  177.4000  140.6470 C   0  0  0  0  0  3  0  0  0  0  0  0
  188.7330  177.0440  145.2720 C   0  0  0  0  0  2  0  0  0  0  0  0
  186.3310  178.3940  141.0620 C   0  0  0  0  0  0  0  0  0  0  0  0
  192.3540  176.8990  142.5730 F   0  0  0  0  0  0  0  0  0  0  0  0
  185.2170  178.2310  144.5790 C   0  0  0  0  0  3  0  0  0  0  0  0
  188.6050  178.3810  147.3470 C   0  0  0  0  0  3  0  0  0  0  0  0
  187.4850  178.2210  140.3020 C   0  0  0  0  0  3  0  0  0  0  0  0
  186.3860  178.2130  142.4580 C   0  0  0  0  0  0  0  0  0  0  0  0
  190.0330  177.3620  142.8370 C   0  0  0  0  0  3  0  0  0  0  0  0
  187.2140  177.9840  147.6320 C   0  0  0  0  0  3  0  0  0  0  0  0
  188.6900  177.8780  140.8970 C   0  0  0  0  0  0  0  0  0  0  0  0
  189.8190  177.7310  140.0850 C   0  0  0  0  0  3  0  0  0  0  0  0
  185.2180  178.3940  143.2030 C   0  0  0  0  0  3  0  0  0  0  0  0
  186.3780  177.8740  145.2540 C   0  0  0  0  0  0  0  0  0  0  0  0
  186.2590  177.7560  146.7240 C   0  0  0  0  0  3  0  0  0  0  0  0
  185.7090  178.5750  138.1770 O   0  0  0  0  0  0  0  0  0  0  0  0
  184.8010  178.7760  139.0290 C   0  0  0  0  0  0  0  0  0  0  0  0
  185.0820  178.7370  140.4350 N   0  0  0  0  0  2  0  0  0  0  0  0
  180.5700  179.6190  139.0740 N   0  0  0  0  0  0  0  0  0  0  0  0
  182.4570  177.9830  139.0740 C   0  0  0  0  0  2  0  0  0  0  0  0
  183.7520  181.4450  138.5890 O   0  0  0  0  0  1  0  0  0  0  0  0
  180.4300  179.6360  140.5260 C   0  0  0  0  0  1  0  0  0  0  0  0
  181.0270  178.2960  138.6260 C   0  0  0  0  0  2  0  0  0  0  0  0
  182.9330  180.4320  139.0910 C   0  0  2  0  0  3  0  0  0  0  0  0
  183.4050  179.0700  138.5850 C   0  0  1  0  0  3  0  0  0  0  0  0
  181.4900  180.6810  138.6430 C   0  0  0  0  0  2  0  0  0  0  0  0
  1  9  1  0  0  0  0
  1 14  1  0  0  0  0
  2  3  1  0  0  0  0
  3 19  2  0  0  0  0
  3  7  1  0  0  0  0
  4 11  2  0  0  0  0
  5 14  2  0  0  0  0
  5  2  1  0  0  0  0
  6  1  2  0  0  0  0
  7  4  1  0  0  0  0
  8 13  1  0  0  0  0
 10 19  1  0  0  0  0
 11 15  1  0  0  0  0
 12 16  1  0  0  0  0
 12  8  2  0  0  0  0
 13  2  2  0  0  0  0
 13 18  1  0  0  0  0
 16  5  1  0  0  0  0
 17  6  1  0  0  0  0
 17 16  2  0  0  0  0
 18 10  2  0  0  0  0
 19 20  1  0  0  0  0
 20 15  2  0  0  0  0
 21 22  2  0  0  0  0
 22 23  1  0  0  0  0
 23  8  1  0  0  0  0
 24 27  1  0  0  0  0
 28 25  1  0  0  0  0
 28 24  1  0  0  0  0
 29 26  1  6  0  0  0
 30 22  1  1  0  0  0
 30 25  1  0  0  0  0
 30 29  1  0  0  0  0
 31 24  1  0  0  0  0
 31 29  1  0  0  0  0
M  END
>  <MODEL>
8

>  <REMARK>
 VINA RESULT:     -10.2      3.379      5.255
  Name = 
  2 active torsions:
  status: ('A' for Active; 'I' for Inactive)
    1  A    between atoms: C_9  and  C_22
    2  A    between atoms: C_15  and  N_23
                            x       y       z     vdW  Elec       q    Type
                         _______ _______ _______ _____ _____    ______ ____

>  <TORSDO>
F 2

$$$$
=
 OpenBabel10272400313D

 31 35  0  0  1  0  0  0  0  0999 V2000
  189.1070  177.7660  147.6210 C   0  0  0  0  0  0  0  0  0  0  0  0
  188.1150  177.9730  143.9900 C   0  0  0  0  0  0  0  0  0  0  0  0
  189.3380  177.9700  143.2360 C   0  0  0  0  0  0  0  0  0  0  0  0
  191.5290  176.9100  143.6780 C   0  0  0  0  0  3  0  0  0  0  0  0
  188.0530  177.9230  145.4200 C   0  0  0  0  0  0  0  0  0  0  0  0
  187.8600  177.8220  148.2400 C   0  0  0  0  0  3  0  0  0  0  0  0
  190.6770  178.1130  143.8960 C   0  0  0  0  0  2  0  0  0  0  0  0
  185.6460  178.0850  143.9420 C   0  0  0  0  0  0  0  0  0  0  0  0
  190.2300  177.6680  148.3700 F   0  0  0  0  0  0  0  0  0  0  0  0
  188.0750  178.0300  141.1620 C   0  0  0  0  0  3  0  0  0  0  0  0
  191.9890  176.5740  142.4750 C   0  0  0  0  0  3  0  0  0  0  0  0
  185.6210  178.0500  145.3340 C   0  0  0  0  0  3  0  0  0  0  0  0
  186.8830  178.0400  143.2700 C   0  0  0  0  0  0  0  0  0  0  0  0
  189.1980  177.8140  146.2290 C   0  0  0  0  0  3  0  0  0  0  0  0
  191.6540  177.2850  141.2280 C   0  0  0  0  0  3  0  0  0  0  0  0
  186.7930  177.9660  146.0710 C   0  0  0  0  0  0  0  0  0  0  0  0
  186.7050  177.9200  147.4660 C   0  0  0  0  0  3  0  0  0  0  0  0
  186.8870  178.0750  141.8730 C   0  0  0  0  0  3  0  0  0  0  0  0
  189.2970  177.9590  141.8210 C   0  0  0  0  0  0  0  0  0  0  0  0
  190.4940  177.8910  140.9540 C   0  0  0  0  0  3  0  0  0  0  0  0
  183.3640  179.9160  144.3680 O   0  0  0  0  0  0  0  0  0  0  0  0
  183.3530  179.1150  143.3950 C   0  0  0  0  0  0  0  0  0  0  0  0
  184.4250  178.1860  143.1870 N   0  0  0  0  0  2  0  0  0  0  0  0
  180.4700  177.8490  140.4460 N   0  0  0  0  0  0  0  0  0  0  0  0
  182.7000  178.8110  141.0270 C   0  0  0  0  0  2  0  0  0  0  0  0
  180.6300  178.4040  144.1010 O   0  0  0  0  0  1  0  0  0  0  0  0
  180.9610  176.4800  140.3260 C   0  0  0  0  0  1  0  0  0  0  0  0
  181.5200  178.7980  140.0510 C   0  0  0  0  0  2  0  0  0  0  0  0
  181.1430  178.0940  142.8390 C   0  0  2  0  0  3  0  0  0  0  0  0
  182.2070  179.1130  142.4360 C   0  0  1  0  0  3  0  0  0  0  0  0
  180.0040  178.0990  141.8160 C   0  0  0  0  0  2  0  0  0  0  0  0
  1  6  1  0  0  0  0
  1  9  1  0  0  0  0
  2  5  1  0  0  0  0
  3  7  1  0  0  0  0
  3  2  1  0  0  0  0
  4  7  1  0  0  0  0
  5 16  2  0  0  0  0
  5 14  1  0  0  0  0
  8 12  2  0  0  0  0
 10 19  1  0  0  0  0
 10 18  2  0  0  0  0
 11  4  2  0  0  0  0
 12 16  1  0  0  0  0
 13  8  1  0  0  0  0
 13  2  2  0  0  0  0
 14  1  2  0  0  0  0
 15 11  1  0  0  0  0
 16 17  1  0  0  0  0
 17  6  2  0  0  0  0
 18 13  1  0  0  0  0
 19  3  2  0  0  0  0
 20 15  2  0  0  0  0
 20 19  1  0  0  0  0
 22 21  2  0  0  0  0
 23 22  1  0  0  0  0
 23  8  1  0  0  0  0
 24 31  1  0  0  0  0
 25 30  1  0  0  0  0
 27 24  1  0  0  0  0
 28 24  1  0  0  0  0
 28 25  1  0  0  0  0
 29 26  1  1  0  0  0
 30 29  1  0  0  0  0
 30 22  1  1  0  0  0
 31 29  1  0  0  0  0
M  END
>  <MODEL>
9

>  <REMARK>
 VINA RESULT:     -10.1      3.809      6.594
  Name = 
  2 active torsions:
  status: ('A' for Active; 'I' for Inactive)
    1  A    between atoms: C_9  and  C_22
    2  A    between atoms: C_15  and  N_23
                            x       y       z     vdW  Elec       q    Type
                         _______ _______ _______ _____ _____    ______ ____

>  <TORSDO>
F 2

$$$$
