=
 OpenBabel10272401523D

 28 32  0  0  1  0  0  0  0  0999 V2000
  190.1980  177.6990  142.0280 C   0  0  2  0  0  3  0  0  0  0  0  0
  184.9800  178.2150  142.6080 C   0  0  0  0  0  2  0  0  0  0  0  0
  189.3100  176.5250  146.1440 N   0  0  0  0  0  1  0  0  0  0  0  0
  184.9210  179.1270  144.9260 C   0  0  1  0  0  3  0  0  0  0  0  0
  186.9660  177.8880  144.1720 C   0  0  0  0  0  0  0  0  0  0  0  0
  182.7790  178.8740  143.6000 C   0  0  0  0  0  0  0  0  0  0  0  0
  185.4600  177.9890  144.0410 C   0  0  2  0  0  3  0  0  0  0  0  0
  186.5580  178.0480  146.5950 C   0  0  0  0  0  2  0  0  0  0  0  0
  183.3950  179.0900  144.9620 C   0  0  0  0  0  2  0  0  0  0  0  0
  189.7880  178.2290  144.4380 C   0  0  1  0  0  3  0  0  0  0  0  0
  187.8490  177.8960  142.9390 C   0  0  0  0  0  2  0  0  0  0  0  0
  185.4910  179.1250  146.3580 C   0  0  0  0  0  2  0  0  0  0  0  0
  192.1060  177.6980  143.6880 C   0  0  0  0  0  3  0  0  0  0  0  0
  188.9780  177.8660  145.6850 C   0  0  1  0  0  3  0  0  0  0  0  0
  191.2760  178.1110  144.6560 C   0  0  0  0  0  3  0  0  0  0  0  0
  181.0430  179.0490  143.4270 Cl  0  0  0  0  0  0  0  0  0  0  0  0
  183.4860  178.4060  142.5570 C   0  0  0  0  0  3  0  0  0  0  0  0
  187.4930  177.9520  145.4210 C   0  0  0  0  0  0  0  0  0  0  0  0
  191.6120  177.2130  142.3490 C   0  0  0  0  0  2  0  0  0  0  0  0
  189.2810  177.4430  143.2270 C   0  0  1  0  0  3  0  0  0  0  0  0
  189.7000  176.9600  140.7860 C   0  0  0  0  0  2  0  0  0  0  0  0
  190.0930  177.6580  139.4840 C   0  0  2  0  0  3  0  0  0  0  0  0
  189.8610  177.2390  137.1190 N   0  0  0  0  0  0  0  0  0  0  0  0
  189.0000  178.5500  138.9620 C   0  0  0  0  0  2  0  0  0  0  0  0
  191.8630  176.4300  138.2500 C   0  0  0  0  0  1  0  0  0  0  0  0
  190.3710  176.6750  138.3660 C   0  0  1  0  0  3  0  0  0  0  0  0
  188.8850  176.2970  136.5970 C   0  0  0  0  0  1  0  0  0  0  0  0
  189.1350  178.4620  137.4570 C   0  0  0  0  0  2  0  0  0  0  0  0
  1 21  1  6  0  0  0
  1 19  1  0  0  0  0
  1 20  1  0  0  0  0
  4  9  1  1  0  0  0
  4 12  1  0  0  0  0
  5 18  2  0  0  0  0
  6  9  1  0  0  0  0
  7  2  1  6  0  0  0
  7  5  1  0  0  0  0
  7  4  1  0  0  0  0
 10 15  1  1  0  0  0
 10 14  1  0  0  0  0
 11  5  1  0  0  0  0
 12  8  1  0  0  0  0
 13 15  2  0  0  0  0
 14  3  1  6  0  0  0
 16  6  1  0  0  0  0
 17  2  1  0  0  0  0
 17  6  2  0  0  0  0
 18 14  1  0  0  0  0
 18  8  1  0  0  0  0
 19 13  1  0  0  0  0
 20 11  1  6  0  0  0
 20 10  1  0  0  0  0
 22 21  1  1  0  0  0
 23 28  1  0  0  0  0
 23 26  1  0  0  0  0
 24 22  1  0  0  0  0
 26 25  1  6  0  0  0
 26 22  1  0  0  0  0
 27 23  1  0  0  0  0
 28 24  1  0  0  0  0
M  END
>  <MODEL>
1

>  <REMARK>
 VINA RESULT:     -10.8      0.000      0.000
  Name = 
  2 active torsions:
  status: ('A' for Active; 'I' for Inactive)
    1  A    between atoms: C_1  and  C_2
    2  A    between atoms: C_2  and  C_3
                            x       y       z     vdW  Elec       q    Type
                         _______ _______ _______ _____ _____    ______ ____

>  <TORSDO>
F 2

$$$$
=
 OpenBabel10272401523D

 28 32  0  0  1  0  0  0  0  0999 V2000
  190.2720  177.2950  143.2490 C   0  0  2  0  0  3  0  0  0  0  0  0
  185.1160  178.1370  142.5140 C   0  0  0  0  0  2  0  0  0  0  0  0
  188.3320  176.3550  147.0520 N   0  0  0  0  0  1  0  0  0  0  0  0
  184.5560  179.1510  144.7200 C   0  0  1  0  0  3  0  0  0  0  0  0
  186.6360  177.7650  144.5270 C   0  0  0  0  0  0  0  0  0  0  0  0
  182.7890  178.9650  142.9160 C   0  0  0  0  0  0  0  0  0  0  0  0
  185.2170  177.9470  144.0270 C   0  0  2  0  0  3  0  0  0  0  0  0
  185.6610  178.0530  146.7700 C   0  0  0  0  0  2  0  0  0  0  0  0
  183.0680  179.2040  144.3810 C   0  0  0  0  0  2  0  0  0  0  0  0
  189.3240  177.9530  145.4680 C   0  0  1  0  0  3  0  0  0  0  0  0
  187.7910  177.6670  143.5480 C   0  0  0  0  0  2  0  0  0  0  0  0
  184.7590  179.1790  146.2480 C   0  0  0  0  0  2  0  0  0  0  0  0
  191.7140  177.2560  145.3260 C   0  0  0  0  0  3  0  0  0  0  0  0
  188.2120  177.6920  146.4880 C   0  0  1  0  0  3  0  0  0  0  0  0
  190.7030  177.7580  146.0490 C   0  0  0  0  0  3  0  0  0  0  0  0
  181.1630  179.2330  142.3170 Cl  0  0  0  0  0  0  0  0  0  0  0  0
  183.6960  178.4120  142.0930 C   0  0  0  0  0  3  0  0  0  0  0  0
  186.8460  177.8520  145.8640 C   0  0  0  0  0  0  0  0  0  0  0  0
  191.5300  176.7430  143.9210 C   0  0  0  0  0  2  0  0  0  0  0  0
  189.0750  177.1450  144.1930 C   0  0  1  0  0  3  0  0  0  0  0  0
  190.0430  176.5330  141.9440 C   0  0  0  0  0  2  0  0  0  0  0  0
  190.2710  177.3990  140.7040 C   0  0  2  0  0  3  0  0  0  0  0  0
  190.5900  177.0420  138.3400 N   0  0  0  0  0  0  0  0  0  0  0  0
  188.9850  177.7460  140.0070 C   0  0  0  0  0  2  0  0  0  0  0  0
  192.5580  177.1360  139.7750 C   0  0  0  0  0  1  0  0  0  0  0  0
  191.1110  176.6960  139.6590 C   0  0  1  0  0  3  0  0  0  0  0  0
  190.2150  175.7960  137.6920 C   0  0  0  0  0  1  0  0  0  0  0  0
  189.3590  177.8050  138.5420 C   0  0  0  0  0  2  0  0  0  0  0  0
  1 21  1  6  0  0  0
  1 19  1  0  0  0  0
  1 20  1  0  0  0  0
  4  9  1  1  0  0  0
  4 12  1  0  0  0  0
  5 18  2  0  0  0  0
  6  9  1  0  0  0  0
  7  2  1  6  0  0  0
  7  5  1  0  0  0  0
  7  4  1  0  0  0  0
 10 15  1  1  0  0  0
 10 14  1  0  0  0  0
 11  5  1  0  0  0  0
 12  8  1  0  0  0  0
 13 15  2  0  0  0  0
 14  3  1  6  0  0  0
 16  6  1  0  0  0  0
 17  2  1  0  0  0  0
 17  6  2  0  0  0  0
 18 14  1  0  0  0  0
 18  8  1  0  0  0  0
 19 13  1  0  0  0  0
 20 11  1  6  0  0  0
 20 10  1  0  0  0  0
 22 21  1  1  0  0  0
 23 28  1  0  0  0  0
 23 26  1  0  0  0  0
 24 22  1  0  0  0  0
 26 25  1  6  0  0  0
 26 22  1  0  0  0  0
 27 23  1  0  0  0  0
 28 24  1  0  0  0  0
M  END
>  <MODEL>
2

>  <REMARK>
 VINA RESULT:     -10.4      1.034      1.167
  Name = 
  2 active torsions:
  status: ('A' for Active; 'I' for Inactive)
    1  A    between atoms: C_1  and  C_2
    2  A    between atoms: C_2  and  C_3
                            x       y       z     vdW  Elec       q    Type
                         _______ _______ _______ _____ _____    ______ ____

>  <TORSDO>
F 2

$$$$
=
 OpenBabel10272401523D

 28 32  0  0  1  0  0  0  0  0999 V2000
  189.6840  177.8220  140.7880 C   0  0  2  0  0  3  0  0  0  0  0  0
  184.6390  178.3130  142.2530 C   0  0  0  0  0  2  0  0  0  0  0  0
  189.4760  176.4190  144.9230 N   0  0  0  0  0  1  0  0  0  0  0  0
  184.9750  179.0930  144.5960 C   0  0  1  0  0  3  0  0  0  0  0  0
  186.8540  177.8960  143.4450 C   0  0  0  0  0  0  0  0  0  0  0  0
  182.6400  178.9190  143.6310 C   0  0  0  0  0  0  0  0  0  0  0  0
  185.3470  178.0060  143.5720 C   0  0  2  0  0  3  0  0  0  0  0  0
  186.8540  177.9190  145.9080 C   0  0  0  0  0  2  0  0  0  0  0  0
  183.4750  179.0560  144.8820 C   0  0  0  0  0  2  0  0  0  0  0  0
  189.6840  178.2160  143.2580 C   0  0  1  0  0  3  0  0  0  0  0  0
  187.5200  177.9710  142.0850 C   0  0  0  0  0  2  0  0  0  0  0  0
  185.7740  179.0100  145.9110 C   0  0  0  0  0  2  0  0  0  0  0  0
  191.8390  177.7240  142.1070 C   0  0  0  0  0  3  0  0  0  0  0  0
  189.0870  177.7850  144.6000 C   0  0  1  0  0  3  0  0  0  0  0  0
  191.1860  178.0830  143.2200 C   0  0  0  0  0  3  0  0  0  0  0  0
  180.9020  179.1070  143.7590 Cl  0  0  0  0  0  0  0  0  0  0  0  0
  183.1600  178.5090  142.4610 C   0  0  0  0  0  3  0  0  0  0  0  0
  187.5800  177.8880  144.5910 C   0  0  0  0  0  0  0  0  0  0  0  0
  191.1260  177.3170  140.8430 C   0  0  0  0  0  2  0  0  0  0  0  0
  188.9750  177.5000  142.1070 C   0  0  1  0  0  3  0  0  0  0  0  0
  188.9790  177.1550  139.6070 C   0  0  0  0  0  2  0  0  0  0  0  0
  189.7440  177.3150  138.2930 C   0  0  2  0  0  3  0  0  0  0  0  0
  189.6770  176.3460  136.0850 N   0  0  0  0  0  0  0  0  0  0  0  0
  189.0940  178.3100  137.3720 C   0  0  0  0  0  2  0  0  0  0  0  0
  191.1280  175.3250  137.7570 C   0  0  0  0  0  1  0  0  0  0  0  0
  189.8070  176.0250  137.5040 C   0  0  1  0  0  3  0  0  0  0  0  0
  188.5120  175.6310  135.5930 C   0  0  0  0  0  1  0  0  0  0  0  0
  189.3760  177.7730  135.9850 C   0  0  0  0  0  2  0  0  0  0  0  0
  1 21  1  6  0  0  0
  1 19  1  0  0  0  0
  1 20  1  0  0  0  0
  2 17  1  0  0  0  0
  4  9  1  1  0  0  0
  4 12  1  0  0  0  0
  5  7  1  0  0  0  0
  5 18  2  0  0  0  0
  6 16  1  0  0  0  0
  6  9  1  0  0  0  0
  7  2  1  6  0  0  0
  7  4  1  0  0  0  0
  8 12  1  0  0  0  0
 10 15  1  1  0  0  0
 10 14  1  0  0  0  0
 11  5  1  0  0  0  0
 13 15  2  0  0  0  0
 14  3  1  6  0  0  0
 17  6  2  0  0  0  0
 18 14  1  0  0  0  0
 18  8  1  0  0  0  0
 19 13  1  0  0  0  0
 20 11  1  6  0  0  0
 20 10  1  0  0  0  0
 22 21  1  1  0  0  0
 23 26  1  0  0  0  0
 24 22  1  0  0  0  0
 26 25  1  6  0  0  0
 26 22  1  0  0  0  0
 27 23  1  0  0  0  0
 28 23  1  0  0  0  0
 28 24  1  0  0  0  0
M  END
>  <MODEL>
3

>  <REMARK>
 VINA RESULT:     -10.1      0.937      1.105
  Name = 
  2 active torsions:
  status: ('A' for Active; 'I' for Inactive)
    1  A    between atoms: C_1  and  C_2
    2  A    between atoms: C_2  and  C_3
                            x       y       z     vdW  Elec       q    Type
                         _______ _______ _______ _____ _____    ______ ____

>  <TORSDO>
F 2

$$$$
=
 OpenBabel10272401523D

 28 32  0  0  1  0  0  0  0  0999 V2000
  189.9090  177.3800  142.9720 C   0  0  2  0  0  3  0  0  0  0  0  0
  184.8040  178.6240  143.4520 C   0  0  0  0  0  2  0  0  0  0  0  0
  188.7580  179.2680  139.2010 N   0  0  0  0  0  1  0  0  0  0  0  0
  184.0360  178.0680  141.1470 C   0  0  1  0  0  3  0  0  0  0  0  0
  186.4780  178.4900  141.5330 C   0  0  0  0  0  0  0  0  0  0  0  0
  182.3720  178.8250  142.8990 C   0  0  0  0  0  0  0  0  0  0  0  0
  185.0720  178.8580  141.9650 C   0  0  2  0  0  3  0  0  0  0  0  0
  185.6200  178.7660  139.2410 C   0  0  0  0  0  2  0  0  0  0  0  0
  182.6300  178.5920  141.4280 C   0  0  0  0  0  2  0  0  0  0  0  0
  188.9280  177.3060  140.6720 C   0  0  1  0  0  3  0  0  0  0  0  0
  187.5090  178.0520  142.5550 C   0  0  0  0  0  2  0  0  0  0  0  0
  184.3130  178.0630  139.6310 C   0  0  0  0  0  2  0  0  0  0  0  0
  191.3830  176.9770  140.9570 C   0  0  0  0  0  3  0  0  0  0  0  0
  188.0810  178.0570  139.6420 C   0  0  1  0  0  3  0  0  0  0  0  0
  190.3060  176.9710  140.1590 C   0  0  0  0  0  3  0  0  0  0  0  0
  180.7370  179.1900  143.4150 Cl  0  0  0  0  0  0  0  0  0  0  0  0
  183.3670  178.9130  143.7980 C   0  0  0  0  0  3  0  0  0  0  0  0
  186.7240  178.4160  140.2010 C   0  0  0  0  0  0  0  0  0  0  0  0
  191.3240  177.4260  142.3940 C   0  0  0  0  0  2  0  0  0  0  0  0
  188.9350  178.0590  142.0040 C   0  0  1  0  0  3  0  0  0  0  0  0
  189.9140  178.0810  144.3300 C   0  0  0  0  0  2  0  0  0  0  0  0
  189.4160  177.1830  145.4630 C   0  0  2  0  0  3  0  0  0  0  0  0
  189.2320  177.3140  147.8650 N   0  0  0  0  0  0  0  0  0  0  0  0
  187.9740  177.4400  145.8020 C   0  0  0  0  0  2  0  0  0  0  0  0
  191.2650  176.3700  146.9070 C   0  0  0  0  0  1  0  0  0  0  0  0
  190.1740  177.4120  146.7530 C   0  0  1  0  0  3  0  0  0  0  0  0
  189.2770  178.5830  148.5720 C   0  0  0  0  0  1  0  0  0  0  0  0
  187.8920  177.1920  147.2930 C   0  0  0  0  0  2  0  0  0  0  0  0
  1 21  1  1  0  0  0
  2 17  1  0  0  0  0
  4 12  1  6  0  0  0
  4  9  1  0  0  0  0
  4  7  1  0  0  0  0
  5  7  1  0  0  0  0
  5 11  1  0  0  0  0
  6 16  1  0  0  0  0
  6 17  2  0  0  0  0
  7  2  1  1  0  0  0
  8 12  1  0  0  0  0
  8 18  1  0  0  0  0
  9  6  1  0  0  0  0
 10 15  1  6  0  0  0
 10 20  1  0  0  0  0
 13 19  1  0  0  0  0
 14  3  1  1  0  0  0
 14 18  1  0  0  0  0
 14 10  1  0  0  0  0
 15 13  2  0  0  0  0
 18  5  2  0  0  0  0
 19  1  1  0  0  0  0
 20 11  1  1  0  0  0
 20  1  1  0  0  0  0
 22 21  1  6  0  0  0
 22 24  1  0  0  0  0
 22 26  1  0  0  0  0
 23 27  1  0  0  0  0
 24 28  1  0  0  0  0
 26 25  1  1  0  0  0
 26 23  1  0  0  0  0
 28 23  1  0  0  0  0
M  END
>  <MODEL>
4

>  <REMARK>
 VINA RESULT:      -9.8      1.728      5.766
  Name = 
  2 active torsions:
  status: ('A' for Active; 'I' for Inactive)
    1  A    between atoms: C_1  and  C_2
    2  A    between atoms: C_2  and  C_3
                            x       y       z     vdW  Elec       q    Type
                         _______ _______ _______ _____ _____    ______ ____

>  <TORSDO>
F 2

$$$$
=
 OpenBabel10272401523D

 28 32  0  0  1  0  0  0  0  0999 V2000
  186.3360  178.2110  141.7480 C   0  0  2  0  0  3  0  0  0  0  0  0
  190.3540  177.0550  144.9660 C   0  0  0  0  0  2  0  0  0  0  0  0
  185.3300  179.9590  145.6260 N   0  0  0  0  0  1  0  0  0  0  0  0
  189.0750  176.5730  147.0490 C   0  0  1  0  0  3  0  0  0  0  0  0
  187.9810  177.9400  145.2550 C   0  0  0  0  0  0  0  0  0  0  0  0
  191.5880  176.2710  146.9960 C   0  0  0  0  0  0  0  0  0  0  0  0
  189.2970  177.6000  145.9250 C   0  0  2  0  0  3  0  0  0  0  0  0
  187.1080  178.1580  147.5480 C   0  0  0  0  0  2  0  0  0  0  0  0
  190.3560  176.3940  147.8610 C   0  0  0  0  0  2  0  0  0  0  0  0
  185.3910  178.0660  144.0600 C   0  0  1  0  0  3  0  0  0  0  0  0
  187.8350  177.8410  143.7490 C   0  0  0  0  0  2  0  0  0  0  0  0
  187.8940  176.9120  147.9790 C   0  0  0  0  0  2  0  0  0  0  0  0
  183.9120  178.7850  142.1870 C   0  0  0  0  0  3  0  0  0  0  0  0
  185.5460  178.5240  145.5130 C   0  0  1  0  0  3  0  0  0  0  0  0
  184.0520  178.4350  143.4730 C   0  0  0  0  0  3  0  0  0  0  0  0
  193.1030  175.8180  147.7550 Cl  0  0  0  0  0  0  0  0  0  0  0  0
  191.6000  176.6430  145.7050 C   0  0  0  0  0  3  0  0  0  0  0  0
  186.9120  178.1770  146.0560 C   0  0  0  0  0  0  0  0  0  0  0  0
  185.0880  178.9460  141.2570 C   0  0  0  0  0  2  0  0  0  0  0  0
  186.5810  178.5410  143.2240 C   0  0  1  0  0  3  0  0  0  0  0  0
  187.5230  178.6360  140.8840 C   0  0  0  0  0  2  0  0  0  0  0  0
  187.8560  177.6190  139.7930 C   0  0  2  0  0  3  0  0  0  0  0  0
  188.5680  177.6750  137.4880 N   0  0  0  0  0  0  0  0  0  0  0  0
  189.3210  177.2830  139.7540 C   0  0  0  0  0  2  0  0  0  0  0  0
  186.1780  177.6120  137.9630 C   0  0  0  0  0  1  0  0  0  0  0  0
  187.5300  178.1350  138.4070 C   0  0  1  0  0  3  0  0  0  0  0  0
  189.1650  178.8600  136.8960 C   0  0  0  0  0  1  0  0  0  0  0  0
  189.6060  177.0290  138.2890 C   0  0  0  0  0  2  0  0  0  0  0  0
  1 21  1  6  0  0  0
  1 20  1  0  0  0  0
  2 17  1  0  0  0  0
  4  9  1  1  0  0  0
  4 12  1  0  0  0  0
  5  7  1  0  0  0  0
  5 18  2  0  0  0  0
  6 16  1  0  0  0  0
  6  9  1  0  0  0  0
  7  2  1  6  0  0  0
  7  4  1  0  0  0  0
  8 12  1  0  0  0  0
 10 15  1  6  0  0  0
 10 14  1  0  0  0  0
 11  5  1  0  0  0  0
 13 15  2  0  0  0  0
 14  3  1  6  0  0  0
 14 18  1  0  0  0  0
 17  6  2  0  0  0  0
 18  8  1  0  0  0  0
 19  1  1  0  0  0  0
 19 13  1  0  0  0  0
 20 11  1  1  0  0  0
 20 10  1  0  0  0  0
 22 21  1  1  0  0  0
 23 28  1  0  0  0  0
 23 26  1  0  0  0  0
 24 22  1  0  0  0  0
 26 25  1  6  0  0  0
 26 22  1  0  0  0  0
 27 23  1  0  0  0  0
 28 24  1  0  0  0  0
M  END
>  <MODEL>
5

>  <REMARK>
 VINA RESULT:      -9.7      3.106      5.475
  Name = 
  2 active torsions:
  status: ('A' for Active; 'I' for Inactive)
    1  A    between atoms: C_1  and  C_2
    2  A    between atoms: C_2  and  C_3
                            x       y       z     vdW  Elec       q    Type
                         _______ _______ _______ _____ _____    ______ ____

>  <TORSDO>
F 2

$$$$
=
 OpenBabel10272401523D

 28 32  0  0  1  0  0  0  0  0999 V2000
  186.3990  178.0910  140.7390 C   0  0  2  0  0  3  0  0  0  0  0  0
  189.9380  177.2470  144.5590 C   0  0  0  0  0  2  0  0  0  0  0  0
  184.8560  180.1140  144.2940 N   0  0  0  0  0  1  0  0  0  0  0  0
  188.3850  176.9050  146.4780 C   0  0  1  0  0  3  0  0  0  0  0  0
  187.5430  178.1140  144.4490 C   0  0  0  0  0  0  0  0  0  0  0  0
  190.8830  176.6400  146.7950 C   0  0  0  0  0  0  0  0  0  0  0  0
  188.7550  177.8470  145.3190 C   0  0  2  0  0  3  0  0  0  0  0  0
  186.3600  178.4920  146.5760 C   0  0  0  0  0  2  0  0  0  0  0  0
  189.5420  176.8080  147.4700 C   0  0  0  0  0  2  0  0  0  0  0  0
  185.1440  178.1070  142.9020 C   0  0  1  0  0  3  0  0  0  0  0  0
  187.6080  177.8980  142.9490 C   0  0  0  0  0  2  0  0  0  0  0  0
  187.0850  177.2960  147.2070 C   0  0  0  0  0  2  0  0  0  0  0  0
  183.9350  178.6590  140.7930 C   0  0  0  0  0  3  0  0  0  0  0  0
  185.0930  178.6770  144.3230 C   0  0  1  0  0  3  0  0  0  0  0  0
  183.8970  178.4100  142.1100 C   0  0  0  0  0  3  0  0  0  0  0  0
  192.2800  176.2690  147.7880 Cl  0  0  0  0  0  0  0  0  0  0  0  0
  191.0720  176.9130  145.4930 C   0  0  0  0  0  3  0  0  0  0  0  0
  186.3730  178.3950  145.0750 C   0  0  0  0  0  0  0  0  0  0  0  0
  185.2270  178.7670  140.0250 C   0  0  0  0  0  2  0  0  0  0  0  0
  186.4360  178.5370  142.2040 C   0  0  1  0  0  3  0  0  0  0  0  0
  187.6920  178.4680  140.0160 C   0  0  0  0  0  2  0  0  0  0  0  0
  188.2790  177.3090  139.2100 C   0  0  2  0  0  3  0  0  0  0  0  0
  189.0380  176.9410  136.9500 N   0  0  0  0  0  0  0  0  0  0  0  0
  189.7830  177.3110  139.2220 C   0  0  0  0  0  2  0  0  0  0  0  0
  186.7080  176.4660  137.4830 C   0  0  0  0  0  1  0  0  0  0  0  0
  187.8940  177.3730  137.7470 C   0  0  1  0  0  3  0  0  0  0  0  0
  189.3760  178.0410  136.0620 C   0  0  0  0  0  1  0  0  0  0  0  0
  190.1670  176.7670  137.8630 C   0  0  0  0  0  2  0  0  0  0  0  0
  1 21  1  6  0  0  0
  1 20  1  0  0  0  0
  2 17  1  0  0  0  0
  4 12  1  1  0  0  0
  4  9  1  0  0  0  0
  5 18  2  0  0  0  0
  5  7  1  0  0  0  0
  6  9  1  0  0  0  0
  6 16  1  0  0  0  0
  7  2  1  6  0  0  0
  7  4  1  0  0  0  0
  8 12  1  0  0  0  0
 10 15  1  6  0  0  0
 10 14  1  0  0  0  0
 11  5  1  0  0  0  0
 13 15  2  0  0  0  0
 14  3  1  6  0  0  0
 14 18  1  0  0  0  0
 17  6  2  0  0  0  0
 18  8  1  0  0  0  0
 19  1  1  0  0  0  0
 19 13  1  0  0  0  0
 20 10  1  0  0  0  0
 20 11  1  1  0  0  0
 22 24  1  0  0  0  0
 22 21  1  1  0  0  0
 23 26  1  0  0  0  0
 23 28  1  0  0  0  0
 26 25  1  1  0  0  0
 26 22  1  0  0  0  0
 27 23  1  0  0  0  0
 28 24  1  0  0  0  0
M  END
>  <MODEL>
6

>  <REMARK>
 VINA RESULT:      -9.2      2.959      5.233
  Name = 
  2 active torsions:
  status: ('A' for Active; 'I' for Inactive)
    1  A    between atoms: C_1  and  C_2
    2  A    between atoms: C_2  and  C_3
                            x       y       z     vdW  Elec       q    Type
                         _______ _______ _______ _____ _____    ______ ____

>  <TORSDO>
F 2

$$$$
=
 OpenBabel10272401523D

 28 32  0  0  1  0  0  0  0  0999 V2000
  186.9090  178.3300  144.5610 C   0  0  2  0  0  3  0  0  0  0  0  0
  189.9840  177.0350  140.4750 C   0  0  0  0  0  2  0  0  0  0  0  0
  184.2280  177.7560  141.1570 N   0  0  0  0  0  1  0  0  0  0  0  0
  188.8170  178.3040  138.6750 C   0  0  1  0  0  3  0  0  0  0  0  0
  187.5590  177.7630  140.7760 C   0  0  0  0  0  0  0  0  0  0  0  0
  190.9500  177.0380  138.1670 C   0  0  0  0  0  0  0  0  0  0  0  0
  188.6290  177.2860  139.8140 C   0  0  2  0  0  3  0  0  0  0  0  0
  186.2440  178.2420  138.7490 C   0  0  0  0  0  2  0  0  0  0  0  0
  189.7320  177.7270  137.5970 C   0  0  0  0  0  2  0  0  0  0  0  0
  185.7500  179.1430  142.5000 C   0  0  1  0  0  3  0  0  0  0  0  0
  187.8410  177.8440  142.2640 C   0  0  0  0  0  2  0  0  0  0  0  0
  187.4950  178.7920  138.0510 C   0  0  0  0  0  2  0  0  0  0  0  0
  184.5970  179.3460  144.7000 C   0  0  0  0  0  3  0  0  0  0  0  0
  185.2730  178.7680  141.0940 C   0  0  1  0  0  3  0  0  0  0  0  0
  184.6260  179.6150  143.3880 C   0  0  0  0  0  3  0  0  0  0  0  0
  192.2210  176.5380  137.0670 Cl  0  0  0  0  0  0  0  0  0  0  0  0
  191.0260  176.6600  139.4540 C   0  0  0  0  0  3  0  0  0  0  0  0
  186.4130  178.2580  140.2440 C   0  0  0  0  0  0  0  0  0  0  0  0
  185.6170  178.4610  145.3700 C   0  0  0  0  0  2  0  0  0  0  0  0
  186.5730  178.0040  143.1030 C   0  0  1  0  0  3  0  0  0  0  0  0
  187.7660  177.2320  145.1890 C   0  0  0  0  0  2  0  0  0  0  0  0
  189.0830  177.7600  145.7580 C   0  0  2  0  0  3  0  0  0  0  0  0
  190.8730  176.9130  147.1370 N   0  0  0  0  0  0  0  0  0  0  0  0
  190.2530  177.4580  144.8620 C   0  0  0  0  0  2  0  0  0  0  0  0
  189.0040  178.0380  148.2230 C   0  0  0  0  0  1  0  0  0  0  0  0
  189.4290  177.1270  147.0890 C   0  0  1  0  0  3  0  0  0  0  0  0
  191.0850  175.4890  147.3350 C   0  0  0  0  0  1  0  0  0  0  0  0
  191.4080  177.2450  145.8170 C   0  0  0  0  0  2  0  0  0  0  0  0
  1 21  1  1  0  0  0
  1 19  1  0  0  0  0
  4  9  1  6  0  0  0
  4  7  1  0  0  0  0
  5 11  1  0  0  0  0
  6 17  2  0  0  0  0
  7  2  1  1  0  0  0
  7  5  1  0  0  0  0
  8 18  1  0  0  0  0
  9  6  1  0  0  0  0
 10 20  1  0  0  0  0
 10 15  1  1  0  0  0
 12  4  1  0  0  0  0
 12  8  1  0  0  0  0
 13 19  1  0  0  0  0
 14  3  1  1  0  0  0
 14 10  1  0  0  0  0
 15 13  2  0  0  0  0
 16  6  1  0  0  0  0
 17  2  1  0  0  0  0
 18  5  2  0  0  0  0
 18 14  1  0  0  0  0
 20 11  1  6  0  0  0
 20  1  1  0  0  0  0
 22 21  1  6  0  0  0
 22 26  1  0  0  0  0
 23 27  1  0  0  0  0
 24 22  1  0  0  0  0
 24 28  1  0  0  0  0
 26 23  1  0  0  0  0
 26 25  1  1  0  0  0
 28 23  1  0  0  0  0
M  END
>  <MODEL>
7

>  <REMARK>
 VINA RESULT:      -8.9      3.210      7.566
  Name = 
  2 active torsions:
  status: ('A' for Active; 'I' for Inactive)
    1  A    between atoms: C_1  and  C_2
    2  A    between atoms: C_2  and  C_3
                            x       y       z     vdW  Elec       q    Type
                         _______ _______ _______ _____ _____    ______ ____

>  <TORSDO>
F 2

$$$$
=
 OpenBabel10272401523D

 28 32  0  0  1  0  0  0  0  0999 V2000
  185.7670  178.0100  143.6270 C   0  0  2  0  0  3  0  0  0  0  0  0
  187.5810  178.0320  138.6730 C   0  0  0  0  0  2  0  0  0  0  0  0
  190.0540  178.8140  143.9060 N   0  0  0  0  0  1  0  0  0  0  0  0
  189.7610  176.8810  139.0380 C   0  0  1  0  0  3  0  0  0  0  0  0
  188.6240  177.9540  140.9990 C   0  0  0  0  0  0  0  0  0  0  0  0
  189.0320  177.5230  136.7000 C   0  0  0  0  0  0  0  0  0  0  0  0
  188.8630  178.0410  139.5050 C   0  0  2  0  0  3  0  0  0  0  0  0
  191.0520  177.5740  141.1560 C   0  0  0  0  0  2  0  0  0  0  0  0
  190.1780  177.0880  137.5840 C   0  0  0  0  0  2  0  0  0  0  0  0
  188.1520  177.2660  143.7290 C   0  0  1  0  0  3  0  0  0  0  0  0
  187.2130  177.9830  141.5560 C   0  0  0  0  0  2  0  0  0  0  0  0
  191.0020  176.6590  139.9250 C   0  0  0  0  0  2  0  0  0  0  0  0
  186.8960  177.6090  145.8540 C   0  0  0  0  0  3  0  0  0  0  0  0
  189.5870  177.5780  143.2930 C   0  0  1  0  0  3  0  0  0  0  0  0
  188.0040  177.1880  145.2270 C   0  0  0  0  0  3  0  0  0  0  0  0
  189.2830  177.5670  134.9650 Cl  0  0  0  0  0  0  0  0  0  0  0  0
  187.8880  178.0200  137.1980 C   0  0  0  0  0  3  0  0  0  0  0  0
  189.6930  177.6930  141.7910 C   0  0  0  0  0  0  0  0  0  0  0  0
  185.7650  178.2920  145.1310 C   0  0  0  0  0  2  0  0  0  0  0  0
  187.1730  178.2350  143.0630 C   0  0  1  0  0  3  0  0  0  0  0  0
  184.7510  178.9340  142.9570 C   0  0  0  0  0  2  0  0  0  0  0  0
  183.5230  178.1860  142.4360 C   0  0  2  0  0  3  0  0  0  0  0  0
  181.4310  178.7540  141.3760 N   0  0  0  0  0  0  0  0  0  0  0  0
  183.6390  177.8490  140.9750 C   0  0  0  0  0  2  0  0  0  0  0  0
  181.5000  178.6170  143.8090 C   0  0  0  0  0  1  0  0  0  0  0  0
  182.2560  179.0080  142.5540 C   0  0  1  0  0  3  0  0  0  0  0  0
  181.2230  180.0350  140.7220 C   0  0  0  0  0  1  0  0  0  0  0  0
  182.2180  177.9300  140.4600 C   0  0  0  0  0  2  0  0  0  0  0  0
  1 21  1  6  0  0  0
  1 19  1  0  0  0  0
  4  9  1  6  0  0  0
  4  7  1  0  0  0  0
  4 12  1  0  0  0  0
  5 11  1  0  0  0  0
  5 18  2  0  0  0  0
  6 17  2  0  0  0  0
  6  9  1  0  0  0  0
  7  2  1  6  0  0  0
  7  5  1  0  0  0  0
  8 18  1  0  0  0  0
 10 15  1  1  0  0  0
 12  8  1  0  0  0  0
 14 10  1  0  0  0  0
 14  3  1  1  0  0  0
 15 13  2  0  0  0  0
 16  6  1  0  0  0  0
 17  2  1  0  0  0  0
 18 14  1  0  0  0  0
 19 13  1  0  0  0  0
 20 11  1  6  0  0  0
 20  1  1  0  0  0  0
 20 10  1  0  0  0  0
 22 26  1  0  0  0  0
 22 21  1  6  0  0  0
 23 26  1  0  0  0  0
 24 22  1  0  0  0  0
 26 25  1  1  0  0  0
 27 23  1  0  0  0  0
 28 24  1  0  0  0  0
 28 23  1  0  0  0  0
M  END
>  <MODEL>
8

>  <REMARK>
 VINA RESULT:      -8.9      3.205      7.035
  Name = 
  2 active torsions:
  status: ('A' for Active; 'I' for Inactive)
    1  A    between atoms: C_1  and  C_2
    2  A    between atoms: C_2  and  C_3
                            x       y       z     vdW  Elec       q    Type
                         _______ _______ _______ _____ _____    ______ ____

>  <TORSDO>
F 2

$$$$
=
 OpenBabel10272401523D

 28 32  0  0  1  0  0  0  0  0999 V2000
  184.2420  178.3910  140.2210 C   0  0  2  0  0  3  0  0  0  0  0  0
  188.5680  177.7400  143.1700 C   0  0  0  0  0  2  0  0  0  0  0  0
  183.3890  180.2880  144.0650 N   0  0  0  0  0  1  0  0  0  0  0  0
  187.4890  177.2890  145.3710 C   0  0  1  0  0  3  0  0  0  0  0  0
  186.1590  178.4580  143.5970 C   0  0  0  0  0  0  0  0  0  0  0  0
  190.0080  177.1770  145.1370 C   0  0  0  0  0  0  0  0  0  0  0  0
  187.5440  178.2600  144.1790 C   0  0  2  0  0  3  0  0  0  0  0  0
  185.4440  178.7470  145.9360 C   0  0  0  0  0  2  0  0  0  0  0  0
  188.8370  177.2570  146.0880 C   0  0  0  0  0  2  0  0  0  0  0  0
  183.4860  178.3140  142.6040 C   0  0  1  0  0  3  0  0  0  0  0  0
  185.9100  178.2570  142.1140 C   0  0  0  0  0  2  0  0  0  0  0  0
  186.3570  177.5930  146.3720 C   0  0  0  0  0  2  0  0  0  0  0  0
  181.8190  178.8040  140.8170 C   0  0  0  0  0  3  0  0  0  0  0  0
  183.7110  178.8690  144.0130 C   0  0  1  0  0  3  0  0  0  0  0  0
  182.0820  178.5440  142.1050 C   0  0  0  0  0  3  0  0  0  0  0  0
  191.6060  176.8870  145.7980 Cl  0  0  0  0  0  0  0  0  0  0  0  0
  189.8950  177.4700  143.8310 C   0  0  0  0  0  3  0  0  0  0  0  0
  185.1370  178.6620  144.4660 C   0  0  0  0  0  0  0  0  0  0  0  0
  182.9060  178.9980  139.7900 C   0  0  0  0  0  2  0  0  0  0  0  0
  184.5690  178.8270  141.6520 C   0  0  1  0  0  3  0  0  0  0  0  0
  185.3230  178.8520  139.2440 C   0  0  0  0  0  2  0  0  0  0  0  0
  186.1050  177.6890  138.6330 C   0  0  2  0  0  3  0  0  0  0  0  0
  186.9450  177.0810  136.4550 N   0  0  0  0  0  0  0  0  0  0  0  0
  187.5880  177.9420  138.6230 C   0  0  0  0  0  2  0  0  0  0  0  0
  184.7180  176.3230  137.0930 C   0  0  0  0  0  1  0  0  0  0  0  0
  185.7340  177.4440  137.1860 C   0  0  1  0  0  3  0  0  0  0  0  0
  187.1080  178.0590  135.3920 C   0  0  0  0  0  1  0  0  0  0  0  0
  188.0750  177.2500  137.3680 C   0  0  0  0  0  2  0  0  0  0  0  0
  1 21  1  6  0  0  0
  1 20  1  0  0  0  0
  2 17  1  0  0  0  0
  4  9  1  1  0  0  0
  4 12  1  0  0  0  0
  5  7  1  0  0  0  0
  5 18  2  0  0  0  0
  6 16  1  0  0  0  0
  6  9  1  0  0  0  0
  7  2  1  6  0  0  0
  7  4  1  0  0  0  0
  8 12  1  0  0  0  0
 10 15  1  6  0  0  0
 10 14  1  0  0  0  0
 11  5  1  0  0  0  0
 13 15  2  0  0  0  0
 14  3  1  6  0  0  0
 14 18  1  0  0  0  0
 17  6  2  0  0  0  0
 18  8  1  0  0  0  0
 19  1  1  0  0  0  0
 19 13  1  0  0  0  0
 20 11  1  1  0  0  0
 20 10  1  0  0  0  0
 22 21  1  6  0  0  0
 23 26  1  0  0  0  0
 23 28  1  0  0  0  0
 24 22  1  0  0  0  0
 26 25  1  1  0  0  0
 26 22  1  0  0  0  0
 27 23  1  0  0  0  0
 28 24  1  0  0  0  0
M  END
>  <MODEL>
9

>  <REMARK>
 VINA RESULT:      -8.8      3.160      5.759
  Name = 
  2 active torsions:
  status: ('A' for Active; 'I' for Inactive)
    1  A    between atoms: C_1  and  C_2
    2  A    between atoms: C_2  and  C_3
                            x       y       z     vdW  Elec       q    Type
                         _______ _______ _______ _____ _____    ______ ____

>  <TORSDO>
F 2

$$$$
