=
 OpenBabel10272401473D

 28 31  0  0  1  0  0  0  0  0999 V2000
  188.8170  177.4380  145.0860 C   0  0  0  0  0  0  0  0  0  0  0  0
  187.5250  177.6710  149.4760 Cl  0  0  0  0  0  0  0  0  0  0  0  0
  185.2640  178.5600  144.6860 C   0  0  0  0  0  0  0  0  0  0  0  0
  187.0830  177.9300  146.7510 C   0  0  0  0  0  0  0  0  0  0  0  0
  186.5720  178.1580  144.3850 C   0  0  0  0  0  3  0  0  0  0  0  0
  189.2730  177.1740  147.4610 C   0  0  0  0  0  3  0  0  0  0  0  0
  185.7750  178.3270  147.0520 C   0  0  0  0  0  3  0  0  0  0  0  0
  187.9820  177.5930  147.7790 C   0  0  0  0  0  0  0  0  0  0  0  0
  184.8750  178.6390  146.0320 C   0  0  0  0  0  3  0  0  0  0  0  0
  189.6840  177.0950  146.1320 C   0  0  0  0  0  3  0  0  0  0  0  0
  187.4970  177.8520  145.3960 C   0  0  0  0  0  0  0  0  0  0  0  0
  183.0470  179.2060  143.9370 C   0  0  0  0  0  3  0  0  0  0  0  0
  183.9700  178.2700  141.1780 C   0  0  0  0  0  3  0  0  0  0  0  0
  181.6640  178.3520  142.1040 C   0  0  0  0  0  0  0  0  0  0  0  0
  184.2980  178.8610  143.5950 C   0  0  0  0  0  0  0  0  0  0  0  0
  186.1020  179.2110  141.7900 C   0  0  0  0  0  1  0  0  0  0  0  0
  182.5680  177.8220  141.2820 C   0  0  0  0  0  3  0  0  0  0  0  0
  184.7260  178.7750  142.1650 C   0  0  0  0  0  0  0  0  0  0  0  0
  180.3840  177.8130  142.1440 O   0  0  0  0  0  1  0  0  0  0  0  0
  181.9780  179.5390  142.9530 C   0  0  0  0  0  2  0  0  0  0  0  0
  189.3260  177.3520  143.6940 C   0  0  0  0  0  0  0  0  0  0  0  0
  188.9260  176.3290  142.9270 C   0  0  0  0  0  3  0  0  0  0  0  0
  190.6670  178.1760  141.6750 C   0  0  1  0  0  3  0  0  0  0  0  0
  189.3840  176.1810  141.5070 C   0  0  0  0  0  2  0  0  0  0  0  0
  191.3360  178.8300  144.0190 C   0  0  0  0  0  1  0  0  0  0  0  0
  190.1760  178.4650  143.1050 C   0  0  2  0  0  3  0  0  0  0  0  0
  191.8390  177.4310  141.6730 F   0  0  0  0  0  0  0  0  0  0  0  0
  189.6280  177.4910  140.9040 N   0  0  0  0  0  2  0  0  0  0  0  0
  1 11  2  0  0  0  0
  1 10  1  0  0  0  0
  3  9  1  0  0  0  0
  4  7  1  0  0  0  0
  4  8  2  0  0  0  0
  5  3  2  0  0  0  0
  5 11  1  0  0  0  0
  6  8  1  0  0  0  0
  8  2  1  0  0  0  0
  9  7  2  0  0  0  0
 10  6  2  0  0  0  0
 11  4  1  0  0  0  0
 13 17  1  0  0  0  0
 13 18  2  0  0  0  0
 14 19  1  0  0  0  0
 14 20  1  0  0  0  0
 15 12  2  0  0  0  0
 15  3  1  0  0  0  0
 16 18  1  0  0  0  0
 17 14  2  0  0  0  0
 18 15  1  0  0  0  0
 20 12  1  0  0  0  0
 21  1  1  0  0  0  0
 22 21  2  0  0  0  0
 23 27  1  1  0  0  0
 23 26  1  0  0  0  0
 24 22  1  0  0  0  0
 26 21  1  0  0  0  0
 26 25  1  1  0  0  0
 28 24  1  0  0  0  0
 28 23  1  0  0  0  0
M  END
>  <MODEL>
1

>  <REMARK>
 VINA RESULT:     -10.1      0.000      0.000
  Name = 
  2 active torsions:
  status: ('A' for Active; 'I' for Inactive)
    1  A    between atoms: C_1  and  C_2
    2  A    between atoms: C_10  and  C_13
                            x       y       z     vdW  Elec       q    Type
                         _______ _______ _______ _____ _____    ______ ____

>  <TORSDO>
F 2

$$$$
=
 OpenBabel10272401473D

 28 31  0  0  1  0  0  0  0  0999 V2000
  187.7480  177.6520  145.2710 C   0  0  0  0  0  0  0  0  0  0  0  0
  191.5990  176.2870  147.3450 Cl  0  0  0  0  0  0  0  0  0  0  0  0
  189.9780  177.1620  142.3000 C   0  0  0  0  0  0  0  0  0  0  0  0
  190.0810  176.9120  145.1100 C   0  0  0  0  0  0  0  0  0  0  0  0
  188.8570  177.4660  143.0850 C   0  0  0  0  0  3  0  0  0  0  0  0
  189.0230  177.1360  147.2780 C   0  0  0  0  0  3  0  0  0  0  0  0
  191.2030  176.6120  144.3270 C   0  0  0  0  0  3  0  0  0  0  0  0
  190.1400  176.8090  146.5110 C   0  0  0  0  0  0  0  0  0  0  0  0
  191.1530  176.7360  142.9380 C   0  0  0  0  0  3  0  0  0  0  0  0
  187.8430  177.5550  146.6660 C   0  0  0  0  0  3  0  0  0  0  0  0
  188.8820  177.3360  144.4820 C   0  0  0  0  0  0  0  0  0  0  0  0
  188.7590  177.6630  140.2620 C   0  0  0  0  0  3  0  0  0  0  0  0
  191.1820  176.4930  138.8120 C   0  0  0  0  0  3  0  0  0  0  0  0
  188.8130  176.5920  138.0590 C   0  0  0  0  0  0  0  0  0  0  0  0
  189.9310  177.3260  140.8220 C   0  0  0  0  0  0  0  0  0  0  0  0
  192.4810  177.5550  140.5400 C   0  0  0  0  0  1  0  0  0  0  0  0
  190.0130  176.0130  138.0490 C   0  0  0  0  0  3  0  0  0  0  0  0
  191.1630  177.1150  140.0000 C   0  0  0  0  0  0  0  0  0  0  0  0
  187.7770  176.0200  137.3320 O   0  0  0  0  0  1  0  0  0  0  0  0
  188.5650  177.8650  138.7970 C   0  0  0  0  0  2  0  0  0  0  0  0
  186.4540  178.0840  144.6830 C   0  0  0  0  0  0  0  0  0  0  0  0
  186.3090  178.0400  143.3520 C   0  0  0  0  0  3  0  0  0  0  0  0
  184.0410  178.9280  144.7930 C   0  0  1  0  0  3  0  0  0  0  0  0
  185.0290  178.4450  142.6840 C   0  0  0  0  0  2  0  0  0  0  0  0
  185.6690  179.4390  146.6520 C   0  0  0  0  0  1  0  0  0  0  0  0
  185.2760  178.4420  145.5710 C   0  0  2  0  0  3  0  0  0  0  0  0
  184.1050  180.2880  144.5190 F   0  0  0  0  0  0  0  0  0  0  0  0
  183.8840  178.1670  143.5520 N   0  0  0  0  0  2  0  0  0  0  0  0
  1 10  1  0  0  0  0
  3  9  1  0  0  0  0
  3  5  2  0  0  0  0
  4  8  2  0  0  0  0
  5 11  1  0  0  0  0
  7  4  1  0  0  0  0
  8  6  1  0  0  0  0
  8  2  1  0  0  0  0
  9  7  2  0  0  0  0
 10  6  2  0  0  0  0
 11  4  1  0  0  0  0
 11  1  2  0  0  0  0
 12 15  2  0  0  0  0
 13 18  2  0  0  0  0
 14 20  1  0  0  0  0
 15  3  1  0  0  0  0
 17 14  2  0  0  0  0
 17 13  1  0  0  0  0
 18 16  1  0  0  0  0
 18 15  1  0  0  0  0
 19 14  1  0  0  0  0
 20 12  1  0  0  0  0
 21  1  1  0  0  0  0
 21 26  1  0  0  0  0
 22 21  2  0  0  0  0
 23 27  1  6  0  0  0
 23 26  1  0  0  0  0
 24 22  1  0  0  0  0
 24 28  1  0  0  0  0
 26 25  1  1  0  0  0
 28 23  1  0  0  0  0
M  END
>  <MODEL>
2

>  <REMARK>
 VINA RESULT:     -10.1      3.279      5.962
  Name = 
  2 active torsions:
  status: ('A' for Active; 'I' for Inactive)
    1  A    between atoms: C_1  and  C_2
    2  A    between atoms: C_10  and  C_13
                            x       y       z     vdW  Elec       q    Type
                         _______ _______ _______ _____ _____    ______ ____

>  <TORSDO>
F 2

$$$$
=
 OpenBabel10272401473D

 28 31  0  0  1  0  0  0  0  0999 V2000
  187.6410  177.6400  145.0520 C   0  0  0  0  0  0  0  0  0  0  0  0
  183.3500  178.9830  144.1740 Cl  0  0  0  0  0  0  0  0  0  0  0  0
  187.8360  178.1400  141.3440 C   0  0  0  0  0  0  0  0  0  0  0  0
  185.9520  178.3750  143.4330 C   0  0  0  0  0  0  0  0  0  0  0  0
  188.1940  177.8360  142.6650 C   0  0  0  0  0  3  0  0  0  0  0  0
  185.3730  178.1410  145.7740 C   0  0  0  0  0  3  0  0  0  0  0  0
  185.5930  178.6770  142.1140 C   0  0  0  0  0  3  0  0  0  0  0  0
  185.0070  178.4700  144.4700 C   0  0  0  0  0  0  0  0  0  0  0  0
  186.5240  178.5600  141.0810 C   0  0  0  0  0  3  0  0  0  0  0  0
  186.6720  177.7290  146.0620 C   0  0  0  0  0  3  0  0  0  0  0  0
  187.2770  177.9570  143.7200 C   0  0  0  0  0  0  0  0  0  0  0  0
  188.4300  178.2950  138.9960 C   0  0  0  0  0  3  0  0  0  0  0  0
  190.8800  176.6330  139.7550 C   0  0  0  0  0  3  0  0  0  0  0  0
  189.7120  176.7750  137.5640 C   0  0  0  0  0  0  0  0  0  0  0  0
  188.8220  177.9850  140.2410 C   0  0  0  0  0  0  0  0  0  0  0  0
  190.8810  177.9240  141.7890 C   0  0  0  0  0  1  0  0  0  0  0  0
  190.4530  176.1040  138.4450 C   0  0  0  0  0  3  0  0  0  0  0  0
  190.2060  177.4950  140.5300 C   0  0  0  0  0  0  0  0  0  0  0  0
  189.3350  176.1530  136.3810 O   0  0  0  0  0  1  0  0  0  0  0  0
  189.3110  178.1940  137.7970 C   0  0  0  0  0  2  0  0  0  0  0  0
  189.0130  177.2150  145.4310 C   0  0  0  0  0  0  0  0  0  0  0  0
  189.7770  176.6170  144.5060 C   0  0  0  0  0  3  0  0  0  0  0  0
  190.9950  176.9870  147.0340 C   0  0  1  0  0  3  0  0  0  0  0  0
  191.1770  176.1720  144.8080 C   0  0  0  0  0  2  0  0  0  0  0  0
  188.6400  177.1830  147.9190 C   0  0  0  0  0  1  0  0  0  0  0  0
  189.5890  177.5640  146.7920 C   0  0  2  0  0  3  0  0  0  0  0  0
  190.9430  175.6850  147.5140 F   0  0  0  0  0  0  0  0  0  0  0  0
  191.7920  177.0450  145.8070 N   0  0  0  0  0  2  0  0  0  0  0  0
  1 21  1  0  0  0  0
  1 10  1  0  0  0  0
  2  8  1  0  0  0  0
  3  5  2  0  0  0  0
  4 11  1  0  0  0  0
  4  8  2  0  0  0  0
  5 11  1  0  0  0  0
  6 10  2  0  0  0  0
  7  4  1  0  0  0  0
  8  6  1  0  0  0  0
  9  3  1  0  0  0  0
  9  7  2  0  0  0  0
 11  1  2  0  0  0  0
 12 15  2  0  0  0  0
 13 18  2  0  0  0  0
 14 20  1  0  0  0  0
 14 17  2  0  0  0  0
 15 18  1  0  0  0  0
 15  3  1  0  0  0  0
 17 13  1  0  0  0  0
 18 16  1  0  0  0  0
 19 14  1  0  0  0  0
 20 12  1  0  0  0  0
 21 26  1  0  0  0  0
 22 24  1  0  0  0  0
 22 21  2  0  0  0  0
 23 27  1  6  0  0  0
 24 28  1  0  0  0  0
 26 23  1  0  0  0  0
 26 25  1  1  0  0  0
 28 23  1  0  0  0  0
M  END
>  <MODEL>
3

>  <REMARK>
 VINA RESULT:      -9.6      3.386      5.680
  Name = 
  2 active torsions:
  status: ('A' for Active; 'I' for Inactive)
    1  A    between atoms: C_1  and  C_2
    2  A    between atoms: C_10  and  C_13
                            x       y       z     vdW  Elec       q    Type
                         _______ _______ _______ _____ _____    ______ ____

>  <TORSDO>
F 2

$$$$
=
 OpenBabel10272401473D

 28 31  0  0  1  0  0  0  0  0999 V2000
  187.5250  177.5910  144.3490 C   0  0  0  0  0  0  0  0  0  0  0  0
  183.2510  179.1630  144.8460 Cl  0  0  0  0  0  0  0  0  0  0  0  0
  186.6430  178.2920  140.7750 C   0  0  0  0  0  0  0  0  0  0  0  0
  185.4780  178.4880  143.3390 C   0  0  0  0  0  0  0  0  0  0  0  0
  187.3570  177.8980  141.9150 C   0  0  0  0  0  3  0  0  0  0  0  0
  185.6040  178.1470  145.7340 C   0  0  0  0  0  3  0  0  0  0  0  0
  184.7620  178.8790  142.2000 C   0  0  0  0  0  3  0  0  0  0  0  0
  184.8880  178.5640  144.6130 C   0  0  0  0  0  0  0  0  0  0  0  0
  185.3380  178.7810  140.9330 C   0  0  0  0  0  3  0  0  0  0  0  0
  186.9050  177.6640  145.6040 C   0  0  0  0  0  3  0  0  0  0  0  0
  186.8020  177.9980  143.2000 C   0  0  0  0  0  0  0  0  0  0  0  0
  186.5000  178.4920  138.3600 C   0  0  0  0  0  3  0  0  0  0  0  0
  189.0550  176.8150  138.3120 C   0  0  0  0  0  3  0  0  0  0  0  0
  187.2790  176.9990  136.5800 C   0  0  0  0  0  0  0  0  0  0  0  0
  187.2480  178.1580  139.4220 C   0  0  0  0  0  0  0  0  0  0  0  0
  189.6780  178.0670  140.2740 C   0  0  0  0  0  1  0  0  0  0  0  0
  188.2480  176.3120  137.1830 C   0  0  0  0  0  3  0  0  0  0  0  0
  188.6520  177.6630  139.2710 C   0  0  0  0  0  0  0  0  0  0  0  0
  186.5580  176.4000  135.5560 O   0  0  0  0  0  1  0  0  0  0  0  0
  186.9760  178.4130  136.9490 C   0  0  0  0  0  2  0  0  0  0  0  0
  188.9210  177.0870  144.2830 C   0  0  0  0  0  0  0  0  0  0  0  0
  189.2260  176.1630  143.3610 C   0  0  0  0  0  3  0  0  0  0  0  0
  191.3780  177.0060  144.9960 C   0  0  1  0  0  3  0  0  0  0  0  0
  190.6150  175.6160  143.2230 C   0  0  0  0  0  2  0  0  0  0  0  0
  189.5930  177.7660  146.6110 C   0  0  0  0  0  1  0  0  0  0  0  0
  190.0100  177.6950  145.1490 C   0  0  2  0  0  3  0  0  0  0  0  0
  191.4920  175.8970  145.8240 F   0  0  0  0  0  0  0  0  0  0  0  0
  191.6070  176.6240  143.6010 N   0  0  0  0  0  2  0  0  0  0  0  0
  1 10  1  0  0  0  0
  3  9  1  0  0  0  0
  3  5  2  0  0  0  0
  4  8  2  0  0  0  0
  5 11  1  0  0  0  0
  7  4  1  0  0  0  0
  8  2  1  0  0  0  0
  8  6  1  0  0  0  0
  9  7  2  0  0  0  0
 10  6  2  0  0  0  0
 11  4  1  0  0  0  0
 11  1  2  0  0  0  0
 12 15  2  0  0  0  0
 13 18  2  0  0  0  0
 14 20  1  0  0  0  0
 14 17  2  0  0  0  0
 15  3  1  0  0  0  0
 17 13  1  0  0  0  0
 18 15  1  0  0  0  0
 18 16  1  0  0  0  0
 19 14  1  0  0  0  0
 20 12  1  0  0  0  0
 21  1  1  0  0  0  0
 21 26  1  0  0  0  0
 22 21  2  0  0  0  0
 23 26  1  0  0  0  0
 23 27  1  1  0  0  0
 24 22  1  0  0  0  0
 24 28  1  0  0  0  0
 26 25  1  1  0  0  0
 28 23  1  0  0  0  0
M  END
>  <MODEL>
4

>  <REMARK>
 VINA RESULT:      -9.5      3.254      4.855
  Name = 
  2 active torsions:
  status: ('A' for Active; 'I' for Inactive)
    1  A    between atoms: C_1  and  C_2
    2  A    between atoms: C_10  and  C_13
                            x       y       z     vdW  Elec       q    Type
                         _______ _______ _______ _____ _____    ______ ____

>  <TORSDO>
F 2

$$$$
=
 OpenBabel10272401473D

 28 31  0  0  1  0  0  0  0  0999 V2000
  182.2500  177.8930  140.5190 C   0  0  0  0  0  0  0  0  0  0  0  0
  179.9820  179.7330  144.0490 Cl  0  0  0  0  0  0  0  0  0  0  0  0
  185.0540  178.3420  142.9640 C   0  0  0  0  0  0  0  0  0  0  0  0
  182.2700  178.7860  142.8040 C   0  0  0  0  0  0  0  0  0  0  0  0
  184.3460  178.0160  141.7990 C   0  0  0  0  0  3  0  0  0  0  0  0
  180.2040  178.7210  141.5420 C   0  0  0  0  0  3  0  0  0  0  0  0
  182.9780  179.1160  143.9670 C   0  0  0  0  0  3  0  0  0  0  0  0
  180.8880  179.0290  142.7160 C   0  0  0  0  0  0  0  0  0  0  0  0
  184.3540  178.8970  144.0460 C   0  0  0  0  0  3  0  0  0  0  0  0
  180.8760  178.1620  140.4560 C   0  0  0  0  0  3  0  0  0  0  0  0
  182.9600  178.2170  141.7020 C   0  0  0  0  0  0  0  0  0  0  0  0
  187.2710  178.5520  141.9990 C   0  0  0  0  0  3  0  0  0  0  0  0
  188.1400  176.5880  144.1740 C   0  0  0  0  0  3  0  0  0  0  0  0
  189.1450  176.9760  141.9320 C   0  0  0  0  0  0  0  0  0  0  0  0
  186.5260  178.1350  143.0340 C   0  0  0  0  0  0  0  0  0  0  0  0
  186.5780  177.7620  145.5820 C   0  0  0  0  0  1  0  0  0  0  0  0
  188.8920  176.1810  142.9710 C   0  0  0  0  0  3  0  0  0  0  0  0
  187.1390  177.4790  144.2310 C   0  0  0  0  0  0  0  0  0  0  0  0
  189.8250  176.4630  140.8350 O   0  0  0  0  0  1  0  0  0  0  0  0
  188.7550  178.4160  141.9350 C   0  0  0  0  0  2  0  0  0  0  0  0
  182.9000  177.2770  139.3340 C   0  0  0  0  0  0  0  0  0  0  0  0
  182.8540  175.9450  139.1990 C   0  0  0  0  0  3  0  0  0  0  0  0
  184.1790  177.3330  137.1180 C   0  0  1  0  0  3  0  0  0  0  0  0
  183.4740  175.2500  138.0230 C   0  0  0  0  0  2  0  0  0  0  0  0
  184.4220  179.2060  138.7920 C   0  0  0  0  0  1  0  0  0  0  0  0
  183.4910  178.1400  138.2330 C   0  0  2  0  0  3  0  0  0  0  0  0
  185.4970  177.0320  137.4370 F   0  0  0  0  0  0  0  0  0  0  0  0
  183.4330  176.1050  136.8370 N   0  0  0  0  0  2  0  0  0  0  0  0
  1 11  1  0  0  0  0
  3 15  1  0  0  0  0
  3  9  1  0  0  0  0
  4  7  1  0  0  0  0
  5  3  2  0  0  0  0
  6  8  2  0  0  0  0
  7  9  2  0  0  0  0
  8  4  1  0  0  0  0
  8  2  1  0  0  0  0
 10  1  2  0  0  0  0
 10  6  1  0  0  0  0
 11  5  1  0  0  0  0
 11  4  2  0  0  0  0
 12 15  2  0  0  0  0
 13 18  2  0  0  0  0
 14 20  1  0  0  0  0
 14 17  2  0  0  0  0
 15 18  1  0  0  0  0
 17 13  1  0  0  0  0
 18 16  1  0  0  0  0
 19 14  1  0  0  0  0
 20 12  1  0  0  0  0
 21  1  1  0  0  0  0
 22 21  2  0  0  0  0
 23 27  1  1  0  0  0
 23 26  1  0  0  0  0
 24 22  1  0  0  0  0
 26 25  1  1  0  0  0
 26 21  1  0  0  0  0
 28 23  1  0  0  0  0
 28 24  1  0  0  0  0
M  END
>  <MODEL>
5

>  <REMARK>
 VINA RESULT:      -9.3      3.705      7.035
  Name = 
  2 active torsions:
  status: ('A' for Active; 'I' for Inactive)
    1  A    between atoms: C_1  and  C_2
    2  A    between atoms: C_10  and  C_13
                            x       y       z     vdW  Elec       q    Type
                         _______ _______ _______ _____ _____    ______ ____

>  <TORSDO>
F 2

$$$$
=
 OpenBabel10272401473D

 28 31  0  0  1  0  0  0  0  0999 V2000
  188.7890  177.9450  140.1340 C   0  0  0  0  0  0  0  0  0  0  0  0
  193.2870  177.0760  140.2210 Cl  0  0  0  0  0  0  0  0  0  0  0  0
  189.2950  177.3670  143.8010 C   0  0  0  0  0  0  0  0  0  0  0  0
  190.8080  177.4070  141.4180 C   0  0  0  0  0  0  0  0  0  0  0  0
  188.6810  177.6400  142.5710 C   0  0  0  0  0  3  0  0  0  0  0  0
  190.9280  177.6530  139.0110 C   0  0  0  0  0  3  0  0  0  0  0  0
  191.4220  177.1310  142.6470 C   0  0  0  0  0  3  0  0  0  0  0  0
  191.5580  177.4030  140.2290 C   0  0  0  0  0  0  0  0  0  0  0  0
  190.6740  177.1110  143.8250 C   0  0  0  0  0  3  0  0  0  0  0  0
  189.5610  177.9180  138.9630 C   0  0  0  0  0  3  0  0  0  0  0  0
  189.4160  177.6760  141.3760 C   0  0  0  0  0  0  0  0  0  0  0  0
  187.1530  177.2890  144.9390 C   0  0  0  0  0  3  0  0  0  0  0  0
  188.7390  177.9760  147.4600 C   0  0  0  0  0  3  0  0  0  0  0  0
  186.3560  178.4620  146.9370 C   0  0  0  0  0  0  0  0  0  0  0  0
  188.4890  177.3160  145.0510 C   0  0  0  0  0  0  0  0  0  0  0  0
  190.4400  176.5380  146.5430 C   0  0  0  0  0  1  0  0  0  0  0  0
  187.4910  178.7560  147.5710 C   0  0  0  0  0  3  0  0  0  0  0  0
  189.1670  177.2980  146.3850 C   0  0  0  0  0  0  0  0  0  0  0  0
  185.2590  179.3000  147.0880 O   0  0  0  0  0  1  0  0  0  0  0  0
  186.2210  177.2320  146.1030 C   0  0  0  0  0  2  0  0  0  0  0  0
  187.3410  178.2550  140.0140 C   0  0  0  0  0  0  0  0  0  0  0  0
  186.6830  178.6670  141.1050 C   0  0  0  0  0  3  0  0  0  0  0  0
  185.1380  178.5150  138.7380 C   0  0  1  0  0  3  0  0  0  0  0  0
  185.2240  179.0140  141.0620 C   0  0  0  0  0  2  0  0  0  0  0  0
  186.9270  176.9400  137.9090 C   0  0  0  0  0  1  0  0  0  0  0  0
  186.6490  178.2330  138.6630 C   0  0  2  0  0  3  0  0  0  0  0  0
  184.4100  177.3630  139.0060 F   0  0  0  0  0  0  0  0  0  0  0  0
  184.8570  179.5390  139.7460 N   0  0  0  0  0  2  0  0  0  0  0  0
  1 11  1  0  0  0  0
  2  8  1  0  0  0  0
  3  9  1  0  0  0  0
  3 15  1  0  0  0  0
  4  7  1  0  0  0  0
  5  3  2  0  0  0  0
  6  8  2  0  0  0  0
  7  9  2  0  0  0  0
  8  4  1  0  0  0  0
 10  6  1  0  0  0  0
 10  1  2  0  0  0  0
 11  4  2  0  0  0  0
 11  5  1  0  0  0  0
 12 15  2  0  0  0  0
 12 20  1  0  0  0  0
 13 17  1  0  0  0  0
 14 19  1  0  0  0  0
 14 17  2  0  0  0  0
 15 18  1  0  0  0  0
 18 16  1  0  0  0  0
 18 13  2  0  0  0  0
 20 14  1  0  0  0  0
 21  1  1  0  0  0  0
 21 22  2  0  0  0  0
 23 27  1  1  0  0  0
 23 28  1  0  0  0  0
 24 22  1  0  0  0  0
 26 25  1  1  0  0  0
 26 23  1  0  0  0  0
 26 21  1  0  0  0  0
 28 24  1  0  0  0  0
M  END
>  <MODEL>
6

>  <REMARK>
 VINA RESULT:      -9.1      3.518      6.521
  Name = 
  2 active torsions:
  status: ('A' for Active; 'I' for Inactive)
    1  A    between atoms: C_1  and  C_2
    2  A    between atoms: C_10  and  C_13
                            x       y       z     vdW  Elec       q    Type
                         _______ _______ _______ _____ _____    ______ ____

>  <TORSDO>
F 2

$$$$
=
 OpenBabel10272401473D

 28 31  0  0  1  0  0  0  0  0999 V2000
  188.0290  177.5530  144.4160 C   0  0  0  0  0  0  0  0  0  0  0  0
  184.5810  178.3100  147.3370 Cl  0  0  0  0  0  0  0  0  0  0  0  0
  185.3380  178.6010  142.0280 C   0  0  0  0  0  0  0  0  0  0  0  0
  185.7050  178.2340  144.8030 C   0  0  0  0  0  0  0  0  0  0  0  0
  186.5730  178.1720  142.5340 C   0  0  0  0  0  3  0  0  0  0  0  0
  187.1070  177.5800  146.6670 C   0  0  0  0  0  3  0  0  0  0  0  0
  184.4690  178.6600  144.2990 C   0  0  0  0  0  3  0  0  0  0  0  0
  185.8800  178.0290  146.1830 C   0  0  0  0  0  0  0  0  0  0  0  0
  184.2870  178.8400  142.9270 C   0  0  0  0  0  3  0  0  0  0  0  0
  188.1680  177.3430  145.7950 C   0  0  0  0  0  3  0  0  0  0  0  0
  186.7810  177.9950  143.9100 C   0  0  0  0  0  0  0  0  0  0  0  0
  183.9890  179.3100  140.1390 C   0  0  0  0  0  3  0  0  0  0  0  0
  185.9560  177.7020  138.4400 C   0  0  0  0  0  3  0  0  0  0  0  0
  183.5720  178.2380  137.9760 C   0  0  0  0  0  0  0  0  0  0  0  0
  185.1380  178.7630  140.5630 C   0  0  0  0  0  0  0  0  0  0  0  0
  187.6320  178.5110  139.9690 C   0  0  0  0  0  1  0  0  0  0  0  0
  184.6330  177.4450  137.8370 C   0  0  0  0  0  3  0  0  0  0  0  0
  186.1990  178.3230  139.6050 C   0  0  0  0  0  0  0  0  0  0  0  0
  182.3660  177.8650  137.3960 O   0  0  0  0  0  1  0  0  0  0  0  0
  183.6560  179.5380  138.7030 C   0  0  0  0  0  2  0  0  0  0  0  0
  189.2050  177.3010  143.5450 C   0  0  0  0  0  0  0  0  0  0  0  0
  189.3560  176.0830  143.0080 C   0  0  0  0  0  3  0  0  0  0  0  0
  191.3440  177.9730  142.3090 C   0  0  1  0  0  3  0  0  0  0  0  0
  190.5090  175.7550  142.1070 C   0  0  0  0  0  2  0  0  0  0  0  0
  190.6110  179.2130  144.3810 C   0  0  0  0  0  1  0  0  0  0  0  0
  190.1460  178.4300  143.1620 C   0  0  2  0  0  3  0  0  0  0  0  0
  192.3920  177.5140  143.0950 F   0  0  0  0  0  0  0  0  0  0  0  0
  190.9320  176.9390  141.3580 N   0  0  0  0  0  2  0  0  0  0  0  0
  1 10  1  0  0  0  0
  3  5  2  0  0  0  0
  3  9  1  0  0  0  0
  4  8  2  0  0  0  0
  5 11  1  0  0  0  0
  7  4  1  0  0  0  0
  8  6  1  0  0  0  0
  8  2  1  0  0  0  0
  9  7  2  0  0  0  0
 10  6  2  0  0  0  0
 11  1  2  0  0  0  0
 11  4  1  0  0  0  0
 12 15  2  0  0  0  0
 13 18  2  0  0  0  0
 14 20  1  0  0  0  0
 15  3  1  0  0  0  0
 17 14  2  0  0  0  0
 17 13  1  0  0  0  0
 18 16  1  0  0  0  0
 18 15  1  0  0  0  0
 19 14  1  0  0  0  0
 20 12  1  0  0  0  0
 21  1  1  0  0  0  0
 22 21  2  0  0  0  0
 23 27  1  1  0  0  0
 23 26  1  0  0  0  0
 24 22  1  0  0  0  0
 26 21  1  0  0  0  0
 26 25  1  1  0  0  0
 28 24  1  0  0  0  0
 28 23  1  0  0  0  0
M  END
>  <MODEL>
7

>  <REMARK>
 VINA RESULT:      -9.0      2.013      2.758
  Name = 
  2 active torsions:
  status: ('A' for Active; 'I' for Inactive)
    1  A    between atoms: C_1  and  C_2
    2  A    between atoms: C_10  and  C_13
                            x       y       z     vdW  Elec       q    Type
                         _______ _______ _______ _____ _____    ______ ____

>  <TORSDO>
F 2

$$$$
=
 OpenBabel10272401473D

 28 31  0  0  1  0  0  0  0  0999 V2000
  185.2330  178.3500  143.8960 C   0  0  0  0  0  0  0  0  0  0  0  0
  187.8230  177.7090  147.6200 Cl  0  0  0  0  0  0  0  0  0  0  0  0
  188.5860  177.8350  142.3060 C   0  0  0  0  0  0  0  0  0  0  0  0
  187.4330  177.8970  144.8820 C   0  0  0  0  0  0  0  0  0  0  0  0
  187.2150  178.0760  142.4680 C   0  0  0  0  0  3  0  0  0  0  0  0
  185.5020  178.2140  146.3100 C   0  0  0  0  0  3  0  0  0  0  0  0
  188.8040  177.6610  144.7220 C   0  0  0  0  0  3  0  0  0  0  0  0
  186.8630  177.9510  146.1660 C   0  0  0  0  0  0  0  0  0  0  0  0
  189.3740  177.6310  143.4480 C   0  0  0  0  0  3  0  0  0  0  0  0
  184.6970  178.4130  145.1900 C   0  0  0  0  0  3  0  0  0  0  0  0
  186.6190  178.0990  143.7380 C   0  0  0  0  0  0  0  0  0  0  0  0
  188.4810  178.3440  139.9350 C   0  0  0  0  0  3  0  0  0  0  0  0
  190.9300  176.5330  139.6840 C   0  0  0  0  0  3  0  0  0  0  0  0
  189.1880  177.0410  137.9840 C   0  0  0  0  0  0  0  0  0  0  0  0
  189.1970  177.8350  140.9490 C   0  0  0  0  0  0  0  0  0  0  0  0
  191.6080  177.4890  141.7890 C   0  0  0  0  0  1  0  0  0  0  0  0
  190.1070  176.2250  138.4990 C   0  0  0  0  0  3  0  0  0  0  0  0
  190.5690  177.2770  140.7410 C   0  0  0  0  0  0  0  0  0  0  0  0
  188.4430  176.6190  136.8900 O   0  0  0  0  0  1  0  0  0  0  0  0
  188.9670  178.4130  138.5270 C   0  0  0  0  0  2  0  0  0  0  0  0
  184.3150  178.5510  142.7450 C   0  0  0  0  0  0  0  0  0  0  0  0
  184.8330  178.9530  141.5760 C   0  0  0  0  0  3  0  0  0  0  0  0
  182.0350  178.5210  141.5830 C   0  0  1  0  0  3  0  0  0  0  0  0
  183.9740  179.1630  140.3650 C   0  0  0  0  0  2  0  0  0  0  0  0
  182.2000  178.7880  144.0870 C   0  0  0  0  0  1  0  0  0  0  0  0
  182.8450  178.1850  142.8480 C   0  0  2  0  0  3  0  0  0  0  0  0
  181.5940  179.8370  141.5880 F   0  0  0  0  0  0  0  0  0  0  0  0
  182.8270  178.2550  140.3810 N   0  0  0  0  0  2  0  0  0  0  0  0
  1 10  1  0  0  0  0
  3  5  2  0  0  0  0
  3  9  1  0  0  0  0
  4  8  2  0  0  0  0
  5 11  1  0  0  0  0
  7  4  1  0  0  0  0
  8  6  1  0  0  0  0
  8  2  1  0  0  0  0
  9  7  2  0  0  0  0
 10  6  2  0  0  0  0
 11  1  2  0  0  0  0
 11  4  1  0  0  0  0
 12 15  2  0  0  0  0
 13 18  2  0  0  0  0
 14 17  2  0  0  0  0
 14 20  1  0  0  0  0
 15  3  1  0  0  0  0
 17 13  1  0  0  0  0
 18 15  1  0  0  0  0
 18 16  1  0  0  0  0
 19 14  1  0  0  0  0
 20 12  1  0  0  0  0
 21 26  1  0  0  0  0
 21  1  1  0  0  0  0
 22 21  2  0  0  0  0
 23 27  1  1  0  0  0
 23 26  1  0  0  0  0
 24 28  1  0  0  0  0
 24 22  1  0  0  0  0
 26 25  1  1  0  0  0
 28 23  1  0  0  0  0
M  END
>  <MODEL>
8

>  <REMARK>
 VINA RESULT:      -8.7      3.408      6.297
  Name = 
  2 active torsions:
  status: ('A' for Active; 'I' for Inactive)
    1  A    between atoms: C_1  and  C_2
    2  A    between atoms: C_10  and  C_13
                            x       y       z     vdW  Elec       q    Type
                         _______ _______ _______ _____ _____    ______ ____

>  <TORSDO>
F 2

$$$$
=
 OpenBabel10272401473D

 28 31  0  0  1  0  0  0  0  0999 V2000
  185.6380  178.6050  140.3370 C   0  0  0  0  0  0  0  0  0  0  0  0
  181.3880  179.5380  141.7720 Cl  0  0  0  0  0  0  0  0  0  0  0  0
  185.9820  177.8680  143.9950 C   0  0  0  0  0  0  0  0  0  0  0  0
  184.0080  178.7220  142.1670 C   0  0  0  0  0  0  0  0  0  0  0  0
  186.2890  178.0260  142.6360 C   0  0  0  0  0  3  0  0  0  0  0  0
  183.3580  179.3450  139.9170 C   0  0  0  0  0  3  0  0  0  0  0  0
  183.7010  178.5680  143.5250 C   0  0  0  0  0  3  0  0  0  0  0  0
  183.0300  179.1710  141.2610 C   0  0  0  0  0  0  0  0  0  0  0  0
  184.6770  178.1460  144.4280 C   0  0  0  0  0  3  0  0  0  0  0  0
  184.6460  179.0680  139.4610 C   0  0  0  0  0  3  0  0  0  0  0  0
  185.3200  178.4380  141.7080 C   0  0  0  0  0  0  0  0  0  0  0  0
  186.7460  177.5040  146.2700 C   0  0  0  0  0  3  0  0  0  0  0  0
  189.5370  177.2920  145.0430 C   0  0  0  0  0  3  0  0  0  0  0  0
  188.8940  178.0030  147.3380 C   0  0  0  0  0  0  0  0  0  0  0  0
  187.0330  177.4470  144.9610 C   0  0  0  0  0  0  0  0  0  0  0  0
  188.4350  176.1640  143.2210 C   0  0  0  0  0  1  0  0  0  0  0  0
  189.7300  178.0380  146.3010 C   0  0  0  0  0  3  0  0  0  0  0  0
  188.3650  176.9790  144.4680 C   0  0  0  0  0  0  0  0  0  0  0  0
  189.1620  178.7860  148.4530 O   0  0  0  0  0  1  0  0  0  0  0  0
  187.6970  177.1100  147.3480 C   0  0  0  0  0  2  0  0  0  0  0  0
  186.9830  178.3090  139.7810 C   0  0  0  0  0  0  0  0  0  0  0  0
  188.0550  178.5070  140.5600 C   0  0  0  0  0  3  0  0  0  0  0  0
  188.6010  177.4980  137.9720 C   0  0  1  0  0  3  0  0  0  0  0  0
  189.4450  178.2170  140.0760 C   0  0  0  0  0  2  0  0  0  0  0  0
  186.3320  178.4130  137.3530 C   0  0  0  0  0  1  0  0  0  0  0  0
  187.1370  177.6720  138.4120 C   0  0  2  0  0  3  0  0  0  0  0  0
  189.1000  178.6470  137.3720 F   0  0  0  0  0  0  0  0  0  0  0  0
  189.4370  177.1160  139.1120 N   0  0  0  0  0  2  0  0  0  0  0  0
  1 11  1  0  0  0  0
  3  9  1  0  0  0  0
  3 15  1  0  0  0  0
  4  7  1  0  0  0  0
  5  3  2  0  0  0  0
  6  8  2  0  0  0  0
  7  9  2  0  0  0  0
  8  2  1  0  0  0  0
  8  4  1  0  0  0  0
 10  6  1  0  0  0  0
 10  1  2  0  0  0  0
 11  4  2  0  0  0  0
 11  5  1  0  0  0  0
 12 20  1  0  0  0  0
 13 17  1  0  0  0  0
 14 20  1  0  0  0  0
 14 19  1  0  0  0  0
 15 12  2  0  0  0  0
 16 18  1  0  0  0  0
 17 14  2  0  0  0  0
 18 15  1  0  0  0  0
 18 13  2  0  0  0  0
 21  1  1  0  0  0  0
 21 22  2  0  0  0  0
 23 27  1  1  0  0  0
 23 26  1  0  0  0  0
 23 28  1  0  0  0  0
 24 22  1  0  0  0  0
 26 25  1  6  0  0  0
 26 21  1  0  0  0  0
 28 24  1  0  0  0  0
M  END
>  <MODEL>
9

>  <REMARK>
 VINA RESULT:      -8.4      3.465      6.237
  Name = 
  2 active torsions:
  status: ('A' for Active; 'I' for Inactive)
    1  A    between atoms: C_1  and  C_2
    2  A    between atoms: C_10  and  C_13
                            x       y       z     vdW  Elec       q    Type
                         _______ _______ _______ _____ _____    ______ ____

>  <TORSDO>
F 2

$$$$
