=
 OpenBabel10272413323D

 32 36  0  0  1  0  0  0  0  0999 V2000
  183.9190  178.7540  145.3750 C   0  0  0  0  0  2  0  0  0  0  0  0
  187.2100  178.1980  141.4640 C   0  0  0  0  0  0  0  0  0  0  0  0
  191.6660  178.5500  142.8630 N   0  0  0  0  0  2  0  0  0  0  0  0
  192.1340  177.3860  142.1200 C   0  0  0  0  0  2  0  0  0  0  0  0
  185.2850  178.7170  142.8460 C   0  0  0  0  0  0  0  0  0  0  0  0
  187.3790  178.0490  143.8740 C   0  0  0  0  0  3  0  0  0  0  0  0
  185.4430  178.5980  145.3920 C   0  0  2  0  0  3  0  0  0  0  0  0
  190.3420  178.2780  143.4330 C   0  0  0  0  0  2  0  0  0  0  0  0
  187.9780  177.9500  142.6110 C   0  0  0  0  0  0  0  0  0  0  0  0
  189.4080  177.4970  142.4830 C   0  0  1  0  0  3  0  0  0  0  0  0
  189.0260  177.7280  139.9730 C   0  0  0  0  0  0  0  0  0  0  0  0
  183.4930  179.7140  144.2760 C   0  0  0  0  0  2  0  0  0  0  0  0
  186.0310  178.4100  144.0080 C   0  0  0  0  0  0  0  0  0  0  0  0
  183.8390  179.1070  142.9220 C   0  0  0  0  0  2  0  0  0  0  0  0
  191.3220  177.2630  140.8370 C   0  0  0  0  0  2  0  0  0  0  0  0
  189.9040  177.5200  141.0940 N   0  0  0  0  0  0  0  0  0  0  0  0
  185.8730  178.5830  141.5870 C   0  0  0  0  0  3  0  0  0  0  0  0
  187.7810  178.0490  140.1630 N   0  0  0  0  0  0  0  0  0  0  0  0
  185.8180  177.4470  146.3150 C   0  0  0  0  0  2  0  0  0  0  0  0
  187.9870  177.6690  147.5770 C   0  0  0  0  0  0  0  0  0  0  0  0
  186.5930  177.9410  147.4420 N   0  0  0  0  0  2  0  0  0  0  0  0
  188.5940  176.9850  146.7100 O   0  0  0  0  0  0  0  0  0  0  0  0
  188.6990  178.1760  148.7000 N   0  0  0  0  0  1  0  0  0  0  0  0
  189.5280  177.6020  138.6730 O   0  0  0  0  0  0  0  0  0  0  0  0
  190.5170  175.6340  137.6480 C   0  0  2  0  0  3  0  0  0  0  0  0
  191.2100  175.9240  136.3150 C   0  0  0  0  0  2  0  0  0  0  0  0
  188.6260  176.9700  136.5240 C   0  0  1  0  0  3  0  0  0  0  0  0
  188.8040  175.9400  135.4140 C   0  0  0  0  0  2  0  0  0  0  0  0
  190.2870  175.6940  135.1090 C   0  0  0  0  0  2  0  0  0  0  0  0
  190.2010  174.2770  137.7400 O   0  0  0  0  0  1  0  0  0  0  0  0
  187.1520  177.2520  136.7240 C   0  0  0  0  0  1  0  0  0  0  0  0
  189.2460  176.4820  137.8410 C   0  0  2  0  0  3  0  0  0  0  0  0
  1  7  1  0  0  0  0
  2 17  2  0  0  0  0
  2  9  1  0  0  0  0
  3  8  1  0  0  0  0
  4  3  1  0  0  0  0
  5 14  1  0  0  0  0
  5 13  2  0  0  0  0
  6 13  1  0  0  0  0
  7 19  1  1  0  0  0
  9  6  2  0  0  0  0
 10  9  1  0  0  0  0
 10  8  1  1  0  0  0
 11 18  2  0  0  0  0
 11 16  1  0  0  0  0
 12  1  1  0  0  0  0
 13  7  1  0  0  0  0
 14 12  1  0  0  0  0
 15 16  1  0  0  0  0
 15  4  1  0  0  0  0
 16 10  1  0  0  0  0
 17  5  1  0  0  0  0
 18  2  1  0  0  0  0
 19 21  1  0  0  0  0
 20 23  1  0  0  0  0
 21 20  1  0  0  0  0
 22 20  2  0  0  0  0
 24 11  1  0  0  0  0
 25 30  1  6  0  0  0
 25 32  1  0  0  0  0
 26 25  1  0  0  0  0
 27 31  1  1  0  0  0
 27 32  1  0  0  0  0
 28 27  1  0  0  0  0
 29 28  1  0  0  0  0
 29 26  1  0  0  0  0
 32 24  1  1  0  0  0
M  END
>  <MODEL>
1

>  <REMARK>
 VINA RESULT:      -8.9      0.000      0.000
  Name = 
  4 active torsions:
  status: ('A' for Active; 'I' for Inactive)
    1  A    between atoms: N_10  and  C_24
    2  A    between atoms: C_12  and  C_24
    3  A    between atoms: C_16  and  O_27
    4  A    between atoms: O_27  and  C_32
                            x       y       z     vdW  Elec       q    Type
                         _______ _______ _______ _____ _____    ______ ____

>  <TORSDO>
F 4

$$$$
=
 OpenBabel10272413323D

 32 36  0  0  1  0  0  0  0  0999 V2000
  186.7580  177.9930  147.2900 C   0  0  0  0  0  2  0  0  0  0  0  0
  187.5360  177.9900  142.2070 C   0  0  0  0  0  0  0  0  0  0  0  0
  192.0940  178.0420  141.1340 N   0  0  0  0  0  2  0  0  0  0  0  0
  192.0070  176.9990  140.1190 C   0  0  0  0  0  2  0  0  0  0  0  0
  186.6400  178.3240  144.4370 C   0  0  0  0  0  0  0  0  0  0  0  0
  188.8910  177.4680  144.1440 C   0  0  0  0  0  3  0  0  0  0  0  0
  188.0560  177.8100  146.4980 C   0  0  2  0  0  3  0  0  0  0  0  0
  191.2240  177.7090  142.2680 C   0  0  0  0  0  2  0  0  0  0  0  0
  188.7520  177.5550  142.7520 C   0  0  0  0  0  0  0  0  0  0  0  0
  189.8680  177.1010  141.8490 C   0  0  1  0  0  3  0  0  0  0  0  0
  188.2880  177.7250  139.9480 C   0  0  0  0  0  0  0  0  0  0  0  0
  185.9260  179.1190  146.6970 C   0  0  0  0  0  2  0  0  0  0  0  0
  187.8390  177.8280  144.9980 C   0  0  0  0  0  0  0  0  0  0  0  0
  185.4770  178.7230  145.2970 C   0  0  0  0  0  2  0  0  0  0  0  0
  190.6480  177.0910  139.4360 C   0  0  0  0  0  2  0  0  0  0  0  0
  189.5900  177.3300  140.4190 N   0  0  0  0  0  0  0  0  0  0  0  0
  186.4900  178.3760  143.0490 C   0  0  0  0  0  3  0  0  0  0  0  0
  187.3490  178.0350  140.7920 N   0  0  0  0  0  0  0  0  0  0  0  0
  188.7370  176.5230  146.9440 C   0  0  0  0  0  2  0  0  0  0  0  0
  191.2190  176.6430  147.3620 C   0  0  0  0  0  0  0  0  0  0  0  0
  189.8740  176.8280  147.7990 N   0  0  0  0  0  2  0  0  0  0  0  0
  191.4630  176.2050  146.2060 O   0  0  0  0  0  0  0  0  0  0  0  0
  192.2940  176.9560  148.2390 N   0  0  0  0  0  1  0  0  0  0  0  0
  188.0450  177.7920  138.5710 O   0  0  0  0  0  0  0  0  0  0  0  0
  187.8370  175.9840  136.9630 C   0  0  2  0  0  3  0  0  0  0  0  0
  187.8070  176.4610  135.5100 C   0  0  0  0  0  2  0  0  0  0  0  0
  186.0530  177.8220  137.2070 C   0  0  1  0  0  3  0  0  0  0  0  0
  185.3740  177.0600  136.0750 C   0  0  0  0  0  2  0  0  0  0  0  0
  186.3780  176.6620  134.9860 C   0  0  0  0  0  2  0  0  0  0  0  0
  187.2760  174.7090  137.0620 O   0  0  0  0  0  1  0  0  0  0  0  0
  185.0120  178.2790  138.2090 C   0  0  0  0  0  1  0  0  0  0  0  0
  187.1050  176.9530  137.9100 C   0  0  2  0  0  3  0  0  0  0  0  0
  2  9  2  0  0  0  0
  2 17  1  0  0  0  0
  3  8  1  0  0  0  0
  4  3  1  0  0  0  0
  5 13  1  0  0  0  0
  5 14  1  0  0  0  0
  6 13  2  0  0  0  0
  7 19  1  1  0  0  0
  7  1  1  0  0  0  0
  9  6  1  0  0  0  0
 10  8  1  1  0  0  0
 10  9  1  0  0  0  0
 11 16  1  0  0  0  0
 11 18  2  0  0  0  0
 12  1  1  0  0  0  0
 13  7  1  0  0  0  0
 14 12  1  0  0  0  0
 15  4  1  0  0  0  0
 15 16  1  0  0  0  0
 16 10  1  0  0  0  0
 17  5  2  0  0  0  0
 18  2  1  0  0  0  0
 19 21  1  0  0  0  0
 20 21  1  0  0  0  0
 20 23  1  0  0  0  0
 22 20  2  0  0  0  0
 24 11  1  0  0  0  0
 25 30  1  6  0  0  0
 25 32  1  0  0  0  0
 26 25  1  0  0  0  0
 27 32  1  0  0  0  0
 27 31  1  1  0  0  0
 28 27  1  0  0  0  0
 29 26  1  0  0  0  0
 29 28  1  0  0  0  0
 32 24  1  6  0  0  0
M  END
>  <MODEL>
2

>  <REMARK>
 VINA RESULT:      -8.7      1.803      2.571
  Name = 
  4 active torsions:
  status: ('A' for Active; 'I' for Inactive)
    1  A    between atoms: N_10  and  C_24
    2  A    between atoms: C_12  and  C_24
    3  A    between atoms: C_16  and  O_27
    4  A    between atoms: O_27  and  C_32
                            x       y       z     vdW  Elec       q    Type
                         _______ _______ _______ _____ _____    ______ ____

>  <TORSDO>
F 4

$$$$
=
 OpenBabel10272413323D

 32 36  0  0  1  0  0  0  0  0999 V2000
  187.0440  177.9630  146.9590 C   0  0  0  0  0  2  0  0  0  0  0  0
  185.3980  178.4690  142.1150 C   0  0  0  0  0  0  0  0  0  0  0  0
  188.9380  179.1580  139.1270 N   0  0  0  0  0  2  0  0  0  0  0  0
  188.4680  178.1980  138.1350 C   0  0  0  0  0  2  0  0  0  0  0  0
  185.6060  178.5090  144.5320 C   0  0  0  0  0  0  0  0  0  0  0  0
  187.5240  177.9570  143.1530 C   0  0  0  0  0  3  0  0  0  0  0  0
  187.8430  178.0030  145.6530 C   0  0  2  0  0  3  0  0  0  0  0  0
  188.7120  178.6310  140.4780 C   0  0  0  0  0  2  0  0  0  0  0  0
  186.7560  178.1400  141.9950 C   0  0  0  0  0  0  0  0  0  0  0  0
  187.3610  177.9000  140.6380 C   0  0  1  0  0  3  0  0  0  0  0  0
  185.0460  178.4810  139.7450 C   0  0  0  0  0  0  0  0  0  0  0  0
  185.9570  179.0260  146.9530 C   0  0  0  0  0  2  0  0  0  0  0  0
  186.9600  178.1170  144.4270 C   0  0  0  0  0  0  0  0  0  0  0  0
  184.9430  178.6940  145.8650 C   0  0  0  0  0  2  0  0  0  0  0  0
  186.9440  178.1800  138.1520 C   0  0  0  0  0  2  0  0  0  0  0  0
  186.4420  178.2100  139.5270 N   0  0  0  0  0  0  0  0  0  0  0  0
  184.8320  178.6560  143.3780 C   0  0  0  0  0  3  0  0  0  0  0  0
  184.5800  178.6060  140.9520 N   0  0  0  0  0  0  0  0  0  0  0  0
  188.7410  176.7760  145.5780 C   0  0  0  0  0  2  0  0  0  0  0  0
  191.0590  176.8100  146.5650 C   0  0  0  0  0  0  0  0  0  0  0  0
  189.6420  176.7440  146.7190 N   0  0  0  0  0  2  0  0  0  0  0  0
  191.5750  176.9000  145.4190 O   0  0  0  0  0  0  0  0  0  0  0  0
  191.8950  176.7740  147.7150 N   0  0  0  0  0  1  0  0  0  0  0  0
  184.1930  178.6310  138.6450 O   0  0  0  0  0  0  0  0  0  0  0  0
  183.6360  176.3520  138.0150 C   0  0  2  0  0  3  0  0  0  0  0  0
  183.6470  176.1170  136.5030 C   0  0  0  0  0  2  0  0  0  0  0  0
  182.1980  178.3670  137.3100 C   0  0  1  0  0  3  0  0  0  0  0  0
  181.3680  177.2980  136.6080 C   0  0  0  0  0  2  0  0  0  0  0  0
  182.2590  176.2920  135.8700 C   0  0  0  0  0  2  0  0  0  0  0  0
  182.8690  175.3720  138.6480 O   0  0  0  0  0  1  0  0  0  0  0  0
  181.2790  179.3920  137.9430 C   0  0  0  0  0  1  0  0  0  0  0  0
  183.1060  177.7500  138.3840 C   0  0  2  0  0  3  0  0  0  0  0  0
  2 17  1  0  0  0  0
  3  8  1  0  0  0  0
  4 15  1  0  0  0  0
  4  3  1  0  0  0  0
  5 14  1  0  0  0  0
  6 13  2  0  0  0  0
  7 19  1  6  0  0  0
  7  1  1  0  0  0  0
  9  2  2  0  0  0  0
  9  6  1  0  0  0  0
 10  8  1  6  0  0  0
 10  9  1  0  0  0  0
 11 18  2  0  0  0  0
 12  1  1  0  0  0  0
 13  5  1  0  0  0  0
 13  7  1  0  0  0  0
 14 12  1  0  0  0  0
 15 16  1  0  0  0  0
 16 11  1  0  0  0  0
 16 10  1  0  0  0  0
 17  5  2  0  0  0  0
 18  2  1  0  0  0  0
 19 21  1  0  0  0  0
 20 21  1  0  0  0  0
 20 23  1  0  0  0  0
 22 20  2  0  0  0  0
 24 11  1  0  0  0  0
 25 32  1  0  0  0  0
 25 30  1  1  0  0  0
 26 25  1  0  0  0  0
 27 31  1  1  0  0  0
 27 32  1  0  0  0  0
 28 27  1  0  0  0  0
 29 26  1  0  0  0  0
 29 28  1  0  0  0  0
 32 24  1  6  0  0  0
M  END
>  <MODEL>
3

>  <REMARK>
 VINA RESULT:      -8.6      3.213      4.652
  Name = 
  4 active torsions:
  status: ('A' for Active; 'I' for Inactive)
    1  A    between atoms: N_10  and  C_24
    2  A    between atoms: C_12  and  C_24
    3  A    between atoms: C_16  and  O_27
    4  A    between atoms: O_27  and  C_32
                            x       y       z     vdW  Elec       q    Type
                         _______ _______ _______ _____ _____    ______ ____

>  <TORSDO>
F 4

$$$$
=
 OpenBabel10272413323D

 32 36  0  0  1  0  0  0  0  0999 V2000
  186.9880  178.0200  146.6120 C   0  0  0  0  0  2  0  0  0  0  0  0
  185.3990  178.5480  141.7510 C   0  0  0  0  0  0  0  0  0  0  0  0
  188.9800  179.1640  138.7960 N   0  0  0  0  0  2  0  0  0  0  0  0
  188.5010  178.2110  137.8020 C   0  0  0  0  0  2  0  0  0  0  0  0
  185.5840  178.5890  144.1700 C   0  0  0  0  0  0  0  0  0  0  0  0
  187.5050  177.9980  142.8110 C   0  0  0  0  0  3  0  0  0  0  0  0
  187.8000  178.0420  145.3140 C   0  0  2  0  0  3  0  0  0  0  0  0
  188.7310  178.6440  140.1460 C   0  0  0  0  0  2  0  0  0  0  0  0
  186.7520  178.1930  141.6450 C   0  0  0  0  0  0  0  0  0  0  0  0
  187.3650  177.9380  140.2940 C   0  0  1  0  0  3  0  0  0  0  0  0
  185.0700  178.5630  139.3780 C   0  0  0  0  0  0  0  0  0  0  0  0
  185.9210  179.1030  146.5930 C   0  0  0  0  0  2  0  0  0  0  0  0
  186.9320  178.1700  144.0790 C   0  0  0  0  0  0  0  0  0  0  0  0
  184.9120  178.7880  145.4960 C   0  0  0  0  0  2  0  0  0  0  0  0
  186.9780  178.2230  137.8040 C   0  0  0  0  0  2  0  0  0  0  0  0
  186.4630  178.2640  139.1740 N   0  0  0  0  0  0  0  0  0  0  0  0
  184.8250  178.7480  143.0080 C   0  0  0  0  0  3  0  0  0  0  0  0
  184.5950  178.6990  140.5810 N   0  0  0  0  0  0  0  0  0  0  0  0
  188.6750  176.7970  145.2490 C   0  0  0  0  0  2  0  0  0  0  0  0
  191.0280  176.7720  146.1500 C   0  0  0  0  0  0  0  0  0  0  0  0
  189.6170  176.7890  146.3580 N   0  0  0  0  0  2  0  0  0  0  0  0
  191.5040  176.7650  144.9830 O   0  0  0  0  0  0  0  0  0  0  0  0
  191.9050  176.7640  147.2690 N   0  0  0  0  0  1  0  0  0  0  0  0
  184.2310  178.7270  138.2700 O   0  0  0  0  0  0  0  0  0  0  0  0
  181.8520  178.4860  138.6950 C   0  0  2  0  0  3  0  0  0  0  0  0
  181.5360  177.8090  140.0300 C   0  0  0  0  0  2  0  0  0  0  0  0
  183.4230  176.4600  138.4700 C   0  0  1  0  0  3  0  0  0  0  0  0
  182.1480  175.6710  138.7450 C   0  0  0  0  0  2  0  0  0  0  0  0
  181.3380  176.2930  139.8890 C   0  0  0  0  0  2  0  0  0  0  0  0
  180.7570  178.3830  137.8340 O   0  0  0  0  0  1  0  0  0  0  0  0
  184.2370  175.7580  137.4030 C   0  0  0  0  0  1  0  0  0  0  0  0
  183.1040  177.8930  138.0220 C   0  0  2  0  0  3  0  0  0  0  0  0
  2 17  1  0  0  0  0
  3  8  1  0  0  0  0
  4 15  1  0  0  0  0
  4  3  1  0  0  0  0
  5 14  1  0  0  0  0
  6 13  2  0  0  0  0
  7 19  1  6  0  0  0
  7  1  1  0  0  0  0
  9  2  2  0  0  0  0
  9  6  1  0  0  0  0
 10  8  1  6  0  0  0
 10  9  1  0  0  0  0
 11 18  2  0  0  0  0
 12  1  1  0  0  0  0
 13  5  1  0  0  0  0
 13  7  1  0  0  0  0
 14 12  1  0  0  0  0
 15 16  1  0  0  0  0
 16 11  1  0  0  0  0
 16 10  1  0  0  0  0
 17  5  2  0  0  0  0
 18  2  1  0  0  0  0
 19 21  1  0  0  0  0
 20 21  1  0  0  0  0
 20 23  1  0  0  0  0
 22 20  2  0  0  0  0
 24 11  1  0  0  0  0
 25 30  1  6  0  0  0
 25 26  1  0  0  0  0
 27 31  1  6  0  0  0
 27 28  1  0  0  0  0
 28 29  1  0  0  0  0
 29 26  1  0  0  0  0
 32 24  1  1  0  0  0
 32 27  1  0  0  0  0
 32 25  1  0  0  0  0
M  END
>  <MODEL>
4

>  <REMARK>
 VINA RESULT:      -8.5      3.235      5.101
  Name = 
  4 active torsions:
  status: ('A' for Active; 'I' for Inactive)
    1  A    between atoms: N_10  and  C_24
    2  A    between atoms: C_12  and  C_24
    3  A    between atoms: C_16  and  O_27
    4  A    between atoms: O_27  and  C_32
                            x       y       z     vdW  Elec       q    Type
                         _______ _______ _______ _____ _____    ______ ____

>  <TORSDO>
F 4

$$$$
=
 OpenBabel10272413323D

 32 36  0  0  1  0  0  0  0  0999 V2000
  187.5500  178.4220  136.8250 C   0  0  0  0  0  2  0  0  0  0  0  0
  188.0960  177.7020  141.8860 C   0  0  0  0  0  0  0  0  0  0  0  0
  184.7670  179.9060  144.3360 N   0  0  0  0  0  2  0  0  0  0  0  0
  184.4760  178.7780  145.2130 C   0  0  0  0  0  2  0  0  0  0  0  0
  188.4840  177.9990  139.5100 C   0  0  0  0  0  0  0  0  0  0  0  0
  186.2850  178.4150  140.4470 C   0  0  0  0  0  3  0  0  0  0  0  0
  186.6010  178.7790  137.9730 C   0  0  2  0  0  3  0  0  0  0  0  0
  185.0060  179.4260  142.9700 C   0  0  0  0  0  2  0  0  0  0  0  0
  186.7620  178.1050  141.7270 C   0  0  0  0  0  0  0  0  0  0  0  0
  185.8290  178.1200  142.9080 C   0  0  1  0  0  3  0  0  0  0  0  0
  187.8660  177.3790  144.2490 C   0  0  0  0  0  0  0  0  0  0  0  0
  188.9830  178.7770  137.1870 C   0  0  0  0  0  2  0  0  0  0  0  0
  187.1260  178.3470  139.3270 C   0  0  0  0  0  0  0  0  0  0  0  0
  189.4340  177.9050  138.3520 C   0  0  0  0  0  2  0  0  0  0  0  0
  185.7580  177.9870  145.4400 C   0  0  0  0  0  2  0  0  0  0  0  0
  186.5060  177.8450  144.1900 N   0  0  0  0  0  0  0  0  0  0  0  0
  188.9490  177.6550  140.7820 C   0  0  0  0  0  3  0  0  0  0  0  0
  188.5920  177.3270  143.1720 N   0  0  0  0  0  0  0  0  0  0  0  0
  185.2290  178.1790  137.6930 C   0  0  0  0  0  2  0  0  0  0  0  0
  184.4540  175.8120  137.3160 C   0  0  0  0  0  0  0  0  0  0  0  0
  185.3720  176.8750  137.0650 N   0  0  0  0  0  2  0  0  0  0  0  0
  183.4800  175.9770  138.0980 O   0  0  0  0  0  0  0  0  0  0  0  0
  184.6400  174.5550  136.6780 N   0  0  0  0  0  1  0  0  0  0  0  0
  188.4110  177.0020  145.4820 O   0  0  0  0  0  0  0  0  0  0  0  0
  190.8100  177.0390  145.1040 C   0  0  2  0  0  3  0  0  0  0  0  0
  191.5450  175.8510  145.7280 C   0  0  0  0  0  2  0  0  0  0  0  0
  189.7860  177.1600  147.4610 C   0  0  1  0  0  3  0  0  0  0  0  0
  191.2460  177.1950  147.8970 C   0  0  0  0  0  2  0  0  0  0  0  0
  192.0850  176.1640  147.1310 C   0  0  0  0  0  2  0  0  0  0  0  0
  191.7010  178.0900  144.8780 O   0  0  0  0  0  1  0  0  0  0  0  0
  188.9790  178.1220  148.3080 C   0  0  0  0  0  1  0  0  0  0  0  0
  189.6390  177.5250  145.9770 C   0  0  2  0  0  3  0  0  0  0  0  0
  1 12  1  0  0  0  0
  1  7  1  0  0  0  0
  2 18  1  0  0  0  0
  3  4  1  0  0  0  0
  4 15  1  0  0  0  0
  5 17  1  0  0  0  0
  6  9  2  0  0  0  0
  7 19  1  6  0  0  0
  7 13  1  0  0  0  0
  8  3  1  0  0  0  0
  9  2  1  0  0  0  0
  9 10  1  0  0  0  0
 10  8  1  1  0  0  0
 10 16  1  0  0  0  0
 11 24  1  0  0  0  0
 12 14  1  0  0  0  0
 13  5  2  0  0  0  0
 13  6  1  0  0  0  0
 14  5  1  0  0  0  0
 16 11  1  0  0  0  0
 16 15  1  0  0  0  0
 17  2  2  0  0  0  0
 18 11  2  0  0  0  0
 20 22  2  0  0  0  0
 21 20  1  0  0  0  0
 21 19  1  0  0  0  0
 23 20  1  0  0  0  0
 25 30  1  1  0  0  0
 25 26  1  0  0  0  0
 25 32  1  0  0  0  0
 26 29  1  0  0  0  0
 27 28  1  0  0  0  0
 27 31  1  1  0  0  0
 29 28  1  0  0  0  0
 32 24  1  6  0  0  0
 32 27  1  0  0  0  0
M  END
>  <MODEL>
5

>  <REMARK>
 VINA RESULT:      -8.3      2.735      8.104
  Name = 
  4 active torsions:
  status: ('A' for Active; 'I' for Inactive)
    1  A    between atoms: N_10  and  C_24
    2  A    between atoms: C_12  and  C_24
    3  A    between atoms: C_16  and  O_27
    4  A    between atoms: O_27  and  C_32
                            x       y       z     vdW  Elec       q    Type
                         _______ _______ _______ _____ _____    ______ ____

>  <TORSDO>
F 4

$$$$
=
 OpenBabel10272413323D

 32 36  0  0  1  0  0  0  0  0999 V2000
  184.3950  178.5810  145.1910 C   0  0  0  0  0  2  0  0  0  0  0  0
  187.2570  178.3550  140.9260 C   0  0  0  0  0  0  0  0  0  0  0  0
  191.8390  178.3180  141.8920 N   0  0  0  0  0  2  0  0  0  0  0  0
  192.1630  177.2340  140.9730 C   0  0  0  0  0  2  0  0  0  0  0  0
  185.5080  178.7920  142.5490 C   0  0  0  0  0  0  0  0  0  0  0  0
  187.6470  177.9030  143.2710 C   0  0  0  0  0  3  0  0  0  0  0  0
  185.9010  178.3520  145.0330 C   0  0  2  0  0  3  0  0  0  0  0  0
  190.5620  178.0420  142.5600 C   0  0  0  0  0  2  0  0  0  0  0  0
  188.1150  177.9310  141.9510 C   0  0  0  0  0  0  0  0  0  0  0  0
  189.4960  177.4290  141.6240 C   0  0  1  0  0  3  0  0  0  0  0  0
  188.8900  177.9860  139.2120 C   0  0  0  0  0  0  0  0  0  0  0  0
  183.9240  179.6900  144.2630 C   0  0  0  0  0  2  0  0  0  0  0  0
  186.3420  178.3080  143.5840 C   0  0  0  0  0  0  0  0  0  0  0  0
  184.1010  179.2380  142.8190 C   0  0  0  0  0  2  0  0  0  0  0  0
  191.2260  177.3090  139.7740 C   0  0  0  0  0  2  0  0  0  0  0  0
  189.8580  177.6000  140.2050 N   0  0  0  0  0  0  0  0  0  0  0  0
  185.9640  178.7860  141.2290 C   0  0  0  0  0  3  0  0  0  0  0  0
  187.6900  178.3410  139.5650 N   0  0  0  0  0  0  0  0  0  0  0  0
  186.2940  177.0790  145.7710 C   0  0  0  0  0  2  0  0  0  0  0  0
  188.4680  177.3190  147.0200 C   0  0  0  0  0  0  0  0  0  0  0  0
  187.0460  177.4080  146.9720 N   0  0  0  0  0  2  0  0  0  0  0  0
  189.1220  176.9510  146.0080 O   0  0  0  0  0  0  0  0  0  0  0  0
  189.1550  177.6520  148.2200 N   0  0  0  0  0  1  0  0  0  0  0  0
  189.2570  177.9970  137.8610 O   0  0  0  0  0  0  0  0  0  0  0  0
  187.3340  177.9120  136.3800 C   0  0  2  0  0  3  0  0  0  0  0  0
  186.0690  177.3730  137.0520 C   0  0  0  0  0  2  0  0  0  0  0  0
  188.3460  175.8000  137.4460 C   0  0  1  0  0  3  0  0  0  0  0  0
  187.2150  175.1020  136.6990 C   0  0  0  0  0  2  0  0  0  0  0  0
  185.8920  175.8620  136.8470 C   0  0  0  0  0  2  0  0  0  0  0  0
  187.2310  177.7870  134.9930 O   0  0  0  0  0  1  0  0  0  0  0  0
  189.6080  174.9660  137.3550 C   0  0  0  0  0  1  0  0  0  0  0  0
  188.6060  177.2010  136.8770 C   0  0  2  0  0  3  0  0  0  0  0  0
  2 17  2  0  0  0  0
  2  9  1  0  0  0  0
  3  8  1  0  0  0  0
  4  3  1  0  0  0  0
  5 14  1  0  0  0  0
  5 13  2  0  0  0  0
  6 13  1  0  0  0  0
  7  1  1  0  0  0  0
  7 19  1  6  0  0  0
  9  6  2  0  0  0  0
 10  9  1  0  0  0  0
 10  8  1  1  0  0  0
 11 18  2  0  0  0  0
 11 16  1  0  0  0  0
 12  1  1  0  0  0  0
 13  7  1  0  0  0  0
 14 12  1  0  0  0  0
 15 16  1  0  0  0  0
 15  4  1  0  0  0  0
 16 10  1  0  0  0  0
 17  5  1  0  0  0  0
 18  2  1  0  0  0  0
 19 21  1  0  0  0  0
 20 23  1  0  0  0  0
 21 20  1  0  0  0  0
 22 20  2  0  0  0  0
 24 11  1  0  0  0  0
 25 30  1  6  0  0  0
 25 32  1  0  0  0  0
 25 26  1  0  0  0  0
 27 31  1  6  0  0  0
 28 29  1  0  0  0  0
 28 27  1  0  0  0  0
 29 26  1  0  0  0  0
 32 27  1  0  0  0  0
 32 24  1  1  0  0  0
M  END
>  <MODEL>
6

>  <REMARK>
 VINA RESULT:      -8.2      1.206      2.031
  Name = 
  4 active torsions:
  status: ('A' for Active; 'I' for Inactive)
    1  A    between atoms: N_10  and  C_24
    2  A    between atoms: C_12  and  C_24
    3  A    between atoms: C_16  and  O_27
    4  A    between atoms: O_27  and  C_32
                            x       y       z     vdW  Elec       q    Type
                         _______ _______ _______ _____ _____    ______ ____

>  <TORSDO>
F 4

$$$$
=
 OpenBabel10272413323D

 32 36  0  0  1  0  0  0  0  0999 V2000
  186.8980  177.9730  146.5190 C   0  0  0  0  0  2  0  0  0  0  0  0
  185.2100  178.5380  141.6960 C   0  0  0  0  0  0  0  0  0  0  0  0
  188.7310  179.1450  138.6680 N   0  0  0  0  0  2  0  0  0  0  0  0
  188.2240  178.2020  137.6790 C   0  0  0  0  0  2  0  0  0  0  0  0
  185.4460  178.5640  144.1100 C   0  0  0  0  0  0  0  0  0  0  0  0
  187.3330  177.9680  142.7070 C   0  0  0  0  0  3  0  0  0  0  0  0
  187.6820  177.9960  145.2030 C   0  0  2  0  0  3  0  0  0  0  0  0
  188.5070  178.6200  140.0200 C   0  0  0  0  0  2  0  0  0  0  0  0
  186.5570  178.1740  141.5590 C   0  0  0  0  0  0  0  0  0  0  0  0
  187.1400  177.9230  140.1940 C   0  0  1  0  0  3  0  0  0  0  0  0
  184.8300  178.5670  139.3300 C   0  0  0  0  0  0  0  0  0  0  0  0
  185.8390  179.0630  146.5280 C   0  0  0  0  0  2  0  0  0  0  0  0
  186.7890  178.1370  143.9880 C   0  0  0  0  0  0  0  0  0  0  0  0
  184.8040  178.7610  145.4520 C   0  0  0  0  0  2  0  0  0  0  0  0
  186.7010  178.2230  137.7140 C   0  0  0  0  0  2  0  0  0  0  0  0
  186.2160  178.2610  139.0950 N   0  0  0  0  0  0  0  0  0  0  0  0
  184.6630  178.7350  142.9660 C   0  0  0  0  0  3  0  0  0  0  0  0
  184.3820  178.7000  140.5440 N   0  0  0  0  0  0  0  0  0  0  0  0
  188.5470  176.7460  145.1140 C   0  0  0  0  0  2  0  0  0  0  0  0
  190.5350  176.4540  143.5940 C   0  0  0  0  0  0  0  0  0  0  0  0
  189.8940  177.0990  144.6930 N   0  0  0  0  0  2  0  0  0  0  0  0
  189.9420  175.5500  142.9470 O   0  0  0  0  0  0  0  0  0  0  0  0
  191.8540  176.8360  143.2240 N   0  0  0  0  0  1  0  0  0  0  0  0
  183.9690  178.7430  138.2410 O   0  0  0  0  0  0  0  0  0  0  0  0
  183.3890  176.4180  137.8470 C   0  0  2  0  0  3  0  0  0  0  0  0
  183.5660  175.9830  136.3910 C   0  0  0  0  0  2  0  0  0  0  0  0
  182.1330  178.3600  136.7190 C   0  0  1  0  0  3  0  0  0  0  0  0
  181.3450  177.2310  136.0650 C   0  0  0  0  0  2  0  0  0  0  0  0
  182.2700  176.1100  135.5770 C   0  0  0  0  0  2  0  0  0  0  0  0
  182.5110  175.5530  138.5030 O   0  0  0  0  0  1  0  0  0  0  0  0
  181.1920  179.4860  137.0980 C   0  0  0  0  0  1  0  0  0  0  0  0
  182.8820  177.8670  137.9650 C   0  0  2  0  0  3  0  0  0  0  0  0
  1 12  1  0  0  0  0
  2 17  1  0  0  0  0
  3  8  1  0  0  0  0
  4 15  1  0  0  0  0
  4  3  1  0  0  0  0
  5 14  1  0  0  0  0
  6 13  2  0  0  0  0
  7 19  1  6  0  0  0
  7  1  1  0  0  0  0
  9  2  2  0  0  0  0
  9  6  1  0  0  0  0
 10  8  1  6  0  0  0
 10  9  1  0  0  0  0
 11 18  2  0  0  0  0
 13  5  1  0  0  0  0
 13  7  1  0  0  0  0
 14 12  1  0  0  0  0
 15 16  1  0  0  0  0
 16 11  1  0  0  0  0
 16 10  1  0  0  0  0
 17  5  2  0  0  0  0
 18  2  1  0  0  0  0
 20 21  1  0  0  0  0
 21 19  1  0  0  0  0
 22 20  2  0  0  0  0
 23 20  1  0  0  0  0
 24 11  1  0  0  0  0
 25 32  1  0  0  0  0
 25 30  1  6  0  0  0
 26 25  1  0  0  0  0
 27 31  1  1  0  0  0
 27 32  1  0  0  0  0
 28 27  1  0  0  0  0
 29 28  1  0  0  0  0
 29 26  1  0  0  0  0
 32 24  1  6  0  0  0
M  END
>  <MODEL>
7

>  <REMARK>
 VINA RESULT:      -8.2      3.279      4.948
  Name = 
  4 active torsions:
  status: ('A' for Active; 'I' for Inactive)
    1  A    between atoms: N_10  and  C_24
    2  A    between atoms: C_12  and  C_24
    3  A    between atoms: C_16  and  O_27
    4  A    between atoms: O_27  and  C_32
                            x       y       z     vdW  Elec       q    Type
                         _______ _______ _______ _____ _____    ______ ____

>  <TORSDO>
F 4

$$$$
=
 OpenBabel10272413323D

 32 36  0  0  1  0  0  0  0  0999 V2000
  186.5490  178.0740  145.1980 C   0  0  0  0  0  2  0  0  0  0  0  0
  189.1840  177.4760  140.8240 C   0  0  0  0  0  0  0  0  0  0  0  0
  186.3560  177.2210  137.0990 N   0  0  0  0  0  2  0  0  0  0  0  0
  187.1310  178.1410  136.2760 C   0  0  0  0  0  2  0  0  0  0  0  0
  188.4350  177.4170  143.1300 C   0  0  0  0  0  0  0  0  0  0  0  0
  186.9410  178.1950  141.3840 C   0  0  0  0  0  3  0  0  0  0  0  0
  186.0660  178.1420  143.7470 C   0  0  2  0  0  3  0  0  0  0  0  0
  186.3240  177.6970  138.4860 C   0  0  0  0  0  2  0  0  0  0  0  0
  187.9280  177.9500  140.4190 C   0  0  0  0  0  0  0  0  0  0  0  0
  187.6710  178.2770  138.9720 C   0  0  1  0  0  3  0  0  0  0  0  0
  190.0570  177.4660  138.5930 C   0  0  0  0  0  0  0  0  0  0  0  0
  187.4980  176.9010  145.3900 C   0  0  0  0  0  2  0  0  0  0  0  0
  187.1850  177.9550  142.7430 C   0  0  0  0  0  0  0  0  0  0  0  0
  188.7590  177.1410  144.5690 C   0  0  0  0  0  2  0  0  0  0  0  0
  188.6060  177.9950  136.6320 C   0  0  0  0  0  2  0  0  0  0  0  0
  188.7810  177.8890  138.0810 N   0  0  0  0  0  0  0  0  0  0  0  0
  189.4290  177.2080  142.1720 C   0  0  0  0  0  3  0  0  0  0  0  0
  190.2240  177.2710  139.8670 N   0  0  0  0  0  0  0  0  0  0  0  0
  185.3360  179.4600  143.5240 C   0  0  0  0  0  2  0  0  0  0  0  0
  182.9610  179.0460  144.2550 C   0  0  0  0  0  0  0  0  0  0  0  0
  183.9340  179.2110  143.2260 N   0  0  0  0  0  2  0  0  0  0  0  0
  183.2930  179.1140  145.4690 O   0  0  0  0  0  0  0  0  0  0  0  0
  181.6020  178.8040  143.9090 N   0  0  0  0  0  1  0  0  0  0  0  0
  191.1160  177.2440  137.7040 O   0  0  0  0  0  0  0  0  0  0  0  0
  193.3890  176.4020  137.5540 C   0  0  2  0  0  3  0  0  0  0  0  0
  193.8770  176.2140  136.1160 C   0  0  0  0  0  2  0  0  0  0  0  0
  191.3720  175.0910  136.6410 C   0  0  1  0  0  3  0  0  0  0  0  0
  192.4420  174.0870  136.2280 C   0  0  0  0  0  2  0  0  0  0  0  0
  193.6540  174.7850  135.6010 C   0  0  0  0  0  2  0  0  0  0  0  0
  194.1530  175.6230  138.4260 O   0  0  0  0  0  1  0  0  0  0  0  0
  190.1560  174.3530  137.1640 C   0  0  0  0  0  1  0  0  0  0  0  0
  191.8970  176.0540  137.7140 C   0  0  2  0  0  3  0  0  0  0  0  0
  1 12  1  0  0  0  0
  2 17  1  0  0  0  0
  3  8  1  0  0  0  0
  4 15  1  0  0  0  0
  4  3  1  0  0  0  0
  5 14  1  0  0  0  0
  6 13  2  0  0  0  0
  7 19  1  6  0  0  0
  7  1  1  0  0  0  0
  9  2  2  0  0  0  0
  9  6  1  0  0  0  0
 10  8  1  6  0  0  0
 10  9  1  0  0  0  0
 11 18  2  0  0  0  0
 13  5  1  0  0  0  0
 13  7  1  0  0  0  0
 14 12  1  0  0  0  0
 15 16  1  0  0  0  0
 16 11  1  0  0  0  0
 16 10  1  0  0  0  0
 17  5  2  0  0  0  0
 18  2  1  0  0  0  0
 20 22  2  0  0  0  0
 21 19  1  0  0  0  0
 21 20  1  0  0  0  0
 23 20  1  0  0  0  0
 24 11  1  0  0  0  0
 25 32  1  0  0  0  0
 25 30  1  1  0  0  0
 26 25  1  0  0  0  0
 27 31  1  1  0  0  0
 27 32  1  0  0  0  0
 28 27  1  0  0  0  0
 29 26  1  0  0  0  0
 29 28  1  0  0  0  0
 32 24  1  6  0  0  0
M  END
>  <MODEL>
8

>  <REMARK>
 VINA RESULT:      -8.1      2.500      4.423
  Name = 
  4 active torsions:
  status: ('A' for Active; 'I' for Inactive)
    1  A    between atoms: N_10  and  C_24
    2  A    between atoms: C_12  and  C_24
    3  A    between atoms: C_16  and  O_27
    4  A    between atoms: O_27  and  C_32
                            x       y       z     vdW  Elec       q    Type
                         _______ _______ _______ _____ _____    ______ ____

>  <TORSDO>
F 4

$$$$
=
 OpenBabel10272413323D

 32 36  0  0  1  0  0  0  0  0999 V2000
  191.5180  175.7930  136.0940 C   0  0  0  0  0  2  0  0  0  0  0  0
  189.0770  177.4940  140.2870 C   0  0  0  0  0  0  0  0  0  0  0  0
  191.3360  176.3270  144.2210 N   0  0  0  0  0  2  0  0  0  0  0  0
  191.2250  177.6440  144.8370 C   0  0  0  0  0  2  0  0  0  0  0  0
  189.6250  176.6490  138.0800 C   0  0  0  0  0  0  0  0  0  0  0  0
  191.3260  176.7390  139.8070 C   0  0  0  0  0  3  0  0  0  0  0  0
  191.9810  175.8190  137.5530 C   0  0  2  0  0  3  0  0  0  0  0  0
  191.6070  176.4680  142.7850 C   0  0  0  0  0  2  0  0  0  0  0  0
  190.3900  177.2480  140.7160 C   0  0  0  0  0  0  0  0  0  0  0  0
  190.8100  177.6100  142.1160 C   0  0  1  0  0  3  0  0  0  0  0  0
  188.3870  178.3400  142.4200 C   0  0  0  0  0  0  0  0  0  0  0  0
  190.0710  175.3340  136.0010 C   0  0  0  0  0  2  0  0  0  0  0  0
  190.9670  176.4550  138.4820 C   0  0  0  0  0  0  0  0  0  0  0  0
  189.1770  176.3670  136.6760 C   0  0  0  0  0  2  0  0  0  0  0  0
  189.9180  178.2870  144.3910 C   0  0  0  0  0  2  0  0  0  0  0  0
  189.6890  178.0580  142.9630 N   0  0  0  0  0  0  0  0  0  0  0  0
  188.7010  177.1900  138.9770 C   0  0  0  0  0  3  0  0  0  0  0  0
  188.1180  178.0640  141.1780 N   0  0  0  0  0  0  0  0  0  0  0  0
  193.3290  176.5230  137.6390 C   0  0  0  0  0  2  0  0  0  0  0  0
  194.9540  174.6490  138.0790 C   0  0  0  0  0  0  0  0  0  0  0  0
  194.2210  175.7890  138.5230 N   0  0  0  0  0  2  0  0  0  0  0  0
  194.8490  174.2410  136.8920 O   0  0  0  0  0  0  0  0  0  0  0  0
  195.8130  173.9670  138.9860 N   0  0  0  0  0  1  0  0  0  0  0  0
  187.4020  178.8950  143.2450 O   0  0  0  0  0  0  0  0  0  0  0  0
  185.0270  178.7310  142.7620 C   0  0  2  0  0  3  0  0  0  0  0  0
  184.1760  179.7400  143.5350 C   0  0  0  0  0  2  0  0  0  0  0  0
  185.9870  178.3090  145.1130 C   0  0  1  0  0  3  0  0  0  0  0  0
  184.5220  178.0900  145.4730 C   0  0  0  0  0  2  0  0  0  0  0  0
  183.6230  179.1620  144.8460 C   0  0  0  0  0  2  0  0  0  0  0  0
  184.2350  177.6640  142.3330 O   0  0  0  0  0  1  0  0  0  0  0  0
  186.8470  177.2890  145.8290 C   0  0  0  0  0  1  0  0  0  0  0  0
  186.2090  178.2030  143.5970 C   0  0  2  0  0  3  0  0  0  0  0  0
  1  7  1  0  0  0  0
  2  9  1  0  0  0  0
  2 18  1  0  0  0  0
  3  4  1  0  0  0  0
  5 13  2  0  0  0  0
  5 17  1  0  0  0  0
  6  9  2  0  0  0  0
  7 19  1  6  0  0  0
  7 13  1  0  0  0  0
  8  3  1  0  0  0  0
  9 10  1  0  0  0  0
 10  8  1  1  0  0  0
 10 16  1  0  0  0  0
 11 16  1  0  0  0  0
 11 24  1  0  0  0  0
 12  1  1  0  0  0  0
 12 14  1  0  0  0  0
 13  6  1  0  0  0  0
 14  5  1  0  0  0  0
 15  4  1  0  0  0  0
 16 15  1  0  0  0  0
 17  2  2  0  0  0  0
 18 11  2  0  0  0  0
 19 21  1  0  0  0  0
 20 21  1  0  0  0  0
 20 23  1  0  0  0  0
 22 20  2  0  0  0  0
 25 30  1  1  0  0  0
 25 26  1  0  0  0  0
 25 32  1  0  0  0  0
 26 29  1  0  0  0  0
 27 28  1  0  0  0  0
 27 31  1  1  0  0  0
 29 28  1  0  0  0  0
 32 24  1  6  0  0  0
 32 27  1  0  0  0  0
M  END
>  <MODEL>
9

>  <REMARK>
 VINA RESULT:      -7.9      2.606      8.259
  Name = 
  4 active torsions:
  status: ('A' for Active; 'I' for Inactive)
    1  A    between atoms: N_10  and  C_24
    2  A    between atoms: C_12  and  C_24
    3  A    between atoms: C_16  and  O_27
    4  A    between atoms: O_27  and  C_32
                            x       y       z     vdW  Elec       q    Type
                         _______ _______ _______ _____ _____    ______ ____

>  <TORSDO>
F 4

$$$$
