=
 OpenBabel10272400543D

 25 28  0  0  1  0  0  0  0  0999 V2000
  187.4590  177.8430  145.2930 C   0  0  0  0  0  0  0  0  0  0  0  0
  188.7890  177.5480  144.9690 C   0  0  0  0  0  0  0  0  0  0  0  0
  187.8490  177.7840  147.6690 C   0  0  0  0  0  3  0  0  0  0  0  0
  186.3390  178.0810  144.5250 C   0  0  0  0  0  0  0  0  0  0  0  0
  190.2460  177.4200  142.9310 C   0  0  0  0  0  0  0  0  0  0  0  0
  183.9120  179.0460  143.4590 C   0  0  0  0  0  2  0  0  0  0  0  0
  189.1900  177.4730  147.3980 C   0  0  0  0  0  3  0  0  0  0  0  0
  185.3050  178.3220  145.3510 N   0  0  0  0  0  0  0  0  0  0  0  0
  183.9280  178.4720  144.8880 C   0  0  0  0  0  2  0  0  0  0  0  0
  191.1660  177.0220  145.9740 C   0  0  1  0  0  3  0  0  0  0  0  0
  191.5720  176.1780  147.0110 O   0  0  0  0  0  1  0  0  0  0  0  0
  190.2520  177.3440  141.5030 N   0  0  0  0  0  2  0  0  0  0  0  0
  189.1100  177.4630  143.5660 N   0  0  0  0  0  0  0  0  0  0  0  0
  184.9910  178.4550  142.5740 C   0  0  0  0  0  3  0  0  0  0  0  0
  187.0070  177.9580  146.5850 C   0  0  0  0  0  0  0  0  0  0  0  0
  185.6870  178.2380  146.6180 N   0  0  0  0  0  0  0  0  0  0  0  0
  191.6090  176.4150  144.6670 C   0  0  0  0  0  2  0  0  0  0  0  0
  186.1630  178.0450  143.0720 C   0  0  0  0  0  3  0  0  0  0  0  0
  191.5540  177.4900  143.6210 C   0  0  0  0  0  2  0  0  0  0  0  0
  189.6850  177.3230  146.0750 C   0  0  0  0  0  0  0  0  0  0  0  0
  189.2520  176.3540  139.5070 C   0  0  0  0  0  1  0  0  0  0  0  0
  189.0360  177.2630  140.7040 C   0  0  2  0  0  3  0  0  0  0  0  0
  188.6350  178.6250  140.2450 C   0  0  0  0  0  0  0  0  0  0  0  0
  188.9470  179.0340  138.9560 O   0  0  0  0  0  0  0  0  0  0  0  0
  188.0290  179.4110  141.0210 O   0  0  0  0  0  1  0  0  0  0  0  0
  1 15  1  0  0  0  0
  2  1  1  0  0  0  0
  2 20  2  0  0  0  0
  4  1  2  0  0  0  0
  4  8  1  0  0  0  0
  5 13  2  0  0  0  0
  5 19  1  0  0  0  0
  6  9  1  0  0  0  0
  7  3  2  0  0  0  0
  8 16  1  0  0  0  0
  9  8  1  0  0  0  0
 10 20  1  0  0  0  0
 10 11  1  1  0  0  0
 12  5  1  0  0  0  0
 13  2  1  0  0  0  0
 14 18  2  0  0  0  0
 14  6  1  0  0  0  0
 15 16  2  0  0  0  0
 15  3  1  0  0  0  0
 17 10  1  0  0  0  0
 18  4  1  0  0  0  0
 19 17  1  0  0  0  0
 20  7  1  0  0  0  0
 22 21  1  6  0  0  0
 22 12  1  0  0  0  0
 23 22  1  0  0  0  0
 23 25  1  0  0  0  0
 24 23  2  0  0  0  0
M  END
>  <MODEL>
1

>  <REMARK>
 VINA RESULT:      -9.7      0.000      0.000
  Name = 
  2 active torsions:
  status: ('A' for Active; 'I' for Inactive)
    1  A    between atoms: C_2  and  CA_25
    2  A    between atoms: N_15  and  CA_25
                            x       y       z     vdW  Elec       q    Type
                         _______ _______ _______ _____ _____    ______ ____

>  <TORSDO>
F 2

$$$$
=
 OpenBabel10272400543D

 25 28  0  0  1  0  0  0  0  0999 V2000
  189.7500  177.3750  143.7210 C   0  0  0  0  0  0  0  0  0  0  0  0
  188.7220  177.5360  144.6570 C   0  0  0  0  0  0  0  0  0  0  0  0
  191.4580  177.0880  145.3960 C   0  0  0  0  0  3  0  0  0  0  0  0
  189.7700  177.3780  142.3420 C   0  0  0  0  0  0  0  0  0  0  0  0
  186.2210  177.7280  144.6920 C   0  0  0  0  0  0  0  0  0  0  0  0
  190.2880  176.8690  139.6160 C   0  0  0  0  0  2  0  0  0  0  0  0
  190.4660  177.2570  146.3740 C   0  0  0  0  0  3  0  0  0  0  0  0
  191.0360  177.1690  141.9390 N   0  0  0  0  0  0  0  0  0  0  0  0
  191.4560  177.2550  140.5430 C   0  0  0  0  0  2  0  0  0  0  0  0
  188.1720  177.6270  147.2310 C   0  0  1  0  0  3  0  0  0  0  0  0
  188.8020  178.2760  148.2960 O   0  0  0  0  0  1  0  0  0  0  0  0
  185.0580  177.9790  143.8990 N   0  0  0  0  0  2  0  0  0  0  0  0
  187.3970  177.7510  144.1330 N   0  0  0  0  0  0  0  0  0  0  0  0
  188.9560  177.4220  140.0840 C   0  0  0  0  0  3  0  0  0  0  0  0
  191.0610  177.1580  144.0720 C   0  0  0  0  0  0  0  0  0  0  0  0
  191.8470  177.0470  142.9810 N   0  0  0  0  0  0  0  0  0  0  0  0
  186.8680  178.3280  146.9510 C   0  0  0  0  0  2  0  0  0  0  0  0
  188.6920  177.6150  141.3810 C   0  0  0  0  0  3  0  0  0  0  0  0
  186.0200  177.4070  146.1240 C   0  0  0  0  0  2  0  0  0  0  0  0
  189.1070  177.5060  146.0460 C   0  0  0  0  0  0  0  0  0  0  0  0
  185.6840  179.7070  142.2910 C   0  0  0  0  0  1  0  0  0  0  0  0
  185.1170  178.3110  142.4810 C   0  0  2  0  0  3  0  0  0  0  0  0
  183.7550  178.2270  141.8790 C   0  0  0  0  0  0  0  0  0  0  0  0
  182.6820  178.8280  142.5220 O   0  0  0  0  0  1  0  0  0  0  0  0
  183.5670  177.6040  140.8000 O   0  0  0  0  0  0  0  0  0  0  0  0
  1 15  1  0  0  0  0
  1  2  1  0  0  0  0
  2 20  2  0  0  0  0
  3  7  2  0  0  0  0
  4  1  2  0  0  0  0
  5 19  1  0  0  0  0
  6 14  1  0  0  0  0
  6  9  1  0  0  0  0
  8  4  1  0  0  0  0
  8 16  1  0  0  0  0
  9  8  1  0  0  0  0
 10 11  1  1  0  0  0
 12  5  1  0  0  0  0
 13  2  1  0  0  0  0
 13  5  2  0  0  0  0
 14 18  2  0  0  0  0
 15  3  1  0  0  0  0
 16 15  2  0  0  0  0
 17 10  1  0  0  0  0
 18  4  1  0  0  0  0
 19 17  1  0  0  0  0
 20  7  1  0  0  0  0
 20 10  1  0  0  0  0
 22 21  1  1  0  0  0
 22 12  1  0  0  0  0
 23 22  1  0  0  0  0
 23 24  1  0  0  0  0
 25 23  2  0  0  0  0
M  END
>  <MODEL>
2

>  <REMARK>
 VINA RESULT:      -9.2      2.061      5.061
  Name = 
  2 active torsions:
  status: ('A' for Active; 'I' for Inactive)
    1  A    between atoms: C_2  and  CA_25
    2  A    between atoms: N_15  and  CA_25
                            x       y       z     vdW  Elec       q    Type
                         _______ _______ _______ _____ _____    ______ ____

>  <TORSDO>
F 2

$$$$
=
 OpenBabel10272400543D

 25 28  0  0  1  0  0  0  0  0999 V2000
  186.0990  178.4300  142.4280 C   0  0  0  0  0  0  0  0  0  0  0  0
  187.1600  178.2210  141.5390 C   0  0  0  0  0  0  0  0  0  0  0  0
  184.4780  178.7650  140.6790 C   0  0  0  0  0  3  0  0  0  0  0  0
  186.0190  178.4370  143.8050 C   0  0  0  0  0  0  0  0  0  0  0  0
  189.5680  177.5230  141.6120 C   0  0  0  0  0  0  0  0  0  0  0  0
  185.2330  178.1370  146.4980 C   0  0  0  0  0  2  0  0  0  0  0  0
  185.5080  178.5760  139.7460 C   0  0  0  0  0  3  0  0  0  0  0  0
  184.7430  178.6860  144.1510 N   0  0  0  0  0  0  0  0  0  0  0  0
  184.3170  178.9110  145.5300 C   0  0  0  0  0  2  0  0  0  0  0  0
  187.8230  178.1180  138.9920 C   0  0  1  0  0  3  0  0  0  0  0  0
  187.5100  178.9500  137.9140 O   0  0  0  0  0  1  0  0  0  0  0  0
  190.7080  177.3470  142.4570 N   0  0  0  0  0  2  0  0  0  0  0  0
  188.4520  177.9570  142.1220 N   0  0  0  0  0  0  0  0  0  0  0  0
  186.6930  178.1890  146.0960 C   0  0  0  0  0  3  0  0  0  0  0  0
  184.8130  178.6880  142.0190 C   0  0  0  0  0  0  0  0  0  0  0  0
  183.9890  178.8580  143.0740 N   0  0  0  0  0  0  0  0  0  0  0  0
  189.2760  178.3160  139.3380 C   0  0  0  0  0  2  0  0  0  0  0  0
  187.0670  178.2790  144.8140 C   0  0  0  0  0  3  0  0  0  0  0  0
  189.7080  177.1540  140.1840 C   0  0  0  0  0  2  0  0  0  0  0  0
  186.8520  178.3310  140.1350 C   0  0  0  0  0  0  0  0  0  0  0  0
  191.2750  179.0680  144.0960 C   0  0  0  0  0  1  0  0  0  0  0  0
  190.7050  177.6770  143.8770 C   0  0  2  0  0  3  0  0  0  0  0  0
  191.5040  176.6720  144.6370 C   0  0  0  0  0  0  0  0  0  0  0  0
  191.8880  176.9450  145.9420 O   0  0  0  0  0  1  0  0  0  0  0  0
  191.8440  175.5840  144.1000 O   0  0  0  0  0  0  0  0  0  0  0  0
  1  4  2  0  0  0  0
  2 13  1  0  0  0  0
  2  1  1  0  0  0  0
  3 15  1  0  0  0  0
  4  8  1  0  0  0  0
  4 18  1  0  0  0  0
  5 13  2  0  0  0  0
  5 12  1  0  0  0  0
  7 20  1  0  0  0  0
  7  3  2  0  0  0  0
  8  9  1  0  0  0  0
  9  6  1  0  0  0  0
 10 11  1  6  0  0  0
 10 17  1  0  0  0  0
 10 20  1  0  0  0  0
 12 22  1  0  0  0  0
 14  6  1  0  0  0  0
 15  1  1  0  0  0  0
 15 16  2  0  0  0  0
 16  8  1  0  0  0  0
 17 19  1  0  0  0  0
 18 14  2  0  0  0  0
 19  5  1  0  0  0  0
 20  2  2  0  0  0  0
 22 21  1  6  0  0  0
 22 23  1  0  0  0  0
 23 24  1  0  0  0  0
 25 23  2  0  0  0  0
M  END
>  <MODEL>
3

>  <REMARK>
 VINA RESULT:      -9.1      1.595      5.234
  Name = 
  2 active torsions:
  status: ('A' for Active; 'I' for Inactive)
    1  A    between atoms: C_2  and  CA_25
    2  A    between atoms: N_15  and  CA_25
                            x       y       z     vdW  Elec       q    Type
                         _______ _______ _______ _____ _____    ______ ____

>  <TORSDO>
F 2

$$$$
=
 OpenBabel10272400543D

 25 28  0  0  1  0  0  0  0  0999 V2000
  186.6360  178.4030  142.6940 C   0  0  0  0  0  0  0  0  0  0  0  0
  186.9650  178.1930  144.0390 C   0  0  0  0  0  0  0  0  0  0  0  0
  184.4270  179.2260  143.1900 C   0  0  0  0  0  3  0  0  0  0  0  0
  187.3300  178.2090  141.5190 C   0  0  0  0  0  0  0  0  0  0  0  0
  188.9690  177.5600  145.4100 C   0  0  0  0  0  0  0  0  0  0  0  0
  188.4250  178.4130  138.9270 C   0  0  0  0  0  2  0  0  0  0  0  0
  184.7020  179.0210  144.5500 C   0  0  0  0  0  3  0  0  0  0  0  0
  186.5400  178.5840  140.4970 N   0  0  0  0  0  0  0  0  0  0  0  0
  186.8940  178.3790  139.0950 C   0  0  0  0  0  2  0  0  0  0  0  0
  186.0700  178.3690  146.5100 C   0  0  1  0  0  3  0  0  0  0  0  0
  184.8520  178.0000  147.0880 O   0  0  0  0  0  1  0  0  0  0  0  0
  190.2810  176.9940  145.3670 N   0  0  0  0  0  2  0  0  0  0  0  0
  188.2810  177.6700  144.3100 N   0  0  0  0  0  0  0  0  0  0  0  0
  189.1570  177.7010  140.0470 C   0  0  0  0  0  3  0  0  0  0  0  0
  185.4220  178.9000  142.2860 C   0  0  0  0  0  0  0  0  0  0  0  0
  185.3610  178.9960  140.9410 N   0  0  0  0  0  0  0  0  0  0  0  0
  187.1310  177.4110  146.9870 C   0  0  0  0  0  2  0  0  0  0  0  0
  188.6620  177.6480  141.2890 C   0  0  0  0  0  3  0  0  0  0  0  0
  188.4680  178.0380  146.7190 C   0  0  0  0  0  2  0  0  0  0  0  0
  185.9370  178.4870  145.0050 C   0  0  0  0  0  0  0  0  0  0  0  0
  191.8480  175.3500  144.4690 C   0  0  0  0  0  1  0  0  0  0  0  0
  190.8880  176.4810  144.1450 C   0  0  2  0  0  3  0  0  0  0  0  0
  191.6100  177.5760  143.4340 C   0  0  0  0  0  0  0  0  0  0  0  0
  191.8600  178.7720  144.0920 O   0  0  0  0  0  1  0  0  0  0  0  0
  191.9820  177.4300  142.2400 O   0  0  0  0  0  0  0  0  0  0  0  0
  1  2  1  0  0  0  0
  2 13  1  0  0  0  0
  2 20  2  0  0  0  0
  3  7  2  0  0  0  0
  4  1  2  0  0  0  0
  5 19  1  0  0  0  0
  6  9  1  0  0  0  0
  6 14  1  0  0  0  0
  7 20  1  0  0  0  0
  8 16  1  0  0  0  0
  8  4  1  0  0  0  0
  9  8  1  0  0  0  0
 10 17  1  0  0  0  0
 10 11  1  1  0  0  0
 12  5  1  0  0  0  0
 13  5  2  0  0  0  0
 14 18  2  0  0  0  0
 15  1  1  0  0  0  0
 15  3  1  0  0  0  0
 16 15  2  0  0  0  0
 18  4  1  0  0  0  0
 19 17  1  0  0  0  0
 20 10  1  0  0  0  0
 22 21  1  1  0  0  0
 22 12  1  0  0  0  0
 23 24  1  0  0  0  0
 23 22  1  0  0  0  0
 25 23  2  0  0  0  0
M  END
>  <MODEL>
4

>  <REMARK>
 VINA RESULT:      -8.9      2.424      4.783
  Name = 
  2 active torsions:
  status: ('A' for Active; 'I' for Inactive)
    1  A    between atoms: C_2  and  CA_25
    2  A    between atoms: N_15  and  CA_25
                            x       y       z     vdW  Elec       q    Type
                         _______ _______ _______ _____ _____    ______ ____

>  <TORSDO>
F 2

$$$$
=
 OpenBabel10272400543D

 25 28  0  0  1  0  0  0  0  0999 V2000
  188.2140  177.7230  146.1890 C   0  0  0  0  0  0  0  0  0  0  0  0
  187.2980  177.9760  145.1610 C   0  0  0  0  0  0  0  0  0  0  0  0
  186.6740  178.3330  147.9380 C   0  0  0  0  0  3  0  0  0  0  0  0
  189.5200  177.2830  146.1920 C   0  0  0  0  0  0  0  0  0  0  0  0
  187.1290  177.6800  142.6750 C   0  0  0  0  0  0  0  0  0  0  0  0
  191.9800  176.0280  146.7730 C   0  0  0  0  0  2  0  0  0  0  0  0
  185.7240  178.6130  146.9450 C   0  0  0  0  0  3  0  0  0  0  0  0
  189.9360  177.2050  147.4690 N   0  0  0  0  0  0  0  0  0  0  0  0
  191.3160  176.9130  147.8450 C   0  0  0  0  0  2  0  0  0  0  0  0
  184.8490  178.7880  144.6340 C   0  0  1  0  0  3  0  0  0  0  0  0
  184.0960  179.8570  145.1260 O   0  0  0  0  0  1  0  0  0  0  0  0
  187.8670  177.4290  141.4760 N   0  0  0  0  0  2  0  0  0  0  0  0
  187.7580  177.7480  143.8130 N   0  0  0  0  0  0  0  0  0  0  0  0
  191.6070  176.4340  145.3600 C   0  0  0  0  0  3  0  0  0  0  0  0
  187.9170  177.8910  147.5200 C   0  0  0  0  0  0  0  0  0  0  0  0
  188.9760  177.5870  148.2990 N   0  0  0  0  0  0  0  0  0  0  0  0
  185.2320  179.0930  143.2090 C   0  0  0  0  0  2  0  0  0  0  0  0
  190.4190  176.9810  145.0770 C   0  0  0  0  0  3  0  0  0  0  0  0
  185.6580  177.8070  142.5630 C   0  0  0  0  0  2  0  0  0  0  0  0
  186.0060  178.4740  145.5600 C   0  0  0  0  0  0  0  0  0  0  0  0
  189.9750  178.4880  142.1070 C   0  0  0  0  0  1  0  0  0  0  0  0
  189.3180  177.2880  141.4480 C   0  0  2  0  0  3  0  0  0  0  0  0
  189.7900  177.1550  140.0400 C   0  0  0  0  0  0  0  0  0  0  0  0
  189.4530  178.1280  139.1080 O   0  0  0  0  0  0  0  0  0  0  0  0
  190.4820  176.1630  139.6850 O   0  0  0  0  0  1  0  0  0  0  0  0
  1  4  2  0  0  0  0
  1 15  1  0  0  0  0
  2 20  2  0  0  0  0
  2  1  1  0  0  0  0
  4  8  1  0  0  0  0
  5 13  2  0  0  0  0
  6  9  1  0  0  0  0
  7  3  2  0  0  0  0
  8  9  1  0  0  0  0
  8 16  1  0  0  0  0
 10 11  1  1  0  0  0
 10 20  1  0  0  0  0
 12  5  1  0  0  0  0
 13  2  1  0  0  0  0
 14  6  1  0  0  0  0
 15  3  1  0  0  0  0
 15 16  2  0  0  0  0
 17 10  1  0  0  0  0
 18 14  2  0  0  0  0
 18  4  1  0  0  0  0
 19  5  1  0  0  0  0
 19 17  1  0  0  0  0
 20  7  1  0  0  0  0
 22 12  1  0  0  0  0
 22 21  1  6  0  0  0
 23 22  1  0  0  0  0
 24 23  2  0  0  0  0
 25 23  1  0  0  0  0
M  END
>  <MODEL>
5

>  <REMARK>
 VINA RESULT:      -8.9      2.147      4.805
  Name = 
  2 active torsions:
  status: ('A' for Active; 'I' for Inactive)
    1  A    between atoms: C_2  and  CA_25
    2  A    between atoms: N_15  and  CA_25
                            x       y       z     vdW  Elec       q    Type
                         _______ _______ _______ _____ _____    ______ ____

>  <TORSDO>
F 2

$$$$
=
 OpenBabel10272400543D

 25 28  0  0  1  0  0  0  0  0999 V2000
  187.6830  177.8030  142.9360 C   0  0  0  0  0  0  0  0  0  0  0  0
  186.3740  178.1410  143.3020 C   0  0  0  0  0  0  0  0  0  0  0  0
  188.4040  177.4500  145.2070 C   0  0  0  0  0  3  0  0  0  0  0  0
  188.3200  177.7080  141.7170 C   0  0  0  0  0  0  0  0  0  0  0  0
  184.1720  178.6080  142.1950 C   0  0  0  0  0  0  0  0  0  0  0  0
  189.9350  176.9550  139.5300 C   0  0  0  0  0  2  0  0  0  0  0  0
  187.1110  177.7940  145.6260 C   0  0  0  0  0  3  0  0  0  0  0  0
  189.5930  177.3340  141.9350 N   0  0  0  0  0  0  0  0  0  0  0  0
  190.6020  177.2750  140.8810 C   0  0  0  0  0  2  0  0  0  0  0  0
  184.7440  178.4720  145.3440 C   0  0  1  0  0  3  0  0  0  0  0  0
  184.9080  179.1220  146.5700 O   0  0  0  0  0  1  0  0  0  0  0  0
  183.5320  178.9280  140.9570 N   0  0  0  0  0  2  0  0  0  0  0  0
  185.4650  178.4630  142.2300 N   0  0  0  0  0  0  0  0  0  0  0  0
  188.6190  177.6820  139.3350 C   0  0  0  0  0  3  0  0  0  0  0  0
  188.6560  177.4700  143.8470 C   0  0  0  0  0  0  0  0  0  0  0  0
  189.8270  177.1970  143.2330 N   0  0  0  0  0  0  0  0  0  0  0  0
  183.8080  179.2910  144.4940 C   0  0  0  0  0  2  0  0  0  0  0  0
  187.8280  177.9930  140.3680 C   0  0  0  0  0  3  0  0  0  0  0  0
  183.3110  178.4110  143.3830 C   0  0  0  0  0  2  0  0  0  0  0  0
  186.0880  178.1670  144.7140 C   0  0  0  0  0  0  0  0  0  0  0  0
  183.6150  180.2690  138.9170 C   0  0  0  0  0  1  0  0  0  0  0  0
  184.2630  179.1520  139.7160 C   0  0  2  0  0  3  0  0  0  0  0  0
  184.2960  177.8980  138.9090 C   0  0  0  0  0  0  0  0  0  0  0  0
  183.3490  176.9100  139.1390 O   0  0  0  0  0  1  0  0  0  0  0  0
  185.1810  177.7220  138.0300 O   0  0  0  0  0  0  0  0  0  0  0  0
  1  2  1  0  0  0  0
  1 15  1  0  0  0  0
  2 20  2  0  0  0  0
  3  7  2  0  0  0  0
  4  8  1  0  0  0  0
  4  1  2  0  0  0  0
  5 13  2  0  0  0  0
  5 19  1  0  0  0  0
  6  9  1  0  0  0  0
  8 16  1  0  0  0  0
  9  8  1  0  0  0  0
 10 11  1  1  0  0  0
 12  5  1  0  0  0  0
 13  2  1  0  0  0  0
 14  6  1  0  0  0  0
 14 18  2  0  0  0  0
 15  3  1  0  0  0  0
 16 15  2  0  0  0  0
 17 10  1  0  0  0  0
 18  4  1  0  0  0  0
 19 17  1  0  0  0  0
 20 10  1  0  0  0  0
 20  7  1  0  0  0  0
 22 21  1  6  0  0  0
 22 12  1  0  0  0  0
 23 24  1  0  0  0  0
 23 22  1  0  0  0  0
 25 23  2  0  0  0  0
M  END
>  <MODEL>
6

>  <REMARK>
 VINA RESULT:      -8.8      2.687      5.547
  Name = 
  2 active torsions:
  status: ('A' for Active; 'I' for Inactive)
    1  A    between atoms: C_2  and  CA_25
    2  A    between atoms: N_15  and  CA_25
                            x       y       z     vdW  Elec       q    Type
                         _______ _______ _______ _____ _____    ______ ____

>  <TORSDO>
F 2

$$$$
=
 OpenBabel10272400543D

 25 28  0  0  1  0  0  0  0  0999 V2000
  186.5250  178.2400  144.3820 C   0  0  0  0  0  0  0  0  0  0  0  0
  186.7600  178.2180  143.0020 C   0  0  0  0  0  0  0  0  0  0  0  0
  184.2080  178.8560  144.1450 C   0  0  0  0  0  3  0  0  0  0  0  0
  187.3300  177.9950  145.4730 C   0  0  0  0  0  0  0  0  0  0  0  0
  188.5910  177.5660  141.4150 C   0  0  0  0  0  0  0  0  0  0  0  0
  188.3900  177.1950  147.9620 C   0  0  0  0  0  2  0  0  0  0  0  0
  184.3960  178.8600  142.7550 C   0  0  0  0  0  3  0  0  0  0  0  0
  186.5910  178.1510  146.5860 N   0  0  0  0  0  0  0  0  0  0  0  0
  187.1540  178.1130  147.9330 C   0  0  0  0  0  2  0  0  0  0  0  0
  185.6570  178.5930  140.6400 C   0  0  1  0  0  3  0  0  0  0  0  0
  184.8210  179.6010  140.1520 O   0  0  0  0  0  1  0  0  0  0  0  0
  189.9840  177.2620  141.3000 N   0  0  0  0  0  2  0  0  0  0  0  0
  188.0960  177.8770  142.5780 N   0  0  0  0  0  0  0  0  0  0  0  0
  189.2670  177.3470  146.7360 C   0  0  0  0  0  3  0  0  0  0  0  0
  185.3030  178.5430  144.9320 C   0  0  0  0  0  0  0  0  0  0  0  0
  185.3500  178.5020  146.2800 N   0  0  0  0  0  0  0  0  0  0  0  0
  187.0140  178.7540  140.0060 C   0  0  0  0  0  2  0  0  0  0  0  0
  188.7570  177.6770  145.5430 C   0  0  0  0  0  3  0  0  0  0  0  0
  187.7620  177.4660  140.1920 C   0  0  0  0  0  2  0  0  0  0  0  0
  185.6510  178.5760  142.1550 C   0  0  0  0  0  0  0  0  0  0  0  0
  192.3090  177.6510  141.9350 C   0  0  0  0  0  1  0  0  0  0  0  0
  190.9090  177.3280  142.4250 C   0  0  2  0  0  3  0  0  0  0  0  0
  190.9110  176.0300  143.1610 C   0  0  0  0  0  0  0  0  0  0  0  0
  191.7270  175.8730  144.2720 O   0  0  0  0  0  1  0  0  0  0  0  0
  190.1890  175.0720  142.7750 O   0  0  0  0  0  0  0  0  0  0  0  0
  1 15  1  0  0  0  0
  1  4  2  0  0  0  0
  2  1  1  0  0  0  0
  3 15  1  0  0  0  0
  4 18  1  0  0  0  0
  4  8  1  0  0  0  0
  5 13  2  0  0  0  0
  7  3  2  0  0  0  0
  8  9  1  0  0  0  0
  9  6  1  0  0  0  0
 10 11  1  1  0  0  0
 10 20  1  0  0  0  0
 12  5  1  0  0  0  0
 12 22  1  0  0  0  0
 13  2  1  0  0  0  0
 14  6  1  0  0  0  0
 15 16  2  0  0  0  0
 16  8  1  0  0  0  0
 17 19  1  0  0  0  0
 17 10  1  0  0  0  0
 18 14  2  0  0  0  0
 19  5  1  0  0  0  0
 20  7  1  0  0  0  0
 20  2  2  0  0  0  0
 22 21  1  6  0  0  0
 22 23  1  0  0  0  0
 23 24  1  0  0  0  0
 25 23  2  0  0  0  0
M  END
>  <MODEL>
7

>  <REMARK>
 VINA RESULT:      -8.8      1.617      4.921
  Name = 
  2 active torsions:
  status: ('A' for Active; 'I' for Inactive)
    1  A    between atoms: C_2  and  CA_25
    2  A    between atoms: N_15  and  CA_25
                            x       y       z     vdW  Elec       q    Type
                         _______ _______ _______ _____ _____    ______ ____

>  <TORSDO>
F 2

$$$$
=
 OpenBabel10272400543D

 25 28  0  0  1  0  0  0  0  0999 V2000
  185.3890  178.2710  142.8860 C   0  0  0  0  0  0  0  0  0  0  0  0
  186.7560  177.9970  143.0170 C   0  0  0  0  0  0  0  0  0  0  0  0
  185.0260  178.4460  145.2610 C   0  0  0  0  0  3  0  0  0  0  0  0
  184.5600  178.3950  141.7920 C   0  0  0  0  0  0  0  0  0  0  0  0
  188.7730  177.7360  141.5480 C   0  0  0  0  0  0  0  0  0  0  0  0
  182.5750  179.1670  139.9420 C   0  0  0  0  0  2  0  0  0  0  0  0
  186.3870  178.1620  145.4470 C   0  0  0  0  0  3  0  0  0  0  0  0
  183.3200  178.6740  142.2320 N   0  0  0  0  0  0  0  0  0  0  0  0
  182.1530  178.7280  141.3570 C   0  0  0  0  0  2  0  0  0  0  0  0
  188.7100  177.6550  144.7500 C   0  0  1  0  0  3  0  0  0  0  0  0
  188.7810  176.9270  145.9400 O   0  0  0  0  0  1  0  0  0  0  0  0
  189.2210  177.5290  140.2060 N   0  0  0  0  0  2  0  0  0  0  0  0
  187.4960  177.7960  141.7960 N   0  0  0  0  0  0  0  0  0  0  0  0
  183.8790  178.5380  139.4940 C   0  0  0  0  0  3  0  0  0  0  0  0
  184.5590  178.4880  143.9590 C   0  0  0  0  0  0  0  0  0  0  0  0
  183.2920  178.7210  143.5570 N   0  0  0  0  0  0  0  0  0  0  0  0
  189.5400  176.9480  143.7100 C   0  0  0  0  0  2  0  0  0  0  0  0
  184.8420  178.2190  140.3660 C   0  0  0  0  0  3  0  0  0  0  0  0
  189.8030  177.9190  142.5960 C   0  0  0  0  0  2  0  0  0  0  0  0
  187.2670  177.9090  144.3620 C   0  0  0  0  0  0  0  0  0  0  0  0
  188.8280  176.2260  138.1780 C   0  0  0  0  0  1  0  0  0  0  0  0
  188.3120  177.3310  139.0840 C   0  0  2  0  0  3  0  0  0  0  0  0
  188.1680  178.5990  138.3120 C   0  0  0  0  0  0  0  0  0  0  0  0
  187.0140  178.8270  137.5760 O   0  0  0  0  0  0  0  0  0  0  0  0
  189.0890  179.4590  138.3130 O   0  0  0  0  0  1  0  0  0  0  0  0
  1  2  1  0  0  0  0
  1 15  1  0  0  0  0
  2 20  2  0  0  0  0
  3  7  2  0  0  0  0
  4  8  1  0  0  0  0
  4  1  2  0  0  0  0
  5 13  2  0  0  0  0
  5 19  1  0  0  0  0
  6  9  1  0  0  0  0
  8 16  1  0  0  0  0
  9  8  1  0  0  0  0
 10 11  1  1  0  0  0
 12  5  1  0  0  0  0
 13  2  1  0  0  0  0
 14  6  1  0  0  0  0
 14 18  2  0  0  0  0
 15  3  1  0  0  0  0
 16 15  2  0  0  0  0
 17 10  1  0  0  0  0
 18  4  1  0  0  0  0
 19 17  1  0  0  0  0
 20 10  1  0  0  0  0
 20  7  1  0  0  0  0
 22 21  1  6  0  0  0
 22 12  1  0  0  0  0
 23 25  1  0  0  0  0
 23 22  1  0  0  0  0
 24 23  2  0  0  0  0
M  END
>  <MODEL>
8

>  <REMARK>
 VINA RESULT:      -8.5      1.986      2.965
  Name = 
  2 active torsions:
  status: ('A' for Active; 'I' for Inactive)
    1  A    between atoms: C_2  and  CA_25
    2  A    between atoms: N_15  and  CA_25
                            x       y       z     vdW  Elec       q    Type
                         _______ _______ _______ _____ _____    ______ ____

>  <TORSDO>
F 2

$$$$
=
 OpenBabel10272400543D

 25 28  0  0  1  0  0  0  0  0999 V2000
  189.2760  177.3680  144.1520 C   0  0  0  0  0  0  0  0  0  0  0  0
  189.1030  177.5300  142.7720 C   0  0  0  0  0  0  0  0  0  0  0  0
  191.6350  176.9170  143.9710 C   0  0  0  0  0  3  0  0  0  0  0  0
  188.4070  177.4420  145.2200 C   0  0  0  0  0  0  0  0  0  0  0  0
  187.3080  178.2490  141.1720 C   0  0  0  0  0  0  0  0  0  0  0  0
  187.1860  177.8960  147.7230 C   0  0  0  0  0  2  0  0  0  0  0  0
  191.5120  177.0570  142.5810 C   0  0  0  0  0  3  0  0  0  0  0  0
  189.1030  177.2050  146.3470 N   0  0  0  0  0  0  0  0  0  0  0  0
  188.4780  177.0590  147.6580 C   0  0  0  0  0  2  0  0  0  0  0  0
  190.3340  177.4860  140.4450 C   0  0  1  0  0  3  0  0  0  0  0  0
  191.2540  176.5890  139.8940 O   0  0  0  0  0  1  0  0  0  0  0  0
  185.9060  178.4830  141.0180 N   0  0  0  0  0  2  0  0  0  0  0  0
  187.7690  177.8380  142.3190 N   0  0  0  0  0  0  0  0  0  0  0  0
  186.3780  177.8310  146.4420 C   0  0  0  0  0  3  0  0  0  0  0  0
  190.4880  177.0760  144.7290 C   0  0  0  0  0  0  0  0  0  0  0  0
  190.3770  176.9640  146.0690 N   0  0  0  0  0  0  0  0  0  0  0  0
  189.0200  177.3190  139.7260 C   0  0  0  0  0  2  0  0  0  0  0  0
  186.9610  177.6680  145.2490 C   0  0  0  0  0  3  0  0  0  0  0  0
  188.1840  178.5330  140.0120 C   0  0  0  0  0  2  0  0  0  0  0  0
  190.2700  177.3340  141.9510 C   0  0  0  0  0  0  0  0  0  0  0  0
  183.5740  177.9290  141.4850 C   0  0  0  0  0  1  0  0  0  0  0  0
  184.9370  178.2380  142.0790 C   0  0  2  0  0  3  0  0  0  0  0  0
  184.8470  179.4290  142.9730 C   0  0  0  0  0  0  0  0  0  0  0  0
  183.9020  179.4540  143.9900 O   0  0  0  0  0  1  0  0  0  0  0  0
  185.6100  180.4170  142.8050 O   0  0  0  0  0  0  0  0  0  0  0  0
  1 15  1  0  0  0  0
  1  4  2  0  0  0  0
  2  1  1  0  0  0  0
  3 15  1  0  0  0  0
  4 18  1  0  0  0  0
  4  8  1  0  0  0  0
  5 13  2  0  0  0  0
  7  3  2  0  0  0  0
  8  9  1  0  0  0  0
  9  6  1  0  0  0  0
 10 11  1  6  0  0  0
 10 20  1  0  0  0  0
 12  5  1  0  0  0  0
 12 22  1  0  0  0  0
 13  2  1  0  0  0  0
 14  6  1  0  0  0  0
 15 16  2  0  0  0  0
 16  8  1  0  0  0  0
 17 19  1  0  0  0  0
 17 10  1  0  0  0  0
 18 14  2  0  0  0  0
 19  5  1  0  0  0  0
 20  7  1  0  0  0  0
 20  2  2  0  0  0  0
 22 21  1  6  0  0  0
 22 23  1  0  0  0  0
 23 24  1  0  0  0  0
 25 23  2  0  0  0  0
M  END
>  <MODEL>
9

>  <REMARK>
 VINA RESULT:      -8.5      2.311      4.682
  Name = 
  2 active torsions:
  status: ('A' for Active; 'I' for Inactive)
    1  A    between atoms: C_2  and  CA_25
    2  A    between atoms: N_15  and  CA_25
                            x       y       z     vdW  Elec       q    Type
                         _______ _______ _______ _____ _____    ______ ____

>  <TORSDO>
F 2

$$$$
