=
 OpenBabel10272413093D

 32 37  0  0  1  0  0  0  0  0999 V2000
  189.5720  177.6210  136.3990 O   0  0  0  0  0  0  0  0  0  0  0  0
  188.4460  174.9230  136.4040 C   0  0  2  0  0  3  0  0  0  0  0  0
  191.6480  173.8230  135.6840 C   0  0  0  0  0  0  0  0  0  0  0  0
  189.1960  178.8170  137.0180 C   0  0  0  0  0  2  0  0  0  0  0  0
  187.0530  175.5530  136.5520 C   0  0  2  0  0  3  0  0  0  0  0  0
  186.0370  174.6360  136.0450 N   0  0  0  0  0  2  0  0  0  0  0  0
  195.2090  174.2240  135.0390 F   0  0  0  0  0  0  0  0  0  0  0  0
  190.7740  172.7130  135.8690 N   0  0  0  0  0  1  0  0  0  0  0  0
  189.2620  174.8050  137.6950 C   0  0  0  0  0  2  0  0  0  0  0  0
  186.9210  176.9230  135.8870 C   0  0  1  0  0  3  0  0  0  0  0  0
  193.9310  175.8870  135.9890 C   0  0  0  0  0  3  0  0  0  0  0  0
  191.4880  176.2220  136.4390 C   0  0  0  0  0  0  0  0  0  0  0  0
  185.4680  176.9230  134.8150 S   0  0  0  0  0  0  0  0  0  0  0  0
  192.9610  173.6030  135.6810 C   0  0  0  0  0  2  0  0  0  0  0  0
  192.7690  176.5360  136.6300 C   0  0  0  0  0  3  0  0  0  0  0  0
  186.8000  178.0270  136.9290 C   0  0  0  0  0  2  0  0  0  0  0  0
  191.0940  175.1900  135.4040 C   0  0  0  0  0  0  0  0  0  0  0  0
  189.3430  175.2120  134.8150 S   0  0  0  0  0  0  0  0  0  0  0  0
  189.8110  176.0620  138.2240 N   0  0  0  0  0  0  0  0  0  0  0  0
  194.0160  174.6300  135.5350 C   0  0  0  0  0  0  0  0  0  0  0  0
  190.4700  176.9650  137.2530 C   0  0  2  0  0  3  0  0  0  0  0  0
  185.6060  175.1230  134.7440 C   0  0  2  0  0  3  0  0  0  0  0  0
  187.7680  179.1640  136.6130 C   0  0  0  0  0  2  0  0  0  0  0  0
  184.2820  174.4870  134.3460 C   0  0  0  0  0  2  0  0  0  0  0  0
  183.7610  173.7290  135.3970 O   0  0  0  0  0  1  0  0  0  0  0  0
  188.8220  176.7320  139.0630 C   0  0  0  0  0  2  0  0  0  0  0  0
  189.4710  177.4000  140.2720 C   0  0  1  0  0  3  0  0  0  0  0  0
  189.0030  178.2310  142.5330 C   0  0  0  0  0  2  0  0  0  0  0  0
  189.5210  176.8570  142.6320 N   0  0  2  0  0  0  0  0  0  0  0  0
  190.8820  176.8710  142.1020 C   0  0  0  0  0  2  0  0  0  0  0  0
  188.6240  177.2450  141.5240 C   0  0  2  0  0  3  0  0  0  0  0  0
  190.8060  176.7830  140.5960 C   0  0  0  0  0  2  0  0  0  0  0  0
  1  4  1  0  0  0  0
  2  5  1  0  0  0  0
  2  9  1  1  0  0  0
  3  8  1  0  0  0  0
  5  6  1  6  0  0  0
  7 20  1  0  0  0  0
  9 19  1  0  0  0  0
 10  5  1  0  0  0  0
 10 16  1  1  0  0  0
 11 15  1  0  0  0  0
 12 15  2  0  0  0  0
 12 21  1  0  0  0  0
 13 10  1  0  0  0  0
 14  3  1  0  0  0  0
 17  3  2  0  0  0  0
 17 12  1  0  0  0  0
 18 17  1  0  0  0  0
 18  2  1  0  0  0  0
 19 26  1  0  0  0  0
 20 14  1  0  0  0  0
 20 11  2  0  0  0  0
 21  1  1  6  0  0  0
 21 19  1  0  0  0  0
 22 24  1  1  0  0  0
 22 13  1  0  0  0  0
 22  6  1  0  0  0  0
 23 16  1  0  0  0  0
 23  4  1  0  0  0  0
 24 25  1  0  0  0  0
 27 26  1  6  0  0  0
 27 32  1  0  0  0  0
 27 31  1  0  0  0  0
 28 29  1  0  0  0  0
 29 30  1  6  0  0  0
 31 28  1  1  0  0  0
 31 29  1  0  0  0  0
 32 30  1  0  0  0  0
M  END
>  <MODEL>
1

>  <REMARK>
 VINA RESULT:      -5.2      0.000      0.000
  Name = 
  3 active torsions:
  status: ('A' for Active; 'I' for Inactive)
    1  A    between atoms: C_9  and  C_28
    2  A    between atoms: C_13  and  C_29
    3  A    between atoms: N_24  and  C_28
                            x       y       z     vdW  Elec       q    Type
                         _______ _______ _______ _____ _____    ______ ____

>  <TORSDO>
F 3

$$$$
=
 OpenBabel10272413093D

 32 37  0  0  1  0  0  0  0  0999 V2000
  183.0640  176.9050  139.7350 O   0  0  0  0  0  0  0  0  0  0  0  0
  184.3690  177.2190  137.1370 C   0  0  2  0  0  3  0  0  0  0  0  0
  182.4570  174.5280  136.0980 C   0  0  0  0  0  0  0  0  0  0  0  0
  182.8020  177.7860  140.7870 C   0  0  0  0  0  2  0  0  0  0  0  0
  185.2770  178.2840  137.7730 C   0  0  2  0  0  3  0  0  0  0  0  0
  186.5220  178.3890  137.0190 N   0  0  0  0  0  2  0  0  0  0  0  0
  179.9830  171.8870  136.4960 F   0  0  0  0  0  0  0  0  0  0  0  0
  183.2070  175.0530  135.0060 N   0  0  0  0  0  1  0  0  0  0  0  0
  182.9740  177.6980  136.7230 C   0  0  0  0  0  2  0  0  0  0  0  0
  185.5630  178.0470  139.2550 C   0  0  1  0  0  3  0  0  0  0  0  0
  180.1570  173.6480  137.9680 C   0  0  0  0  0  3  0  0  0  0  0  0
  181.7550  175.5530  138.2900 C   0  0  0  0  0  0  0  0  0  0  0  0
  187.3460  178.1150  139.5310 S   0  0  0  0  0  0  0  0  0  0  0  0
  181.4620  173.6840  135.8360 C   0  0  0  0  0  3  0  0  0  0  0  0
  180.5840  174.9550  138.5110 C   0  0  0  0  0  3  0  0  0  0  0  0
  184.8620  179.0850  140.1210 C   0  0  0  0  0  2  0  0  0  0  0  0
  182.8450  174.8490  137.5120 C   0  0  2  0  0  3  0  0  0  0  0  0
  184.5700  175.4780  137.7190 S   0  0  0  0  0  0  0  0  0  0  0  0
  182.0290  177.9470  137.8210 N   0  0  0  0  0  0  0  0  0  0  0  0
  180.5600  173.0660  136.8320 C   0  0  0  0  0  0  0  0  0  0  0  0
  181.9510  176.9170  138.8830 C   0  0  2  0  0  3  0  0  0  0  0  0
  187.5620  177.7180  137.7820 C   0  0  2  0  0  3  0  0  0  0  0  0
  184.1120  178.4050  141.2630 C   0  0  0  0  0  2  0  0  0  0  0  0
  188.9410  178.1380  137.2910 C   0  0  0  0  0  2  0  0  0  0  0  0
  189.0880  179.5250  137.3540 O   0  0  0  0  0  1  0  0  0  0  0  0
  182.1990  179.3020  138.3370 C   0  0  0  0  0  2  0  0  0  0  0  0
  181.0060  180.1880  137.9900 C   0  0  1  0  0  3  0  0  0  0  0  0
  179.9880  182.3710  138.4620 C   0  0  0  0  0  2  0  0  0  0  0  0
  180.8140  182.4860  137.2490 N   0  0  2  0  0  0  0  0  0  0  0  0
  180.2330  181.5970  136.2460 C   0  0  0  0  0  2  0  0  0  0  0  0
  181.2480  181.6370  138.3770 C   0  0  2  0  0  3  0  0  0  0  0  0
  180.7320  180.1960  136.5080 C   0  0  0  0  0  2  0  0  0  0  0  0
  1  4  1  0  0  0  0
  2  9  1  1  0  0  0
  2 18  1  0  0  0  0
  2  5  1  0  0  0  0
  4 23  1  0  0  0  0
  5  6  1  6  0  0  0
  5 10  1  0  0  0  0
  6 22  1  0  0  0  0
  7 20  1  0  0  0  0
  8  3  1  0  0  0  0
  9 19  1  0  0  0  0
 10 13  1  0  0  0  0
 10 16  1  1  0  0  0
 11 15  1  0  0  0  0
 12 15  2  0  0  0  0
 14  3  2  0  0  0  0
 14 20  1  0  0  0  0
 16 23  1  0  0  0  0
 17  3  1  6  0  0  0
 17 18  1  0  0  0  0
 17 12  1  0  0  0  0
 19 26  1  0  0  0  0
 19 21  1  0  0  0  0
 20 11  2  0  0  0  0
 21 12  1  6  0  0  0
 21  1  1  0  0  0  0
 22 24  1  6  0  0  0
 22 13  1  0  0  0  0
 24 25  1  0  0  0  0
 27 26  1  6  0  0  0
 27 31  1  0  0  0  0
 29 30  1  6  0  0  0
 29 31  1  0  0  0  0
 29 28  1  0  0  0  0
 30 32  1  0  0  0  0
 31 28  1  1  0  0  0
 32 27  1  0  0  0  0
M  END
>  <MODEL>
2

>  <REMARK>
 VINA RESULT:      -5.1      5.588      9.017
  Name = 
  3 active torsions:
  status: ('A' for Active; 'I' for Inactive)
    1  A    between atoms: C_9  and  C_28
    2  A    between atoms: C_13  and  C_29
    3  A    between atoms: N_24  and  C_28
                            x       y       z     vdW  Elec       q    Type
                         _______ _______ _______ _____ _____    ______ ____

>  <TORSDO>
F 3

$$$$
=
 OpenBabel10272413093D

 32 37  0  0  1  0  0  0  0  0999 V2000
  190.2900  176.3250  135.4600 O   0  0  0  0  0  0  0  0  0  0  0  0
  190.2690  173.5690  136.4360 C   0  0  2  0  0  3  0  0  0  0  0  0
  193.6630  173.5350  135.7610 C   0  0  0  0  0  0  0  0  0  0  0  0
  189.4770  177.4350  135.7070 C   0  0  0  0  0  2  0  0  0  0  0  0
  188.7370  173.6600  136.5260 C   0  0  2  0  0  3  0  0  0  0  0  0
  188.1550  172.3250  136.4460 N   0  0  0  0  0  2  0  0  0  0  0  0
  196.8210  174.9630  134.6440 F   0  0  0  0  0  0  0  0  0  0  0  0
  193.2700  172.3130  136.3790 N   0  0  0  0  0  1  0  0  0  0  0  0
  191.0400  174.1920  137.6030 C   0  0  0  0  0  2  0  0  0  0  0  0
  188.1120  174.5840  135.4820 C   0  0  1  0  0  3  0  0  0  0  0  0
  194.9890  176.2620  135.1530 C   0  0  0  0  0  3  0  0  0  0  0  0
  192.5920  175.8160  135.7330 C   0  0  0  0  0  0  0  0  0  0  0  0
  186.7900  173.7000  134.6260 S   0  0  0  0  0  0  0  0  0  0  0  0
  194.9620  173.8200  135.6870 C   0  0  0  0  0  2  0  0  0  0  0  0
  193.6540  176.6180  135.6780 C   0  0  0  0  0  3  0  0  0  0  0  0
  187.5600  175.8470  136.1290 C   0  0  0  0  0  2  0  0  0  0  0  0
  192.6390  174.4310  135.1260 C   0  0  0  0  0  0  0  0  0  0  0  0
  191.0230  173.6180  134.7510 S   0  0  0  0  0  0  0  0  0  0  0  0
  191.0620  175.6610  137.6470 N   0  0  0  0  0  0  0  0  0  0  0  0
  195.5520  175.0480  135.1120 C   0  0  0  0  0  0  0  0  0  0  0  0
  191.3520  176.3640  136.3760 C   0  0  2  0  0  3  0  0  0  0  0  0
  187.6000  172.1600  135.1120 C   0  0  2  0  0  3  0  0  0  0  0  0
  188.0320  177.0840  135.3690 C   0  0  0  0  0  2  0  0  0  0  0  0
  186.6230  170.9930  135.0800 C   0  0  0  0  0  2  0  0  0  0  0  0
  185.3860  171.3670  135.6090 O   0  0  0  0  0  1  0  0  0  0  0  0
  189.8750  176.1640  138.3330 C   0  0  0  0  0  2  0  0  0  0  0  0
  190.2420  177.1450  139.4420 C   0  0  1  0  0  3  0  0  0  0  0  0
  189.5480  177.9420  141.6580 C   0  0  0  0  0  2  0  0  0  0  0  0
  190.5680  176.8950  141.8300 N   0  0  2  0  0  0  0  0  0  0  0  0
  191.7980  177.3880  141.2150 C   0  0  0  0  0  2  0  0  0  0  0  0
  189.5600  176.7940  140.7540 C   0  0  2  0  0  3  0  0  0  0  0  0
  191.7210  177.1330  139.7280 C   0  0  0  0  0  2  0  0  0  0  0  0
  1  4  1  0  0  0  0
  2  5  1  0  0  0  0
  2  9  1  1  0  0  0
  3  8  1  0  0  0  0
  5  6  1  6  0  0  0
  7 20  1  0  0  0  0
  9 19  1  0  0  0  0
 10 16  1  1  0  0  0
 10  5  1  0  0  0  0
 11 15  1  0  0  0  0
 12 21  1  0  0  0  0
 13 22  1  0  0  0  0
 13 10  1  0  0  0  0
 14  3  1  0  0  0  0
 15 12  2  0  0  0  0
 17 12  1  0  0  0  0
 17  3  2  0  0  0  0
 18 17  1  0  0  0  0
 18  2  1  0  0  0  0
 19 26  1  0  0  0  0
 20 11  2  0  0  0  0
 20 14  1  0  0  0  0
 21  1  1  6  0  0  0
 21 19  1  0  0  0  0
 22 24  1  1  0  0  0
 22  6  1  0  0  0  0
 23  4  1  0  0  0  0
 23 16  1  0  0  0  0
 24 25  1  0  0  0  0
 27 26  1  6  0  0  0
 27 32  1  0  0  0  0
 27 31  1  0  0  0  0
 28 29  1  0  0  0  0
 29 30  1  6  0  0  0
 31 28  1  1  0  0  0
 31 29  1  0  0  0  0
 32 30  1  0  0  0  0
M  END
>  <MODEL>
3

>  <REMARK>
 VINA RESULT:      -4.9      1.882      2.184
  Name = 
  3 active torsions:
  status: ('A' for Active; 'I' for Inactive)
    1  A    between atoms: C_9  and  C_28
    2  A    between atoms: C_13  and  C_29
    3  A    between atoms: N_24  and  C_28
                            x       y       z     vdW  Elec       q    Type
                         _______ _______ _______ _____ _____    ______ ____

>  <TORSDO>
F 3

$$$$
=
 OpenBabel10272413093D

 32 37  0  0  1  0  0  0  0  0999 V2000
  183.6850  176.5120  135.0440 O   0  0  0  0  0  0  0  0  0  0  0  0
  184.2800  174.0450  136.4970 C   0  0  2  0  0  3  0  0  0  0  0  0
  187.6170  174.8130  135.9940 C   0  0  0  0  0  0  0  0  0  0  0  0
  182.5960  177.3880  135.0500 C   0  0  0  0  0  2  0  0  0  0  0  0
  182.7750  173.7360  136.4990 C   0  0  2  0  0  3  0  0  0  0  0  0
  182.5630  172.2990  136.6340 N   0  0  0  0  0  2  0  0  0  0  0  0
  190.3930  176.8360  134.7850 F   0  0  0  0  0  0  0  0  0  0  0  0
  187.4950  173.6470  136.8040 N   0  0  0  0  0  1  0  0  0  0  0  0
  184.7570  175.0320  137.5670 C   0  0  0  0  0  2  0  0  0  0  0  0
  182.0320  174.2780  135.2790 C   0  0  1  0  0  3  0  0  0  0  0  0
  188.2510  177.6610  134.9680 C   0  0  0  0  0  3  0  0  0  0  0  0
  186.0060  176.6880  135.5090 C   0  0  0  0  0  0  0  0  0  0  0  0
  181.0640  172.9460  134.5360 S   0  0  0  0  0  0  0  0  0  0  0  0
  188.8010  175.4200  135.9300 C   0  0  0  0  0  2  0  0  0  0  0  0
  186.8280  177.7260  135.3580 C   0  0  0  0  0  3  0  0  0  0  0  0
  181.1180  175.4340  135.6620 C   0  0  0  0  0  2  0  0  0  0  0  0
  186.4610  175.2880  135.1630 C   0  0  0  0  0  0  0  0  0  0  0  0
  185.1480  174.0220  134.8660 S   0  0  0  0  0  0  0  0  0  0  0  0
  184.3980  176.4400  137.3470 N   0  0  0  0  0  0  0  0  0  0  0  0
  189.1080  176.6520  135.1710 C   0  0  0  0  0  0  0  0  0  0  0  0
  184.6130  176.9800  135.9850 C   0  0  2  0  0  3  0  0  0  0  0  0
  182.1930  171.7780  135.3280 C   0  0  2  0  0  3  0  0  0  0  0  0
  181.3260  176.6130  134.7140 C   0  0  0  0  0  2  0  0  0  0  0  0
  181.5550  170.4030  135.4610 C   0  0  0  0  0  2  0  0  0  0  0  0
  180.2100  170.5140  135.8220 O   0  0  0  0  0  1  0  0  0  0  0  0
  183.0640  176.7110  137.8760 C   0  0  0  0  0  2  0  0  0  0  0  0
  183.0750  177.8850  138.8520 C   0  0  1  0  0  3  0  0  0  0  0  0
  184.5330  179.1660  140.3540 C   0  0  0  0  0  2  0  0  0  0  0  0
  184.4720  179.8540  139.0540 N   0  0  2  0  0  0  0  0  0  0  0  0
  183.0840  180.2550  138.8440 C   0  0  0  0  0  2  0  0  0  0  0  0
  184.4860  178.3780  139.1240 C   0  0  2  0  0  3  0  0  0  0  0  0
  182.3210  179.0680  138.3050 C   0  0  0  0  0  2  0  0  0  0  0  0
  1  4  1  0  0  0  0
  2  5  1  0  0  0  0
  2  9  1  6  0  0  0
  3  8  1  0  0  0  0
  5  6  1  6  0  0  0
  7 20  1  0  0  0  0
 10 16  1  1  0  0  0
 10  5  1  0  0  0  0
 11 20  2  0  0  0  0
 11 15  1  0  0  0  0
 12 21  1  0  0  0  0
 13 10  1  0  0  0  0
 13 22  1  0  0  0  0
 14  3  1  0  0  0  0
 15 12  2  0  0  0  0
 17 12  1  0  0  0  0
 17  3  2  0  0  0  0
 18 17  1  0  0  0  0
 18  2  1  0  0  0  0
 19  9  1  0  0  0  0
 19 26  1  0  0  0  0
 20 14  1  0  0  0  0
 21  1  1  6  0  0  0
 21 19  1  0  0  0  0
 22 24  1  1  0  0  0
 22  6  1  0  0  0  0
 23  4  1  0  0  0  0
 23 16  1  0  0  0  0
 24 25  1  0  0  0  0
 27 26  1  6  0  0  0
 27 31  1  0  0  0  0
 29 30  1  1  0  0  0
 29 31  1  0  0  0  0
 29 28  1  0  0  0  0
 31 28  1  1  0  0  0
 32 30  1  0  0  0  0
 32 27  1  0  0  0  0
M  END
>  <MODEL>
4

>  <REMARK>
 VINA RESULT:      -4.9      3.868      5.748
  Name = 
  3 active torsions:
  status: ('A' for Active; 'I' for Inactive)
    1  A    between atoms: C_9  and  C_28
    2  A    between atoms: C_13  and  C_29
    3  A    between atoms: N_24  and  C_28
                            x       y       z     vdW  Elec       q    Type
                         _______ _______ _______ _____ _____    ______ ____

>  <TORSDO>
F 3

$$$$
=
 OpenBabel10272413093D

 32 37  0  0  1  0  0  0  0  0999 V2000
  184.0090  175.7110  138.0760 O   0  0  0  0  0  0  0  0  0  0  0  0
  186.0210  175.6190  135.9560 C   0  0  2  0  0  3  0  0  0  0  0  0
  185.0040  172.3520  135.4360 C   0  0  0  0  0  0  0  0  0  0  0  0
  183.2810  176.7510  138.6610 C   0  0  0  0  0  2  0  0  0  0  0  0
  186.4910  177.0120  136.4030 C   0  0  2  0  0  3  0  0  0  0  0  0
  187.8800  177.2170  136.0080 N   0  0  0  0  0  2  0  0  0  0  0  0
  182.9880  169.3830  136.0540 F   0  0  0  0  0  0  0  0  0  0  0  0
  185.9750  172.7280  134.4640 N   0  0  0  0  0  1  0  0  0  0  0  0
  184.7790  175.5940  135.0600 C   0  0  0  0  0  2  0  0  0  0  0  0
  186.3130  177.2730  137.8990 C   0  0  1  0  0  3  0  0  0  0  0  0
  182.3910  171.4660  136.8340 C   0  0  0  0  0  3  0  0  0  0  0  0
  183.4740  173.7260  136.8900 C   0  0  0  0  0  0  0  0  0  0  0  0
  187.8740  177.8650  138.5860 S   0  0  0  0  0  0  0  0  0  0  0  0
  184.2950  171.2430  135.2290 C   0  0  0  0  0  3  0  0  0  0  0  0
  182.4050  172.9360  136.9910 C   0  0  0  0  0  3  0  0  0  0  0  0
  185.2120  178.2950  138.1490 C   0  0  0  0  0  2  0  0  0  0  0  0
  184.8550  173.1370  136.7060 C   0  0  2  0  0  3  0  0  0  0  0  0
  186.2950  174.2150  137.1260 S   0  0  0  0  0  0  0  0  0  0  0  0
  183.5010  175.8870  135.7240 N   0  0  0  0  0  0  0  0  0  0  0  0
  183.2290  170.7160  136.1070 C   0  0  0  0  0  0  0  0  0  0  0  0
  183.2460  175.2040  137.0140 C   0  0  2  0  0  3  0  0  0  0  0  0
  188.7080  177.0700  137.1940 C   0  0  2  0  0  3  0  0  0  0  0  0
  184.2490  177.7890  139.2200 C   0  0  0  0  0  2  0  0  0  0  0  0
  190.0860  177.6740  136.9630 C   0  0  0  0  0  2  0  0  0  0  0  0
  191.0890  176.7740  137.3290 O   0  0  0  0  0  1  0  0  0  0  0  0
  183.2770  177.3280  135.7740 C   0  0  0  0  0  2  0  0  0  0  0  0
  181.7900  177.6670  135.7170 C   0  0  1  0  0  3  0  0  0  0  0  0
  179.9940  178.8030  136.9440 C   0  0  0  0  0  2  0  0  0  0  0  0
  180.5550  179.7380  135.9560 N   0  0  2  0  0  0  0  0  0  0  0  0
  180.3070  179.1680  134.6350 C   0  0  0  0  0  2  0  0  0  0  0  0
  181.4300  178.7890  136.6760 C   0  0  2  0  0  3  0  0  0  0  0  0
  181.3820  178.1460  134.3480 C   0  0  0  0  0  2  0  0  0  0  0  0
  1  4  1  0  0  0  0
  2  9  1  1  0  0  0
  2  5  1  0  0  0  0
  2 18  1  0  0  0  0
  4 23  1  0  0  0  0
  5  6  1  1  0  0  0
  5 10  1  0  0  0  0
  6 22  1  0  0  0  0
  7 20  1  0  0  0  0
  8  3  1  0  0  0  0
  9 19  1  0  0  0  0
 10 16  1  6  0  0  0
 10 13  1  0  0  0  0
 11 15  1  0  0  0  0
 12 15  2  0  0  0  0
 14  3  2  0  0  0  0
 14 20  1  0  0  0  0
 16 23  1  0  0  0  0
 17  3  1  6  0  0  0
 17 12  1  0  0  0  0
 17 18  1  0  0  0  0
 19 26  1  0  0  0  0
 19 21  1  0  0  0  0
 20 11  2  0  0  0  0
 21 12  1  6  0  0  0
 21  1  1  0  0  0  0
 22 24  1  6  0  0  0
 22 13  1  0  0  0  0
 24 25  1  0  0  0  0
 27 26  1  6  0  0  0
 27 31  1  0  0  0  0
 29 30  1  6  0  0  0
 29 31  1  0  0  0  0
 29 28  1  0  0  0  0
 31 28  1  1  0  0  0
 32 30  1  0  0  0  0
 32 27  1  0  0  0  0
M  END
>  <MODEL>
5

>  <REMARK>
 VINA RESULT:      -4.3      4.326      7.957
  Name = 
  3 active torsions:
  status: ('A' for Active; 'I' for Inactive)
    1  A    between atoms: C_9  and  C_28
    2  A    between atoms: C_13  and  C_29
    3  A    between atoms: N_24  and  C_28
                            x       y       z     vdW  Elec       q    Type
                         _______ _______ _______ _____ _____    ______ ____

>  <TORSDO>
F 3

$$$$
=
 OpenBabel10272413093D

 32 37  0  0  1  0  0  0  0  0999 V2000
  185.3570  174.5050  137.3530 O   0  0  0  0  0  0  0  0  0  0  0  0
  183.1410  174.5230  135.4450 C   0  0  2  0  0  3  0  0  0  0  0  0
  182.2080  177.5250  136.8920 C   0  0  0  0  0  0  0  0  0  0  0  0
  186.6250  173.9170  137.3430 C   0  0  0  0  0  2  0  0  0  0  0  0
  183.5620  173.1090  135.0130 C   0  0  2  0  0  3  0  0  0  0  0  0
  182.4210  172.4060  134.4370 N   0  0  0  0  0  2  0  0  0  0  0  0
  182.5240  180.3070  139.2190 F   0  0  0  0  0  0  0  0  0  0  0  0
  181.3640  177.2270  135.7830 N   0  0  0  0  0  1  0  0  0  0  0  0
  183.9470  175.6720  134.8320 C   0  0  0  0  0  2  0  0  0  0  0  0
  184.1940  172.2840  136.1330 C   0  0  1  0  0  3  0  0  0  0  0  0
  184.2570  178.8530  138.7900 C   0  0  0  0  0  3  0  0  0  0  0  0
  184.5170  176.7200  137.5000 C   0  0  0  0  0  0  0  0  0  0  0  0
  183.3600  170.6850  136.2310 S   0  0  0  0  0  0  0  0  0  0  0  0
  182.1860  178.7590  137.3920 C   0  0  0  0  0  3  0  0  0  0  0  0
  185.0260  177.7850  138.1180 C   0  0  0  0  0  3  0  0  0  0  0  0
  185.6830  172.0800  135.8890 C   0  0  0  0  0  2  0  0  0  0  0  0
  183.0290  176.4460  137.5350 C   0  0  2  0  0  3  0  0  0  0  0  0
  182.4790  174.7230  137.1580 S   0  0  0  0  0  0  0  0  0  0  0  0
  185.3120  175.8460  135.3490 N   0  0  0  0  0  0  0  0  0  0  0  0
  183.0110  179.2580  138.5130 C   0  0  0  0  0  0  0  0  0  0  0  0
  185.4830  175.7950  136.8190 C   0  0  2  0  0  3  0  0  0  0  0  0
  181.9380  171.4540  135.4250 C   0  0  2  0  0  3  0  0  0  0  0  0
  186.4780  172.4120  137.1500 C   0  0  0  0  0  2  0  0  0  0  0  0
  181.0470  170.4090  134.7710 C   0  0  0  0  0  2  0  0  0  0  0  0
  181.4920  169.1200  135.0730 O   0  0  0  0  0  1  0  0  0  0  0  0
  186.2400  174.9810  134.6250 C   0  0  0  0  0  2  0  0  0  0  0  0
  187.5640  175.6880  134.3460 C   0  0  1  0  0  3  0  0  0  0  0  0
  188.8500  177.7100  134.8720 C   0  0  0  0  0  2  0  0  0  0  0  0
  189.2690  176.6340  135.7840 N   0  0  2  0  0  0  0  0  0  0  0  0
  189.8510  175.5760  134.9630 C   0  0  0  0  0  2  0  0  0  0  0  0
  187.8550  176.7670  135.3750 C   0  0  2  0  0  3  0  0  0  0  0  0
  188.7270  174.7320  134.4080 C   0  0  0  0  0  2  0  0  0  0  0  0
  2  9  1  1  0  0  0
  2 18  1  0  0  0  0
  3 14  2  0  0  0  0
  4  1  1  0  0  0  0
  5  6  1  1  0  0  0
  5  2  1  0  0  0  0
  5 10  1  0  0  0  0
  6 22  1  0  0  0  0
  8  3  1  0  0  0  0
  9 19  1  0  0  0  0
 10 16  1  6  0  0  0
 10 13  1  0  0  0  0
 12 17  1  0  0  0  0
 12 15  2  0  0  0  0
 14 20  1  0  0  0  0
 15 11  1  0  0  0  0
 16 23  1  0  0  0  0
 17  3  1  6  0  0  0
 18 17  1  0  0  0  0
 19 21  1  0  0  0  0
 20 11  2  0  0  0  0
 20  7  1  0  0  0  0
 21  1  1  1  0  0  0
 21 12  1  0  0  0  0
 22 24  1  6  0  0  0
 22 13  1  0  0  0  0
 23  4  1  0  0  0  0
 24 25  1  0  0  0  0
 26 19  1  0  0  0  0
 27 32  1  0  0  0  0
 27 26  1  1  0  0  0
 27 31  1  0  0  0  0
 29 28  1  6  0  0  0
 30 29  1  0  0  0  0
 31 28  1  6  0  0  0
 31 29  1  0  0  0  0
 32 30  1  0  0  0  0
M  END
>  <MODEL>
6

>  <REMARK>
 VINA RESULT:      -4.1      4.673      7.608
  Name = 
  3 active torsions:
  status: ('A' for Active; 'I' for Inactive)
    1  A    between atoms: C_9  and  C_28
    2  A    between atoms: C_13  and  C_29
    3  A    between atoms: N_24  and  C_28
                            x       y       z     vdW  Elec       q    Type
                         _______ _______ _______ _____ _____    ______ ____

>  <TORSDO>
F 3

$$$$
=
 OpenBabel10272413093D

 32 37  0  0  1  0  0  0  0  0999 V2000
  187.7560  176.7390  134.7280 O   0  0  0  0  0  0  0  0  0  0  0  0
  187.2890  174.6280  136.6970 C   0  0  2  0  0  3  0  0  0  0  0  0
  190.5120  173.5730  136.0050 C   0  0  0  0  0  0  0  0  0  0  0  0
  187.2150  178.0150  134.5450 C   0  0  0  0  0  2  0  0  0  0  0  0
  185.8270  175.0930  136.7810 C   0  0  2  0  0  3  0  0  0  0  0  0
  184.9830  173.9950  137.2390 N   0  0  0  0  0  2  0  0  0  0  0  0
  193.7500  173.7220  134.3460 F   0  0  0  0  0  0  0  0  0  0  0  0
  189.9520  172.7940  137.0580 N   0  0  0  0  0  1  0  0  0  0  0  0
  188.2940  175.4480  137.5120 C   0  0  0  0  0  2  0  0  0  0  0  0
  185.2890  175.6780  135.4760 C   0  0  1  0  0  3  0  0  0  0  0  0
  192.2840  175.4980  134.3560 C   0  0  0  0  0  3  0  0  0  0  0  0
  189.9250  175.8580  135.1220 C   0  0  0  0  0  0  0  0  0  0  0  0
  183.7300  174.8640  135.0620 S   0  0  0  0  0  0  0  0  0  0  0  0
  191.8250  173.5060  135.7950 C   0  0  0  0  0  2  0  0  0  0  0  0
  191.1140  176.3180  134.7330 C   0  0  0  0  0  3  0  0  0  0  0  0
  185.0760  177.1800  135.5950 C   0  0  0  0  0  2  0  0  0  0  0  0
  189.6260  174.3750  135.0980 C   0  0  0  0  0  0  0  0  0  0  0  0
  187.8480  173.8720  135.1060 S   0  0  0  0  0  0  0  0  0  0  0  0
  188.6150  176.7810  136.9820 N   0  0  0  0  0  0  0  0  0  0  0  0
  192.5840  174.2620  134.7750 C   0  0  0  0  0  0  0  0  0  0  0  0
  188.8980  176.8730  135.5310 C   0  0  2  0  0  3  0  0  0  0  0  0
  184.2620  173.4750  136.0880 C   0  0  2  0  0  3  0  0  0  0  0  0
  185.7010  177.9020  134.4040 C   0  0  0  0  0  2  0  0  0  0  0  0
  183.0740  172.6360  136.5340 C   0  0  0  0  0  2  0  0  0  0  0  0
  182.1620  173.4120  137.2530 O   0  0  0  0  0  1  0  0  0  0  0  0
  187.6370  177.7590  137.4480 C   0  0  0  0  0  2  0  0  0  0  0  0
  188.0780  178.4170  138.7520 C   0  0  1  0  0  3  0  0  0  0  0  0
  187.3960  178.7980  141.0790 C   0  0  0  0  0  2  0  0  0  0  0  0
  188.2660  177.6120  141.0290 N   0  0  2  0  0  0  0  0  0  0  0  0
  189.5740  178.0560  140.5560 C   0  0  0  0  0  2  0  0  0  0  0  0
  187.3010  177.8840  139.9440 C   0  0  2  0  0  3  0  0  0  0  0  0
  189.5290  178.1440  139.0480 C   0  0  0  0  0  2  0  0  0  0  0  0
  2  5  1  0  0  0  0
  2  9  1  6  0  0  0
  3  8  1  0  0  0  0
  4  1  1  0  0  0  0
  5  6  1  6  0  0  0
  7 20  1  0  0  0  0
 10 16  1  1  0  0  0
 10  5  1  0  0  0  0
 11 15  1  0  0  0  0
 11 20  2  0  0  0  0
 12 21  1  0  0  0  0
 13 10  1  0  0  0  0
 13 22  1  0  0  0  0
 14  3  1  0  0  0  0
 15 12  2  0  0  0  0
 17 18  1  0  0  0  0
 17 12  1  0  0  0  0
 17  3  2  0  0  0  0
 18  2  1  0  0  0  0
 19 26  1  0  0  0  0
 19  9  1  0  0  0  0
 20 14  1  0  0  0  0
 21  1  1  6  0  0  0
 21 19  1  0  0  0  0
 22 24  1  1  0  0  0
 22  6  1  0  0  0  0
 23  4  1  0  0  0  0
 23 16  1  0  0  0  0
 24 25  1  0  0  0  0
 27 26  1  6  0  0  0
 27 32  1  0  0  0  0
 27 31  1  0  0  0  0
 29 30  1  6  0  0  0
 29 28  1  0  0  0  0
 31 29  1  0  0  0  0
 31 28  1  1  0  0  0
 32 30  1  0  0  0  0
M  END
>  <MODEL>
7

>  <REMARK>
 VINA RESULT:      -3.9      1.806      2.194
  Name = 
  3 active torsions:
  status: ('A' for Active; 'I' for Inactive)
    1  A    between atoms: C_9  and  C_28
    2  A    between atoms: C_13  and  C_29
    3  A    between atoms: N_24  and  C_28
                            x       y       z     vdW  Elec       q    Type
                         _______ _______ _______ _____ _____    ______ ____

>  <TORSDO>
F 3

$$$$
=
 OpenBabel10272413093D

 32 37  0  0  1  0  0  0  0  0999 V2000
  189.6510  177.2620  136.5870 O   0  0  0  0  0  0  0  0  0  0  0  0
  191.1820  175.4150  138.2590 C   0  0  2  0  0  3  0  0  0  0  0  0
  189.5700  176.8660  140.9560 C   0  0  0  0  0  0  0  0  0  0  0  0
  189.2260  177.2210  135.2570 C   0  0  0  0  0  2  0  0  0  0  0  0
  191.9480  174.9810  136.9990 C   0  0  2  0  0  3  0  0  0  0  0  0
  193.2510  174.4420  137.3720 N   0  0  0  0  0  2  0  0  0  0  0  0
  187.2530  179.1650  142.5710 F   0  0  0  0  0  0  0  0  0  0  0  0
  190.3860  175.7830  141.3920 N   0  0  0  0  0  1  0  0  0  0  0  0
  189.8050  174.7720  138.4530 C   0  0  0  0  0  2  0  0  0  0  0  0
  192.1010  176.0890  135.9580 C   0  0  1  0  0  3  0  0  0  0  0  0
  187.1610  178.6980  140.3180 C   0  0  0  0  0  3  0  0  0  0  0  0
  188.5860  177.4160  138.7030 C   0  0  0  0  0  0  0  0  0  0  0  0
  193.8400  176.2210  135.4880 S   0  0  0  0  0  0  0  0  0  0  0  0
  188.6640  177.3580  141.7990 C   0  0  0  0  0  2  0  0  0  0  0  0
  187.4430  178.0130  139.0390 C   0  0  0  0  0  3  0  0  0  0  0  0
  191.2490  175.8060  134.7280 C   0  0  0  0  0  2  0  0  0  0  0  0
  189.7930  177.4940  139.6110 C   0  0  0  0  0  0  0  0  0  0  0  0
  191.4420  177.1440  138.8560 S   0  0  0  0  0  0  0  0  0  0  0  0
  188.7420  175.2500  137.5590 N   0  0  0  0  0  0  0  0  0  0  0  0
  187.7130  178.4530  141.5130 C   0  0  0  0  0  0  0  0  0  0  0  0
  188.6290  176.7160  137.3760 C   0  0  2  0  0  3  0  0  0  0  0  0
  194.2540  175.4490  137.0670 C   0  0  2  0  0  3  0  0  0  0  0  0
  190.4380  177.0420  134.3480 C   0  0  0  0  0  2  0  0  0  0  0  0
  195.6420  174.8270  137.0260 C   0  0  0  0  0  2  0  0  0  0  0  0
  196.2710  174.9320  138.2680 O   0  0  0  0  0  1  0  0  0  0  0  0
  188.7670  174.5080  136.3020 C   0  0  0  0  0  2  0  0  0  0  0  0
  187.4470  173.7850  136.0500 C   0  0  1  0  0  3  0  0  0  0  0  0
  185.5220  172.7740  137.1890 C   0  0  0  0  0  2  0  0  0  0  0  0
  185.1830  174.1590  136.8250 N   0  0  2  0  0  0  0  0  0  0  0  0
  185.2230  174.2440  135.3680 C   0  0  0  0  0  2  0  0  0  0  0  0
  186.5470  173.8120  137.2740 C   0  0  2  0  0  3  0  0  0  0  0  0
  186.6590  174.4360  134.9430 C   0  0  0  0  0  2  0  0  0  0  0  0
  2  9  1  6  0  0  0
  2 18  1  0  0  0  0
  3  8  1  0  0  0  0
  3 14  1  0  0  0  0
  4  1  1  0  0  0  0
  5  6  1  1  0  0  0
  5  2  1  0  0  0  0
 10 16  1  6  0  0  0
 10  5  1  0  0  0  0
 11 20  2  0  0  0  0
 12 15  2  0  0  0  0
 12 17  1  0  0  0  0
 13 10  1  0  0  0  0
 13 22  1  0  0  0  0
 15 11  1  0  0  0  0
 17  3  2  0  0  0  0
 18 17  1  0  0  0  0
 19  9  1  0  0  0  0
 20 14  1  0  0  0  0
 20  7  1  0  0  0  0
 21  1  1  6  0  0  0
 21 19  1  0  0  0  0
 21 12  1  0  0  0  0
 22 24  1  6  0  0  0
 22  6  1  0  0  0  0
 23 16  1  0  0  0  0
 23  4  1  0  0  0  0
 24 25  1  0  0  0  0
 26 19  1  0  0  0  0
 27 26  1  1  0  0  0
 27 31  1  0  0  0  0
 29 30  1  6  0  0  0
 29 28  1  0  0  0  0
 29 31  1  0  0  0  0
 31 28  1  6  0  0  0
 32 30  1  0  0  0  0
 32 27  1  0  0  0  0
M  END
>  <MODEL>
8

>  <REMARK>
 VINA RESULT:      -3.5      3.267      6.936
  Name = 
  3 active torsions:
  status: ('A' for Active; 'I' for Inactive)
    1  A    between atoms: C_9  and  C_28
    2  A    between atoms: C_13  and  C_29
    3  A    between atoms: N_24  and  C_28
                            x       y       z     vdW  Elec       q    Type
                         _______ _______ _______ _____ _____    ______ ____

>  <TORSDO>
F 3

$$$$
=
 OpenBabel10272413093D

 32 37  0  0  1  0  0  0  0  0999 V2000
  189.5960  174.2080  137.0680 O   0  0  0  0  0  0  0  0  0  0  0  0
  187.7620  176.3090  136.1910 C   0  0  2  0  0  3  0  0  0  0  0  0
  188.6420  177.9830  139.0900 C   0  0  0  0  0  0  0  0  0  0  0  0
  190.3280  173.2300  136.3880 C   0  0  0  0  0  2  0  0  0  0  0  0
  187.3320  175.3890  135.0380 C   0  0  2  0  0  3  0  0  0  0  0  0
  185.9920  175.7520  134.5870 N   0  0  0  0  0  2  0  0  0  0  0  0
  190.4410  178.4370  142.2230 F   0  0  0  0  0  0  0  0  0  0  0  0
  187.7750  178.7890  138.2970 N   0  0  0  0  0  1  0  0  0  0  0  0
  189.0690  177.0770  135.9750 C   0  0  0  0  0  2  0  0  0  0  0  0
  187.4010  173.9010  135.3770 C   0  0  1  0  0  3  0  0  0  0  0  0
  191.0820  176.8890  140.6440 C   0  0  0  0  0  3  0  0  0  0  0  0
  190.1200  176.0320  138.4940 C   0  0  0  0  0  0  0  0  0  0  0  0
  185.8220  173.1260  134.9650 S   0  0  0  0  0  0  0  0  0  0  0  0
  189.3050  178.5590  140.0910 C   0  0  0  0  0  2  0  0  0  0  0  0
  191.1330  176.1820  139.3470 C   0  0  0  0  0  3  0  0  0  0  0  0
  188.5300  173.2180  134.6160 C   0  0  0  0  0  2  0  0  0  0  0  0
  188.7290  176.5020  138.8570 C   0  0  0  0  0  0  0  0  0  0  0  0
  187.3180  175.7820  137.9060 S   0  0  0  0  0  0  0  0  0  0  0  0
  190.3020  176.2820  136.0590 N   0  0  0  0  0  0  0  0  0  0  0  0
  190.2670  177.8920  140.9950 C   0  0  0  0  0  0  0  0  0  0  0  0
  190.4150  175.3390  137.1960 C   0  0  2  0  0  3  0  0  0  0  0  0
  185.0630  174.7600  135.1050 C   0  0  2  0  0  3  0  0  0  0  0  0
  189.3740  172.3710  135.5650 C   0  0  0  0  0  2  0  0  0  0  0  0
  183.7430  174.8170  134.3500 C   0  0  0  0  0  2  0  0  0  0  0  0
  183.0640  176.0050  134.6300 O   0  0  0  0  0  1  0  0  0  0  0  0
  190.5980  175.6720  134.7660 C   0  0  0  0  0  2  0  0  0  0  0  0
  192.1010  175.6060  134.5070 C   0  0  1  0  0  3  0  0  0  0  0  0
  194.2540  176.5320  135.2370 C   0  0  0  0  0  2  0  0  0  0  0  0
  194.0140  175.2700  135.9550 N   0  0  2  0  0  0  0  0  0  0  0  0
  193.9630  174.2080  134.9540 C   0  0  0  0  0  2  0  0  0  0  0  0
  192.8980  176.1910  135.6610 C   0  0  2  0  0  3  0  0  0  0  0  0
  192.5770  174.1840  134.3560 C   0  0  0  0  0  2  0  0  0  0  0  0
  2  9  1  1  0  0  0
  2 18  1  0  0  0  0
  3 14  1  0  0  0  0
  4  1  1  0  0  0  0
  5  6  1  1  0  0  0
  5 10  1  0  0  0  0
  5  2  1  0  0  0  0
  6 22  1  0  0  0  0
  8  3  1  0  0  0  0
  9 19  1  0  0  0  0
 10 16  1  6  0  0  0
 11 20  2  0  0  0  0
 12 17  1  0  0  0  0
 12 15  2  0  0  0  0
 13 22  1  0  0  0  0
 13 10  1  0  0  0  0
 14 20  1  0  0  0  0
 15 11  1  0  0  0  0
 16 23  1  0  0  0  0
 17  3  2  0  0  0  0
 18 17  1  0  0  0  0
 19 21  1  0  0  0  0
 20  7  1  0  0  0  0
 21  1  1  6  0  0  0
 21 12  1  0  0  0  0
 22 24  1  6  0  0  0
 23  4  1  0  0  0  0
 24 25  1  0  0  0  0
 26 19  1  0  0  0  0
 27 26  1  1  0  0  0
 27 31  1  0  0  0  0
 28 29  1  0  0  0  0
 29 30  1  6  0  0  0
 31 28  1  6  0  0  0
 31 29  1  0  0  0  0
 32 27  1  0  0  0  0
 32 30  1  0  0  0  0
M  END
>  <MODEL>
9

>  <REMARK>
 VINA RESULT:      -3.3      2.696      5.429
  Name = 
  3 active torsions:
  status: ('A' for Active; 'I' for Inactive)
    1  A    between atoms: C_9  and  C_28
    2  A    between atoms: C_13  and  C_29
    3  A    between atoms: N_24  and  C_28
                            x       y       z     vdW  Elec       q    Type
                         _______ _______ _______ _____ _____    ______ ____

>  <TORSDO>
F 3

$$$$
