=
 OpenBabel10272413413D

 30 35  0  0  1  0  0  0  0  0999 V2000
  187.3340  177.7650  140.7880 C   0  0  1  0  0  3  0  0  0  0  0  0
  189.8240  178.3920  139.8220 C   0  0  1  0  0  3  0  0  0  0  0  0
  190.2860  177.8290  144.2700 N   0  0  0  0  0  2  0  0  0  0  0  0
  186.5170  177.5740  142.1350 C   0  0  2  0  0  3  0  0  0  0  0  0
  186.5480  178.5020  139.7070 C   0  0  0  0  0  2  0  0  0  0  0  0
  182.9740  179.0840  141.6350 S   0  0  0  0  0  0  0  0  0  0  0  0
  185.1710  177.8930  144.9140 C   0  0  1  0  0  3  0  0  0  0  0  0
  184.7530  179.0630  141.3380 C   0  0  0  0  0  0  0  0  0  0  0  0
  183.8300  178.6400  138.8540 S   0  0  0  0  0  0  0  0  0  0  0  0
  186.5590  177.5810  145.4880 C   0  0  2  0  0  3  0  0  0  0  0  0
  189.1010  177.2010  144.9560 C   0  0  1  0  0  3  0  0  0  0  0  0
  185.1280  178.8300  140.0700 C   0  0  0  0  0  0  0  0  0  0  0  0
  185.7430  178.8680  142.4690 C   0  0  1  0  0  3  0  0  0  0  0  0
  190.9140  177.3740  139.8420 N   0  0  0  0  0  2  0  0  0  0  0  0
  186.7180  178.4810  146.6910 C   0  0  0  0  0  2  0  0  0  0  0  0
  184.3430  178.2070  146.1220 C   0  0  0  0  0  2  0  0  0  0  0  0
  182.9710  176.6550  140.4800 N   0  0  0  0  0  1  0  0  0  0  0  0
  189.2540  178.5690  138.4250 C   0  0  0  0  0  1  0  0  0  0  0  0
  190.3960  178.2220  142.8880 C   0  0  0  0  0  0  0  0  0  0  0  0
  191.7350  177.1590  141.0100 C   0  0  0  0  0  3  0  0  0  0  0  0
  182.6840  178.0500  140.1550 C   0  0  1  0  0  3  0  0  0  0  0  0
  188.7890  178.2820  140.9490 C   0  0  2  0  0  3  0  0  0  0  0  0
  187.2250  176.7840  143.2700 C   0  0  0  0  0  2  0  0  0  0  0  0
  189.2430  177.3500  146.3370 O   0  0  0  0  0  1  0  0  0  0  0  0
  187.6910  177.6570  144.4550 C   0  0  1  0  0  3  0  0  0  0  0  0
  185.3060  178.7620  147.1690 C   0  0  0  0  0  2  0  0  0  0  0  0
  185.2600  180.4210  144.3990 C   0  0  0  0  0  1  0  0  0  0  0  0
  191.2680  177.6500  142.1130 C   0  0  0  0  0  0  0  0  0  0  0  0
  189.1460  178.5040  142.2140 C   0  0  0  0  0  2  0  0  0  0  0  0
  185.0730  179.0200  143.8620 C   0  0  2  0  0  3  0  0  0  0  0  0
  1  5  1  6  0  0  0
  1 22  1  0  0  0  0
  1  4  1  0  0  0  0
  2 18  1  6  0  0  0
  2 14  1  0  0  0  0
  2 22  1  0  0  0  0
  3 11  1  0  0  0  0
  4 13  1  0  0  0  0
  4 23  1  1  0  0  0
  5 12  1  0  0  0  0
  7 10  1  0  0  0  0
  7 16  1  1  0  0  0
  8  6  1  0  0  0  0
  9 12  1  0  0  0  0
  9 21  1  0  0  0  0
 10 15  1  1  0  0  0
 11 24  1  1  0  0  0
 12  8  2  0  0  0  0
 13  8  1  6  0  0  0
 13 30  1  0  0  0  0
 14 20  1  0  0  0  0
 15 26  1  0  0  0  0
 16 26  1  0  0  0  0
 19  3  1  0  0  0  0
 20 28  2  0  0  0  0
 21 17  1  1  0  0  0
 21  6  1  0  0  0  0
 22 29  1  1  0  0  0
 25 23  1  6  0  0  0
 25 11  1  0  0  0  0
 25 10  1  0  0  0  0
 28 19  2  0  0  0  0
 29 19  1  0  0  0  0
 30 27  1  1  0  0  0
 30  7  1  0  0  0  0
M  END
>  <MODEL>
1

>  <REMARK>
 VINA RESULT:      -7.8      0.000      0.000
  Name = 
  0 active torsions:
  status: ('A' for Active; 'I' for Inactive)
                            x       y       z     vdW  Elec       q    Type
                         _______ _______ _______ _____ _____    ______ ____

>  <TORSDO>
F 0

$$$$
=
 OpenBabel10272413413D

 30 35  0  0  1  0  0  0  0  0999 V2000
  186.1770  177.8420  144.5120 C   0  0  1  0  0  3  0  0  0  0  0  0
  184.0730  179.2570  143.4640 C   0  0  1  0  0  3  0  0  0  0  0  0
  186.8460  178.3620  140.0250 N   0  0  0  0  0  2  0  0  0  0  0  0
  187.6160  177.2780  144.1560 C   0  0  2  0  0  3  0  0  0  0  0  0
  186.0930  178.4380  145.9140 C   0  0  0  0  0  2  0  0  0  0  0  0
  189.9120  177.7580  147.2520 S   0  0  0  0  0  0  0  0  0  0  0  0
  190.5680  176.8900  143.2760 C   0  0  1  0  0  3  0  0  0  0  0  0
  188.5650  178.2790  146.1720 C   0  0  0  0  0  0  0  0  0  0  0  0
  187.2340  177.8880  148.4690 S   0  0  0  0  0  0  0  0  0  0  0  0
  190.0190  176.9270  141.8440 C   0  0  2  0  0  3  0  0  0  0  0  0
  187.9210  177.3490  140.3250 C   0  0  1  0  0  3  0  0  0  0  0  0
  187.3450  178.3040  146.7330 C   0  0  0  0  0  0  0  0  0  0  0  0
  188.7030  178.2520  144.6620 C   0  0  1  0  0  3  0  0  0  0  0  0
  183.1190  178.5960  142.5260 N   0  0  0  0  0  2  0  0  0  0  0  0
  191.0370  177.6970  141.0330 C   0  0  0  0  0  2  0  0  0  0  0  0
  192.0530  176.8200  143.0920 C   0  0  0  0  0  2  0  0  0  0  0  0
  188.4120  175.5740  147.7080 N   0  0  0  0  0  1  0  0  0  0  0  0
  183.4710  179.4160  144.8500 C   0  0  0  0  0  1  0  0  0  0  0  0
  185.8840  178.9190  140.9410 C   0  0  0  0  0  0  0  0  0  0  0  0
  183.3850  178.4970  141.1120 C   0  0  0  0  0  3  0  0  0  0  0  0
  188.7410  176.8550  148.3270 C   0  0  1  0  0  3  0  0  0  0  0  0
  185.5130  178.7320  143.4260 C   0  0  2  0  0  3  0  0  0  0  0  0
  187.7740  176.6030  142.7660 C   0  0  0  0  0  2  0  0  0  0  0  0
  188.8720  177.3790  139.3030 O   0  0  0  0  0  1  0  0  0  0  0  0
  188.5760  177.4360  141.7430 C   0  0  1  0  0  3  0  0  0  0  0  0
  192.3530  177.5080  141.7620 C   0  0  0  0  0  2  0  0  0  0  0  0
  190.8310  179.3800  143.9090 C   0  0  0  0  0  1  0  0  0  0  0  0
  184.6140  178.7090  140.7630 C   0  0  0  0  0  0  0  0  0  0  0  0
  186.2640  178.9060  142.3380 C   0  0  0  0  0  2  0  0  0  0  0  0
  190.1770  178.0520  144.2170 C   0  0  2  0  0  3  0  0  0  0  0  0
  1  5  1  1  0  0  0
  2 18  1  1  0  0  0
  3 11  1  0  0  0  0
  3 19  1  0  0  0  0
  4 23  1  6  0  0  0
  4  1  1  0  0  0  0
  4 13  1  0  0  0  0
  5 12  1  0  0  0  0
  6 21  1  0  0  0  0
  7 16  1  6  0  0  0
  7 30  1  0  0  0  0
  8 12  2  0  0  0  0
  8  6  1  0  0  0  0
 10 15  1  6  0  0  0
 10  7  1  0  0  0  0
 11 24  1  6  0  0  0
 11 25  1  0  0  0  0
 12  9  1  0  0  0  0
 13  8  1  1  0  0  0
 14  2  1  0  0  0  0
 15 26  1  0  0  0  0
 19 29  1  0  0  0  0
 20 14  1  0  0  0  0
 21 17  1  6  0  0  0
 21  9  1  0  0  0  0
 22 29  1  6  0  0  0
 22  2  1  0  0  0  0
 22  1  1  0  0  0  0
 25 10  1  0  0  0  0
 25 23  1  1  0  0  0
 26 16  1  0  0  0  0
 28 19  2  0  0  0  0
 28 20  2  0  0  0  0
 30 27  1  6  0  0  0
 30 13  1  0  0  0  0
M  END
>  <MODEL>
2

>  <REMARK>
 VINA RESULT:      -7.5      3.194      6.653
  Name = 
  0 active torsions:
  status: ('A' for Active; 'I' for Inactive)
                            x       y       z     vdW  Elec       q    Type
                         _______ _______ _______ _____ _____    ______ ____

>  <TORSDO>
F 0

$$$$
=
 OpenBabel10272413413D

 30 35  0  0  1  0  0  0  0  0999 V2000
  186.7270  178.4650  141.7260 C   0  0  1  0  0  3  0  0  0  0  0  0
  187.4090  177.3690  144.1480 C   0  0  1  0  0  3  0  0  0  0  0  0
  190.9680  176.7980  141.4420 N   0  0  0  0  0  2  0  0  0  0  0  0
  187.2080  178.5880  140.2200 C   0  0  2  0  0  3  0  0  0  0  0  0
  185.2240  178.2390  141.8620 C   0  0  0  0  0  2  0  0  0  0  0  0
  184.0910  178.3120  137.9190 S   0  0  0  0  0  0  0  0  0  0  0  0
  188.1620  178.0780  137.3100 C   0  0  1  0  0  3  0  0  0  0  0  0
  185.0160  177.8810  139.4060 C   0  0  0  0  0  0  0  0  0  0  0  0
  182.8710  179.0800  140.4860 S   0  0  0  0  0  0  0  0  0  0  0  0
  189.5440  177.8430  137.9330 C   0  0  2  0  0  3  0  0  0  0  0  0
  190.9170  177.5790  140.1540 C   0  0  1  0  0  3  0  0  0  0  0  0
  184.4620  178.2650  140.5680 C   0  0  0  0  0  0  0  0  0  0  0  0
  186.4900  177.5320  139.3500 C   0  0  1  0  0  3  0  0  0  0  0  0
  188.4730  178.0000  144.9830 N   0  0  0  0  0  2  0  0  0  0  0  0
  190.1550  176.6970  137.1590 C   0  0  0  0  0  2  0  0  0  0  0  0
  188.3610  177.7630  135.8590 C   0  0  0  0  0  2  0  0  0  0  0  0
  184.1560  180.8270  138.8680 N   0  0  0  0  0  1  0  0  0  0  0  0
  186.0230  177.6720  144.6920 C   0  0  0  0  0  1  0  0  0  0  0  0
  189.9450  176.7000  142.4510 C   0  0  0  0  0  0  0  0  0  0  0  0
  189.8720  177.7110  144.7800 C   0  0  0  0  0  3  0  0  0  0  0  0
  183.2550  179.6800  138.7980 C   0  0  1  0  0  3  0  0  0  0  0  0
  187.5720  177.5270  142.6310 C   0  0  2  0  0  3  0  0  0  0  0  0
  188.7180  178.8740  139.9950 C   0  0  0  0  0  2  0  0  0  0  0  0
  191.9060  177.1000  139.2930 O   0  0  0  0  0  1  0  0  0  0  0  0
  189.5190  177.6690  139.4570 C   0  0  1  0  0  3  0  0  0  0  0  0
  189.4930  176.7400  135.7940 C   0  0  0  0  0  2  0  0  0  0  0  0
  186.9640  175.8060  137.5720 C   0  0  0  0  0  1  0  0  0  0  0  0
  190.1640  177.1490  143.6510 C   0  0  0  0  0  0  0  0  0  0  0  0
  188.5910  176.9440  142.0000 C   0  0  0  0  0  2  0  0  0  0  0  0
  186.9740  177.2820  137.8960 C   0  0  2  0  0  3  0  0  0  0  0  0
  1  5  1  6  0  0  0
  1 22  1  0  0  0  0
  2 18  1  1  0  0  0
  2 14  1  0  0  0  0
  3 19  1  0  0  0  0
  4 23  1  1  0  0  0
  4  1  1  0  0  0  0
  6 21  1  0  0  0  0
  6  8  1  0  0  0  0
  7 16  1  6  0  0  0
  7 30  1  0  0  0  0
  7 10  1  0  0  0  0
  8 12  2  0  0  0  0
  9 12  1  0  0  0  0
 10 15  1  6  0  0  0
 10 25  1  0  0  0  0
 11 24  1  6  0  0  0
 11  3  1  0  0  0  0
 12  5  1  0  0  0  0
 13  8  1  6  0  0  0
 13  4  1  0  0  0  0
 19 28  2  0  0  0  0
 20 14  1  0  0  0  0
 21 17  1  1  0  0  0
 21  9  1  0  0  0  0
 22 29  1  1  0  0  0
 22  2  1  0  0  0  0
 25 23  1  1  0  0  0
 25 11  1  0  0  0  0
 26 16  1  0  0  0  0
 26 15  1  0  0  0  0
 28 20  2  0  0  0  0
 29 19  1  0  0  0  0
 30 27  1  1  0  0  0
 30 13  1  0  0  0  0
M  END
>  <MODEL>
3

>  <REMARK>
 VINA RESULT:      -6.7      2.287      5.719
  Name = 
  0 active torsions:
  status: ('A' for Active; 'I' for Inactive)
                            x       y       z     vdW  Elec       q    Type
                         _______ _______ _______ _____ _____    ______ ____

>  <TORSDO>
F 0

$$$$
=
 OpenBabel10272413413D

 30 35  0  0  1  0  0  0  0  0999 V2000
  189.2000  178.1070  140.2880 C   0  0  1  0  0  3  0  0  0  0  0  0
  189.0770  177.0650  137.7530 C   0  0  1  0  0  3  0  0  0  0  0  0
  184.8800  178.3110  138.8250 N   0  0  0  0  0  2  0  0  0  0  0  0
  188.2930  178.6070  141.4890 C   0  0  2  0  0  3  0  0  0  0  0  0
  190.4050  177.2880  140.7430 C   0  0  0  0  0  2  0  0  0  0  0  0
  189.9120  177.4220  144.8140 S   0  0  0  0  0  0  0  0  0  0  0  0
  186.2090  178.9030  143.7710 C   0  0  1  0  0  3  0  0  0  0  0  0
  189.5170  177.2030  143.0680 C   0  0  0  0  0  0  0  0  0  0  0  0
  192.1970  177.3000  142.9620 S   0  0  0  0  0  0  0  0  0  0  0  0
  185.1950  179.1560  142.6490 C   0  0  2  0  0  3  0  0  0  0  0  0
  184.7700  179.1690  140.0590 C   0  0  1  0  0  3  0  0  0  0  0  0
  190.5680  177.1790  142.2320 C   0  0  0  0  0  0  0  0  0  0  0  0
  188.1270  177.4770  142.5290 C   0  0  1  0  0  3  0  0  0  0  0  0
  188.7660  177.9500  136.5930 N   0  0  0  0  0  2  0  0  0  0  0  0
  183.9250  178.4580  143.0770 C   0  0  0  0  0  2  0  0  0  0  0  0
  185.3750  178.8850  145.0150 C   0  0  0  0  0  2  0  0  0  0  0  0
  191.2560  179.6090  144.0130 N   0  0  0  0  0  1  0  0  0  0  0  0
  190.5560  176.7200  137.8070 C   0  0  0  0  0  1  0  0  0  0  0  0
  186.0640  177.6840  138.2940 C   0  0  0  0  0  0  0  0  0  0  0  0
  187.4090  178.2690  136.2200 C   0  0  0  0  0  3  0  0  0  0  0  0
  191.5020  178.2190  144.3860 C   0  0  1  0  0  3  0  0  0  0  0  0
  188.4440  177.4720  139.0890 C   0  0  2  0  0  3  0  0  0  0  0  0
  187.0750  179.4960  141.1160 C   0  0  0  0  0  2  0  0  0  0  0  0
  183.4290  179.2390  140.4450 O   0  0  0  0  0  1  0  0  0  0  0  0
  185.7090  178.7880  141.2510 C   0  0  1  0  0  3  0  0  0  0  0  0
  183.9850  178.4130  144.5920 C   0  0  0  0  0  2  0  0  0  0  0  0
  186.3570  176.3290  143.9130 C   0  0  0  0  0  1  0  0  0  0  0  0
  186.5130  178.0220  137.1230 C   0  0  0  0  0  0  0  0  0  0  0  0
  187.1220  177.4280  139.2480 C   0  0  0  0  0  2  0  0  0  0  0  0
  187.0830  177.6320  143.6680 C   0  0  2  0  0  3  0  0  0  0  0  0
  1  5  1  1  0  0  0
  1  4  1  0  0  0  0
  2 18  1  1  0  0  0
  2 22  1  0  0  0  0
  3 11  1  0  0  0  0
  4 23  1  6  0  0  0
  4 13  1  0  0  0  0
  5 12  1  0  0  0  0
  7 16  1  1  0  0  0
  8  6  1  0  0  0  0
  9 21  1  0  0  0  0
 10 15  1  1  0  0  0
 10  7  1  0  0  0  0
 11 24  1  1  0  0  0
 11 25  1  0  0  0  0
 12  9  1  0  0  0  0
 12  8  2  0  0  0  0
 13  8  1  1  0  0  0
 13 30  1  0  0  0  0
 14  2  1  0  0  0  0
 15 26  1  0  0  0  0
 19  3  1  0  0  0  0
 19 29  1  0  0  0  0
 20 14  1  0  0  0  0
 20 28  2  0  0  0  0
 21 17  1  6  0  0  0
 21  6  1  0  0  0  0
 22 29  1  6  0  0  0
 22  1  1  0  0  0  0
 25 23  1  6  0  0  0
 25 10  1  0  0  0  0
 26 16  1  0  0  0  0
 28 19  2  0  0  0  0
 30  7  1  0  0  0  0
 30 27  1  6  0  0  0
M  END
>  <MODEL>
4

>  <REMARK>
 VINA RESULT:      -6.5      3.191      5.443
  Name = 
  0 active torsions:
  status: ('A' for Active; 'I' for Inactive)
                            x       y       z     vdW  Elec       q    Type
                         _______ _______ _______ _____ _____    ______ ____

>  <TORSDO>
F 0

$$$$
=
 OpenBabel10272413413D

 30 35  0  0  1  0  0  0  0  0999 V2000
  183.2790  179.1730  141.5030 C   0  0  1  0  0  3  0  0  0  0  0  0
  183.1960  178.4450  144.1470 C   0  0  1  0  0  3  0  0  0  0  0  0
  187.4230  177.7270  142.7590 N   0  0  0  0  0  2  0  0  0  0  0  0
  184.2000  179.1240  140.2120 C   0  0  2  0  0  3  0  0  0  0  0  0
  181.8100  178.8820  141.2070 C   0  0  0  0  0  2  0  0  0  0  0  0
  181.9480  178.3710  137.1380 S   0  0  0  0  0  0  0  0  0  0  0  0
  186.0110  178.2910  137.8330 C   0  0  1  0  0  3  0  0  0  0  0  0
  182.3750  178.1930  138.8810 C   0  0  0  0  0  0  0  0  0  0  0  0
  179.9860  179.3990  139.0760 S   0  0  0  0  0  0  0  0  0  0  0  0
  187.1370  178.2190  138.8720 C   0  0  2  0  0  3  0  0  0  0  0  0
  187.7610  178.3270  141.4190 C   0  0  1  0  0  3  0  0  0  0  0  0
  181.4840  178.6940  139.7520 C   0  0  0  0  0  0  0  0  0  0  0  0
  183.7990  177.9230  139.3250 C   0  0  1  0  0  3  0  0  0  0  0  0
  183.9420  179.2400  145.1660 N   0  0  0  0  0  2  0  0  0  0  0  0
  187.9720  177.0170  138.4910 C   0  0  0  0  0  2  0  0  0  0  0  0
  186.6520  177.7990  136.5710 C   0  0  0  0  0  2  0  0  0  0  0  0
  181.6830  180.9880  137.6930 N   0  0  0  0  0  1  0  0  0  0  0  0
  181.7060  178.7380  144.1960 C   0  0  0  0  0  1  0  0  0  0  0  0
  186.1400  177.7040  143.4130 C   0  0  0  0  0  0  0  0  0  0  0  0
  185.3390  179.0060  145.4410 C   0  0  0  0  0  3  0  0  0  0  0  0
  180.8630  179.7930  137.5170 C   0  0  1  0  0  3  0  0  0  0  0  0
  183.8170  178.4120  142.7450 C   0  0  2  0  0  3  0  0  0  0  0  0
  185.7010  179.4630  140.4170 C   0  0  0  0  0  2  0  0  0  0  0  0
  188.9740  177.7960  140.9750 O   0  0  0  0  0  1  0  0  0  0  0  0
  186.6460  178.2450  140.3250 C   0  0  1  0  0  3  0  0  0  0  0  0
  187.7630  176.8430  136.9990 C   0  0  0  0  0  2  0  0  0  0  0  0
  184.8220  176.0080  138.0390 C   0  0  0  0  0  1  0  0  0  0  0  0
  185.9730  178.3190  144.5460 C   0  0  0  0  0  0  0  0  0  0  0  0
  184.9880  177.8090  142.5430 C   0  0  0  0  0  2  0  0  0  0  0  0
  184.7110  177.5130  138.1370 C   0  0  2  0  0  3  0  0  0  0  0  0
  1  5  1  6  0  0  0
  1 22  1  0  0  0  0
  2 18  1  6  0  0  0
  2 14  1  0  0  0  0
  3 19  1  0  0  0  0
  4 23  1  1  0  0  0
  4  1  1  0  0  0  0
  6 21  1  0  0  0  0
  6  8  1  0  0  0  0
  7 16  1  6  0  0  0
  7 30  1  0  0  0  0
  7 10  1  0  0  0  0
  8 12  2  0  0  0  0
  9 12  1  0  0  0  0
 10 15  1  6  0  0  0
 10 25  1  0  0  0  0
 11 24  1  6  0  0  0
 11  3  1  0  0  0  0
 12  5  1  0  0  0  0
 13  8  1  6  0  0  0
 13  4  1  0  0  0  0
 14 20  1  0  0  0  0
 16 26  1  0  0  0  0
 19 28  2  0  0  0  0
 21 17  1  1  0  0  0
 21  9  1  0  0  0  0
 22 29  1  1  0  0  0
 22  2  1  0  0  0  0
 25 23  1  6  0  0  0
 25 11  1  0  0  0  0
 26 15  1  0  0  0  0
 28 20  2  0  0  0  0
 29 19  1  0  0  0  0
 30 27  1  1  0  0  0
 30 13  1  0  0  0  0
M  END
>  <MODEL>
5

>  <REMARK>
 VINA RESULT:      -6.3      2.674      6.147
  Name = 
  0 active torsions:
  status: ('A' for Active; 'I' for Inactive)
                            x       y       z     vdW  Elec       q    Type
                         _______ _______ _______ _____ _____    ______ ____

>  <TORSDO>
F 0

$$$$
=
 OpenBabel10272413413D

 30 35  0  0  1  0  0  0  0  0999 V2000
  189.4070  177.0420  142.2550 C   0  0  1  0  0  3  0  0  0  0  0  0
  191.5940  177.5140  143.8430 C   0  0  1  0  0  3  0  0  0  0  0  0
  187.9860  177.7810  146.5310 N   0  0  0  0  0  2  0  0  0  0  0  0
  187.8220  177.0910  142.2490 C   0  0  2  0  0  3  0  0  0  0  0  0
  190.0310  177.5580  140.9610 C   0  0  0  0  0  2  0  0  0  0  0  0
  186.6570  178.4380  138.7980 S   0  0  0  0  0  0  0  0  0  0  0  0
  184.8310  177.8960  142.4540 C   0  0  1  0  0  3  0  0  0  0  0  0
  187.8160  178.3860  140.1790 C   0  0  0  0  0  0  0  0  0  0  0  0
  189.3800  177.5030  138.1850 S   0  0  0  0  0  0  0  0  0  0  0  0
  185.0100  177.7120  143.9670 C   0  0  2  0  0  3  0  0  0  0  0  0
  186.7040  177.2730  145.9230 C   0  0  1  0  0  3  0  0  0  0  0  0
  189.0450  177.9290  139.8900 C   0  0  0  0  0  0  0  0  0  0  0  0
  187.3380  178.4150  141.6170 C   0  0  1  0  0  3  0  0  0  0  0  0
  191.9820  176.5300  144.8960 N   0  0  0  0  0  2  0  0  0  0  0  0
  184.2100  178.8200  144.6130 C   0  0  0  0  0  2  0  0  0  0  0  0
  183.4330  178.4160  142.3160 C   0  0  0  0  0  2  0  0  0  0  0  0
  187.2660  175.8400  138.4700 N   0  0  0  0  0  1  0  0  0  0  0  0
  192.5100  177.4240  142.6340 C   0  0  0  0  0  1  0  0  0  0  0  0
  189.2700  177.9150  145.8900 C   0  0  0  0  0  0  0  0  0  0  0  0
  191.3830  176.5430  146.2090 C   0  0  0  0  0  3  0  0  0  0  0  0
  187.6040  177.1470  137.9150 C   0  0  1  0  0  3  0  0  0  0  0  0
  190.0950  177.5980  143.5320 C   0  0  2  0  0  3  0  0  0  0  0  0
  187.1060  176.5310  143.5090 C   0  0  0  0  0  2  0  0  0  0  0  0
  185.6320  177.6750  146.7220 O   0  0  0  0  0  1  0  0  0  0  0  0
  186.4740  177.6120  144.4130 C   0  0  1  0  0  3  0  0  0  0  0  0
  183.1250  179.1650  143.6110 C   0  0  0  0  0  2  0  0  0  0  0  0
  185.6940  180.2880  142.0080 C   0  0  0  0  0  1  0  0  0  0  0  0
  190.2850  177.2210  146.3100 C   0  0  0  0  0  0  0  0  0  0  0  0
  189.2430  178.0530  144.4500 C   0  0  0  0  0  2  0  0  0  0  0  0
  185.8400  178.8100  141.7240 C   0  0  2  0  0  3  0  0  0  0  0  0
  1  5  1  6  0  0  0
  1 22  1  0  0  0  0
  2 18  1  6  0  0  0
  2 14  1  0  0  0  0
  4  1  1  0  0  0  0
  4 23  1  1  0  0  0
  6  8  1  0  0  0  0
  7 16  1  1  0  0  0
  7 10  1  0  0  0  0
  9 12  1  0  0  0  0
 10 25  1  0  0  0  0
 10 15  1  1  0  0  0
 11  3  1  0  0  0  0
 11 24  1  1  0  0  0
 12  8  2  0  0  0  0
 12  5  1  0  0  0  0
 13  8  1  6  0  0  0
 13 30  1  0  0  0  0
 13  4  1  0  0  0  0
 14 20  1  0  0  0  0
 16 26  1  0  0  0  0
 19 28  2  0  0  0  0
 19  3  1  0  0  0  0
 20 28  2  0  0  0  0
 21  9  1  0  0  0  0
 21 17  1  1  0  0  0
 21  6  1  0  0  0  0
 22  2  1  0  0  0  0
 22 29  1  1  0  0  0
 25 23  1  6  0  0  0
 25 11  1  0  0  0  0
 26 15  1  0  0  0  0
 29 19  1  0  0  0  0
 30 27  1  1  0  0  0
 30  7  1  0  0  0  0
M  END
>  <MODEL>
6

>  <REMARK>
 VINA RESULT:      -5.9      2.131      3.686
  Name = 
  0 active torsions:
  status: ('A' for Active; 'I' for Inactive)
                            x       y       z     vdW  Elec       q    Type
                         _______ _______ _______ _____ _____    ______ ____

>  <TORSDO>
F 0

$$$$
=
 OpenBabel10272413413D

 30 35  0  0  1  0  0  0  0  0999 V2000
  187.4820  178.6850  141.1740 C   0  0  1  0  0  3  0  0  0  0  0  0
  186.1790  178.0280  138.8500 C   0  0  1  0  0  3  0  0  0  0  0  0
  182.9800  178.8520  141.9160 N   0  0  0  0  0  2  0  0  0  0  0  0
  187.2430  178.9450  142.7200 C   0  0  2  0  0  3  0  0  0  0  0  0
  188.7450  177.8790  140.8860 C   0  0  0  0  0  2  0  0  0  0  0  0
  190.1980  177.3730  144.6900 S   0  0  0  0  0  0  0  0  0  0  0  0
  186.4610  178.7740  145.7190 C   0  0  1  0  0  3  0  0  0  0  0  0
  189.0350  177.3950  143.3120 C   0  0  0  0  0  0  0  0  0  0  0  0
  191.3620  177.6630  142.0010 S   0  0  0  0  0  0  0  0  0  0  0  0
  185.0460  179.1330  145.2460 C   0  0  2  0  0  3  0  0  0  0  0  0
  183.4690  179.5070  143.1810 C   0  0  1  0  0  3  0  0  0  0  0  0
  189.5780  177.5580  142.0940 C   0  0  0  0  0  0  0  0  0  0  0  0
  187.5590  177.6640  143.5240 C   0  0  1  0  0  3  0  0  0  0  0  0
  185.3810  179.0570  138.1220 N   0  0  0  0  0  2  0  0  0  0  0  0
  184.1070  178.3050  146.0930 C   0  0  0  0  0  2  0  0  0  0  0  0
  186.2970  178.5220  147.1870 C   0  0  0  0  0  2  0  0  0  0  0  0
  191.0560  179.7300  143.7210 N   0  0  0  0  0  1  0  0  0  0  0  0
  187.5080  177.7650  138.1620 C   0  0  0  0  0  1  0  0  0  0  0  0
  183.7710  178.3820  140.8080 C   0  0  0  0  0  0  0  0  0  0  0  0
  184.0120  179.3470  138.4710 C   0  0  0  0  0  3  0  0  0  0  0  0
  191.4220  178.3160  143.7120 C   0  0  1  0  0  3  0  0  0  0  0  0
  186.2450  178.1930  140.3730 C   0  0  2  0  0  3  0  0  0  0  0  0
  186.0070  179.8070  143.0960 C   0  0  0  0  0  2  0  0  0  0  0  0
  182.4620  179.4400  144.1470 O   0  0  0  0  0  1  0  0  0  0  0  0
  184.8470  179.0090  143.7300 C   0  0  1  0  0  3  0  0  0  0  0  0
  184.8620  178.0380  147.3810 C   0  0  0  0  0  2  0  0  0  0  0  0
  186.6110  176.2210  145.3640 C   0  0  0  0  0  1  0  0  0  0  0  0
  183.6330  178.9170  139.6320 C   0  0  0  0  0  0  0  0  0  0  0  0
  185.1460  178.0480  141.1130 C   0  0  0  0  0  2  0  0  0  0  0  0
  187.1640  177.5870  145.0240 C   0  0  2  0  0  3  0  0  0  0  0  0
  1  5  1  1  0  0  0
  1  4  1  0  0  0  0
  2 18  1  6  0  0  0
  2 22  1  0  0  0  0
  3 11  1  0  0  0  0
  4 23  1  6  0  0  0
  4 13  1  0  0  0  0
  5 12  1  0  0  0  0
  7 16  1  1  0  0  0
  8  6  1  0  0  0  0
  9 12  1  0  0  0  0
  9 21  1  0  0  0  0
 10  7  1  0  0  0  0
 10 15  1  1  0  0  0
 11 25  1  0  0  0  0
 11 24  1  1  0  0  0
 12  8  2  0  0  0  0
 13  8  1  1  0  0  0
 13 30  1  0  0  0  0
 14 20  1  0  0  0  0
 14  2  1  0  0  0  0
 15 26  1  0  0  0  0
 16 26  1  0  0  0  0
 19 29  1  0  0  0  0
 19  3  1  0  0  0  0
 20 28  2  0  0  0  0
 21 17  1  6  0  0  0
 21  6  1  0  0  0  0
 22 29  1  6  0  0  0
 22  1  1  0  0  0  0
 25 23  1  6  0  0  0
 25 10  1  0  0  0  0
 28 19  2  0  0  0  0
 30 27  1  6  0  0  0
 30  7  1  0  0  0  0
M  END
>  <MODEL>
7

>  <REMARK>
 VINA RESULT:      -5.8      2.933      5.362
  Name = 
  0 active torsions:
  status: ('A' for Active; 'I' for Inactive)
                            x       y       z     vdW  Elec       q    Type
                         _______ _______ _______ _____ _____    ______ ____

>  <TORSDO>
F 0

$$$$
=
 OpenBabel10272413413D

 30 35  0  0  1  0  0  0  0  0999 V2000
  184.4110  178.8280  143.7740 C   0  0  1  0  0  3  0  0  0  0  0  0
  186.0770  177.7300  145.6580 C   0  0  1  0  0  3  0  0  0  0  0  0
  188.3090  177.5880  141.7450 N   0  0  0  0  0  2  0  0  0  0  0  0
  184.2470  179.0420  142.2110 C   0  0  2  0  0  3  0  0  0  0  0  0
  183.1060  178.4540  144.4710 C   0  0  0  0  0  2  0  0  0  0  0  0
  180.5060  178.5380  141.2990 S   0  0  0  0  0  0  0  0  0  0  0  0
  184.0090  178.7160  139.1330 C   0  0  1  0  0  3  0  0  0  0  0  0
  181.9730  178.1530  142.2740 C   0  0  0  0  0  0  0  0  0  0  0  0
  180.3450  179.1060  144.1830 S   0  0  0  0  0  0  0  0  0  0  0  0
  185.5380  178.5970  139.1490 C   0  0  2  0  0  3  0  0  0  0  0  0
  187.6930  178.3980  140.6340 C   0  0  1  0  0  3  0  0  0  0  0  0
  181.8950  178.4460  143.5830 C   0  0  0  0  0  0  0  0  0  0  0  0
  183.3270  177.9490  141.6230 C   0  0  1  0  0  3  0  0  0  0  0  0
  187.3320  178.4340  146.0500 N   0  0  0  0  0  2  0  0  0  0  0  0
  185.8790  177.5390  138.1240 C   0  0  0  0  0  2  0  0  0  0  0  0
  183.6420  178.4660  137.7020 C   0  0  0  0  0  2  0  0  0  0  0  0
  180.7470  181.0170  142.3110 N   0  0  0  0  0  1  0  0  0  0  0  0
  185.0000  177.8810  146.7190 C   0  0  0  0  0  1  0  0  0  0  0  0
  187.7780  177.3600  143.0650 C   0  0  0  0  0  0  0  0  0  0  0  0
  188.5550  178.2870  145.2980 C   0  0  0  0  0  3  0  0  0  0  0  0
  179.9830  179.7910  142.5230 C   0  0  1  0  0  3  0  0  0  0  0  0
  185.6150  177.9490  144.2120 C   0  0  2  0  0  3  0  0  0  0  0  0
  185.5180  179.4800  141.4330 C   0  0  0  0  0  2  0  0  0  0  0  0
  188.2940  178.0440  139.4250 O   0  0  0  0  0  1  0  0  0  0  0  0
  186.1310  178.3750  140.5460 C   0  0  1  0  0  3  0  0  0  0  0  0
  184.7310  177.5600  137.1320 C   0  0  0  0  0  2  0  0  0  0  0  0
  183.1890  176.3320  139.6910 C   0  0  0  0  0  1  0  0  0  0  0  0
  188.4190  177.7920  144.1100 C   0  0  0  0  0  0  0  0  0  0  0  0
  186.3420  177.4860  143.1960 C   0  0  0  0  0  2  0  0  0  0  0  0
  183.2140  177.7920  140.0830 C   0  0  2  0  0  3  0  0  0  0  0  0
  1 22  1  0  0  0  0
  1  5  1  6  0  0  0
  2 14  1  0  0  0  0
  2 18  1  1  0  0  0
  3 19  1  0  0  0  0
  4 23  1  6  0  0  0
  4  1  1  0  0  0  0
  6  8  1  0  0  0  0
  6 21  1  0  0  0  0
  7 16  1  6  0  0  0
  7 10  1  0  0  0  0
  7 30  1  0  0  0  0
  8 12  2  0  0  0  0
 10 15  1  6  0  0  0
 10 25  1  0  0  0  0
 11 24  1  6  0  0  0
 11  3  1  0  0  0  0
 12  9  1  0  0  0  0
 12  5  1  0  0  0  0
 13  4  1  0  0  0  0
 13  8  1  6  0  0  0
 19 29  1  0  0  0  0
 19 28  2  0  0  0  0
 20 14  1  0  0  0  0
 21 17  1  6  0  0  0
 21  9  1  0  0  0  0
 22 29  1  6  0  0  0
 22  2  1  0  0  0  0
 25 11  1  0  0  0  0
 25 23  1  1  0  0  0
 26 16  1  0  0  0  0
 26 15  1  0  0  0  0
 28 20  2  0  0  0  0
 30 27  1  1  0  0  0
 30 13  1  0  0  0  0
M  END
>  <MODEL>
8

>  <REMARK>
 VINA RESULT:      -5.7      2.552      5.662
  Name = 
  0 active torsions:
  status: ('A' for Active; 'I' for Inactive)
                            x       y       z     vdW  Elec       q    Type
                         _______ _______ _______ _____ _____    ______ ____

>  <TORSDO>
F 0

$$$$
=
 OpenBabel10272413413D

 30 35  0  0  1  0  0  0  0  0999 V2000
  184.6170  174.7520  136.7030 C   0  0  1  0  0  3  0  0  0  0  0  0
  187.2490  174.9710  135.9610 C   0  0  1  0  0  3  0  0  0  0  0  0
  186.2130  178.7870  138.1230 N   0  0  0  0  0  2  0  0  0  0  0  0
  183.4050  175.5800  137.3040 C   0  0  2  0  0  3  0  0  0  0  0  0
  184.2040  173.8180  135.5690 C   0  0  0  0  0  2  0  0  0  0  0  0
  180.1630  174.5150  135.4510 S   0  0  0  0  0  0  0  0  0  0  0  0
  181.1850  177.6640  137.9070 C   0  0  1  0  0  3  0  0  0  0  0  0
  181.9350  174.8420  135.4980 C   0  0  0  0  0  0  0  0  0  0  0  0
  181.9300  172.2210  134.9260 S   0  0  0  0  0  0  0  0  0  0  0  0
  182.3130  178.5120  138.5090 C   0  0  2  0  0  3  0  0  0  0  0  0
  184.9010  178.7590  138.8640 C   0  0  1  0  0  3  0  0  0  0  0  0
  182.7290  173.7800  135.2870 C   0  0  0  0  0  0  0  0  0  0  0  0
  182.4950  176.0850  136.1620 C   0  0  1  0  0  3  0  0  0  0  0  0
  188.3220  174.9800  136.9980 N   0  0  0  0  0  2  0  0  0  0  0  0
  182.0070  179.9400  138.1180 C   0  0  0  0  0  2  0  0  0  0  0  0
  179.9820  178.5530  137.9870 C   0  0  0  0  0  2  0  0  0  0  0  0
  180.6810  172.6250  137.2910 N   0  0  0  0  0  1  0  0  0  0  0  0
  187.1760  173.6300  135.2500 C   0  0  0  0  0  1  0  0  0  0  0  0
  186.7610  177.7650  137.2680 C   0  0  0  0  0  0  0  0  0  0  0  0
  188.7110  176.1900  137.6810 C   0  0  0  0  0  3  0  0  0  0  0  0
  180.4460  172.7550  135.8560 C   0  0  1  0  0  3  0  0  0  0  0  0
  185.9030  175.5650  136.3910 C   0  0  2  0  0  3  0  0  0  0  0  0
  183.7300  176.5150  138.5010 C   0  0  0  0  0  2  0  0  0  0  0  0
  184.5600  180.0620  139.2350 O   0  0  0  0  0  1  0  0  0  0  0  0
  183.7210  178.0190  138.1530 C   0  0  1  0  0  3  0  0  0  0  0  0
  180.5030  179.9870  137.9220 C   0  0  0  0  0  2  0  0  0  0  0  0
  181.3060  178.1670  135.3770 C   0  0  0  0  0  1  0  0  0  0  0  0
  187.8730  177.1730  137.5870 C   0  0  0  0  0  0  0  0  0  0  0  0
  185.7990  176.8650  136.6680 C   0  0  0  0  0  2  0  0  0  0  0  0
  181.3870  177.1280  136.4720 C   0  0  2  0  0  3  0  0  0  0  0  0
  1  5  1  6  0  0  0
  1  4  1  0  0  0  0
  2 18  1  1  0  0  0
  2 22  1  0  0  0  0
  2 14  1  0  0  0  0
  3 11  1  0  0  0  0
  4 23  1  6  0  0  0
  6  8  1  0  0  0  0
  6 21  1  0  0  0  0
  7 16  1  6  0  0  0
  7 10  1  0  0  0  0
  9 12  1  0  0  0  0
  9 21  1  0  0  0  0
 10 15  1  6  0  0  0
 11 24  1  6  0  0  0
 12  8  2  0  0  0  0
 12  5  1  0  0  0  0
 13  8  1  1  0  0  0
 13 30  1  0  0  0  0
 13  4  1  0  0  0  0
 14 20  1  0  0  0  0
 19 28  2  0  0  0  0
 19  3  1  0  0  0  0
 21 17  1  1  0  0  0
 22 29  1  1  0  0  0
 22  1  1  0  0  0  0
 25 23  1  1  0  0  0
 25 10  1  0  0  0  0
 25 11  1  0  0  0  0
 26 16  1  0  0  0  0
 26 15  1  0  0  0  0
 28 20  2  0  0  0  0
 29 19  1  0  0  0  0
 30 27  1  6  0  0  0
 30  7  1  0  0  0  0
M  END
>  <MODEL>
9

>  <REMARK>
 VINA RESULT:      -5.7      5.566      7.421
  Name = 
  0 active torsions:
  status: ('A' for Active; 'I' for Inactive)
                            x       y       z     vdW  Elec       q    Type
                         _______ _______ _______ _____ _____    ______ ____

>  <TORSDO>
F 0

$$$$
