=
 OpenBabel10272414003D

 30 33  0  0  1  0  0  0  0  0999 V2000
  185.2320  178.3150  145.3920 C   0  0  0  0  0  0  0  0  0  0  0  0
  183.9240  178.5580  143.3880 C   0  0  0  0  0  3  0  0  0  0  0  0
  187.3790  178.3530  140.8900 N   0  0  0  0  0  0  0  0  0  0  0  0
  187.5140  176.0600  143.4960 C   0  0  0  0  0  1  0  0  0  0  0  0
  185.7280  179.4750  146.0690 N   0  0  0  0  0  2  0  0  0  0  0  0
  187.7350  177.7360  148.1330 C   0  0  2  0  0  3  0  0  0  0  0  0
  186.3310  178.3530  148.3120 C   0  0  0  0  0  2  0  0  0  0  0  0
  186.2090  180.7070  147.9770 O   0  0  0  0  0  0  0  0  0  0  0  0
  190.2320  177.6490  143.3990 C   0  0  2  0  0  3  0  0  0  0  0  0
  188.6850  178.1530  141.4330 C   0  0  0  0  0  0  0  0  0  0  0  0
  186.0600  179.5690  147.4620 C   0  0  0  0  0  0  0  0  0  0  0  0
  188.8320  178.2970  146.3840 C   0  0  2  0  0  3  0  0  0  0  0  0
  183.7170  178.5710  141.9010 C   0  0  0  0  0  2  0  0  0  0  0  0
  190.7500  178.3400  144.6640 C   0  0  0  0  0  2  0  0  0  0  0  0
  188.8120  178.7710  147.8250 C   0  0  0  0  0  2  0  0  0  0  0  0
  184.8280  177.3120  146.0390 O   0  0  0  0  0  0  0  0  0  0  0  0
  186.2260  178.4510  141.7420 C   0  0  0  0  0  0  0  0  0  0  0  0
  184.9610  178.8600  141.1920 N   0  0  0  0  0  0  0  0  0  0  0  0
  187.8820  177.1680  146.7360 C   0  0  0  0  0  2  0  0  0  0  0  0
  185.1240  178.3270  143.9290 C   0  0  0  0  0  0  0  0  0  0  0  0
  187.5980  177.5760  143.6180 C   0  0  1  0  0  3  0  0  0  0  0  0
  189.6760  178.0510  140.6610 O   0  0  0  0  0  0  0  0  0  0  0  0
  188.8520  178.1610  142.9250 C   0  0  1  0  0  3  0  0  0  0  0  0
  190.7670  176.9360  146.5580 O   0  0  0  0  0  0  0  0  0  0  0  0
  184.8750  179.3240  139.8180 C   0  0  0  0  0  1  0  0  0  0  0  0
  186.3230  178.1730  143.0610 C   0  0  1  0  0  3  0  0  0  0  0  0
  190.1640  177.7920  145.9290 C   0  0  0  0  0  0  0  0  0  0  0  0
  190.3090  176.2540  143.4870 O   0  0  0  0  0  0  0  0  0  0  0  0
  191.6640  175.9570  143.3400 C   0  0  0  0  0  2  0  0  0  0  0  0
  192.0460  174.8580  144.3070 C   0  0  0  0  0  1  0  0  0  0  0  0
  1 16  2  0  0  0  0
  1  5  1  0  0  0  0
  2 20  2  0  0  0  0
  3 10  1  0  0  0  0
  3 17  2  0  0  0  0
  5 11  1  0  0  0  0
  6 19  1  6  0  0  0
  6  7  1  0  0  0  0
  9 28  1  1  0  0  0
  9 14  1  0  0  0  0
 11  8  2  0  0  0  0
 11  7  1  0  0  0  0
 12 19  1  1  0  0  0
 12 15  1  0  0  0  0
 13  2  1  0  0  0  0
 14 27  1  0  0  0  0
 15  6  1  0  0  0  0
 18 17  1  0  0  0  0
 18 13  1  0  0  0  0
 20  1  1  0  0  0  0
 21  4  1  6  0  0  0
 22 10  2  0  0  0  0
 23 10  1  6  0  0  0
 23  9  1  0  0  0  0
 23 21  1  0  0  0  0
 25 18  1  0  0  0  0
 26 17  1  6  0  0  0
 26 21  1  0  0  0  0
 26 20  1  0  0  0  0
 27 12  1  0  0  0  0
 27 24  2  0  0  0  0
 29 28  1  0  0  0  0
 29 30  1  0  0  0  0
M  END
>  <MODEL>
1

>  <REMARK>
 VINA RESULT:      -7.5      0.000      0.000
  Name = 
  2 active torsions:
  status: ('A' for Active; 'I' for Inactive)
    1  A    between atoms: C_7  and  O_26
    2  A    between atoms: C_10  and  O_26
                            x       y       z     vdW  Elec       q    Type
                         _______ _______ _______ _____ _____    ______ ____

>  <TORSDO>
F 2

$$$$
=
 OpenBabel10272414003D

 30 33  0  0  1  0  0  0  0  0999 V2000
  186.7880  178.1940  138.1320 C   0  0  0  0  0  0  0  0  0  0  0  0
  184.5520  178.8670  138.7100 C   0  0  0  0  0  3  0  0  0  0  0  0
  185.2490  178.2560  142.8760 N   0  0  0  0  0  2  0  0  0  0  0  0
  187.9600  179.7570  141.3050 C   0  0  0  0  0  1  0  0  0  0  0  0
  187.0680  176.8220  137.8310 N   0  0  0  0  0  2  0  0  0  0  0  0
  190.4070  177.2280  137.8440 C   0  0  2  0  0  3  0  0  0  0  0  0
  189.3640  177.1610  136.7070 C   0  0  0  0  0  2  0  0  0  0  0  0
  188.1040  175.1450  136.6060 O   0  0  0  0  0  0  0  0  0  0  0  0
  188.9950  177.3180  143.0070 C   0  0  2  0  0  3  0  0  0  0  0  0
  186.5230  177.8370  143.3690 C   0  0  0  0  0  0  0  0  0  0  0  0
  188.1420  176.3330  137.0160 C   0  0  0  0  0  0  0  0  0  0  0  0
  189.7550  176.6580  139.8010 C   0  0  2  0  0  3  0  0  0  0  0  0
  183.4540  179.2310  139.6650 C   0  0  0  0  0  2  0  0  0  0  0  0
  189.8620  176.2440  142.3410 C   0  0  0  0  0  2  0  0  0  0  0  0
  190.4770  175.9480  138.6710 C   0  0  0  0  0  2  0  0  0  0  0  0
  187.3570  179.1230  137.4990 O   0  0  0  0  0  0  0  0  0  0  0  0
  185.0160  178.4300  141.4690 C   0  0  0  0  0  0  0  0  0  0  0  0
  183.6790  178.6450  140.9840 N   0  0  0  0  0  0  0  0  0  0  0  0
  189.8330  177.9670  139.0360 C   0  0  0  0  0  2  0  0  0  0  0  0
  185.7690  178.5170  139.1360 C   0  0  0  0  0  0  0  0  0  0  0  0
  187.4700  178.3290  141.0990 C   0  0  1  0  0  3  0  0  0  0  0  0
  186.7050  177.7120  144.6090 O   0  0  0  0  0  0  0  0  0  0  0  0
  187.5910  177.4680  142.3790 C   0  0  1  0  0  3  0  0  0  0  0  0
  191.6720  177.1280  141.1160 O   0  0  0  0  0  0  0  0  0  0  0  0
  182.5460  178.5330  141.8870 C   0  0  0  0  0  1  0  0  0  0  0  0
  186.0440  178.3800  140.5920 C   0  0  0  0  0  0  0  0  0  0  0  0
  190.5260  176.7070  141.0810 C   0  0  0  0  0  0  0  0  0  0  0  0
  189.6740  178.5330  143.1520 O   0  0  0  0  0  0  0  0  0  0  0  0
  190.3610  178.4220  144.3610 C   0  0  0  0  0  2  0  0  0  0  0  0
  191.7490  179.0060  144.2070 C   0  0  0  0  0  1  0  0  0  0  0  0
  1 20  1  0  0  0  0
  2 20  2  0  0  0  0
  2 13  1  0  0  0  0
  3 10  1  0  0  0  0
  5  1  1  0  0  0  0
  6  7  1  6  0  0  0
  6 15  1  0  0  0  0
  6 19  1  0  0  0  0
  7 11  1  0  0  0  0
  8 11  2  0  0  0  0
  9 28  1  6  0  0  0
 10 22  2  0  0  0  0
 11  5  1  0  0  0  0
 12 15  1  6  0  0  0
 12 27  1  0  0  0  0
 13 18  1  0  0  0  0
 14  9  1  0  0  0  0
 16  1  2  0  0  0  0
 17  3  1  0  0  0  0
 18 17  1  0  0  0  0
 18 25  1  0  0  0  0
 19 12  1  0  0  0  0
 20 26  1  0  0  0  0
 21  4  1  1  0  0  0
 21 23  1  0  0  0  0
 23  9  1  0  0  0  0
 23 10  1  1  0  0  0
 26 21  1  0  0  0  0
 26 17  2  0  0  0  0
 27 24  2  0  0  0  0
 27 14  1  0  0  0  0
 28 29  1  0  0  0  0
 30 29  1  0  0  0  0
M  END
>  <MODEL>
2

>  <REMARK>
 VINA RESULT:      -6.8      2.701      6.340
  Name = 
  2 active torsions:
  status: ('A' for Active; 'I' for Inactive)
    1  A    between atoms: C_7  and  O_26
    2  A    between atoms: C_10  and  O_26
                            x       y       z     vdW  Elec       q    Type
                         _______ _______ _______ _____ _____    ______ ____

>  <TORSDO>
F 2

$$$$
=
 OpenBabel10272414003D

 30 33  0  0  1  0  0  0  0  0999 V2000
  185.5100  178.3180  142.3830 C   0  0  0  0  0  0  0  0  0  0  0  0
  186.1380  178.3080  140.0610 C   0  0  0  0  0  3  0  0  0  0  0  0
  190.2890  177.9700  140.9970 N   0  0  0  0  0  0  0  0  0  0  0  0
  188.3220  175.9620  143.0390 C   0  0  0  0  0  1  0  0  0  0  0  0
  185.3990  179.5580  143.0900 N   0  0  0  0  0  2  0  0  0  0  0  0
  185.1140  178.1110  146.1130 C   0  0  2  0  0  3  0  0  0  0  0  0
  184.0770  178.6940  145.1280 C   0  0  0  0  0  2  0  0  0  0  0  0
  184.3690  180.9950  144.5940 O   0  0  0  0  0  0  0  0  0  0  0  0
  190.2920  177.6270  144.8450 C   0  0  2  0  0  3  0  0  0  0  0  0
  190.7470  177.8720  142.3460 C   0  0  0  0  0  0  0  0  0  0  0  0
  184.5920  179.8060  144.2500 C   0  0  0  0  0  0  0  0  0  0  0  0
  187.1750  178.5290  145.7190 C   0  0  2  0  0  3  0  0  0  0  0  0
  187.1040  178.1620  138.9220 C   0  0  0  0  0  2  0  0  0  0  0  0
  189.7350  178.4620  146.0020 C   0  0  0  0  0  2  0  0  0  0  0  0
  186.1160  179.1470  146.6120 C   0  0  0  0  0  2  0  0  0  0  0  0
  184.7070  177.3730  142.6050 O   0  0  0  0  0  0  0  0  0  0  0  0
  188.8920  178.1140  140.6940 C   0  0  0  0  0  0  0  0  0  0  0  0
  188.4770  178.4190  139.3510 N   0  0  0  0  0  0  0  0  0  0  0  0
  186.2200  177.4080  145.3520 C   0  0  0  0  0  2  0  0  0  0  0  0
  186.5250  178.1760  141.3330 C   0  0  0  0  0  0  0  0  0  0  0  0
  188.3670  177.4850  143.0390 C   0  0  1  0  0  3  0  0  0  0  0  0
  191.9760  177.7270  142.5830 O   0  0  0  0  0  0  0  0  0  0  0  0
  189.7510  178.0390  143.4570 C   0  0  1  0  0  3  0  0  0  0  0  0
  188.2650  177.2610  147.4020 O   0  0  0  0  0  0  0  0  0  0  0  0
  189.4650  178.7370  138.3330 C   0  0  0  0  0  1  0  0  0  0  0  0
  187.9620  177.9760  141.6650 C   0  0  1  0  0  3  0  0  0  0  0  0
  188.3760  178.0260  146.4560 C   0  0  0  0  0  0  0  0  0  0  0  0
  190.2050  176.2520  145.0930 O   0  0  0  0  0  0  0  0  0  0  0  0
  191.5220  175.8340  145.2830 C   0  0  0  0  0  2  0  0  0  0  0  0
  191.8560  175.8790  146.7580 C   0  0  0  0  0  1  0  0  0  0  0  0
  1 16  2  0  0  0  0
  1  5  1  0  0  0  0
  2 20  2  0  0  0  0
  3 10  1  0  0  0  0
  5 11  1  0  0  0  0
  6  7  1  6  0  0  0
  6 15  1  0  0  0  0
  9 28  1  1  0  0  0
  9 14  1  0  0  0  0
 10 22  2  0  0  0  0
 11  8  2  0  0  0  0
 11  7  1  0  0  0  0
 12 19  1  1  0  0  0
 12 27  1  0  0  0  0
 12 15  1  0  0  0  0
 13 18  1  0  0  0  0
 13  2  1  0  0  0  0
 14 27  1  0  0  0  0
 17  3  2  0  0  0  0
 18 17  1  0  0  0  0
 19  6  1  0  0  0  0
 20 26  1  0  0  0  0
 20  1  1  0  0  0  0
 21  4  1  6  0  0  0
 21 23  1  0  0  0  0
 23 10  1  6  0  0  0
 23  9  1  0  0  0  0
 25 18  1  0  0  0  0
 26 17  1  6  0  0  0
 26 21  1  0  0  0  0
 27 24  2  0  0  0  0
 28 29  1  0  0  0  0
 29 30  1  0  0  0  0
M  END
>  <MODEL>
3

>  <REMARK>
 VINA RESULT:      -6.7      1.884      2.906
  Name = 
  2 active torsions:
  status: ('A' for Active; 'I' for Inactive)
    1  A    between atoms: C_7  and  O_26
    2  A    between atoms: C_10  and  O_26
                            x       y       z     vdW  Elec       q    Type
                         _______ _______ _______ _____ _____    ______ ____

>  <TORSDO>
F 2

$$$$
=
 OpenBabel10272414003D

 30 33  0  0  1  0  0  0  0  0999 V2000
  190.4420  176.6080  143.6270 C   0  0  0  0  0  0  0  0  0  0  0  0
  190.5990  176.4590  146.0230 C   0  0  0  0  0  3  0  0  0  0  0  0
  186.8720  178.4660  146.5740 N   0  0  0  0  0  2  0  0  0  0  0  0
  186.7540  176.1890  143.9540 C   0  0  0  0  0  1  0  0  0  0  0  0
  191.0040  177.7320  142.9410 N   0  0  0  0  0  2  0  0  0  0  0  0
  189.5860  176.9720  139.9880 C   0  0  2  0  0  3  0  0  0  0  0  0
  191.0010  176.7400  140.5610 C   0  0  0  0  0  2  0  0  0  0  0  0
  192.1740  178.7120  141.1920 O   0  0  0  0  0  0  0  0  0  0  0  0
  185.5930  178.9420  142.9600 C   0  0  2  0  0  3  0  0  0  0  0  0
  186.0760  178.8840  145.4650 C   0  0  0  0  0  0  0  0  0  0  0  0
  191.4480  177.7600  141.5770 C   0  0  0  0  0  0  0  0  0  0  0  0
  188.2970  178.2900  141.0750 C   0  0  2  0  0  3  0  0  0  0  0  0
  190.0790  176.6010  147.4240 C   0  0  0  0  0  2  0  0  0  0  0  0
  186.1600  179.5890  141.6920 C   0  0  0  0  0  2  0  0  0  0  0  0
  189.2160  178.4480  139.8780 C   0  0  0  0  0  2  0  0  0  0  0  0
  190.4990  175.4520  143.1300 O   0  0  0  0  0  0  0  0  0  0  0  0
  188.1400  177.8180  146.3780 C   0  0  0  0  0  0  0  0  0  0  0  0
  189.0140  177.5980  147.4990 N   0  0  0  0  0  0  0  0  0  0  0  0
  188.5460  176.7930  141.0750 C   0  0  0  0  0  2  0  0  0  0  0  0
  189.8610  176.7960  144.9620 C   0  0  0  0  0  0  0  0  0  0  0  0
  187.5470  177.4890  143.9890 C   0  0  1  0  0  3  0  0  0  0  0  0
  184.9590  179.4330  145.6660 O   0  0  0  0  0  0  0  0  0  0  0  0
  186.6380  178.7380  144.0810 C   0  0  1  0  0  3  0  0  0  0  0  0
  186.2700  178.1130  139.8560 O   0  0  0  0  0  0  0  0  0  0  0  0
  188.6960  178.1640  148.7990 C   0  0  0  0  0  1  0  0  0  0  0  0
  188.5240  177.4230  145.1440 C   0  0  0  0  0  0  0  0  0  0  0  0
  186.8670  178.6240  140.7920 C   0  0  0  0  0  0  0  0  0  0  0  0
  184.8430  177.7940  142.6800 O   0  0  0  0  0  0  0  0  0  0  0  0
  183.6520  178.2650  142.1280 C   0  0  0  0  0  2  0  0  0  0  0  0
  182.7850  178.8480  143.2240 C   0  0  0  0  0  1  0  0  0  0  0  0
  1 20  1  0  0  0  0
  2 13  1  0  0  0  0
  5  1  1  0  0  0  0
  6 15  1  1  0  0  0
  6  7  1  0  0  0  0
  6 19  1  0  0  0  0
  7 11  1  0  0  0  0
  8 11  2  0  0  0  0
  9 28  1  6  0  0  0
  9 23  1  0  0  0  0
 10 22  2  0  0  0  0
 10  3  1  0  0  0  0
 11  5  1  0  0  0  0
 12 15  1  6  0  0  0
 12 19  1  0  0  0  0
 13 18  1  0  0  0  0
 14  9  1  0  0  0  0
 16  1  2  0  0  0  0
 17  3  1  0  0  0  0
 17 18  1  0  0  0  0
 18 25  1  0  0  0  0
 20 26  1  0  0  0  0
 20  2  2  0  0  0  0
 21  4  1  1  0  0  0
 21 23  1  0  0  0  0
 21 26  1  0  0  0  0
 23 10  1  1  0  0  0
 24 27  2  0  0  0  0
 26 17  2  0  0  0  0
 27 12  1  0  0  0  0
 27 14  1  0  0  0  0
 29 28  1  0  0  0  0
 29 30  1  0  0  0  0
M  END
>  <MODEL>
4

>  <REMARK>
 VINA RESULT:      -6.1      2.109      6.770
  Name = 
  2 active torsions:
  status: ('A' for Active; 'I' for Inactive)
    1  A    between atoms: C_7  and  O_26
    2  A    between atoms: C_10  and  O_26
                            x       y       z     vdW  Elec       q    Type
                         _______ _______ _______ _____ _____    ______ ____

>  <TORSDO>
F 2

$$$$
=
 OpenBabel10272414003D

 30 33  0  0  1  0  0  0  0  0999 V2000
  185.8700  177.1180  136.7400 C   0  0  0  0  0  0  0  0  0  0  0  0
  184.8800  178.4960  138.4450 C   0  0  0  0  0  3  0  0  0  0  0  0
  188.3290  178.2030  140.9430 N   0  0  0  0  0  2  0  0  0  0  0  0
  189.1700  178.6220  137.5980 C   0  0  0  0  0  1  0  0  0  0  0  0
  185.6720  175.7000  136.7610 N   0  0  0  0  0  2  0  0  0  0  0  0
  187.9640  175.0810  134.3780 C   0  0  2  0  0  3  0  0  0  0  0  0
  186.4240  175.1960  134.3460 C   0  0  0  0  0  2  0  0  0  0  0  0
  185.2640  173.6550  135.7410 O   0  0  0  0  0  0  0  0  0  0  0  0
  190.8180  176.2050  138.7660 C   0  0  2  0  0  3  0  0  0  0  0  0
  189.4910  177.4830  140.5320 C   0  0  0  0  0  0  0  0  0  0  0  0
  185.7340  174.8170  135.6320 C   0  0  0  0  0  0  0  0  0  0  0  0
  188.8940  174.9710  136.3020 C   0  0  2  0  0  3  0  0  0  0  0  0
  184.8900  179.2840  139.7220 C   0  0  0  0  0  2  0  0  0  0  0  0
  190.7800  174.8490  138.0540 C   0  0  0  0  0  2  0  0  0  0  0  0
  188.4640  173.9470  135.2680 C   0  0  0  0  0  2  0  0  0  0  0  0
  185.8990  177.7510  135.6520 O   0  0  0  0  0  0  0  0  0  0  0  0
  187.1610  178.2700  140.1070 C   0  0  0  0  0  0  0  0  0  0  0  0
  185.9380  178.8190  140.6270 N   0  0  0  0  0  0  0  0  0  0  0  0
  188.5440  176.0940  135.3440 C   0  0  0  0  0  2  0  0  0  0  0  0
  185.9640  177.8490  138.0080 C   0  0  0  0  0  0  0  0  0  0  0  0
  188.5190  177.3930  138.2220 C   0  0  1  0  0  3  0  0  0  0  0  0
  190.5080  177.4570  141.2760 O   0  0  0  0  0  0  0  0  0  0  0  0
  189.4360  176.6950  139.2550 C   0  0  1  0  0  3  0  0  0  0  0  0
  191.1980  174.9950  135.7380 O   0  0  0  0  0  0  0  0  0  0  0  0
  185.8280  179.1610  142.0360 C   0  0  0  0  0  1  0  0  0  0  0  0
  187.2000  177.8100  138.8370 C   0  0  0  0  0  0  0  0  0  0  0  0
  190.3550  174.9370  136.6200 C   0  0  0  0  0  0  0  0  0  0  0  0
  191.5240  177.1680  138.0360 O   0  0  0  0  0  0  0  0  0  0  0  0
  192.8680  176.8270  138.1940 C   0  0  0  0  0  2  0  0  0  0  0  0
  193.3220  177.2050  139.5870 C   0  0  0  0  0  1  0  0  0  0  0  0
  1  5  1  0  0  0  0
  1 20  1  0  0  0  0
  2 13  1  0  0  0  0
  6  7  1  1  0  0  0
  6 15  1  0  0  0  0
  6 19  1  0  0  0  0
  7 11  1  0  0  0  0
  9 28  1  6  0  0  0
  9 23  1  0  0  0  0
 10  3  1  0  0  0  0
 10 22  2  0  0  0  0
 11  8  2  0  0  0  0
 11  5  1  0  0  0  0
 12 15  1  6  0  0  0
 12 27  1  0  0  0  0
 13 18  1  0  0  0  0
 14  9  1  0  0  0  0
 16  1  2  0  0  0  0
 17 18  1  0  0  0  0
 17  3  1  0  0  0  0
 18 25  1  0  0  0  0
 19 12  1  0  0  0  0
 20  2  2  0  0  0  0
 20 26  1  0  0  0  0
 21  4  1  1  0  0  0
 21 26  1  0  0  0  0
 21 23  1  0  0  0  0
 23 10  1  1  0  0  0
 24 27  2  0  0  0  0
 26 17  2  0  0  0  0
 27 14  1  0  0  0  0
 28 29  1  0  0  0  0
 29 30  1  0  0  0  0
M  END
>  <MODEL>
5

>  <REMARK>
 VINA RESULT:      -5.9      4.681      8.274
  Name = 
  2 active torsions:
  status: ('A' for Active; 'I' for Inactive)
    1  A    between atoms: C_7  and  O_26
    2  A    between atoms: C_10  and  O_26
                            x       y       z     vdW  Elec       q    Type
                         _______ _______ _______ _____ _____    ______ ____

>  <TORSDO>
F 2

$$$$
=
 OpenBabel10272414003D

 30 33  0  0  1  0  0  0  0  0999 V2000
  186.2270  178.6830  141.5190 C   0  0  0  0  0  0  0  0  0  0  0  0
  187.9090  178.3580  143.2070 C   0  0  0  0  0  3  0  0  0  0  0  0
  190.4950  176.3110  140.4970 N   0  0  0  0  0  0  0  0  0  0  0  0
  188.9660  179.0590  139.0200 C   0  0  0  0  0  1  0  0  0  0  0  0
  185.1900  177.7110  141.3440 N   0  0  0  0  0  2  0  0  0  0  0  0
  184.0610  179.0460  138.4710 C   0  0  2  0  0  3  0  0  0  0  0  0
  183.5800  179.1500  139.9350 C   0  0  0  0  0  2  0  0  0  0  0  0
  182.9890  177.0830  140.9570 O   0  0  0  0  0  0  0  0  0  0  0  0
  188.6110  176.5630  137.1330 C   0  0  2  0  0  3  0  0  0  0  0  0
  190.1450  176.1250  139.1250 C   0  0  0  0  0  0  0  0  0  0  0  0
  183.8880  177.9470  140.7900 C   0  0  0  0  0  0  0  0  0  0  0  0
  185.5270  177.5500  138.0300 C   0  0  2  0  0  3  0  0  0  0  0  0
  189.2650  177.9490  143.7050 C   0  0  0  0  0  2  0  0  0  0  0  0
  187.2110  176.1730  136.6500 C   0  0  0  0  0  2  0  0  0  0  0  0
  184.0150  177.6230  137.9230 C   0  0  0  0  0  2  0  0  0  0  0  0
  185.9870  179.9130  141.3960 O   0  0  0  0  0  0  0  0  0  0  0  0
  189.6040  176.9750  141.4090 C   0  0  0  0  0  0  0  0  0  0  0  0
  189.8830  176.9640  142.8190 N   0  0  0  0  0  0  0  0  0  0  0  0
  185.5750  179.0160  138.4190 C   0  0  0  0  0  2  0  0  0  0  0  0
  187.5670  178.2410  141.9210 C   0  0  0  0  0  0  0  0  0  0  0  0
  188.2830  177.7710  139.4620 C   0  0  1  0  0  3  0  0  0  0  0  0
  190.9540  175.5570  138.3430 O   0  0  0  0  0  0  0  0  0  0  0  0
  188.7750  176.5350  138.6700 C   0  0  1  0  0  3  0  0  0  0  0  0
  185.9950  177.9790  135.7440 O   0  0  0  0  0  0  0  0  0  0  0  0
  190.9700  176.1570  143.3460 C   0  0  0  0  0  1  0  0  0  0  0  0
  188.4970  177.6020  140.9510 C   0  0  1  0  0  3  0  0  0  0  0  0
  186.2170  177.2900  136.7290 C   0  0  0  0  0  0  0  0  0  0  0  0
  189.0640  177.7500  136.5460 O   0  0  0  0  0  0  0  0  0  0  0  0
  189.3570  177.4100  135.2250 C   0  0  0  0  0  2  0  0  0  0  0  0
  190.5850  176.5260  135.1920 C   0  0  0  0  0  1  0  0  0  0  0  0
  1 20  1  0  0  0  0
  2 13  1  0  0  0  0
  3 17  2  0  0  0  0
  5  1  1  0  0  0  0
  6 15  1  1  0  0  0
  6  7  1  0  0  0  0
  7 11  1  0  0  0  0
  9 28  1  1  0  0  0
  9 23  1  0  0  0  0
 10  3  1  0  0  0  0
 11  8  2  0  0  0  0
 11  5  1  0  0  0  0
 12 15  1  6  0  0  0
 12 19  1  0  0  0  0
 14 27  1  0  0  0  0
 14  9  1  0  0  0  0
 16  1  2  0  0  0  0
 17 18  1  0  0  0  0
 18 25  1  0  0  0  0
 18 13  1  0  0  0  0
 19  6  1  0  0  0  0
 20  2  2  0  0  0  0
 21  4  1  6  0  0  0
 21 26  1  0  0  0  0
 22 10  2  0  0  0  0
 23 10  1  6  0  0  0
 23 21  1  0  0  0  0
 24 27  2  0  0  0  0
 26 17  1  1  0  0  0
 26 20  1  0  0  0  0
 27 12  1  0  0  0  0
 29 28  1  0  0  0  0
 30 29  1  0  0  0  0
M  END
>  <MODEL>
6

>  <REMARK>
 VINA RESULT:      -5.6      3.511      7.132
  Name = 
  2 active torsions:
  status: ('A' for Active; 'I' for Inactive)
    1  A    between atoms: C_7  and  O_26
    2  A    between atoms: C_10  and  O_26
                            x       y       z     vdW  Elec       q    Type
                         _______ _______ _______ _____ _____    ______ ____

>  <TORSDO>
F 2

$$$$
=
 OpenBabel10272414003D

 30 33  0  0  1  0  0  0  0  0999 V2000
  185.1540  178.7250  140.6100 C   0  0  0  0  0  0  0  0  0  0  0  0
  184.6980  178.8670  142.9680 C   0  0  0  0  0  3  0  0  0  0  0  0
  188.4520  177.1070  143.9850 N   0  0  0  0  0  2  0  0  0  0  0  0
  188.7410  179.3850  141.3770 C   0  0  0  0  0  1  0  0  0  0  0  0
  184.7530  177.5660  139.8720 N   0  0  0  0  0  2  0  0  0  0  0  0
  186.4680  178.4130  137.1040 C   0  0  2  0  0  3  0  0  0  0  0  0
  184.9820  178.5530  137.5000 C   0  0  0  0  0  2  0  0  0  0  0  0
  183.8700  176.5090  138.0030 O   0  0  0  0  0  0  0  0  0  0  0  0
  190.1890  176.7110  140.5560 C   0  0  2  0  0  3  0  0  0  0  0  0
  189.4030  176.7410  142.9840 C   0  0  0  0  0  0  0  0  0  0  0  0
  184.4810  177.5080  138.4640 C   0  0  0  0  0  0  0  0  0  0  0  0
  187.6970  177.1830  138.3520 C   0  0  2  0  0  3  0  0  0  0  0  0
  185.0520  178.7610  144.4230 C   0  0  0  0  0  2  0  0  0  0  0  0
  189.8240  176.0270  139.2350 C   0  0  0  0  0  2  0  0  0  0  0  0
  186.9420  176.9640  137.0540 C   0  0  0  0  0  2  0  0  0  0  0  0
  185.0830  179.8740  140.0990 O   0  0  0  0  0  0  0  0  0  0  0  0
  187.1790  177.6710  143.6300 C   0  0  0  0  0  0  0  0  0  0  0  0
  186.1630  177.8350  144.6350 N   0  0  0  0  0  0  0  0  0  0  0  0
  187.3540  178.6610  138.3080 C   0  0  0  0  0  2  0  0  0  0  0  0
  185.5800  178.5770  142.0070 C   0  0  0  0  0  0  0  0  0  0  0  0
  188.0350  178.0350  141.3270 C   0  0  1  0  0  3  0  0  0  0  0  0
  190.5200  176.2670  143.3240 O   0  0  0  0  0  0  0  0  0  0  0  0
  189.0050  176.8480  141.5400 C   0  0  1  0  0  3  0  0  0  0  0  0
  189.8420  177.4910  137.3860 O   0  0  0  0  0  0  0  0  0  0  0  0
  186.3560  177.2930  145.9690 C   0  0  0  0  0  1  0  0  0  0  0  0
  186.9230  178.0390  142.3550 C   0  0  0  0  0  0  0  0  0  0  0  0
  189.1700  176.9440  138.2470 C   0  0  0  0  0  0  0  0  0  0  0  0
  190.8910  177.9060  140.3590 O   0  0  0  0  0  0  0  0  0  0  0  0
  192.1910  177.6370  140.7890 C   0  0  0  0  0  2  0  0  0  0  0  0
  193.0540  177.2880  139.5950 C   0  0  0  0  0  1  0  0  0  0  0  0
  1 20  1  0  0  0  0
  2 13  1  0  0  0  0
  5  1  1  0  0  0  0
  6 15  1  1  0  0  0
  6  7  1  0  0  0  0
  6 19  1  0  0  0  0
  7 11  1  0  0  0  0
  8 11  2  0  0  0  0
  9 28  1  6  0  0  0
  9 23  1  0  0  0  0
 10 22  2  0  0  0  0
 10  3  1  0  0  0  0
 11  5  1  0  0  0  0
 12 15  1  6  0  0  0
 13 18  1  0  0  0  0
 14  9  1  0  0  0  0
 16  1  2  0  0  0  0
 17  3  1  0  0  0  0
 17 18  1  0  0  0  0
 18 25  1  0  0  0  0
 19 12  1  0  0  0  0
 20 26  1  0  0  0  0
 20  2  2  0  0  0  0
 21  4  1  1  0  0  0
 21 23  1  0  0  0  0
 21 26  1  0  0  0  0
 23 10  1  1  0  0  0
 24 27  2  0  0  0  0
 26 17  2  0  0  0  0
 27 12  1  0  0  0  0
 27 14  1  0  0  0  0
 28 29  1  0  0  0  0
 30 29  1  0  0  0  0
M  END
>  <MODEL>
7

>  <REMARK>
 VINA RESULT:      -5.6      2.757      6.320
  Name = 
  2 active torsions:
  status: ('A' for Active; 'I' for Inactive)
    1  A    between atoms: C_7  and  O_26
    2  A    between atoms: C_10  and  O_26
                            x       y       z     vdW  Elec       q    Type
                         _______ _______ _______ _____ _____    ______ ____

>  <TORSDO>
F 2

$$$$
=
 OpenBabel10272414003D

 30 33  0  0  1  0  0  0  0  0999 V2000
  187.3780  177.4700  146.8450 C   0  0  0  0  0  0  0  0  0  0  0  0
  185.0730  178.0690  146.5030 C   0  0  0  0  0  3  0  0  0  0  0  0
  185.7220  178.9420  142.3750 N   0  0  0  0  0  2  0  0  0  0  0  0
  187.4140  176.0810  143.3880 C   0  0  0  0  0  1  0  0  0  0  0  0
  188.3230  178.4650  147.2560 N   0  0  0  0  0  2  0  0  0  0  0  0
  191.0060  176.5010  146.7470 C   0  0  2  0  0  3  0  0  0  0  0  0
  190.2090  176.8770  148.0140 C   0  0  0  0  0  2  0  0  0  0  0  0
  190.1310  179.2040  148.5100 O   0  0  0  0  0  0  0  0  0  0  0  0
  189.4200  177.9550  141.8440 C   0  0  2  0  0  3  0  0  0  0  0  0
  187.0020  178.7650  141.7650 C   0  0  0  0  0  0  0  0  0  0  0  0
  189.5460  178.2310  147.9690 C   0  0  0  0  0  0  0  0  0  0  0  0
  190.6050  177.6280  144.9720 C   0  0  2  0  0  3  0  0  0  0  0  0
  183.8830  178.4460  145.6700 C   0  0  0  0  0  2  0  0  0  0  0  0
  190.7460  178.3490  142.5030 C   0  0  0  0  0  2  0  0  0  0  0  0
  191.6540  177.7030  146.0660 C   0  0  0  0  0  2  0  0  0  0  0  0
  187.4450  176.2930  147.2870 O   0  0  0  0  0  0  0  0  0  0  0  0
  185.5220  178.6740  143.7730 C   0  0  0  0  0  0  0  0  0  0  0  0
  184.2880  179.0570  144.4060 N   0  0  0  0  0  0  0  0  0  0  0  0
  190.0680  176.3400  145.5680 C   0  0  0  0  0  2  0  0  0  0  0  0
  186.2730  177.8510  145.9580 C   0  0  0  0  0  0  0  0  0  0  0  0
  187.7160  177.5110  143.8170 C   0  0  1  0  0  3  0  0  0  0  0  0
  187.1450  178.9890  140.5330 O   0  0  0  0  0  0  0  0  0  0  0  0
  188.1700  178.4030  142.6360 C   0  0  1  0  0  3  0  0  0  0  0  0
  191.9460  176.5120  143.3650 O   0  0  0  0  0  0  0  0  0  0  0  0
  183.3080  179.8500  143.6840 C   0  0  0  0  0  1  0  0  0  0  0  0
  186.4900  178.0750  144.5020 C   0  0  0  0  0  0  0  0  0  0  0  0
  191.1680  177.4230  143.6020 C   0  0  0  0  0  0  0  0  0  0  0  0
  189.3920  176.6050  141.4740 O   0  0  0  0  0  0  0  0  0  0  0  0
  190.1960  176.5260  140.3370 C   0  0  0  0  0  2  0  0  0  0  0  0
  189.4010  176.9670  139.1270 C   0  0  0  0  0  1  0  0  0  0  0  0
  1  5  1  0  0  0  0
  1 16  2  0  0  0  0
  3 17  1  0  0  0  0
  5 11  1  0  0  0  0
  6 19  1  6  0  0  0
  6  7  1  0  0  0  0
  9 28  1  1  0  0  0
  9 14  1  0  0  0  0
  9 23  1  0  0  0  0
 10  3  1  0  0  0  0
 11  7  1  0  0  0  0
 11  8  2  0  0  0  0
 12 19  1  1  0  0  0
 12 15  1  0  0  0  0
 13  2  1  0  0  0  0
 14 27  1  0  0  0  0
 15  6  1  0  0  0  0
 17 18  1  0  0  0  0
 17 26  2  0  0  0  0
 18 13  1  0  0  0  0
 20  2  2  0  0  0  0
 20  1  1  0  0  0  0
 21  4  1  6  0  0  0
 21 26  1  0  0  0  0
 22 10  2  0  0  0  0
 23 10  1  6  0  0  0
 23 21  1  0  0  0  0
 24 27  2  0  0  0  0
 25 18  1  0  0  0  0
 26 20  1  0  0  0  0
 27 12  1  0  0  0  0
 29 28  1  0  0  0  0
 30 29  1  0  0  0  0
M  END
>  <MODEL>
8

>  <REMARK>
 VINA RESULT:      -5.5      1.850      3.046
  Name = 
  2 active torsions:
  status: ('A' for Active; 'I' for Inactive)
    1  A    between atoms: C_7  and  O_26
    2  A    between atoms: C_10  and  O_26
                            x       y       z     vdW  Elec       q    Type
                         _______ _______ _______ _____ _____    ______ ____

>  <TORSDO>
F 2

$$$$
=
 OpenBabel10272414003D

 30 33  0  0  1  0  0  0  0  0999 V2000
  187.3410  178.1070  137.8910 C   0  0  0  0  0  0  0  0  0  0  0  0
  189.7110  177.7490  137.6840 C   0  0  0  0  0  3  0  0  0  0  0  0
  189.1990  173.5800  136.9210 N   0  0  0  0  0  0  0  0  0  0  0  0
  186.8320  175.5110  135.2660 C   0  0  0  0  0  1  0  0  0  0  0  0
  186.7110  178.0020  139.1720 N   0  0  0  0  0  2  0  0  0  0  0  0
  183.5850  178.1010  137.9330 C   0  0  2  0  0  3  0  0  0  0  0  0
  184.4910  179.1720  138.5770 C   0  0  0  0  0  2  0  0  0  0  0  0
  185.2050  178.6950  140.7970 O   0  0  0  0  0  0  0  0  0  0  0  0
  185.3590  173.1800  136.7890 C   0  0  2  0  0  3  0  0  0  0  0  0
  187.9030  172.9870  136.8450 C   0  0  0  0  0  0  0  0  0  0  0  0
  185.4910  178.6420  139.5730 C   0  0  0  0  0  0  0  0  0  0  0  0
  184.2220  176.0630  138.0890 C   0  0  2  0  0  3  0  0  0  0  0  0
  190.9340  176.9390  137.3660 C   0  0  0  0  0  2  0  0  0  0  0  0
  184.2070  173.5100  137.7440 C   0  0  0  0  0  2  0  0  0  0  0  0
  183.2640  176.9420  138.8720 C   0  0  0  0  0  2  0  0  0  0  0  0
  186.9730  178.9770  137.0580 O   0  0  0  0  0  0  0  0  0  0  0  0
  189.3620  174.9790  137.2080 C   0  0  0  0  0  0  0  0  0  0  0  0
  190.6700  175.5070  137.4870 N   0  0  0  0  0  0  0  0  0  0  0  0
  184.4100  177.1700  137.0680 C   0  0  0  0  0  2  0  0  0  0  0  0
  188.4810  177.2380  137.5770 C   0  0  0  0  0  0  0  0  0  0  0  0
  186.9380  175.3010  136.7720 C   0  0  1  0  0  3  0  0  0  0  0  0
  187.7890  171.7620  136.5720 O   0  0  0  0  0  0  0  0  0  0  0  0
  186.7060  173.8270  137.1850 C   0  0  1  0  0  3  0  0  0  0  0  0
  182.5830  174.9340  136.7980 O   0  0  0  0  0  0  0  0  0  0  0  0
  191.8060  174.6120  137.6330 C   0  0  0  0  0  1  0  0  0  0  0  0
  188.2900  175.8030  137.2310 C   0  0  1  0  0  3  0  0  0  0  0  0
  183.5850  174.8490  137.4920 C   0  0  0  0  0  0  0  0  0  0  0  0
  185.0130  173.3880  135.4490 O   0  0  0  0  0  0  0  0  0  0  0  0
  184.3150  172.2400  135.0740 C   0  0  0  0  0  2  0  0  0  0  0  0
  185.2500  171.2980  134.3470 C   0  0  0  0  0  1  0  0  0  0  0  0
  1  5  1  0  0  0  0
  3 17  2  0  0  0  0
  5 11  1  0  0  0  0
  6 19  1  6  0  0  0
  6  7  1  0  0  0  0
  6 15  1  0  0  0  0
  7 11  1  0  0  0  0
  9 28  1  6  0  0  0
  9 23  1  0  0  0  0
  9 14  1  0  0  0  0
 10  3  1  0  0  0  0
 11  8  2  0  0  0  0
 12 19  1  6  0  0  0
 12 15  1  0  0  0  0
 13 18  1  0  0  0  0
 13  2  1  0  0  0  0
 16  1  2  0  0  0  0
 17 18  1  0  0  0  0
 18 25  1  0  0  0  0
 20  2  2  0  0  0  0
 20  1  1  0  0  0  0
 21  4  1  6  0  0  0
 21 23  1  0  0  0  0
 21 26  1  0  0  0  0
 22 10  2  0  0  0  0
 23 10  1  6  0  0  0
 24 27  2  0  0  0  0
 26 17  1  6  0  0  0
 26 20  1  0  0  0  0
 27 14  1  0  0  0  0
 27 12  1  0  0  0  0
 29 28  1  0  0  0  0
 30 29  1  0  0  0  0
M  END
>  <MODEL>
9

>  <REMARK>
 VINA RESULT:      -5.5      6.052      9.094
  Name = 
  2 active torsions:
  status: ('A' for Active; 'I' for Inactive)
    1  A    between atoms: C_7  and  O_26
    2  A    between atoms: C_10  and  O_26
                            x       y       z     vdW  Elec       q    Type
                         _______ _______ _______ _____ _____    ______ ____

>  <TORSDO>
F 2

$$$$
