=
 OpenBabel10272415233D

 34 41  0  0  1  0  0  0  0  0999 V2000
  182.3390  174.3060  136.0780 C   0  0  2  0  0  0  0  0  0  0  0  0
  185.9360  175.1080  137.5260 C   0  0  0  0  0  2  0  0  0  0  0  0
  183.0680  178.0440  137.1260 N   0  0  0  0  0  2  0  0  0  0  0  0
  184.7100  172.9960  137.1530 C   0  0  0  0  0  3  0  0  0  0  0  0
  180.5840  176.8630  138.1670 C   0  0  1  0  0  3  0  0  0  0  0  0
  183.8360  178.6250  140.3800 C   0  0  1  0  0  3  0  0  0  0  0  0
  180.9560  174.9990  136.3070 C   0  0  1  0  0  0  0  0  0  0  0  0
  181.4880  174.6220  134.9110 C   0  0  0  0  0  2  0  0  0  0  0  0
  181.6470  171.9410  135.7350 O   0  0  0  0  0  0  0  0  0  0  0  0
  182.3660  170.7170  135.8490 C   0  0  0  0  0  2  0  0  0  0  0  0
  183.3680  179.4020  139.1410 C   0  0  0  0  0  2  0  0  0  0  0  0
  182.3650  178.6370  138.2630 C   0  0  2  0  0  3  0  0  0  0  0  0
  179.9890  175.7840  138.8290 O   0  0  0  0  0  1  0  0  0  0  0  0
  180.1410  176.1940  135.8330 C   0  0  0  0  0  2  0  0  0  0  0  0
  183.6400  172.2960  136.7890 C   0  0  0  0  0  0  0  0  0  0  0  0
  182.2980  172.8510  136.5990 C   0  0  1  0  0  3  0  0  0  0  0  0
  183.6430  170.9940  136.4010 O   0  0  0  0  0  0  0  0  0  0  0  0
  185.9540  176.6250  137.3180 C   0  0  0  0  0  2  0  0  0  0  0  0
  185.7460  177.0680  135.8580 C   0  0  2  0  0  3  0  0  0  0  0  0
  182.5880  176.5330  139.7050 C   0  0  0  0  0  2  0  0  0  0  0  0
  185.7360  175.9160  134.8510 C   0  0  0  0  0  2  0  0  0  0  0  0
  181.6210  177.5480  139.0620 C   0  0  2  0  0  3  0  0  0  0  0  0
  183.9480  177.1330  140.0780 C   0  0  0  0  0  2  0  0  0  0  0  0
  181.2100  176.4510  136.8270 C   0  0  1  0  0  0  0  0  0  0  0  0
  182.0990  177.5140  136.1680 C   0  0  0  0  0  2  0  0  0  0  0  0
  184.5530  174.4750  137.3470 C   0  0  2  0  0  3  0  0  0  0  0  0
  184.4170  175.1340  134.8460 C   0  0  0  0  0  2  0  0  0  0  0  0
  183.6880  175.0770  136.2030 C   0  0  1  0  0  3  0  0  0  0  0  0
  186.7730  178.0790  135.4830 C   0  0  0  0  0  0  0  0  0  0  0  0
  187.7740  178.4340  136.3800 O   0  0  0  0  0  1  0  0  0  0  0  0
  186.7330  178.6190  134.3460 O   0  0  0  0  0  0  0  0  0  0  0  0
  185.1750  179.1630  140.8490 C   0  0  0  0  0  3  0  0  0  0  0  0
  185.0870  179.5340  142.3160 C   0  0  0  0  0  2  0  0  0  0  0  0
  185.7530  178.2390  141.9020 C   0  0  0  0  0  2  0  0  0  0  0  0
  1  8  1  6  0  0  0
  1 28  1  0  0  0  0
  1  7  1  0  0  0  0
  1 16  1  0  0  0  0
  3 12  1  0  0  0  0
  5 13  1  1  0  0  0
  5 22  1  0  0  0  0
  6 32  1  6  0  0  0
  7  8  1  6  0  0  0
  7 24  1  0  0  0  0
  9 10  1  0  0  0  0
 10 17  1  0  0  0  0
 11  6  1  0  0  0  0
 12 22  1  0  0  0  0
 12 11  1  1  0  0  0
 14  7  1  0  0  0  0
 15  4  2  0  0  0  0
 16  9  1  6  0  0  0
 16 15  1  0  0  0  0
 17 15  1  0  0  0  0
 18  2  1  0  0  0  0
 19 29  1  6  0  0  0
 19 18  1  0  0  0  0
 20 23  1  0  0  0  0
 21 19  1  0  0  0  0
 22 20  1  6  0  0  0
 23  6  1  0  0  0  0
 24 14  1  6  0  0  0
 24  5  1  0  0  0  0
 25 24  1  0  0  0  0
 25  3  1  0  0  0  0
 26  4  1  6  0  0  0
 26  2  1  0  0  0  0
 27 21  1  0  0  0  0
 28 27  1  6  0  0  0
 28 26  1  0  0  0  0
 29 30  1  0  0  0  0
 31 29  2  0  0  0  0
 32 34  1  0  0  0  0
 32 33  1  0  0  0  0
 34 33  1  0  0  0  0
M  END
>  <MODEL>
1

>  <REMARK>
 VINA RESULT:      -4.9      0.000      0.000
  Name = 
  2 active torsions:
  status: ('A' for Active; 'I' for Inactive)
    1  A    between atoms: C_3  and  C_25
    2  A    between atoms: C_7  and  C_11
                            x       y       z     vdW  Elec       q    Type
                         _______ _______ _______ _____ _____    ______ ____

>  <TORSDO>
F 2

$$$$
=
 OpenBabel10272415233D

 34 41  0  0  1  0  0  0  0  0999 V2000
  191.2940  176.1550  137.0910 C   0  0  2  0  0  0  0  0  0  0  0  0
  187.4940  176.7260  138.0430 C   0  0  0  0  0  2  0  0  0  0  0  0
  188.5780  174.7330  134.6000 N   0  0  0  0  0  2  0  0  0  0  0  0
  189.5930  176.9140  139.3320 C   0  0  0  0  0  3  0  0  0  0  0  0
  190.7030  172.8680  135.4070 C   0  0  1  0  0  3  0  0  0  0  0  0
  186.4390  172.3910  135.8040 C   0  0  1  0  0  3  0  0  0  0  0  0
  191.9890  175.0450  136.2360 C   0  0  1  0  0  0  0  0  0  0  0  0
  192.2780  176.5480  136.0590 C   0  0  0  0  0  2  0  0  0  0  0  0
  193.0730  176.6730  138.7510 O   0  0  0  0  0  0  0  0  0  0  0  0
  193.0220  177.2890  140.0340 C   0  0  0  0  0  2  0  0  0  0  0  0
  186.9310  172.9270  134.4520 C   0  0  0  0  0  2  0  0  0  0  0  0
  188.4240  173.2890  134.4290 C   0  0  2  0  0  3  0  0  0  0  0  0
  191.4220  172.2990  136.4640 O   0  0  0  0  0  1  0  0  0  0  0  0
  192.2690  174.6720  134.7870 C   0  0  0  0  0  2  0  0  0  0  0  0
  190.9120  176.8120  139.4700 C   0  0  0  0  0  0  0  0  0  0  0  0
  191.7990  176.0940  138.5500 C   0  0  1  0  0  3  0  0  0  0  0  0
  191.6620  177.4640  140.3960 O   0  0  0  0  0  0  0  0  0  0  0  0
  186.8570  176.5060  136.6680 C   0  0  0  0  0  2  0  0  0  0  0  0
  187.3830  177.4470  135.5680 C   0  0  2  0  0  3  0  0  0  0  0  0
  188.6630  172.8040  136.9310 C   0  0  0  0  0  2  0  0  0  0  0  0
  188.3140  178.5490  136.0810 C   0  0  0  0  0  2  0  0  0  0  0  0
  189.2140  172.5320  135.5170 C   0  0  2  0  0  3  0  0  0  0  0  0
  187.1570  173.0820  136.9600 C   0  0  0  0  0  2  0  0  0  0  0  0
  190.9130  174.3860  135.3120 C   0  0  1  0  0  0  0  0  0  0  0  0
  189.9670  175.1150  134.3500 C   0  0  0  0  0  2  0  0  0  0  0  0
  188.9590  176.2880  138.1250 C   0  0  2  0  0  3  0  0  0  0  0  0
  189.7300  178.0460  136.3850 C   0  0  0  0  0  2  0  0  0  0  0  0
  189.8130  176.5810  136.8580 C   0  0  1  0  0  3  0  0  0  0  0  0
  186.2410  178.0380  134.8160 C   0  0  0  0  0  0  0  0  0  0  0  0
  185.0710  177.3110  134.6270 O   0  0  0  0  0  1  0  0  0  0  0  0
  186.3370  179.2020  134.3470 O   0  0  0  0  0  0  0  0  0  0  0  0
  184.9400  172.5970  135.9240 C   0  0  0  0  0  3  0  0  0  0  0  0
  184.2810  171.2970  136.3400 C   0  0  0  0  0  2  0  0  0  0  0  0
  184.5110  172.3880  137.3630 C   0  0  0  0  0  2  0  0  0  0  0  0
  1  8  1  6  0  0  0
  1 16  1  0  0  0  0
  4 15  2  0  0  0  0
  5 22  1  0  0  0  0
  5 13  1  1  0  0  0
  6 32  1  1  0  0  0
  6 23  1  0  0  0  0
  7 14  1  1  0  0  0
  7  1  1  0  0  0  0
  8  7  1  0  0  0  0
  9 10  1  0  0  0  0
 10 17  1  0  0  0  0
 11  6  1  0  0  0  0
 12 11  1  1  0  0  0
 12  3  1  0  0  0  0
 12 22  1  0  0  0  0
 14 24  1  0  0  0  0
 15 17  1  0  0  0  0
 16  9  1  6  0  0  0
 16 15  1  0  0  0  0
 18  2  1  0  0  0  0
 19 29  1  1  0  0  0
 19 21  1  0  0  0  0
 19 18  1  0  0  0  0
 20 23  1  0  0  0  0
 21 27  1  0  0  0  0
 22 20  1  1  0  0  0
 24 25  1  6  0  0  0
 24  5  1  0  0  0  0
 24  7  1  0  0  0  0
 25  3  1  0  0  0  0
 26  2  1  6  0  0  0
 26  4  1  0  0  0  0
 28 27  1  1  0  0  0
 28  1  1  0  0  0  0
 28 26  1  0  0  0  0
 30 29  1  0  0  0  0
 31 29  2  0  0  0  0
 32 33  1  0  0  0  0
 32 34  1  0  0  0  0
 33 34  1  0  0  0  0
M  END
>  <MODEL>
2

>  <REMARK>
 VINA RESULT:      -4.5      4.364      8.473
  Name = 
  2 active torsions:
  status: ('A' for Active; 'I' for Inactive)
    1  A    between atoms: C_3  and  C_25
    2  A    between atoms: C_7  and  C_11
                            x       y       z     vdW  Elec       q    Type
                         _______ _______ _______ _____ _____    ______ ____

>  <TORSDO>
F 2

$$$$
=
 OpenBabel10272415233D

 34 41  0  0  1  0  0  0  0  0999 V2000
  185.0400  174.6460  135.6740 C   0  0  2  0  0  0  0  0  0  0  0  0
  188.1080  172.7750  137.3360 C   0  0  0  0  0  2  0  0  0  0  0  0
  188.5510  176.4490  135.5170 N   0  0  0  0  0  2  0  0  0  0  0  0
  185.6630  172.4590  137.4960 C   0  0  0  0  0  3  0  0  0  0  0  0
  186.2960  178.0770  136.4730 C   0  0  1  0  0  3  0  0  0  0  0  0
  190.0240  177.2440  138.4690 C   0  0  1  0  0  3  0  0  0  0  0  0
  184.7670  176.1670  135.4290 C   0  0  1  0  0  0  0  0  0  0  0  0
  184.5640  175.0900  134.3460 C   0  0  0  0  0  2  0  0  0  0  0  0
  182.7320  173.7900  136.0330 O   0  0  0  0  0  0  0  0  0  0  0  0
  182.2460  172.6100  136.6650 C   0  0  0  0  0  2  0  0  0  0  0  0
  190.1260  177.6170  136.9830 C   0  0  0  0  0  2  0  0  0  0  0  0
  188.7720  177.6890  136.2610 C   0  0  2  0  0  3  0  0  0  0  0  0
  185.2110  178.1720  137.3510 O   0  0  0  0  0  1  0  0  0  0  0  0
  185.1100  177.2870  134.4580 C   0  0  0  0  0  2  0  0  0  0  0  0
  184.4050  172.7880  137.2170 C   0  0  0  0  0  0  0  0  0  0  0  0
  183.9800  174.0650  136.6370 C   0  0  1  0  0  3  0  0  0  0  0  0
  183.3350  171.9540  137.2920 O   0  0  0  0  0  0  0  0  0  0  0  0
  189.2550  173.5120  136.6400 C   0  0  0  0  0  2  0  0  0  0  0  0
  189.2210  173.4310  135.1020 C   0  0  2  0  0  3  0  0  0  0  0  0
  187.5290  176.8560  138.3380 C   0  0  0  0  0  2  0  0  0  0  0  0
  188.1530  172.4830  134.5500 C   0  0  0  0  0  2  0  0  0  0  0  0
  187.6120  177.9400  137.2450 C   0  0  2  0  0  3  0  0  0  0  0  0
  188.8890  176.2510  138.7050 C   0  0  0  0  0  2  0  0  0  0  0  0
  186.1330  176.9270  135.4690 C   0  0  1  0  0  0  0  0  0  0  0  0
  187.3850  176.5960  134.6470 C   0  0  0  0  0  2  0  0  0  0  0  0
  186.7420  173.4440  137.1560 C   0  0  2  0  0  3  0  0  0  0  0  0
  186.7410  173.0800  134.5910 C   0  0  0  0  0  2  0  0  0  0  0  0
  186.4820  174.0610  135.7520 C   0  0  1  0  0  3  0  0  0  0  0  0
  190.5670  173.0590  134.5830 C   0  0  0  0  0  0  0  0  0  0  0  0
  191.5260  174.0360  134.3460 O   0  0  0  0  0  0  0  0  0  0  0  0
  190.8360  171.8500  134.3550 O   0  0  0  0  0  1  0  0  0  0  0  0
  191.3390  176.6530  138.9430 C   0  0  0  0  0  3  0  0  0  0  0  0
  192.0270  177.6310  139.8750 C   0  0  0  0  0  2  0  0  0  0  0  0
  191.2890  176.4380  140.4430 C   0  0  0  0  0  2  0  0  0  0  0  0
  1  8  1  6  0  0  0
  1 28  1  0  0  0  0
  1 16  1  0  0  0  0
  3 12  1  0  0  0  0
  5 22  1  0  0  0  0
  5 13  1  1  0  0  0
  6 23  1  0  0  0  0
  6 32  1  6  0  0  0
  7  8  1  6  0  0  0
  7 24  1  0  0  0  0
  7  1  1  0  0  0  0
  9 10  1  0  0  0  0
 10 17  1  0  0  0  0
 11  6  1  0  0  0  0
 12 11  1  1  0  0  0
 12 22  1  0  0  0  0
 14  7  1  0  0  0  0
 15 17  1  0  0  0  0
 15  4  2  0  0  0  0
 16  9  1  6  0  0  0
 16 15  1  0  0  0  0
 18  2  1  0  0  0  0
 19 29  1  1  0  0  0
 19 18  1  0  0  0  0
 20 23  1  0  0  0  0
 21 27  1  0  0  0  0
 21 19  1  0  0  0  0
 22 20  1  1  0  0  0
 24 14  1  6  0  0  0
 24  5  1  0  0  0  0
 25 24  1  0  0  0  0
 25  3  1  0  0  0  0
 26  2  1  6  0  0  0
 26  4  1  0  0  0  0
 28 27  1  6  0  0  0
 28 26  1  0  0  0  0
 30 29  2  0  0  0  0
 31 29  1  0  0  0  0
 32 33  1  0  0  0  0
 32 34  1  0  0  0  0
 33 34  1  0  0  0  0
M  END
>  <MODEL>
3

>  <REMARK>
 VINA RESULT:      -4.1      3.564      5.035
  Name = 
  2 active torsions:
  status: ('A' for Active; 'I' for Inactive)
    1  A    between atoms: C_3  and  C_25
    2  A    between atoms: C_7  and  C_11
                            x       y       z     vdW  Elec       q    Type
                         _______ _______ _______ _____ _____    ______ ____

>  <TORSDO>
F 2

$$$$
=
 OpenBabel10272415233D

 34 41  0  0  1  0  0  0  0  0999 V2000
  190.7570  175.9240  137.0270 C   0  0  2  0  0  0  0  0  0  0  0  0
  188.4280  174.1660  134.3520 C   0  0  0  0  0  2  0  0  0  0  0  0
  186.8570  176.1770  137.5910 N   0  0  0  0  0  2  0  0  0  0  0  0
  190.8200  174.7830  134.3460 C   0  0  0  0  0  3  0  0  0  0  0  0
  188.3590  178.6990  137.7550 C   0  0  1  0  0  3  0  0  0  0  0  0
  185.0350  177.7320  135.1870 C   0  0  1  0  0  3  0  0  0  0  0  0
  190.5060  177.1450  137.9720 C   0  0  1  0  0  0  0  0  0  0  0  0
  191.1270  175.8200  138.4550 C   0  0  0  0  0  2  0  0  0  0  0  0
  193.1950  176.1480  136.5820 O   0  0  0  0  0  0  0  0  0  0  0  0
  194.0190  175.6370  135.5390 C   0  0  0  0  0  2  0  0  0  0  0  0
  184.8960  177.3060  136.6550 C   0  0  0  0  0  2  0  0  0  0  0  0
  186.1820  177.4700  137.4800 C   0  0  2  0  0  3  0  0  0  0  0  0
  189.2940  179.5460  137.1490 O   0  0  0  0  0  1  0  0  0  0  0  0
  189.8560  177.4940  139.3030 C   0  0  0  0  0  2  0  0  0  0  0  0
  191.9020  175.3340  134.8870 C   0  0  0  0  0  0  0  0  0  0  0  0
  191.8960  176.2470  136.0330 C   0  0  1  0  0  3  0  0  0  0  0  0
  193.1870  175.0370  134.5610 O   0  0  0  0  0  0  0  0  0  0  0  0
  187.1380  174.0670  135.1720 C   0  0  0  0  0  2  0  0  0  0  0  0
  187.2860  173.2890  136.4930 C   0  0  2  0  0  3  0  0  0  0  0  0
  187.5150  178.1700  135.4100 C   0  0  0  0  0  2  0  0  0  0  0  0
  188.6430  172.6020  136.6660 C   0  0  0  0  0  2  0  0  0  0  0  0
  187.1280  178.5190  136.8610 C   0  0  2  0  0  3  0  0  0  0  0  0
  186.4270  177.4010  134.6520 C   0  0  0  0  0  2  0  0  0  0  0  0
  188.9630  177.3390  138.1300 C   0  0  1  0  0  0  0  0  0  0  0  0
  187.9480  176.2710  138.5580 C   0  0  0  0  0  2  0  0  0  0  0  0
  189.4890  175.0770  134.9740 C   0  0  2  0  0  3  0  0  0  0  0  0
  189.7600  173.5740  137.0660 C   0  0  0  0  0  2  0  0  0  0  0  0
  189.6010  175.0080  136.5240 C   0  0  1  0  0  3  0  0  0  0  0  0
  186.1800  172.2980  136.6250 C   0  0  0  0  0  0  0  0  0  0  0  0
  185.2080  172.4530  137.6070 O   0  0  0  0  0  1  0  0  0  0  0  0
  186.1290  171.3120  135.8450 O   0  0  0  0  0  0  0  0  0  0  0  0
  183.9770  177.0400  134.3470 C   0  0  0  0  0  3  0  0  0  0  0  0
  184.0750  175.5400  134.5460 C   0  0  0  0  0  2  0  0  0  0  0  0
  182.9950  176.3270  135.2560 C   0  0  0  0  0  2  0  0  0  0  0  0
  1  7  1  0  0  0  0
  1  8  1  1  0  0  0
  2 26  1  0  0  0  0
  2 18  1  0  0  0  0
  3 25  1  0  0  0  0
  4 15  2  0  0  0  0
  5 13  1  6  0  0  0
  5 24  1  0  0  0  0
  6 32  1  6  0  0  0
  6 11  1  0  0  0  0
  7 24  1  0  0  0  0
  7  8  1  1  0  0  0
  7 14  1  0  0  0  0
 10  9  1  0  0  0  0
 12 11  1  6  0  0  0
 12  3  1  0  0  0  0
 16 15  1  6  0  0  0
 16  9  1  0  0  0  0
 16  1  1  0  0  0  0
 17 15  1  0  0  0  0
 17 10  1  0  0  0  0
 18 19  1  0  0  0  0
 19 29  1  6  0  0  0
 19 21  1  0  0  0  0
 21 27  1  0  0  0  0
 22 20  1  6  0  0  0
 22 12  1  0  0  0  0
 22  5  1  0  0  0  0
 23  6  1  0  0  0  0
 23 20  1  0  0  0  0
 24 25  1  6  0  0  0
 24 14  1  0  0  0  0
 26  4  1  6  0  0  0
 26 28  1  0  0  0  0
 28  1  1  0  0  0  0
 28 27  1  6  0  0  0
 29 30  1  0  0  0  0
 31 29  2  0  0  0  0
 32 33  1  0  0  0  0
 32 34  1  0  0  0  0
 33 34  1  0  0  0  0
M  END
>  <MODEL>
4

>  <REMARK>
 VINA RESULT:      -3.9      3.760      7.663
  Name = 
  2 active torsions:
  status: ('A' for Active; 'I' for Inactive)
    1  A    between atoms: C_3  and  C_25
    2  A    between atoms: C_7  and  C_11
                            x       y       z     vdW  Elec       q    Type
                         _______ _______ _______ _____ _____    ______ ____

>  <TORSDO>
F 2

$$$$
=
 OpenBabel10272415233D

 34 41  0  0  1  0  0  0  0  0999 V2000
  186.1420  178.2340  138.5160 C   0  0  2  0  0  0  0  0  0  0  0  0
  182.4840  177.8610  139.9850 C   0  0  0  0  0  2  0  0  0  0  0  0
  183.3320  176.9540  136.0530 N   0  0  0  0  0  2  0  0  0  0  0  0
  184.6990  178.1290  141.0450 C   0  0  0  0  0  3  0  0  0  0  0  0
  185.8120  175.3760  136.1270 C   0  0  1  0  0  3  0  0  0  0  0  0
  181.7770  174.0440  136.8460 C   0  0  1  0  0  3  0  0  0  0  0  0
  186.8610  177.4990  137.3370 C   0  0  1  0  0  0  0  0  0  0  0  0
  186.8900  179.0290  137.5180 C   0  0  0  0  0  2  0  0  0  0  0  0
  188.0490  178.6720  140.0520 O   0  0  0  0  0  0  0  0  0  0  0  0
  188.0970  178.9540  141.4470 C   0  0  0  0  0  2  0  0  0  0  0  0
  181.9750  174.9600  135.6300 C   0  0  0  0  0  2  0  0  0  0  0  0
  183.3760  175.5850  135.5390 C   0  0  2  0  0  3  0  0  0  0  0  0
  186.7580  174.7190  136.9220 O   0  0  0  0  0  1  0  0  0  0  0  0
  186.9760  177.5310  135.8200 C   0  0  0  0  0  2  0  0  0  0  0  0
  186.0240  178.2410  141.0100 C   0  0  0  0  0  0  0  0  0  0  0  0
  186.8620  177.9320  139.8490 C   0  0  1  0  0  3  0  0  0  0  0  0
  186.7960  178.7870  141.9850 O   0  0  0  0  0  0  0  0  0  0  0  0
  181.6910  177.8530  138.6750 C   0  0  0  0  0  2  0  0  0  0  0  0
  181.8970  179.1030  137.8000 C   0  0  2  0  0  3  0  0  0  0  0  0
  184.0560  174.5870  137.7950 C   0  0  0  0  0  2  0  0  0  0  0  0
  182.7160  180.2080  138.4720 C   0  0  0  0  0  2  0  0  0  0  0  0
  184.4240  174.7550  136.3070 C   0  0  2  0  0  3  0  0  0  0  0  0
  182.5460  174.5690  138.0560 C   0  0  0  0  0  2  0  0  0  0  0  0
  185.7720  176.8860  136.3980 C   0  0  1  0  0  0  0  0  0  0  0  0
  184.5940  177.6320  135.7600 C   0  0  0  0  0  2  0  0  0  0  0  0
  183.9940  177.6930  139.7950 C   0  0  2  0  0  3  0  0  0  0  0  0
  184.2210  179.9170  138.4840 C   0  0  0  0  0  2  0  0  0  0  0  0
  184.5960  178.4230  138.5590 C   0  0  1  0  0  3  0  0  0  0  0  0
  180.5790  179.6310  137.3500 C   0  0  0  0  0  0  0  0  0  0  0  0
  179.9920  179.1600  136.1810 O   0  0  0  0  0  0  0  0  0  0  0  0
  179.9950  180.5140  138.0310 O   0  0  0  0  0  1  0  0  0  0  0  0
  180.2990  173.9380  137.1740 C   0  0  0  0  0  3  0  0  0  0  0  0
  179.9820  172.5290  137.6360 C   0  0  0  0  0  2  0  0  0  0  0  0
  180.1270  173.6420  138.6510 C   0  0  0  0  0  2  0  0  0  0  0  0
  1  8  1  6  0  0  0
  1 28  1  0  0  0  0
  1 16  1  0  0  0  0
  5 22  1  0  0  0  0
  5 24  1  0  0  0  0
  5 13  1  1  0  0  0
  6 32  1  1  0  0  0
  6 23  1  0  0  0  0
  7 14  1  1  0  0  0
  7  8  1  0  0  0  0
  7  1  1  0  0  0  0
  9 10  1  0  0  0  0
 10 17  1  0  0  0  0
 11  6  1  0  0  0  0
 12 11  1  1  0  0  0
 12  3  1  0  0  0  0
 12 22  1  0  0  0  0
 14 24  1  0  0  0  0
 15  4  2  0  0  0  0
 15 17  1  0  0  0  0
 16  9  1  1  0  0  0
 16 15  1  0  0  0  0
 18  2  1  0  0  0  0
 19 29  1  1  0  0  0
 19 21  1  0  0  0  0
 19 18  1  0  0  0  0
 20 23  1  0  0  0  0
 21 27  1  0  0  0  0
 22 20  1  1  0  0  0
 24 25  1  6  0  0  0
 24  7  1  0  0  0  0
 25  3  1  0  0  0  0
 26  2  1  1  0  0  0
 26  4  1  0  0  0  0
 28 27  1  1  0  0  0
 28 26  1  0  0  0  0
 29 31  1  0  0  0  0
 30 29  2  0  0  0  0
 32 33  1  0  0  0  0
 32 34  1  0  0  0  0
 33 34  1  0  0  0  0
M  END
>  <MODEL>
5

>  <REMARK>
 VINA RESULT:      -3.6      2.297      6.645
  Name = 
  2 active torsions:
  status: ('A' for Active; 'I' for Inactive)
    1  A    between atoms: C_3  and  C_25
    2  A    between atoms: C_7  and  C_11
                            x       y       z     vdW  Elec       q    Type
                         _______ _______ _______ _____ _____    ______ ____

>  <TORSDO>
F 2

$$$$
=
 OpenBabel10272415233D

 34 41  0  0  1  0  0  0  0  0999 V2000
  186.7990  175.1230  136.4260 C   0  0  2  0  0  0  0  0  0  0  0  0
  189.2900  178.1850  136.7300 C   0  0  0  0  0  2  0  0  0  0  0  0
  190.4260  174.3670  137.7940 N   0  0  0  0  0  2  0  0  0  0  0  0
  187.1420  177.8810  135.5500 C   0  0  0  0  0  3  0  0  0  0  0  0
  189.4670  172.6280  135.6260 C   0  0  1  0  0  3  0  0  0  0  0  0
  193.0370  175.0400  135.7340 C   0  0  1  0  0  3  0  0  0  0  0  0
  187.0610  173.5950  136.2180 C   0  0  1  0  0  0  0  0  0  0  0  0
  186.0900  174.1460  137.2810 C   0  0  0  0  0  2  0  0  0  0  0  0
  184.6310  175.4100  135.2400 O   0  0  0  0  0  0  0  0  0  0  0  0
  183.9900  176.5620  134.7020 C   0  0  0  0  0  2  0  0  0  0  0  0
  192.7380  174.2250  137.0010 C   0  0  0  0  0  2  0  0  0  0  0  0
  191.3540  173.5580  137.0040 C   0  0  2  0  0  3  0  0  0  0  0  0
  188.8910  172.5540  134.3530 O   0  0  0  0  0  1  0  0  0  0  0  0
  187.4370  172.3440  137.0000 C   0  0  0  0  0  2  0  0  0  0  0  0
  186.0960  177.1580  135.1610 C   0  0  0  0  0  0  0  0  0  0  0  0
  186.0160  175.6960  135.2240 C   0  0  1  0  0  3  0  0  0  0  0  0
  184.8920  177.6540  134.7760 O   0  0  0  0  0  0  0  0  0  0  0  0
  190.3030  177.5850  137.7100 C   0  0  0  0  0  2  0  0  0  0  0  0
  189.6950  177.1270  139.0490 C   0  0  2  0  0  3  0  0  0  0  0  0
  190.7150  174.6890  134.7980 C   0  0  0  0  0  2  0  0  0  0  0  0
  188.2260  177.5150  139.2340 C   0  0  0  0  0  2  0  0  0  0  0  0
  190.8120  173.3600  135.5740 C   0  0  2  0  0  3  0  0  0  0  0  0
  191.7730  175.7180  135.2100 C   0  0  0  0  0  2  0  0  0  0  0  0
  188.5310  173.2820  136.6510 C   0  0  1  0  0  0  0  0  0  0  0  0
  189.1790  173.6310  137.9970 C   0  0  0  0  0  2  0  0  0  0  0  0
  188.3180  177.1600  136.1400 C   0  0  2  0  0  3  0  0  0  0  0  0
  187.2650  176.6180  138.4440 C   0  0  0  0  0  2  0  0  0  0  0  0
  187.8330  176.0580  137.1240 C   0  0  1  0  0  3  0  0  0  0  0  0
  190.5160  177.6420  140.1810 C   0  0  0  0  0  0  0  0  0  0  0  0
  189.9050  178.0940  141.3460 O   0  0  0  0  0  1  0  0  0  0  0  0
  191.7700  177.6710  140.0810 O   0  0  0  0  0  0  0  0  0  0  0  0
  194.1010  176.0810  136.0310 C   0  0  0  0  0  3  0  0  0  0  0  0
  195.4290  175.6260  135.4560 C   0  0  0  0  0  2  0  0  0  0  0  0
  194.6100  176.6720  134.7310 C   0  0  0  0  0  2  0  0  0  0  0  0
  1 28  1  0  0  0  0
  1  8  1  1  0  0  0
  2 18  1  0  0  0  0
  3 25  1  0  0  0  0
  5 13  1  6  0  0  0
  5 24  1  0  0  0  0
  6 32  1  1  0  0  0
  6 11  1  0  0  0  0
  7  1  1  0  0  0  0
  7 24  1  0  0  0  0
  7 14  1  6  0  0  0
  7  8  1  0  0  0  0
 10 17  1  0  0  0  0
 10  9  1  0  0  0  0
 12 11  1  6  0  0  0
 12  3  1  0  0  0  0
 15  4  2  0  0  0  0
 16 15  1  1  0  0  0
 16  9  1  0  0  0  0
 16  1  1  0  0  0  0
 17 15  1  0  0  0  0
 18 19  1  0  0  0  0
 19 21  1  0  0  0  0
 19 29  1  1  0  0  0
 20 23  1  0  0  0  0
 22 20  1  1  0  0  0
 22  5  1  0  0  0  0
 22 12  1  0  0  0  0
 23  6  1  0  0  0  0
 24 14  1  1  0  0  0
 24 25  1  0  0  0  0
 26  4  1  1  0  0  0
 26  2  1  0  0  0  0
 26 28  1  0  0  0  0
 27 21  1  0  0  0  0
 28 27  1  1  0  0  0
 29 30  1  0  0  0  0
 31 29  2  0  0  0  0
 33 32  1  0  0  0  0
 34 33  1  0  0  0  0
 34 32  1  0  0  0  0
M  END
>  <MODEL>
6

>  <REMARK>
 VINA RESULT:      -3.5      4.711      7.870
  Name = 
  2 active torsions:
  status: ('A' for Active; 'I' for Inactive)
    1  A    between atoms: C_3  and  C_25
    2  A    between atoms: C_7  and  C_11
                            x       y       z     vdW  Elec       q    Type
                         _______ _______ _______ _____ _____    ______ ____

>  <TORSDO>
F 2

$$$$
=
 OpenBabel10272415233D

 34 41  0  0  1  0  0  0  0  0999 V2000
  186.2430  174.8780  135.6090 C   0  0  2  0  0  0  0  0  0  0  0  0
  189.5000  173.4460  137.3450 C   0  0  0  0  0  2  0  0  0  0  0  0
  189.1030  177.4580  136.4810 N   0  0  0  0  0  2  0  0  0  0  0  0
  187.2400  172.5140  136.9920 C   0  0  0  0  0  3  0  0  0  0  0  0
  186.3900  178.1850  137.3490 C   0  0  1  0  0  3  0  0  0  0  0  0
  189.9480  177.7980  139.7500 C   0  0  1  0  0  3  0  0  0  0  0  0
  185.5860  176.2960  135.6570 C   0  0  1  0  0  0  0  0  0  0  0  0
  185.8170  175.5200  134.3470 C   0  0  0  0  0  2  0  0  0  0  0  0
  184.2410  173.4230  135.3530 O   0  0  0  0  0  0  0  0  0  0  0  0
  184.0360  172.0380  135.6150 C   0  0  0  0  0  2  0  0  0  0  0  0
  190.1110  178.5560  138.4240 C   0  0  0  0  0  2  0  0  0  0  0  0
  188.8830  178.4800  137.5040 C   0  0  2  0  0  3  0  0  0  0  0  0
  185.2280  177.7840  138.0180 O   0  0  0  0  0  1  0  0  0  0  0  0
  185.7100  177.6780  135.0310 C   0  0  0  0  0  2  0  0  0  0  0  0
  185.9810  172.5880  136.5700 C   0  0  0  0  0  0  0  0  0  0  0  0
  185.2850  173.8280  136.2160 C   0  0  1  0  0  3  0  0  0  0  0  0
  185.1860  171.5280  136.2690 O   0  0  0  0  0  0  0  0  0  0  0  0
  190.4680  174.5940  137.0440 C   0  0  0  0  0  2  0  0  0  0  0  0
  190.6340  174.9070  135.5450 C   0  0  2  0  0  3  0  0  0  0  0  0
  187.6930  176.8620  139.0920 C   0  0  0  0  0  2  0  0  0  0  0  0
  189.9440  173.9030  134.6170 C   0  0  0  0  0  2  0  0  0  0  0  0
  187.5930  178.1780  138.2950 C   0  0  2  0  0  3  0  0  0  0  0  0
  189.1160  176.5330  139.5560 C   0  0  0  0  0  2  0  0  0  0  0  0
  186.6700  177.3290  136.1060 C   0  0  1  0  0  0  0  0  0  0  0  0
  188.0500  177.5370  135.4700 C   0  0  0  0  0  2  0  0  0  0  0  0
  188.0320  173.7860  137.0740 C   0  0  2  0  0  3  0  0  0  0  0  0
  188.4270  174.1070  134.5340 C   0  0  0  0  0  2  0  0  0  0  0  0
  187.7730  174.6620  135.8140 C   0  0  1  0  0  3  0  0  0  0  0  0
  192.0800  175.0200  135.2070 C   0  0  0  0  0  0  0  0  0  0  0  0
  192.9980  174.1150  135.7270 O   0  0  0  0  0  1  0  0  0  0  0  0
  192.4740  175.9430  134.4470 O   0  0  0  0  0  0  0  0  0  0  0  0
  191.3130  177.4440  140.3110 C   0  0  0  0  0  3  0  0  0  0  0  0
  191.4450  178.0050  141.7130 C   0  0  0  0  0  2  0  0  0  0  0  0
  191.1470  176.5350  141.5130 C   0  0  0  0  0  2  0  0  0  0  0  0
  1  8  1  6  0  0  0
  1  7  1  0  0  0  0
  1 28  1  0  0  0  0
  1 16  1  0  0  0  0
  3 12  1  0  0  0  0
  5 13  1  1  0  0  0
  5 22  1  0  0  0  0
  6 32  1  6  0  0  0
  7  8  1  6  0  0  0
  7 24  1  0  0  0  0
  9 10  1  0  0  0  0
 10 17  1  0  0  0  0
 11  6  1  0  0  0  0
 12 22  1  0  0  0  0
 12 11  1  1  0  0  0
 14  7  1  0  0  0  0
 15  4  2  0  0  0  0
 16  9  1  6  0  0  0
 16 15  1  0  0  0  0
 17 15  1  0  0  0  0
 18  2  1  0  0  0  0
 19 29  1  6  0  0  0
 19 18  1  0  0  0  0
 20 23  1  0  0  0  0
 21 19  1  0  0  0  0
 22 20  1  6  0  0  0
 23  6  1  0  0  0  0
 24 14  1  6  0  0  0
 24  5  1  0  0  0  0
 25 24  1  0  0  0  0
 25  3  1  0  0  0  0
 26  4  1  6  0  0  0
 26  2  1  0  0  0  0
 27 21  1  0  0  0  0
 28 27  1  6  0  0  0
 28 26  1  0  0  0  0
 29 30  1  0  0  0  0
 31 29  2  0  0  0  0
 32 34  1  0  0  0  0
 32 33  1  0  0  0  0
 34 33  1  0  0  0  0
M  END
>  <MODEL>
7

>  <REMARK>
 VINA RESULT:      -3.4      3.752      5.147
  Name = 
  2 active torsions:
  status: ('A' for Active; 'I' for Inactive)
    1  A    between atoms: C_3  and  C_25
    2  A    between atoms: C_7  and  C_11
                            x       y       z     vdW  Elec       q    Type
                         _______ _______ _______ _____ _____    ______ ____

>  <TORSDO>
F 2

$$$$
=
 OpenBabel10272415233D

 34 41  0  0  1  0  0  0  0  0999 V2000
  187.4510  175.4670  135.5080 C   0  0  2  0  0  0  0  0  0  0  0  0
  190.4930  173.9370  137.5280 C   0  0  0  0  0  2  0  0  0  0  0  0
  189.7790  177.9970  137.4510 N   0  0  0  0  0  2  0  0  0  0  0  0
  188.4600  172.9370  136.5420 C   0  0  0  0  0  3  0  0  0  0  0  0
  186.8860  178.2950  137.8880 C   0  0  1  0  0  3  0  0  0  0  0  0
  189.9780  177.6530  140.8210 C   0  0  1  0  0  3  0  0  0  0  0  0
  186.6300  176.7820  135.7150 C   0  0  1  0  0  0  0  0  0  0  0  0
  187.1840  176.3420  134.3460 C   0  0  0  0  0  2  0  0  0  0  0  0
  185.7160  173.9560  134.5590 O   0  0  0  0  0  0  0  0  0  0  0  0
  185.6350  172.5370  134.4820 C   0  0  0  0  0  2  0  0  0  0  0  0
  190.2840  178.7010  139.7410 C   0  0  0  0  0  2  0  0  0  0  0  0
  189.2580  178.7400  138.5980 C   0  0  2  0  0  3  0  0  0  0  0  0
  185.6800  177.6640  138.2120 O   0  0  0  0  0  1  0  0  0  0  0  0
  186.6980  178.2750  135.4270 C   0  0  0  0  0  2  0  0  0  0  0  0
  187.2980  173.0060  135.9010 C   0  0  0  0  0  0  0  0  0  0  0  0
  186.5330  174.2350  135.6790 C   0  0  1  0  0  3  0  0  0  0  0  0
  186.7020  171.9830  135.2330 O   0  0  0  0  0  0  0  0  0  0  0  0
  191.3540  175.1950  137.6710 C   0  0  0  0  0  2  0  0  0  0  0  0
  191.7460  175.8510  136.3340 C   0  0  2  0  0  3  0  0  0  0  0  0
  188.0060  176.7180  139.5450 C   0  0  0  0  0  2  0  0  0  0  0  0
  191.3600  175.0320  135.0990 C   0  0  0  0  0  2  0  0  0  0  0  0
  187.8930  178.1690  139.0340 C   0  0  2  0  0  3  0  0  0  0  0  0
  189.3520  176.4030  140.2070 C   0  0  0  0  0  2  0  0  0  0  0  0
  187.4850  177.7680  136.5760 C   0  0  1  0  0  0  0  0  0  0  0  0
  188.9220  178.2210  136.2880 C   0  0  0  0  0  2  0  0  0  0  0  0
  189.0670  174.2140  137.0430 C   0  0  2  0  0  3  0  0  0  0  0  0
  189.8680  175.1310  134.7570 C   0  0  0  0  0  2  0  0  0  0  0  0
  188.9340  175.3290  135.9670 C   0  0  1  0  0  3  0  0  0  0  0  0
  193.2060  176.1500  136.3240 C   0  0  0  0  0  0  0  0  0  0  0  0
  193.7860  176.8670  137.3650 O   0  0  0  0  0  1  0  0  0  0  0  0
  193.9190  175.7530  135.3650 O   0  0  0  0  0  0  0  0  0  0  0  0
  191.2520  177.2890  141.5590 C   0  0  0  0  0  3  0  0  0  0  0  0
  191.2340  177.9130  142.9410 C   0  0  0  0  0  2  0  0  0  0  0  0
  190.9130  176.4440  142.7720 C   0  0  0  0  0  2  0  0  0  0  0  0
  1  8  1  6  0  0  0
  1 16  1  0  0  0  0
  1  7  1  0  0  0  0
  1 28  1  0  0  0  0
  2 18  1  0  0  0  0
  3 12  1  0  0  0  0
  5 13  1  1  0  0  0
  5 22  1  0  0  0  0
  6 32  1  6  0  0  0
  7  8  1  6  0  0  0
  7 24  1  0  0  0  0
 10  9  1  0  0  0  0
 10 17  1  0  0  0  0
 11  6  1  0  0  0  0
 12 22  1  0  0  0  0
 12 11  1  1  0  0  0
 14  7  1  0  0  0  0
 15  4  2  0  0  0  0
 16  9  1  6  0  0  0
 16 15  1  0  0  0  0
 17 15  1  0  0  0  0
 19 29  1  1  0  0  0
 19 18  1  0  0  0  0
 20 23  1  0  0  0  0
 21 19  1  0  0  0  0
 22 20  1  6  0  0  0
 23  6  1  0  0  0  0
 24 14  1  6  0  0  0
 24  5  1  0  0  0  0
 25 24  1  0  0  0  0
 25  3  1  0  0  0  0
 26  4  1  6  0  0  0
 26  2  1  0  0  0  0
 27 21  1  0  0  0  0
 28 27  1  6  0  0  0
 28 26  1  0  0  0  0
 29 30  1  0  0  0  0
 31 29  2  0  0  0  0
 32 34  1  0  0  0  0
 32 33  1  0  0  0  0
 34 33  1  0  0  0  0
M  END
>  <MODEL>
8

>  <REMARK>
 VINA RESULT:      -3.4      4.228      5.821
  Name = 
  2 active torsions:
  status: ('A' for Active; 'I' for Inactive)
    1  A    between atoms: C_3  and  C_25
    2  A    between atoms: C_7  and  C_11
                            x       y       z     vdW  Elec       q    Type
                         _______ _______ _______ _____ _____    ______ ____

>  <TORSDO>
F 2

$$$$
=
 OpenBabel10272415233D

 34 41  0  0  1  0  0  0  0  0999 V2000
  197.9140  174.1540  137.2210 C   0  0  2  0  0  0  0  0  0  0  0  0
  194.0510  173.8160  138.0150 C   0  0  0  0  0  2  0  0  0  0  0  0
  195.6970  172.2100  134.5930 N   0  0  0  0  0  2  0  0  0  0  0  0
  195.9990  174.4480  139.3970 C   0  0  0  0  0  3  0  0  0  0  0  0
  198.1610  170.8620  135.4630 C   0  0  1  0  0  3  0  0  0  0  0  0
  194.1090  169.4110  135.6670 C   0  0  1  0  0  3  0  0  0  0  0  0
  198.8780  173.2540  136.3800 C   0  0  1  0  0  0  0  0  0  0  0  0
  198.8210  174.7880  136.2390 C   0  0  0  0  0  2  0  0  0  0  0  0
  199.4600  175.0250  138.9650 O   0  0  0  0  0  0  0  0  0  0  0  0
  199.2190  175.5810  140.2540 C   0  0  0  0  0  2  0  0  0  0  0  0
  194.5170  170.0790  134.3460 C   0  0  0  0  0  2  0  0  0  0  0  0
  195.8870  170.7740  134.3930 C   0  0  2  0  0  3  0  0  0  0  0  0
  198.9500  170.4470  136.5420 O   0  0  0  0  0  1  0  0  0  0  0  0
  199.2930  172.9920  134.9390 C   0  0  0  0  0  2  0  0  0  0  0  0
  197.2990  174.6470  139.5900 C   0  0  0  0  0  0  0  0  0  0  0  0
  198.3620  174.1750  138.7000 C   0  0  1  0  0  3  0  0  0  0  0  0
  197.8420  175.4300  140.5580 O   0  0  0  0  0  0  0  0  0  0  0  0
  193.5360  173.4900  136.6100 C   0  0  0  0  0  2  0  0  0  0  0  0
  193.8740  174.5530  135.5480 C   0  0  2  0  0  3  0  0  0  0  0  0
  196.1330  170.2940  136.8960 C   0  0  0  0  0  2  0  0  0  0  0  0
  194.5050  175.8260  136.1180 C   0  0  0  0  0  2  0  0  0  0  0  0
  196.7860  170.1910  135.5030 C   0  0  2  0  0  3  0  0  0  0  0  0
  194.6030  170.2200  136.8640 C   0  0  0  0  0  2  0  0  0  0  0  0
  198.0200  172.3900  135.4000 C   0  0  1  0  0  0  0  0  0  0  0  0
  196.9700  172.9060  134.4090 C   0  0  0  0  0  2  0  0  0  0  0  0
  195.5730  173.7230  138.1540 C   0  0  2  0  0  3  0  0  0  0  0  0
  195.9860  175.6530  136.4750 C   0  0  0  0  0  2  0  0  0  0  0  0
  196.3860  174.2350  136.9300 C   0  0  1  0  0  3  0  0  0  0  0  0
  192.6560  174.8850  134.7570 C   0  0  0  0  0  0  0  0  0  0  0  0
  191.7160  173.9030  134.4650 O   0  0  0  0  0  1  0  0  0  0  0  0
  192.4790  176.0610  134.3460 O   0  0  0  0  0  0  0  0  0  0  0  0
  192.5990  169.2650  135.7240 C   0  0  0  0  0  3  0  0  0  0  0  0
  192.1990  167.9130  135.1660 C   0  0  0  0  0  2  0  0  0  0  0  0
  192.2330  168.1320  136.6630 C   0  0  0  0  0  2  0  0  0  0  0  0
  1  8  1  6  0  0  0
  1 16  1  0  0  0  0
  4 15  2  0  0  0  0
  5 22  1  0  0  0  0
  5 13  1  1  0  0  0
  6 32  1  6  0  0  0
  6 23  1  0  0  0  0
  7 14  1  1  0  0  0
  7  1  1  0  0  0  0
  8  7  1  0  0  0  0
  9 10  1  0  0  0  0
 10 17  1  0  0  0  0
 11  6  1  0  0  0  0
 12 11  1  1  0  0  0
 12  3  1  0  0  0  0
 12 22  1  0  0  0  0
 14 24  1  0  0  0  0
 15 17  1  0  0  0  0
 16  9  1  6  0  0  0
 16 15  1  0  0  0  0
 18  2  1  0  0  0  0
 19 29  1  1  0  0  0
 19 21  1  0  0  0  0
 19 18  1  0  0  0  0
 21 27  1  0  0  0  0
 22 20  1  1  0  0  0
 23 20  1  0  0  0  0
 24 25  1  6  0  0  0
 24  5  1  0  0  0  0
 24  7  1  0  0  0  0
 25  3  1  0  0  0  0
 26  2  1  6  0  0  0
 26  4  1  0  0  0  0
 28 27  1  1  0  0  0
 28  1  1  0  0  0  0
 28 26  1  0  0  0  0
 30 29  1  0  0  0  0
 31 29  2  0  0  0  0
 32 34  1  0  0  0  0
 33 32  1  0  0  0  0
 33 34  1  0  0  0  0
M  END
>  <MODEL>
9

>  <REMARK>
 VINA RESULT:      -3.2     10.836     14.418
  Name = 
  2 active torsions:
  status: ('A' for Active; 'I' for Inactive)
    1  A    between atoms: C_3  and  C_25
    2  A    between atoms: C_7  and  C_11
                            x       y       z     vdW  Elec       q    Type
                         _______ _______ _______ _____ _____    ______ ____

>  <TORSDO>
F 2

$$$$
