=
 OpenBabel10272413223D

 32 37  0  0  1  0  0  0  0  0999 V2000
  189.9140  176.7510  137.0200 C   0  0  0  0  0  2  0  0  0  0  0  0
  189.1410  177.5090  142.1480 C   0  0  0  0  0  0  0  0  0  0  0  0
  184.3570  178.6600  142.0810 C   0  0  0  0  0  3  0  0  0  0  0  0
  184.2990  178.6710  143.3780 N   0  0  0  0  0  0  0  0  0  0  0  0
  190.2320  177.1540  144.3410 C   0  0  0  0  0  0  0  0  0  0  0  0
  190.0620  177.1570  145.7220 C   0  0  0  0  0  0  0  0  0  0  0  0
  190.4770  177.7370  140.1070 N   0  0  2  0  0  0  0  0  0  0  0  0
  188.0920  178.1880  139.9430 C   0  0  0  0  0  2  0  0  0  0  0  0
  188.9870  177.4040  147.6150 N   0  0  0  0  0  0  0  0  0  0  0  0
  189.4070  177.9140  137.8620 C   0  0  0  0  0  2  0  0  0  0  0  0
  185.6210  178.4130  141.3780 C   0  0  0  0  0  3  0  0  0  0  0  0
  187.9770  177.8870  141.3760 N   0  0  0  0  0  0  0  0  0  0  0  0
  186.7440  178.1550  142.0540 C   0  0  2  0  0  3  0  0  0  0  0  0
  187.8490  177.8060  144.1990 C   0  0  0  0  0  0  0  0  0  0  0  0
  190.2750  177.0530  147.8410 C   0  0  0  0  0  3  0  0  0  0  0  0
  191.6180  176.0790  138.5760 C   0  0  0  0  0  2  0  0  0  0  0  0
  189.2690  177.4620  139.3110 C   0  0  1  0  0  3  0  0  0  0  0  0
  190.9720  176.8920  146.6820 N   0  0  0  0  0  0  0  0  0  0  0  0
  191.7450  177.2880  139.5040 C   0  0  0  0  0  2  0  0  0  0  0  0
  191.3500  176.5440  137.2160 N   0  0  0  0  0  0  0  0  0  0  0  0
  185.4530  178.4770  144.2620 C   0  0  0  0  0  3  0  0  0  0  0  0
  186.7260  178.1180  143.5220 C   0  0  0  0  0  0  0  0  0  0  0  0
  187.7860  177.7860  145.5670 N   0  0  0  0  0  0  0  0  0  0  0  0
  190.3390  177.0220  141.3720 C   0  0  0  0  0  2  0  0  0  0  0  0
  191.6060  176.8500  143.8300 C   0  0  0  0  0  1  0  0  0  0  0  0
  187.9610  177.6630  148.6100 C   0  0  0  0  0  1  0  0  0  0  0  0
  189.0920  177.4840  143.5200 C   0  0  0  0  0  0  0  0  0  0  0  0
  188.8800  177.4630  146.2860 C   0  0  0  0  0  0  0  0  0  0  0  0
  191.8480  175.5610  136.2450 C   0  0  0  0  0  2  0  0  0  0  0  0
  193.3440  175.4210  136.2330 C   0  0  0  0  0  0  0  0  0  0  0  0
  194.1500  176.5380  136.4110 O   0  0  0  0  0  1  0  0  0  0  0  0
  193.8700  174.2890  136.0740 O   0  0  0  0  0  0  0  0  0  0  0  0
  1 20  1  0  0  0  0
  1 10  1  0  0  0  0
  2 27  2  0  0  0  0
  3  4  1  0  0  0  0
  4 21  2  0  0  0  0
  5  6  2  0  0  0  0
  6 28  1  0  0  0  0
  6 18  1  0  0  0  0
  7 19  1  6  0  0  0
  7 24  1  0  0  0  0
  8 12  1  0  0  0  0
  9 15  1  0  0  0  0
  9 26  1  0  0  0  0
 11  3  2  0  0  0  0
 12 13  1  0  0  0  0
 12  2  1  0  0  0  0
 13 11  1  6  0  0  0
 13 22  1  0  0  0  0
 14 23  1  0  0  0  0
 16 19  1  0  0  0  0
 17 10  1  6  0  0  0
 17  8  1  0  0  0  0
 17  7  1  0  0  0  0
 18 15  2  0  0  0  0
 20 16  1  0  0  0  0
 22 14  2  0  0  0  0
 22 21  1  0  0  0  0
 23 28  2  0  0  0  0
 24  2  1  0  0  0  0
 25  5  1  0  0  0  0
 27 14  1  0  0  0  0
 27  5  1  0  0  0  0
 28  9  1  0  0  0  0
 29 20  1  0  0  0  0
 30 29  1  0  0  0  0
 30 31  1  0  0  0  0
 32 30  2  0  0  0  0
M  END
>  <MODEL>
1

>  <REMARK>
 VINA RESULT:      -9.9      0.000      0.000
  Name = 
  2 active torsions:
  status: ('A' for Active; 'I' for Inactive)
    1  A    between atoms: C_1  and  C_10
    2  A    between atoms: C_10  and  N_24
                            x       y       z     vdW  Elec       q    Type
                         _______ _______ _______ _____ _____    ______ ____

>  <TORSDO>
F 2

$$$$
=
 OpenBabel10272413223D

 32 37  0  0  1  0  0  0  0  0999 V2000
  186.4830  177.5370  137.2380 C   0  0  0  0  0  2  0  0  0  0  0  0
  187.3450  177.9730  142.3900 C   0  0  0  0  0  0  0  0  0  0  0  0
  182.7790  179.0370  143.8840 C   0  0  0  0  0  3  0  0  0  0  0  0
  183.1280  178.9700  145.1330 N   0  0  0  0  0  0  0  0  0  0  0  0
  189.0640  177.5070  144.1080 C   0  0  0  0  0  0  0  0  0  0  0  0
  189.3330  177.4240  145.4710 C   0  0  0  0  0  0  0  0  0  0  0  0
  187.9800  178.3470  140.0530 N   0  0  2  0  0  0  0  0  0  0  0  0
  185.6620  178.7630  140.6660 C   0  0  0  0  0  2  0  0  0  0  0  0
  188.9000  177.5380  147.6150 N   0  0  0  0  0  0  0  0  0  0  0  0
  186.2640  178.6390  138.2670 C   0  0  0  0  0  2  0  0  0  0  0  0
  183.7620  178.8570  142.8090 C   0  0  0  0  0  3  0  0  0  0  0  0
  185.9990  178.3750  142.0420 N   0  0  0  0  0  0  0  0  0  0  0  0
  185.0390  178.5790  143.0850 C   0  0  2  0  0  3  0  0  0  0  0  0
  186.7560  178.1230  144.7540 C   0  0  0  0  0  0  0  0  0  0  0  0
  190.1940  177.1980  147.4080 C   0  0  0  0  0  3  0  0  0  0  0  0
  188.5860  176.8050  138.1420 C   0  0  0  0  0  2  0  0  0  0  0  0
  186.5840  178.0980  139.6560 C   0  0  1  0  0  3  0  0  0  0  0  0
  190.4960  177.1200  146.0820 N   0  0  0  0  0  0  0  0  0  0  0  0
  188.9970  177.9590  139.0590 C   0  0  0  0  0  2  0  0  0  0  0  0
  187.9090  177.3460  136.9650 N   0  0  0  0  0  0  0  0  0  0  0  0
  184.5000  178.7440  145.6010 C   0  0  0  0  0  3  0  0  0  0  0  0
  185.4780  178.4530  144.4810 C   0  0  0  0  0  0  0  0  0  0  0  0
  187.1220  178.0190  146.0700 N   0  0  0  0  0  0  0  0  0  0  0  0
  188.2410  177.5560  141.2500 C   0  0  0  0  0  2  0  0  0  0  0  0
  190.2100  177.2590  143.1770 C   0  0  0  0  0  1  0  0  0  0  0  0
  188.2350  177.7180  148.8940 C   0  0  0  0  0  1  0  0  0  0  0  0
  187.7250  177.8650  143.7040 C   0  0  0  0  0  0  0  0  0  0  0  0
  188.3840  177.6750  146.3920 C   0  0  0  0  0  0  0  0  0  0  0  0
  188.0790  176.4320  135.8270 C   0  0  0  0  0  2  0  0  0  0  0  0
  189.3910  176.5890  135.1110 C   0  0  0  0  0  0  0  0  0  0  0  0
  189.6380  177.7250  134.3520 O   0  0  0  0  0  0  0  0  0  0  0  0
  190.2730  175.6970  135.2080 O   0  0  0  0  0  1  0  0  0  0  0  0
  1 10  1  0  0  0  0
  2 27  2  0  0  0  0
  3  4  1  0  0  0  0
  4 21  2  0  0  0  0
  5  6  2  0  0  0  0
  6 18  1  0  0  0  0
  6 28  1  0  0  0  0
  7 19  1  6  0  0  0
  7 24  1  0  0  0  0
  8 12  1  0  0  0  0
  9 26  1  0  0  0  0
 11  3  2  0  0  0  0
 12  2  1  0  0  0  0
 12 13  1  0  0  0  0
 13 11  1  6  0  0  0
 13 22  1  0  0  0  0
 14 23  1  0  0  0  0
 15  9  1  0  0  0  0
 16 19  1  0  0  0  0
 17 10  1  6  0  0  0
 17  7  1  0  0  0  0
 17  8  1  0  0  0  0
 18 15  2  0  0  0  0
 20  1  1  0  0  0  0
 20 16  1  0  0  0  0
 22 14  2  0  0  0  0
 22 21  1  0  0  0  0
 23 28  2  0  0  0  0
 24  2  1  0  0  0  0
 25  5  1  0  0  0  0
 27  5  1  0  0  0  0
 27 14  1  0  0  0  0
 28  9  1  0  0  0  0
 29 20  1  0  0  0  0
 30 32  1  0  0  0  0
 30 29  1  0  0  0  0
 31 30  2  0  0  0  0
M  END
>  <MODEL>
2

>  <REMARK>
 VINA RESULT:      -9.8      1.979      2.492
  Name = 
  2 active torsions:
  status: ('A' for Active; 'I' for Inactive)
    1  A    between atoms: C_1  and  C_10
    2  A    between atoms: C_10  and  N_24
                            x       y       z     vdW  Elec       q    Type
                         _______ _______ _______ _____ _____    ______ ____

>  <TORSDO>
F 2

$$$$
=
 OpenBabel10272413223D

 32 37  0  0  1  0  0  0  0  0999 V2000
  191.6100  176.5320  144.2620 C   0  0  0  0  0  2  0  0  0  0  0  0
  186.8410  178.1310  142.7890 C   0  0  0  0  0  0  0  0  0  0  0  0
  187.4630  178.1310  137.9070 C   0  0  0  0  0  3  0  0  0  0  0  0
  186.2070  178.3950  137.7060 N   0  0  0  0  0  0  0  0  0  0  0  0
  184.5610  178.4880  143.6820 C   0  0  0  0  0  0  0  0  0  0  0  0
  183.2290  178.7360  143.3640 C   0  0  0  0  0  0  0  0  0  0  0  0
  188.7940  178.2310  144.2650 N   0  0  2  0  0  0  0  0  0  0  0  0
  189.2030  178.0880  141.8710 C   0  0  0  0  0  2  0  0  0  0  0  0
  181.5100  179.1160  142.0600 N   0  0  0  0  0  0  0  0  0  0  0  0
  191.0840  177.6980  143.4350 C   0  0  0  0  0  2  0  0  0  0  0  0
  188.0120  178.0380  139.2650 C   0  0  0  0  0  3  0  0  0  0  0  0
  187.7490  178.0690  141.6640 N   0  0  0  0  0  0  0  0  0  0  0  0
  187.2270  178.1840  140.3360 C   0  0  0  0  0  0  0  0  0  0  0  0
  184.9940  178.5410  141.2460 C   0  0  0  0  0  0  0  0  0  0  0  0
  181.1320  179.1190  143.3590 C   0  0  0  0  0  3  0  0  0  0  0  0
  189.8400  176.5960  145.8860 C   0  0  0  0  0  2  0  0  0  0  0  0
  189.5820  177.5330  143.2360 C   0  0  1  0  0  3  0  0  0  0  0  0
  182.1790  178.8860  144.1980 N   0  0  0  0  0  0  0  0  0  0  0  0
  189.2010  177.9670  145.6560 C   0  0  0  0  0  2  0  0  0  0  0  0
  191.2840  176.7000  145.6790 N   0  0  0  0  0  0  0  0  0  0  0  0
  185.2320  178.6520  138.7710 C   0  0  0  0  0  2  0  0  0  0  0  0
  185.7920  178.4460  140.1640 C   0  0  0  0  0  0  0  0  0  0  0  0
  183.6630  178.7880  141.0380 N   0  0  0  0  0  0  0  0  0  0  0  0
  187.4120  177.7780  144.1390 C   0  0  0  0  0  2  0  0  0  0  0  0
  184.9040  178.4040  145.1360 C   0  0  0  0  0  1  0  0  0  0  0  0
  180.6650  179.3350  140.8990 C   0  0  0  0  0  1  0  0  0  0  0  0
  185.5050  178.3770  142.5950 C   0  0  0  0  0  0  0  0  0  0  0  0
  182.8230  178.8760  142.0890 C   0  0  0  0  0  0  0  0  0  0  0  0
  191.9770  175.6770  146.4730 C   0  0  0  0  0  2  0  0  0  0  0  0
  192.3770  176.1400  147.8460 C   0  0  0  0  0  0  0  0  0  0  0  0
  191.9310  177.3650  148.3260 O   0  0  0  0  0  0  0  0  0  0  0  0
  193.1070  175.4130  148.5690 O   0  0  0  0  0  1  0  0  0  0  0  0
  1 20  1  0  0  0  0
  2 24  1  0  0  0  0
  3 11  1  0  0  0  0
  4  3  2  0  0  0  0
  4 21  1  0  0  0  0
  5 25  1  0  0  0  0
  6  5  2  0  0  0  0
  6 18  1  0  0  0  0
  7 24  1  1  0  0  0
  7 19  1  0  0  0  0
  9 28  1  0  0  0  0
  9 15  1  0  0  0  0
 10  1  1  0  0  0  0
 11 13  2  0  0  0  0
 12  8  1  0  0  0  0
 12  2  1  0  0  0  0
 13 12  1  0  0  0  0
 14 27  1  0  0  0  0
 15 18  2  0  0  0  0
 17  8  1  6  0  0  0
 17 10  1  0  0  0  0
 17  7  1  0  0  0  0
 19 16  1  0  0  0  0
 20 16  1  0  0  0  0
 20 29  1  0  0  0  0
 21 22  1  0  0  0  0
 22 13  1  0  0  0  0
 22 14  2  0  0  0  0
 23 14  1  0  0  0  0
 23 28  2  0  0  0  0
 26  9  1  0  0  0  0
 27  2  2  0  0  0  0
 27  5  1  0  0  0  0
 28  6  1  0  0  0  0
 29 30  1  0  0  0  0
 30 31  2  0  0  0  0
 30 32  1  0  0  0  0
M  END
>  <MODEL>
3

>  <REMARK>
 VINA RESULT:      -9.6      3.983      7.197
  Name = 
  2 active torsions:
  status: ('A' for Active; 'I' for Inactive)
    1  A    between atoms: C_1  and  C_10
    2  A    between atoms: C_10  and  N_24
                            x       y       z     vdW  Elec       q    Type
                         _______ _______ _______ _____ _____    ______ ____

>  <TORSDO>
F 2

$$$$
=
 OpenBabel10272413223D

 32 37  0  0  1  0  0  0  0  0999 V2000
  185.4020  177.7400  137.4160 C   0  0  0  0  0  2  0  0  0  0  0  0
  187.5690  177.8900  142.1870 C   0  0  0  0  0  0  0  0  0  0  0  0
  183.5670  178.9190  144.8580 C   0  0  0  0  0  3  0  0  0  0  0  0
  184.2240  178.7810  145.9700 N   0  0  0  0  0  0  0  0  0  0  0  0
  189.6600  177.3140  143.3780 C   0  0  0  0  0  0  0  0  0  0  0  0
  190.2680  177.1550  144.6200 C   0  0  0  0  0  0  0  0  0  0  0  0
  187.5910  178.3820  139.7870 N   0  0  2  0  0  0  0  0  0  0  0  0
  185.5200  178.7890  140.9970 C   0  0  0  0  0  2  0  0  0  0  0  0
  190.4040  177.1570  146.8070 N   0  0  0  0  0  0  0  0  0  0  0  0
  185.4820  178.7870  138.5200 C   0  0  0  0  0  2  0  0  0  0  0  0
  184.2360  178.7870  143.5590 C   0  0  0  0  0  3  0  0  0  0  0  0
  186.1890  178.3240  142.2180 N   0  0  0  0  0  0  0  0  0  0  0  0
  185.5340  178.4810  143.4820 C   0  0  2  0  0  3  0  0  0  0  0  0
  187.6110  177.9180  144.6270 C   0  0  0  0  0  0  0  0  0  0  0  0
  191.5920  176.8160  146.2560 C   0  0  0  0  0  3  0  0  0  0  0  0
  187.6480  176.9390  137.7110 C   0  0  0  0  0  2  0  0  0  0  0  0
  186.1350  178.1690  139.7510 C   0  0  1  0  0  3  0  0  0  0  0  0
  191.5420  176.8060  144.8950 N   0  0  0  0  0  0  0  0  0  0  0  0
  188.3080  178.0370  138.5460 C   0  0  0  0  0  2  0  0  0  0  0  0
  186.7040  177.5490  136.7760 N   0  0  0  0  0  0  0  0  0  0  0  0
  185.6640  178.5170  146.0570 C   0  0  0  0  0  3  0  0  0  0  0  0
  186.3140  178.2760  144.7100 C   0  0  0  0  0  0  0  0  0  0  0  0
  188.3010  177.7400  145.7980 N   0  0  0  0  0  0  0  0  0  0  0  0
  188.1320  177.5250  140.8360 C   0  0  0  0  0  2  0  0  0  0  0  0
  190.5220  177.1050  142.1720 C   0  0  0  0  0  1  0  0  0  0  0  0
  190.0940  177.2760  148.2210 C   0  0  0  0  0  1  0  0  0  0  0  0
  188.2720  177.7070  143.3520 C   0  0  0  0  0  0  0  0  0  0  0  0
  189.5940  177.3650  145.7660 C   0  0  0  0  0  0  0  0  0  0  0  0
  186.5550  176.6960  135.5890 C   0  0  0  0  0  2  0  0  0  0  0  0
  187.8440  176.4280  134.8660 C   0  0  0  0  0  0  0  0  0  0  0  0
  188.5990  177.4830  134.3720 O   0  0  0  0  0  0  0  0  0  0  0  0
  188.2490  175.2450  134.7180 O   0  0  0  0  0  1  0  0  0  0  0  0
  1 10  1  0  0  0  0
  2 12  1  0  0  0  0
  2 27  2  0  0  0  0
  3  4  1  0  0  0  0
  4 21  2  0  0  0  0
  5  6  2  0  0  0  0
  6 18  1  0  0  0  0
  6 28  1  0  0  0  0
  7 19  1  6  0  0  0
  7 24  1  0  0  0  0
  8 12  1  0  0  0  0
  9 26  1  0  0  0  0
 11  3  2  0  0  0  0
 12 13  1  0  0  0  0
 13 11  1  6  0  0  0
 13 22  1  0  0  0  0
 14 22  2  0  0  0  0
 14 23  1  0  0  0  0
 15  9  1  0  0  0  0
 16 19  1  0  0  0  0
 17 10  1  6  0  0  0
 17  7  1  0  0  0  0
 17  8  1  0  0  0  0
 18 15  2  0  0  0  0
 20  1  1  0  0  0  0
 20 16  1  0  0  0  0
 22 21  1  0  0  0  0
 24  2  1  0  0  0  0
 25  5  1  0  0  0  0
 27  5  1  0  0  0  0
 27 14  1  0  0  0  0
 28 23  2  0  0  0  0
 28  9  1  0  0  0  0
 29 20  1  0  0  0  0
 30 29  1  0  0  0  0
 31 30  2  0  0  0  0
 32 30  1  0  0  0  0
M  END
>  <MODEL>
4

>  <REMARK>
 VINA RESULT:      -9.6      2.599      3.155
  Name = 
  2 active torsions:
  status: ('A' for Active; 'I' for Inactive)
    1  A    between atoms: C_1  and  C_10
    2  A    between atoms: C_10  and  N_24
                            x       y       z     vdW  Elec       q    Type
                         _______ _______ _______ _____ _____    ______ ____

>  <TORSDO>
F 2

$$$$
=
 OpenBabel10272413223D

 32 37  0  0  1  0  0  0  0  0999 V2000
  183.3310  178.6810  144.8510 C   0  0  0  0  0  2  0  0  0  0  0  0
  187.7290  177.9060  142.1070 C   0  0  0  0  0  0  0  0  0  0  0  0
  190.7350  176.5610  145.7630 C   0  0  0  0  0  3  0  0  0  0  0  0
  191.6900  176.2790  144.9300 N   0  0  0  0  0  0  0  0  0  0  0  0
  188.5430  177.6910  139.7790 C   0  0  0  0  0  0  0  0  0  0  0  0
  189.6120  177.3300  138.9650 C   0  0  0  0  0  0  0  0  0  0  0  0
  185.6890  179.1660  142.6080 N   0  0  2  0  0  0  0  0  0  0  0  0
  187.0370  178.4180  144.4910 C   0  0  0  0  0  2  0  0  0  0  0  0
  191.6340  176.6300  138.4950 N   0  0  0  0  0  0  0  0  0  0  0  0
  184.7430  179.2500  144.9140 C   0  0  0  0  0  2  0  0  0  0  0  0
  189.4570  177.1120  145.2980 C   0  0  0  0  0  3  0  0  0  0  0  0
  187.9710  177.8160  143.5300 N   0  0  0  0  0  0  0  0  0  0  0  0
  189.2250  177.3030  143.9960 C   0  0  0  0  0  0  0  0  0  0  0  0
  190.0000  177.1100  141.6930 C   0  0  0  0  0  0  0  0  0  0  0  0
  190.9530  176.9150  137.3600 C   0  0  0  0  0  3  0  0  0  0  0  0
  183.2230  178.6260  142.4510 C   0  0  0  0  0  2  0  0  0  0  0  0
  185.6290  178.5050  143.9220 C   0  0  1  0  0  3  0  0  0  0  0  0
  189.6900  177.3540  137.6180 N   0  0  0  0  0  0  0  0  0  0  0  0
  184.3850  179.5260  142.0240 C   0  0  0  0  0  2  0  0  0  0  0  0
  182.6200  179.1670  143.6680 N   0  0  0  0  0  0  0  0  0  0  0  0
  191.6190  176.4980  143.4810 C   0  0  0  0  0  2  0  0  0  0  0  0
  190.2570  176.9640  143.0080 C   0  0  0  0  0  0  0  0  0  0  0  0
  190.9930  176.7840  140.8070 N   0  0  0  0  0  0  0  0  0  0  0  0
  186.3210  178.2350  141.6790 C   0  0  0  0  0  2  0  0  0  0  0  0
  187.3160  178.2070  139.0940 C   0  0  0  0  0  1  0  0  0  0  0  0
  193.0000  176.1470  138.6000 C   0  0  0  0  0  1  0  0  0  0  0  0
  188.7150  177.5820  141.2080 C   0  0  0  0  0  0  0  0  0  0  0  0
  190.7760  176.8980  139.4820 C   0  0  0  0  0  0  0  0  0  0  0  0
  181.2060  178.7730  143.7410 C   0  0  0  0  0  2  0  0  0  0  0  0
  180.3580  179.3380  142.6370 C   0  0  0  0  0  0  0  0  0  0  0  0
  179.9870  180.6760  142.6570 O   0  0  0  0  0  1  0  0  0  0  0  0
  179.9930  178.6020  141.6830 O   0  0  0  0  0  0  0  0  0  0  0  0
  1 10  1  0  0  0  0
  2 12  1  0  0  0  0
  4  3  2  0  0  0  0
  5 27  1  0  0  0  0
  6 28  1  0  0  0  0
  6  5  2  0  0  0  0
  7 24  1  6  0  0  0
  7 17  1  0  0  0  0
  9 26  1  0  0  0  0
  9 28  1  0  0  0  0
 11  3  1  0  0  0  0
 12 13  1  0  0  0  0
 12  8  1  0  0  0  0
 13 11  2  0  0  0  0
 14 22  2  0  0  0  0
 15 18  2  0  0  0  0
 15  9  1  0  0  0  0
 16 20  1  0  0  0  0
 17  8  1  1  0  0  0
 17 10  1  0  0  0  0
 18  6  1  0  0  0  0
 19 16  1  0  0  0  0
 19  7  1  0  0  0  0
 20 29  1  0  0  0  0
 20  1  1  0  0  0  0
 21  4  1  0  0  0  0
 22 21  1  0  0  0  0
 22 13  1  0  0  0  0
 23 14  1  0  0  0  0
 24  2  1  0  0  0  0
 25  5  1  0  0  0  0
 27 14  1  0  0  0  0
 27  2  2  0  0  0  0
 28 23  2  0  0  0  0
 30 31  1  0  0  0  0
 30 29  1  0  0  0  0
 32 30  2  0  0  0  0
M  END
>  <MODEL>
5

>  <REMARK>
 VINA RESULT:      -8.6      4.191      8.530
  Name = 
  2 active torsions:
  status: ('A' for Active; 'I' for Inactive)
    1  A    between atoms: C_1  and  C_10
    2  A    between atoms: C_10  and  N_24
                            x       y       z     vdW  Elec       q    Type
                         _______ _______ _______ _____ _____    ______ ____

>  <TORSDO>
F 2

$$$$
=
 OpenBabel10272413223D

 32 37  0  0  1  0  0  0  0  0999 V2000
  191.8070  177.3270  142.0390 C   0  0  0  0  0  2  0  0  0  0  0  0
  186.6210  178.0390  142.3130 C   0  0  0  0  0  0  0  0  0  0  0  0
  186.1140  178.4080  147.1930 C   0  0  0  0  0  3  0  0  0  0  0  0
  184.8570  178.7130  147.0810 N   0  0  0  0  0  0  0  0  0  0  0  0
  184.6610  178.5410  140.8880 C   0  0  0  0  0  0  0  0  0  0  0  0
  183.3190  178.9070  140.8690 C   0  0  0  0  0  0  0  0  0  0  0  0
  188.6070  176.9540  141.3730 N   0  0  2  0  0  0  0  0  0  0  0  0
  188.5120  177.2210  143.7900 C   0  0  0  0  0  2  0  0  0  0  0  0
  181.3680  179.4390  141.7110 N   0  0  0  0  0  0  0  0  0  0  0  0
  190.6650  176.5980  142.7360 C   0  0  0  0  0  2  0  0  0  0  0  0
  186.9280  178.0910  146.0140 C   0  0  0  0  0  3  0  0  0  0  0  0
  187.2010  177.8640  143.6270 N   0  0  0  0  0  0  0  0  0  0  0  0
  186.4080  178.1460  144.7850 C   0  0  2  0  0  3  0  0  0  0  0  0
  184.4930  178.6270  143.3550 C   0  0  0  0  0  0  0  0  0  0  0  0
  181.3150  179.4260  140.3590 C   0  0  0  0  0  3  0  0  0  0  0  0
  190.5780  177.7900  140.0270 C   0  0  0  0  0  2  0  0  0  0  0  0
  189.3770  177.3910  142.5500 C   0  0  1  0  0  3  0  0  0  0  0  0
  182.5130  179.0970  139.8030 N   0  0  0  0  0  0  0  0  0  0  0  0
  189.3770  176.8470  140.1220 C   0  0  0  0  0  2  0  0  0  0  0  0
  191.7530  177.1290  140.5900 N   0  0  0  0  0  0  0  0  0  0  0  0
  184.1210  178.7460  145.8130 C   0  0  0  0  0  3  0  0  0  0  0  0
  185.0000  178.5230  144.5990 C   0  0  0  0  0  0  0  0  0  0  0  0
  183.1750  178.9790  143.2290 N   0  0  0  0  0  0  0  0  0  0  0  0
  187.5640  177.9480  141.1390 C   0  0  0  0  0  2  0  0  0  0  0  0
  185.3120  178.2890  139.5630 C   0  0  0  0  0  1  0  0  0  0  0  0
  180.2830  179.7390  142.6290 C   0  0  0  0  0  1  0  0  0  0  0  0
  185.3020  178.3920  142.1720 C   0  0  0  0  0  0  0  0  0  0  0  0
  182.6280  179.1120  142.0050 C   0  0  0  0  0  0  0  0  0  0  0  0
  192.9730  177.6630  139.9700 C   0  0  0  0  0  2  0  0  0  0  0  0
  193.5540  176.7760  138.9060 C   0  0  0  0  0  0  0  0  0  0  0  0
  194.5060  175.8200  139.2390 O   0  0  0  0  0  1  0  0  0  0  0  0
  193.1710  176.8870  137.7120 O   0  0  0  0  0  0  0  0  0  0  0  0
  1 10  1  0  0  0  0
  2 12  1  0  0  0  0
  4  3  1  0  0  0  0
  5 27  1  0  0  0  0
  6  5  2  0  0  0  0
  6 28  1  0  0  0  0
  7 19  1  6  0  0  0
  7 17  1  0  0  0  0
  9 28  1  0  0  0  0
  9 26  1  0  0  0  0
 11  3  2  0  0  0  0
 12  8  1  0  0  0  0
 12 13  1  0  0  0  0
 13 11  1  6  0  0  0
 14 22  2  0  0  0  0
 15  9  1  0  0  0  0
 16 19  1  0  0  0  0
 16 20  1  0  0  0  0
 17 10  1  1  0  0  0
 17  8  1  0  0  0  0
 18 15  2  0  0  0  0
 18  6  1  0  0  0  0
 20  1  1  0  0  0  0
 21  4  2  0  0  0  0
 22 13  1  0  0  0  0
 22 21  1  0  0  0  0
 23 14  1  0  0  0  0
 24  7  1  0  0  0  0
 24  2  1  0  0  0  0
 25  5  1  0  0  0  0
 27  2  2  0  0  0  0
 27 14  1  0  0  0  0
 28 23  2  0  0  0  0
 29 20  1  0  0  0  0
 30 31  1  0  0  0  0
 30 29  1  0  0  0  0
 32 30  2  0  0  0  0
M  END
>  <MODEL>
6

>  <REMARK>
 VINA RESULT:      -8.5      2.286      5.645
  Name = 
  2 active torsions:
  status: ('A' for Active; 'I' for Inactive)
    1  A    between atoms: C_1  and  C_10
    2  A    between atoms: C_10  and  N_24
                            x       y       z     vdW  Elec       q    Type
                         _______ _______ _______ _____ _____    ______ ____

>  <TORSDO>
F 2

$$$$
=
 OpenBabel10272413223D

 32 37  0  0  1  0  0  0  0  0999 V2000
  189.4520  177.4650  147.7420 C   0  0  0  0  0  2  0  0  0  0  0  0
  188.3020  177.6670  142.6330 C   0  0  0  0  0  0  0  0  0  0  0  0
  183.5790  179.0170  142.9220 C   0  0  0  0  0  3  0  0  0  0  0  0
  183.4960  179.1560  141.6340 N   0  0  0  0  0  0  0  0  0  0  0  0
  189.3810  177.6440  140.4060 C   0  0  0  0  0  0  0  0  0  0  0  0
  189.2050  177.8540  139.0420 C   0  0  0  0  0  0  0  0  0  0  0  0
  189.3910  176.6230  144.5630 N   0  0  2  0  0  0  0  0  0  0  0  0
  187.0980  177.3900  144.8460 C   0  0  0  0  0  2  0  0  0  0  0  0
  188.1110  178.3450  137.2080 N   0  0  0  0  0  0  0  0  0  0  0  0
  188.4180  176.7860  146.8530 C   0  0  0  0  0  2  0  0  0  0  0  0
  184.8130  178.5430  143.5590 C   0  0  0  0  0  3  0  0  0  0  0  0
  187.1190  177.8400  143.4480 N   0  0  0  0  0  0  0  0  0  0  0  0
  185.9020  178.2780  142.8330 C   0  0  0  0  0  0  0  0  0  0  0  0
  186.9920  178.2370  140.6530 C   0  0  0  0  0  0  0  0  0  0  0  0
  189.3980  178.0370  136.9260 C   0  0  0  0  0  3  0  0  0  0  0  0
  191.2330  177.3550  146.1330 C   0  0  0  0  0  2  0  0  0  0  0  0
  188.4940  177.3800  145.4520 C   0  0  1  0  0  3  0  0  0  0  0  0
  190.1070  177.7250  138.0470 N   0  0  0  0  0  0  0  0  0  0  0  0
  190.7260  176.3320  145.1140 C   0  0  0  0  0  2  0  0  0  0  0  0
  190.7970  176.9570  147.4700 N   0  0  0  0  0  0  0  0  0  0  0  0
  184.5770  178.8400  140.6940 C   0  0  0  0  0  2  0  0  0  0  0  0
  185.8750  178.4570  141.3760 C   0  0  0  0  0  0  0  0  0  0  0  0
  186.9200  178.4140  139.2960 N   0  0  0  0  0  0  0  0  0  0  0  0
  189.5990  177.4280  143.3640 C   0  0  0  0  0  2  0  0  0  0  0  0
  190.7350  177.1840  140.8490 C   0  0  0  0  0  1  0  0  0  0  0  0
  187.0710  178.7180  136.2650 C   0  0  0  0  0  1  0  0  0  0  0  0
  188.2440  177.8420  141.2720 C   0  0  0  0  0  0  0  0  0  0  0  0
  188.0140  178.2220  138.5340 C   0  0  0  0  0  0  0  0  0  0  0  0
  191.7370  177.4720  148.4760 C   0  0  0  0  0  2  0  0  0  0  0  0
  192.8750  176.5390  148.7800 C   0  0  0  0  0  0  0  0  0  0  0  0
  193.8570  176.9120  149.6890 O   0  0  0  0  0  1  0  0  0  0  0  0
  192.9340  175.4140  148.2210 O   0  0  0  0  0  0  0  0  0  0  0  0
  2 24  1  0  0  0  0
  2 12  1  0  0  0  0
  3 11  1  0  0  0  0
  4  3  2  0  0  0  0
  5 25  1  0  0  0  0
  5 27  1  0  0  0  0
  6  5  2  0  0  0  0
  7 24  1  6  0  0  0
  7 19  1  0  0  0  0
  7 17  1  0  0  0  0
  9 28  1  0  0  0  0
 10  1  1  0  0  0  0
 12  8  1  0  0  0  0
 13 12  1  0  0  0  0
 13 11  2  0  0  0  0
 14 27  1  0  0  0  0
 14 22  2  0  0  0  0
 15  9  1  0  0  0  0
 15 18  2  0  0  0  0
 16 20  1  0  0  0  0
 17  8  1  6  0  0  0
 17 10  1  0  0  0  0
 18  6  1  0  0  0  0
 19 16  1  0  0  0  0
 20  1  1  0  0  0  0
 20 29  1  0  0  0  0
 21 22  1  0  0  0  0
 21  4  1  0  0  0  0
 22 13  1  0  0  0  0
 23 14  1  0  0  0  0
 26  9  1  0  0  0  0
 27  2  2  0  0  0  0
 28  6  1  0  0  0  0
 28 23  2  0  0  0  0
 29 30  1  0  0  0  0
 30 31  1  0  0  0  0
 32 30  2  0  0  0  0
M  END
>  <MODEL>
7

>  <REMARK>
 VINA RESULT:      -8.5      3.524      7.537
  Name = 
  2 active torsions:
  status: ('A' for Active; 'I' for Inactive)
    1  A    between atoms: C_1  and  C_10
    2  A    between atoms: C_10  and  N_24
                            x       y       z     vdW  Elec       q    Type
                         _______ _______ _______ _____ _____    ______ ____

>  <TORSDO>
F 2

$$$$
=
 OpenBabel10272413223D

 32 37  0  0  1  0  0  0  0  0999 V2000
  183.2280  178.7780  142.9500 C   0  0  0  0  0  2  0  0  0  0  0  0
  187.8570  177.9050  140.6510 C   0  0  0  0  0  0  0  0  0  0  0  0
  190.6490  177.3130  144.6600 C   0  0  0  0  0  3  0  0  0  0  0  0
  191.6790  176.9770  143.9430 N   0  0  0  0  0  0  0  0  0  0  0  0
  188.8540  177.4070  138.4420 C   0  0  0  0  0  0  0  0  0  0  0  0
  190.0000  177.0020  137.7640 C   0  0  0  0  0  0  0  0  0  0  0  0
  185.7170  179.0860  140.8210 N   0  0  2  0  0  0  0  0  0  0  0  0
  186.9600  178.7130  142.8800 C   0  0  0  0  0  2  0  0  0  0  0  0
  192.0880  176.3780  137.5400 N   0  0  0  0  0  0  0  0  0  0  0  0
  184.5970  179.4430  143.0210 C   0  0  0  0  0  2  0  0  0  0  0  0
  189.3810  177.7030  144.0330 C   0  0  0  0  0  3  0  0  0  0  0  0
  187.9950  178.0400  142.0850 N   0  0  0  0  0  0  0  0  0  0  0  0
  189.2370  177.6860  142.7050 C   0  0  0  0  0  0  0  0  0  0  0  0
  190.1930  177.2110  140.5130 C   0  0  0  0  0  0  0  0  0  0  0  0
  191.4790  176.4480  136.3320 C   0  0  0  0  0  3  0  0  0  0  0  0
  183.3040  178.3660  140.5840 C   0  0  0  0  0  2  0  0  0  0  0  0
  185.5950  178.6220  142.2130 C   0  0  1  0  0  3  0  0  0  0  0  0
  190.1780  176.8350  136.4370 N   0  0  0  0  0  0  0  0  0  0  0  0
  184.4420  179.2690  140.1050 C   0  0  0  0  0  2  0  0  0  0  0  0
  182.5810  179.0370  141.6630 N   0  0  0  0  0  0  0  0  0  0  0  0
  191.7050  176.9760  142.4770 C   0  0  0  0  0  2  0  0  0  0  0  0
  190.3590  177.2760  141.8500 C   0  0  0  0  0  0  0  0  0  0  0  0
  191.2670  176.8260  139.7550 N   0  0  0  0  0  0  0  0  0  0  0  0
  186.4680  178.0730  140.0870 C   0  0  0  0  0  2  0  0  0  0  0  0
  187.6550  177.7340  137.6070 C   0  0  0  0  0  1  0  0  0  0  0  0
  193.4670  176.0080  137.8070 C   0  0  0  0  0  1  0  0  0  0  0  0
  188.9240  177.5190  139.8790 C   0  0  0  0  0  0  0  0  0  0  0  0
  191.1450  176.7300  138.4160 C   0  0  0  0  0  0  0  0  0  0  0  0
  181.1910  178.5650  141.7020 C   0  0  0  0  0  2  0  0  0  0  0  0
  180.3970  179.1020  142.8600 C   0  0  0  0  0  0  0  0  0  0  0  0
  180.1070  180.4580  142.9370 O   0  0  0  0  0  0  0  0  0  0  0  0
  179.9820  178.3220  143.7550 O   0  0  0  0  0  1  0  0  0  0  0  0
  1 10  1  0  0  0  0
  2 12  1  0  0  0  0
  4  3  2  0  0  0  0
  5 27  1  0  0  0  0
  6 28  1  0  0  0  0
  6  5  2  0  0  0  0
  7 24  1  6  0  0  0
  7 17  1  0  0  0  0
  9 26  1  0  0  0  0
  9 28  1  0  0  0  0
 11  3  1  0  0  0  0
 12 13  1  0  0  0  0
 12  8  1  0  0  0  0
 13 11  2  0  0  0  0
 14 22  2  0  0  0  0
 15 18  2  0  0  0  0
 15  9  1  0  0  0  0
 16 20  1  0  0  0  0
 17  8  1  1  0  0  0
 17 10  1  0  0  0  0
 18  6  1  0  0  0  0
 19 16  1  0  0  0  0
 19  7  1  0  0  0  0
 20 29  1  0  0  0  0
 20  1  1  0  0  0  0
 21  4  1  0  0  0  0
 22 21  1  0  0  0  0
 22 13  1  0  0  0  0
 23 14  1  0  0  0  0
 24  2  1  0  0  0  0
 25  5  1  0  0  0  0
 27 14  1  0  0  0  0
 27  2  2  0  0  0  0
 28 23  2  0  0  0  0
 29 30  1  0  0  0  0
 30 31  2  0  0  0  0
 30 32  1  0  0  0  0
M  END
>  <MODEL>
8

>  <REMARK>
 VINA RESULT:      -8.1      4.455      8.581
  Name = 
  2 active torsions:
  status: ('A' for Active; 'I' for Inactive)
    1  A    between atoms: C_1  and  C_10
    2  A    between atoms: C_10  and  N_24
                            x       y       z     vdW  Elec       q    Type
                         _______ _______ _______ _____ _____    ______ ____

>  <TORSDO>
F 2

$$$$
=
 OpenBabel10272413223D

 32 37  0  0  1  0  0  0  0  0999 V2000
  189.3410  177.5940  146.1010 C   0  0  0  0  0  2  0  0  0  0  0  0
  188.7760  177.3270  140.8960 C   0  0  0  0  0  0  0  0  0  0  0  0
  184.4050  179.5400  140.4440 C   0  0  0  0  0  3  0  0  0  0  0  0
  184.4830  179.5210  139.1490 N   0  0  0  0  0  0  0  0  0  0  0  0
  190.0510  176.8140  138.8380 C   0  0  0  0  0  0  0  0  0  0  0  0
  190.0580  176.8710  137.4480 C   0  0  0  0  0  0  0  0  0  0  0  0
  189.4380  176.3650  143.0500 N   0  0  2  0  0  0  0  0  0  0  0  0
  187.3240  177.5670  142.9600 C   0  0  0  0  0  2  0  0  0  0  0  0
  189.2730  177.3070  135.4490 N   0  0  0  0  0  0  0  0  0  0  0  0
  188.2890  177.0030  145.1700 C   0  0  0  0  0  2  0  0  0  0  0  0
  185.4510  178.9370  141.2780 C   0  0  0  0  0  3  0  0  0  0  0  0
  187.5740  177.8180  141.5340 N   0  0  0  0  0  0  0  0  0  0  0  0
  186.5360  178.3850  140.7280 C   0  0  0  0  0  0  0  0  0  0  0  0
  187.8120  177.8600  138.7180 C   0  0  0  0  0  0  0  0  0  0  0  0
  190.4970  176.7350  135.3660 C   0  0  0  0  0  3  0  0  0  0  0  0
  191.2190  176.9500  144.7480 C   0  0  0  0  0  2  0  0  0  0  0  0
  188.6220  177.3840  143.7320 C   0  0  1  0  0  3  0  0  0  0  0  0
  191.0140  176.4500  136.5930 N   0  0  0  0  0  0  0  0  0  0  0  0
  190.6270  175.9120  143.7930 C   0  0  0  0  0  2  0  0  0  0  0  0
  190.5810  176.8180  146.0560 N   0  0  0  0  0  0  0  0  0  0  0  0
  185.5700  178.8920  138.3920 C   0  0  0  0  0  2  0  0  0  0  0  0
  186.6920  178.3720  139.2670 C   0  0  0  0  0  0  0  0  0  0  0  0
  187.9130  177.8660  137.3520 N   0  0  0  0  0  0  0  0  0  0  0  0
  189.9210  176.9540  141.8060 C   0  0  0  0  0  2  0  0  0  0  0  0
  191.2370  176.1780  139.4940 C   0  0  0  0  0  1  0  0  0  0  0  0
  188.4280  177.7350  134.3490 C   0  0  0  0  0  1  0  0  0  0  0  0
  188.8920  177.3280  139.5290 C   0  0  0  0  0  0  0  0  0  0  0  0
  189.0210  177.3800  136.7580 C   0  0  0  0  0  0  0  0  0  0  0  0
  191.4960  177.2810  147.1080 C   0  0  0  0  0  2  0  0  0  0  0  0
  192.3590  176.1960  147.6860 C   0  0  0  0  0  0  0  0  0  0  0  0
  192.4120  174.9490  147.0770 O   0  0  0  0  0  0  0  0  0  0  0  0
  193.0470  176.4190  148.7160 O   0  0  0  0  0  1  0  0  0  0  0  0
  2 12  1  0  0  0  0
  2 24  1  0  0  0  0
  3 11  1  0  0  0  0
  4  3  2  0  0  0  0
  5 25  1  0  0  0  0
  5 27  1  0  0  0  0
  6  5  2  0  0  0  0
  7 24  1  6  0  0  0
  7 17  1  0  0  0  0
  7 19  1  0  0  0  0
  9 28  1  0  0  0  0
 10  1  1  0  0  0  0
 12  8  1  0  0  0  0
 13 11  2  0  0  0  0
 13 12  1  0  0  0  0
 14 22  2  0  0  0  0
 14 27  1  0  0  0  0
 15  9  1  0  0  0  0
 15 18  2  0  0  0  0
 16 20  1  0  0  0  0
 17  8  1  6  0  0  0
 17 10  1  0  0  0  0
 18  6  1  0  0  0  0
 19 16  1  0  0  0  0
 20  1  1  0  0  0  0
 20 29  1  0  0  0  0
 21  4  1  0  0  0  0
 21 22  1  0  0  0  0
 22 13  1  0  0  0  0
 23 14  1  0  0  0  0
 26  9  1  0  0  0  0
 27  2  2  0  0  0  0
 28 23  2  0  0  0  0
 28  6  1  0  0  0  0
 29 30  1  0  0  0  0
 30 32  1  0  0  0  0
 31 30  2  0  0  0  0
M  END
>  <MODEL>
9

>  <REMARK>
 VINA RESULT:      -7.6      3.409      7.644
  Name = 
  2 active torsions:
  status: ('A' for Active; 'I' for Inactive)
    1  A    between atoms: C_1  and  C_10
    2  A    between atoms: C_10  and  N_24
                            x       y       z     vdW  Elec       q    Type
                         _______ _______ _______ _____ _____    ______ ____

>  <TORSDO>
F 2

$$$$
