=
 OpenBabel10272401013D

 27 31  0  0  0  0  0  0  0  0999 V2000
  185.9970  178.5570  140.3470 C   0  0  0  0  0  0  0  0  0  0  0  0
  187.8420  177.8460  141.3320 C   0  0  0  0  0  0  0  0  0  0  0  0
  185.7410  178.5270  141.6850 N   0  0  0  0  0  0  0  0  0  0  0  0
  188.7800  177.2610  145.3350 C   0  0  0  0  0  3  0  0  0  0  0  0
  188.1850  177.2840  147.7590 C   0  0  0  0  0  1  0  0  0  0  0  0
  189.1120  177.4070  141.6970 C   0  0  0  0  0  3  0  0  0  0  0  0
  186.2100  178.1560  144.6530 C   0  0  0  0  0  3  0  0  0  0  0  0
  182.2710  179.2700  141.6930 O   0  0  0  0  0  0  0  0  0  0  0  0
  186.5510  177.9480  145.9920 C   0  0  0  0  0  3  0  0  0  0  0  0
  183.2770  177.3010  141.0550 O   0  0  0  0  0  0  0  0  0  0  0  0
  186.8800  178.1030  142.2770 C   0  0  0  0  0  0  0  0  0  0  0  0
  187.3060  178.1290  140.0850 C   0  0  0  0  0  0  0  0  0  0  0  0
  187.8310  177.5030  146.3330 C   0  0  0  0  0  0  0  0  0  0  0  0
  188.4530  177.4640  143.9920 C   0  0  0  0  0  0  0  0  0  0  0  0
  184.9690  178.8830  139.3010 C   0  0  0  0  0  2  0  0  0  0  0  0
  187.1520  177.9190  143.6440 C   0  0  0  0  0  0  0  0  0  0  0  0
  183.2890  178.5290  141.7100 C   0  0  0  0  0  0  0  0  0  0  0  0
  189.3840  177.2250  143.0210 N   0  0  0  0  0  0  0  0  0  0  0  0
  182.8540  177.2240  139.7040 C   0  0  0  0  0  2  0  0  0  0  0  0
  184.2930  177.3430  138.5850 S   0  0  0  0  0  0  0  0  0  0  0  0
  184.5350  179.0040  142.3750 C   0  0  0  0  0  2  0  0  0  0  0  0
  189.2840  177.7690  136.2870 C   0  0  0  0  0  3  0  0  0  0  0  0
  187.9860  178.0080  138.7700 C   0  0  0  0  0  0  0  0  0  0  0  0
  187.9980  176.7840  138.0840 C   0  0  0  0  0  3  0  0  0  0  0  0
  188.6420  176.6630  136.8500 C   0  0  0  0  0  3  0  0  0  0  0  0
  189.2820  178.9930  136.9600 C   0  0  0  0  0  3  0  0  0  0  0  0
  188.6370  179.1100  138.1940 C   0  0  0  0  0  3  0  0  0  0  0  0
  1  3  1  0  0  0  0
  2  6  2  0  0  0  0
  2 11  1  0  0  0  0
  3 11  1  0  0  0  0
  3 21  1  0  0  0  0
  4 13  2  0  0  0  0
  6 18  1  0  0  0  0
  7  9  2  0  0  0  0
  8 17  2  0  0  0  0
  9 13  1  0  0  0  0
 10 17  1  0  0  0  0
 11 16  2  0  0  0  0
 12  1  2  0  0  0  0
 12  2  1  0  0  0  0
 13  5  1  0  0  0  0
 14  4  1  0  0  0  0
 15  1  1  0  0  0  0
 16 14  1  0  0  0  0
 16  7  1  0  0  0  0
 17 21  1  0  0  0  0
 18 14  2  0  0  0  0
 19 10  1  0  0  0  0
 20 15  1  0  0  0  0
 20 19  1  0  0  0  0
 22 25  2  0  0  0  0
 22 26  1  0  0  0  0
 23 12  1  0  0  0  0
 24 23  2  0  0  0  0
 25 24  1  0  0  0  0
 26 27  2  0  0  0  0
 27 23  1  0  0  0  0
M  END
>  <MODEL>
1

>  <REMARK>
 VINA RESULT:      -8.3      0.000      0.000
  Name = 
  1 active torsions:
  status: ('A' for Active; 'I' for Inactive)
    1  A    between atoms: C_9  and  C_15
                            x       y       z     vdW  Elec       q    Type
                         _______ _______ _______ _____ _____    ______ ____

>  <TORSDO>
F 1

$$$$
=
 OpenBabel10272401013D

 27 31  0  0  0  0  0  0  0  0999 V2000
  189.0930  178.1040  143.2170 C   0  0  0  0  0  0  0  0  0  0  0  0
  187.5130  177.8150  144.7340 C   0  0  0  0  0  0  0  0  0  0  0  0
  187.9110  178.4260  142.6190 N   0  0  0  0  0  0  0  0  0  0  0  0
  183.4060  178.4130  144.5860 C   0  0  0  0  0  3  0  0  0  0  0  0
  181.3210  179.0620  143.3760 C   0  0  0  0  0  1  0  0  0  0  0  0
  186.7290  177.5770  145.8610 C   0  0  0  0  0  3  0  0  0  0  0  0
  184.9410  178.9150  142.2920 C   0  0  0  0  0  3  0  0  0  0  0  0
  188.9940  178.9110  139.2750 O   0  0  0  0  0  0  0  0  0  0  0  0
  183.5570  179.1050  142.2680 C   0  0  0  0  0  3  0  0  0  0  0  0
  188.7720  176.9130  140.3960 O   0  0  0  0  0  0  0  0  0  0  0  0
  186.9550  178.2570  143.5600 C   0  0  0  0  0  0  0  0  0  0  0  0
  188.8820  177.7080  144.5450 C   0  0  0  0  0  0  0  0  0  0  0  0
  182.7920  178.8570  143.4100 C   0  0  0  0  0  0  0  0  0  0  0  0
  184.7890  178.2190  144.6230 C   0  0  0  0  0  0  0  0  0  0  0  0
  190.4130  178.0620  142.5020 C   0  0  0  0  0  2  0  0  0  0  0  0
  185.5700  178.4730  143.4630 C   0  0  0  0  0  0  0  0  0  0  0  0
  188.5100  178.2720  140.2470 C   0  0  0  0  0  0  0  0  0  0  0  0
  185.3840  177.7840  145.7750 N   0  0  0  0  0  0  0  0  0  0  0  0
  190.1080  176.4400  140.3420 C   0  0  0  0  0  2  0  0  0  0  0  0
  190.8120  176.3430  142.0250 S   0  0  0  0  0  0  0  0  0  0  0  0
  187.7130  178.9930  141.2790 C   0  0  0  0  0  2  0  0  0  0  0  0
  191.8090  176.4770  147.4410 C   0  0  0  0  0  3  0  0  0  0  0  0
  189.8920  177.2770  145.5450 C   0  0  0  0  0  0  0  0  0  0  0  0
  189.7330  177.5970  146.9020 C   0  0  0  0  0  3  0  0  0  0  0  0
  190.6850  177.2000  147.8460 C   0  0  0  0  0  3  0  0  0  0  0  0
  191.9820  176.1540  146.0930 C   0  0  0  0  0  3  0  0  0  0  0  0
  191.0290  176.5530  145.1520 C   0  0  0  0  0  3  0  0  0  0  0  0
  1 12  2  0  0  0  0
  2  6  1  0  0  0  0
  3  1  1  0  0  0  0
  3 11  1  0  0  0  0
  4 14  1  0  0  0  0
  5 13  1  0  0  0  0
  7 16  1  0  0  0  0
  8 17  2  0  0  0  0
  9  7  2  0  0  0  0
  9 13  1  0  0  0  0
 11  2  2  0  0  0  0
 12  2  1  0  0  0  0
 12 23  1  0  0  0  0
 13  4  2  0  0  0  0
 14 18  1  0  0  0  0
 15  1  1  0  0  0  0
 16 11  1  0  0  0  0
 16 14  2  0  0  0  0
 17 10  1  0  0  0  0
 17 21  1  0  0  0  0
 18  6  2  0  0  0  0
 19 10  1  0  0  0  0
 19 20  1  0  0  0  0
 20 15  1  0  0  0  0
 21  3  1  0  0  0  0
 22 25  1  0  0  0  0
 23 24  1  0  0  0  0
 24 25  2  0  0  0  0
 26 22  2  0  0  0  0
 27 23  2  0  0  0  0
 27 26  1  0  0  0  0
M  END
>  <MODEL>
2

>  <REMARK>
 VINA RESULT:      -8.3      2.994      6.420
  Name = 
  1 active torsions:
  status: ('A' for Active; 'I' for Inactive)
    1  A    between atoms: C_9  and  C_15
                            x       y       z     vdW  Elec       q    Type
                         _______ _______ _______ _____ _____    ______ ____

>  <TORSDO>
F 1

$$$$
=
 OpenBabel10272401013D

 27 31  0  0  0  0  0  0  0  0999 V2000
  189.3580  176.8900  141.0740 C   0  0  0  0  0  0  0  0  0  0  0  0
  187.4700  178.0140  141.3040 C   0  0  0  0  0  0  0  0  0  0  0  0
  189.0530  176.8790  142.4030 N   0  0  0  0  0  0  0  0  0  0  0  0
  185.1470  178.8510  144.6430 C   0  0  0  0  0  3  0  0  0  0  0  0
  184.6960  178.7250  147.0960 C   0  0  0  0  0  1  0  0  0  0  0  0
  186.2850  178.7340  141.1710 C   0  0  0  0  0  3  0  0  0  0  0  0
  187.5200  177.3870  144.9630 C   0  0  0  0  0  3  0  0  0  0  0  0
  191.9820  175.3700  143.7210 O   0  0  0  0  0  0  0  0  0  0  0  0
  186.7220  177.6860  146.0710 C   0  0  0  0  0  3  0  0  0  0  0  0
  191.7610  177.5070  142.8970 O   0  0  0  0  0  0  0  0  0  0  0  0
  187.8910  177.5580  142.5280 C   0  0  0  0  0  0  0  0  0  0  0  0
  188.3890  177.6000  140.3520 C   0  0  0  0  0  0  0  0  0  0  0  0
  185.5390  178.4130  145.9130 C   0  0  0  0  0  0  0  0  0  0  0  0
  185.9360  178.5600  143.5280 C   0  0  0  0  0  0  0  0  0  0  0  0
  190.6240  176.3260  140.4970 C   0  0  0  0  0  2  0  0  0  0  0  0
  187.1380  177.8180  143.6860 C   0  0  0  0  0  0  0  0  0  0  0  0
  191.2260  176.3230  143.3930 C   0  0  0  0  0  0  0  0  0  0  0  0
  185.5480  178.9910  142.2900 N   0  0  0  0  0  0  0  0  0  0  0  0
  192.6980  177.4690  141.8330 C   0  0  0  0  0  2  0  0  0  0  0  0
  191.8420  177.6630  140.2310 S   0  0  0  0  0  0  0  0  0  0  0  0
  189.7480  176.1510  143.4720 C   0  0  0  0  0  2  0  0  0  0  0  0
  188.2510  178.3180  136.1170 C   0  0  0  0  0  3  0  0  0  0  0  0
  188.3380  177.8540  138.8890 C   0  0  0  0  0  0  0  0  0  0  0  0
  187.6130  177.0000  138.0430 C   0  0  0  0  0  3  0  0  0  0  0  0
  187.5680  177.2300  136.6650 C   0  0  0  0  0  3  0  0  0  0  0  0
  188.9780  179.1750  136.9470 C   0  0  0  0  0  3  0  0  0  0  0  0
  189.0220  178.9420  138.3240 C   0  0  0  0  0  3  0  0  0  0  0  0
  1  3  1  0  0  0  0
  2 11  1  0  0  0  0
  3 11  1  0  0  0  0
  3 21  1  0  0  0  0
  4 13  2  0  0  0  0
  6  2  2  0  0  0  0
  6 18  1  0  0  0  0
  7  9  2  0  0  0  0
 10 17  1  0  0  0  0
 11 16  2  0  0  0  0
 12  1  2  0  0  0  0
 12  2  1  0  0  0  0
 13  9  1  0  0  0  0
 13  5  1  0  0  0  0
 14 16  1  0  0  0  0
 14  4  1  0  0  0  0
 15  1  1  0  0  0  0
 16  7  1  0  0  0  0
 17 21  1  0  0  0  0
 17  8  2  0  0  0  0
 18 14  2  0  0  0  0
 19 10  1  0  0  0  0
 20 15  1  0  0  0  0
 20 19  1  0  0  0  0
 22 25  2  0  0  0  0
 22 26  1  0  0  0  0
 23 12  1  0  0  0  0
 24 23  2  0  0  0  0
 25 24  1  0  0  0  0
 26 27  2  0  0  0  0
 27 23  1  0  0  0  0
M  END
>  <MODEL>
3

>  <REMARK>
 VINA RESULT:      -8.0      3.249      4.748
  Name = 
  1 active torsions:
  status: ('A' for Active; 'I' for Inactive)
    1  A    between atoms: C_9  and  C_15
                            x       y       z     vdW  Elec       q    Type
                         _______ _______ _______ _____ _____    ______ ____

>  <TORSDO>
F 1

$$$$
=
 OpenBabel10272401013D

 27 31  0  0  0  0  0  0  0  0999 V2000
  188.1130  178.1810  139.7930 C   0  0  0  0  0  0  0  0  0  0  0  0
  188.8520  177.4480  141.7410 C   0  0  0  0  0  0  0  0  0  0  0  0
  187.1290  178.4280  140.7040 N   0  0  0  0  0  0  0  0  0  0  0  0
  187.1540  177.5000  145.5310 C   0  0  0  0  0  3  0  0  0  0  0  0
  185.2850  178.0390  147.0960 C   0  0  0  0  0  1  0  0  0  0  0  0
  189.5530  176.9350  142.8300 C   0  0  0  0  0  3  0  0  0  0  0  0
  185.7050  178.5540  143.3720 C   0  0  0  0  0  3  0  0  0  0  0  0
  184.5400  179.5680  138.5620 O   0  0  0  0  0  0  0  0  0  0  0  0
  185.1550  178.5560  144.6570 C   0  0  0  0  0  3  0  0  0  0  0  0
  185.2990  177.4090  138.8110 O   0  0  0  0  0  0  0  0  0  0  0  0
  187.5990  177.9870  141.8930 C   0  0  0  0  0  0  0  0  0  0  0  0
  189.2090  177.5590  140.4070 C   0  0  0  0  0  0  0  0  0  0  0  0
  185.8760  178.0320  145.7330 C   0  0  0  0  0  0  0  0  0  0  0  0
  187.7150  177.4910  144.2510 C   0  0  0  0  0  0  0  0  0  0  0  0
  187.9750  178.4300  138.3180 C   0  0  0  0  0  2  0  0  0  0  0  0
  186.9840  178.0260  143.1560 C   0  0  0  0  0  0  0  0  0  0  0  0
  185.1820  178.7260  139.2450 C   0  0  0  0  0  0  0  0  0  0  0  0
  188.9630  176.9680  144.0600 N   0  0  0  0  0  0  0  0  0  0  0  0
  185.7320  177.1360  137.4900 C   0  0  0  0  0  2  0  0  0  0  0  0
  187.5400  176.8760  137.4590 S   0  0  0  0  0  0  0  0  0  0  0  0
  185.8770  179.1630  140.4890 C   0  0  0  0  0  2  0  0  0  0  0  0
  192.8960  176.3030  138.5910 C   0  0  0  0  0  3  0  0  0  0  0  0
  190.4820  177.1190  139.7810 C   0  0  0  0  0  0  0  0  0  0  0  0
  191.7070  177.6630  140.2000 C   0  0  0  0  0  3  0  0  0  0  0  0
  192.9080  177.2580  139.6100 C   0  0  0  0  0  3  0  0  0  0  0  0
  191.6850  175.7560  138.1620 C   0  0  0  0  0  3  0  0  0  0  0  0
  190.4860  176.1630  138.7530 C   0  0  0  0  0  3  0  0  0  0  0  0
  1 12  2  0  0  0  0
  1  3  1  0  0  0  0
  2 11  2  0  0  0  0
  2  6  1  0  0  0  0
  3 11  1  0  0  0  0
  4 13  1  0  0  0  0
  6 18  2  0  0  0  0
  7  9  1  0  0  0  0
  8 17  2  0  0  0  0
  9 13  2  0  0  0  0
 10 17  1  0  0  0  0
 11 16  1  0  0  0  0
 12  2  1  0  0  0  0
 13  5  1  0  0  0  0
 14  4  2  0  0  0  0
 15  1  1  0  0  0  0
 16  7  2  0  0  0  0
 16 14  1  0  0  0  0
 17 21  1  0  0  0  0
 18 14  1  0  0  0  0
 19 10  1  0  0  0  0
 20 19  1  0  0  0  0
 20 15  1  0  0  0  0
 21  3  1  0  0  0  0
 22 25  1  0  0  0  0
 23 24  1  0  0  0  0
 23 12  1  0  0  0  0
 25 24  2  0  0  0  0
 26 22  2  0  0  0  0
 26 27  1  0  0  0  0
 27 23  2  0  0  0  0
M  END
>  <MODEL>
4

>  <REMARK>
 VINA RESULT:      -7.9      2.199      2.849
  Name = 
  1 active torsions:
  status: ('A' for Active; 'I' for Inactive)
    1  A    between atoms: C_9  and  C_15
                            x       y       z     vdW  Elec       q    Type
                         _______ _______ _______ _____ _____    ______ ____

>  <TORSDO>
F 1

$$$$
=
 OpenBabel10272401013D

 27 31  0  0  0  0  0  0  0  0999 V2000
  186.5630  178.6370  140.6450 C   0  0  0  0  0  0  0  0  0  0  0  0
  188.4770  177.7070  141.2370 C   0  0  0  0  0  0  0  0  0  0  0  0
  186.5540  178.5510  142.0050 N   0  0  0  0  0  0  0  0  0  0  0  0
  190.0690  176.8050  144.9650 C   0  0  0  0  0  3  0  0  0  0  0  0
  189.9310  176.7390  147.4570 C   0  0  0  0  0  1  0  0  0  0  0  0
  189.7440  177.1340  141.3380 C   0  0  0  0  0  3  0  0  0  0  0  0
  187.5190  177.9650  144.8140 C   0  0  0  0  0  3  0  0  0  0  0  0
  183.2350  179.6010  142.6930 O   0  0  0  0  0  0  0  0  0  0  0  0
  188.0760  177.6490  146.0570 C   0  0  0  0  0  3  0  0  0  0  0  0
  183.9080  177.5900  141.7980 O   0  0  0  0  0  0  0  0  0  0  0  0
  187.7340  177.9930  142.3550 C   0  0  0  0  0  0  0  0  0  0  0  0
  187.7530  178.1090  140.1250 C   0  0  0  0  0  0  0  0  0  0  0  0
  189.3460  177.0720  146.1330 C   0  0  0  0  0  0  0  0  0  0  0  0
  189.5230  177.1160  143.7170 C   0  0  0  0  0  0  0  0  0  0  0  0
  185.3990  179.1150  139.8250 C   0  0  0  0  0  2  0  0  0  0  0  0
  188.2320  177.7050  143.6380 C   0  0  0  0  0  0  0  0  0  0  0  0
  184.1610  178.7710  142.4890 C   0  0  0  0  0  0  0  0  0  0  0  0
  190.2330  176.8510  142.5790 N   0  0  0  0  0  0  0  0  0  0  0  0
  183.2400  177.6300  140.5480 C   0  0  0  0  0  2  0  0  0  0  0  0
  184.4550  177.6860  139.1850 S   0  0  0  0  0  0  0  0  0  0  0  0
  185.5480  179.0930  142.9270 C   0  0  0  0  0  2  0  0  0  0  0  0
  188.9380  177.8240  136.0040 C   0  0  0  0  0  3  0  0  0  0  0  0
  188.1660  178.0060  138.7020 C   0  0  0  0  0  0  0  0  0  0  0  0
  188.8400  179.0670  138.0780 C   0  0  0  0  0  3  0  0  0  0  0  0
  189.2250  178.9780  136.7370 C   0  0  0  0  0  3  0  0  0  0  0  0
  188.2650  176.7620  136.6120 C   0  0  0  0  0  3  0  0  0  0  0  0
  187.8810  176.8540  137.9520 C   0  0  0  0  0  3  0  0  0  0  0  0
  1  3  1  0  0  0  0
  2  6  2  0  0  0  0
  2 11  1  0  0  0  0
  3 11  1  0  0  0  0
  3 21  1  0  0  0  0
  4 13  2  0  0  0  0
  6 18  1  0  0  0  0
  7  9  2  0  0  0  0
  9 13  1  0  0  0  0
 10 17  1  0  0  0  0
 11 16  2  0  0  0  0
 12  1  2  0  0  0  0
 12  2  1  0  0  0  0
 13  5  1  0  0  0  0
 14  4  1  0  0  0  0
 15  1  1  0  0  0  0
 16 14  1  0  0  0  0
 16  7  1  0  0  0  0
 17  8  2  0  0  0  0
 17 21  1  0  0  0  0
 18 14  2  0  0  0  0
 19 10  1  0  0  0  0
 20 15  1  0  0  0  0
 20 19  1  0  0  0  0
 22 26  2  0  0  0  0
 22 25  1  0  0  0  0
 23 12  1  0  0  0  0
 24 23  1  0  0  0  0
 25 24  2  0  0  0  0
 26 27  1  0  0  0  0
 27 23  2  0  0  0  0
M  END
>  <MODEL>
5

>  <REMARK>
 VINA RESULT:      -7.9      0.888      1.368
  Name = 
  1 active torsions:
  status: ('A' for Active; 'I' for Inactive)
    1  A    between atoms: C_9  and  C_15
                            x       y       z     vdW  Elec       q    Type
                         _______ _______ _______ _____ _____    ______ ____

>  <TORSDO>
F 1

$$$$
=
 OpenBabel10272401013D

 27 31  0  0  0  0  0  0  0  0999 V2000
  187.7320  177.1900  142.9640 C   0  0  0  0  0  0  0  0  0  0  0  0
  187.8280  177.4740  145.1530 C   0  0  0  0  0  0  0  0  0  0  0  0
  188.9670  176.7710  143.3610 N   0  0  0  0  0  0  0  0  0  0  0  0
  190.8170  176.6400  147.9130 C   0  0  0  0  0  3  0  0  0  0  0  0
  193.0960  175.8110  148.5020 C   0  0  0  0  0  1  0  0  0  0  0  0
  187.6220  177.7290  146.5070 C   0  0  0  0  0  3  0  0  0  0  0  0
  191.2770  176.0990  145.1990 C   0  0  0  0  0  3  0  0  0  0  0  0
  190.4820  176.1630  140.2100 O   0  0  0  0  0  0  0  0  0  0  0  0
  192.2670  175.8310  146.1480 C   0  0  0  0  0  3  0  0  0  0  0  0
  190.0160  178.2040  141.1670 O   0  0  0  0  0  0  0  0  0  0  0  0
  189.0080  176.9380  144.7020 C   0  0  0  0  0  0  0  0  0  0  0  0
  186.9900  177.6460  144.0620 C   0  0  0  0  0  0  0  0  0  0  0  0
  192.0390  176.0990  147.5000 C   0  0  0  0  0  0  0  0  0  0  0  0
  189.8180  176.9130  146.9750 C   0  0  0  0  0  0  0  0  0  0  0  0
  187.2900  177.2670  141.5310 C   0  0  0  0  0  2  0  0  0  0  0  0
  190.0480  176.6390  145.5990 C   0  0  0  0  0  0  0  0  0  0  0  0
  190.2010  176.8270  141.2430 C   0  0  0  0  0  0  0  0  0  0  0  0
  188.6270  177.4430  147.3840 N   0  0  0  0  0  0  0  0  0  0  0  0
  189.1380  178.7470  140.1960 C   0  0  0  0  0  2  0  0  0  0  0  0
  187.4720  178.9760  140.9090 S   0  0  0  0  0  0  0  0  0  0  0  0
  189.9960  176.1210  142.5390 C   0  0  0  0  0  2  0  0  0  0  0  0
  182.9830  179.2000  144.1040 C   0  0  0  0  0  3  0  0  0  0  0  0
  185.6070  178.1880  144.0730 C   0  0  0  0  0  0  0  0  0  0  0  0
  185.0360  178.6590  145.2660 C   0  0  0  0  0  3  0  0  0  0  0  0
  183.7320  179.1630  145.2830 C   0  0  0  0  0  3  0  0  0  0  0  0
  183.5370  178.7310  142.9110 C   0  0  0  0  0  3  0  0  0  0  0  0
  184.8410  178.2280  142.8970 C   0  0  0  0  0  3  0  0  0  0  0  0
  1  3  1  0  0  0  0
  1 12  2  0  0  0  0
  2  6  1  0  0  0  0
  3 11  1  0  0  0  0
  6 18  2  0  0  0  0
  7 16  2  0  0  0  0
  7  9  1  0  0  0  0
  8 17  2  0  0  0  0
  9 13  2  0  0  0  0
 10 17  1  0  0  0  0
 11  2  2  0  0  0  0
 11 16  1  0  0  0  0
 12 23  1  0  0  0  0
 12  2  1  0  0  0  0
 13  4  1  0  0  0  0
 13  5  1  0  0  0  0
 14 18  1  0  0  0  0
 14  4  2  0  0  0  0
 15  1  1  0  0  0  0
 16 14  1  0  0  0  0
 17 21  1  0  0  0  0
 19 20  1  0  0  0  0
 19 10  1  0  0  0  0
 20 15  1  0  0  0  0
 21  3  1  0  0  0  0
 22 25  1  0  0  0  0
 23 24  1  0  0  0  0
 24 25  2  0  0  0  0
 26 22  2  0  0  0  0
 27 26  1  0  0  0  0
 27 23  2  0  0  0  0
M  END
>  <MODEL>
6

>  <REMARK>
 VINA RESULT:      -7.9      3.039      5.971
  Name = 
  1 active torsions:
  status: ('A' for Active; 'I' for Inactive)
    1  A    between atoms: C_9  and  C_15
                            x       y       z     vdW  Elec       q    Type
                         _______ _______ _______ _____ _____    ______ ____

>  <TORSDO>
F 1

$$$$
=
 OpenBabel10272401013D

 27 31  0  0  0  0  0  0  0  0999 V2000
  188.2580  178.2190  140.6050 C   0  0  0  0  0  0  0  0  0  0  0  0
  187.0720  178.0830  142.4630 C   0  0  0  0  0  0  0  0  0  0  0  0
  186.9560  178.4200  140.2550 N   0  0  0  0  0  0  0  0  0  0  0  0
  183.0040  178.5260  143.1770 C   0  0  0  0  0  3  0  0  0  0  0  0
  180.6680  178.9410  142.4010 C   0  0  0  0  0  1  0  0  0  0  0  0
  186.5710  177.9730  143.7590 C   0  0  0  0  0  3  0  0  0  0  0  0
  183.9630  178.7670  140.5510 C   0  0  0  0  0  3  0  0  0  0  0  0
  187.2440  178.4900  136.7190 O   0  0  0  0  0  0  0  0  0  0  0  0
  182.5980  178.9080  140.8180 C   0  0  0  0  0  3  0  0  0  0  0  0
  187.3970  176.6530  138.0970 O   0  0  0  0  0  0  0  0  0  0  0  0
  186.2430  178.3470  141.4010 C   0  0  0  0  0  0  0  0  0  0  0  0
  188.3690  177.9960  141.9840 C   0  0  0  0  0  0  0  0  0  0  0  0
  182.1200  178.7890  142.1260 C   0  0  0  0  0  0  0  0  0  0  0  0
  184.3710  178.3820  142.9240 C   0  0  0  0  0  0  0  0  0  0  0  0
  189.3880  178.1240  139.6200 C   0  0  0  0  0  2  0  0  0  0  0  0
  184.8600  178.5050  141.5950 C   0  0  0  0  0  0  0  0  0  0  0  0
  187.0260  177.9710  137.8460 C   0  0  0  0  0  0  0  0  0  0  0  0
  185.2300  178.1240  143.9550 N   0  0  0  0  0  0  0  0  0  0  0  0
  188.7130  176.2200  137.8010 C   0  0  0  0  0  2  0  0  0  0  0  0
  189.7760  176.3700  139.2790 S   0  0  0  0  0  0  0  0  0  0  0  0
  186.4340  178.7970  138.9360 C   0  0  0  0  0  2  0  0  0  0  0  0
  191.9190  177.2290  144.2820 C   0  0  0  0  0  3  0  0  0  0  0  0
  189.6000  177.7340  142.7740 C   0  0  0  0  0  0  0  0  0  0  0  0
  190.0520  176.4200  142.9720 C   0  0  0  0  0  3  0  0  0  0  0  0
  191.2060  176.1680  143.7210 C   0  0  0  0  0  3  0  0  0  0  0  0
  191.4790  178.5410  144.0960 C   0  0  0  0  0  3  0  0  0  0  0  0
  190.3250  178.7900  143.3470 C   0  0  0  0  0  3  0  0  0  0  0  0
  1 12  2  0  0  0  0
  2  6  1  0  0  0  0
  3  1  1  0  0  0  0
  3 11  1  0  0  0  0
  6 18  2  0  0  0  0
  7  9  2  0  0  0  0
  7 16  1  0  0  0  0
  8 17  2  0  0  0  0
  9 13  1  0  0  0  0
 11 16  1  0  0  0  0
 11  2  2  0  0  0  0
 12  2  1  0  0  0  0
 12 23  1  0  0  0  0
 13  5  1  0  0  0  0
 13  4  2  0  0  0  0
 14  4  1  0  0  0  0
 14 18  1  0  0  0  0
 15  1  1  0  0  0  0
 16 14  2  0  0  0  0
 17 10  1  0  0  0  0
 17 21  1  0  0  0  0
 19 10  1  0  0  0  0
 19 20  1  0  0  0  0
 20 15  1  0  0  0  0
 21  3  1  0  0  0  0
 23 24  2  0  0  0  0
 23 27  1  0  0  0  0
 24 25  1  0  0  0  0
 25 22  2  0  0  0  0
 26 22  1  0  0  0  0
 27 26  2  0  0  0  0
M  END
>  <MODEL>
7

>  <REMARK>
 VINA RESULT:      -7.8      2.710      5.407
  Name = 
  1 active torsions:
  status: ('A' for Active; 'I' for Inactive)
    1  A    between atoms: C_9  and  C_15
                            x       y       z     vdW  Elec       q    Type
                         _______ _______ _______ _____ _____    ______ ____

>  <TORSDO>
F 1

$$$$
=
 OpenBabel10272401013D

 27 31  0  0  0  0  0  0  0  0999 V2000
  189.1590  177.1030  142.3590 C   0  0  0  0  0  0  0  0  0  0  0  0
  187.4140  177.9390  141.2930 C   0  0  0  0  0  0  0  0  0  0  0  0
  188.2070  177.3550  143.3010 N   0  0  0  0  0  0  0  0  0  0  0  0
  183.6810  179.1570  142.6460 C   0  0  0  0  0  3  0  0  0  0  0  0
  182.0200  179.5380  144.4700 C   0  0  0  0  0  1  0  0  0  0  0  0
  186.4620  178.4130  140.3920 C   0  0  0  0  0  3  0  0  0  0  0  0
  185.5580  178.2000  144.4990 C   0  0  0  0  0  3  0  0  0  0  0  0
  190.0390  176.6740  146.2630 O   0  0  0  0  0  0  0  0  0  0  0  0
  184.2960  178.6190  144.9280 C   0  0  0  0  0  3  0  0  0  0  0  0
  190.2530  178.4980  144.8760 O   0  0  0  0  0  0  0  0  0  0  0  0
  187.1410  177.8540  142.6360 C   0  0  0  0  0  0  0  0  0  0  0  0
  188.6990  177.4640  141.0840 C   0  0  0  0  0  0  0  0  0  0  0  0
  183.3600  179.0950  144.0060 C   0  0  0  0  0  0  0  0  0  0  0  0
  184.9390  178.7410  142.2030 C   0  0  0  0  0  0  0  0  0  0  0  0
  190.5480  176.6260  142.6730 C   0  0  0  0  0  2  0  0  0  0  0  0
  185.8920  178.2550  143.1390 C   0  0  0  0  0  0  0  0  0  0  0  0
  189.5530  177.3940  145.3500 C   0  0  0  0  0  0  0  0  0  0  0  0
  185.2480  178.8050  140.8730 N   0  0  0  0  0  0  0  0  0  0  0  0
  191.6070  178.3600  144.4780 C   0  0  0  0  0  2  0  0  0  0  0  0
  191.7090  178.0380  142.6830 S   0  0  0  0  0  0  0  0  0  0  0  0
  188.2520  177.0150  144.7290 C   0  0  0  0  0  2  0  0  0  0  0  0
  190.7550  177.1520  137.3230 C   0  0  0  0  0  3  0  0  0  0  0  0
  189.4150  177.3580  139.7870 C   0  0  0  0  0  0  0  0  0  0  0  0
  189.0350  178.1570  138.6970 C   0  0  0  0  0  3  0  0  0  0  0  0
  189.7010  178.0560  137.4720 C   0  0  0  0  0  3  0  0  0  0  0  0
  191.1420  176.3490  138.3990 C   0  0  0  0  0  3  0  0  0  0  0  0
  190.4740  176.4520  139.6220 C   0  0  0  0  0  3  0  0  0  0  0  0
  1 15  1  0  0  0  0
  1  3  1  0  0  0  0
  2 11  1  0  0  0  0
  3 21  1  0  0  0  0
  4 13  2  0  0  0  0
  6 18  1  0  0  0  0
  6  2  2  0  0  0  0
  7  9  2  0  0  0  0
 10 17  1  0  0  0  0
 11 16  2  0  0  0  0
 11  3  1  0  0  0  0
 12  2  1  0  0  0  0
 12  1  2  0  0  0  0
 13  5  1  0  0  0  0
 13  9  1  0  0  0  0
 14  4  1  0  0  0  0
 14 16  1  0  0  0  0
 15 20  1  0  0  0  0
 16  7  1  0  0  0  0
 17  8  2  0  0  0  0
 18 14  2  0  0  0  0
 19 10  1  0  0  0  0
 20 19  1  0  0  0  0
 21 17  1  0  0  0  0
 22 25  2  0  0  0  0
 22 26  1  0  0  0  0
 23 12  1  0  0  0  0
 24 23  2  0  0  0  0
 25 24  1  0  0  0  0
 26 27  2  0  0  0  0
 27 23  1  0  0  0  0
M  END
>  <MODEL>
8

>  <REMARK>
 VINA RESULT:      -7.7      3.199      5.085
  Name = 
  1 active torsions:
  status: ('A' for Active; 'I' for Inactive)
    1  A    between atoms: C_9  and  C_15
                            x       y       z     vdW  Elec       q    Type
                         _______ _______ _______ _____ _____    ______ ____

>  <TORSDO>
F 1

$$$$
=
 OpenBabel10272401013D

 27 31  0  0  0  0  0  0  0  0999 V2000
  188.1160  178.3340  143.2870 C   0  0  0  0  0  0  0  0  0  0  0  0
  186.0180  178.3020  143.9760 C   0  0  0  0  0  0  0  0  0  0  0  0
  187.3360  178.4930  142.1800 N   0  0  0  0  0  0  0  0  0  0  0  0
  182.4330  178.7320  141.9230 C   0  0  0  0  0  3  0  0  0  0  0  0
  181.1300  179.0630  139.8190 C   0  0  0  0  0  1  0  0  0  0  0  0
  184.8070  178.2700  144.6650 C   0  0  0  0  0  3  0  0  0  0  0  0
  184.8450  178.8150  140.4910 C   0  0  0  0  0  3  0  0  0  0  0  0
  189.8000  178.3370  139.6310 O   0  0  0  0  0  0  0  0  0  0  0  0
  183.6240  178.9540  139.8240 C   0  0  0  0  0  3  0  0  0  0  0  0
  188.9900  176.5960  140.9000 O   0  0  0  0  0  0  0  0  0  0  0  0
  186.0570  178.4850  142.6160 C   0  0  0  0  0  0  0  0  0  0  0  0
  187.3220  178.2030  144.4350 C   0  0  0  0  0  0  0  0  0  0  0  0
  182.4230  178.9140  140.5360 C   0  0  0  0  0  0  0  0  0  0  0  0
  183.6460  178.5920  142.6020 C   0  0  0  0  0  0  0  0  0  0  0  0
  189.6110  178.1910  143.2490 C   0  0  0  0  0  2  0  0  0  0  0  0
  184.8690  178.6350  141.8800 C   0  0  0  0  0  0  0  0  0  0  0  0
  188.9020  177.8890  140.3930 C   0  0  0  0  0  0  0  0  0  0  0  0
  183.6500  178.4130  143.9580 N   0  0  0  0  0  0  0  0  0  0  0  0
  190.1830  176.1630  141.5310 C   0  0  0  0  0  2  0  0  0  0  0  0
  190.0740  176.4240  143.3360 S   0  0  0  0  0  0  0  0  0  0  0  0
  187.7790  178.7760  140.8090 C   0  0  0  0  0  2  0  0  0  0  0  0
  188.6070  177.6630  148.5000 C   0  0  0  0  0  3  0  0  0  0  0  0
  187.7650  178.0100  145.8390 C   0  0  0  0  0  0  0  0  0  0  0  0
  187.0390  178.5760  146.8990 C   0  0  0  0  0  3  0  0  0  0  0  0
  187.4560  178.4040  148.2220 C   0  0  0  0  0  3  0  0  0  0  0  0
  189.3410  177.0970  147.4550 C   0  0  0  0  0  3  0  0  0  0  0  0
  188.9220  177.2720  146.1330 C   0  0  0  0  0  3  0  0  0  0  0  0
  1 12  2  0  0  0  0
  2 12  1  0  0  0  0
  2  6  1  0  0  0  0
  3 11  1  0  0  0  0
  3  1  1  0  0  0  0
  4 14  1  0  0  0  0
  5 13  1  0  0  0  0
  7 16  1  0  0  0  0
  8 17  2  0  0  0  0
  9  7  2  0  0  0  0
  9 13  1  0  0  0  0
 10 19  1  0  0  0  0
 11  2  2  0  0  0  0
 12 23  1  0  0  0  0
 13  4  2  0  0  0  0
 14 18  1  0  0  0  0
 15  1  1  0  0  0  0
 15 20  1  0  0  0  0
 16 14  2  0  0  0  0
 16 11  1  0  0  0  0
 17 21  1  0  0  0  0
 17 10  1  0  0  0  0
 18  6  2  0  0  0  0
 19 20  1  0  0  0  0
 21  3  1  0  0  0  0
 23 27  2  0  0  0  0
 23 24  1  0  0  0  0
 24 25  2  0  0  0  0
 25 22  1  0  0  0  0
 26 22  2  0  0  0  0
 27 26  1  0  0  0  0
M  END
>  <MODEL>
9

>  <REMARK>
 VINA RESULT:      -7.6      2.937      7.036
  Name = 
  1 active torsions:
  status: ('A' for Active; 'I' for Inactive)
    1  A    between atoms: C_9  and  C_15
                            x       y       z     vdW  Elec       q    Type
                         _______ _______ _______ _____ _____    ______ ____

>  <TORSDO>
F 1

$$$$
