=
 OpenBabel10272413263D

 32 33  0  0  1  0  0  0  0  0999 V2000
  184.9160  178.5780  139.4490 C   0  0  0  0  0  2  0  0  0  0  0  0
  182.4010  178.5140  144.3980 C   0  0  0  0  0  2  0  0  0  0  0  0
  183.0140  178.4870  141.9920 C   0  0  2  0  0  3  0  0  0  0  0  0
  185.0590  179.6620  143.0660 C   0  0  0  0  0  2  0  0  0  0  0  0
  185.3000  178.4220  140.9110 C   0  0  0  0  0  2  0  0  0  0  0  0
  184.9250  178.6620  144.2120 C   0  0  2  0  0  3  0  0  0  0  0  0
  182.7440  177.1840  139.8890 C   0  0  0  0  0  2  0  0  0  0  0  0
  184.3460  179.2310  141.7790 C   0  0  1  0  0  3  0  0  0  0  0  0
  182.2320  178.3740  140.6920 C   0  0  0  0  0  2  0  0  0  0  0  0
  183.9360  177.5000  138.9690 C   0  0  1  0  0  3  0  0  0  0  0  0
  182.1400  179.1560  143.0420 C   0  0  0  0  0  2  0  0  0  0  0  0
  183.6890  179.0210  145.0360 C   0  0  0  0  0  2  0  0  0  0  0  0
  183.7520  176.9370  136.4770 C   0  0  0  0  0  0  0  0  0  0  0  0
  183.4830  177.7720  137.6080 N   0  0  0  0  0  2  0  0  0  0  0  0
  184.3590  175.8420  136.6110 O   0  0  0  0  0  0  0  0  0  0  0  0
  183.3050  177.3660  135.1260 C   0  0  0  0  0  1  0  0  0  0  0  0
  186.1100  178.7480  145.0500 N   0  0  0  0  0  2  0  0  0  0  0  0
  186.3060  177.4420  145.6650 C   0  0  0  0  0  2  0  0  0  0  0  0
  187.7010  176.9180  145.3430 C   0  0  2  0  0  3  0  0  0  0  0  0
  188.7570  177.9330  145.7590 C   0  0  0  0  0  2  0  0  0  0  0  0
  188.8220  178.1420  148.1960 C   0  0  0  0  0  2  0  0  0  0  0  0
  189.3340  177.5970  147.0980 C   0  0  0  0  0  0  0  0  0  0  0  0
  190.4850  176.6590  147.2060 C   0  0  0  0  0  1  0  0  0  0  0  0
  187.8180  176.6520  143.8520 C   0  0  0  0  0  2  0  0  0  0  0  0
  189.1390  177.1830  143.3060 C   0  0  1  0  0  3  0  0  0  0  0  0
  190.0900  176.0450  142.9270 C   0  0  0  0  0  2  0  0  0  0  0  0
  191.4530  176.1410  143.6060 C   0  0  0  0  0  2  0  0  0  0  0  0
  191.7280  177.4640  143.9520 O   0  0  0  0  0  1  0  0  0  0  0  0
  188.9080  178.1540  142.1480 C   0  0  0  0  0  2  0  0  0  0  0  0
  188.7290  177.4480  140.9280 O   0  0  0  0  0  0  0  0  0  0  0  0
  188.8730  178.0730  139.7190 C   0  0  0  0  0  0  0  0  0  0  0  0
  189.0020  178.6250  138.6530 C   0  0  0  0  0  3  0  0  0  0  0  0
  1  5  1  0  0  0  0
  2 12  1  0  0  0  0
  3  9  1  6  0  0  0
  3 11  1  0  0  0  0
  4  6  1  0  0  0  0
  6 12  1  0  0  0  0
  6 17  1  1  0  0  0
  7  9  1  0  0  0  0
  8  5  1  1  0  0  0
  8  3  1  0  0  0  0
  8  4  1  0  0  0  0
 10 14  1  6  0  0  0
 10  1  1  0  0  0  0
 10  7  1  0  0  0  0
 11  2  1  0  0  0  0
 13 15  2  0  0  0  0
 13 14  1  0  0  0  0
 16 13  1  0  0  0  0
 17 18  1  0  0  0  0
 19 24  1  6  0  0  0
 19 18  1  0  0  0  0
 19 20  1  0  0  0  0
 20 22  1  0  0  0  0
 22 23  1  0  0  0  0
 22 21  2  0  0  0  0
 25 29  1  6  0  0  0
 25 24  1  0  0  0  0
 26 25  1  0  0  0  0
 26 27  1  0  0  0  0
 27 28  1  0  0  0  0
 30 29  1  0  0  0  0
 31 30  1  0  0  0  0
 32 31  3  0  0  0  0
M  END
>  <MODEL>
1

>  <REMARK>
 VINA RESULT:      -7.1      0.000      0.000
  Name = 
  13 active torsions:
  status: ('A' for Active; 'I' for Inactive)
    1  A    between atoms: C_5  and  C_25
    2  A    between atoms: O_6  and  C_7
    3  A    between atoms: O_6  and  C_32
    4  A    between atoms: N_10  and  C_24
    5  A    between atoms: C_11  and  C_27
    6  A    between atoms: C_11  and  C_30
    7  A    between atoms: C_11  and  C_32
    8  A    between atoms: C_14  and  N_15
    9  A    between atoms: N_15  and  C_26
   10  A    between atoms: C_16  and  C_25
   11  A    between atoms: C_16  and  C_26
   12  A    between atoms: C_16  and  C_27
   13  A    between atoms: C_18  and  C_30
                            x       y       z     vdW  Elec       q    Type
                         _______ _______ _______ _____ _____    ______ ____

>  <TORSDO>
F 13

$$$$
=
 OpenBabel10272413263D

 32 33  0  0  1  0  0  0  0  0999 V2000
  189.0440  177.0130  144.8060 C   0  0  0  0  0  2  0  0  0  0  0  0
  183.9510  179.2210  144.8750 C   0  0  0  0  0  2  0  0  0  0  0  0
  186.1390  178.1640  145.3810 C   0  0  2  0  0  3  0  0  0  0  0  0
  185.9030  177.7420  142.8360 C   0  0  0  0  0  2  0  0  0  0  0  0
  188.1620  177.8510  143.8950 C   0  0  0  0  0  2  0  0  0  0  0  0
  185.3200  179.1500  142.7430 C   0  0  2  0  0  3  0  0  0  0  0  0
  188.1230  178.3240  146.8760 C   0  0  0  0  0  2  0  0  0  0  0  0
  186.7010  177.4840  144.1190 C   0  0  1  0  0  3  0  0  0  0  0  0
  186.7940  177.6150  146.6400 C   0  0  0  0  0  2  0  0  0  0  0  0
  189.3230  177.6860  146.1550 C   0  0  1  0  0  3  0  0  0  0  0  0
  184.6310  178.0090  145.4980 C   0  0  0  0  0  2  0  0  0  0  0  0
  183.9190  179.1440  143.3530 C   0  0  0  0  0  2  0  0  0  0  0  0
  191.4340  176.4530  146.9200 C   0  0  0  0  0  0  0  0  0  0  0  0
  190.0480  176.7880  147.0490 N   0  0  0  0  0  2  0  0  0  0  0  0
  192.1500  176.9910  146.0350 O   0  0  0  0  0  0  0  0  0  0  0  0
  192.0380  175.4600  147.8470 C   0  0  0  0  0  1  0  0  0  0  0  0
  185.2380  179.5320  141.3420 N   0  0  0  0  0  2  0  0  0  0  0  0
  184.1570  178.7630  140.7410 C   0  0  0  0  0  2  0  0  0  0  0  0
  183.5460  179.5400  139.5800 C   0  0  2  0  0  3  0  0  0  0  0  0
  182.0850  179.1570  139.3960 C   0  0  0  0  0  2  0  0  0  0  0  0
  180.8260  179.4580  137.3190 C   0  0  0  0  0  2  0  0  0  0  0  0
  181.4240  180.0170  138.3660 C   0  0  0  0  0  0  0  0  0  0  0  0
  181.4380  181.5000  138.5050 C   0  0  0  0  0  1  0  0  0  0  0  0
  184.3110  179.2380  138.3030 C   0  0  0  0  0  2  0  0  0  0  0  0
  184.6260  177.7500  138.1960 C   0  0  1  0  0  3  0  0  0  0  0  0
  183.7400  177.0610  137.1550 C   0  0  0  0  0  2  0  0  0  0  0  0
  182.7100  176.1150  137.7630 C   0  0  0  0  0  2  0  0  0  0  0  0
  183.0880  175.7580  139.0590 O   0  0  0  0  0  1  0  0  0  0  0  0
  186.1130  177.5170  137.9340 C   0  0  0  0  0  2  0  0  0  0  0  0
  186.9000  178.5090  138.5770 O   0  0  0  0  0  0  0  0  0  0  0  0
  187.9000  178.1690  139.4480 C   0  0  0  0  0  0  0  0  0  0  0  0
  188.7810  177.8700  140.2170 C   0  0  0  0  0  3  0  0  0  0  0  0
  1 10  1  0  0  0  0
  2 11  1  0  0  0  0
  3 11  1  1  0  0  0
  3  9  1  0  0  0  0
  5  8  1  0  0  0  0
  5  1  1  0  0  0  0
  6 17  1  6  0  0  0
  6  4  1  0  0  0  0
  6 12  1  0  0  0  0
  8  4  1  6  0  0  0
  8  3  1  0  0  0  0
  9  7  1  0  0  0  0
 10  7  1  0  0  0  0
 10 14  1  1  0  0  0
 12  2  1  0  0  0  0
 13 14  1  0  0  0  0
 13 16  1  0  0  0  0
 15 13  2  0  0  0  0
 18 17  1  0  0  0  0
 19 24  1  6  0  0  0
 19 18  1  0  0  0  0
 20 19  1  0  0  0  0
 21 22  2  0  0  0  0
 22 23  1  0  0  0  0
 22 20  1  0  0  0  0
 25 26  1  6  0  0  0
 25 24  1  0  0  0  0
 26 27  1  0  0  0  0
 27 28  1  0  0  0  0
 29 25  1  0  0  0  0
 29 30  1  0  0  0  0
 30 31  1  0  0  0  0
 31 32  3  0  0  0  0
M  END
>  <MODEL>
2

>  <REMARK>
 VINA RESULT:      -6.9      2.107      8.217
  Name = 
  13 active torsions:
  status: ('A' for Active; 'I' for Inactive)
    1  A    between atoms: C_5  and  C_25
    2  A    between atoms: O_6  and  C_7
    3  A    between atoms: O_6  and  C_32
    4  A    between atoms: N_10  and  C_24
    5  A    between atoms: C_11  and  C_27
    6  A    between atoms: C_11  and  C_30
    7  A    between atoms: C_11  and  C_32
    8  A    between atoms: C_14  and  N_15
    9  A    between atoms: N_15  and  C_26
   10  A    between atoms: C_16  and  C_25
   11  A    between atoms: C_16  and  C_26
   12  A    between atoms: C_16  and  C_27
   13  A    between atoms: C_18  and  C_30
                            x       y       z     vdW  Elec       q    Type
                         _______ _______ _______ _____ _____    ______ ____

>  <TORSDO>
F 13

$$$$
=
 OpenBabel10272413263D

 32 33  0  0  1  0  0  0  0  0999 V2000
  189.0550  176.9880  144.8830 C   0  0  0  0  0  2  0  0  0  0  0  0
  183.9610  179.1860  145.0850 C   0  0  0  0  0  2  0  0  0  0  0  0
  186.1650  178.1330  145.5350 C   0  0  2  0  0  3  0  0  0  0  0  0
  185.8600  177.7070  142.9970 C   0  0  0  0  0  2  0  0  0  0  0  0
  188.1480  177.8230  143.9950 C   0  0  0  0  0  2  0  0  0  0  0  0
  185.2720  179.1140  142.9170 C   0  0  2  0  0  3  0  0  0  0  0  0
  188.1870  178.3000  146.9750 C   0  0  0  0  0  2  0  0  0  0  0  0
  186.6940  177.4530  144.2590 C   0  0  1  0  0  3  0  0  0  0  0  0
  186.8540  177.5880  146.7760 C   0  0  0  0  0  2  0  0  0  0  0  0
  189.3690  177.6630  146.2230 C   0  0  1  0  0  3  0  0  0  0  0  0
  184.6600  177.9760  145.6920 C   0  0  0  0  0  2  0  0  0  0  0  0
  183.8880  179.1060  143.5650 C   0  0  0  0  0  2  0  0  0  0  0  0
  191.4970  176.4210  146.9220 C   0  0  0  0  0  0  0  0  0  0  0  0
  190.1190  176.7680  147.0990 N   0  0  0  0  0  2  0  0  0  0  0  0
  192.1840  176.9450  146.0060 O   0  0  0  0  0  0  0  0  0  0  0  0
  192.1270  175.4320  147.8360 C   0  0  0  0  0  1  0  0  0  0  0  0
  185.1520  179.4930  141.5180 N   0  0  0  0  0  2  0  0  0  0  0  0
  184.4060  178.4410  140.8420 C   0  0  0  0  0  2  0  0  0  0  0  0
  183.3170  179.0530  139.9680 C   0  0  2  0  0  3  0  0  0  0  0  0
  181.9870  178.3540  140.2120 C   0  0  0  0  0  2  0  0  0  0  0  0
  180.5080  179.1260  142.0020 C   0  0  0  0  0  2  0  0  0  0  0  0
  180.9710  179.3010  140.7690 C   0  0  0  0  0  0  0  0  0  0  0  0
  180.4700  180.4360  139.9450 C   0  0  0  0  0  1  0  0  0  0  0  0
  183.6970  178.9170  138.5040 C   0  0  0  0  0  2  0  0  0  0  0  0
  184.5030  177.6440  138.2670 C   0  0  1  0  0  3  0  0  0  0  0  0
  183.6910  176.6000  137.4970 C   0  0  0  0  0  2  0  0  0  0  0  0
  183.1580  175.4740  138.3780 C   0  0  0  0  0  2  0  0  0  0  0  0
  182.8070  174.3730  137.5950 O   0  0  0  0  0  1  0  0  0  0  0  0
  185.8380  177.9520  137.5900 C   0  0  0  0  0  2  0  0  0  0  0  0
  186.6730  178.7170  138.4480 O   0  0  0  0  0  0  0  0  0  0  0  0
  187.6970  178.1360  139.1460 C   0  0  0  0  0  0  0  0  0  0  0  0
  188.5990  177.6250  139.7650 C   0  0  0  0  0  3  0  0  0  0  0  0
  1 10  1  0  0  0  0
  2 11  1  0  0  0  0
  3 11  1  1  0  0  0
  3  9  1  0  0  0  0
  5  8  1  0  0  0  0
  5  1  1  0  0  0  0
  6 17  1  6  0  0  0
  6  4  1  0  0  0  0
  6 12  1  0  0  0  0
  8  4  1  6  0  0  0
  8  3  1  0  0  0  0
  9  7  1  0  0  0  0
 10  7  1  0  0  0  0
 10 14  1  1  0  0  0
 12  2  1  0  0  0  0
 13 14  1  0  0  0  0
 13 16  1  0  0  0  0
 15 13  2  0  0  0  0
 18 17  1  0  0  0  0
 19 24  1  6  0  0  0
 19 20  1  0  0  0  0
 19 18  1  0  0  0  0
 20 22  1  0  0  0  0
 22 21  2  0  0  0  0
 23 22  1  0  0  0  0
 25 26  1  6  0  0  0
 25 24  1  0  0  0  0
 26 27  1  0  0  0  0
 28 27  1  0  0  0  0
 29 25  1  0  0  0  0
 29 30  1  0  0  0  0
 30 31  1  0  0  0  0
 31 32  3  0  0  0  0
M  END
>  <MODEL>
3

>  <REMARK>
 VINA RESULT:      -6.9      1.914      8.009
  Name = 
  13 active torsions:
  status: ('A' for Active; 'I' for Inactive)
    1  A    between atoms: C_5  and  C_25
    2  A    between atoms: O_6  and  C_7
    3  A    between atoms: O_6  and  C_32
    4  A    between atoms: N_10  and  C_24
    5  A    between atoms: C_11  and  C_27
    6  A    between atoms: C_11  and  C_30
    7  A    between atoms: C_11  and  C_32
    8  A    between atoms: C_14  and  N_15
    9  A    between atoms: N_15  and  C_26
   10  A    between atoms: C_16  and  C_25
   11  A    between atoms: C_16  and  C_26
   12  A    between atoms: C_16  and  C_27
   13  A    between atoms: C_18  and  C_30
                            x       y       z     vdW  Elec       q    Type
                         _______ _______ _______ _____ _____    ______ ____

>  <TORSDO>
F 13

$$$$
=
 OpenBabel10272413263D

 32 33  0  0  1  0  0  0  0  0999 V2000
  188.9050  177.0270  144.3870 C   0  0  0  0  0  2  0  0  0  0  0  0
  183.8570  179.3340  144.2810 C   0  0  0  0  0  2  0  0  0  0  0  0
  186.0050  178.2320  144.8620 C   0  0  2  0  0  3  0  0  0  0  0  0
  185.8520  177.8250  142.3070 C   0  0  0  0  0  2  0  0  0  0  0  0
  188.0740  177.8860  143.4490 C   0  0  0  0  0  2  0  0  0  0  0  0
  185.3010  179.2440  142.1990 C   0  0  2  0  0  3  0  0  0  0  0  0
  187.9360  178.3480  146.4280 C   0  0  0  0  0  2  0  0  0  0  0  0
  186.5990  177.5460  143.6180 C   0  0  1  0  0  3  0  0  0  0  0  0
  186.6030  177.6660  146.1410 C   0  0  0  0  0  2  0  0  0  0  0  0
  189.1480  177.6890  145.7480 C   0  0  1  0  0  3  0  0  0  0  0  0
  184.4900  178.1070  144.9230 C   0  0  0  0  0  2  0  0  0  0  0  0
  183.8790  179.2630  142.7580 C   0  0  0  0  0  2  0  0  0  0  0  0
  191.2380  176.5710  146.7180 C   0  0  0  0  0  0  0  0  0  0  0  0
  189.8220  176.7740  146.6640 N   0  0  0  0  0  2  0  0  0  0  0  0
  192.0180  177.2490  145.9970 O   0  0  0  0  0  0  0  0  0  0  0  0
  191.7980  175.5490  147.6400 C   0  0  0  0  0  1  0  0  0  0  0  0
  185.2770  179.6320  140.7980 N   0  0  0  0  0  2  0  0  0  0  0  0
  185.8240  178.5230  140.0280 C   0  0  0  0  0  2  0  0  0  0  0  0
  185.2590  178.5430  138.6120 C   0  0  2  0  0  3  0  0  0  0  0  0
  184.2700  177.4010  138.4200 C   0  0  0  0  0  2  0  0  0  0  0  0
  182.3600  178.9140  138.6550 C   0  0  0  0  0  2  0  0  0  0  0  0
  182.9240  177.7520  138.9700 C   0  0  0  0  0  0  0  0  0  0  0  0
  182.2120  176.8060  139.8740 C   0  0  0  0  0  1  0  0  0  0  0  0
  186.3890  178.4060  137.6060 C   0  0  0  0  0  2  0  0  0  0  0  0
  187.5570  177.6290  138.2040 C   0  0  1  0  0  3  0  0  0  0  0  0
  187.6700  176.2280  137.5970 C   0  0  0  0  0  2  0  0  0  0  0  0
  187.5600  176.2140  136.0760 C   0  0  0  0  0  2  0  0  0  0  0  0
  188.8000  175.9280  135.5040 O   0  0  0  0  0  1  0  0  0  0  0  0
  188.8620  178.4160  138.0880 C   0  0  0  0  0  2  0  0  0  0  0  0
  189.9760  177.5970  138.4120 O   0  0  0  0  0  0  0  0  0  0  0  0
  190.3050  177.3260  139.7120 C   0  0  0  0  0  0  0  0  0  0  0  0
  190.5960  177.0850  140.8590 C   0  0  0  0  0  3  0  0  0  0  0  0
  1 10  1  0  0  0  0
  2 11  1  0  0  0  0
  3 11  1  1  0  0  0
  3  9  1  0  0  0  0
  5  8  1  0  0  0  0
  5  1  1  0  0  0  0
  6 17  1  6  0  0  0
  6  4  1  0  0  0  0
  6 12  1  0  0  0  0
  8  4  1  6  0  0  0
  8  3  1  0  0  0  0
  9  7  1  0  0  0  0
 10  7  1  0  0  0  0
 10 14  1  1  0  0  0
 12  2  1  0  0  0  0
 13 16  1  0  0  0  0
 14 13  1  0  0  0  0
 15 13  2  0  0  0  0
 18 17  1  0  0  0  0
 19 24  1  6  0  0  0
 19 18  1  0  0  0  0
 20 19  1  0  0  0  0
 20 22  1  0  0  0  0
 21 22  2  0  0  0  0
 22 23  1  0  0  0  0
 24 25  1  0  0  0  0
 25 26  1  6  0  0  0
 27 26  1  0  0  0  0
 28 27  1  0  0  0  0
 29 25  1  0  0  0  0
 29 30  1  0  0  0  0
 30 31  1  0  0  0  0
 31 32  3  0  0  0  0
M  END
>  <MODEL>
4

>  <REMARK>
 VINA RESULT:      -6.8      2.075      7.528
  Name = 
  13 active torsions:
  status: ('A' for Active; 'I' for Inactive)
    1  A    between atoms: C_5  and  C_25
    2  A    between atoms: O_6  and  C_7
    3  A    between atoms: O_6  and  C_32
    4  A    between atoms: N_10  and  C_24
    5  A    between atoms: C_11  and  C_27
    6  A    between atoms: C_11  and  C_30
    7  A    between atoms: C_11  and  C_32
    8  A    between atoms: C_14  and  N_15
    9  A    between atoms: N_15  and  C_26
   10  A    between atoms: C_16  and  C_25
   11  A    between atoms: C_16  and  C_26
   12  A    between atoms: C_16  and  C_27
   13  A    between atoms: C_18  and  C_30
                            x       y       z     vdW  Elec       q    Type
                         _______ _______ _______ _____ _____    ______ ____

>  <TORSDO>
F 13

$$$$
=
 OpenBabel10272413263D

 32 33  0  0  1  0  0  0  0  0999 V2000
  192.5190  176.5170  138.3870 C   0  0  0  0  0  2  0  0  0  0  0  0
  187.1500  176.8710  137.0180 C   0  0  0  0  0  2  0  0  0  0  0  0
  189.5980  176.4740  137.1380 C   0  0  2  0  0  3  0  0  0  0  0  0
  189.2680  178.3870  138.8550 C   0  0  0  0  0  2  0  0  0  0  0  0
  191.1940  176.8100  139.0720 C   0  0  0  0  0  2  0  0  0  0  0  0
  187.9830  177.6760  139.2730 C   0  0  2  0  0  3  0  0  0  0  0  0
  191.3360  174.7070  136.9120 C   0  0  0  0  0  2  0  0  0  0  0  0
  190.2520  177.4940  138.0890 C   0  0  1  0  0  3  0  0  0  0  0  0
  190.6270  175.8560  136.2030 C   0  0  0  0  0  2  0  0  0  0  0  0
  192.5630  175.1290  137.7380 C   0  0  1  0  0  3  0  0  0  0  0  0
  188.4810  177.0900  136.3100 C   0  0  0  0  0  2  0  0  0  0  0  0
  186.9420  177.8500  138.1680 C   0  0  0  0  0  2  0  0  0  0  0  0
  194.9390  174.2240  137.4300 C   0  0  0  0  0  0  0  0  0  0  0  0
  193.7920  174.9480  136.9720 N   0  0  0  0  0  2  0  0  0  0  0  0
  194.9250  173.6200  138.5350 O   0  0  0  0  0  0  0  0  0  0  0  0
  196.1630  174.1800  136.5880 C   0  0  0  0  0  1  0  0  0  0  0  0
  187.4930  178.2780  140.5020 N   0  0  0  0  0  2  0  0  0  0  0  0
  188.6500  178.7600  141.2440 C   0  0  0  0  0  2  0  0  0  0  0  0
  188.7670  178.0150  142.5690 C   0  0  2  0  0  3  0  0  0  0  0  0
  189.7570  176.8660  142.4450 C   0  0  0  0  0  2  0  0  0  0  0  0
  191.5260  175.9530  143.8680 C   0  0  0  0  0  2  0  0  0  0  0  0
  190.8970  177.0260  143.4010 C   0  0  0  0  0  0  0  0  0  0  0  0
  191.3260  178.3840  143.8370 C   0  0  0  0  0  1  0  0  0  0  0  0
  187.4080  177.4680  142.9720 C   0  0  0  0  0  2  0  0  0  0  0  0
  187.0270  177.9350  144.3730 C   0  0  1  0  0  3  0  0  0  0  0  0
  185.5310  178.2410  144.4770 C   0  0  0  0  0  2  0  0  0  0  0  0
  185.1830  179.1890  145.6200 C   0  0  0  0  0  2  0  0  0  0  0  0
  184.5240  178.4980  146.6370 O   0  0  0  0  0  1  0  0  0  0  0  0
  187.4870  176.9330  145.4330 C   0  0  0  0  0  2  0  0  0  0  0  0
  188.6120  177.4310  146.1420 O   0  0  0  0  0  0  0  0  0  0  0  0
  188.5320  177.7480  147.4710 C   0  0  0  0  0  0  0  0  0  0  0  0
  188.4580  178.0270  148.6440 C   0  0  0  0  0  3  0  0  0  0  0  0
  1  5  1  0  0  0  0
  2 12  1  0  0  0  0
  3  9  1  6  0  0  0
  3  8  1  0  0  0  0
  4  6  1  0  0  0  0
  6 17  1  1  0  0  0
  7 10  1  0  0  0  0
  8  4  1  1  0  0  0
  8  5  1  0  0  0  0
  9  7  1  0  0  0  0
 10 14  1  6  0  0  0
 10  1  1  0  0  0  0
 11  2  1  0  0  0  0
 11  3  1  0  0  0  0
 12  6  1  0  0  0  0
 13 15  2  0  0  0  0
 14 13  1  0  0  0  0
 16 13  1  0  0  0  0
 17 18  1  0  0  0  0
 19 18  1  6  0  0  0
 19 24  1  0  0  0  0
 20 19  1  0  0  0  0
 20 22  1  0  0  0  0
 22 23  1  0  0  0  0
 22 21  2  0  0  0  0
 25 24  1  6  0  0  0
 25 26  1  0  0  0  0
 25 29  1  0  0  0  0
 26 27  1  0  0  0  0
 27 28  1  0  0  0  0
 29 30  1  0  0  0  0
 30 31  1  0  0  0  0
 31 32  3  0  0  0  0
M  END
>  <MODEL>
5

>  <REMARK>
 VINA RESULT:      -6.6      4.063      7.554
  Name = 
  13 active torsions:
  status: ('A' for Active; 'I' for Inactive)
    1  A    between atoms: C_5  and  C_25
    2  A    between atoms: O_6  and  C_7
    3  A    between atoms: O_6  and  C_32
    4  A    between atoms: N_10  and  C_24
    5  A    between atoms: C_11  and  C_27
    6  A    between atoms: C_11  and  C_30
    7  A    between atoms: C_11  and  C_32
    8  A    between atoms: C_14  and  N_15
    9  A    between atoms: N_15  and  C_26
   10  A    between atoms: C_16  and  C_25
   11  A    between atoms: C_16  and  C_26
   12  A    between atoms: C_16  and  C_27
   13  A    between atoms: C_18  and  C_30
                            x       y       z     vdW  Elec       q    Type
                         _______ _______ _______ _____ _____    ______ ____

>  <TORSDO>
F 13

$$$$
=
 OpenBabel10272413263D

 32 33  0  0  1  0  0  0  0  0999 V2000
  188.9770  177.0220  144.6240 C   0  0  0  0  0  2  0  0  0  0  0  0
  183.9320  179.3370  144.6180 C   0  0  0  0  0  2  0  0  0  0  0  0
  186.0960  178.2470  145.1590 C   0  0  2  0  0  3  0  0  0  0  0  0
  185.8580  177.7660  142.6240 C   0  0  0  0  0  2  0  0  0  0  0  0
  188.1160  177.8550  143.6890 C   0  0  0  0  0  2  0  0  0  0  0  0
  185.3050  179.1830  142.4930 C   0  0  2  0  0  3  0  0  0  0  0  0
  188.0780  178.4040  146.6570 C   0  0  0  0  0  2  0  0  0  0  0  0
  186.6470  177.5240  143.9170 C   0  0  1  0  0  3  0  0  0  0  0  0
  186.7350  177.7170  146.4340 C   0  0  0  0  0  2  0  0  0  0  0  0
  189.2660  177.7230  145.9570 C   0  0  1  0  0  3  0  0  0  0  0  0
  184.5840  178.1280  145.2750 C   0  0  0  0  0  2  0  0  0  0  0  0
  183.9020  179.2220  143.0990 C   0  0  0  0  0  2  0  0  0  0  0  0
  191.3550  176.4890  146.7760 C   0  0  0  0  0  0  0  0  0  0  0  0
  189.9690  176.8330  146.8750 N   0  0  0  0  0  2  0  0  0  0  0  0
  192.0900  177.0100  145.8970 O   0  0  0  0  0  0  0  0  0  0  0  0
  191.9360  175.5050  147.7270 C   0  0  0  0  0  1  0  0  0  0  0  0
  185.2360  179.5300  141.0830 N   0  0  0  0  0  2  0  0  0  0  0  0
  184.2010  178.7020  140.4790 C   0  0  0  0  0  2  0  0  0  0  0  0
  184.2570  178.8240  138.9600 C   0  0  2  0  0  3  0  0  0  0  0  0
  182.8500  178.8500  138.3790 C   0  0  0  0  0  2  0  0  0  0  0  0
  181.0890  179.6580  139.8740 C   0  0  0  0  0  2  0  0  0  0  0  0
  182.0330  179.9470  138.9850 C   0  0  0  0  0  0  0  0  0  0  0  0
  182.2690  181.3640  138.5900 C   0  0  0  0  0  1  0  0  0  0  0  0
  185.0200  177.6460  138.3790 C   0  0  0  0  0  2  0  0  0  0  0  0
  186.3120  178.1110  137.7140 C   0  0  1  0  0  3  0  0  0  0  0  0
  187.4880  178.0900  138.6940 C   0  0  0  0  0  2  0  0  0  0  0  0
  188.8160  178.4860  138.0570 C   0  0  0  0  0  2  0  0  0  0  0  0
  188.6940  179.7160  137.4090 O   0  0  0  0  0  1  0  0  0  0  0  0
  186.6010  177.3060  136.4470 C   0  0  0  0  0  2  0  0  0  0  0  0
  186.5210  175.9120  136.7060 O   0  0  0  0  0  0  0  0  0  0  0  0
  187.6200  175.1040  136.5950 C   0  0  0  0  0  0  0  0  0  0  0  0
  188.5910  174.3920  136.4940 C   0  0  0  0  0  3  0  0  0  0  0  0
  1 10  1  0  0  0  0
  2 11  1  0  0  0  0
  3 11  1  1  0  0  0
  3  9  1  0  0  0  0
  5  8  1  0  0  0  0
  5  1  1  0  0  0  0
  6 17  1  6  0  0  0
  6  4  1  0  0  0  0
  6 12  1  0  0  0  0
  8  4  1  6  0  0  0
  8  3  1  0  0  0  0
  9  7  1  0  0  0  0
 10  7  1  0  0  0  0
 10 14  1  1  0  0  0
 12  2  1  0  0  0  0
 13 14  1  0  0  0  0
 13 16  1  0  0  0  0
 15 13  2  0  0  0  0
 18 17  1  0  0  0  0
 19 24  1  6  0  0  0
 19 18  1  0  0  0  0
 20 19  1  0  0  0  0
 20 22  1  0  0  0  0
 22 21  2  0  0  0  0
 23 22  1  0  0  0  0
 25 29  1  6  0  0  0
 25 24  1  0  0  0  0
 25 26  1  0  0  0  0
 27 26  1  0  0  0  0
 28 27  1  0  0  0  0
 29 30  1  0  0  0  0
 31 30  1  0  0  0  0
 32 31  3  0  0  0  0
M  END
>  <MODEL>
6

>  <REMARK>
 VINA RESULT:      -6.6      2.331      7.777
  Name = 
  13 active torsions:
  status: ('A' for Active; 'I' for Inactive)
    1  A    between atoms: C_5  and  C_25
    2  A    between atoms: O_6  and  C_7
    3  A    between atoms: O_6  and  C_32
    4  A    between atoms: N_10  and  C_24
    5  A    between atoms: C_11  and  C_27
    6  A    between atoms: C_11  and  C_30
    7  A    between atoms: C_11  and  C_32
    8  A    between atoms: C_14  and  N_15
    9  A    between atoms: N_15  and  C_26
   10  A    between atoms: C_16  and  C_25
   11  A    between atoms: C_16  and  C_26
   12  A    between atoms: C_16  and  C_27
   13  A    between atoms: C_18  and  C_30
                            x       y       z     vdW  Elec       q    Type
                         _______ _______ _______ _____ _____    ______ ____

>  <TORSDO>
F 13

$$$$
=
 OpenBabel10272413263D

 32 33  0  0  1  0  0  0  0  0999 V2000
  192.2880  176.5480  138.4700 C   0  0  0  0  0  2  0  0  0  0  0  0
  186.8910  177.2780  137.3920 C   0  0  0  0  0  2  0  0  0  0  0  0
  189.3210  176.7700  137.3560 C   0  0  2  0  0  3  0  0  0  0  0  0
  189.1480  178.4840  139.2920 C   0  0  0  0  0  2  0  0  0  0  0  0
  191.0060  176.8150  139.2420 C   0  0  0  0  0  2  0  0  0  0  0  0
  187.8490  177.7830  139.6830 C   0  0  2  0  0  3  0  0  0  0  0  0
  190.9660  174.9700  136.8540 C   0  0  0  0  0  2  0  0  0  0  0  0
  190.0580  177.6450  138.3860 C   0  0  1  0  0  3  0  0  0  0  0  0
  190.2820  176.2210  136.3120 C   0  0  0  0  0  2  0  0  0  0  0  0
  192.2430  175.2430  137.6670 C   0  0  1  0  0  3  0  0  0  0  0  0
  188.2010  177.5220  136.6540 C   0  0  0  0  0  2  0  0  0  0  0  0
  186.7740  178.1260  138.6530 C   0  0  0  0  0  2  0  0  0  0  0  0
  194.6890  174.5880  137.2830 C   0  0  0  0  0  0  0  0  0  0  0  0
  193.4310  175.1010  136.8310 N   0  0  0  0  0  2  0  0  0  0  0  0
  194.8260  174.1500  138.4550 O   0  0  0  0  0  0  0  0  0  0  0  0
  195.8490  174.5700  136.3540 C   0  0  0  0  0  1  0  0  0  0  0  0
  187.4370  178.2590  140.9940 N   0  0  0  0  0  2  0  0  0  0  0  0
  188.6440  178.5790  141.7430 C   0  0  0  0  0  2  0  0  0  0  0  0
  188.8070  177.6080  142.9070 C   0  0  2  0  0  3  0  0  0  0  0  0
  189.8520  176.5520  142.5740 C   0  0  0  0  0  2  0  0  0  0  0  0
  191.6670  175.6260  143.9300 C   0  0  0  0  0  2  0  0  0  0  0  0
  191.0680  176.7030  143.4310 C   0  0  0  0  0  0  0  0  0  0  0  0
  191.6090  178.0570  143.7350 C   0  0  0  0  0  1  0  0  0  0  0  0
  187.4800  176.9290  143.1990 C   0  0  0  0  0  2  0  0  0  0  0  0
  187.0180  177.2260  144.6220 C   0  0  1  0  0  3  0  0  0  0  0  0
  188.2040  177.4080  145.5710 C   0  0  0  0  0  2  0  0  0  0  0  0
  187.7930  177.7600  146.9980 C   0  0  0  0  0  2  0  0  0  0  0  0
  188.9230  177.9090  147.8030 O   0  0  0  0  0  1  0  0  0  0  0  0
  186.0620  178.4180  144.6550 C   0  0  0  0  0  2  0  0  0  0  0  0
  185.1290  178.3460  143.5870 O   0  0  0  0  0  0  0  0  0  0  0  0
  183.8080  178.6500  143.7750 C   0  0  0  0  0  0  0  0  0  0  0  0
  182.6420  178.9160  143.9420 C   0  0  0  0  0  3  0  0  0  0  0  0
  1  5  1  0  0  0  0
  2 12  1  0  0  0  0
  3  9  1  6  0  0  0
  3  8  1  0  0  0  0
  4  6  1  0  0  0  0
  6 17  1  1  0  0  0
  7 10  1  0  0  0  0
  8  5  1  1  0  0  0
  8  4  1  0  0  0  0
  9  7  1  0  0  0  0
 10 14  1  6  0  0  0
 10  1  1  0  0  0  0
 11  3  1  0  0  0  0
 11  2  1  0  0  0  0
 12  6  1  0  0  0  0
 13 15  2  0  0  0  0
 14 13  1  0  0  0  0
 16 13  1  0  0  0  0
 17 18  1  0  0  0  0
 19 18  1  6  0  0  0
 19 24  1  0  0  0  0
 20 19  1  0  0  0  0
 20 22  1  0  0  0  0
 22 23  1  0  0  0  0
 22 21  2  0  0  0  0
 25 24  1  6  0  0  0
 25 29  1  0  0  0  0
 25 26  1  0  0  0  0
 26 27  1  0  0  0  0
 27 28  1  0  0  0  0
 30 31  1  0  0  0  0
 30 29  1  0  0  0  0
 31 32  3  0  0  0  0
M  END
>  <MODEL>
7

>  <REMARK>
 VINA RESULT:      -6.5      3.781      7.018
  Name = 
  13 active torsions:
  status: ('A' for Active; 'I' for Inactive)
    1  A    between atoms: C_5  and  C_25
    2  A    between atoms: O_6  and  C_7
    3  A    between atoms: O_6  and  C_32
    4  A    between atoms: N_10  and  C_24
    5  A    between atoms: C_11  and  C_27
    6  A    between atoms: C_11  and  C_30
    7  A    between atoms: C_11  and  C_32
    8  A    between atoms: C_14  and  N_15
    9  A    between atoms: N_15  and  C_26
   10  A    between atoms: C_16  and  C_25
   11  A    between atoms: C_16  and  C_26
   12  A    between atoms: C_16  and  C_27
   13  A    between atoms: C_18  and  C_30
                            x       y       z     vdW  Elec       q    Type
                         _______ _______ _______ _____ _____    ______ ____

>  <TORSDO>
F 13

$$$$
=
 OpenBabel10272413263D

 32 33  0  0  1  0  0  0  0  0999 V2000
  183.6930  178.8580  140.9830 C   0  0  0  0  0  2  0  0  0  0  0  0
  184.6070  178.0930  146.4050 C   0  0  0  0  0  2  0  0  0  0  0  0
  183.7070  178.6120  144.1500 C   0  0  2  0  0  3  0  0  0  0  0  0
  186.2660  178.6640  143.7450 C   0  0  0  0  0  2  0  0  0  0  0  0
  184.6980  178.1430  141.8710 C   0  0  0  0  0  2  0  0  0  0  0  0
  186.3540  177.4610  144.6800 C   0  0  2  0  0  3  0  0  0  0  0  0
  181.7790  178.1840  142.6360 C   0  0  0  0  0  2  0  0  0  0  0  0
  184.8630  178.9090  143.1770 C   0  0  1  0  0  3  0  0  0  0  0  0
  182.3900  179.1660  143.6280 C   0  0  0  0  0  2  0  0  0  0  0  0
  182.2560  178.3620  141.1850 C   0  0  1  0  0  3  0  0  0  0  0  0
  183.9650  179.1700  145.5420 C   0  0  0  0  0  2  0  0  0  0  0  0
  186.0940  177.9300  146.1110 C   0  0  0  0  0  2  0  0  0  0  0  0
  181.0700  179.0390  139.0180 C   0  0  0  0  0  0  0  0  0  0  0  0
  181.3110  179.1720  140.4230 N   0  0  0  0  0  2  0  0  0  0  0  0
  181.6310  178.1330  138.3480 O   0  0  0  0  0  0  0  0  0  0  0  0
  180.1400  179.9810  138.3410 C   0  0  0  0  0  1  0  0  0  0  0  0
  187.6890  176.8930  144.5890 N   0  0  0  0  0  2  0  0  0  0  0  0
  187.9120  176.5200  143.1990 C   0  0  0  0  0  2  0  0  0  0  0  0
  189.2690  177.0350  142.7320 C   0  0  2  0  0  3  0  0  0  0  0  0
  190.0150  177.6860  143.8880 C   0  0  0  0  0  2  0  0  0  0  0  0
  191.5550  175.7930  143.7050 C   0  0  0  0  0  2  0  0  0  0  0  0
  191.0450  176.7630  144.4570 C   0  0  0  0  0  0  0  0  0  0  0  0
  191.4990  176.9220  145.8670 C   0  0  0  0  0  1  0  0  0  0  0  0
  189.0780  178.0510  141.6190 C   0  0  0  0  0  2  0  0  0  0  0  0
  189.3750  177.4290  140.2580 C   0  0  1  0  0  3  0  0  0  0  0  0
  189.0630  178.4000  139.1170 C   0  0  0  0  0  2  0  0  0  0  0  0
  187.8020  178.0390  138.3390 C   0  0  0  0  0  2  0  0  0  0  0  0
  187.9970  176.8560  137.6240 O   0  0  0  0  0  1  0  0  0  0  0  0
  190.8080  176.9020  140.1930 C   0  0  0  0  0  2  0  0  0  0  0  0
  190.8990  175.7980  139.3030 O   0  0  0  0  0  0  0  0  0  0  0  0
  191.3910  175.9460  138.0350 C   0  0  0  0  0  0  0  0  0  0  0  0
  191.8240  176.0790  136.9160 C   0  0  0  0  0  3  0  0  0  0  0  0
  1 10  1  0  0  0  0
  1  5  1  0  0  0  0
  3  9  1  6  0  0  0
  3 11  1  0  0  0  0
  4  6  1  0  0  0  0
  6 17  1  1  0  0  0
  6 12  1  0  0  0  0
  7  9  1  0  0  0  0
  8  5  1  6  0  0  0
  8  4  1  0  0  0  0
  8  3  1  0  0  0  0
 10 14  1  1  0  0  0
 10  7  1  0  0  0  0
 11  2  1  0  0  0  0
 12  2  1  0  0  0  0
 13 14  1  0  0  0  0
 15 13  2  0  0  0  0
 16 13  1  0  0  0  0
 18 17  1  0  0  0  0
 19 24  1  6  0  0  0
 19 18  1  0  0  0  0
 19 20  1  0  0  0  0
 20 22  1  0  0  0  0
 21 22  2  0  0  0  0
 22 23  1  0  0  0  0
 25 26  1  6  0  0  0
 25 24  1  0  0  0  0
 27 26  1  0  0  0  0
 28 27  1  0  0  0  0
 29 25  1  0  0  0  0
 30 29  1  0  0  0  0
 31 30  1  0  0  0  0
 32 31  3  0  0  0  0
M  END
>  <MODEL>
8

>  <REMARK>
 VINA RESULT:      -6.5      2.279      3.597
  Name = 
  13 active torsions:
  status: ('A' for Active; 'I' for Inactive)
    1  A    between atoms: C_5  and  C_25
    2  A    between atoms: O_6  and  C_7
    3  A    between atoms: O_6  and  C_32
    4  A    between atoms: N_10  and  C_24
    5  A    between atoms: C_11  and  C_27
    6  A    between atoms: C_11  and  C_30
    7  A    between atoms: C_11  and  C_32
    8  A    between atoms: C_14  and  N_15
    9  A    between atoms: N_15  and  C_26
   10  A    between atoms: C_16  and  C_25
   11  A    between atoms: C_16  and  C_26
   12  A    between atoms: C_16  and  C_27
   13  A    between atoms: C_18  and  C_30
                            x       y       z     vdW  Elec       q    Type
                         _______ _______ _______ _____ _____    ______ ____

>  <TORSDO>
F 13

$$$$
=
 OpenBabel10272413263D

 32 33  0  0  1  0  0  0  0  0999 V2000
  192.2310  176.7450  138.4100 C   0  0  0  0  0  2  0  0  0  0  0  0
  186.7870  177.1510  137.3990 C   0  0  0  0  0  2  0  0  0  0  0  0
  189.2300  176.7110  137.3670 C   0  0  2  0  0  3  0  0  0  0  0  0
  189.0520  178.6960  139.0230 C   0  0  0  0  0  2  0  0  0  0  0  0
  190.9610  177.0910  139.1710 C   0  0  0  0  0  2  0  0  0  0  0  0
  187.7880  178.0270  139.5560 C   0  0  2  0  0  3  0  0  0  0  0  0
  190.9180  174.9020  137.0940 C   0  0  0  0  0  2  0  0  0  0  0  0
  189.9650  177.7540  138.2280 C   0  0  1  0  0  3  0  0  0  0  0  0
  190.1810  176.0350  136.3890 C   0  0  0  0  0  2  0  0  0  0  0  0
  192.2060  175.3310  137.8160 C   0  0  1  0  0  3  0  0  0  0  0  0
  188.0690  177.3150  136.5930 C   0  0  0  0  0  2  0  0  0  0  0  0
  186.6760  178.1780  138.5190 C   0  0  0  0  0  2  0  0  0  0  0  0
  194.4990  174.2910  137.3490 C   0  0  0  0  0  0  0  0  0  0  0  0
  193.3760  175.0960  136.9760 N   0  0  0  0  0  2  0  0  0  0  0  0
  194.5110  173.6600  138.4390 O   0  0  0  0  0  0  0  0  0  0  0  0
  195.6690  174.1950  136.4360 C   0  0  0  0  0  1  0  0  0  0  0  0
  187.3940  178.6870  140.7910 N   0  0  0  0  0  2  0  0  0  0  0  0
  187.9090  177.8900  141.8960 C   0  0  0  0  0  2  0  0  0  0  0  0
  186.7860  177.5710  142.8760 C   0  0  2  0  0  3  0  0  0  0  0  0
  186.0510  178.8430  143.2730 C   0  0  0  0  0  2  0  0  0  0  0  0
  183.7190  179.2110  143.9160 C   0  0  0  0  0  2  0  0  0  0  0  0
  184.5800  178.7170  143.0330 C   0  0  0  0  0  0  0  0  0  0  0  0
  184.0740  178.0320  141.8100 C   0  0  0  0  0  1  0  0  0  0  0  0
  187.3610  176.9130  144.1190 C   0  0  0  0  0  2  0  0  0  0  0  0
  187.7300  177.9580  145.1670 C   0  0  1  0  0  3  0  0  0  0  0  0
  187.0500  177.6730  146.5080 C   0  0  0  0  0  2  0  0  0  0  0  0
  186.1710  178.8190  146.9990 C   0  0  0  0  0  2  0  0  0  0  0  0
  184.8420  178.4040  147.0890 O   0  0  0  0  0  1  0  0  0  0  0  0
  189.2460  178.0920  145.3040 C   0  0  0  0  0  2  0  0  0  0  0  0
  189.8460  176.8250  145.5330 O   0  0  0  0  0  0  0  0  0  0  0  0
  190.7570  176.6410  146.5380 C   0  0  0  0  0  0  0  0  0  0  0  0
  191.5600  176.4810  147.4250 C   0  0  0  0  0  3  0  0  0  0  0  0
  1  5  1  0  0  0  0
  2 12  1  0  0  0  0
  3  9  1  6  0  0  0
  3  8  1  0  0  0  0
  4  6  1  0  0  0  0
  6 17  1  1  0  0  0
  7 10  1  0  0  0  0
  8  4  1  1  0  0  0
  8  5  1  0  0  0  0
  9  7  1  0  0  0  0
 10 14  1  6  0  0  0
 10  1  1  0  0  0  0
 11  3  1  0  0  0  0
 11  2  1  0  0  0  0
 12  6  1  0  0  0  0
 13 15  2  0  0  0  0
 14 13  1  0  0  0  0
 16 13  1  0  0  0  0
 17 18  1  0  0  0  0
 19 18  1  6  0  0  0
 19 20  1  0  0  0  0
 19 24  1  0  0  0  0
 22 20  1  0  0  0  0
 22 21  2  0  0  0  0
 23 22  1  0  0  0  0
 25 24  1  6  0  0  0
 25 29  1  0  0  0  0
 25 26  1  0  0  0  0
 26 27  1  0  0  0  0
 27 28  1  0  0  0  0
 29 30  1  0  0  0  0
 30 31  1  0  0  0  0
 31 32  3  0  0  0  0
M  END
>  <MODEL>
9

>  <REMARK>
 VINA RESULT:      -6.5      3.869      7.377
  Name = 
  13 active torsions:
  status: ('A' for Active; 'I' for Inactive)
    1  A    between atoms: C_5  and  C_25
    2  A    between atoms: O_6  and  C_7
    3  A    between atoms: O_6  and  C_32
    4  A    between atoms: N_10  and  C_24
    5  A    between atoms: C_11  and  C_27
    6  A    between atoms: C_11  and  C_30
    7  A    between atoms: C_11  and  C_32
    8  A    between atoms: C_14  and  N_15
    9  A    between atoms: N_15  and  C_26
   10  A    between atoms: C_16  and  C_25
   11  A    between atoms: C_16  and  C_26
   12  A    between atoms: C_16  and  C_27
   13  A    between atoms: C_18  and  C_30
                            x       y       z     vdW  Elec       q    Type
                         _______ _______ _______ _____ _____    ______ ____

>  <TORSDO>
F 13

$$$$
