=
 OpenBabel10272400293D

 31 35  0  0  1  0  0  0  0  0999 V2000
  190.6530  176.7580  143.1280 N   0  0  0  0  0  0  0  0  0  0  0  0
  187.1190  178.0930  143.6010 C   0  0  0  0  0  0  0  0  0  0  0  0
  186.8310  178.1280  144.9910 C   0  0  0  0  0  0  0  0  0  0  0  0
  186.3790  178.3300  138.3190 O   0  0  0  0  0  0  0  0  0  0  0  0
  185.2680  178.4160  138.9090 C   0  0  0  0  0  0  0  0  0  0  0  0
  187.4620  177.9220  147.3230 C   0  0  0  0  0  0  0  0  0  0  0  0
  188.4460  177.7440  143.0170 C   0  0  0  0  0  0  0  0  0  0  0  0
  191.0410  177.2820  141.8230 C   0  0  0  0  0  2  0  0  0  0  0  0
  187.8010  177.8660  145.9700 C   0  0  0  0  0  3  0  0  0  0  0  0
  186.3290  178.3780  141.2390 C   0  0  0  0  0  0  0  0  0  0  0  0
  191.6070  175.9790  143.8930 C   0  0  0  0  0  1  0  0  0  0  0  0
  184.5420  178.7480  144.4770 C   0  0  0  0  0  3  0  0  0  0  0  0
  188.4920  177.6390  148.3560 C   0  0  0  0  0  1  0  0  0  0  0  0
  187.5380  178.2350  140.7750 N   0  0  0  0  0  0  0  0  0  0  0  0
  186.0840  178.4150  142.6960 C   0  0  0  0  0  0  0  0  0  0  0  0
  185.2090  178.4480  140.3450 N   0  0  0  0  0  2  0  0  0  0  0  0
  189.3790  177.0710  143.7050 C   0  0  0  0  0  3  0  0  0  0  0  0
  186.1930  178.2330  147.6980 N   0  0  0  0  0  0  0  0  0  0  0  0
  188.7410  178.2160  141.6060 C   0  0  2  0  0  3  0  0  0  0  0  0
  189.8180  177.3780  140.9210 C   0  0  0  0  0  2  0  0  0  0  0  0
  184.8390  178.7200  143.1550 N   0  0  0  0  0  0  0  0  0  0  0  0
  185.5260  178.4580  145.4170 C   0  0  0  0  0  0  0  0  0  0  0  0
  185.2270  178.5020  146.7800 C   0  0  0  0  0  3  0  0  0  0  0  0
  181.4160  178.0950  137.0170 C   0  0  1  0  0  3  0  0  0  0  0  0
  183.8670  177.6640  137.0740 C   0  0  0  0  0  3  0  0  0  0  0  0
  183.3460  180.6590  138.8460 F   0  0  0  0  0  0  0  0  0  0  0  0
  179.9820  178.2110  135.9150 S   0  0  0  0  0  1  0  0  0  0  0  0
  182.6330  177.6510  136.2190 C   0  0  0  0  0  2  0  0  0  0  0  0
  182.8860  179.3790  138.5920 C   0  0  2  0  0  3  0  0  0  0  0  0
  184.0230  178.4900  138.1200 C   0  0  0  0  0  0  0  0  0  0  0  0
  181.7100  179.4610  137.6150 C   0  0  0  0  0  2  0  0  0  0  0  0
  1 17  1  0  0  0  0
  1 11  1  0  0  0  0
  2  3  1  0  0  0  0
  3 22  2  0  0  0  0
  3  9  1  0  0  0  0
  4  5  2  0  0  0  0
  5 16  1  0  0  0  0
  6 18  1  0  0  0  0
  6 13  1  0  0  0  0
  7  2  1  0  0  0  0
  7 17  2  0  0  0  0
  8  1  1  0  0  0  0
  9  6  2  0  0  0  0
 10 15  1  0  0  0  0
 12 22  1  0  0  0  0
 14 10  2  0  0  0  0
 14 19  1  0  0  0  0
 15 21  1  0  0  0  0
 15  2  2  0  0  0  0
 16 10  1  0  0  0  0
 19 20  1  6  0  0  0
 19  7  1  0  0  0  0
 20  8  1  0  0  0  0
 21 12  2  0  0  0  0
 22 23  1  0  0  0  0
 23 18  2  0  0  0  0
 24 27  1  6  0  0  0
 24 31  1  0  0  0  0
 25 30  2  0  0  0  0
 28 24  1  0  0  0  0
 28 25  1  0  0  0  0
 29 26  1  6  0  0  0
 30 29  1  0  0  0  0
 30  5  1  0  0  0  0
 31 29  1  0  0  0  0
M  END
>  <MODEL>
1

>  <REMARK>
 VINA RESULT:     -10.0      0.000      0.000
  Name = 
  1 active torsions:
  status: ('A' for Active; 'I' for Inactive)
    1  A    between atoms: C_9  and  C_22
                            x       y       z     vdW  Elec       q    Type
                         _______ _______ _______ _____ _____    ______ ____

>  <TORSDO>
F 1

$$$$
=
 OpenBabel10272400293D

 31 35  0  0  1  0  0  0  0  0999 V2000
  188.7530  177.3210  146.2660 N   0  0  0  0  0  0  0  0  0  0  0  0
  187.5600  178.0570  142.7260 C   0  0  0  0  0  0  0  0  0  0  0  0
  186.1690  178.3420  142.7680 C   0  0  0  0  0  0  0  0  0  0  0  0
  192.4040  176.9940  140.7500 O   0  0  0  0  0  0  0  0  0  0  0  0
  191.5550  177.0020  139.8170 C   0  0  0  0  0  0  0  0  0  0  0  0
  184.0970  178.7690  143.9520 C   0  0  0  0  0  0  0  0  0  0  0  0
  188.4180  177.8380  143.9260 C   0  0  0  0  0  0  0  0  0  0  0  0
  190.1820  177.6090  146.2080 C   0  0  0  0  0  2  0  0  0  0  0  0
  185.4630  178.4820  143.9720 C   0  0  0  0  0  3  0  0  0  0  0  0
  189.6300  177.6690  141.3670 C   0  0  0  0  0  0  0  0  0  0  0  0
  188.1600  176.9160  147.5260 C   0  0  0  0  0  1  0  0  0  0  0  0
  186.1330  178.4050  140.3430 C   0  0  0  0  0  3  0  0  0  0  0  0
  183.3520  178.9120  145.2290 C   0  0  0  0  0  1  0  0  0  0  0  0
  190.3760  177.6530  142.4350 N   0  0  0  0  0  0  0  0  0  0  0  0
  188.1880  177.9790  141.4640 C   0  0  0  0  0  0  0  0  0  0  0  0
  190.1840  177.3360  140.0860 N   0  0  0  0  0  2  0  0  0  0  0  0
  187.9090  177.5140  145.1230 C   0  0  0  0  0  3  0  0  0  0  0  0
  183.4460  178.9170  142.7670 N   0  0  0  0  0  0  0  0  0  0  0  0
  189.9140  178.0350  143.7680 C   0  0  2  0  0  3  0  0  0  0  0  0
  190.7200  177.2790  144.8220 C   0  0  0  0  0  2  0  0  0  0  0  0
  187.4640  178.1430  140.3240 N   0  0  0  0  0  0  0  0  0  0  0  0
  185.4630  178.5120  141.5570 C   0  0  0  0  0  0  0  0  0  0  0  0
  184.0970  178.7970  141.5800 C   0  0  0  0  0  3  0  0  0  0  0  0
  192.7820  175.3680  136.0300 C   0  0  1  0  0  3  0  0  0  0  0  0
  193.2830  176.5130  138.1830 C   0  0  0  0  0  3  0  0  0  0  0  0
  189.9750  177.3740  137.3480 F   0  0  0  0  0  0  0  0  0  0  0  0
  193.3960  175.0970  134.3460 S   0  0  0  0  0  1  0  0  0  0  0  0
  193.8100  176.1630  136.8220 C   0  0  0  0  0  2  0  0  0  0  0  0
  190.9260  176.3700  137.3870 C   0  0  2  0  0  3  0  0  0  0  0  0
  191.9760  176.6730  138.4410 C   0  0  0  0  0  0  0  0  0  0  0  0
  191.4930  176.1730  135.9780 C   0  0  0  0  0  2  0  0  0  0  0  0
  1 11  1  0  0  0  0
  2  3  1  0  0  0  0
  2  7  1  0  0  0  0
  3  9  1  0  0  0  0
  5 16  1  0  0  0  0
  5  4  2  0  0  0  0
  6  9  2  0  0  0  0
  6 13  1  0  0  0  0
  7 17  2  0  0  0  0
  8  1  1  0  0  0  0
 10 15  1  0  0  0  0
 10 14  2  0  0  0  0
 12 22  1  0  0  0  0
 14 19  1  0  0  0  0
 15  2  2  0  0  0  0
 16 10  1  0  0  0  0
 17  1  1  0  0  0  0
 18  6  1  0  0  0  0
 19  7  1  0  0  0  0
 19 20  1  1  0  0  0
 20  8  1  0  0  0  0
 21 12  2  0  0  0  0
 21 15  1  0  0  0  0
 22 23  1  0  0  0  0
 22  3  2  0  0  0  0
 23 18  2  0  0  0  0
 24 27  1  6  0  0  0
 24 28  1  0  0  0  0
 25 30  2  0  0  0  0
 28 25  1  0  0  0  0
 29 26  1  6  0  0  0
 29 30  1  0  0  0  0
 30  5  1  0  0  0  0
 31 24  1  0  0  0  0
 31 29  1  0  0  0  0
M  END
>  <MODEL>
2

>  <REMARK>
 VINA RESULT:      -9.4      3.970      6.407
  Name = 
  1 active torsions:
  status: ('A' for Active; 'I' for Inactive)
    1  A    between atoms: C_9  and  C_22
                            x       y       z     vdW  Elec       q    Type
                         _______ _______ _______ _____ _____    ______ ____

>  <TORSDO>
F 1

$$$$
=
 OpenBabel10272400293D

 31 35  0  0  1  0  0  0  0  0999 V2000
  190.9480  176.6600  143.0550 N   0  0  0  0  0  0  0  0  0  0  0  0
  187.5180  178.0510  143.9460 C   0  0  0  0  0  0  0  0  0  0  0  0
  187.3880  178.0620  145.3610 C   0  0  0  0  0  0  0  0  0  0  0  0
  186.1990  178.4180  138.7860 O   0  0  0  0  0  0  0  0  0  0  0  0
  185.1630  178.5120  139.4990 C   0  0  0  0  0  0  0  0  0  0  0  0
  188.2710  177.7930  147.6030 C   0  0  0  0  0  0  0  0  0  0  0  0
  188.7650  177.6900  143.2110 C   0  0  0  0  0  0  0  0  0  0  0  0
  191.1990  177.2050  141.7250 C   0  0  0  0  0  2  0  0  0  0  0  0
  188.4560  177.7600  146.2190 C   0  0  0  0  0  3  0  0  0  0  0  0
  186.4760  178.4030  141.6940 C   0  0  0  0  0  0  0  0  0  0  0  0
  191.9650  175.8470  143.6930 C   0  0  0  0  0  1  0  0  0  0  0  0
  185.0700  178.7360  145.1190 C   0  0  0  0  0  3  0  0  0  0  0  0
  189.4030  177.4680  148.5080 C   0  0  0  0  0  1  0  0  0  0  0  0
  187.6220  178.2480  141.0950 N   0  0  0  0  0  0  0  0  0  0  0  0
  186.3960  178.4130  143.1690 C   0  0  0  0  0  0  0  0  0  0  0  0
  185.2660  178.5140  140.9320 N   0  0  0  0  0  2  0  0  0  0  0  0
  189.7530  176.9850  143.7770 C   0  0  0  0  0  3  0  0  0  0  0  0
  187.0590  178.1200  148.1230 N   0  0  0  0  0  0  0  0  0  0  0  0
  188.9100  178.1870  141.7850 C   0  0  2  0  0  3  0  0  0  0  0  0
  189.8860  177.3440  140.9670 C   0  0  0  0  0  2  0  0  0  0  0  0
  185.2170  178.7310  143.7710 N   0  0  0  0  0  0  0  0  0  0  0  0
  186.1460  178.4070  145.9370 C   0  0  0  0  0  0  0  0  0  0  0  0
  186.0020  178.4270  147.3250 C   0  0  0  0  0  3  0  0  0  0  0  0
  181.6680  179.0460  137.0460 C   0  0  1  0  0  3  0  0  0  0  0  0
  183.2420  179.8270  138.8090 C   0  0  0  0  0  3  0  0  0  0  0  0
  183.2730  176.3110  138.9380 F   0  0  0  0  0  0  0  0  0  0  0  0
  179.9880  179.2520  136.3970 S   0  0  0  0  0  1  0  0  0  0  0  0
  181.9050  180.0500  138.1650 C   0  0  0  0  0  2  0  0  0  0  0  0
  183.2530  177.4300  138.1260 C   0  0  2  0  0  3  0  0  0  0  0  0
  183.8390  178.6270  138.8550 C   0  0  0  0  0  0  0  0  0  0  0  0
  181.8240  177.6470  137.6190 C   0  0  0  0  0  2  0  0  0  0  0  0
  1 11  1  0  0  0  0
  1 17  1  0  0  0  0
  2  3  1  0  0  0  0
  3 22  2  0  0  0  0
  3  9  1  0  0  0  0
  4  5  2  0  0  0  0
  5 16  1  0  0  0  0
  6 18  1  0  0  0  0
  6 13  1  0  0  0  0
  7 17  2  0  0  0  0
  7  2  1  0  0  0  0
  8  1  1  0  0  0  0
  9  6  2  0  0  0  0
 10 15  1  0  0  0  0
 12 22  1  0  0  0  0
 14 10  2  0  0  0  0
 14 19  1  0  0  0  0
 15 21  1  0  0  0  0
 15  2  2  0  0  0  0
 16 10  1  0  0  0  0
 19 20  1  6  0  0  0
 19  7  1  0  0  0  0
 20  8  1  0  0  0  0
 21 12  2  0  0  0  0
 22 23  1  0  0  0  0
 23 18  2  0  0  0  0
 24 27  1  1  0  0  0
 24 31  1  0  0  0  0
 24 28  1  0  0  0  0
 25 30  2  0  0  0  0
 28 25  1  0  0  0  0
 29 30  1  0  0  0  0
 29 26  1  1  0  0  0
 30  5  1  0  0  0  0
 31 29  1  0  0  0  0
M  END
>  <MODEL>
3

>  <REMARK>
 VINA RESULT:      -9.3      1.062      1.348
  Name = 
  1 active torsions:
  status: ('A' for Active; 'I' for Inactive)
    1  A    between atoms: C_9  and  C_22
                            x       y       z     vdW  Elec       q    Type
                         _______ _______ _______ _____ _____    ______ ____

>  <TORSDO>
F 1

$$$$
=
 OpenBabel10272400293D

 31 35  0  0  1  0  0  0  0  0999 V2000
  183.2800  178.2910  139.1950 N   0  0  0  0  0  0  0  0  0  0  0  0
  187.0830  178.1270  139.2560 C   0  0  0  0  0  0  0  0  0  0  0  0
  187.5510  177.9880  137.9220 C   0  0  0  0  0  0  0  0  0  0  0  0
  187.1180  178.2850  144.5920 O   0  0  0  0  0  0  0  0  0  0  0  0
  188.2440  177.9070  144.1690 C   0  0  0  0  0  0  0  0  0  0  0  0
  187.2180  177.9440  135.5210 C   0  0  0  0  0  0  0  0  0  0  0  0
  185.6580  178.3470  139.6370 C   0  0  0  0  0  0  0  0  0  0  0  0
  182.9500  178.9810  140.4380 C   0  0  0  0  0  2  0  0  0  0  0  0
  186.7010  178.0820  136.8100 C   0  0  0  0  0  3  0  0  0  0  0  0
  187.5860  178.1840  141.7110 C   0  0  0  0  0  0  0  0  0  0  0  0
  182.2130  177.9120  138.2890 C   0  0  0  0  0  1  0  0  0  0  0  0
  189.8050  177.6920  138.7700 C   0  0  0  0  0  3  0  0  0  0  0  0
  186.3140  178.0380  134.3460 C   0  0  0  0  0  1  0  0  0  0  0  0
  186.3660  178.5430  141.9940 N   0  0  0  0  0  0  0  0  0  0  0  0
  188.0250  178.0610  140.3060 C   0  0  0  0  0  0  0  0  0  0  0  0
  188.5090  177.8530  142.7580 N   0  0  0  0  0  2  0  0  0  0  0  0
  184.6410  178.0600  138.8120 C   0  0  0  0  0  3  0  0  0  0  0  0
  188.5470  177.7210  135.3380 N   0  0  0  0  0  0  0  0  0  0  0  0
  185.3780  178.9560  140.9980 C   0  0  2  0  0  3  0  0  0  0  0  0
  183.9760  178.6330  141.5090 C   0  0  0  0  0  2  0  0  0  0  0  0
  189.3400  177.8380  140.0350 N   0  0  0  0  0  0  0  0  0  0  0  0
  188.9270  177.7670  137.6940 C   0  0  0  0  0  0  0  0  0  0  0  0
  189.4040  177.6330  136.3890 C   0  0  0  0  0  3  0  0  0  0  0  0
  191.1110  176.1280  146.8400 C   0  0  1  0  0  3  0  0  0  0  0  0
  188.9580  177.3010  146.4090 C   0  0  0  0  0  3  0  0  0  0  0  0
  191.1560  178.2890  143.8460 F   0  0  0  0  0  0  0  0  0  0  0  0
  192.3570  175.7890  148.1130 S   0  0  0  0  0  1  0  0  0  0  0  0
  189.9510  176.8940  147.4590 C   0  0  0  0  0  2  0  0  0  0  0  0
  190.7040  177.2450  144.6320 C   0  0  2  0  0  3  0  0  0  0  0  0
  189.2970  177.5260  145.1310 C   0  0  0  0  0  0  0  0  0  0  0  0
  191.7220  176.9880  145.7460 C   0  0  0  0  0  2  0  0  0  0  0  0
  1  8  1  0  0  0  0
  2  7  1  0  0  0  0
  2 15  1  0  0  0  0
  3  2  2  0  0  0  0
  5  4  2  0  0  0  0
  5 30  1  0  0  0  0
  6  9  2  0  0  0  0
  7 19  1  0  0  0  0
  8 20  1  0  0  0  0
  9  3  1  0  0  0  0
 10 14  2  0  0  0  0
 10 16  1  0  0  0  0
 11  1  1  0  0  0  0
 12 21  1  0  0  0  0
 13  6  1  0  0  0  0
 15 10  1  0  0  0  0
 16  5  1  0  0  0  0
 17  1  1  0  0  0  0
 17  7  2  0  0  0  0
 18  6  1  0  0  0  0
 18 23  2  0  0  0  0
 19 20  1  1  0  0  0
 19 14  1  0  0  0  0
 21 15  2  0  0  0  0
 22  3  1  0  0  0  0
 22 12  2  0  0  0  0
 23 22  1  0  0  0  0
 24 28  1  0  0  0  0
 24 27  1  1  0  0  0
 25 28  1  0  0  0  0
 29 26  1  1  0  0  0
 29 30  1  0  0  0  0
 29 31  1  0  0  0  0
 30 25  2  0  0  0  0
 31 24  1  0  0  0  0
M  END
>  <MODEL>
4

>  <REMARK>
 VINA RESULT:      -9.3      4.437      9.286
  Name = 
  1 active torsions:
  status: ('A' for Active; 'I' for Inactive)
    1  A    between atoms: C_9  and  C_22
                            x       y       z     vdW  Elec       q    Type
                         _______ _______ _______ _____ _____    ______ ____

>  <TORSDO>
F 1

$$$$
=
 OpenBabel10272400293D

 31 35  0  0  1  0  0  0  0  0999 V2000
  187.3610  176.6170  135.6940 N   0  0  0  0  0  0  0  0  0  0  0  0
  190.1200  176.9770  138.2930 C   0  0  0  0  0  0  0  0  0  0  0  0
  191.3540  176.6010  137.6970 C   0  0  0  0  0  0  0  0  0  0  0  0
  186.5720  178.3520  142.0370 O   0  0  0  0  0  0  0  0  0  0  0  0
  187.6670  178.0400  142.5810 C   0  0  0  0  0  0  0  0  0  0  0  0
  192.7180  175.9660  135.7960 C   0  0  0  0  0  0  0  0  0  0  0  0
  188.8240  177.0870  137.5630 C   0  0  0  0  0  0  0  0  0  0  0  0
  186.3230  177.5210  136.1760 C   0  0  0  0  0  2  0  0  0  0  0  0
  191.4780  176.3240  136.3280 C   0  0  0  0  0  3  0  0  0  0  0  0
  188.8470  177.6590  140.3410 C   0  0  0  0  0  0  0  0  0  0  0  0
  187.1600  175.9030  134.4490 C   0  0  0  0  0  1  0  0  0  0  0  0
  192.4330  176.8080  139.8600 C   0  0  0  0  0  3  0  0  0  0  0  0
  192.8440  175.6690  134.3460 C   0  0  0  0  0  1  0  0  0  0  0  0
  187.7760  177.9070  139.6420 N   0  0  0  0  0  0  0  0  0  0  0  0
  190.1080  177.2780  139.6720 C   0  0  0  0  0  0  0  0  0  0  0  0
  188.8060  177.7000  141.7750 N   0  0  0  0  0  2  0  0  0  0  0  0
  188.6110  176.4870  136.3840 C   0  0  0  0  0  3  0  0  0  0  0  0
  193.8100  175.8850  136.6020 N   0  0  0  0  0  0  0  0  0  0  0  0
  187.7390  177.9480  138.1810 C   0  0  2  0  0  3  0  0  0  0  0  0
  186.3410  177.5660  137.6980 C   0  0  0  0  0  2  0  0  0  0  0  0
  191.2490  177.1760  140.4080 N   0  0  0  0  0  0  0  0  0  0  0  0
  192.5110  176.5180  138.5020 C   0  0  0  0  0  0  0  0  0  0  0  0
  193.7320  176.1540  137.9330 C   0  0  0  0  0  3  0  0  0  0  0  0
  187.9100  177.3110  146.8150 C   0  0  1  0  0  3  0  0  0  0  0  0
  186.6550  178.0280  144.7880 C   0  0  0  0  0  3  0  0  0  0  0  0
  190.0370  178.7850  144.1800 F   0  0  0  0  0  0  0  0  0  0  0  0
  187.9520  177.4370  148.6230 S   0  0  0  0  0  1  0  0  0  0  0  0
  186.6610  178.0040  146.2890 C   0  0  0  0  0  2  0  0  0  0  0  0
  189.1410  177.8710  144.7030 C   0  0  2  0  0  3  0  0  0  0  0  0
  187.7770  178.0310  144.0530 C   0  0  0  0  0  0  0  0  0  0  0  0
  189.1260  178.0090  146.2270 C   0  0  0  0  0  2  0  0  0  0  0  0
  1  8  1  0  0  0  0
  1 17  1  0  0  0  0
  2 15  1  0  0  0  0
  3  2  2  0  0  0  0
  3 22  1  0  0  0  0
  4  5  2  0  0  0  0
  5 30  1  0  0  0  0
  6  9  2  0  0  0  0
  6 18  1  0  0  0  0
  7 19  1  0  0  0  0
  7  2  1  0  0  0  0
  8 20  1  0  0  0  0
  9  3  1  0  0  0  0
 10 16  1  0  0  0  0
 11  1  1  0  0  0  0
 12 21  1  0  0  0  0
 13  6  1  0  0  0  0
 14 10  2  0  0  0  0
 15 10  1  0  0  0  0
 15 21  2  0  0  0  0
 16  5  1  0  0  0  0
 17  7  2  0  0  0  0
 18 23  2  0  0  0  0
 19 20  1  6  0  0  0
 19 14  1  0  0  0  0
 22 12  2  0  0  0  0
 23 22  1  0  0  0  0
 24 27  1  1  0  0  0
 25 28  1  0  0  0  0
 28 24  1  0  0  0  0
 29 26  1  6  0  0  0
 29 31  1  0  0  0  0
 30 29  1  0  0  0  0
 30 25  2  0  0  0  0
 31 24  1  0  0  0  0
M  END
>  <MODEL>
5

>  <REMARK>
 VINA RESULT:      -8.8      4.660      8.995
  Name = 
  1 active torsions:
  status: ('A' for Active; 'I' for Inactive)
    1  A    between atoms: C_9  and  C_22
                            x       y       z     vdW  Elec       q    Type
                         _______ _______ _______ _____ _____    ______ ____

>  <TORSDO>
F 1

$$$$
=
 OpenBabel10272400293D

 31 35  0  0  1  0  0  0  0  0999 V2000
  185.5100  178.9250  144.0310 N   0  0  0  0  0  0  0  0  0  0  0  0
  188.9620  177.3200  143.9880 C   0  0  0  0  0  0  0  0  0  0  0  0
  189.4590  177.2820  145.3180 C   0  0  0  0  0  0  0  0  0  0  0  0
  188.8490  176.9480  138.6630 O   0  0  0  0  0  0  0  0  0  0  0  0
  190.0290  176.7820  139.0780 C   0  0  0  0  0  0  0  0  0  0  0  0
  189.2170  177.5710  147.7130 C   0  0  0  0  0  0  0  0  0  0  0  0
  187.5910  177.7650  143.6070 C   0  0  0  0  0  0  0  0  0  0  0  0
  184.8840  178.4150  142.8160 C   0  0  0  0  0  2  0  0  0  0  0  0
  188.6770  177.6340  146.4270 C   0  0  0  0  0  3  0  0  0  0  0  0
  189.3500  176.9380  141.5420 C   0  0  0  0  0  0  0  0  0  0  0  0
  184.7500  179.7890  144.9130 C   0  0  0  0  0  1  0  0  0  0  0  0
  191.5860  176.4740  144.4740 C   0  0  0  0  0  3  0  0  0  0  0  0
  188.3860  177.9510  148.8850 C   0  0  0  0  0  1  0  0  0  0  0  0
  188.0980  177.1700  141.2660 N   0  0  0  0  0  0  0  0  0  0  0  0
  189.8150  176.9030  142.9430 C   0  0  0  0  0  0  0  0  0  0  0  0
  190.3070  176.7660  140.4870 N   0  0  0  0  0  2  0  0  0  0  0  0
  186.8310  178.5200  144.4130 C   0  0  0  0  0  3  0  0  0  0  0  0
  190.5020  177.1650  147.8960 N   0  0  0  0  0  0  0  0  0  0  0  0
  187.0440  177.2980  142.2720 C   0  0  2  0  0  3  0  0  0  0  0  0
  185.9410  178.2090  141.7380 C   0  0  0  0  0  2  0  0  0  0  0  0
  191.0890  176.5060  143.2130 N   0  0  0  0  0  0  0  0  0  0  0  0
  190.7860  176.8550  145.5460 C   0  0  0  0  0  0  0  0  0  0  0  0
  191.2890  176.8070  146.8470 C   0  0  0  0  0  3  0  0  0  0  0  0
  193.1980  175.5590  136.4360 C   0  0  1  0  0  3  0  0  0  0  0  0
  192.3920  176.5920  138.5520 C   0  0  0  0  0  3  0  0  0  0  0  0
  189.8840  177.1630  136.1510 F   0  0  0  0  0  0  0  0  0  0  0  0
  194.6090  175.4740  135.3010 S   0  0  0  0  0  1  0  0  0  0  0  0
  193.5750  176.3970  137.6490 C   0  0  0  0  0  2  0  0  0  0  0  0
  190.8020  176.2630  136.6620 C   0  0  2  0  0  3  0  0  0  0  0  0
  191.1260  176.5970  138.1080 C   0  0  0  0  0  0  0  0  0  0  0  0
  192.0240  176.2270  135.7400 C   0  0  0  0  0  2  0  0  0  0  0  0
  1 17  1  0  0  0  0
  1 11  1  0  0  0  0
  2  3  1  0  0  0  0
  3 22  2  0  0  0  0
  3  9  1  0  0  0  0
  4  5  2  0  0  0  0
  5 16  1  0  0  0  0
  6 18  1  0  0  0  0
  6 13  1  0  0  0  0
  7  2  1  0  0  0  0
  7 17  2  0  0  0  0
  8  1  1  0  0  0  0
  9  6  2  0  0  0  0
 10 15  1  0  0  0  0
 12 22  1  0  0  0  0
 14 10  2  0  0  0  0
 14 19  1  0  0  0  0
 15 21  1  0  0  0  0
 15  2  2  0  0  0  0
 16 10  1  0  0  0  0
 19 20  1  6  0  0  0
 19  7  1  0  0  0  0
 20  8  1  0  0  0  0
 21 12  2  0  0  0  0
 22 23  1  0  0  0  0
 23 18  2  0  0  0  0
 24 27  1  6  0  0  0
 24 28  1  0  0  0  0
 28 25  1  0  0  0  0
 29 26  1  6  0  0  0
 29 30  1  0  0  0  0
 30 25  2  0  0  0  0
 30  5  1  0  0  0  0
 31 24  1  0  0  0  0
 31 29  1  0  0  0  0
M  END
>  <MODEL>
6

>  <REMARK>
 VINA RESULT:      -8.7      4.161      6.578
  Name = 
  1 active torsions:
  status: ('A' for Active; 'I' for Inactive)
    1  A    between atoms: C_9  and  C_22
                            x       y       z     vdW  Elec       q    Type
                         _______ _______ _______ _____ _____    ______ ____

>  <TORSDO>
F 1

$$$$
=
 OpenBabel10272400293D

 31 35  0  0  1  0  0  0  0  0999 V2000
  191.2580  176.8590  144.5380 N   0  0  0  0  0  0  0  0  0  0  0  0
  187.6720  177.9630  143.8900 C   0  0  0  0  0  0  0  0  0  0  0  0
  187.0030  178.0820  145.1370 C   0  0  0  0  0  0  0  0  0  0  0  0
  188.4380  177.7470  138.6110 O   0  0  0  0  0  0  0  0  0  0  0  0
  187.2030  177.7960  138.8610 C   0  0  0  0  0  0  0  0  0  0  0  0
  186.9630  178.0990  147.5610 C   0  0  0  0  0  0  0  0  0  0  0  0
  189.1260  177.6700  143.7310 C   0  0  0  0  0  0  0  0  0  0  0  0
  191.9710  177.3100  143.3480 C   0  0  0  0  0  2  0  0  0  0  0  0
  187.6710  177.9660  146.3660 C   0  0  0  0  0  3  0  0  0  0  0  0
  187.5660  178.0110  141.3860 C   0  0  0  0  0  0  0  0  0  0  0  0
  191.9950  176.2120  145.6050 C   0  0  0  0  0  1  0  0  0  0  0  0
  184.9240  178.4920  143.9560 C   0  0  0  0  0  3  0  0  0  0  0  0
  187.6720  177.9700  148.8600 C   0  0  0  0  0  1  0  0  0  0  0  0
  188.8620  177.9230  141.2890 N   0  0  0  0  0  0  0  0  0  0  0  0
  186.9190  178.1400  142.7080 C   0  0  0  0  0  0  0  0  0  0  0  0
  186.7410  177.9320  140.2150 N   0  0  0  0  0  2  0  0  0  0  0  0
  189.8590  177.1210  144.7090 C   0  0  0  0  0  3  0  0  0  0  0  0
  185.6250  178.3430  147.5410 N   0  0  0  0  0  0  0  0  0  0  0  0
  189.7820  178.0540  142.4180 C   0  0  2  0  0  3  0  0  0  0  0  0
  191.0480  177.2480  142.1380 C   0  0  0  0  0  2  0  0  0  0  0  0
  185.5830  178.3860  142.7760 N   0  0  0  0  0  0  0  0  0  0  0  0
  185.6160  178.3470  145.1540 C   0  0  0  0  0  0  0  0  0  0  0  0
  184.9450  178.4710  146.3710 C   0  0  0  0  0  3  0  0  0  0  0  0
  184.2750  176.8960  135.8380 C   0  0  1  0  0  3  0  0  0  0  0  0
  186.6300  177.2410  136.5680 C   0  0  0  0  0  3  0  0  0  0  0  0
  184.6400  179.2520  138.6600 F   0  0  0  0  0  0  0  0  0  0  0  0
  183.1830  176.8930  134.3910 S   0  0  0  0  0  1  0  0  0  0  0  0
  185.7130  177.1090  135.3870 C   0  0  0  0  0  2  0  0  0  0  0  0
  184.7660  178.0320  138.0200 C   0  0  2  0  0  3  0  0  0  0  0  0
  186.2280  177.7190  137.7550 C   0  0  0  0  0  0  0  0  0  0  0  0
  183.8910  178.0400  136.7630 C   0  0  0  0  0  2  0  0  0  0  0  0
  1 17  1  0  0  0  0
  1 11  1  0  0  0  0
  2  3  1  0  0  0  0
  3 22  2  0  0  0  0
  3  9  1  0  0  0  0
  4  5  2  0  0  0  0
  5 16  1  0  0  0  0
  6 13  1  0  0  0  0
  7  2  1  0  0  0  0
  7 17  2  0  0  0  0
  8  1  1  0  0  0  0
  9  6  2  0  0  0  0
 10 15  1  0  0  0  0
 12 22  1  0  0  0  0
 14 10  2  0  0  0  0
 14 19  1  0  0  0  0
 15 21  1  0  0  0  0
 15  2  2  0  0  0  0
 16 10  1  0  0  0  0
 18  6  1  0  0  0  0
 19 20  1  6  0  0  0
 19  7  1  0  0  0  0
 20  8  1  0  0  0  0
 21 12  2  0  0  0  0
 22 23  1  0  0  0  0
 23 18  2  0  0  0  0
 24 27  1  6  0  0  0
 24 31  1  0  0  0  0
 25 30  2  0  0  0  0
 28 24  1  0  0  0  0
 28 25  1  0  0  0  0
 29 26  1  6  0  0  0
 30 29  1  0  0  0  0
 30  5  1  0  0  0  0
 31 29  1  0  0  0  0
M  END
>  <MODEL>
7

>  <REMARK>
 VINA RESULT:      -8.6      1.482      1.814
  Name = 
  1 active torsions:
  status: ('A' for Active; 'I' for Inactive)
    1  A    between atoms: C_9  and  C_22
                            x       y       z     vdW  Elec       q    Type
                         _______ _______ _______ _____ _____    ______ ____

>  <TORSDO>
F 1

$$$$
=
 OpenBabel10272400293D

 31 35  0  0  1  0  0  0  0  0999 V2000
  185.5480  178.7410  145.8310 N   0  0  0  0  0  0  0  0  0  0  0  0
  186.2620  178.3800  142.1090 C   0  0  0  0  0  0  0  0  0  0  0  0
  187.6450  178.1030  141.9390 C   0  0  0  0  0  0  0  0  0  0  0  0
  181.2070  179.6040  140.9040 O   0  0  0  0  0  0  0  0  0  0  0  0
  181.9270  179.6980  139.8720 C   0  0  0  0  0  0  0  0  0  0  0  0
  189.8510  177.5710  142.7910 C   0  0  0  0  0  0  0  0  0  0  0  0
  185.5700  178.4690  143.4270 C   0  0  0  0  0  0  0  0  0  0  0  0
  184.1220  178.4500  145.9320 C   0  0  0  0  0  2  0  0  0  0  0  0
  188.5020  177.8450  143.0190 C   0  0  0  0  0  3  0  0  0  0  0  0
  184.0340  178.8900  141.0800 C   0  0  0  0  0  0  0  0  0  0  0  0
  186.3040  179.0190  147.0380 C   0  0  0  0  0  1  0  0  0  0  0  0
  187.3620  178.2890  139.5370 C   0  0  0  0  0  3  0  0  0  0  0  0
  190.7570  177.3030  143.9380 C   0  0  0  0  0  1  0  0  0  0  0  0
  183.4340  178.7920  142.2320 N   0  0  0  0  0  0  0  0  0  0  0  0
  185.4740  178.5830  140.9550 C   0  0  0  0  0  0  0  0  0  0  0  0
  183.3190  179.3490  139.9240 N   0  0  0  0  0  2  0  0  0  0  0  0
  186.2330  178.6720  144.5740 C   0  0  0  0  0  3  0  0  0  0  0  0
  190.3400  177.5500  141.5220 N   0  0  0  0  0  0  0  0  0  0  0  0
  184.0650  178.2770  143.4470 C   0  0  2  0  0  3  0  0  0  0  0  0
  183.4090  178.9150  144.6700 C   0  0  0  0  0  2  0  0  0  0  0  0
  186.0420  178.5420  139.7190 N   0  0  0  0  0  0  0  0  0  0  0  0
  188.1850  178.0620  140.6350 C   0  0  0  0  0  0  0  0  0  0  0  0
  189.5400  177.7860  140.4490 C   0  0  0  0  0  3  0  0  0  0  0  0
  180.8450  181.2820  136.0200 C   0  0  1  0  0  3  0  0  0  0  0  0
  180.9400  181.4430  138.5020 C   0  0  0  0  0  3  0  0  0  0  0  0
  180.7730  178.0130  137.7370 F   0  0  0  0  0  0  0  0  0  0  0  0
  179.9820  181.9020  134.5510 S   0  0  0  0  0  1  0  0  0  0  0  0
  180.3380  182.0160  137.2520 C   0  0  0  0  0  2  0  0  0  0  0  0
  181.3140  179.2400  137.3990 C   0  0  2  0  0  3  0  0  0  0  0  0
  181.3310  180.1640  138.6040 C   0  0  0  0  0  0  0  0  0  0  0  0
  180.5530  179.8000  136.1940 C   0  0  0  0  0  2  0  0  0  0  0  0
  1  8  1  0  0  0  0
  1 11  1  0  0  0  0
  2  7  1  0  0  0  0
  3  2  1  0  0  0  0
  3  9  1  0  0  0  0
  5 16  1  0  0  0  0
  5  4  2  0  0  0  0
  6  9  2  0  0  0  0
  6 13  1  0  0  0  0
  7 19  1  0  0  0  0
  7 17  2  0  0  0  0
 10 14  2  0  0  0  0
 12 21  2  0  0  0  0
 12 22  1  0  0  0  0
 14 19  1  0  0  0  0
 15 10  1  0  0  0  0
 15  2  2  0  0  0  0
 16 10  1  0  0  0  0
 17  1  1  0  0  0  0
 18  6  1  0  0  0  0
 19 20  1  1  0  0  0
 20  8  1  0  0  0  0
 21 15  1  0  0  0  0
 22  3  2  0  0  0  0
 23 22  1  0  0  0  0
 23 18  2  0  0  0  0
 24 27  1  6  0  0  0
 24 31  1  0  0  0  0
 24 28  1  0  0  0  0
 25 30  2  0  0  0  0
 28 25  1  0  0  0  0
 29 26  1  1  0  0  0
 29 30  1  0  0  0  0
 30  5  1  0  0  0  0
 31 29  1  0  0  0  0
M  END
>  <MODEL>
8

>  <REMARK>
 VINA RESULT:      -8.6      2.155      4.790
  Name = 
  1 active torsions:
  status: ('A' for Active; 'I' for Inactive)
    1  A    between atoms: C_9  and  C_22
                            x       y       z     vdW  Elec       q    Type
                         _______ _______ _______ _____ _____    ______ ____

>  <TORSDO>
F 1

$$$$
=
 OpenBabel10272400293D

 31 35  0  0  1  0  0  0  0  0999 V2000
  181.2870  178.5170  142.2920 N   0  0  0  0  0  0  0  0  0  0  0  0
  184.9160  178.4030  141.1490 C   0  0  0  0  0  0  0  0  0  0  0  0
  184.9410  178.3070  139.7320 C   0  0  0  0  0  0  0  0  0  0  0  0
  186.6300  178.4120  146.2050 O   0  0  0  0  0  0  0  0  0  0  0  0
  187.5670  178.0620  145.4380 C   0  0  0  0  0  0  0  0  0  0  0  0
  183.8690  178.3250  137.5570 C   0  0  0  0  0  0  0  0  0  0  0  0
  183.6830  178.5930  141.9650 C   0  0  0  0  0  0  0  0  0  0  0  0
  181.3630  179.1670  143.5960 C   0  0  0  0  0  2  0  0  0  0  0  0
  183.7840  178.4200  138.9470 C   0  0  0  0  0  3  0  0  0  0  0  0
  186.1670  178.3980  143.3210 C   0  0  0  0  0  0  0  0  0  0  0  0
  179.9900  178.1490  141.7570 C   0  0  0  0  0  1  0  0  0  0  0  0
  187.3480  178.0180  139.8170 C   0  0  0  0  0  3  0  0  0  0  0  0
  182.6410  178.4410  136.7300 C   0  0  0  0  0  1  0  0  0  0  0  0
  185.0970  178.7320  143.9840 N   0  0  0  0  0  0  0  0  0  0  0  0
  186.1420  178.3200  141.8460 C   0  0  0  0  0  0  0  0  0  0  0  0
  187.3740  178.0500  144.0140 N   0  0  0  0  0  2  0  0  0  0  0  0
  182.4600  178.3150  141.4930 C   0  0  0  0  0  3  0  0  0  0  0  0
  185.0740  178.1250  136.9580 N   0  0  0  0  0  0  0  0  0  0  0  0
  183.8430  179.1600  143.3630 C   0  0  2  0  0  3  0  0  0  0  0  0
  182.6750  178.8030  144.2790 C   0  0  0  0  0  2  0  0  0  0  0  0
  187.3050  178.1230  141.1690 N   0  0  0  0  0  0  0  0  0  0  0  0
  186.1760  178.1110  139.0750 C   0  0  0  0  0  0  0  0  0  0  0  0
  186.2190  178.0200  137.6830 C   0  0  0  0  0  3  0  0  0  0  0  0
  191.0850  176.2630  147.1430 C   0  0  1  0  0  3  0  0  0  0  0  0
  189.0100  177.6250  147.3410 C   0  0  0  0  0  3  0  0  0  0  0  0
  190.1750  178.0640  144.0500 F   0  0  0  0  0  0  0  0  0  0  0  0
  192.6840  175.9220  147.9250 S   0  0  0  0  0  1  0  0  0  0  0  0
  190.2890  177.2220  148.0160 C   0  0  0  0  0  2  0  0  0  0  0  0
  189.9730  177.1720  145.0870 C   0  0  2  0  0  3  0  0  0  0  0  0
  188.8710  177.6680  146.0070 C   0  0  0  0  0  0  0  0  0  0  0  0
  191.3090  176.9220  145.7920 C   0  0  0  0  0  2  0  0  0  0  0  0
  1  8  1  0  0  0  0
  2 15  1  0  0  0  0
  2  7  1  0  0  0  0
  3  2  2  0  0  0  0
  5 30  1  0  0  0  0
  5  4  2  0  0  0  0
  6  9  2  0  0  0  0
  7 19  1  0  0  0  0
  8 20  1  0  0  0  0
  9  3  1  0  0  0  0
 10 14  2  0  0  0  0
 10 16  1  0  0  0  0
 11  1  1  0  0  0  0
 12 21  1  0  0  0  0
 13  6  1  0  0  0  0
 15 10  1  0  0  0  0
 16  5  1  0  0  0  0
 17  7  2  0  0  0  0
 17  1  1  0  0  0  0
 18  6  1  0  0  0  0
 18 23  2  0  0  0  0
 19 14  1  0  0  0  0
 19 20  1  1  0  0  0
 21 15  2  0  0  0  0
 22  3  1  0  0  0  0
 22 12  2  0  0  0  0
 23 22  1  0  0  0  0
 24 27  1  1  0  0  0
 24 28  1  0  0  0  0
 25 28  1  0  0  0  0
 29 26  1  6  0  0  0
 29 31  1  0  0  0  0
 29 30  1  0  0  0  0
 30 25  2  0  0  0  0
 31 24  1  0  0  0  0
M  END
>  <MODEL>
9

>  <REMARK>
 VINA RESULT:      -8.0      4.308      9.150
  Name = 
  1 active torsions:
  status: ('A' for Active; 'I' for Inactive)
    1  A    between atoms: C_9  and  C_22
                            x       y       z     vdW  Elec       q    Type
                         _______ _______ _______ _____ _____    ______ ____

>  <TORSDO>
F 1

$$$$
