=
 OpenBabel10272400173D

 31 36  0  0  1  0  0  0  0  0999 V2000
  193.4710  174.4090  135.0350 S   0  0  0  0  0  0  0  0  0  0  0  0
  189.1780  175.2910  136.7690 C   0  0  2  0  0  3  0  0  0  0  0  0
  187.7210  175.4310  137.1840 C   0  0  2  0  0  3  0  0  0  0  0  0
  185.3340  174.7580  136.5190 C   0  0  0  0  0  2  0  0  0  0  0  0
  189.8120  173.9210  136.9280 C   0  0  0  0  0  2  0  0  0  0  0  0
  192.2710  174.4190  136.3990 C   0  0  1  0  0  0  0  0  0  0  0  0
  186.8220  174.7270  136.1600 C   0  0  0  0  0  2  0  0  0  0  0  0
  193.3440  176.1630  135.5090 C   0  0  0  0  0  2  0  0  0  0  0  0
  189.1260  178.7020  137.4800 O   0  0  0  0  0  0  0  0  0  0  0  0
  184.8200  176.1250  136.9810 C   0  0  0  0  0  2  0  0  0  0  0  0
  191.0950  176.7820  136.4100 C   0  0  0  0  0  2  0  0  0  0  0  0
  189.9530  176.4490  137.3780 C   0  0  1  0  0  0  0  0  0  0  0  0
  192.3590  175.9350  136.6340 C   0  0  1  0  0  3  0  0  0  0  0  0
  185.2570  177.2890  136.0830 C   0  0  0  0  0  2  0  0  0  0  0  0
  190.9450  173.8150  135.9140 C   0  0  0  0  0  2  0  0  0  0  0  0
  192.8320  173.6550  137.5860 C   0  0  0  0  0  1  0  0  0  0  0  0
  188.8900  177.5090  137.3670 C   0  0  0  0  0  0  0  0  0  0  0  0
  187.5030  176.9610  137.2760 C   0  0  1  0  0  3  0  0  0  0  0  0
  186.7720  177.5430  136.0580 C   0  0  0  0  0  2  0  0  0  0  0  0
  190.3180  177.2060  139.8390 C   0  0  2  0  0  3  0  0  0  0  0  0
  190.4830  176.0960  138.8070 C   0  0  2  0  0  3  0  0  0  0  0  0
  191.6830  176.9200  139.2280 C   0  0  0  0  0  2  0  0  0  0  0  0
  190.2300  176.6180  141.1730 N   0  0  0  0  0  0  0  0  0  0  0  0
  190.6680  177.7260  143.4060 C   0  0  1  0  0  3  0  0  0  0  0  0
  191.5910  176.5130  143.2800 C   0  0  0  0  0  2  0  0  0  0  0  0
  191.6050  179.1260  144.0950 S   0  0  0  0  0  1  0  0  0  0  0  0
  191.1940  177.2890  142.0480 C   0  0  1  0  0  0  0  0  0  0  0  0
  192.2190  178.0380  141.4550 O   0  0  0  0  0  1  0  0  0  0  0  0
  188.8940  176.9050  141.6900 C   0  0  0  0  0  2  0  0  0  0  0  0
  187.1800  178.5640  141.6490 O   0  0  0  0  0  1  0  0  0  0  0  0
  188.2900  178.0870  140.9530 C   0  0  0  0  0  2  0  0  0  0  0  0
  1  8  1  0  0  0  0
  1  6  1  0  0  0  0
  2  5  1  1  0  0  0
  2  3  1  0  0  0  0
  2 12  1  0  0  0  0
  3  7  1  6  0  0  0
  3 18  1  0  0  0  0
  4 10  1  0  0  0  0
  6 13  1  0  0  0  0
  6 16  1  1  0  0  0
  7  4  1  0  0  0  0
 11 13  1  0  0  0  0
 12 11  1  6  0  0  0
 12 21  1  0  0  0  0
 13  8  1  6  0  0  0
 14 10  1  0  0  0  0
 15  6  1  0  0  0  0
 15  5  1  0  0  0  0
 17 12  1  0  0  0  0
 17  9  2  0  0  0  0
 18 19  1  6  0  0  0
 18 17  1  0  0  0  0
 19 14  1  0  0  0  0
 20 23  1  1  0  0  0
 21 22  1  6  0  0  0
 21 20  1  0  0  0  0
 22 20  1  0  0  0  0
 23 29  1  0  0  0  0
 23 27  1  0  0  0  0
 24 26  1  1  0  0  0
 25 24  1  0  0  0  0
 27 28  1  6  0  0  0
 27 25  1  0  0  0  0
 27 24  1  0  0  0  0
 31 30  1  0  0  0  0
 31 29  1  0  0  0  0
M  END
>  <MODEL>
1

>  <REMARK>
 VINA RESULT:      -5.8      0.000      0.000
  Name = 
  5 active torsions:
  status: ('A' for Active; 'I' for Inactive)
    1  A    between atoms: C_3  and  C_7
    2  A    between atoms: C_3  and  N_22
    3  A    between atoms: C_9  and  N_22
    4  A    between atoms: C_15  and  C_21
    5  A    between atoms: C_19  and  N_22
                            x       y       z     vdW  Elec       q    Type
                         _______ _______ _______ _____ _____    ______ ____

>  <TORSDO>
F 5

$$$$
=
 OpenBabel10272400173D

 31 36  0  0  1  0  0  0  0  0999 V2000
  193.4520  174.6620  135.1410 S   0  0  0  0  0  0  0  0  0  0  0  0
  188.9720  174.8050  136.6010 C   0  0  2  0  0  3  0  0  0  0  0  0
  187.5350  174.6340  137.0720 C   0  0  2  0  0  3  0  0  0  0  0  0
  185.7030  172.8750  137.4420 C   0  0  0  0  0  2  0  0  0  0  0  0
  190.0630  174.2530  137.5000 C   0  0  0  0  0  2  0  0  0  0  0  0
  192.1810  175.1320  136.3510 C   0  0  1  0  0  0  0  0  0  0  0  0
  187.1180  173.1640  136.9350 C   0  0  0  0  0  2  0  0  0  0  0  0
  192.5940  176.0710  134.3680 C   0  0  0  0  0  2  0  0  0  0  0  0
  187.5090  177.4750  134.9060 O   0  0  0  0  0  0  0  0  0  0  0  0
  184.6440  173.8800  136.9800 C   0  0  0  0  0  2  0  0  0  0  0  0
  190.1870  176.2420  135.0240 C   0  0  0  0  0  2  0  0  0  0  0  0
  189.1520  176.2480  136.1560 C   0  0  1  0  0  0  0  0  0  0  0  0
  191.6420  176.3060  135.5190 C   0  0  1  0  0  3  0  0  0  0  0  0
  184.7030  174.2020  135.4820 C   0  0  0  0  0  2  0  0  0  0  0  0
  191.2660  173.9290  136.6220 C   0  0  0  0  0  2  0  0  0  0  0  0
  192.8400  175.6310  137.6260 C   0  0  0  0  0  1  0  0  0  0  0  0
  187.7710  176.5370  135.6440 C   0  0  0  0  0  0  0  0  0  0  0  0
  186.7300  175.6090  136.1790 C   0  0  1  0  0  3  0  0  0  0  0  0
  185.9910  174.9100  135.0310 C   0  0  0  0  0  2  0  0  0  0  0  0
  188.4810  177.5100  138.3280 C   0  0  2  0  0  3  0  0  0  0  0  0
  189.5940  177.1630  137.3460 C   0  0  2  0  0  3  0  0  0  0  0  0
  188.9650  178.5410  137.3160 C   0  0  0  0  0  2  0  0  0  0  0  0
  189.0590  177.7830  139.6400 N   0  0  0  0  0  0  0  0  0  0  0  0
  188.0200  177.8350  141.9480 C   0  0  1  0  0  3  0  0  0  0  0  0
  188.5090  179.2430  141.6080 C   0  0  0  0  0  2  0  0  0  0  0  0
  186.3760  177.9400  142.7230 S   0  0  0  0  0  1  0  0  0  0  0  0
  188.0160  178.3310  140.5110 C   0  0  1  0  0  0  0  0  0  0  0  0
  186.7930  178.6960  139.9320 O   0  0  0  0  0  1  0  0  0  0  0  0
  189.4770  176.5040  140.2090 C   0  0  0  0  0  2  0  0  0  0  0  0
  191.5470  177.6900  140.1940 O   0  0  0  0  0  1  0  0  0  0  0  0
  190.8770  176.6190  140.7850 C   0  0  0  0  0  2  0  0  0  0  0  0
  1  6  1  0  0  0  0
  2  3  1  0  0  0  0
  2  5  1  1  0  0  0
  3  7  1  6  0  0  0
  6 15  1  0  0  0  0
  6 16  1  1  0  0  0
  7  4  1  0  0  0  0
  8  1  1  0  0  0  0
  9 17  2  0  0  0  0
 10  4  1  0  0  0  0
 11 13  1  0  0  0  0
 12 11  1  6  0  0  0
 12  2  1  0  0  0  0
 12 21  1  0  0  0  0
 13  8  1  6  0  0  0
 13  6  1  0  0  0  0
 14 10  1  0  0  0  0
 15  5  1  0  0  0  0
 17 12  1  0  0  0  0
 17 18  1  0  0  0  0
 18 19  1  6  0  0  0
 18  3  1  0  0  0  0
 19 14  1  0  0  0  0
 20 23  1  1  0  0  0
 21 22  1  6  0  0  0
 21 20  1  0  0  0  0
 22 20  1  0  0  0  0
 23 29  1  0  0  0  0
 23 27  1  0  0  0  0
 24 26  1  1  0  0  0
 25 24  1  0  0  0  0
 27 28  1  6  0  0  0
 27 25  1  0  0  0  0
 27 24  1  0  0  0  0
 29 31  1  0  0  0  0
 30 31  1  0  0  0  0
M  END
>  <MODEL>
2

>  <REMARK>
 VINA RESULT:      -5.5      1.850      2.748
  Name = 
  5 active torsions:
  status: ('A' for Active; 'I' for Inactive)
    1  A    between atoms: C_3  and  C_7
    2  A    between atoms: C_3  and  N_22
    3  A    between atoms: C_9  and  N_22
    4  A    between atoms: C_15  and  C_21
    5  A    between atoms: C_19  and  N_22
                            x       y       z     vdW  Elec       q    Type
                         _______ _______ _______ _____ _____    ______ ____

>  <TORSDO>
F 5

$$$$
=
 OpenBabel10272400173D

 31 36  0  0  1  0  0  0  0  0999 V2000
  192.0040  175.2620  135.4590 S   0  0  0  0  0  0  0  0  0  0  0  0
  187.4480  174.9210  136.6200 C   0  0  2  0  0  3  0  0  0  0  0  0
  186.0200  174.6030  137.0380 C   0  0  2  0  0  3  0  0  0  0  0  0
  184.4550  172.6620  137.6480 C   0  0  0  0  0  2  0  0  0  0  0  0
  188.5310  174.7360  137.6670 C   0  0  0  0  0  2  0  0  0  0  0  0
  190.5780  175.7290  136.4830 C   0  0  1  0  0  0  0  0  0  0  0  0
  185.8470  173.0850  137.1700 C   0  0  0  0  0  2  0  0  0  0  0  0
  191.0080  176.3390  134.3800 C   0  0  0  0  0  2  0  0  0  0  0  0
  185.7410  176.9490  134.3570 O   0  0  0  0  0  0  0  0  0  0  0  0
  183.2970  173.3730  136.9410 C   0  0  0  0  0  2  0  0  0  0  0  0
  188.5570  176.2240  134.8590 C   0  0  0  0  0  2  0  0  0  0  0  0
  187.4410  176.2660  135.9110 C   0  0  1  0  0  0  0  0  0  0  0  0
  189.9370  176.6210  135.4090 C   0  0  1  0  0  3  0  0  0  0  0  0
  183.4330  173.4170  135.4140 C   0  0  0  0  0  2  0  0  0  0  0  0
  189.8400  174.4600  136.9360 C   0  0  0  0  0  2  0  0  0  0  0  0
  191.0420  176.5580  137.6680 C   0  0  0  0  0  1  0  0  0  0  0  0
  186.0810  176.2210  135.2780 C   0  0  0  0  0  0  0  0  0  0  0  0
  185.1530  175.2480  135.9290 C   0  0  1  0  0  3  0  0  0  0  0  0
  184.6300  174.2340  134.9020 C   0  0  0  0  0  2  0  0  0  0  0  0
  186.3420  178.1270  137.3570 C   0  0  2  0  0  3  0  0  0  0  0  0
  187.6350  177.4470  136.9190 C   0  0  2  0  0  3  0  0  0  0  0  0
  187.2620  178.8000  136.3470 C   0  0  0  0  0  2  0  0  0  0  0  0
  186.5290  178.7170  138.6790 N   0  0  0  0  0  0  0  0  0  0  0  0
  184.0310  179.0040  138.3820 C   0  0  1  0  0  3  0  0  0  0  0  0
  184.2800  177.6960  139.1350 C   0  0  0  0  0  2  0  0  0  0  0  0
  182.6390  179.8860  139.1540 S   0  0  0  0  0  1  0  0  0  0  0  0
  185.2190  178.8630  139.3200 C   0  0  1  0  0  0  0  0  0  0  0  0
  185.1600  179.4870  140.5740 O   0  0  0  0  0  1  0  0  0  0  0  0
  187.3040  177.7700  139.4760 C   0  0  0  0  0  2  0  0  0  0  0  0
  188.4870  178.6370  141.3590 O   0  0  0  0  0  1  0  0  0  0  0  0
  188.5750  178.4290  139.9830 C   0  0  0  0  0  2  0  0  0  0  0  0
  1  6  1  0  0  0  0
  2  3  1  0  0  0  0
  2  5  1  1  0  0  0
  3  7  1  6  0  0  0
  6 15  1  0  0  0  0
  6 16  1  1  0  0  0
  7  4  1  0  0  0  0
  8  1  1  0  0  0  0
  9 17  2  0  0  0  0
 10  4  1  0  0  0  0
 11 13  1  0  0  0  0
 12 11  1  6  0  0  0
 12  2  1  0  0  0  0
 12 21  1  0  0  0  0
 13  8  1  6  0  0  0
 13  6  1  0  0  0  0
 14 10  1  0  0  0  0
 15  5  1  0  0  0  0
 17 12  1  0  0  0  0
 17 18  1  0  0  0  0
 18 19  1  6  0  0  0
 18  3  1  0  0  0  0
 19 14  1  0  0  0  0
 20 23  1  1  0  0  0
 21 22  1  6  0  0  0
 21 20  1  0  0  0  0
 22 20  1  0  0  0  0
 23 27  1  0  0  0  0
 23 29  1  0  0  0  0
 24 25  1  0  0  0  0
 24 26  1  1  0  0  0
 24 27  1  0  0  0  0
 25 27  1  0  0  0  0
 27 28  1  1  0  0  0
 29 31  1  0  0  0  0
 31 30  1  0  0  0  0
M  END
>  <MODEL>
3

>  <REMARK>
 VINA RESULT:      -5.3      2.888      4.468
  Name = 
  5 active torsions:
  status: ('A' for Active; 'I' for Inactive)
    1  A    between atoms: C_3  and  C_7
    2  A    between atoms: C_3  and  N_22
    3  A    between atoms: C_9  and  N_22
    4  A    between atoms: C_15  and  C_21
    5  A    between atoms: C_19  and  N_22
                            x       y       z     vdW  Elec       q    Type
                         _______ _______ _______ _____ _____    ______ ____

>  <TORSDO>
F 5

$$$$
=
 OpenBabel10272400173D

 31 36  0  0  1  0  0  0  0  0999 V2000
  185.7180  177.2070  134.6200 S   0  0  0  0  0  0  0  0  0  0  0  0
  190.2540  176.4280  135.6380 C   0  0  2  0  0  3  0  0  0  0  0  0
  191.7550  176.2110  135.7560 C   0  0  2  0  0  3  0  0  0  0  0  0
  193.8960  175.9440  134.3640 C   0  0  0  0  0  2  0  0  0  0  0  0
  189.7890  177.7920  135.1630 C   0  0  0  0  0  2  0  0  0  0  0  0
  187.2520  177.6260  135.4980 C   0  0  1  0  0  0  0  0  0  0  0  0
  192.3730  176.1040  134.3560 C   0  0  0  0  0  2  0  0  0  0  0  0
  185.8510  175.9410  135.9230 C   0  0  0  0  0  2  0  0  0  0  0  0
  190.2650  173.9010  138.0380 O   0  0  0  0  0  0  0  0  0  0  0  0
  194.4220  174.9160  135.3700 C   0  0  0  0  0  2  0  0  0  0  0  0
  188.2140  175.3970  136.5340 C   0  0  0  0  0  2  0  0  0  0  0  0
  189.6040  175.9200  136.9160 C   0  0  1  0  0  0  0  0  0  0  0  0
  187.1280  176.4870  136.5210 C   0  0  1  0  0  3  0  0  0  0  0  0
  193.6670  173.5810  135.3480 C   0  0  0  0  0  2  0  0  0  0  0  0
  188.4250  177.6140  134.5070 C   0  0  0  0  0  2  0  0  0  0  0  0
  187.1070  178.9790  136.1750 C   0  0  0  0  0  1  0  0  0  0  0  0
  190.5430  174.8000  137.2580 C   0  0  0  0  0  0  0  0  0  0  0  0
  191.8820  174.9240  136.6070 C   0  0  1  0  0  3  0  0  0  0  0  0
  192.1930  173.6730  135.7730 C   0  0  0  0  0  2  0  0  0  0  0  0
  189.7730  176.5590  139.4300 C   0  0  2  0  0  3  0  0  0  0  0  0
  189.5270  177.0400  138.0050 C   0  0  2  0  0  3  0  0  0  0  0  0
  188.3600  176.8800  138.9590 C   0  0  0  0  0  2  0  0  0  0  0  0
  190.2980  177.6610  140.2310 N   0  0  0  0  0  0  0  0  0  0  0  0
  189.4160  176.5930  142.3500 C   0  0  1  0  0  3  0  0  0  0  0  0
  190.2370  177.8250  142.7360 C   0  0  0  0  0  2  0  0  0  0  0  0
  187.8940  176.5500  143.3460 S   0  0  0  0  0  1  0  0  0  0  0  0
  189.4750  177.8060  141.4340 C   0  0  1  0  0  0  0  0  0  0  0  0
  188.3630  178.6570  141.3780 O   0  0  0  0  0  1  0  0  0  0  0  0
  191.6420  177.2870  140.6620 C   0  0  0  0  0  2  0  0  0  0  0  0
  193.8540  177.5890  139.8190 O   0  0  0  0  0  1  0  0  0  0  0  0
  192.5680  177.1850  139.4630 C   0  0  0  0  0  2  0  0  0  0  0  0
  1  6  1  0  0  0  0
  1  8  1  0  0  0  0
  2  5  1  1  0  0  0
  2  3  1  0  0  0  0
  2 12  1  0  0  0  0
  3  7  1  6  0  0  0
  3 18  1  0  0  0  0
  4 10  1  0  0  0  0
  6 16  1  1  0  0  0
  6 13  1  0  0  0  0
  7  4  1  0  0  0  0
 12 11  1  6  0  0  0
 12 17  1  0  0  0  0
 12 21  1  0  0  0  0
 13  8  1  6  0  0  0
 13 11  1  0  0  0  0
 14 10  1  0  0  0  0
 14 19  1  0  0  0  0
 15  5  1  0  0  0  0
 15  6  1  0  0  0  0
 17  9  2  0  0  0  0
 18 19  1  6  0  0  0
 18 17  1  0  0  0  0
 20 23  1  1  0  0  0
 21 22  1  1  0  0  0
 21 20  1  0  0  0  0
 22 20  1  0  0  0  0
 23 29  1  0  0  0  0
 23 27  1  0  0  0  0
 24 25  1  0  0  0  0
 24 26  1  1  0  0  0
 27 28  1  6  0  0  0
 27 24  1  0  0  0  0
 27 25  1  0  0  0  0
 31 30  1  0  0  0  0
 31 29  1  0  0  0  0
M  END
>  <MODEL>
4

>  <REMARK>
 VINA RESULT:      -5.2      2.312      5.293
  Name = 
  5 active torsions:
  status: ('A' for Active; 'I' for Inactive)
    1  A    between atoms: C_3  and  C_7
    2  A    between atoms: C_3  and  N_22
    3  A    between atoms: C_9  and  N_22
    4  A    between atoms: C_15  and  C_21
    5  A    between atoms: C_19  and  N_22
                            x       y       z     vdW  Elec       q    Type
                         _______ _______ _______ _____ _____    ______ ____

>  <TORSDO>
F 5

$$$$
=
 OpenBabel10272400173D

 31 36  0  0  1  0  0  0  0  0999 V2000
  180.2720  179.5850  138.7070 S   0  0  0  0  0  0  0  0  0  0  0  0
  184.4560  177.5910  137.8500 C   0  0  2  0  0  3  0  0  0  0  0  0
  185.8850  177.0860  137.7210 C   0  0  2  0  0  3  0  0  0  0  0  0
  188.3000  177.5840  138.4350 C   0  0  0  0  0  2  0  0  0  0  0  0
  183.7950  177.4520  139.2090 C   0  0  0  0  0  2  0  0  0  0  0  0
  181.3810  178.1470  138.6890 C   0  0  1  0  0  0  0  0  0  0  0  0
  186.8380  178.0380  138.4540 C   0  0  0  0  0  2  0  0  0  0  0  0
  180.3920  179.1320  136.9470 C   0  0  0  0  0  2  0  0  0  0  0  0
  184.5080  176.9350  134.4270 O   0  0  0  0  0  0  0  0  0  0  0  0
  188.8020  177.1130  137.0670 C   0  0  0  0  0  2  0  0  0  0  0  0
  182.5870  178.0980  136.3410 C   0  0  0  0  0  2  0  0  0  0  0  0
  183.6590  177.0530  136.6710 C   0  0  1  0  0  0  0  0  0  0  0  0
  181.2990  177.9430  137.1680 C   0  0  1  0  0  3  0  0  0  0  0  0
  188.4400  178.0560  135.9120 C   0  0  0  0  0  2  0  0  0  0  0  0
  182.7280  178.5350  139.3180 C   0  0  0  0  0  2  0  0  0  0  0  0
  180.7350  176.9860  139.4260 C   0  0  0  0  0  1  0  0  0  0  0  0
  184.7350  177.0130  135.6260 C   0  0  0  0  0  0  0  0  0  0  0  0
  186.1180  177.0050  136.1920 C   0  0  1  0  0  3  0  0  0  0  0  0
  186.9330  178.1820  135.6400 C   0  0  0  0  0  2  0  0  0  0  0  0
  183.6430  174.4930  136.2200 C   0  0  2  0  0  3  0  0  0  0  0  0
  183.0330  175.6560  136.9940 C   0  0  2  0  0  3  0  0  0  0  0  0
  182.2790  175.0470  135.8280 C   0  0  0  0  0  2  0  0  0  0  0  0
  183.4840  173.2620  136.9900 N   0  0  0  0  0  0  0  0  0  0  0  0
  183.3570  170.7540  136.6740 C   0  0  1  0  0  3  0  0  0  0  0  0
  182.0240  171.3630  136.2360 C   0  0  0  0  0  2  0  0  0  0  0  0
  183.8610  169.4840  135.4710 S   0  0  0  0  0  1  0  0  0  0  0  0
  183.3030  172.1440  136.0610 C   0  0  1  0  0  0  0  0  0  0  0  0
  183.7290  172.3080  134.7350 O   0  0  0  0  0  1  0  0  0  0  0  0
  184.7320  173.0340  137.7130 C   0  0  0  0  0  2  0  0  0  0  0  0
  186.7640  172.3840  136.6430 O   0  0  0  0  0  1  0  0  0  0  0  0
  185.9150  173.4680  136.8650 C   0  0  0  0  0  2  0  0  0  0  0  0
  2  5  1  1  0  0  0
  3  2  1  0  0  0  0
  3  7  1  1  0  0  0
  4  7  1  0  0  0  0
  5 15  1  0  0  0  0
  6  1  1  0  0  0  0
  6 15  1  0  0  0  0
  6 16  1  1  0  0  0
  8 13  1  0  0  0  0
  8  1  1  0  0  0  0
  9 17  2  0  0  0  0
 10  4  1  0  0  0  0
 12 11  1  6  0  0  0
 12 21  1  0  0  0  0
 12  2  1  0  0  0  0
 13 11  1  6  0  0  0
 13  6  1  0  0  0  0
 14 10  1  0  0  0  0
 17 18  1  0  0  0  0
 17 12  1  0  0  0  0
 18 19  1  6  0  0  0
 18  3  1  0  0  0  0
 19 14  1  0  0  0  0
 20 23  1  1  0  0  0
 20 21  1  0  0  0  0
 21 22  1  6  0  0  0
 22 20  1  0  0  0  0
 23 29  1  0  0  0  0
 24 26  1  6  0  0  0
 25 24  1  0  0  0  0
 27 28  1  6  0  0  0
 27 25  1  0  0  0  0
 27 24  1  0  0  0  0
 27 23  1  0  0  0  0
 30 31  1  0  0  0  0
 31 29  1  0  0  0  0
M  END
>  <MODEL>
5

>  <REMARK>
 VINA RESULT:      -5.1      5.081      9.015
  Name = 
  5 active torsions:
  status: ('A' for Active; 'I' for Inactive)
    1  A    between atoms: C_3  and  C_7
    2  A    between atoms: C_3  and  N_22
    3  A    between atoms: C_9  and  N_22
    4  A    between atoms: C_15  and  C_21
    5  A    between atoms: C_19  and  N_22
                            x       y       z     vdW  Elec       q    Type
                         _______ _______ _______ _____ _____    ______ ____

>  <TORSDO>
F 5

$$$$
=
 OpenBabel10272400173D

 31 36  0  0  1  0  0  0  0  0999 V2000
  188.7140  177.1370  135.4870 S   0  0  0  0  0  0  0  0  0  0  0  0
  185.0490  174.3100  136.3760 C   0  0  2  0  0  3  0  0  0  0  0  0
  184.0030  173.2330  136.6290 C   0  0  2  0  0  3  0  0  0  0  0  0
  183.5970  170.7040  136.4680 C   0  0  0  0  0  2  0  0  0  0  0  0
  186.2520  174.3330  137.3010 C   0  0  0  0  0  2  0  0  0  0  0  0
  187.4160  176.5040  136.5890 C   0  0  1  0  0  0  0  0  0  0  0  0
  184.5540  171.8680  136.1980 C   0  0  0  0  0  2  0  0  0  0  0  0
  187.1820  177.8940  134.8580 C   0  0  0  0  0  2  0  0  0  0  0  0
  182.2740  175.8900  134.9800 O   0  0  0  0  0  0  0  0  0  0  0  0
  182.1460  170.9630  136.0510 C   0  0  0  0  0  2  0  0  0  0  0  0
  185.1560  176.4760  135.2260 C   0  0  0  0  0  2  0  0  0  0  0  0
  184.3250  175.6360  136.2050 C   0  0  1  0  0  0  0  0  0  0  0  0
  186.2800  177.2790  135.9030 C   0  0  1  0  0  3  0  0  0  0  0  0
  182.0000  171.5620  134.6460 C   0  0  0  0  0  2  0  0  0  0  0  0
  187.4090  174.9700  136.5390 C   0  0  0  0  0  2  0  0  0  0  0  0
  187.6430  177.0160  138.0010 C   0  0  0  0  0  1  0  0  0  0  0  0
  183.0480  175.1570  135.5790 C   0  0  0  0  0  0  0  0  0  0  0  0
  182.7730  173.7080  135.8170 C   0  0  1  0  0  3  0  0  0  0  0  0
  182.6030  172.9660  134.4850 C   0  0  0  0  0  2  0  0  0  0  0  0
  182.6940  176.7890  137.8690 C   0  0  2  0  0  3  0  0  0  0  0  0
  184.1280  176.3630  137.5760 C   0  0  2  0  0  3  0  0  0  0  0  0
  183.7300  177.8190  137.4380 C   0  0  0  0  0  2  0  0  0  0  0  0
  182.4920  176.8520  139.3140 N   0  0  0  0  0  0  0  0  0  0  0  0
  181.5550  178.3590  141.1190 C   0  0  1  0  0  3  0  0  0  0  0  0
  182.7110  179.0880  140.4340 C   0  0  0  0  0  2  0  0  0  0  0  0
  180.1770  179.5210  141.3720 S   0  0  0  0  0  1  0  0  0  0  0  0
  181.8540  178.1280  139.6460 C   0  0  1  0  0  0  0  0  0  0  0  0
  181.0150  178.7180  138.6920 O   0  0  0  0  0  1  0  0  0  0  0  0
  181.5580  175.7880  139.6720 C   0  0  0  0  0  2  0  0  0  0  0  0
  180.3430  174.0510  138.5780 O   0  0  0  0  0  1  0  0  0  0  0  0
  180.7370  175.3830  138.4600 C   0  0  0  0  0  2  0  0  0  0  0  0
  1  6  1  0  0  0  0
  2  3  1  0  0  0  0
  2  5  1  1  0  0  0
  3  7  1  6  0  0  0
  6 16  1  1  0  0  0
  7  4  1  0  0  0  0
  8  1  1  0  0  0  0
  9 17  2  0  0  0  0
 10  4  1  0  0  0  0
 11 13  1  0  0  0  0
 12 11  1  6  0  0  0
 12  2  1  0  0  0  0
 12 21  1  0  0  0  0
 13  8  1  6  0  0  0
 13  6  1  0  0  0  0
 14 10  1  0  0  0  0
 15  6  1  0  0  0  0
 15  5  1  0  0  0  0
 17 18  1  0  0  0  0
 17 12  1  0  0  0  0
 18 19  1  6  0  0  0
 18  3  1  0  0  0  0
 19 14  1  0  0  0  0
 20 23  1  1  0  0  0
 21 22  1  6  0  0  0
 21 20  1  0  0  0  0
 22 20  1  0  0  0  0
 23 27  1  0  0  0  0
 23 29  1  0  0  0  0
 24 26  1  6  0  0  0
 25 24  1  0  0  0  0
 27 28  1  6  0  0  0
 27 25  1  0  0  0  0
 27 24  1  0  0  0  0
 31 30  1  0  0  0  0
 31 29  1  0  0  0  0
M  END
>  <MODEL>
6

>  <REMARK>
 VINA RESULT:      -4.9      4.967      7.170
  Name = 
  5 active torsions:
  status: ('A' for Active; 'I' for Inactive)
    1  A    between atoms: C_3  and  C_7
    2  A    between atoms: C_3  and  N_22
    3  A    between atoms: C_9  and  N_22
    4  A    between atoms: C_15  and  C_21
    5  A    between atoms: C_19  and  N_22
                            x       y       z     vdW  Elec       q    Type
                         _______ _______ _______ _____ _____    ______ ____

>  <TORSDO>
F 5

$$$$
=
 OpenBabel10272400173D

 31 36  0  0  1  0  0  0  0  0999 V2000
  180.2460  171.8720  135.9990 S   0  0  0  0  0  0  0  0  0  0  0  0
  181.8930  176.0740  137.3600 C   0  0  2  0  0  3  0  0  0  0  0  0
  182.2810  177.4170  137.9610 C   0  0  2  0  0  3  0  0  0  0  0  0
  181.5840  179.1390  139.7330 C   0  0  0  0  0  2  0  0  0  0  0  0
  182.0830  174.8470  138.2340 C   0  0  0  0  0  2  0  0  0  0  0  0
  181.5890  172.9490  136.5810 C   0  0  1  0  0  0  0  0  0  0  0  0
  181.2510  177.8240  139.0230 C   0  0  0  0  0  2  0  0  0  0  0  0
  180.6930  172.8640  134.5390 C   0  0  0  0  0  2  0  0  0  0  0  0
  182.5520  177.8290  134.4230 O   0  0  0  0  0  0  0  0  0  0  0  0
  182.0170  180.2740  138.8010 C   0  0  0  0  0  2  0  0  0  0  0  0
  181.5450  175.1430  135.1150 C   0  0  0  0  0  2  0  0  0  0  0  0
  182.4980  175.9900  135.9680 C   0  0  1  0  0  0  0  0  0  0  0  0
  181.8030  173.6310  135.2210 C   0  0  1  0  0  3  0  0  0  0  0  0
  181.1100  180.4530  137.5770 C   0  0  0  0  0  2  0  0  0  0  0  0
  181.0900  173.7890  137.7660 C   0  0  0  0  0  2  0  0  0  0  0  0
  182.7960  172.1090  136.9610 C   0  0  0  0  0  1  0  0  0  0  0  0
  182.4530  177.4390  135.5770 C   0  0  0  0  0  0  0  0  0  0  0  0
  182.3460  178.3680  136.7410 C   0  0  1  0  0  3  0  0  0  0  0  0
  181.1080  179.2640  136.6040 C   0  0  0  0  0  2  0  0  0  0  0  0
  185.0600  176.4020  135.8110 C   0  0  2  0  0  3  0  0  0  0  0  0
  183.9400  175.3860  136.0050 C   0  0  2  0  0  3  0  0  0  0  0  0
  184.6660  175.4660  134.6760 C   0  0  0  0  0  2  0  0  0  0  0  0
  186.2730  175.9180  136.4640 N   0  0  0  0  0  0  0  0  0  0  0  0
  188.7670  175.6990  136.0860 C   0  0  1  0  0  3  0  0  0  0  0  0
  188.0490  174.7340  135.1400 C   0  0  0  0  0  2  0  0  0  0  0  0
  190.1080  176.5370  135.1840 S   0  0  0  0  0  1  0  0  0  0  0  0
  187.3940  176.0370  135.5270 C   0  0  1  0  0  0  0  0  0  0  0  0
  187.3030  176.9900  134.5030 O   0  0  0  0  0  1  0  0  0  0  0  0
  186.5480  176.8050  137.5910 C   0  0  0  0  0  2  0  0  0  0  0  0
  185.6430  178.7870  138.5640 O   0  0  0  0  0  1  0  0  0  0  0  0
  185.9260  178.1690  137.3470 C   0  0  0  0  0  2  0  0  0  0  0  0
  1  6  1  0  0  0  0
  2  3  1  0  0  0  0
  2  5  1  1  0  0  0
  3  7  1  1  0  0  0
  6 16  1  1  0  0  0
  6 15  1  0  0  0  0
  7  4  1  0  0  0  0
  8  1  1  0  0  0  0
  9 17  2  0  0  0  0
 10  4  1  0  0  0  0
 11 13  1  0  0  0  0
 12 11  1  6  0  0  0
 12 21  1  0  0  0  0
 12  2  1  0  0  0  0
 13  8  1  6  0  0  0
 13  6  1  0  0  0  0
 14 10  1  0  0  0  0
 15  5  1  0  0  0  0
 17 12  1  0  0  0  0
 17 18  1  0  0  0  0
 18 19  1  6  0  0  0
 18  3  1  0  0  0  0
 19 14  1  0  0  0  0
 20 21  1  0  0  0  0
 20 23  1  1  0  0  0
 21 22  1  6  0  0  0
 22 20  1  0  0  0  0
 23 29  1  0  0  0  0
 24 26  1  6  0  0  0
 25 27  1  0  0  0  0
 25 24  1  0  0  0  0
 27 28  1  6  0  0  0
 27 24  1  0  0  0  0
 27 23  1  0  0  0  0
 31 29  1  0  0  0  0
 31 30  1  0  0  0  0
M  END
>  <MODEL>
7

>  <REMARK>
 VINA RESULT:      -4.6      4.480      8.096
  Name = 
  5 active torsions:
  status: ('A' for Active; 'I' for Inactive)
    1  A    between atoms: C_3  and  C_7
    2  A    between atoms: C_3  and  N_22
    3  A    between atoms: C_9  and  N_22
    4  A    between atoms: C_15  and  C_21
    5  A    between atoms: C_19  and  N_22
                            x       y       z     vdW  Elec       q    Type
                         _______ _______ _______ _____ _____    ______ ____

>  <TORSDO>
F 5

$$$$
=
 OpenBabel10272400173D

 31 36  0  0  1  0  0  0  0  0999 V2000
  183.2580  171.1990  135.6270 S   0  0  0  0  0  0  0  0  0  0  0  0
  183.3870  175.5090  137.5310 C   0  0  2  0  0  3  0  0  0  0  0  0
  183.3430  176.8080  138.3220 C   0  0  2  0  0  3  0  0  0  0  0  0
  182.4560  177.8460  140.4950 C   0  0  0  0  0  2  0  0  0  0  0  0
  184.2390  174.3860  138.0940 C   0  0  0  0  0  2  0  0  0  0  0  0
  184.1640  172.6680  136.1920 C   0  0  1  0  0  0  0  0  0  0  0  0
  182.5110  176.6090  139.5950 C   0  0  0  0  0  2  0  0  0  0  0  0
  182.9280  172.4510  134.3460 C   0  0  0  0  0  2  0  0  0  0  0  0
  182.6060  177.7100  134.9440 O   0  0  0  0  0  0  0  0  0  0  0  0
  182.1790  179.1590  139.7560 C   0  0  0  0  0  2  0  0  0  0  0  0
  182.9250  174.7900  135.2290 C   0  0  0  0  0  2  0  0  0  0  0  0
  183.6370  175.8560  136.0710 C   0  0  1  0  0  0  0  0  0  0  0  0
  183.7730  173.5310  134.9830 C   0  0  1  0  0  3  0  0  0  0  0  0
  181.0190  179.0770  138.7560 C   0  0  0  0  0  2  0  0  0  0  0  0
  183.6640  173.0690  137.5880 C   0  0  0  0  0  2  0  0  0  0  0  0
  185.6570  172.3850  136.1940 C   0  0  0  0  0  1  0  0  0  0  0  0
  182.9380  177.1820  135.9950 C   0  0  0  0  0  0  0  0  0  0  0  0
  182.7460  177.8320  137.3260 C   0  0  1  0  0  3  0  0  0  0  0  0
  181.2600  178.1240  137.5740 C   0  0  0  0  0  2  0  0  0  0  0  0
  185.8130  177.2780  136.0260 C   0  0  2  0  0  3  0  0  0  0  0  0
  185.1670  175.9240  135.7530 C   0  0  2  0  0  3  0  0  0  0  0  0
  185.5050  176.8470  134.5980 C   0  0  0  0  0  2  0  0  0  0  0  0
  187.2320  177.0890  136.3140 N   0  0  0  0  0  0  0  0  0  0  0  0
  188.7740  177.5230  138.2750 C   0  0  1  0  0  3  0  0  0  0  0  0
  188.9660  178.6440  137.2530 C   0  0  0  0  0  2  0  0  0  0  0  0
  188.7160  178.2380  139.9480 S   0  0  0  0  0  1  0  0  0  0  0  0
  187.6160  177.9880  137.4060 C   0  0  1  0  0  0  0  0  0  0  0  0
  186.6230  178.7890  137.9860 O   0  0  0  0  0  1  0  0  0  0  0  0
  187.4030  175.7200  136.7940 C   0  0  0  0  0  2  0  0  0  0  0  0
  189.0450  175.8710  135.0690 O   0  0  0  0  0  1  0  0  0  0  0  0
  188.3860  174.9740  135.9090 C   0  0  0  0  0  2  0  0  0  0  0  0
  1  6  1  0  0  0  0
  2  5  1  1  0  0  0
  2  3  1  0  0  0  0
  3  7  1  1  0  0  0
  6 16  1  1  0  0  0
  6 15  1  0  0  0  0
  7  4  1  0  0  0  0
  8  1  1  0  0  0  0
  9 17  2  0  0  0  0
 10  4  1  0  0  0  0
 12 11  1  6  0  0  0
 12  2  1  0  0  0  0
 13  8  1  6  0  0  0
 13 11  1  0  0  0  0
 13  6  1  0  0  0  0
 14 10  1  0  0  0  0
 15  5  1  0  0  0  0
 17 12  1  0  0  0  0
 17 18  1  0  0  0  0
 18 19  1  1  0  0  0
 18  3  1  0  0  0  0
 19 14  1  0  0  0  0
 20 23  1  6  0  0  0
 21 22  1  6  0  0  0
 21 20  1  0  0  0  0
 21 12  1  0  0  0  0
 22 20  1  0  0  0  0
 23 29  1  0  0  0  0
 23 27  1  0  0  0  0
 24 26  1  1  0  0  0
 25 27  1  0  0  0  0
 25 24  1  0  0  0  0
 27 28  1  1  0  0  0
 27 24  1  0  0  0  0
 30 31  1  0  0  0  0
 31 29  1  0  0  0  0
M  END
>  <MODEL>
8

>  <REMARK>
 VINA RESULT:      -4.5      3.718      6.797
  Name = 
  5 active torsions:
  status: ('A' for Active; 'I' for Inactive)
    1  A    between atoms: C_3  and  C_7
    2  A    between atoms: C_3  and  N_22
    3  A    between atoms: C_9  and  N_22
    4  A    between atoms: C_15  and  C_21
    5  A    between atoms: C_19  and  N_22
                            x       y       z     vdW  Elec       q    Type
                         _______ _______ _______ _____ _____    ______ ____

>  <TORSDO>
F 5

$$$$
=
 OpenBabel10272400173D

 31 36  0  0  1  0  0  0  0  0999 V2000
  188.5890  177.1380  135.1930 S   0  0  0  0  0  0  0  0  0  0  0  0
  184.6370  177.1690  137.7610 C   0  0  2  0  0  3  0  0  0  0  0  0
  183.2750  177.0610  138.4300 C   0  0  2  0  0  3  0  0  0  0  0  0
  180.8590  176.2900  138.0320 C   0  0  0  0  0  2  0  0  0  0  0  0
  185.3820  175.8720  137.5010 C   0  0  0  0  0  2  0  0  0  0  0  0
  187.6620  176.7320  136.7020 C   0  0  1  0  0  0  0  0  0  0  0  0
  182.2540  176.4950  137.4350 C   0  0  0  0  0  2  0  0  0  0  0  0
  188.4300  178.7290  136.0640 C   0  0  0  0  0  2  0  0  0  0  0  0
  184.4810  180.3300  139.2200 O   0  0  0  0  0  0  0  0  0  0  0  0
  180.3450  177.4660  138.8670 C   0  0  0  0  0  2  0  0  0  0  0  0
  186.3480  178.9000  137.4380 C   0  0  0  0  0  2  0  0  0  0  0  0
  185.4280  178.2510  138.4800 C   0  0  1  0  0  0  0  0  0  0  0  0
  187.6870  178.1660  137.2540 C   0  0  1  0  0  3  0  0  0  0  0  0
  180.5280  178.8330  138.1950 C   0  0  0  0  0  2  0  0  0  0  0  0
  186.3150  176.1040  136.3180 C   0  0  0  0  0  2  0  0  0  0  0  0
  188.4830  175.8010  137.5780 C   0  0  0  0  0  1  0  0  0  0  0  0
  184.3110  179.1680  138.8820 C   0  0  0  0  0  0  0  0  0  0  0  0
  182.9720  178.5060  138.8990 C   0  0  1  0  0  3  0  0  0  0  0  0
  181.9920  179.2480  137.9800 C   0  0  0  0  0  2  0  0  0  0  0  0
  186.3380  178.5910  140.8920 C   0  0  2  0  0  3  0  0  0  0  0  0
  186.2360  177.6650  139.6850 C   0  0  2  0  0  3  0  0  0  0  0  0
  187.5300  178.4030  139.9630 C   0  0  0  0  0  2  0  0  0  0  0  0
  186.5110  177.7940  142.1020 N   0  0  0  0  0  0  0  0  0  0  0  0
  188.2320  177.2870  143.8890 C   0  0  1  0  0  3  0  0  0  0  0  0
  188.6320  176.5490  142.6100 C   0  0  0  0  0  2  0  0  0  0  0  0
  189.7110  178.0390  144.6370 S   0  0  0  0  0  1  0  0  0  0  0  0
  187.9130  177.8720  142.5230 C   0  0  1  0  0  0  0  0  0  0  0  0
  188.6850  178.9450  142.0570 O   0  0  0  0  0  1  0  0  0  0  0  0
  185.7040  178.4090  143.1520 C   0  0  0  0  0  2  0  0  0  0  0  0
  183.5480  179.4080  143.3680 O   0  0  0  0  0  1  0  0  0  0  0  0
  184.2310  178.3410  142.7880 C   0  0  0  0  0  2  0  0  0  0  0  0
  1  8  1  0  0  0  0
  1  6  1  0  0  0  0
  2  5  1  1  0  0  0
  2  3  1  0  0  0  0
  2 12  1  0  0  0  0
  3  7  1  6  0  0  0
  3 18  1  0  0  0  0
  4 10  1  0  0  0  0
  6 13  1  0  0  0  0
  6 16  1  1  0  0  0
  7  4  1  0  0  0  0
 12 11  1  6  0  0  0
 12 17  1  0  0  0  0
 12 21  1  0  0  0  0
 13  8  1  6  0  0  0
 13 11  1  0  0  0  0
 14 10  1  0  0  0  0
 15  6  1  0  0  0  0
 15  5  1  0  0  0  0
 17 18  1  0  0  0  0
 17  9  2  0  0  0  0
 18 19  1  6  0  0  0
 19 14  1  0  0  0  0
 20 23  1  1  0  0  0
 21 22  1  6  0  0  0
 21 20  1  0  0  0  0
 22 20  1  0  0  0  0
 23 27  1  0  0  0  0
 23 29  1  0  0  0  0
 24 26  1  6  0  0  0
 25 24  1  0  0  0  0
 27 28  1  6  0  0  0
 27 25  1  0  0  0  0
 27 24  1  0  0  0  0
 31 29  1  0  0  0  0
 31 30  1  0  0  0  0
M  END
>  <MODEL>
9

>  <REMARK>
 VINA RESULT:      -4.1      3.041      4.679
  Name = 
  5 active torsions:
  status: ('A' for Active; 'I' for Inactive)
    1  A    between atoms: C_3  and  C_7
    2  A    between atoms: C_3  and  N_22
    3  A    between atoms: C_9  and  N_22
    4  A    between atoms: C_15  and  C_21
    5  A    between atoms: C_19  and  N_22
                            x       y       z     vdW  Elec       q    Type
                         _______ _______ _______ _____ _____    ______ ____

>  <TORSDO>
F 5

$$$$
