=
 OpenBabel10272413473D

 30 31  0  0  1  0  0  0  0  0999 V2000
  188.6890  177.6500  142.7680 C   0  0  1  0  0  3  0  0  0  0  0  0
  189.7540  177.1410  145.0420 N   0  0  0  0  0  0  0  0  0  0  0  0
  188.0120  176.3800  143.0040 N   0  0  0  0  0  2  0  0  0  0  0  0
  187.2350  177.5950  145.0760 C   0  0  2  0  0  3  0  0  0  0  0  0
  186.9420  176.5460  143.9880 C   0  0  0  0  0  2  0  0  0  0  0  0
  188.5370  177.3090  145.8720 C   0  0  2  0  0  3  0  0  0  0  0  0
  189.8530  177.8620  143.7530 C   0  0  2  0  0  3  0  0  0  0  0  0
  188.3520  178.3210  140.3330 C   0  0  0  0  0  0  0  0  0  0  0  0
  188.8280  178.3780  139.0190 C   0  0  0  0  0  3  0  0  0  0  0  0
  187.0910  178.8300  140.6200 O   0  0  0  0  0  1  0  0  0  0  0  0
  190.4150  177.2460  141.0210 C   0  0  0  0  0  3  0  0  0  0  0  0
  192.1110  176.8150  139.4040 F   0  0  0  0  0  0  0  0  0  0  0  0
  189.1500  177.7510  141.3440 C   0  0  0  0  0  0  0  0  0  0  0  0
  190.0920  177.8720  138.7060 C   0  0  0  0  0  3  0  0  0  0  0  0
  190.8850  177.3070  139.7070 C   0  0  0  0  0  0  0  0  0  0  0  0
  190.0810  178.1270  147.7560 C   0  0  0  0  0  1  0  0  0  0  0  0
  188.7810  178.3500  146.9930 C   0  0  2  0  0  3  0  0  0  0  0  0
  187.6310  178.3880  147.9950 C   0  0  0  0  0  2  0  0  0  0  0  0
  187.8960  177.5590  149.0880 O   0  0  0  0  0  1  0  0  0  0  0  0
  186.0100  177.6960  145.9760 C   0  0  0  0  0  2  0  0  0  0  0  0
  184.0070  178.9440  146.0550 O   0  0  0  0  0  0  0  0  0  0  0  0
  185.0570  178.7330  145.4710 C   0  0  0  0  0  0  0  0  0  0  0  0
  185.3760  179.4590  144.3690 F   0  0  0  0  0  0  0  0  0  0  0  0
  190.1160  179.3430  143.9740 C   0  0  0  0  0  2  0  0  0  0  0  0
  192.3460  178.5400  143.6460 O   0  0  0  0  0  1  0  0  0  0  0  0
  191.6010  179.5940  144.1750 C   0  0  0  0  0  2  0  0  0  0  0  0
  190.0680  175.7260  144.8880 C   0  0  0  0  0  2  0  0  0  0  0  0
  192.2110  175.1320  144.1090 O   0  0  0  0  0  0  0  0  0  0  0  0
  191.5360  175.5050  145.0540 C   0  0  0  0  0  0  0  0  0  0  0  0
  192.1790  175.7580  146.3720 C   0  0  0  0  0  1  0  0  0  0  0  0
  1 13  1  6  0  0  0
  1  3  1  0  0  0  0
  1  7  1  0  0  0  0
  2  6  1  0  0  0  0
  3  5  1  0  0  0  0
  4  6  1  0  0  0  0
  4 20  1  1  0  0  0
  5  4  1  0  0  0  0
  6 17  1  1  0  0  0
  7 24  1  1  0  0  0
  7  2  1  0  0  0  0
  8 10  1  0  0  0  0
  8 13  1  0  0  0  0
  9  8  2  0  0  0  0
 11 13  2  0  0  0  0
 12 15  1  0  0  0  0
 14  9  1  0  0  0  0
 14 15  2  0  0  0  0
 15 11  1  0  0  0  0
 17 16  1  1  0  0  0
 17 18  1  0  0  0  0
 18 19  1  0  0  0  0
 22 20  1  0  0  0  0
 22 21  2  0  0  0  0
 23 22  1  0  0  0  0
 24 26  1  0  0  0  0
 25 26  1  0  0  0  0
 27  2  1  0  0  0  0
 27 29  1  0  0  0  0
 28 29  2  0  0  0  0
 29 30  1  0  0  0  0
M  END
>  <MODEL>
1

>  <REMARK>
 VINA RESULT:      -5.8      0.000      0.000
  Name = 
  9 active torsions:
  status: ('A' for Active; 'I' for Inactive)
    1  A    between atoms: C_1  and  C_22
    2  A    between atoms: N_4  and  C_25
    3  A    between atoms: C_6  and  C_8
    4  A    between atoms: C_6  and  C_17
    5  A    between atoms: C_7  and  C_30
    6  A    between atoms: C_10  and  C_23
    7  A    between atoms: C_10  and  C_26
    8  A    between atoms: C_11  and  C_25
    9  A    between atoms: C_13  and  C_30
                            x       y       z     vdW  Elec       q    Type
                         _______ _______ _______ _____ _____    ______ ____

>  <TORSDO>
F 9

$$$$
=
 OpenBabel10272413473D

 30 31  0  0  1  0  0  0  0  0999 V2000
  185.0780  178.2200  139.2900 C   0  0  1  0  0  3  0  0  0  0  0  0
  182.6250  178.9620  139.3100 N   0  0  0  0  0  0  0  0  0  0  0  0
  185.2890  179.5260  139.9060 N   0  0  0  0  0  2  0  0  0  0  0  0
  183.6830  178.5760  141.6080 C   0  0  2  0  0  3  0  0  0  0  0  0
  184.8780  179.5000  141.3110 C   0  0  0  0  0  2  0  0  0  0  0  0
  182.4180  178.9200  140.7770 C   0  0  2  0  0  3  0  0  0  0  0  0
  183.6600  178.0950  138.7030 C   0  0  2  0  0  3  0  0  0  0  0  0
  187.4970  177.8680  138.5730 C   0  0  0  0  0  0  0  0  0  0  0  0
  188.4340  177.6200  137.5630 C   0  0  0  0  0  3  0  0  0  0  0  0
  187.9370  178.0360  139.8800 O   0  0  0  0  0  1  0  0  0  0  0  0
  185.7170  177.7730  136.9270 C   0  0  0  0  0  3  0  0  0  0  0  0
  186.2510  177.3610  134.6420 F   0  0  0  0  0  0  0  0  0  0  0  0
  186.1270  177.9450  138.2540 C   0  0  0  0  0  0  0  0  0  0  0  0
  188.0150  177.4500  136.2420 C   0  0  0  0  0  3  0  0  0  0  0  0
  186.6570  177.5260  135.9240 C   0  0  0  0  0  0  0  0  0  0  0  0
  180.2710  177.7660  139.9620 C   0  0  0  0  0  1  0  0  0  0  0  0
  181.2160  178.0090  141.1330 C   0  0  2  0  0  3  0  0  0  0  0  0
  180.4070  178.5650  142.3010 C   0  0  0  0  0  2  0  0  0  0  0  0
  179.9860  177.5380  143.1480 O   0  0  0  0  0  1  0  0  0  0  0  0
  183.4240  178.6100  143.1090 C   0  0  0  0  0  2  0  0  0  0  0  0
  184.9010  179.3620  144.7900 O   0  0  0  0  0  0  0  0  0  0  0  0
  184.7070  178.5770  143.8770 C   0  0  0  0  0  0  0  0  0  0  0  0
  185.6510  177.6510  143.5690 F   0  0  0  0  0  0  0  0  0  0  0  0
  183.2100  176.6430  138.6740 C   0  0  0  0  0  2  0  0  0  0  0  0
  183.1120  175.3310  136.6750 O   0  0  0  0  0  1  0  0  0  0  0  0
  182.4650  176.3440  137.3840 C   0  0  0  0  0  2  0  0  0  0  0  0
  182.7510  180.3420  138.8570 C   0  0  0  0  0  2  0  0  0  0  0  0
  180.7990  181.6590  138.9320 O   0  0  0  0  0  0  0  0  0  0  0  0
  181.4450  180.8260  138.3180 C   0  0  0  0  0  0  0  0  0  0  0  0
  180.9380  180.3030  137.0200 C   0  0  0  0  0  1  0  0  0  0  0  0
  1 13  1  6  0  0  0
  1  3  1  0  0  0  0
  2  6  1  0  0  0  0
  3  5  1  0  0  0  0
  4 20  1  1  0  0  0
  5  4  1  0  0  0  0
  6 17  1  6  0  0  0
  6  4  1  0  0  0  0
  7 24  1  1  0  0  0
  7  1  1  0  0  0  0
  7  2  1  0  0  0  0
  8 10  1  0  0  0  0
  9  8  2  0  0  0  0
 11 13  2  0  0  0  0
 12 15  1  0  0  0  0
 13  8  1  0  0  0  0
 14  9  1  0  0  0  0
 15 14  2  0  0  0  0
 15 11  1  0  0  0  0
 17 16  1  6  0  0  0
 17 18  1  0  0  0  0
 18 19  1  0  0  0  0
 20 22  1  0  0  0  0
 22 21  2  0  0  0  0
 23 22  1  0  0  0  0
 25 26  1  0  0  0  0
 26 24  1  0  0  0  0
 27  2  1  0  0  0  0
 29 27  1  0  0  0  0
 29 28  2  0  0  0  0
 30 29  1  0  0  0  0
M  END
>  <MODEL>
2

>  <REMARK>
 VINA RESULT:      -4.9      5.122      8.218
  Name = 
  9 active torsions:
  status: ('A' for Active; 'I' for Inactive)
    1  A    between atoms: C_1  and  C_22
    2  A    between atoms: N_4  and  C_25
    3  A    between atoms: C_6  and  C_8
    4  A    between atoms: C_6  and  C_17
    5  A    between atoms: C_7  and  C_30
    6  A    between atoms: C_10  and  C_23
    7  A    between atoms: C_10  and  C_26
    8  A    between atoms: C_11  and  C_25
    9  A    between atoms: C_13  and  C_30
                            x       y       z     vdW  Elec       q    Type
                         _______ _______ _______ _____ _____    ______ ____

>  <TORSDO>
F 9

$$$$
=
 OpenBabel10272413473D

 30 31  0  0  1  0  0  0  0  0999 V2000
  190.3070  176.5610  138.6100 C   0  0  1  0  0  3  0  0  0  0  0  0
  188.6120  175.7430  136.8710 N   0  0  0  0  0  0  0  0  0  0  0  0
  190.8430  175.2120  138.4560 N   0  0  0  0  0  2  0  0  0  0  0  0
  191.0270  175.9540  136.0490 C   0  0  2  0  0  3  0  0  0  0  0  0
  191.5870  175.0990  137.2000 C   0  0  0  0  0  2  0  0  0  0  0  0
  189.5420  175.6470  135.7200 C   0  0  2  0  0  3  0  0  0  0  0  0
  188.9160  176.6930  137.9650 C   0  0  2  0  0  3  0  0  0  0  0  0
  191.4450  177.3500  140.7490 C   0  0  0  0  0  0  0  0  0  0  0  0
  191.3650  177.7020  142.1010 C   0  0  0  0  0  3  0  0  0  0  0  0
  192.6790  177.3890  140.1100 O   0  0  0  0  0  1  0  0  0  0  0  0
  189.0560  176.9300  140.7290 C   0  0  0  0  0  3  0  0  0  0  0  0
  187.7910  177.2500  142.7220 F   0  0  0  0  0  0  0  0  0  0  0  0
  190.2820  176.9610  140.0550 C   0  0  0  0  0  0  0  0  0  0  0  0
  190.1360  177.6680  142.7650 C   0  0  0  0  0  3  0  0  0  0  0  0
  188.9820  177.2830  142.0790 C   0  0  0  0  0  0  0  0  0  0  0  0
  189.4110  177.9540  134.5940 C   0  0  0  0  0  1  0  0  0  0  0  0
  189.0180  176.4830  134.5250 C   0  0  2  0  0  3  0  0  0  0  0  0
  187.5010  176.3930  134.3890 C   0  0  0  0  0  2  0  0  0  0  0  0
  186.9280  177.6660  134.3460 O   0  0  0  0  0  1  0  0  0  0  0  0
  191.9420  175.7780  134.8440 C   0  0  0  0  0  2  0  0  0  0  0  0
  193.9100  174.5030  135.1120 O   0  0  0  0  0  0  0  0  0  0  0  0
  193.3610  175.5800  135.2700 C   0  0  0  0  0  0  0  0  0  0  0  0
  194.0490  176.6160  135.8160 F   0  0  0  0  0  0  0  0  0  0  0  0
  188.6510  178.1270  137.5340 C   0  0  0  0  0  2  0  0  0  0  0  0
  186.6740  178.4620  138.8400 O   0  0  0  0  0  1  0  0  0  0  0  0
  187.1590  178.4140  137.5330 C   0  0  0  0  0  2  0  0  0  0  0  0
  188.3080  174.4140  137.3870 C   0  0  0  0  0  2  0  0  0  0  0  0
  186.0560  175.0710  137.1630 O   0  0  0  0  0  0  0  0  0  0  0  0
  186.8430  174.1450  137.2790 C   0  0  0  0  0  0  0  0  0  0  0  0
  186.3420  172.7440  137.2940 C   0  0  0  0  0  1  0  0  0  0  0  0
  1 13  1  1  0  0  0
  2 27  1  0  0  0  0
  2  7  1  0  0  0  0
  3  1  1  0  0  0  0
  4 20  1  6  0  0  0
  4  5  1  0  0  0  0
  5  3  1  0  0  0  0
  6 17  1  6  0  0  0
  6  4  1  0  0  0  0
  6  2  1  0  0  0  0
  7 24  1  6  0  0  0
  7  1  1  0  0  0  0
  8  9  1  0  0  0  0
  9 14  2  0  0  0  0
 10  8  1  0  0  0  0
 11 15  2  0  0  0  0
 13 11  1  0  0  0  0
 13  8  2  0  0  0  0
 15 12  1  0  0  0  0
 15 14  1  0  0  0  0
 17 16  1  1  0  0  0
 18 17  1  0  0  0  0
 19 18  1  0  0  0  0
 20 22  1  0  0  0  0
 21 22  2  0  0  0  0
 22 23  1  0  0  0  0
 26 24  1  0  0  0  0
 26 25  1  0  0  0  0
 28 29  2  0  0  0  0
 29 30  1  0  0  0  0
 29 27  1  0  0  0  0
M  END
>  <MODEL>
3

>  <REMARK>
 VINA RESULT:      -4.8      4.241      9.231
  Name = 
  9 active torsions:
  status: ('A' for Active; 'I' for Inactive)
    1  A    between atoms: C_1  and  C_22
    2  A    between atoms: N_4  and  C_25
    3  A    between atoms: C_6  and  C_8
    4  A    between atoms: C_6  and  C_17
    5  A    between atoms: C_7  and  C_30
    6  A    between atoms: C_10  and  C_23
    7  A    between atoms: C_10  and  C_26
    8  A    between atoms: C_11  and  C_25
    9  A    between atoms: C_13  and  C_30
                            x       y       z     vdW  Elec       q    Type
                         _______ _______ _______ _____ _____    ______ ____

>  <TORSDO>
F 9

$$$$
=
 OpenBabel10272413473D

 30 31  0  0  1  0  0  0  0  0999 V2000
  192.1630  176.2720  137.3150 C   0  0  1  0  0  3  0  0  0  0  0  0
  193.5930  174.1470  137.2130 N   0  0  0  0  0  0  0  0  0  0  0  0
  193.4110  176.8720  137.7730 N   0  0  0  0  0  2  0  0  0  0  0  0
  194.2270  175.9890  135.5530 C   0  0  2  0  0  3  0  0  0  0  0  0
  194.3280  177.0650  136.6490 C   0  0  0  0  0  2  0  0  0  0  0  0
  194.4610  174.5480  136.0810 C   0  0  2  0  0  3  0  0  0  0  0  0
  192.2380  174.7340  137.3260 C   0  0  2  0  0  3  0  0  0  0  0  0
  189.8280  177.2690  137.5300 C   0  0  0  0  0  0  0  0  0  0  0  0
  188.7820  177.7330  138.3350 C   0  0  0  0  0  3  0  0  0  0  0  0
  189.6890  177.3090  136.1480 O   0  0  0  0  0  1  0  0  0  0  0  0
  191.1130  176.7460  139.5200 C   0  0  0  0  0  3  0  0  0  0  0  0
  190.1790  177.1820  141.6690 F   0  0  0  0  0  0  0  0  0  0  0  0
  191.0040  176.7700  138.1250 C   0  0  0  0  0  0  0  0  0  0  0  0
  188.9000  177.7030  139.7270 C   0  0  0  0  0  3  0  0  0  0  0  0
  190.0650  177.2100  140.3190 C   0  0  0  0  0  0  0  0  0  0  0  0
  193.6930  172.2050  135.3540 C   0  0  0  0  0  1  0  0  0  0  0  0
  194.4050  173.4900  134.9500 C   0  0  2  0  0  3  0  0  0  0  0  0
  195.7960  173.1330  134.4360 C   0  0  0  0  0  2  0  0  0  0  0  0
  196.3410  172.0760  135.1690 O   0  0  0  0  0  1  0  0  0  0  0  0
  195.1890  176.3650  134.4330 C   0  0  0  0  0  2  0  0  0  0  0  0
  197.2410  176.5380  135.5890 O   0  0  0  0  0  0  0  0  0  0  0  0
  196.3660  177.1180  134.9660 C   0  0  0  0  0  0  0  0  0  0  0  0
  196.4720  178.4510  134.7330 F   0  0  0  0  0  0  0  0  0  0  0  0
  191.2960  174.1360  136.2930 C   0  0  0  0  0  2  0  0  0  0  0  0
  189.1860  173.0410  136.0180 O   0  0  0  0  0  1  0  0  0  0  0  0
  190.0750  173.5380  136.9710 C   0  0  0  0  0  2  0  0  0  0  0  0
  194.3240  174.2480  138.4710 C   0  0  0  0  0  2  0  0  0  0  0  0
  195.3570  172.1300  138.4720 O   0  0  0  0  0  0  0  0  0  0  0  0
  195.5100  173.3410  138.4480 C   0  0  0  0  0  0  0  0  0  0  0  0
  196.8810  173.9140  138.3780 C   0  0  0  0  0  1  0  0  0  0  0  0
  1  7  1  0  0  0  0
  1  3  1  0  0  0  0
  1 13  1  1  0  0  0
  2  7  1  0  0  0  0
  2 27  1  0  0  0  0
  4 20  1  6  0  0  0
  4  6  1  0  0  0  0
  4  5  1  0  0  0  0
  5  3  1  0  0  0  0
  6 17  1  6  0  0  0
  6  2  1  0  0  0  0
  7 24  1  6  0  0  0
  8 13  2  0  0  0  0
  8  9  1  0  0  0  0
  9 14  2  0  0  0  0
 10  8  1  0  0  0  0
 11 15  2  0  0  0  0
 13 11  1  0  0  0  0
 14 15  1  0  0  0  0
 15 12  1  0  0  0  0
 17 16  1  1  0  0  0
 18 17  1  0  0  0  0
 18 19  1  0  0  0  0
 20 22  1  0  0  0  0
 22 21  2  0  0  0  0
 23 22  1  0  0  0  0
 24 26  1  0  0  0  0
 25 26  1  0  0  0  0
 29 27  1  0  0  0  0
 29 28  2  0  0  0  0
 30 29  1  0  0  0  0
M  END
>  <MODEL>
4

>  <REMARK>
 VINA RESULT:      -4.7      6.141     10.310
  Name = 
  9 active torsions:
  status: ('A' for Active; 'I' for Inactive)
    1  A    between atoms: C_1  and  C_22
    2  A    between atoms: N_4  and  C_25
    3  A    between atoms: C_6  and  C_8
    4  A    between atoms: C_6  and  C_17
    5  A    between atoms: C_7  and  C_30
    6  A    between atoms: C_10  and  C_23
    7  A    between atoms: C_10  and  C_26
    8  A    between atoms: C_11  and  C_25
    9  A    between atoms: C_13  and  C_30
                            x       y       z     vdW  Elec       q    Type
                         _______ _______ _______ _____ _____    ______ ____

>  <TORSDO>
F 9

$$$$
=
 OpenBabel10272413473D

 30 31  0  0  1  0  0  0  0  0999 V2000
  194.9370  172.1100  136.8150 C   0  0  1  0  0  3  0  0  0  0  0  0
  196.4680  174.1660  136.7880 N   0  0  0  0  0  0  0  0  0  0  0  0
  194.3610  172.7800  137.9770 N   0  0  0  0  0  2  0  0  0  0  0  0
  194.0000  174.6170  136.2820 C   0  0  2  0  0  3  0  0  0  0  0  0
  193.5160  173.8980  137.5540 C   0  0  0  0  0  2  0  0  0  0  0  0
  195.4460  175.1670  136.3980 C   0  0  2  0  0  3  0  0  0  0  0  0
  196.2740  172.7500  136.4000 C   0  0  2  0  0  3  0  0  0  0  0  0
  194.1600  169.6940  136.5880 C   0  0  0  0  0  0  0  0  0  0  0  0
  194.3440  168.3360  136.8660 C   0  0  0  0  0  3  0  0  0  0  0  0
  193.0590  170.0910  135.8390 O   0  0  0  0  0  1  0  0  0  0  0  0
  196.1850  170.2080  137.8230 C   0  0  0  0  0  3  0  0  0  0  0  0
  197.4290  168.4410  138.8260 F   0  0  0  0  0  0  0  0  0  0  0  0
  195.0880  170.6400  137.0690 C   0  0  0  0  0  0  0  0  0  0  0  0
  195.4430  167.9140  137.6180 C   0  0  0  0  0  3  0  0  0  0  0  0
  196.3630  168.8500  138.0960 C   0  0  0  0  0  0  0  0  0  0  0  0
  197.3980  175.9270  134.9080 C   0  0  0  0  0  1  0  0  0  0  0  0
  195.8900  175.9300  135.1240 C   0  0  2  0  0  3  0  0  0  0  0  0
  195.4030  177.3760  135.1300 C   0  0  0  0  0  2  0  0  0  0  0  0
  196.4810  178.2640  135.0950 O   0  0  0  0  0  1  0  0  0  0  0  0
  192.9870  175.7030  135.9410 C   0  0  0  0  0  2  0  0  0  0  0  0
  191.3180  176.4880  137.4150 O   0  0  0  0  0  0  0  0  0  0  0  0
  192.5110  176.4010  137.1740 C   0  0  0  0  0  0  0  0  0  0  0  0
  193.4160  176.9210  138.0430 F   0  0  0  0  0  0  0  0  0  0  0  0
  196.5350  172.5500  134.9150 C   0  0  0  0  0  2  0  0  0  0  0  0
  198.1240  170.7660  134.7720 O   0  0  0  0  0  1  0  0  0  0  0  0
  197.9820  172.1510  134.6800 C   0  0  0  0  0  2  0  0  0  0  0  0
  196.7830  174.2920  138.2060 C   0  0  0  0  0  2  0  0  0  0  0  0
  198.3860  175.7620  139.1120 O   0  0  0  0  0  0  0  0  0  0  0  0
  198.1730  174.8120  138.3770 C   0  0  0  0  0  0  0  0  0  0  0  0
  199.3030  174.1590  137.6630 C   0  0  0  0  0  1  0  0  0  0  0  0
  1 13  1  1  0  0  0
  1  3  1  0  0  0  0
  2 27  1  0  0  0  0
  4 20  1  1  0  0  0
  4  6  1  0  0  0  0
  4  5  1  0  0  0  0
  5  3  1  0  0  0  0
  6 17  1  6  0  0  0
  6  2  1  0  0  0  0
  7 24  1  6  0  0  0
  7  2  1  0  0  0  0
  7  1  1  0  0  0  0
  8  9  2  0  0  0  0
  8 13  1  0  0  0  0
  9 14  1  0  0  0  0
 10  8  1  0  0  0  0
 11 15  1  0  0  0  0
 13 11  2  0  0  0  0
 14 15  2  0  0  0  0
 15 12  1  0  0  0  0
 17 16  1  1  0  0  0
 17 18  1  0  0  0  0
 19 18  1  0  0  0  0
 20 22  1  0  0  0  0
 22 21  2  0  0  0  0
 22 23  1  0  0  0  0
 26 25  1  0  0  0  0
 26 24  1  0  0  0  0
 27 29  1  0  0  0  0
 29 28  2  0  0  0  0
 30 29  1  0  0  0  0
M  END
>  <MODEL>
5

>  <REMARK>
 VINA RESULT:      -4.3      8.444     11.637
  Name = 
  9 active torsions:
  status: ('A' for Active; 'I' for Inactive)
    1  A    between atoms: C_1  and  C_22
    2  A    between atoms: N_4  and  C_25
    3  A    between atoms: C_6  and  C_8
    4  A    between atoms: C_6  and  C_17
    5  A    between atoms: C_7  and  C_30
    6  A    between atoms: C_10  and  C_23
    7  A    between atoms: C_10  and  C_26
    8  A    between atoms: C_11  and  C_25
    9  A    between atoms: C_13  and  C_30
                            x       y       z     vdW  Elec       q    Type
                         _______ _______ _______ _____ _____    ______ ____

>  <TORSDO>
F 9

$$$$
=
 OpenBabel10272413473D

 30 31  0  0  1  0  0  0  0  0999 V2000
  183.3580  177.5320  139.9770 C   0  0  1  0  0  3  0  0  0  0  0  0
  182.5540  178.3100  137.6720 N   0  0  0  0  0  0  0  0  0  0  0  0
  182.3010  176.5400  139.8100 N   0  0  0  0  0  2  0  0  0  0  0  0
  183.6410  175.9940  137.7410 C   0  0  2  0  0  3  0  0  0  0  0  0
  182.7210  175.4990  138.8710 C   0  0  0  0  0  2  0  0  0  0  0  0
  183.0170  177.1350  136.8940 C   0  0  2  0  0  3  0  0  0  0  0  0
  183.2470  178.6580  138.9330 C   0  0  2  0  0  3  0  0  0  0  0  0
  182.2180  178.6580  141.9580 C   0  0  0  0  0  0  0  0  0  0  0  0
  182.2820  179.1620  143.2610 C   0  0  0  0  0  3  0  0  0  0  0  0
  181.0210  178.7390  141.2570 O   0  0  0  0  0  1  0  0  0  0  0  0
  184.5520  178.0120  142.1060 C   0  0  0  0  0  3  0  0  0  0  0  0
  185.7660  178.4490  144.1100 F   0  0  0  0  0  0  0  0  0  0  0  0
  183.3610  178.0770  141.3740 C   0  0  0  0  0  0  0  0  0  0  0  0
  183.4740  179.0920  143.9850 C   0  0  0  0  0  3  0  0  0  0  0  0
  184.6090  178.5170  143.4080 C   0  0  0  0  0  0  0  0  0  0  0  0
  183.3540  177.3100  134.3520 C   0  0  0  0  0  1  0  0  0  0  0  0
  183.9410  177.5800  135.7320 C   0  0  2  0  0  3  0  0  0  0  0  0
  185.3140  176.9190  135.8130 C   0  0  0  0  0  2  0  0  0  0  0  0
  186.3110  177.7890  135.3660 O   0  0  0  0  0  1  0  0  0  0  0  0
  184.0390  174.7900  136.8960 C   0  0  0  0  0  2  0  0  0  0  0  0
  186.3000  174.2800  137.3470 O   0  0  0  0  0  0  0  0  0  0  0  0
  185.1290  174.0070  137.5560 C   0  0  0  0  0  0  0  0  0  0  0  0
  184.8110  173.0020  138.4110 F   0  0  0  0  0  0  0  0  0  0  0  0
  184.6070  179.2800  138.6570 C   0  0  0  0  0  2  0  0  0  0  0  0
  186.9270  178.7310  138.4580 O   0  0  0  0  0  1  0  0  0  0  0  0
  185.7170  178.3060  139.0090 C   0  0  0  0  0  2  0  0  0  0  0  0
  181.1090  178.2590  137.8530 C   0  0  0  0  0  2  0  0  0  0  0  0
  179.9820  180.2440  138.4370 O   0  0  0  0  0  0  0  0  0  0  0  0
  180.5060  179.5910  137.5500 C   0  0  0  0  0  0  0  0  0  0  0  0
  180.5600  180.1320  136.1640 C   0  0  0  0  0  1  0  0  0  0  0  0
  1 13  1  1  0  0  0
  2 27  1  0  0  0  0
  2  7  1  0  0  0  0
  3  1  1  0  0  0  0
  4 20  1  6  0  0  0
  4  5  1  0  0  0  0
  5  3  1  0  0  0  0
  6 17  1  6  0  0  0
  6  2  1  0  0  0  0
  6  4  1  0  0  0  0
  7 24  1  6  0  0  0
  7  1  1  0  0  0  0
  8  9  1  0  0  0  0
  9 14  2  0  0  0  0
 10  8  1  0  0  0  0
 11 15  2  0  0  0  0
 13  8  2  0  0  0  0
 13 11  1  0  0  0  0
 15 14  1  0  0  0  0
 15 12  1  0  0  0  0
 17 16  1  6  0  0  0
 17 18  1  0  0  0  0
 19 18  1  0  0  0  0
 20 22  1  0  0  0  0
 21 22  2  0  0  0  0
 22 23  1  0  0  0  0
 24 26  1  0  0  0  0
 25 26  1  0  0  0  0
 29 27  1  0  0  0  0
 29 28  2  0  0  0  0
 30 29  1  0  0  0  0
M  END
>  <MODEL>
6

>  <REMARK>
 VINA RESULT:      -4.1      5.906      9.899
  Name = 
  9 active torsions:
  status: ('A' for Active; 'I' for Inactive)
    1  A    between atoms: C_1  and  C_22
    2  A    between atoms: N_4  and  C_25
    3  A    between atoms: C_6  and  C_8
    4  A    between atoms: C_6  and  C_17
    5  A    between atoms: C_7  and  C_30
    6  A    between atoms: C_10  and  C_23
    7  A    between atoms: C_10  and  C_26
    8  A    between atoms: C_11  and  C_25
    9  A    between atoms: C_13  and  C_30
                            x       y       z     vdW  Elec       q    Type
                         _______ _______ _______ _____ _____    ______ ____

>  <TORSDO>
F 9

$$$$
=
 OpenBabel10272413473D

 30 31  0  0  1  0  0  0  0  0999 V2000
  185.1530  174.7450  136.1610 C   0  0  1  0  0  3  0  0  0  0  0  0
  182.7950  174.9250  137.1480 N   0  0  0  0  0  0  0  0  0  0  0  0
  185.4650  174.1970  137.4760 N   0  0  0  0  0  2  0  0  0  0  0  0
  183.6740  172.5460  136.8100 C   0  0  2  0  0  3  0  0  0  0  0  0
  184.9750  172.8210  137.5850 C   0  0  0  0  0  2  0  0  0  0  0  0
  182.5020  173.4740  137.2240 C   0  0  2  0  0  3  0  0  0  0  0  0
  183.7660  175.4130  136.1420 C   0  0  2  0  0  3  0  0  0  0  0  0
  187.2600  175.3020  134.8410 C   0  0  0  0  0  0  0  0  0  0  0  0
  188.2410  176.2260  134.4650 C   0  0  0  0  0  3  0  0  0  0  0  0
  187.3250  174.0040  134.3470 O   0  0  0  0  0  1  0  0  0  0  0  0
  186.1890  177.0070  136.1940 C   0  0  0  0  0  3  0  0  0  0  0  0
  187.1280  179.1950  136.2850 F   0  0  0  0  0  0  0  0  0  0  0  0
  186.2240  175.6930  135.7120 C   0  0  0  0  0  0  0  0  0  0  0  0
  188.1970  177.5350  134.9500 C   0  0  0  0  0  3  0  0  0  0  0  0
  187.1710  177.9250  135.8140 C   0  0  0  0  0  0  0  0  0  0  0  0
  180.3130  174.3600  136.2100 C   0  0  0  0  0  1  0  0  0  0  0  0
  181.1910  173.1420  136.4660 C   0  0  2  0  0  3  0  0  0  0  0  0
  180.3620  172.0910  137.1980 C   0  0  0  0  0  2  0  0  0  0  0  0
  179.9840  171.0630  136.3310 O   0  0  0  0  0  1  0  0  0  0  0  0
  183.3350  171.0690  136.9690 C   0  0  0  0  0  2  0  0  0  0  0  0
  183.9000  170.7780  134.6950 O   0  0  0  0  0  0  0  0  0  0  0  0
  183.8340  170.2750  135.8040 C   0  0  0  0  0  0  0  0  0  0  0  0
  184.2380  168.9920  135.9890 F   0  0  0  0  0  0  0  0  0  0  0  0
  183.1670  175.3830  134.7450 C   0  0  0  0  0  2  0  0  0  0  0  0
  182.9590  177.6930  135.3300 O   0  0  0  0  0  1  0  0  0  0  0  0
  182.5700  176.7340  134.3940 C   0  0  0  0  0  2  0  0  0  0  0  0
  183.0920  175.4520  138.4750 C   0  0  0  0  0  2  0  0  0  0  0  0
  181.9960  177.5350  138.5770 O   0  0  0  0  0  0  0  0  0  0  0  0
  181.9970  176.3640  138.9210 C   0  0  0  0  0  0  0  0  0  0  0  0
  180.8950  175.8410  139.7730 C   0  0  0  0  0  1  0  0  0  0  0  0
  1 13  1  1  0  0  0
  1  3  1  0  0  0  0
  2  6  1  0  0  0  0
  2 27  1  0  0  0  0
  3  5  1  0  0  0  0
  4 20  1  1  0  0  0
  4  6  1  0  0  0  0
  4  5  1  0  0  0  0
  6 17  1  6  0  0  0
  7 24  1  6  0  0  0
  7  1  1  0  0  0  0
  7  2  1  0  0  0  0
  8 13  1  0  0  0  0
  9  8  2  0  0  0  0
  9 14  1  0  0  0  0
 10  8  1  0  0  0  0
 13 11  2  0  0  0  0
 14 15  2  0  0  0  0
 15 11  1  0  0  0  0
 15 12  1  0  0  0  0
 17 16  1  1  0  0  0
 17 18  1  0  0  0  0
 19 18  1  0  0  0  0
 21 22  2  0  0  0  0
 22 23  1  0  0  0  0
 22 20  1  0  0  0  0
 26 24  1  0  0  0  0
 26 25  1  0  0  0  0
 27 29  1  0  0  0  0
 28 29  2  0  0  0  0
 29 30  1  0  0  0  0
M  END
>  <MODEL>
7

>  <REMARK>
 VINA RESULT:      -3.9      8.565     10.848
  Name = 
  9 active torsions:
  status: ('A' for Active; 'I' for Inactive)
    1  A    between atoms: C_1  and  C_22
    2  A    between atoms: N_4  and  C_25
    3  A    between atoms: C_6  and  C_8
    4  A    between atoms: C_6  and  C_17
    5  A    between atoms: C_7  and  C_30
    6  A    between atoms: C_10  and  C_23
    7  A    between atoms: C_10  and  C_26
    8  A    between atoms: C_11  and  C_25
    9  A    between atoms: C_13  and  C_30
                            x       y       z     vdW  Elec       q    Type
                         _______ _______ _______ _____ _____    ______ ____

>  <TORSDO>
F 9

$$$$
=
 OpenBabel10272413473D

 30 31  0  0  1  0  0  0  0  0999 V2000
  184.2270  177.7020  137.4540 C   0  0  1  0  0  3  0  0  0  0  0  0
  182.4090  177.2310  139.1970 N   0  0  0  0  0  0  0  0  0  0  0  0
  183.4390  176.7780  136.6470 N   0  0  0  0  0  2  0  0  0  0  0  0
  181.6380  178.4870  137.1050 C   0  0  2  0  0  3  0  0  0  0  0  0
  182.2310  177.4380  136.1480 C   0  0  0  0  0  2  0  0  0  0  0  0
  181.2910  177.9170  138.5060 C   0  0  2  0  0  3  0  0  0  0  0  0
  183.7980  177.6690  138.9320 C   0  0  2  0  0  3  0  0  0  0  0  0
  186.2100  176.1140  137.2540 C   0  0  0  0  0  0  0  0  0  0  0  0
  187.5880  175.9140  137.1240 C   0  0  0  0  0  3  0  0  0  0  0  0
  185.3680  175.0110  137.3330 O   0  0  0  0  0  1  0  0  0  0  0  0
  186.5680  178.5140  137.2230 C   0  0  0  0  0  3  0  0  0  0  0  0
  188.7830  179.3680  137.0150 F   0  0  0  0  0  0  0  0  0  0  0  0
  185.6930  177.4240  137.3030 C   0  0  0  0  0  0  0  0  0  0  0  0
  188.4540  177.0070  137.0440 C   0  0  0  0  0  3  0  0  0  0  0  0
  187.9430  178.3070  137.0930 C   0  0  0  0  0  0  0  0  0  0  0  0
  181.2560  180.3680  139.2780 C   0  0  0  0  0  1  0  0  0  0  0  0
  180.6480  178.9800  139.4320 C   0  0  2  0  0  3  0  0  0  0  0  0
  180.7270  178.5760  140.9020 C   0  0  0  0  0  2  0  0  0  0  0  0
  180.5850  179.6900  141.7320 O   0  0  0  0  0  1  0  0  0  0  0  0
  180.4350  179.1240  136.4190 C   0  0  0  0  0  2  0  0  0  0  0  0
  180.9380  180.2940  134.4310 O   0  0  0  0  0  0  0  0  0  0  0  0
  180.8390  180.3390  135.6460 C   0  0  0  0  0  0  0  0  0  0  0  0
  181.0730  181.5050  136.3010 F   0  0  0  0  0  0  0  0  0  0  0  0
  184.0910  178.9970  139.6140 C   0  0  0  0  0  2  0  0  0  0  0  0
  184.1160  178.8190  142.0000 O   0  0  0  0  0  1  0  0  0  0  0  0
  184.9250  178.7790  140.8640 C   0  0  0  0  0  2  0  0  0  0  0  0
  182.2720  175.7850  139.0670 C   0  0  0  0  0  2  0  0  0  0  0  0
  180.3670  175.2660  140.3530 O   0  0  0  0  0  0  0  0  0  0  0  0
  180.8420  175.3880  139.2360 C   0  0  0  0  0  0  0  0  0  0  0  0
  179.9900  175.1580  138.0380 C   0  0  0  0  0  1  0  0  0  0  0  0
  1 13  1  1  0  0  0
  1  7  1  0  0  0  0
  3  1  1  0  0  0  0
  4 20  1  6  0  0  0
  4  6  1  0  0  0  0
  5  3  1  0  0  0  0
  5  4  1  0  0  0  0
  6  2  1  0  0  0  0
  6 17  1  1  0  0  0
  7  2  1  0  0  0  0
  7 24  1  6  0  0  0
  8 13  1  0  0  0  0
  8 10  1  0  0  0  0
  9  8  2  0  0  0  0
 11 13  2  0  0  0  0
 12 15  1  0  0  0  0
 14 15  2  0  0  0  0
 14  9  1  0  0  0  0
 15 11  1  0  0  0  0
 17 16  1  1  0  0  0
 17 18  1  0  0  0  0
 18 19  1  0  0  0  0
 21 22  2  0  0  0  0
 22 23  1  0  0  0  0
 22 20  1  0  0  0  0
 24 26  1  0  0  0  0
 26 25  1  0  0  0  0
 27  2  1  0  0  0  0
 27 29  1  0  0  0  0
 29 28  2  0  0  0  0
 30 29  1  0  0  0  0
M  END
>  <MODEL>
8

>  <REMARK>
 VINA RESULT:      -3.8      6.390      9.075
  Name = 
  9 active torsions:
  status: ('A' for Active; 'I' for Inactive)
    1  A    between atoms: C_1  and  C_22
    2  A    between atoms: N_4  and  C_25
    3  A    between atoms: C_6  and  C_8
    4  A    between atoms: C_6  and  C_17
    5  A    between atoms: C_7  and  C_30
    6  A    between atoms: C_10  and  C_23
    7  A    between atoms: C_10  and  C_26
    8  A    between atoms: C_11  and  C_25
    9  A    between atoms: C_13  and  C_30
                            x       y       z     vdW  Elec       q    Type
                         _______ _______ _______ _____ _____    ______ ____

>  <TORSDO>
F 9

$$$$
=
 OpenBabel10272413473D

 30 31  0  0  1  0  0  0  0  0999 V2000
  189.6830  176.2990  138.2190 C   0  0  1  0  0  3  0  0  0  0  0  0
  187.6080  177.5390  137.3670 N   0  0  0  0  0  0  0  0  0  0  0  0
  190.2020  177.6520  138.3810 N   0  0  0  0  0  2  0  0  0  0  0  0
  188.1570  177.8710  139.8450 C   0  0  2  0  0  3  0  0  0  0  0  0
  189.6100  178.2890  139.5590 C   0  0  0  0  0  2  0  0  0  0  0  0
  187.1940  178.1390  138.6580 C   0  0  2  0  0  3  0  0  0  0  0  0
  188.3960  176.2850  137.3750 C   0  0  2  0  0  3  0  0  0  0  0  0
  192.0980  175.5370  137.9360 C   0  0  0  0  0  0  0  0  0  0  0  0
  193.0310  174.6710  137.3560 C   0  0  0  0  0  3  0  0  0  0  0  0
  192.5410  176.5320  138.8000 O   0  0  0  0  0  1  0  0  0  0  0  0
  190.3150  174.3830  136.7630 C   0  0  0  0  0  3  0  0  0  0  0  0
  190.8430  172.5450  135.3410 F   0  0  0  0  0  0  0  0  0  0  0  0
  190.7280  175.3930  137.6390 C   0  0  0  0  0  0  0  0  0  0  0  0
  192.6100  173.6650  136.4840 C   0  0  0  0  0  3  0  0  0  0  0  0
  191.2520  173.5210  136.1880 C   0  0  0  0  0  0  0  0  0  0  0  0
  184.8550  177.5680  137.7580 C   0  0  0  0  0  1  0  0  0  0  0  0
  185.7290  177.7570  138.9910 C   0  0  2  0  0  3  0  0  0  0  0  0
  185.0660  178.7860  139.9020 C   0  0  0  0  0  2  0  0  0  0  0  0
  184.8170  179.9740  139.2120 O   0  0  0  0  0  1  0  0  0  0  0  0
  187.7120  178.5630  141.1280 C   0  0  0  0  0  2  0  0  0  0  0  0
  188.5610  176.6380  142.1990 O   0  0  0  0  0  0  0  0  0  0  0  0
  188.0420  177.7340  142.3280 C   0  0  0  0  0  0  0  0  0  0  0  0
  187.7820  178.2170  143.5700 F   0  0  0  0  0  0  0  0  0  0  0  0
  187.5220  175.0940  137.7350 C   0  0  0  0  0  2  0  0  0  0  0  0
  187.2500  174.4390  135.4490 O   0  0  0  0  0  1  0  0  0  0  0  0
  186.5530  174.7860  136.6060 C   0  0  0  0  0  2  0  0  0  0  0  0
  188.2230  178.5500  136.5150 C   0  0  0  0  0  2  0  0  0  0  0  0
  189.2180  177.8320  134.5040 O   0  0  0  0  0  0  0  0  0  0  0  0
  188.1840  178.1100  135.0880 C   0  0  0  0  0  0  0  0  0  0  0  0
  186.8790  177.9940  134.3830 C   0  0  0  0  0  1  0  0  0  0  0  0
  1 13  1  6  0  0  0
  1  3  1  0  0  0  0
  2  7  1  0  0  0  0
  2  6  1  0  0  0  0
  3  5  1  0  0  0  0
  4 20  1  1  0  0  0
  5  4  1  0  0  0  0
  6 17  1  1  0  0  0
  6  4  1  0  0  0  0
  7 24  1  1  0  0  0
  7  1  1  0  0  0  0
  8 10  1  0  0  0  0
  9  8  2  0  0  0  0
 11 13  2  0  0  0  0
 12 15  1  0  0  0  0
 13  8  1  0  0  0  0
 14  9  1  0  0  0  0
 15 14  2  0  0  0  0
 15 11  1  0  0  0  0
 17 16  1  6  0  0  0
 17 18  1  0  0  0  0
 19 18  1  0  0  0  0
 20 22  1  0  0  0  0
 21 22  2  0  0  0  0
 22 23  1  0  0  0  0
 25 26  1  0  0  0  0
 26 24  1  0  0  0  0
 27  2  1  0  0  0  0
 28 29  2  0  0  0  0
 29 27  1  0  0  0  0
 30 29  1  0  0  0  0
M  END
>  <MODEL>
9

>  <REMARK>
 VINA RESULT:      -3.8      4.205      7.657
  Name = 
  9 active torsions:
  status: ('A' for Active; 'I' for Inactive)
    1  A    between atoms: C_1  and  C_22
    2  A    between atoms: N_4  and  C_25
    3  A    between atoms: C_6  and  C_8
    4  A    between atoms: C_6  and  C_17
    5  A    between atoms: C_7  and  C_30
    6  A    between atoms: C_10  and  C_23
    7  A    between atoms: C_10  and  C_26
    8  A    between atoms: C_11  and  C_25
    9  A    between atoms: C_13  and  C_30
                            x       y       z     vdW  Elec       q    Type
                         _______ _______ _______ _____ _____    ______ ____

>  <TORSDO>
F 9

$$$$
