=
 OpenBabel10272400063D

 34 38  0  0  1  0  0  0  0  0999 V2000
  189.2230  176.9160  135.1820 C   0  0  0  0  0  0  0  0  0  0  0  0
  187.7640  177.3440  137.2920 C   0  0  1  0  0  3  0  0  0  0  0  0
  190.2190  176.4390  137.4560 C   0  0  2  0  0  3  0  0  0  0  0  0
  186.9860  178.0760  135.0590 C   0  0  0  0  0  2  0  0  0  0  0  0
  192.5670  175.4790  137.4300 C   0  0  1  0  0  3  0  0  0  0  0  0
  194.5940  174.2800  137.6360 O   0  0  0  0  0  0  0  0  0  0  0  0
  187.2640  178.5300  136.4800 C   0  0  0  0  0  2  0  0  0  0  0  0
  188.9740  177.1910  139.4650 C   0  0  0  0  0  3  0  0  0  0  0  0
  193.3380  171.6820  136.7630 O   0  0  0  0  0  0  0  0  0  0  0  0
  188.9290  176.5650  136.6230 C   0  0  2  0  0  3  0  0  0  0  0  0
  193.6560  173.0780  134.7670 O   0  0  0  0  0  0  0  0  0  0  0  0
  188.2930  177.7490  134.3460 C   0  0  0  0  0  2  0  0  0  0  0  0
  191.1740  175.4310  136.7560 C   0  0  1  0  0  0  0  0  0  0  0  0
  193.4860  174.3200  137.1230 C   0  0  0  0  0  0  0  0  0  0  0  0
  190.3620  176.4990  134.6310 C   0  0  0  0  0  3  0  0  0  0  0  0
  188.0230  177.7600  138.7170 C   0  0  0  0  0  3  0  0  0  0  0  0
  191.2140  173.0400  135.8700 C   0  0  0  0  0  2  0  0  0  0  0  0
  192.9770  172.9810  136.1030 S   0  0  0  0  0  0  0  0  0  0  0  0
  190.5740  174.0130  136.8520 C   0  0  0  0  0  2  0  0  0  0  0  0
  193.2730  176.8050  137.1690 C   0  0  0  0  0  1  0  0  0  0  0  0
  189.8540  176.1030  138.9160 C   0  0  2  0  0  3  0  0  0  0  0  0
  191.3220  175.7910  135.3700 O   0  0  0  0  0  0  0  0  0  0  0  0
  191.0000  175.9980  139.7130 O   0  0  0  0  0  0  0  0  0  0  0  0
  190.7650  176.8170  140.8210 C   0  0  2  0  0  3  0  0  0  0  0  0
  192.0500  177.5310  141.1950 C   0  0  0  0  0  1  0  0  0  0  0  0
  190.3120  176.0110  141.9430 N   0  0  0  0  0  2  0  0  0  0  0  0
  190.7230  176.7020  143.1550 C   0  0  0  0  0  2  0  0  0  0  0  0
  190.9000  177.4180  145.9250 F   0  0  0  0  0  0  0  0  0  0  0  0
  189.5310  176.9950  144.0020 C   0  0  0  0  0  0  0  0  0  0  0  0
  189.6720  177.3470  145.3540 C   0  0  0  0  0  0  0  0  0  0  0  0
  187.2650  177.5580  145.5490 C   0  0  0  0  0  3  0  0  0  0  0  0
  187.1240  177.2090  144.2030 C   0  0  0  0  0  3  0  0  0  0  0  0
  188.2540  176.9280  143.4310 C   0  0  0  0  0  3  0  0  0  0  0  0
  188.5380  177.6250  146.1240 C   0  0  0  0  0  3  0  0  0  0  0  0
  1 10  1  0  0  0  0
  2  7  1  6  0  0  0
  2 16  1  0  0  0  0
  3 21  1  0  0  0  0
  4  7  1  0  0  0  0
 10  2  1  0  0  0  0
 10  3  1  0  0  0  0
 11 18  2  0  0  0  0
 12  4  1  0  0  0  0
 12  1  1  0  0  0  0
 13 19  1  0  0  0  0
 13  5  1  0  0  0  0
 13  3  1  0  0  0  0
 14  5  1  0  0  0  0
 14  6  2  0  0  0  0
 15  1  2  0  0  0  0
 15 22  1  0  0  0  0
 16  8  2  0  0  0  0
 17 18  1  0  0  0  0
 17 19  1  0  0  0  0
 18  9  2  0  0  0  0
 18 14  1  0  0  0  0
 20  5  1  0  0  0  0
 21  8  1  0  0  0  0
 21 23  1  0  0  0  0
 22 13  1  0  0  0  0
 23 24  1  0  0  0  0
 24 25  1  0  0  0  0
 24 26  1  0  0  0  0
 26 27  1  0  0  0  0
 27 29  1  0  0  0  0
 29 30  1  0  0  0  0
 30 28  1  0  0  0  0
 30 34  2  0  0  0  0
 31 34  1  0  0  0  0
 32 31  2  0  0  0  0
 33 29  2  0  0  0  0
 33 32  1  0  0  0  0
M  END
>  <MODEL>
1

>  <REMARK>
 VINA RESULT:      -7.8      0.000      0.000
  Name = 
  5 active torsions:
  status: ('A' for Active; 'I' for Inactive)
    1  A    between atoms: C_3  and  C_13
    2  A    between atoms: C_3  and  N_17
    3  A    between atoms: O_5  and  C_18
    4  A    between atoms: O_5  and  C_31
    5  A    between atoms: N_17  and  C_18
                            x       y       z     vdW  Elec       q    Type
                         _______ _______ _______ _____ _____    ______ ____

>  <TORSDO>
F 5

$$$$
=
 OpenBabel10272400063D

 34 38  0  0  1  0  0  0  0  0999 V2000
  182.9310  178.6600  142.9520 C   0  0  0  0  0  0  0  0  0  0  0  0
  185.5020  178.4590  143.2950 C   0  0  1  0  0  3  0  0  0  0  0  0
  184.4350  178.8040  140.9250 C   0  0  2  0  0  3  0  0  0  0  0  0
  183.9870  178.6460  145.2430 C   0  0  0  0  0  2  0  0  0  0  0  0
  183.2360  179.0400  138.7010 C   0  0  1  0  0  3  0  0  0  0  0  0
  182.3370  178.9280  136.5180 O   0  0  0  0  0  0  0  0  0  0  0  0
  185.2080  179.2410  144.5670 C   0  0  0  0  0  2  0  0  0  0  0  0
  186.8820  178.9840  141.2870 C   0  0  0  0  0  3  0  0  0  0  0  0
  181.6390  176.0060  136.7780 O   0  0  0  0  0  0  0  0  0  0  0  0
  184.2710  178.2790  142.3640 C   0  0  2  0  0  3  0  0  0  0  0  0
  179.9830  177.2980  138.0520 O   0  0  0  0  0  0  0  0  0  0  0  0
  182.7380  178.9280  144.4170 C   0  0  0  0  0  2  0  0  0  0  0  0
  183.2260  178.3220  140.0720 C   0  0  1  0  0  0  0  0  0  0  0  0
  182.3650  178.4260  137.6320 C   0  0  0  0  0  0  0  0  0  0  0  0
  181.8820  178.7930  142.1420 C   0  0  0  0  0  3  0  0  0  0  0  0
  186.7270  179.0130  142.6150 C   0  0  0  0  0  3  0  0  0  0  0  0
  181.9980  176.1830  139.4220 C   0  0  0  0  0  2  0  0  0  0  0  0
  181.4400  176.9590  137.9210 S   0  0  0  0  0  0  0  0  0  0  0  0
  183.3160  176.7940  139.8840 C   0  0  0  0  0  2  0  0  0  0  0  0
  182.9390  180.5290  138.8440 C   0  0  0  0  0  1  0  0  0  0  0  0
  185.8250  178.4040  140.3900 C   0  0  2  0  0  3  0  0  0  0  0  0
  181.9990  178.6450  140.7520 O   0  0  0  0  0  0  0  0  0  0  0  0
  186.0220  178.8780  139.0880 O   0  0  0  0  0  0  0  0  0  0  0  0
  186.6240  177.8270  138.3900 C   0  0  2  0  0  3  0  0  0  0  0  0
  188.0620  178.1940  138.0790 C   0  0  0  0  0  1  0  0  0  0  0  0
  185.9050  177.5830  137.1490 N   0  0  0  0  0  2  0  0  0  0  0  0
  186.6430  176.5610  136.4260 C   0  0  0  0  0  2  0  0  0  0  0  0
  188.3930  174.3220  136.8090 F   0  0  0  0  0  0  0  0  0  0  0  0
  186.1640  175.2070  136.8280 C   0  0  0  0  0  0  0  0  0  0  0  0
  187.0630  174.1430  137.0080 C   0  0  0  0  0  0  0  0  0  0  0  0
  185.2200  172.6860  137.6040 C   0  0  0  0  0  3  0  0  0  0  0  0
  184.3240  173.7440  137.4260 C   0  0  0  0  0  3  0  0  0  0  0  0
  184.7940  175.0020  137.0390 C   0  0  0  0  0  3  0  0  0  0  0  0
  186.5880  172.8860  137.3940 C   0  0  0  0  0  3  0  0  0  0  0  0
  1 12  1  0  0  0  0
  2 16  1  6  0  0  0
  2  7  1  0  0  0  0
  3 10  1  0  0  0  0
  5 20  1  0  0  0  0
  5 13  1  0  0  0  0
  6 14  2  0  0  0  0
  7  4  1  0  0  0  0
  8 16  2  0  0  0  0
  9 18  2  0  0  0  0
 10  1  1  0  0  0  0
 10  2  1  0  0  0  0
 12  4  1  0  0  0  0
 13 22  1  0  0  0  0
 13  3  1  0  0  0  0
 14 18  1  0  0  0  0
 14  5  1  0  0  0  0
 15  1  2  0  0  0  0
 17 19  1  0  0  0  0
 18 11  2  0  0  0  0
 18 17  1  0  0  0  0
 19 13  1  0  0  0  0
 21  3  1  0  0  0  0
 21  8  1  0  0  0  0
 22 15  1  0  0  0  0
 23 21  1  0  0  0  0
 24 23  1  0  0  0  0
 25 24  1  0  0  0  0
 26 24  1  0  0  0  0
 27 29  1  0  0  0  0
 27 26  1  0  0  0  0
 28 30  1  0  0  0  0
 29 30  2  0  0  0  0
 29 33  1  0  0  0  0
 30 34  1  0  0  0  0
 32 31  1  0  0  0  0
 33 32  2  0  0  0  0
 34 31  2  0  0  0  0
M  END
>  <MODEL>
2

>  <REMARK>
 VINA RESULT:      -7.4      5.842      9.332
  Name = 
  5 active torsions:
  status: ('A' for Active; 'I' for Inactive)
    1  A    between atoms: C_3  and  C_13
    2  A    between atoms: C_3  and  N_17
    3  A    between atoms: O_5  and  C_18
    4  A    between atoms: O_5  and  C_31
    5  A    between atoms: N_17  and  C_18
                            x       y       z     vdW  Elec       q    Type
                         _______ _______ _______ _____ _____    ______ ____

>  <TORSDO>
F 5

$$$$
=
 OpenBabel10272400063D

 34 38  0  0  1  0  0  0  0  0999 V2000
  184.1810  177.2040  135.5540 C   0  0  0  0  0  0  0  0  0  0  0  0
  182.8660  177.9580  137.6680 C   0  0  1  0  0  3  0  0  0  0  0  0
  185.4840  178.0320  137.5560 C   0  0  2  0  0  3  0  0  0  0  0  0
  181.6690  177.4360  135.5650 C   0  0  0  0  0  2  0  0  0  0  0  0
  188.0080  177.9480  137.3150 C   0  0  1  0  0  3  0  0  0  0  0  0
  190.3500  177.6500  137.4430 O   0  0  0  0  0  0  0  0  0  0  0  0
  181.8780  178.4880  136.6380 C   0  0  0  0  0  2  0  0  0  0  0  0
  184.2320  179.0910  139.4170 C   0  0  0  0  0  3  0  0  0  0  0  0
  190.1160  174.6690  137.8310 O   0  0  0  0  0  0  0  0  0  0  0  0
  184.1760  177.3920  137.0540 C   0  0  2  0  0  3  0  0  0  0  0  0
  189.6930  175.1610  135.4620 O   0  0  0  0  0  0  0  0  0  0  0  0
  182.9310  177.2840  134.7240 C   0  0  0  0  0  2  0  0  0  0  0  0
  186.6860  177.1900  137.0420 C   0  0  1  0  0  0  0  0  0  0  0  0
  189.2700  177.1230  137.2200 C   0  0  0  0  0  0  0  0  0  0  0  0
  185.3390  176.9870  134.9310 C   0  0  0  0  0  3  0  0  0  0  0  0
  183.0720  178.9730  138.7620 C   0  0  0  0  0  3  0  0  0  0  0  0
  187.5620  174.7950  137.0460 C   0  0  0  0  0  2  0  0  0  0  0  0
  189.2250  175.4010  136.8690 S   0  0  0  0  0  0  0  0  0  0  0  0
  186.6890  175.8220  137.7550 C   0  0  0  0  0  2  0  0  0  0  0  0
  188.1240  179.2040  136.4600 C   0  0  0  0  0  1  0  0  0  0  0  0
  185.4090  178.2170  139.0850 C   0  0  2  0  0  3  0  0  0  0  0  0
  186.5600  176.9850  135.6230 O   0  0  0  0  0  0  0  0  0  0  0  0
  186.5740  178.8150  139.5800 O   0  0  0  0  0  0  0  0  0  0  0  0
  186.7120  178.3460  140.8890 C   0  0  2  0  0  3  0  0  0  0  0  0
  185.8760  179.2060  141.8180 C   0  0  0  0  0  1  0  0  0  0  0  0
  188.1080  178.4090  141.2920 N   0  0  0  0  0  2  0  0  0  0  0  0
  188.4190  177.1490  141.9450 C   0  0  0  0  0  2  0  0  0  0  0  0
  186.5290  176.9050  144.0880 F   0  0  0  0  0  0  0  0  0  0  0  0
  188.7670  177.3890  143.3750 C   0  0  0  0  0  0  0  0  0  0  0  0
  187.8050  177.2510  144.3890 C   0  0  0  0  0  0  0  0  0  0  0  0
  189.4730  177.8310  146.0500 C   0  0  0  0  0  3  0  0  0  0  0  0
  190.4320  177.9660  145.0420 C   0  0  0  0  0  3  0  0  0  0  0  0
  190.0800  177.7460  143.7070 C   0  0  0  0  0  3  0  0  0  0  0  0
  188.1610  177.4740  145.7230 C   0  0  0  0  0  3  0  0  0  0  0  0
  1 10  1  0  0  0  0
  2  7  1  6  0  0  0
  2 16  1  0  0  0  0
  3 21  1  0  0  0  0
  4  7  1  0  0  0  0
 10  3  1  0  0  0  0
 10  2  1  0  0  0  0
 11 18  2  0  0  0  0
 12  1  1  0  0  0  0
 12  4  1  0  0  0  0
 13  5  1  0  0  0  0
 13  3  1  0  0  0  0
 13 19  1  0  0  0  0
 14  5  1  0  0  0  0
 14  6  2  0  0  0  0
 15  1  2  0  0  0  0
 15 22  1  0  0  0  0
 16  8  2  0  0  0  0
 17 19  1  0  0  0  0
 18 17  1  0  0  0  0
 18 14  1  0  0  0  0
 18  9  2  0  0  0  0
 20  5  1  0  0  0  0
 21  8  1  0  0  0  0
 21 23  1  0  0  0  0
 22 13  1  0  0  0  0
 23 24  1  0  0  0  0
 24 26  1  0  0  0  0
 24 25  1  0  0  0  0
 26 27  1  0  0  0  0
 27 29  1  0  0  0  0
 28 30  1  0  0  0  0
 29 33  2  0  0  0  0
 29 30  1  0  0  0  0
 30 34  2  0  0  0  0
 32 31  2  0  0  0  0
 33 32  1  0  0  0  0
 34 31  1  0  0  0  0
M  END
>  <MODEL>
3

>  <REMARK>
 VINA RESULT:      -7.3      3.123      4.550
  Name = 
  5 active torsions:
  status: ('A' for Active; 'I' for Inactive)
    1  A    between atoms: C_3  and  C_13
    2  A    between atoms: C_3  and  N_17
    3  A    between atoms: O_5  and  C_18
    4  A    between atoms: O_5  and  C_31
    5  A    between atoms: N_17  and  C_18
                            x       y       z     vdW  Elec       q    Type
                         _______ _______ _______ _____ _____    ______ ____

>  <TORSDO>
F 5

$$$$
=
 OpenBabel10272400063D

 34 38  0  0  1  0  0  0  0  0999 V2000
  181.2030  179.1470  135.4670 C   0  0  0  0  0  0  0  0  0  0  0  0
  180.6610  180.4410  137.6590 C   0  0  1  0  0  3  0  0  0  0  0  0
  182.1970  178.3170  137.6380 C   0  0  2  0  0  3  0  0  0  0  0  0
  179.9920  181.3610  135.4600 C   0  0  0  0  0  2  0  0  0  0  0  0
  183.5800  176.1970  137.4540 C   0  0  1  0  0  3  0  0  0  0  0  0
  184.6160  174.0760  137.5770 O   0  0  0  0  0  0  0  0  0  0  0  0
  180.7440  181.6550  136.7450 C   0  0  0  0  0  2  0  0  0  0  0  0
  181.9870  179.7490  139.6520 C   0  0  0  0  0  3  0  0  0  0  0  0
  182.0020  172.6000  137.2900 O   0  0  0  0  0  0  0  0  0  0  0  0
  181.0530  179.1040  136.9720 C   0  0  2  0  0  3  0  0  0  0  0  0
  182.6340  173.4590  135.0770 O   0  0  0  0  0  0  0  0  0  0  0  0
  180.7370  180.3130  134.6420 C   0  0  0  0  0  2  0  0  0  0  0  0
  182.2880  176.9080  136.9840 C   0  0  1  0  0  0  0  0  0  0  0  0
  183.6340  174.7070  137.2140 C   0  0  0  0  0  0  0  0  0  0  0  0
  181.7950  178.1300  134.8440 C   0  0  0  0  0  3  0  0  0  0  0  0
  181.3770  180.7140  138.9550 C   0  0  0  0  0  3  0  0  0  0  0  0
  180.8400  174.8700  136.4820 C   0  0  0  0  0  2  0  0  0  0  0  0
  182.2890  173.8370  136.4890 S   0  0  0  0  0  0  0  0  0  0  0  0
  181.0430  176.0860  137.3770 C   0  0  0  0  0  2  0  0  0  0  0  0
  184.8290  176.8750  136.9010 C   0  0  0  0  0  1  0  0  0  0  0  0
  182.0020  178.3260  139.1670 C   0  0  2  0  0  3  0  0  0  0  0  0
  182.3340  177.0450  135.5510 O   0  0  0  0  0  0  0  0  0  0  0  0
  183.0340  177.6360  139.8140 O   0  0  0  0  0  0  0  0  0  0  0  0
  183.7690  178.6090  140.4970 C   0  0  2  0  0  3  0  0  0  0  0  0
  185.1420  178.7310  139.8640 C   0  0  0  0  0  1  0  0  0  0  0  0
  183.9090  178.2320  141.8940 N   0  0  0  0  0  2  0  0  0  0  0  0
  184.8210  179.1870  142.5010 C   0  0  0  0  0  2  0  0  0  0  0  0
  183.4890  179.5060  145.0200 F   0  0  0  0  0  0  0  0  0  0  0  0
  185.3520  178.6390  143.7830 C   0  0  0  0  0  0  0  0  0  0  0  0
  184.6580  178.8190  144.9910 C   0  0  0  0  0  0  0  0  0  0  0  0
  186.3780  177.5760  146.1630 C   0  0  0  0  0  3  0  0  0  0  0  0
  187.0690  177.3960  144.9620 C   0  0  0  0  0  3  0  0  0  0  0  0
  186.5570  177.9270  143.7740 C   0  0  0  0  0  3  0  0  0  0  0  0
  185.1740  178.2880  146.1770 C   0  0  0  0  0  3  0  0  0  0  0  0
  1 10  1  0  0  0  0
  2  7  1  6  0  0  0
  2 16  1  0  0  0  0
  3 21  1  0  0  0  0
  4  7  1  0  0  0  0
 10  3  1  0  0  0  0
 10  2  1  0  0  0  0
 11 18  2  0  0  0  0
 12  4  1  0  0  0  0
 12  1  1  0  0  0  0
 13 19  1  0  0  0  0
 13  5  1  0  0  0  0
 13  3  1  0  0  0  0
 14  5  1  0  0  0  0
 14  6  2  0  0  0  0
 15  1  2  0  0  0  0
 15 22  1  0  0  0  0
 16  8  2  0  0  0  0
 17 18  1  0  0  0  0
 17 19  1  0  0  0  0
 18 14  1  0  0  0  0
 18  9  2  0  0  0  0
 20  5  1  0  0  0  0
 21  8  1  0  0  0  0
 21 23  1  0  0  0  0
 22 13  1  0  0  0  0
 23 24  1  0  0  0  0
 24 26  1  0  0  0  0
 25 24  1  0  0  0  0
 26 27  1  0  0  0  0
 27 29  1  0  0  0  0
 29 30  1  0  0  0  0
 30 28  1  0  0  0  0
 30 34  2  0  0  0  0
 31 34  1  0  0  0  0
 32 31  2  0  0  0  0
 33 29  2  0  0  0  0
 33 32  1  0  0  0  0
M  END
>  <MODEL>
4

>  <REMARK>
 VINA RESULT:      -7.2      6.163      7.973
  Name = 
  5 active torsions:
  status: ('A' for Active; 'I' for Inactive)
    1  A    between atoms: C_3  and  C_13
    2  A    between atoms: C_3  and  N_17
    3  A    between atoms: O_5  and  C_18
    4  A    between atoms: O_5  and  C_31
    5  A    between atoms: N_17  and  C_18
                            x       y       z     vdW  Elec       q    Type
                         _______ _______ _______ _____ _____    ______ ____

>  <TORSDO>
F 5

$$$$
=
 OpenBabel10272400063D

 34 38  0  0  1  0  0  0  0  0999 V2000
  181.1400  179.1100  141.3760 C   0  0  0  0  0  0  0  0  0  0  0  0
  182.4080  178.7970  143.6260 C   0  0  1  0  0  3  0  0  0  0  0  0
  183.6220  178.6340  141.3080 C   0  0  2  0  0  3  0  0  0  0  0  0
  180.0580  179.5740  143.6070 C   0  0  0  0  0  2  0  0  0  0  0  0
  184.6190  178.4130  138.9850 C   0  0  1  0  0  3  0  0  0  0  0  0
  185.6860  177.8410  136.9550 O   0  0  0  0  0  0  0  0  0  0  0  0
  181.4580  179.8880  144.1000 C   0  0  0  0  0  2  0  0  0  0  0  0
  184.8910  178.7030  143.4370 C   0  0  0  0  0  3  0  0  0  0  0  0
  184.3580  175.1360  136.8280 O   0  0  0  0  0  0  0  0  0  0  0  0
  182.3120  178.4930  142.1050 C   0  0  2  0  0  3  0  0  0  0  0  0
  182.6960  176.8270  136.1870 O   0  0  0  0  0  0  0  0  0  0  0  0
  179.9830  179.7440  142.0940 C   0  0  0  0  0  2  0  0  0  0  0  0
  183.4070  178.0550  139.8800 C   0  0  1  0  0  0  0  0  0  0  0  0
  184.7430  177.6260  137.7020 C   0  0  0  0  0  0  0  0  0  0  0  0
  181.1390  179.1240  140.0440 C   0  0  0  0  0  3  0  0  0  0  0  0
  183.8030  179.0690  144.1250 C   0  0  0  0  0  3  0  0  0  0  0  0
  182.6300  175.9270  138.7100 C   0  0  0  0  0  2  0  0  0  0  0  0
  183.6050  176.3530  137.2840 S   0  0  0  0  0  0  0  0  0  0  0  0
  183.2360  176.5250  139.9730 C   0  0  0  0  0  2  0  0  0  0  0  0
  184.6880  179.9100  138.7040 C   0  0  0  0  0  1  0  0  0  0  0  0
  184.7790  178.0070  142.1110 C   0  0  2  0  0  3  0  0  0  0  0  0
  182.2220  178.6310  139.3000 O   0  0  0  0  0  0  0  0  0  0  0  0
  185.9950  178.1310  141.4270 O   0  0  0  0  0  0  0  0  0  0  0  0
  186.9610  178.3460  142.4140 C   0  0  2  0  0  3  0  0  0  0  0  0
  188.2550  178.7880  141.7560 C   0  0  0  0  0  1  0  0  0  0  0  0
  187.1890  177.1170  143.1580 N   0  0  0  0  0  2  0  0  0  0  0  0
  188.5300  177.2010  143.7140 C   0  0  0  0  0  2  0  0  0  0  0  0
  190.7740  176.7590  145.4430 F   0  0  0  0  0  0  0  0  0  0  0  0
  188.4570  177.3310  145.1980 C   0  0  0  0  0  0  0  0  0  0  0  0
  189.5880  177.1080  146.0010 C   0  0  0  0  0  0  0  0  0  0  0  0
  188.2790  177.6060  147.9800 C   0  0  0  0  0  3  0  0  0  0  0  0
  187.1540  177.8290  147.1820 C   0  0  0  0  0  3  0  0  0  0  0  0
  187.2420  177.6920  145.7930 C   0  0  0  0  0  3  0  0  0  0  0  0
  189.4940  177.2450  147.3900 C   0  0  0  0  0  3  0  0  0  0  0  0
  1 12  1  0  0  0  0
  1 10  1  0  0  0  0
  2  7  1  6  0  0  0
  2 16  1  0  0  0  0
  3 10  1  0  0  0  0
  3 21  1  0  0  0  0
  4  7  1  0  0  0  0
  5 13  1  0  0  0  0
  6 14  2  0  0  0  0
  8 16  2  0  0  0  0
  9 18  2  0  0  0  0
 10  2  1  0  0  0  0
 11 18  2  0  0  0  0
 12  4  1  0  0  0  0
 13 19  1  0  0  0  0
 13  3  1  0  0  0  0
 14  5  1  0  0  0  0
 15  1  2  0  0  0  0
 17 19  1  0  0  0  0
 18 14  1  0  0  0  0
 18 17  1  0  0  0  0
 20  5  1  0  0  0  0
 21  8  1  0  0  0  0
 22 13  1  0  0  0  0
 22 15  1  0  0  0  0
 23 21  1  0  0  0  0
 23 24  1  0  0  0  0
 24 26  1  0  0  0  0
 25 24  1  0  0  0  0
 26 27  1  0  0  0  0
 27 29  1  0  0  0  0
 28 30  1  0  0  0  0
 29 33  2  0  0  0  0
 29 30  1  0  0  0  0
 30 34  2  0  0  0  0
 32 31  2  0  0  0  0
 33 32  1  0  0  0  0
 34 31  1  0  0  0  0
M  END
>  <MODEL>
5

>  <REMARK>
 VINA RESULT:      -7.2      5.510      7.752
  Name = 
  5 active torsions:
  status: ('A' for Active; 'I' for Inactive)
    1  A    between atoms: C_3  and  C_13
    2  A    between atoms: C_3  and  N_17
    3  A    between atoms: O_5  and  C_18
    4  A    between atoms: O_5  and  C_31
    5  A    between atoms: N_17  and  C_18
                            x       y       z     vdW  Elec       q    Type
                         _______ _______ _______ _____ _____    ______ ____

>  <TORSDO>
F 5

$$$$
=
 OpenBabel10272400063D

 34 38  0  0  1  0  0  0  0  0999 V2000
  181.9550  178.4740  142.4010 C   0  0  0  0  0  0  0  0  0  0  0  0
  184.4500  178.7950  143.0620 C   0  0  1  0  0  3  0  0  0  0  0  0
  183.6590  178.8010  140.5630 C   0  0  2  0  0  3  0  0  0  0  0  0
  182.6840  178.7840  144.7960 C   0  0  0  0  0  2  0  0  0  0  0  0
  182.7400  178.6840  138.2010 C   0  0  1  0  0  3  0  0  0  0  0  0
  182.1730  178.2850  135.9410 O   0  0  0  0  0  0  0  0  0  0  0  0
  183.8510  179.5700  144.2270 C   0  0  0  0  0  2  0  0  0  0  0  0
  185.9600  179.4730  141.1990 C   0  0  0  0  0  3  0  0  0  0  0  0
  182.0030  175.3010  136.3380 O   0  0  0  0  0  0  0  0  0  0  0  0
  183.4080  178.3310  142.0080 C   0  0  2  0  0  3  0  0  0  0  0  0
  179.9820  176.3110  137.3030 O   0  0  0  0  0  0  0  0  0  0  0  0
  181.5240  178.7750  143.8080 C   0  0  0  0  0  2  0  0  0  0  0  0
  182.6840  178.0500  139.6120 C   0  0  1  0  0  0  0  0  0  0  0  0
  182.1470  177.8570  137.0850 C   0  0  0  0  0  0  0  0  0  0  0  0
  181.0150  178.3580  141.4650 C   0  0  0  0  0  3  0  0  0  0  0  0
  185.6300  179.5400  142.4940 C   0  0  0  0  0  3  0  0  0  0  0  0
  181.9720  175.6830  138.9850 C   0  0  0  0  0  2  0  0  0  0  0  0
  181.4820  176.2550  137.3740 S   0  0  0  0  0  0  0  0  0  0  0  0
  183.0810  176.5600  139.5530 C   0  0  0  0  0  2  0  0  0  0  0  0
  182.1550  180.0920  138.1930 C   0  0  0  0  0  1  0  0  0  0  0  0
  185.1570  178.6520  140.2290 C   0  0  2  0  0  3  0  0  0  0  0  0
  181.3390  178.1630  140.1140 O   0  0  0  0  0  0  0  0  0  0  0  0
  185.4320  179.0870  138.9280 O   0  0  0  0  0  0  0  0  0  0  0  0
  186.5990  178.4210  138.5450 C   0  0  2  0  0  3  0  0  0  0  0  0
  186.2440  177.3080  137.5780 C   0  0  0  0  0  1  0  0  0  0  0  0
  187.2520  177.8570  139.7170 N   0  0  0  0  0  2  0  0  0  0  0  0
  188.6100  177.5190  139.3240 C   0  0  0  0  0  2  0  0  0  0  0  0
  191.4050  176.8920  139.2050 F   0  0  0  0  0  0  0  0  0  0  0  0
  189.5140  177.5860  140.5070 C   0  0  0  0  0  0  0  0  0  0  0  0
  190.8790  177.2730  140.3960 C   0  0  0  0  0  0  0  0  0  0  0  0
  191.1790  177.7440  142.7540 C   0  0  0  0  0  3  0  0  0  0  0  0
  189.8220  178.0570  142.8670 C   0  0  0  0  0  3  0  0  0  0  0  0
  188.9900  177.9770  141.7460 C   0  0  0  0  0  3  0  0  0  0  0  0
  191.7060  177.3520  141.5200 C   0  0  0  0  0  3  0  0  0  0  0  0
  1 12  1  0  0  0  0
  2 16  1  6  0  0  0
  2  7  1  0  0  0  0
  3 10  1  0  0  0  0
  5 13  1  0  0  0  0
  6 14  2  0  0  0  0
  7  4  1  0  0  0  0
  8 16  2  0  0  0  0
  9 18  2  0  0  0  0
 10  1  1  0  0  0  0
 10  2  1  0  0  0  0
 11 18  2  0  0  0  0
 12  4  1  0  0  0  0
 13 22  1  0  0  0  0
 13  3  1  0  0  0  0
 14 18  1  0  0  0  0
 14  5  1  0  0  0  0
 15  1  2  0  0  0  0
 17 19  1  0  0  0  0
 18 17  1  0  0  0  0
 19 13  1  0  0  0  0
 20  5  1  0  0  0  0
 21  3  1  0  0  0  0
 21  8  1  0  0  0  0
 22 15  1  0  0  0  0
 23 21  1  0  0  0  0
 24 23  1  0  0  0  0
 24 26  1  0  0  0  0
 25 24  1  0  0  0  0
 27 26  1  0  0  0  0
 27 29  1  0  0  0  0
 28 30  1  0  0  0  0
 29 33  1  0  0  0  0
 30 29  2  0  0  0  0
 30 34  1  0  0  0  0
 31 32  1  0  0  0  0
 33 32  2  0  0  0  0
 34 31  2  0  0  0  0
M  END
>  <MODEL>
6

>  <REMARK>
 VINA RESULT:      -7.0      5.651      8.650
  Name = 
  5 active torsions:
  status: ('A' for Active; 'I' for Inactive)
    1  A    between atoms: C_3  and  C_13
    2  A    between atoms: C_3  and  N_17
    3  A    between atoms: O_5  and  C_18
    4  A    between atoms: O_5  and  C_31
    5  A    between atoms: N_17  and  C_18
                            x       y       z     vdW  Elec       q    Type
                         _______ _______ _______ _____ _____    ______ ____

>  <TORSDO>
F 5

$$$$
=
 OpenBabel10272400063D

 34 38  0  0  1  0  0  0  0  0999 V2000
  186.3900  174.1970  135.3240 C   0  0  0  0  0  0  0  0  0  0  0  0
  183.9940  174.2650  136.3340 C   0  0  1  0  0  3  0  0  0  0  0  0
  185.6540  176.2820  136.5500 C   0  0  2  0  0  3  0  0  0  0  0  0
  184.6800  172.4020  134.8560 C   0  0  0  0  0  2  0  0  0  0  0  0
  187.4150  178.0980  136.7500 C   0  0  1  0  0  3  0  0  0  0  0  0
  188.9800  179.7680  137.3430 O   0  0  0  0  0  0  0  0  0  0  0  0
  183.6400  173.4850  135.0760 C   0  0  0  0  0  2  0  0  0  0  0  0
  183.2670  176.4910  137.1860 C   0  0  0  0  0  3  0  0  0  0  0  0
  190.2830  178.0360  139.4400 O   0  0  0  0  0  0  0  0  0  0  0  0
  185.4650  174.7630  136.3770 C   0  0  2  0  0  3  0  0  0  0  0  0
  191.0330  177.2530  137.2360 O   0  0  0  0  0  0  0  0  0  0  0  0
  186.0140  173.0250  134.4620 C   0  0  0  0  0  2  0  0  0  0  0  0
  187.1580  176.5730  136.8260 C   0  0  1  0  0  0  0  0  0  0  0  0
  188.7170  178.5740  137.3490 C   0  0  0  0  0  0  0  0  0  0  0  0
  187.5750  174.7710  135.1250 C   0  0  0  0  0  3  0  0  0  0  0  0
  182.9620  175.3310  136.5930 C   0  0  0  0  0  3  0  0  0  0  0  0
  189.0390  175.9020  138.4110 C   0  0  0  0  0  2  0  0  0  0  0  0
  189.8400  177.4650  138.1230 S   0  0  0  0  0  0  0  0  0  0  0  0
  187.5330  176.0280  138.2190 C   0  0  0  0  0  2  0  0  0  0  0  0
  187.2540  178.6260  135.3300 C   0  0  0  0  0  1  0  0  0  0  0  0
  184.6720  176.8020  137.6190 C   0  0  2  0  0  3  0  0  0  0  0  0
  187.9650  175.9210  135.8280 O   0  0  0  0  0  0  0  0  0  0  0  0
  184.7990  178.1850  137.7930 O   0  0  0  0  0  0  0  0  0  0  0  0
  184.4900  178.4260  139.1350 C   0  0  2  0  0  3  0  0  0  0  0  0
  183.4840  179.5580  139.2190 C   0  0  0  0  0  1  0  0  0  0  0  0
  185.6960  178.7910  139.8610 N   0  0  0  0  0  2  0  0  0  0  0  0
  185.2990  179.0610  141.2330 C   0  0  0  0  0  2  0  0  0  0  0  0
  184.5890  178.2710  143.8970 F   0  0  0  0  0  0  0  0  0  0  0  0
  186.2550  178.4120  142.1760 C   0  0  0  0  0  0  0  0  0  0  0  0
  185.8560  178.0390  143.4710 C   0  0  0  0  0  0  0  0  0  0  0  0
  188.0790  177.1780  143.9070 C   0  0  0  0  0  3  0  0  0  0  0  0
  188.4770  177.5470  142.6190 C   0  0  0  0  0  3  0  0  0  0  0  0
  187.5670  178.1630  141.7550 C   0  0  0  0  0  3  0  0  0  0  0  0
  186.7700  177.4250  144.3320 C   0  0  0  0  0  3  0  0  0  0  0  0
  1 10  1  0  0  0  0
  2  7  1  6  0  0  0
  2 10  1  0  0  0  0
  2 16  1  0  0  0  0
  3 13  1  0  0  0  0
  3 21  1  0  0  0  0
  4  7  1  0  0  0  0
  5 13  1  0  0  0  0
  5 14  1  0  0  0  0
  6 14  2  0  0  0  0
  8 21  1  0  0  0  0
 10  3  1  0  0  0  0
 11 18  2  0  0  0  0
 12  4  1  0  0  0  0
 12  1  1  0  0  0  0
 13 19  1  0  0  0  0
 14 18  1  0  0  0  0
 15  1  2  0  0  0  0
 15 22  1  0  0  0  0
 16  8  2  0  0  0  0
 18 17  1  0  0  0  0
 18  9  2  0  0  0  0
 19 17  1  0  0  0  0
 20  5  1  0  0  0  0
 21 23  1  0  0  0  0
 22 13  1  0  0  0  0
 23 24  1  0  0  0  0
 24 25  1  0  0  0  0
 24 26  1  0  0  0  0
 26 27  1  0  0  0  0
 27 29  1  0  0  0  0
 29 30  1  0  0  0  0
 30 28  1  0  0  0  0
 30 34  2  0  0  0  0
 31 34  1  0  0  0  0
 32 31  2  0  0  0  0
 33 29  2  0  0  0  0
 33 32  1  0  0  0  0
M  END
>  <MODEL>
7

>  <REMARK>
 VINA RESULT:      -6.9      3.821      5.436
  Name = 
  5 active torsions:
  status: ('A' for Active; 'I' for Inactive)
    1  A    between atoms: C_3  and  C_13
    2  A    between atoms: C_3  and  N_17
    3  A    between atoms: O_5  and  C_18
    4  A    between atoms: O_5  and  C_31
    5  A    between atoms: N_17  and  C_18
                            x       y       z     vdW  Elec       q    Type
                         _______ _______ _______ _____ _____    ______ ____

>  <TORSDO>
F 5

$$$$
=
 OpenBabel10272400063D

 34 38  0  0  1  0  0  0  0  0999 V2000
  185.7940  178.1460  145.1520 C   0  0  0  0  0  0  0  0  0  0  0  0
  184.7910  179.1950  142.9930 C   0  0  1  0  0  3  0  0  0  0  0  0
  186.9980  177.7810  142.9590 C   0  0  2  0  0  3  0  0  0  0  0  0
  183.5180  179.2350  145.1160 C   0  0  0  0  0  2  0  0  0  0  0  0
  189.1660  176.4730  143.1200 C   0  0  1  0  0  3  0  0  0  0  0  0
  191.3540  175.5800  143.0760 O   0  0  0  0  0  0  0  0  0  0  0  0
  183.4680  178.8340  143.6530 C   0  0  0  0  0  2  0  0  0  0  0  0
  185.8570  178.4590  140.8640 C   0  0  0  0  0  3  0  0  0  0  0  0
  192.5760  178.0780  144.2420 O   0  0  0  0  0  0  0  0  0  0  0  0
  186.0410  178.6840  143.7610 C   0  0  2  0  0  3  0  0  0  0  0  0
  191.4580  176.8610  146.0590 O   0  0  0  0  0  0  0  0  0  0  0  0
  184.4900  178.3390  145.8740 C   0  0  0  0  0  2  0  0  0  0  0  0
  188.3010  177.5730  143.7830 C   0  0  1  0  0  0  0  0  0  0  0  0
  190.6060  176.4100  143.5710 C   0  0  0  0  0  0  0  0  0  0  0  0
  186.7530  177.4470  145.7580 C   0  0  0  0  0  3  0  0  0  0  0  0
  184.7590  178.8320  141.5320 C   0  0  0  0  0  3  0  0  0  0  0  0
  190.1340  178.9090  144.9490 C   0  0  0  0  0  2  0  0  0  0  0  0
  191.2610  177.5490  144.7390 S   0  0  0  0  0  0  0  0  0  0  0  0
  189.0760  178.9040  143.8520 C   0  0  0  0  0  2  0  0  0  0  0  0
  188.5110  175.1000  143.2260 C   0  0  0  0  0  1  0  0  0  0  0  0
  187.1930  178.3680  141.5470 C   0  0  2  0  0  3  0  0  0  0  0  0
  187.9650  177.1490  145.1180 O   0  0  0  0  0  0  0  0  0  0  0  0
  188.0440  177.5650  140.7780 O   0  0  0  0  0  0  0  0  0  0  0  0
  188.5140  178.3890  139.7510 C   0  0  2  0  0  3  0  0  0  0  0  0
  187.8090  178.0260  138.4590 C   0  0  0  0  0  1  0  0  0  0  0  0
  189.9480  178.2090  139.5910 N   0  0  0  0  0  2  0  0  0  0  0  0
  190.2220  176.7950  139.7920 C   0  0  0  0  0  2  0  0  0  0  0  0
  193.0420  177.2950  139.6540 F   0  0  0  0  0  0  0  0  0  0  0  0
  191.0910  176.2840  138.6930 C   0  0  0  0  0  0  0  0  0  0  0  0
  192.4690  176.5530  138.6740 C   0  0  0  0  0  0  0  0  0  0  0  0
  192.6870  175.2860  136.6190 C   0  0  0  0  0  3  0  0  0  0  0  0
  191.3160  175.0170  136.6370 C   0  0  0  0  0  3  0  0  0  0  0  0
  190.5190  175.5150  137.6720 C   0  0  0  0  0  3  0  0  0  0  0  0
  193.2620  176.0540  137.6360 C   0  0  0  0  0  3  0  0  0  0  0  0
  1 15  2  0  0  0  0
  1 12  1  0  0  0  0
  2 16  1  6  0  0  0
  2  7  1  0  0  0  0
  2 10  1  0  0  0  0
  3 10  1  0  0  0  0
  3 13  1  0  0  0  0
  4 12  1  0  0  0  0
  5 20  1  0  0  0  0
  5 14  1  0  0  0  0
  5 13  1  0  0  0  0
  6 14  2  0  0  0  0
  7  4  1  0  0  0  0
  8 16  2  0  0  0  0
  8 21  1  0  0  0  0
  9 18  2  0  0  0  0
 10  1  1  0  0  0  0
 13 19  1  0  0  0  0
 13 22  1  0  0  0  0
 14 18  1  0  0  0  0
 18 17  1  0  0  0  0
 18 11  2  0  0  0  0
 19 17  1  0  0  0  0
 21  3  1  0  0  0  0
 22 15  1  0  0  0  0
 23 21  1  0  0  0  0
 24 23  1  0  0  0  0
 25 24  1  0  0  0  0
 26 24  1  0  0  0  0
 26 27  1  0  0  0  0
 29 27  1  0  0  0  0
 30 29  1  0  0  0  0
 30 28  1  0  0  0  0
 31 32  2  0  0  0  0
 31 34  1  0  0  0  0
 32 33  1  0  0  0  0
 33 29  2  0  0  0  0
 34 30  2  0  0  0  0
M  END
>  <MODEL>
8

>  <REMARK>
 VINA RESULT:      -6.8      3.748      8.078
  Name = 
  5 active torsions:
  status: ('A' for Active; 'I' for Inactive)
    1  A    between atoms: C_3  and  C_13
    2  A    between atoms: C_3  and  N_17
    3  A    between atoms: O_5  and  C_18
    4  A    between atoms: O_5  and  C_31
    5  A    between atoms: N_17  and  C_18
                            x       y       z     vdW  Elec       q    Type
                         _______ _______ _______ _____ _____    ______ ____

>  <TORSDO>
F 5

$$$$
=
 OpenBabel10272400063D

 34 38  0  0  1  0  0  0  0  0999 V2000
  186.2880  178.1480  137.8860 C   0  0  0  0  0  0  0  0  0  0  0  0
  187.7230  178.5110  140.0250 C   0  0  1  0  0  3  0  0  0  0  0  0
  185.1600  177.9710  140.1410 C   0  0  2  0  0  3  0  0  0  0  0  0
  188.8010  178.3540  137.8030 C   0  0  0  0  0  2  0  0  0  0  0  0
  182.6610  177.5390  140.0710 C   0  0  1  0  0  3  0  0  0  0  0  0
  180.3040  177.4740  140.2430 O   0  0  0  0  0  0  0  0  0  0  0  0
  188.7870  177.7890  139.2110 C   0  0  0  0  0  2  0  0  0  0  0  0
  186.5860  177.9480  142.1710 C   0  0  0  0  0  3  0  0  0  0  0  0
  180.0010  180.3630  139.4320 O   0  0  0  0  0  0  0  0  0  0  0  0
  186.3310  178.5680  139.3380 C   0  0  2  0  0  3  0  0  0  0  0  0
  180.5000  179.0570  137.4130 O   0  0  0  0  0  0  0  0  0  0  0  0
  187.5300  177.9550  137.0630 C   0  0  0  0  0  2  0  0  0  0  0  0
  183.8250  178.3340  139.4310 C   0  0  1  0  0  0  0  0  0  0  0  0
  181.2720  178.0410  139.7570 C   0  0  0  0  0  0  0  0  0  0  0  0
  185.1090  177.9100  137.3140 C   0  0  0  0  0  3  0  0  0  0  0  0
  187.7050  177.9880  141.4380 C   0  0  0  0  0  3  0  0  0  0  0  0
  182.5340  180.3600  138.5740 C   0  0  0  0  0  2  0  0  0  0  0  0
  181.0060  179.4690  138.7650 S   0  0  0  0  0  0  0  0  0  0  0  0
  183.5790  179.8520  139.5590 C   0  0  0  0  0  2  0  0  0  0  0  0
  182.7700  176.0470  139.7770 C   0  0  0  0  0  1  0  0  0  0  0  0
  185.2710  178.4160  141.6130 C   0  0  2  0  0  3  0  0  0  0  0  0
  183.9090  177.9830  138.0370 O   0  0  0  0  0  0  0  0  0  0  0  0
  184.2330  177.8780  142.3840 O   0  0  0  0  0  0  0  0  0  0  0  0
  184.1070  178.7230  143.4900 C   0  0  2  0  0  3  0  0  0  0  0  0
  184.8560  180.0140  143.2190 C   0  0  0  0  0  1  0  0  0  0  0  0
  184.6620  178.0780  144.6700 N   0  0  0  0  0  2  0  0  0  0  0  0
  185.3390  179.1090  145.4380 C   0  0  0  0  0  2  0  0  0  0  0  0
  186.0490  179.8540  148.1140 F   0  0  0  0  0  0  0  0  0  0  0  0
  186.4960  178.5200  146.1720 C   0  0  0  0  0  0  0  0  0  0  0  0
  186.7990  178.9160  147.4850 C   0  0  0  0  0  0  0  0  0  0  0  0
  188.6680  177.3720  147.5180 C   0  0  0  0  0  3  0  0  0  0  0  0
  188.3670  176.9760  146.2120 C   0  0  0  0  0  3  0  0  0  0  0  0
  187.2830  177.5500  145.5390 C   0  0  0  0  0  3  0  0  0  0  0  0
  187.8850  178.3410  148.1530 C   0  0  0  0  0  3  0  0  0  0  0  0
  1 10  1  0  0  0  0
  2  7  1  6  0  0  0
  2 16  1  0  0  0  0
  3 21  1  0  0  0  0
  4  7  1  0  0  0  0
 10  2  1  0  0  0  0
 10  3  1  0  0  0  0
 11 18  2  0  0  0  0
 12  4  1  0  0  0  0
 12  1  1  0  0  0  0
 13 19  1  0  0  0  0
 13  5  1  0  0  0  0
 13  3  1  0  0  0  0
 14  5  1  0  0  0  0
 14  6  2  0  0  0  0
 15  1  2  0  0  0  0
 15 22  1  0  0  0  0
 16  8  2  0  0  0  0
 17 18  1  0  0  0  0
 17 19  1  0  0  0  0
 18  9  2  0  0  0  0
 18 14  1  0  0  0  0
 20  5  1  0  0  0  0
 21  8  1  0  0  0  0
 21 23  1  0  0  0  0
 22 13  1  0  0  0  0
 23 24  1  0  0  0  0
 24 26  1  0  0  0  0
 25 24  1  0  0  0  0
 26 27  1  0  0  0  0
 27 29  1  0  0  0  0
 29 30  1  0  0  0  0
 30 28  1  0  0  0  0
 30 34  2  0  0  0  0
 31 34  1  0  0  0  0
 32 31  2  0  0  0  0
 33 29  2  0  0  0  0
 33 32  1  0  0  0  0
M  END
>  <MODEL>
9

>  <REMARK>
 VINA RESULT:      -6.8      5.547      8.036
  Name = 
  5 active torsions:
  status: ('A' for Active; 'I' for Inactive)
    1  A    between atoms: C_3  and  C_13
    2  A    between atoms: C_3  and  N_17
    3  A    between atoms: O_5  and  C_18
    4  A    between atoms: O_5  and  C_31
    5  A    between atoms: N_17  and  C_18
                            x       y       z     vdW  Elec       q    Type
                         _______ _______ _______ _____ _____    ______ ____

>  <TORSDO>
F 5

$$$$
