=
 OpenBabel10272413133D

 32 37  0  0  1  0  0  0  0  0999 V2000
  190.6940  176.9130  142.8230 C   0  0  2  0  0  3  0  0  0  0  0  0
  189.6150  178.0430  144.8880 C   0  0  2  0  0  3  0  0  0  0  0  0
  190.6910  175.3970  142.9400 C   0  0  0  0  0  2  0  0  0  0  0  0
  190.8900  177.6340  144.1860 C   0  0  1  0  0  3  0  0  0  0  0  0
  189.6270  177.3790  146.1680 N   0  0  2  0  0  0  0  0  0  0  0  0
  184.7500  178.2070  145.4650 C   0  0  0  0  0  3  0  0  0  0  0  0
  188.3110  177.7980  144.2220 C   0  0  0  0  0  0  0  0  0  0  0  0
  186.2710  178.3860  147.3470 C   0  0  0  0  0  3  0  0  0  0  0  0
  187.3580  178.1710  146.4950 C   0  0  0  0  0  0  0  0  0  0  0  0
  191.7370  176.9840  145.2180 N   0  0  2  0  0  0  0  0  0  0  0  0
  188.7760  178.1760  147.0520 C   0  0  0  0  0  2  0  0  0  0  0  0
  191.6680  175.5090  145.1560 C   0  0  0  0  0  2  0  0  0  0  0  0
  188.2550  177.5460  142.9130 C   0  0  0  0  0  3  0  0  0  0  0  0
  189.4670  177.3690  142.1520 N   0  0  0  0  0  0  0  0  0  0  0  0
  187.1350  177.9880  145.1020 C   0  0  0  0  0  0  0  0  0  0  0  0
  191.0490  177.4270  146.4540 C   0  0  2  0  0  3  0  0  0  0  0  0
  191.8850  174.9720  143.7550 C   0  0  0  0  0  2  0  0  0  0  0  0
  184.9720  178.4050  146.8330 C   0  0  0  0  0  3  0  0  0  0  0  0
  185.8280  178.0000  144.5990 C   0  0  0  0  0  3  0  0  0  0  0  0
  188.3060  178.0760  138.6370 C   0  0  0  0  0  0  0  0  0  0  0  0
  187.2510  178.6040  137.9740 F   0  0  0  0  0  0  0  0  0  0  0  0
  190.4990  176.9570  139.9640 C   0  0  0  0  0  3  0  0  0  0  0  0
  189.3880  177.5810  137.9070 C   0  0  0  0  0  3  0  0  0  0  0  0
  189.4220  177.4510  140.7180 C   0  0  0  0  0  0  0  0  0  0  0  0
  188.3160  178.0200  140.0410 C   0  0  0  0  0  0  0  0  0  0  0  0
  187.1630  178.6050  140.7920 C   0  0  0  0  0  1  0  0  0  0  0  0
  190.4860  177.0280  138.5700 C   0  0  0  0  0  0  0  0  0  0  0  0
  191.0700  174.7860  137.3710 C   0  0  0  0  0  1  0  0  0  0  0  0
  191.8710  176.3930  137.6360 S   0  0  0  0  0  0  0  0  0  0  0  0
  192.6280  176.5730  148.0750 N   0  0  0  0  0  0  0  0  0  0  0  0
  191.4100  176.6470  147.6920 C   0  0  0  0  0  3  0  0  0  0  0  0
  192.9650  175.8270  149.2550 C   0  0  0  0  0  1  0  0  0  0  0  0
  1  3  1  1  0  0  0
  1  4  1  0  0  0  0
  2  7  1  6  0  0  0
  2  5  1  0  0  0  0
  3 17  1  0  0  0  0
  4  2  1  0  0  0  0
  4 10  1  0  0  0  0
  5 16  1  0  0  0  0
  5 11  1  0  0  0  0
  6 18  1  0  0  0  0
  7 15  1  0  0  0  0
  9 11  1  0  0  0  0
  9  8  1  0  0  0  0
 10 16  1  0  0  0  0
 12 10  1  0  0  0  0
 13  7  2  0  0  0  0
 14  1  1  0  0  0  0
 14 13  1  0  0  0  0
 15  9  2  0  0  0  0
 16 31  1  0  0  0  0
 17 12  1  0  0  0  0
 18  8  2  0  0  0  0
 19 15  1  0  0  0  0
 19  6  2  0  0  0  0
 20 25  1  0  0  0  0
 21 20  1  0  0  0  0
 22 24  1  0  0  0  0
 23 27  1  0  0  0  0
 23 20  2  0  0  0  0
 24 14  1  0  0  0  0
 25 24  2  0  0  0  0
 25 26  1  0  0  0  0
 27 22  2  0  0  0  0
 28 29  1  0  0  0  0
 29 27  1  0  0  0  0
 30 32  1  0  0  0  0
 31 30  2  0  0  0  0
M  END
>  <MODEL>
1

>  <REMARK>
 VINA RESULT:      -9.3      0.000      0.000
  Name = 
  3 active torsions:
  status: ('A' for Active; 'I' for Inactive)
    1  A    between atoms: S_15  and  C_26
    2  A    between atoms: C_18  and  C_29
    3  A    between atoms: C_20  and  N_27
                            x       y       z     vdW  Elec       q    Type
                         _______ _______ _______ _____ _____    ______ ____

>  <TORSDO>
F 3

$$$$
=
 OpenBabel10272413133D

 32 37  0  0  1  0  0  0  0  0999 V2000
  190.3810  177.0040  142.6460 C   0  0  2  0  0  3  0  0  0  0  0  0
  189.4310  178.1010  144.7890 C   0  0  2  0  0  3  0  0  0  0  0  0
  190.3620  175.4860  142.7300 C   0  0  0  0  0  2  0  0  0  0  0  0
  190.6600  177.6920  144.0110 C   0  0  1  0  0  3  0  0  0  0  0  0
  189.5020  177.4090  146.0530 N   0  0  2  0  0  0  0  0  0  0  0  0
  184.6070  178.3160  145.6330 C   0  0  0  0  0  3  0  0  0  0  0  0
  188.0900  177.8890  144.1900 C   0  0  0  0  0  0  0  0  0  0  0  0
  186.2300  178.4340  147.4330 C   0  0  0  0  0  3  0  0  0  0  0  0
  187.2660  178.2230  146.5190 C   0  0  0  0  0  0  0  0  0  0  0  0
  191.5530  177.0080  144.9810 N   0  0  2  0  0  0  0  0  0  0  0  0
  188.7120  178.1980  146.9980 C   0  0  0  0  0  2  0  0  0  0  0  0
  191.4600  175.5360  144.8920 C   0  0  0  0  0  2  0  0  0  0  0  0
  187.9600  177.6670  142.8810 C   0  0  0  0  0  3  0  0  0  0  0  0
  189.1260  177.4910  142.0520 N   0  0  0  0  0  0  0  0  0  0  0  0
  186.9650  178.0740  145.1370 C   0  0  0  0  0  0  0  0  0  0  0  0
  190.9390  177.4320  146.2620 C   0  0  2  0  0  3  0  0  0  0  0  0
  191.5930  175.0270  143.4700 C   0  0  0  0  0  2  0  0  0  0  0  0
  184.9060  178.4800  146.9910 C   0  0  0  0  0  3  0  0  0  0  0  0
  185.6330  178.1140  144.7060 C   0  0  0  0  0  3  0  0  0  0  0  0
  189.9790  177.6380  138.3840 C   0  0  0  0  0  0  0  0  0  0  0  0
  191.0490  177.5650  137.5590 F   0  0  0  0  0  0  0  0  0  0  0  0
  187.7400  177.8140  140.0520 C   0  0  0  0  0  3  0  0  0  0  0  0
  188.7110  177.8420  137.8360 C   0  0  0  0  0  3  0  0  0  0  0  0
  189.0050  177.6050  140.6240 C   0  0  0  0  0  0  0  0  0  0  0  0
  190.1350  177.5140  139.7750 C   0  0  0  0  0  0  0  0  0  0  0  0
  191.5000  177.2450  140.3240 C   0  0  0  0  0  1  0  0  0  0  0  0
  187.5920  177.9230  138.6680 C   0  0  0  0  0  0  0  0  0  0  0  0
  185.2550  178.6520  139.5680 C   0  0  0  0  0  1  0  0  0  0  0  0
  185.9700  178.1870  137.9670 S   0  0  0  0  0  0  0  0  0  0  0  0
  192.5860  176.5570  147.8020 N   0  0  0  0  0  0  0  0  0  0  0  0
  191.3550  176.6210  147.4610 C   0  0  0  0  0  3  0  0  0  0  0  0
  192.9750  175.7800  148.9450 C   0  0  0  0  0  1  0  0  0  0  0  0
  1  3  1  1  0  0  0
  1  4  1  0  0  0  0
  2  7  1  6  0  0  0
  2  5  1  0  0  0  0
  3 17  1  0  0  0  0
  4  2  1  0  0  0  0
  4 10  1  0  0  0  0
  5 16  1  0  0  0  0
  5 11  1  0  0  0  0
  6 18  1  0  0  0  0
  7 15  1  0  0  0  0
  9 11  1  0  0  0  0
  9  8  1  0  0  0  0
 10 16  1  0  0  0  0
 12 10  1  0  0  0  0
 13  7  2  0  0  0  0
 14  1  1  0  0  0  0
 14 13  1  0  0  0  0
 15  9  2  0  0  0  0
 16 31  1  0  0  0  0
 17 12  1  0  0  0  0
 18  8  2  0  0  0  0
 19 15  1  0  0  0  0
 19  6  2  0  0  0  0
 20 25  1  0  0  0  0
 21 20  1  0  0  0  0
 22 24  1  0  0  0  0
 23 20  2  0  0  0  0
 23 27  1  0  0  0  0
 24 14  1  0  0  0  0
 25 26  1  0  0  0  0
 25 24  2  0  0  0  0
 27 22  2  0  0  0  0
 29 27  1  0  0  0  0
 29 28  1  0  0  0  0
 30 32  1  0  0  0  0
 31 30  2  0  0  0  0
M  END
>  <MODEL>
2

>  <REMARK>
 VINA RESULT:      -8.8      1.480      2.200
  Name = 
  3 active torsions:
  status: ('A' for Active; 'I' for Inactive)
    1  A    between atoms: S_15  and  C_26
    2  A    between atoms: C_18  and  C_29
    3  A    between atoms: C_20  and  N_27
                            x       y       z     vdW  Elec       q    Type
                         _______ _______ _______ _____ _____    ______ ____

>  <TORSDO>
F 3

$$$$
=
 OpenBabel10272413133D

 32 37  0  0  1  0  0  0  0  0999 V2000
  185.3050  178.2050  144.6120 C   0  0  2  0  0  3  0  0  0  0  0  0
  187.4490  177.0160  143.7820 C   0  0  2  0  0  3  0  0  0  0  0  0
  185.6000  179.5940  145.1540 C   0  0  0  0  0  2  0  0  0  0  0  0
  186.4390  177.1810  144.8940 C   0  0  1  0  0  3  0  0  0  0  0  0
  188.7330  177.3550  144.3460 N   0  0  2  0  0  0  0  0  0  0  0  0
  189.4940  178.1410  139.4710 C   0  0  0  0  0  3  0  0  0  0  0  0
  187.2590  177.7640  142.5140 C   0  0  0  0  0  0  0  0  0  0  0  0
  190.7700  177.1280  141.2700 C   0  0  0  0  0  3  0  0  0  0  0  0
  189.6540  177.2000  142.1080 C   0  0  0  0  0  0  0  0  0  0  0  0
  187.2260  177.3190  146.1460 N   0  0  2  0  0  0  0  0  0  0  0  0
  189.7340  176.6650  143.5330 C   0  0  0  0  0  2  0  0  0  0  0  0
  187.3680  178.7280  146.5690 C   0  0  0  0  0  2  0  0  0  0  0  0
  186.0740  178.2980  142.2130 C   0  0  0  0  0  3  0  0  0  0  0  0
  185.0010  178.2780  143.1750 N   0  0  0  0  0  0  0  0  0  0  0  0
  188.4330  177.7360  141.6110 C   0  0  0  0  0  0  0  0  0  0  0  0
  188.5520  176.8380  145.6910 C   0  0  2  0  0  3  0  0  0  0  0  0
  186.0470  179.4700  146.5880 C   0  0  0  0  0  2  0  0  0  0  0  0
  190.6890  177.5970  139.9560 C   0  0  0  0  0  3  0  0  0  0  0  0
  188.3670  178.2110  140.2950 C   0  0  0  0  0  3  0  0  0  0  0  0
  181.2940  178.9580  143.1990 C   0  0  0  0  0  0  0  0  0  0  0  0
  180.2740  179.1420  144.0690 F   0  0  0  0  0  0  0  0  0  0  0  0
  183.3680  178.5650  141.3640 C   0  0  0  0  0  3  0  0  0  0  0  0
  181.0330  178.9980  141.8280 C   0  0  0  0  0  3  0  0  0  0  0  0
  183.6530  178.5250  142.7390 C   0  0  0  0  0  0  0  0  0  0  0  0
  182.6000  178.7280  143.6640 C   0  0  0  0  0  0  0  0  0  0  0  0
  182.8520  178.7430  145.1370 C   0  0  0  0  0  1  0  0  0  0  0  0
  182.0700  178.8080  140.9120 C   0  0  0  0  0  0  0  0  0  0  0  0
  183.1430  179.9530  138.8290 C   0  0  0  0  0  1  0  0  0  0  0  0
  181.7350  178.8560  139.1570 S   0  0  0  0  0  0  0  0  0  0  0  0
  190.5860  176.3190  146.8900 N   0  0  0  0  0  0  0  0  0  0  0  0
  189.6990  177.1930  146.5990 C   0  0  0  0  0  3  0  0  0  0  0  0
  191.6770  176.6640  147.7590 C   0  0  0  0  0  1  0  0  0  0  0  0
  1  4  1  0  0  0  0
  1  3  1  6  0  0  0
  2  7  1  6  0  0  0
  2  5  1  0  0  0  0
  2  4  1  0  0  0  0
  3 17  1  0  0  0  0
  4 10  1  0  0  0  0
  5 16  1  0  0  0  0
  6 18  2  0  0  0  0
  6 19  1  0  0  0  0
  8  9  2  0  0  0  0
  9 11  1  0  0  0  0
 10 12  1  0  0  0  0
 11  5  1  0  0  0  0
 12 17  1  0  0  0  0
 13  7  2  0  0  0  0
 13 14  1  0  0  0  0
 14  1  1  0  0  0  0
 15  9  1  0  0  0  0
 15  7  1  0  0  0  0
 16 10  1  0  0  0  0
 16 31  1  0  0  0  0
 18  8  1  0  0  0  0
 19 15  2  0  0  0  0
 20 25  1  0  0  0  0
 20 21  1  0  0  0  0
 22 24  1  0  0  0  0
 23 20  2  0  0  0  0
 24 14  1  0  0  0  0
 24 25  2  0  0  0  0
 25 26  1  0  0  0  0
 27 22  2  0  0  0  0
 27 23  1  0  0  0  0
 28 29  1  0  0  0  0
 29 27  1  0  0  0  0
 30 32  1  0  0  0  0
 31 30  2  0  0  0  0
M  END
>  <MODEL>
3

>  <REMARK>
 VINA RESULT:      -8.3      3.475      6.284
  Name = 
  3 active torsions:
  status: ('A' for Active; 'I' for Inactive)
    1  A    between atoms: S_15  and  C_26
    2  A    between atoms: C_18  and  C_29
    3  A    between atoms: C_20  and  N_27
                            x       y       z     vdW  Elec       q    Type
                         _______ _______ _______ _____ _____    ______ ____

>  <TORSDO>
F 3

$$$$
=
 OpenBabel10272413133D

 32 37  0  0  1  0  0  0  0  0999 V2000
  189.3060  177.6310  143.5250 C   0  0  2  0  0  3  0  0  0  0  0  0
  188.8000  176.8990  141.0950 C   0  0  2  0  0  3  0  0  0  0  0  0
  190.0890  178.9330  143.5740 C   0  0  0  0  0  2  0  0  0  0  0  0
  189.6790  176.7340  142.3120 C   0  0  1  0  0  3  0  0  0  0  0  0
  189.6700  177.3030  140.0180 N   0  0  2  0  0  0  0  0  0  0  0  0
  185.2360  179.0120  138.4750 C   0  0  0  0  0  3  0  0  0  0  0  0
  187.6390  177.8230  141.1580 C   0  0  0  0  0  0  0  0  0  0  0  0
  187.1060  177.8830  137.4180 C   0  0  0  0  0  3  0  0  0  0  0  0
  187.6850  177.6600  138.6710 C   0  0  0  0  0  0  0  0  0  0  0  0
  191.0790  176.7580  141.8160 N   0  0  2  0  0  0  0  0  0  0  0  0
  189.0030  176.9030  138.7780 C   0  0  0  0  0  2  0  0  0  0  0  0
  191.7160  178.0790  141.9920 C   0  0  0  0  0  2  0  0  0  0  0  0
  187.1680  178.2380  142.3350 C   0  0  0  0  0  3  0  0  0  0  0  0
  187.8620  177.9100  143.5550 N   0  0  0  0  0  0  0  0  0  0  0  0
  187.0170  178.1070  139.8450 C   0  0  0  0  0  0  0  0  0  0  0  0
  190.8570  176.5430  140.3660 C   0  0  2  0  0  3  0  0  0  0  0  0
  191.5540  178.6240  143.3970 C   0  0  0  0  0  2  0  0  0  0  0  0
  185.8860  178.5560  137.3220 C   0  0  0  0  0  3  0  0  0  0  0  0
  185.7980  178.7880  139.7350 C   0  0  0  0  0  3  0  0  0  0  0  0
  185.1690  178.4460  146.1370 C   0  0  0  0  0  0  0  0  0  0  0  0
  183.8450  178.7100  146.2230 F   0  0  0  0  0  0  0  0  0  0  0  0
  187.9130  177.9160  146.0090 C   0  0  0  0  0  3  0  0  0  0  0  0
  185.9110  178.3090  147.3120 C   0  0  0  0  0  3  0  0  0  0  0  0
  187.1840  178.0470  144.8160 C   0  0  0  0  0  0  0  0  0  0  0  0
  185.7950  178.3120  144.8860 C   0  0  0  0  0  0  0  0  0  0  0  0
  184.9600  178.4130  143.6500 C   0  0  0  0  0  1  0  0  0  0  0  0
  187.2800  178.0380  147.2480 C   0  0  0  0  0  0  0  0  0  0  0  0
  189.7830  177.6140  147.8460 C   0  0  0  0  0  1  0  0  0  0  0  0
  188.2310  177.8660  148.7510 S   0  0  0  0  0  0  0  0  0  0  0  0
  192.3100  176.1640  138.4700 N   0  0  0  0  0  0  0  0  0  0  0  0
  192.0330  176.8850  139.4890 C   0  0  0  0  0  3  0  0  0  0  0  0
  193.4340  176.4960  137.6400 C   0  0  0  0  0  1  0  0  0  0  0  0
  1 14  1  0  0  0  0
  1  3  1  6  0  0  0
  2  7  1  1  0  0  0
  2  4  1  0  0  0  0
  4  1  1  0  0  0  0
  5 16  1  0  0  0  0
  5  2  1  0  0  0  0
  6 19  1  0  0  0  0
  7 13  2  0  0  0  0
  8  9  2  0  0  0  0
  9 11  1  0  0  0  0
  9 15  1  0  0  0  0
 10 12  1  0  0  0  0
 10  4  1  0  0  0  0
 11  5  1  0  0  0  0
 12 17  1  0  0  0  0
 13 14  1  0  0  0  0
 14 24  1  0  0  0  0
 15  7  1  0  0  0  0
 16 10  1  0  0  0  0
 17  3  1  0  0  0  0
 18  8  1  0  0  0  0
 18  6  2  0  0  0  0
 19 15  2  0  0  0  0
 20 21  1  0  0  0  0
 20 23  1  0  0  0  0
 22 27  1  0  0  0  0
 24 25  1  0  0  0  0
 24 22  2  0  0  0  0
 25 20  2  0  0  0  0
 26 25  1  0  0  0  0
 27 23  2  0  0  0  0
 27 29  1  0  0  0  0
 28 29  1  0  0  0  0
 30 31  2  0  0  0  0
 31 16  1  0  0  0  0
 32 30  1  0  0  0  0
M  END
>  <MODEL>
4

>  <REMARK>
 VINA RESULT:      -8.3      3.370      7.058
  Name = 
  3 active torsions:
  status: ('A' for Active; 'I' for Inactive)
    1  A    between atoms: S_15  and  C_26
    2  A    between atoms: C_18  and  C_29
    3  A    between atoms: C_20  and  N_27
                            x       y       z     vdW  Elec       q    Type
                         _______ _______ _______ _____ _____    ______ ____

>  <TORSDO>
F 3

$$$$
=
 OpenBabel10272413133D

 32 37  0  0  1  0  0  0  0  0999 V2000
  185.1840  178.2530  144.2680 C   0  0  2  0  0  3  0  0  0  0  0  0
  187.3820  177.0620  143.5980 C   0  0  2  0  0  3  0  0  0  0  0  0
  185.4400  179.6440  144.8260 C   0  0  0  0  0  2  0  0  0  0  0  0
  186.2950  177.2300  144.6340 C   0  0  1  0  0  3  0  0  0  0  0  0
  188.6210  177.4020  144.2530 N   0  0  2  0  0  0  0  0  0  0  0  0
  189.7340  178.1750  139.4430 C   0  0  0  0  0  3  0  0  0  0  0  0
  187.2850  177.8070  142.3180 C   0  0  0  0  0  0  0  0  0  0  0  0
  190.8760  177.1670  141.3320 C   0  0  0  0  0  3  0  0  0  0  0  0
  189.7020  177.2410  142.0870 C   0  0  0  0  0  0  0  0  0  0  0  0
  186.9880  177.3710  145.9390 N   0  0  2  0  0  0  0  0  0  0  0  0
  189.6790  176.7100  143.5150 C   0  0  0  0  0  2  0  0  0  0  0  0
  187.1010  178.7810  146.3670 C   0  0  0  0  0  2  0  0  0  0  0  0
  186.1250  178.3400  141.9310 C   0  0  0  0  0  3  0  0  0  0  0  0
  184.9850  178.3230  142.8120 N   0  0  0  0  0  0  0  0  0  0  0  0
  188.5210  177.7760  141.5020 C   0  0  0  0  0  0  0  0  0  0  0  0
  188.3430  176.8880  145.5820 C   0  0  2  0  0  3  0  0  0  0  0  0
  185.7810  179.5230  146.2890 C   0  0  0  0  0  2  0  0  0  0  0  0
  190.8900  177.6320  140.0150 C   0  0  0  0  0  3  0  0  0  0  0  0
  188.5500  178.2470  140.1830 C   0  0  0  0  0  3  0  0  0  0  0  0
  182.1270  178.8030  140.4010 C   0  0  0  0  0  0  0  0  0  0  0  0
  181.8730  178.8010  139.0730 F   0  0  0  0  0  0  0  0  0  0  0  0
  182.6090  178.8350  143.1570 C   0  0  0  0  0  3  0  0  0  0  0  0
  181.0830  179.0620  141.2920 C   0  0  0  0  0  3  0  0  0  0  0  0
  183.6720  178.5690  142.2790 C   0  0  0  0  0  0  0  0  0  0  0  0
  183.4220  178.5510  140.8850 C   0  0  0  0  0  0  0  0  0  0  0  0
  184.5040  178.2260  139.9060 C   0  0  0  0  0  1  0  0  0  0  0  0
  181.3230  179.0720  142.6680 C   0  0  0  0  0  0  0  0  0  0  0  0
  179.9820  177.7060  144.4390 C   0  0  0  0  0  1  0  0  0  0  0  0
  179.9880  179.4060  143.8080 S   0  0  0  0  0  0  0  0  0  0  0  0
  190.3400  176.4020  146.8560 N   0  0  0  0  0  0  0  0  0  0  0  0
  189.4220  177.2450  146.5700 C   0  0  0  0  0  3  0  0  0  0  0  0
  191.3650  176.7490  147.8010 C   0  0  0  0  0  1  0  0  0  0  0  0
  1  4  1  0  0  0  0
  1  3  1  6  0  0  0
  2  7  1  6  0  0  0
  2  5  1  0  0  0  0
  2  4  1  0  0  0  0
  3 17  1  0  0  0  0
  4 10  1  0  0  0  0
  5 16  1  0  0  0  0
  6 18  2  0  0  0  0
  6 19  1  0  0  0  0
  8  9  2  0  0  0  0
  9 11  1  0  0  0  0
 10 12  1  0  0  0  0
 11  5  1  0  0  0  0
 13  7  2  0  0  0  0
 13 14  1  0  0  0  0
 14  1  1  0  0  0  0
 15  9  1  0  0  0  0
 15  7  1  0  0  0  0
 16 10  1  0  0  0  0
 16 31  1  0  0  0  0
 17 12  1  0  0  0  0
 18  8  1  0  0  0  0
 19 15  2  0  0  0  0
 20 25  2  0  0  0  0
 20 23  1  0  0  0  0
 21 20  1  0  0  0  0
 23 27  2  0  0  0  0
 24 14  1  0  0  0  0
 24 22  2  0  0  0  0
 25 24  1  0  0  0  0
 26 25  1  0  0  0  0
 27 22  1  0  0  0  0
 27 29  1  0  0  0  0
 29 28  1  0  0  0  0
 30 32  1  0  0  0  0
 31 30  2  0  0  0  0
M  END
>  <MODEL>
5

>  <REMARK>
 VINA RESULT:      -8.0      3.640      6.511
  Name = 
  3 active torsions:
  status: ('A' for Active; 'I' for Inactive)
    1  A    between atoms: S_15  and  C_26
    2  A    between atoms: C_18  and  C_29
    3  A    between atoms: C_20  and  N_27
                            x       y       z     vdW  Elec       q    Type
                         _______ _______ _______ _____ _____    ______ ____

>  <TORSDO>
F 3

$$$$
=
 OpenBabel10272413133D

 32 37  0  0  1  0  0  0  0  0999 V2000
  185.7020  178.0930  138.4070 C   0  0  2  0  0  3  0  0  0  0  0  0
  187.5540  178.4230  140.1840 C   0  0  2  0  0  3  0  0  0  0  0  0
  185.4830  176.6240  138.0820 C   0  0  0  0  0  2  0  0  0  0  0  0
  187.1840  178.4390  138.7190 C   0  0  1  0  0  3  0  0  0  0  0  0
  188.6070  177.4480  140.3260 N   0  0  2  0  0  0  0  0  0  0  0  0
  186.7070  177.6100  144.9440 C   0  0  0  0  0  3  0  0  0  0  0  0
  186.5000  178.1540  141.1950 C   0  0  0  0  0  0  0  0  0  0  0  0
  188.9440  177.5230  144.0070 C   0  0  0  0  0  3  0  0  0  0  0  0
  188.4210  177.7310  142.7270 C   0  0  0  0  0  0  0  0  0  0  0  0
  188.2530  177.6840  138.0170 N   0  0  2  0  0  0  0  0  0  0  0  0
  189.3550  177.8210  141.5270 C   0  0  0  0  0  2  0  0  0  0  0  0
  187.8570  176.2910  137.7210 C   0  0  0  0  0  2  0  0  0  0  0  0
  185.2100  178.2620  140.8740 C   0  0  0  0  0  3  0  0  0  0  0  0
  184.8170  178.5030  139.5080 N   0  0  0  0  0  0  0  0  0  0  0  0
  187.0180  177.8990  142.5590 C   0  0  0  0  0  0  0  0  0  0  0  0
  189.3000  177.6520  139.0660 C   0  0  2  0  0  3  0  0  0  0  0  0
  186.4990  176.1980  137.0540 C   0  0  0  0  0  2  0  0  0  0  0  0
  188.0900  177.4630  145.1100 C   0  0  0  0  0  3  0  0  0  0  0  0
  186.1710  177.8290  143.6720 C   0  0  0  0  0  3  0  0  0  0  0  0
  181.0800  178.5830  139.0210 C   0  0  0  0  0  0  0  0  0  0  0  0
  180.0030  177.7680  139.0910 F   0  0  0  0  0  0  0  0  0  0  0  0
  183.2820  180.3000  138.8460 C   0  0  0  0  0  3  0  0  0  0  0  0
  180.9000  179.9170  138.6500 C   0  0  0  0  0  3  0  0  0  0  0  0
  183.4850  178.9630  139.2240 C   0  0  0  0  0  0  0  0  0  0  0  0
  182.3660  178.0990  139.3140 C   0  0  0  0  0  0  0  0  0  0  0  0
  182.5160  176.6780  139.7570 C   0  0  0  0  0  1  0  0  0  0  0  0
  181.9990  180.7760  138.5690 C   0  0  0  0  0  0  0  0  0  0  0  0
  180.3810  182.0830  136.9960 C   0  0  0  0  0  1  0  0  0  0  0  0
  181.7690  182.4830  138.0920 S   0  0  0  0  0  0  0  0  0  0  0  0
  191.3810  176.9130  138.0810 N   0  0  0  0  0  0  0  0  0  0  0  0
  190.3900  176.6380  138.8410 C   0  0  0  0  0  3  0  0  0  0  0  0
  192.4160  175.9400  137.8700 C   0  0  0  0  0  1  0  0  0  0  0  0
  1  3  1  1  0  0  0
  1  4  1  0  0  0  0
  1 14  1  0  0  0  0
  2  5  1  0  0  0  0
  2  7  1  1  0  0  0
  4  2  1  0  0  0  0
  5 11  1  0  0  0  0
  6 18  1  0  0  0  0
  7 15  1  0  0  0  0
  8 18  2  0  0  0  0
  9  8  1  0  0  0  0
 10  4  1  0  0  0  0
 10 16  1  0  0  0  0
 11  9  1  0  0  0  0
 12 10  1  0  0  0  0
 13  7  2  0  0  0  0
 14 13  1  0  0  0  0
 15  9  2  0  0  0  0
 15 19  1  0  0  0  0
 16  5  1  0  0  0  0
 17 12  1  0  0  0  0
 17  3  1  0  0  0  0
 19  6  2  0  0  0  0
 20 21  1  0  0  0  0
 20 25  1  0  0  0  0
 22 24  1  0  0  0  0
 23 20  2  0  0  0  0
 24 25  2  0  0  0  0
 24 14  1  0  0  0  0
 25 26  1  0  0  0  0
 27 23  1  0  0  0  0
 27 22  2  0  0  0  0
 28 29  1  0  0  0  0
 29 27  1  0  0  0  0
 30 31  2  0  0  0  0
 31 16  1  0  0  0  0
 32 30  1  0  0  0  0
M  END
>  <MODEL>
6

>  <REMARK>
 VINA RESULT:      -7.8      4.326      7.235
  Name = 
  3 active torsions:
  status: ('A' for Active; 'I' for Inactive)
    1  A    between atoms: S_15  and  C_26
    2  A    between atoms: C_18  and  C_29
    3  A    between atoms: C_20  and  N_27
                            x       y       z     vdW  Elec       q    Type
                         _______ _______ _______ _____ _____    ______ ____

>  <TORSDO>
F 3

$$$$
=
 OpenBabel10272413133D

 32 37  0  0  1  0  0  0  0  0999 V2000
  190.3010  177.0380  142.8490 C   0  0  2  0  0  3  0  0  0  0  0  0
  188.7470  176.7360  140.8010 C   0  0  2  0  0  3  0  0  0  0  0  0
  191.1930  178.2610  142.7090 C   0  0  0  0  0  2  0  0  0  0  0  0
  190.0230  176.3220  141.4980 C   0  0  1  0  0  3  0  0  0  0  0  0
  189.1380  177.2470  139.5110 N   0  0  2  0  0  0  0  0  0  0  0  0
  184.7200  179.4690  140.2200 C   0  0  0  0  0  3  0  0  0  0  0  0
  187.8450  177.7120  141.4620 C   0  0  0  0  0  0  0  0  0  0  0  0
  185.8260  178.4010  138.3430 C   0  0  0  0  0  3  0  0  0  0  0  0
  186.8370  177.9440  139.1930 C   0  0  0  0  0  0  0  0  0  0  0  0
  191.0820  176.3320  140.4580 N   0  0  2  0  0  0  0  0  0  0  0  0
  187.9740  177.0940  138.6380 C   0  0  0  0  0  2  0  0  0  0  0  0
  191.8980  177.5630  140.4960 C   0  0  0  0  0  2  0  0  0  0  0  0
  187.9590  177.9660  142.7660 C   0  0  0  0  0  3  0  0  0  0  0  0
  189.0470  177.4040  143.5260 N   0  0  0  0  0  0  0  0  0  0  0  0
  186.7760  178.2420  140.5830 C   0  0  0  0  0  0  0  0  0  0  0  0
  190.2560  176.3640  139.2270 C   0  0  2  0  0  3  0  0  0  0  0  0
  192.4020  177.8870  141.8890 C   0  0  0  0  0  2  0  0  0  0  0  0
  184.7710  179.1600  138.8560 C   0  0  0  0  0  3  0  0  0  0  0  0
  185.7190  179.0110  141.0840 C   0  0  0  0  0  3  0  0  0  0  0  0
  187.7280  177.5970  147.0510 C   0  0  0  0  0  0  0  0  0  0  0  0
  186.5760  177.8320  147.7210 F   0  0  0  0  0  0  0  0  0  0  0  0
  190.1360  177.1240  145.7080 C   0  0  0  0  0  3  0  0  0  0  0  0
  188.8930  177.3350  147.7740 C   0  0  0  0  0  3  0  0  0  0  0  0
  188.9750  177.3830  144.9610 C   0  0  0  0  0  0  0  0  0  0  0  0
  187.7580  177.6190  145.6460 C   0  0  0  0  0  0  0  0  0  0  0  0
  186.4810  177.8520  144.9040 C   0  0  0  0  0  1  0  0  0  0  0  0
  190.0940  177.0920  147.1030 C   0  0  0  0  0  0  0  0  0  0  0  0
  192.2120  175.6050  146.7760 C   0  0  0  0  0  1  0  0  0  0  0  0
  191.5860  176.7590  148.0280 S   0  0  0  0  0  0  0  0  0  0  0  0
  191.6030  175.8810  137.2790 N   0  0  0  0  0  0  0  0  0  0  0  0
  190.9970  176.7630  137.9790 C   0  0  0  0  0  3  0  0  0  0  0  0
  192.3100  176.2690  136.0900 C   0  0  0  0  0  1  0  0  0  0  0  0
  1  3  1  6  0  0  0
  1 14  1  0  0  0  0
  2  7  1  1  0  0  0
  2  4  1  0  0  0  0
  4  1  1  0  0  0  0
  5  2  1  0  0  0  0
  6 19  1  0  0  0  0
  7 13  2  0  0  0  0
  8 18  1  0  0  0  0
  8  9  2  0  0  0  0
  9 15  1  0  0  0  0
 10 12  1  0  0  0  0
 10  4  1  0  0  0  0
 11  9  1  0  0  0  0
 11  5  1  0  0  0  0
 12 17  1  0  0  0  0
 13 14  1  0  0  0  0
 14 24  1  0  0  0  0
 15 19  2  0  0  0  0
 15  7  1  0  0  0  0
 16  5  1  0  0  0  0
 16 10  1  0  0  0  0
 17  3  1  0  0  0  0
 18  6  2  0  0  0  0
 20 21  1  0  0  0  0
 20 23  1  0  0  0  0
 22 27  1  0  0  0  0
 24 25  1  0  0  0  0
 24 22  2  0  0  0  0
 25 20  2  0  0  0  0
 26 25  1  0  0  0  0
 27 23  2  0  0  0  0
 27 29  1  0  0  0  0
 28 29  1  0  0  0  0
 30 31  2  0  0  0  0
 31 16  1  0  0  0  0
 32 30  1  0  0  0  0
M  END
>  <MODEL>
7

>  <REMARK>
 VINA RESULT:      -7.7      3.142      6.999
  Name = 
  3 active torsions:
  status: ('A' for Active; 'I' for Inactive)
    1  A    between atoms: S_15  and  C_26
    2  A    between atoms: C_18  and  C_29
    3  A    between atoms: C_20  and  N_27
                            x       y       z     vdW  Elec       q    Type
                         _______ _______ _______ _____ _____    ______ ____

>  <TORSDO>
F 3

$$$$
=
 OpenBabel10272413133D

 32 37  0  0  1  0  0  0  0  0999 V2000
  189.5230  175.4010  136.4160 C   0  0  2  0  0  3  0  0  0  0  0  0
  191.0200  176.7660  138.0270 C   0  0  2  0  0  3  0  0  0  0  0  0
  189.5760  173.9120  136.7180 C   0  0  0  0  0  2  0  0  0  0  0  0
  190.8740  176.1270  136.6650 C   0  0  1  0  0  3  0  0  0  0  0  0
  192.1740  176.1560  138.6400 N   0  0  2  0  0  0  0  0  0  0  0  0
  189.6050  177.7570  142.6150 C   0  0  0  0  0  3  0  0  0  0  0  0
  189.8790  176.7180  138.9760 C   0  0  0  0  0  0  0  0  0  0  0  0
  191.9440  177.7480  141.9690 C   0  0  0  0  0  3  0  0  0  0  0  0
  191.5920  177.3250  140.6840 C   0  0  0  0  0  0  0  0  0  0  0  0
  192.1350  175.3820  136.4230 N   0  0  2  0  0  0  0  0  0  0  0  0
  192.6700  177.1140  139.6280 C   0  0  0  0  0  2  0  0  0  0  0  0
  192.0000  173.9380  136.7060 C   0  0  0  0  0  2  0  0  0  0  0  0
  188.6500  176.4330  138.5440 C   0  0  0  0  0  3  0  0  0  0  0  0
  188.4320  176.0310  137.1770 N   0  0  0  0  0  0  0  0  0  0  0  0
  190.2200  177.1320  140.3570 C   0  0  0  0  0  0  0  0  0  0  0  0
  193.0070  175.9760  137.4650 C   0  0  2  0  0  3  0  0  0  0  0  0
  190.7860  173.3230  136.0390 C   0  0  0  0  0  2  0  0  0  0  0  0
  190.9530  177.9630  142.9290 C   0  0  0  0  0  3  0  0  0  0  0  0
  189.2370  177.3430  141.3320 C   0  0  0  0  0  3  0  0  0  0  0  0
  185.3960  177.0850  135.2080 C   0  0  0  0  0  0  0  0  0  0  0  0
  184.9960  178.0470  134.3460 F   0  0  0  0  0  0  0  0  0  0  0  0
  186.1740  175.0850  137.0030 C   0  0  0  0  0  3  0  0  0  0  0  0
  184.4880  176.0950  135.5910 C   0  0  0  0  0  3  0  0  0  0  0  0
  187.1040  176.0680  136.6290 C   0  0  0  0  0  0  0  0  0  0  0  0
  186.7060  177.0770  135.7170 C   0  0  0  0  0  0  0  0  0  0  0  0
  187.6670  178.1220  135.2470 C   0  0  0  0  0  1  0  0  0  0  0  0
  184.8790  175.0930  136.4820 C   0  0  0  0  0  0  0  0  0  0  0  0
  185.0030  172.8320  137.7760 C   0  0  0  0  0  1  0  0  0  0  0  0
  183.7160  173.8280  136.9740 S   0  0  0  0  0  0  0  0  0  0  0  0
  195.2760  175.2820  136.9960 N   0  0  0  0  0  0  0  0  0  0  0  0
  194.2580  175.1920  137.7650 C   0  0  0  0  0  3  0  0  0  0  0  0
  196.4640  174.5300  137.2880 C   0  0  0  0  0  1  0  0  0  0  0  0
  1  4  1  0  0  0  0
  1  3  1  1  0  0  0
  1 14  1  0  0  0  0
  2  5  1  0  0  0  0
  2  7  1  1  0  0  0
  4  2  1  0  0  0  0
  5 11  1  0  0  0  0
  6 18  1  0  0  0  0
  7 15  1  0  0  0  0
  8 18  2  0  0  0  0
  9  8  1  0  0  0  0
 10  4  1  0  0  0  0
 10 12  1  0  0  0  0
 10 16  1  0  0  0  0
 11  9  1  0  0  0  0
 13  7  2  0  0  0  0
 14 13  1  0  0  0  0
 15  9  2  0  0  0  0
 15 19  1  0  0  0  0
 16 31  1  0  0  0  0
 16  5  1  0  0  0  0
 17 12  1  0  0  0  0
 17  3  1  0  0  0  0
 19  6  2  0  0  0  0
 20 23  2  0  0  0  0
 20 25  1  0  0  0  0
 21 20  1  0  0  0  0
 23 27  1  0  0  0  0
 24 22  1  0  0  0  0
 24 14  1  0  0  0  0
 25 24  2  0  0  0  0
 26 25  1  0  0  0  0
 27 29  1  0  0  0  0
 27 22  2  0  0  0  0
 29 28  1  0  0  0  0
 30 32  1  0  0  0  0
 30 31  2  0  0  0  0
M  END
>  <MODEL>
8

>  <REMARK>
 VINA RESULT:      -7.6      4.454      7.287
  Name = 
  3 active torsions:
  status: ('A' for Active; 'I' for Inactive)
    1  A    between atoms: S_15  and  C_26
    2  A    between atoms: C_18  and  C_29
    3  A    between atoms: C_20  and  N_27
                            x       y       z     vdW  Elec       q    Type
                         _______ _______ _______ _____ _____    ______ ____

>  <TORSDO>
F 3

$$$$
=
 OpenBabel10272413133D

 32 37  0  0  1  0  0  0  0  0999 V2000
  190.0410  177.2110  142.2220 C   0  0  2  0  0  3  0  0  0  0  0  0
  188.2110  178.4930  143.5280 C   0  0  2  0  0  3  0  0  0  0  0  0
  190.0660  175.7340  142.5830 C   0  0  0  0  0  2  0  0  0  0  0  0
  189.6740  178.1300  143.4200 C   0  0  1  0  0  3  0  0  0  0  0  0
  187.7690  178.0180  144.8160 N   0  0  2  0  0  0  0  0  0  0  0  0
  183.4860  178.2160  142.2510 C   0  0  0  0  0  3  0  0  0  0  0  0
  187.2680  178.0210  142.4830 C   0  0  0  0  0  0  0  0  0  0  0  0
  184.1730  178.8140  144.5000 C   0  0  0  0  0  3  0  0  0  0  0  0
  185.5100  178.6010  144.1540 C   0  0  0  0  0  0  0  0  0  0  0  0
  190.0990  177.7230  144.7840 N   0  0  2  0  0  0  0  0  0  0  0  0
  186.6110  178.8340  145.1810 C   0  0  0  0  0  2  0  0  0  0  0  0
  190.1280  176.2550  144.9500 C   0  0  0  0  0  2  0  0  0  0  0  0
  187.7230  177.5860  141.3070 C   0  0  0  0  0  3  0  0  0  0  0  0
  189.1380  177.4360  141.0830 N   0  0  0  0  0  0  0  0  0  0  0  0
  185.8390  178.2040  142.8270 C   0  0  0  0  0  0  0  0  0  0  0  0
  188.9740  178.2560  145.5900 C   0  0  2  0  0  3  0  0  0  0  0  0
  190.8830  175.5550  143.8370 C   0  0  0  0  0  2  0  0  0  0  0  0
  183.1660  178.6230  143.5520 C   0  0  0  0  0  3  0  0  0  0  0  0
  184.8190  178.0070  141.8870 C   0  0  0  0  0  3  0  0  0  0  0  0
  189.3500  177.4970  137.3200 C   0  0  0  0  0  0  0  0  0  0  0  0
  188.5920  177.7880  136.2380 F   0  0  0  0  0  0  0  0  0  0  0  0
  190.9490  176.8660  139.5270 C   0  0  0  0  0  3  0  0  0  0  0  0
  190.6600  177.0520  137.1310 C   0  0  0  0  0  3  0  0  0  0  0  0
  189.6360  177.3140  139.7390 C   0  0  0  0  0  0  0  0  0  0  0  0
  188.8310  177.6360  138.6180 C   0  0  0  0  0  0  0  0  0  0  0  0
  187.4420  178.1630  138.7850 C   0  0  0  0  0  1  0  0  0  0  0  0
  191.4610  176.7430  138.2340 C   0  0  0  0  0  0  0  0  0  0  0  0
  192.5940  174.5150  137.4900 C   0  0  0  0  0  1  0  0  0  0  0  0
  193.1360  176.1710  137.9920 S   0  0  0  0  0  0  0  0  0  0  0  0
  188.2220  178.3240  147.8870 N   0  0  0  0  0  0  0  0  0  0  0  0
  188.8780  177.6980  146.9860 C   0  0  0  0  0  3  0  0  0  0  0  0
  188.1350  177.7870  149.2160 C   0  0  0  0  0  1  0  0  0  0  0  0
  1  3  1  1  0  0  0
  1  4  1  0  0  0  0
  2  7  1  6  0  0  0
  2  5  1  0  0  0  0
  3 17  1  0  0  0  0
  4  2  1  0  0  0  0
  4 10  1  0  0  0  0
  5 11  1  0  0  0  0
  5 16  1  0  0  0  0
  6 18  1  0  0  0  0
  7 15  1  0  0  0  0
  9  8  1  0  0  0  0
  9 11  1  0  0  0  0
 10 12  1  0  0  0  0
 10 16  1  0  0  0  0
 13  7  2  0  0  0  0
 14 13  1  0  0  0  0
 14  1  1  0  0  0  0
 15  9  2  0  0  0  0
 16 31  1  0  0  0  0
 17 12  1  0  0  0  0
 18  8  2  0  0  0  0
 19  6  2  0  0  0  0
 19 15  1  0  0  0  0
 20 25  1  0  0  0  0
 21 20  1  0  0  0  0
 22 24  1  0  0  0  0
 23 20  2  0  0  0  0
 23 27  1  0  0  0  0
 24 14  1  0  0  0  0
 25 26  1  0  0  0  0
 25 24  2  0  0  0  0
 27 22  2  0  0  0  0
 28 29  1  0  0  0  0
 29 27  1  0  0  0  0
 30 32  1  0  0  0  0
 31 30  2  0  0  0  0
M  END
>  <MODEL>
9

>  <REMARK>
 VINA RESULT:      -7.6      1.835      2.432
  Name = 
  3 active torsions:
  status: ('A' for Active; 'I' for Inactive)
    1  A    between atoms: S_15  and  C_26
    2  A    between atoms: C_18  and  C_29
    3  A    between atoms: C_20  and  N_27
                            x       y       z     vdW  Elec       q    Type
                         _______ _______ _______ _____ _____    ______ ____

>  <TORSDO>
F 3

$$$$
