=
 OpenBabel10272413243D

 32 37  0  0  1  0  0  0  0  0999 V2000
  188.9460  173.1930  135.6260 C   0  0  0  0  0  0  0  0  0  0  0  0
  190.7880  175.2510  138.1220 C   0  0  0  0  0  2  0  0  0  0  0  0
  186.8360  178.0590  138.7130 C   0  0  0  0  0  2  0  0  0  0  0  0
  188.9060  177.0260  144.1970 C   0  0  0  0  0  2  0  0  0  0  0  0
  187.3950  176.8830  144.3980 C   0  0  0  0  0  2  0  0  0  0  0  0
  188.9830  177.7200  137.3940 C   0  0  0  0  0  0  0  0  0  0  0  0
  189.7900  178.1320  139.7580 C   0  0  0  0  0  2  0  0  0  0  0  0
  189.7950  173.4240  136.6980 C   0  0  0  0  0  3  0  0  0  0  0  0
  191.1460  176.7350  138.1050 C   0  0  0  0  0  2  0  0  0  0  0  0
  189.2780  176.7710  142.7320 C   0  0  0  0  0  2  0  0  0  0  0  0
  188.4790  177.6450  140.3350 C   0  0  1  0  0  3  0  0  0  0  0  0
  188.3870  177.5590  141.8170 C   0  0  0  0  0  0  0  0  0  0  0  0
  186.5050  178.4750  141.0130 N   0  0  0  0  0  0  0  0  0  0  0  0
  188.3790  174.6420  134.9990 S   0  0  0  0  0  0  0  0  0  0  0  0
  189.1980  175.6090  136.1010 C   0  0  0  0  0  0  0  0  0  0  0  0
  188.6040  171.9070  135.1280 N   0  0  0  0  0  1  0  0  0  0  0  0
  189.9280  177.5720  138.3650 C   0  0  0  0  0  0  0  0  0  0  0  0
  189.1970  177.1050  136.0410 C   0  0  0  0  0  2  0  0  0  0  0  0
  189.9540  174.7920  136.9570 C   0  0  0  0  0  0  0  0  0  0  0  0
  186.6360  177.9090  143.5500 C   0  0  0  0  0  2  0  0  0  0  0  0
  187.1690  177.9390  142.1460 C   0  0  0  0  0  0  0  0  0  0  0  0
  187.7160  178.5300  137.5570 C   0  0  0  0  0  2  0  0  0  0  0  0
  187.4140  178.5670  139.9440 N   0  0  2  0  0  0  0  0  0  0  0  0
  185.3060  179.3050  141.0950 C   0  0  0  0  0  2  0  0  0  0  0  0
  183.7190  177.5310  140.5450 C   0  0  0  0  0  3  0  0  0  0  0  0
  182.6320  176.9640  139.7390 C   0  0  0  0  0  0  0  0  0  0  0  0
  183.6910  179.4830  139.0870 C   0  0  0  0  0  0  0  0  0  0  0  0
  182.8300  178.7860  138.0740 C   0  0  0  0  0  2  0  0  0  0  0  0
  182.1350  177.6730  138.6420 O   0  0  0  0  0  0  0  0  0  0  0  0
  182.1210  175.8600  140.0600 O   0  0  0  0  0  0  0  0  0  0  0  0
  184.0090  180.6870  138.9070 O   0  0  0  0  0  0  0  0  0  0  0  0
  184.2130  178.7340  140.2490 C   0  0  0  0  0  0  0  0  0  0  0  0
  1  8  2  0  0  0  0
  4  5  1  0  0  0  0
  6 22  1  0  0  0  0
  6 17  2  0  0  0  0
  8 19  1  0  0  0  0
  9  2  1  0  0  0  0
  9 17  1  0  0  0  0
 10  4  1  0  0  0  0
 11  7  1  1  0  0  0
 11 12  1  0  0  0  0
 12 21  2  0  0  0  0
 12 10  1  0  0  0  0
 13 24  1  0  0  0  0
 13 21  1  0  0  0  0
 14  1  1  0  0  0  0
 14 15  1  0  0  0  0
 15 19  2  0  0  0  0
 16  1  1  0  0  0  0
 17  7  1  0  0  0  0
 18 15  1  0  0  0  0
 18  6  1  0  0  0  0
 19  2  1  0  0  0  0
 20  5  1  0  0  0  0
 21 20  1  0  0  0  0
 22  3  1  0  0  0  0
 23  3  1  6  0  0  0
 23 11  1  0  0  0  0
 23 13  1  0  0  0  0
 26 30  2  0  0  0  0
 26 25  1  0  0  0  0
 27 32  1  0  0  0  0
 28 29  1  0  0  0  0
 28 27  1  0  0  0  0
 29 26  1  0  0  0  0
 31 27  2  0  0  0  0
 32 25  2  0  0  0  0
 32 24  1  0  0  0  0
M  END
>  <MODEL>
1

>  <REMARK>
 VINA RESULT:      -8.5      0.000      0.000
  Name = 
  2 active torsions:
  status: ('A' for Active; 'I' for Inactive)
    1  A    between atoms: N_16  and  C_27
    2  A    between atoms: C_27  and  C_32
                            x       y       z     vdW  Elec       q    Type
                         _______ _______ _______ _____ _____    ______ ____

>  <TORSDO>
F 2

$$$$
=
 OpenBabel10272413243D

 32 37  0  0  1  0  0  0  0  0999 V2000
  188.2200  173.0260  135.4590 C   0  0  0  0  0  0  0  0  0  0  0  0
  190.8400  174.3980  137.7200 C   0  0  0  0  0  2  0  0  0  0  0  0
  187.9080  178.1420  138.8340 C   0  0  0  0  0  2  0  0  0  0  0  0
  190.2580  176.3490  144.0010 C   0  0  0  0  0  2  0  0  0  0  0  0
  188.8000  176.6110  144.3910 C   0  0  0  0  0  2  0  0  0  0  0  0
  189.7060  177.2920  137.2500 C   0  0  0  0  0  0  0  0  0  0  0  0
  190.8720  177.3680  139.4960 C   0  0  0  0  0  2  0  0  0  0  0  0
  189.2210  172.9720  136.4160 C   0  0  0  0  0  3  0  0  0  0  0  0
  191.5850  175.7290  137.6710 C   0  0  0  0  0  2  0  0  0  0  0  0
  190.3670  176.0670  142.4990 C   0  0  0  0  0  2  0  0  0  0  0  0
  189.5560  177.2280  140.2300 C   0  0  1  0  0  3  0  0  0  0  0  0
  189.6230  177.1060  141.7110 C   0  0  0  0  0  0  0  0  0  0  0  0
  187.9810  178.5310  141.1620 N   0  0  0  0  0  0  0  0  0  0  0  0
  188.0000  174.6000  134.9230 S   0  0  0  0  0  0  0  0  0  0  0  0
  189.1790  175.2610  135.9200 C   0  0  0  0  0  0  0  0  0  0  0  0
  187.4810  171.9030  134.9960 N   0  0  0  0  0  1  0  0  0  0  0  0
  190.6830  176.8530  138.0920 C   0  0  0  0  0  0  0  0  0  0  0  0
  189.5800  176.7020  135.8750 C   0  0  0  0  0  2  0  0  0  0  0  0
  189.7790  174.2330  136.6660 C   0  0  0  0  0  0  0  0  0  0  0  0
  188.2560  177.8410  143.6560 C   0  0  0  0  0  2  0  0  0  0  0  0
  188.6040  177.7870  142.1960 C   0  0  0  0  0  0  0  0  0  0  0  0
  188.7380  178.4080  137.5800 C   0  0  0  0  0  2  0  0  0  0  0  0
  188.7460  178.4200  139.9870 N   0  0  2  0  0  0  0  0  0  0  0  0
  187.0740  179.6490  141.4030 C   0  0  0  0  0  2  0  0  0  0  0  0
  185.2180  178.9880  142.8470 C   0  0  0  0  0  3  0  0  0  0  0  0
  183.8430  178.5270  143.0660 C   0  0  0  0  0  0  0  0  0  0  0  0
  184.8110  178.8480  140.4490 C   0  0  0  0  0  0  0  0  0  0  0  0
  183.5420  178.0720  140.6500 C   0  0  0  0  0  2  0  0  0  0  0  0
  183.0220  178.2370  141.9720 O   0  0  0  0  0  0  0  0  0  0  0  0
  183.3900  178.4320  144.2360 O   0  0  0  0  0  0  0  0  0  0  0  0
  185.1570  179.1790  139.2850 O   0  0  0  0  0  0  0  0  0  0  0  0
  185.6760  179.1580  141.6060 C   0  0  0  0  0  0  0  0  0  0  0  0
  1  8  2  0  0  0  0
  4  5  1  0  0  0  0
  6 22  1  0  0  0  0
  6 17  2  0  0  0  0
  8 19  1  0  0  0  0
  9  2  1  0  0  0  0
  9 17  1  0  0  0  0
 10  4  1  0  0  0  0
 11  7  1  1  0  0  0
 11 12  1  0  0  0  0
 12 21  2  0  0  0  0
 12 10  1  0  0  0  0
 13 24  1  0  0  0  0
 13 21  1  0  0  0  0
 14  1  1  0  0  0  0
 14 15  1  0  0  0  0
 15 19  2  0  0  0  0
 16  1  1  0  0  0  0
 17  7  1  0  0  0  0
 18 15  1  0  0  0  0
 18  6  1  0  0  0  0
 19  2  1  0  0  0  0
 20  5  1  0  0  0  0
 21 20  1  0  0  0  0
 22  3  1  0  0  0  0
 23  3  1  6  0  0  0
 23 11  1  0  0  0  0
 23 13  1  0  0  0  0
 24 32  1  0  0  0  0
 25 26  1  0  0  0  0
 26 30  2  0  0  0  0
 27 28  1  0  0  0  0
 27 32  1  0  0  0  0
 28 29  1  0  0  0  0
 29 26  1  0  0  0  0
 31 27  2  0  0  0  0
 32 25  2  0  0  0  0
M  END
>  <MODEL>
2

>  <REMARK>
 VINA RESULT:      -7.7      1.538      1.892
  Name = 
  2 active torsions:
  status: ('A' for Active; 'I' for Inactive)
    1  A    between atoms: N_16  and  C_27
    2  A    between atoms: C_27  and  C_32
                            x       y       z     vdW  Elec       q    Type
                         _______ _______ _______ _____ _____    ______ ____

>  <TORSDO>
F 2

$$$$
=
 OpenBabel10272413243D

 32 37  0  0  1  0  0  0  0  0999 V2000
  180.7520  175.0770  139.6440 C   0  0  0  0  0  0  0  0  0  0  0  0
  182.8870  175.6290  136.6450 C   0  0  0  0  0  2  0  0  0  0  0  0
  186.0200  178.2120  139.3610 C   0  0  0  0  0  2  0  0  0  0  0  0
  189.3840  174.6570  135.9740 C   0  0  0  0  0  2  0  0  0  0  0  0
  190.0980  174.5720  137.3260 C   0  0  0  0  0  2  0  0  0  0  0  0
  183.9360  178.3110  137.9070 C   0  0  0  0  0  0  0  0  0  0  0  0
  185.7470  177.5490  136.3100 C   0  0  0  0  0  2  0  0  0  0  0  0
  181.3970  174.7280  138.4680 C   0  0  0  0  0  3  0  0  0  0  0  0
  183.2960  176.9260  135.9510 C   0  0  0  0  0  2  0  0  0  0  0  0
  187.9160  175.0530  136.1680 C   0  0  0  0  0  2  0  0  0  0  0  0
  186.5640  176.9730  137.4460 C   0  0  1  0  0  3  0  0  0  0  0  0
  187.8050  176.2420  137.0760 C   0  0  0  0  0  0  0  0  0  0  0  0
  188.2300  177.5820  138.8230 N   0  0  0  0  0  0  0  0  0  0  0  0
  181.0050  176.6970  139.9990 S   0  0  0  0  0  0  0  0  0  0  0  0
  181.9680  176.9930  138.6550 C   0  0  0  0  0  0  0  0  0  0  0  0
  179.9820  174.1850  140.4390 N   0  0  0  0  0  1  0  0  0  0  0  0
  184.3160  177.6620  136.7700 C   0  0  0  0  0  0  0  0  0  0  0  0
  182.4870  178.3500  138.2990 C   0  0  0  0  0  2  0  0  0  0  0  0
  182.0710  175.8160  137.8960 C   0  0  0  0  0  0  0  0  0  0  0  0
  190.0810  175.9330  138.0330 C   0  0  0  0  0  2  0  0  0  0  0  0
  188.7080  176.5400  137.9880 C   0  0  0  0  0  0  0  0  0  0  0  0
  184.8830  179.0720  138.8090 C   0  0  0  0  0  2  0  0  0  0  0  0
  187.0110  178.0620  138.3110 N   0  0  2  0  0  0  0  0  0  0  0  0
  189.0910  178.3890  139.6830 C   0  0  0  0  0  2  0  0  0  0  0  0
  188.3940  177.2980  141.7550 C   0  0  0  0  0  3  0  0  0  0  0  0
  188.6720  176.5660  142.9940 C   0  0  0  0  0  0  0  0  0  0  0  0
  190.7920  177.3590  141.3310 C   0  0  0  0  0  0  0  0  0  0  0  0
  191.1100  176.9160  142.7300 C   0  0  0  0  0  2  0  0  0  0  0  0
  189.9920  176.2750  143.3510 O   0  0  0  0  0  0  0  0  0  0  0  0
  187.7220  176.1640  143.7150 O   0  0  0  0  0  0  0  0  0  0  0  0
  191.7280  177.5240  140.5060 O   0  0  0  0  0  0  0  0  0  0  0  0
  189.3960  177.6620  140.9530 C   0  0  0  0  0  0  0  0  0  0  0  0
  1 14  1  0  0  0  0
  1 16  1  0  0  0  0
  2 19  1  0  0  0  0
  4 10  1  0  0  0  0
  4  5  1  0  0  0  0
  5 20  1  0  0  0  0
  6 18  1  0  0  0  0
  6 22  1  0  0  0  0
  7 17  1  0  0  0  0
  8  1  2  0  0  0  0
  9  2  1  0  0  0  0
  9 17  1  0  0  0  0
 10 12  1  0  0  0  0
 11  7  1  6  0  0  0
 11 23  1  0  0  0  0
 12 11  1  0  0  0  0
 12 21  2  0  0  0  0
 13 24  1  0  0  0  0
 15 14  1  0  0  0  0
 17  6  2  0  0  0  0
 18 15  1  0  0  0  0
 19  8  1  0  0  0  0
 19 15  2  0  0  0  0
 21 20  1  0  0  0  0
 21 13  1  0  0  0  0
 22  3  1  0  0  0  0
 23 13  1  0  0  0  0
 23  3  1  1  0  0  0
 24 32  1  0  0  0  0
 25 26  1  0  0  0  0
 26 29  1  0  0  0  0
 26 30  2  0  0  0  0
 27 28  1  0  0  0  0
 28 29  1  0  0  0  0
 31 27  2  0  0  0  0
 32 27  1  0  0  0  0
 32 25  2  0  0  0  0
M  END
>  <MODEL>
3

>  <REMARK>
 VINA RESULT:      -7.0      3.624      6.924
  Name = 
  2 active torsions:
  status: ('A' for Active; 'I' for Inactive)
    1  A    between atoms: N_16  and  C_27
    2  A    between atoms: C_27  and  C_32
                            x       y       z     vdW  Elec       q    Type
                         _______ _______ _______ _____ _____    ______ ____

>  <TORSDO>
F 2

$$$$
=
 OpenBabel10272413243D

 32 37  0  0  1  0  0  0  0  0999 V2000
  183.1210  172.9090  136.8260 C   0  0  0  0  0  0  0  0  0  0  0  0
  185.7470  174.5650  134.7710 C   0  0  0  0  0  2  0  0  0  0  0  0
  186.8990  177.4250  138.5590 C   0  0  0  0  0  2  0  0  0  0  0  0
  192.0900  175.6320  136.2640 C   0  0  0  0  0  2  0  0  0  0  0  0
  192.3550  175.5220  137.7680 C   0  0  0  0  0  2  0  0  0  0  0  0
  185.4310  177.1730  136.4980 C   0  0  0  0  0  0  0  0  0  0  0  0
  187.7800  177.2530  135.5560 C   0  0  0  0  0  2  0  0  0  0  0  0
  184.1650  172.9710  135.9150 C   0  0  0  0  0  3  0  0  0  0  0  0
  185.8940  176.0240  134.3480 C   0  0  0  0  0  2  0  0  0  0  0  0
  190.5860  175.5490  135.9780 C   0  0  0  0  0  2  0  0  0  0  0  0
  188.3630  176.7470  136.8570 C   0  0  1  0  0  3  0  0  0  0  0  0
  189.8260  176.4790  136.8780 C   0  0  0  0  0  0  0  0  0  0  0  0
  189.2470  177.5600  138.7550 N   0  0  0  0  0  0  0  0  0  0  0  0
  182.7110  174.4460  137.3590 S   0  0  0  0  0  0  0  0  0  0  0  0
  183.8770  175.2350  136.4420 C   0  0  0  0  0  0  0  0  0  0  0  0
  182.4870  171.7100  137.2500 N   0  0  0  0  0  1  0  0  0  0  0  0
  186.3230  176.8680  135.5130 C   0  0  0  0  0  0  0  0  0  0  0  0
  184.0030  176.7250  136.3790 C   0  0  0  0  0  2  0  0  0  0  0  0
  184.5820  174.2880  135.6820 C   0  0  0  0  0  0  0  0  0  0  0  0
  191.6830  176.6750  138.5220 C   0  0  0  0  0  2  0  0  0  0  0  0
  190.2670  176.8610  138.0590 C   0  0  0  0  0  0  0  0  0  0  0  0
  185.7620  178.0040  137.7170 C   0  0  0  0  0  2  0  0  0  0  0  0
  188.1500  177.7510  137.8970 N   0  0  2  0  0  0  0  0  0  0  0  0
  189.4980  178.4180  139.9100 C   0  0  0  0  0  2  0  0  0  0  0  0
  190.1700  176.8180  141.6290 C   0  0  0  0  0  3  0  0  0  0  0  0
  189.9540  176.0940  142.8850 C   0  0  0  0  0  0  0  0  0  0  0  0
  187.9920  177.8640  141.9340 C   0  0  0  0  0  0  0  0  0  0  0  0
  187.6160  176.9000  143.0220 C   0  0  0  0  0  2  0  0  0  0  0  0
  188.7660  176.2760  143.6000 O   0  0  0  0  0  0  0  0  0  0  0  0
  190.8540  175.3400  143.3400 O   0  0  0  0  0  0  0  0  0  0  0  0
  187.2010  178.7950  141.6320 O   0  0  0  0  0  0  0  0  0  0  0  0
  189.2490  177.6730  141.1820 C   0  0  0  0  0  0  0  0  0  0  0  0
  1 16  1  0  0  0  0
  1 14  1  0  0  0  0
  2 19  1  0  0  0  0
  4  5  1  0  0  0  0
  5 20  1  0  0  0  0
  6 22  1  0  0  0  0
  8  1  2  0  0  0  0
  9  2  1  0  0  0  0
  9 17  1  0  0  0  0
 10  4  1  0  0  0  0
 10 12  1  0  0  0  0
 11  7  1  6  0  0  0
 11 12  1  0  0  0  0
 11 23  1  0  0  0  0
 12 21  2  0  0  0  0
 13 24  1  0  0  0  0
 15 14  1  0  0  0  0
 17  7  1  0  0  0  0
 17  6  2  0  0  0  0
 18 15  1  0  0  0  0
 18  6  1  0  0  0  0
 19  8  1  0  0  0  0
 19 15  2  0  0  0  0
 21 20  1  0  0  0  0
 21 13  1  0  0  0  0
 22  3  1  0  0  0  0
 23  3  1  1  0  0  0
 23 13  1  0  0  0  0
 24 32  1  0  0  0  0
 25 26  1  0  0  0  0
 26 30  2  0  0  0  0
 26 29  1  0  0  0  0
 27 28  1  0  0  0  0
 28 29  1  0  0  0  0
 31 27  2  0  0  0  0
 32 25  2  0  0  0  0
 32 27  1  0  0  0  0
M  END
>  <MODEL>
4

>  <REMARK>
 VINA RESULT:      -7.0      3.611      5.924
  Name = 
  2 active torsions:
  status: ('A' for Active; 'I' for Inactive)
    1  A    between atoms: N_16  and  C_27
    2  A    between atoms: C_27  and  C_32
                            x       y       z     vdW  Elec       q    Type
                         _______ _______ _______ _____ _____    ______ ____

>  <TORSDO>
F 2

$$$$
=
 OpenBabel10272413243D

 32 37  0  0  1  0  0  0  0  0999 V2000
  180.7620  174.2690  138.3910 C   0  0  0  0  0  0  0  0  0  0  0  0
  183.2330  175.0970  135.7330 C   0  0  0  0  0  2  0  0  0  0  0  0
  185.6700  177.9200  138.8880 C   0  0  0  0  0  2  0  0  0  0  0  0
  189.8240  174.7920  135.9910 C   0  0  0  0  0  2  0  0  0  0  0  0
  190.3440  174.7490  137.4310 C   0  0  0  0  0  2  0  0  0  0  0  0
  183.8140  177.8420  137.1520 C   0  0  0  0  0  0  0  0  0  0  0  0
  185.9010  177.2990  135.8240 C   0  0  0  0  0  2  0  0  0  0  0  0
  181.5990  174.0120  137.3170 C   0  0  0  0  0  3  0  0  0  0  0  0
  183.6020  176.4430  135.1150 C   0  0  0  0  0  2  0  0  0  0  0  0
  188.3110  175.0350  135.9760 C   0  0  0  0  0  2  0  0  0  0  0  0
  186.6030  176.7830  137.0610 C   0  0  1  0  0  3  0  0  0  0  0  0
  187.9520  176.1870  136.8680 C   0  0  0  0  0  0  0  0  0  0  0  0
  187.9870  177.5250  138.6670 N   0  0  0  0  0  0  0  0  0  0  0  0
  180.7960  175.8980  138.7910 S   0  0  0  0  0  0  0  0  0  0  0  0
  181.9040  176.3180  137.6000 C   0  0  0  0  0  0  0  0  0  0  0  0
  179.9820  173.2880  139.0620 N   0  0  0  0  0  1  0  0  0  0  0  0
  184.4150  177.2590  136.0760 C   0  0  0  0  0  0  0  0  0  0  0  0
  182.3280  177.7280  137.3330 C   0  0  0  0  0  2  0  0  0  0  0  0
  182.2330  175.1740  136.8550 C   0  0  0  0  0  0  0  0  0  0  0  0
  190.0890  176.0850  138.1380 C   0  0  0  0  0  2  0  0  0  0  0  0
  188.6820  176.5540  137.9010 C   0  0  0  0  0  0  0  0  0  0  0  0
  184.5420  178.6730  138.1850 C   0  0  0  0  0  2  0  0  0  0  0  0
  186.8100  177.8920  137.9900 N   0  0  2  0  0  0  0  0  0  0  0  0
  188.6300  178.3950  139.6480 C   0  0  0  0  0  2  0  0  0  0  0  0
  189.5120  176.8930  141.3600 C   0  0  0  0  0  3  0  0  0  0  0  0
  189.4920  176.2940  142.6990 C   0  0  0  0  0  0  0  0  0  0  0  0
  187.5030  178.1330  141.9570 C   0  0  0  0  0  0  0  0  0  0  0  0
  187.2790  177.2960  143.1820 C   0  0  0  0  0  2  0  0  0  0  0  0
  188.4750  176.6310  143.5970 O   0  0  0  0  0  0  0  0  0  0  0  0
  190.4110  175.5100  143.0520 O   0  0  0  0  0  0  0  0  0  0  0  0
  186.7310  179.0980  141.7170 O   0  0  0  0  0  0  0  0  0  0  0  0
  188.5800  177.7790  141.0090 C   0  0  0  0  0  0  0  0  0  0  0  0
  1 14  1  0  0  0  0
  1 16  1  0  0  0  0
  2 19  1  0  0  0  0
  4  5  1  0  0  0  0
  5 20  1  0  0  0  0
  6 18  1  0  0  0  0
  6 22  1  0  0  0  0
  7 17  1  0  0  0  0
  8  1  2  0  0  0  0
  9  2  1  0  0  0  0
  9 17  1  0  0  0  0
 10  4  1  0  0  0  0
 10 12  1  0  0  0  0
 11  7  1  6  0  0  0
 11 23  1  0  0  0  0
 12 11  1  0  0  0  0
 12 21  2  0  0  0  0
 13 24  1  0  0  0  0
 15 14  1  0  0  0  0
 17  6  2  0  0  0  0
 18 15  1  0  0  0  0
 19  8  1  0  0  0  0
 19 15  2  0  0  0  0
 21 20  1  0  0  0  0
 21 13  1  0  0  0  0
 22  3  1  0  0  0  0
 23 13  1  0  0  0  0
 23  3  1  1  0  0  0
 24 32  1  0  0  0  0
 25 26  1  0  0  0  0
 26 30  2  0  0  0  0
 26 29  1  0  0  0  0
 27 28  1  0  0  0  0
 28 29  1  0  0  0  0
 31 27  2  0  0  0  0
 32 25  2  0  0  0  0
 32 27  1  0  0  0  0
M  END
>  <MODEL>
5

>  <REMARK>
 VINA RESULT:      -6.6      3.644      6.553
  Name = 
  2 active torsions:
  status: ('A' for Active; 'I' for Inactive)
    1  A    between atoms: N_16  and  C_27
    2  A    between atoms: C_27  and  C_32
                            x       y       z     vdW  Elec       q    Type
                         _______ _______ _______ _____ _____    ______ ____

>  <TORSDO>
F 2

$$$$
=
 OpenBabel10272413243D

 32 37  0  0  1  0  0  0  0  0999 V2000
  187.6860  172.7290  135.9950 C   0  0  0  0  0  0  0  0  0  0  0  0
  188.2310  176.1860  137.2650 C   0  0  0  0  0  2  0  0  0  0  0  0
  183.4150  176.9900  137.1230 C   0  0  0  0  0  2  0  0  0  0  0  0
  185.2670  179.2400  142.3140 C   0  0  0  0  0  2  0  0  0  0  0  0
  183.9590  178.5520  142.7160 C   0  0  0  0  0  2  0  0  0  0  0  0
  185.5960  177.1130  135.8220 C   0  0  0  0  0  0  0  0  0  0  0  0
  185.9430  178.7400  137.7310 C   0  0  0  0  0  2  0  0  0  0  0  0
  188.2560  173.7100  136.7910 C   0  0  0  0  0  3  0  0  0  0  0  0
  187.9050  177.5340  136.6260 C   0  0  0  0  0  2  0  0  0  0  0  0
  185.8320  178.6080  141.0370 C   0  0  0  0  0  2  0  0  0  0  0  0
  184.9330  178.0110  138.5900 C   0  0  1  0  0  3  0  0  0  0  0  0
  184.7660  178.4950  139.9870 C   0  0  0  0  0  0  0  0  0  0  0  0
  182.7470  178.1030  139.0950 N   0  0  0  0  0  0  0  0  0  0  0  0
  186.5970  173.4060  134.9130 S   0  0  0  0  0  0  0  0  0  0  0  0
  186.8170  174.9820  135.4500 C   0  0  0  0  0  0  0  0  0  0  0  0
  187.9820  171.3420  136.0830 N   0  0  0  0  0  1  0  0  0  0  0  0
  186.4260  177.7900  136.6650 C   0  0  0  0  0  0  0  0  0  0  0  0
  186.1680  176.1680  134.8060 C   0  0  0  0  0  2  0  0  0  0  0  0
  187.7810  174.9890  136.4720 C   0  0  0  0  0  0  0  0  0  0  0  0
  182.9010  178.7160  141.6190 C   0  0  0  0  0  2  0  0  0  0  0  0
  183.4820  178.4090  140.2680 C   0  0  0  0  0  0  0  0  0  0  0  0
  184.0940  177.2880  135.7870 C   0  0  0  0  0  2  0  0  0  0  0  0
  183.6100  178.1420  137.9850 N   0  0  2  0  0  0  0  0  0  0  0  0
  181.3030  178.2890  138.9720 C   0  0  0  0  0  2  0  0  0  0  0  0
  181.0560  179.7210  137.0090 C   0  0  0  0  0  3  0  0  0  0  0  0
  180.7370  181.0000  136.3640 C   0  0  0  0  0  0  0  0  0  0  0  0
  180.6430  180.7790  139.1630 C   0  0  0  0  0  0  0  0  0  0  0  0
  180.6430  182.1520  138.5550 C   0  0  0  0  0  2  0  0  0  0  0  0
  180.4000  182.1090  137.1460 O   0  0  0  0  0  0  0  0  0  0  0  0
  180.7280  181.0870  135.1090 O   0  0  0  0  0  0  0  0  0  0  0  0
  180.3990  180.6460  140.3910 O   0  0  0  0  0  0  0  0  0  0  0  0
  180.9960  179.6070  138.3360 C   0  0  0  0  0  0  0  0  0  0  0  0
  1 16  1  0  0  0  0
  1  8  2  0  0  0  0
  4  5  1  0  0  0  0
  6 17  2  0  0  0  0
  9 17  1  0  0  0  0
  9  2  1  0  0  0  0
 10  4  1  0  0  0  0
 11  7  1  6  0  0  0
 11 12  1  0  0  0  0
 12 21  2  0  0  0  0
 12 10  1  0  0  0  0
 13 21  1  0  0  0  0
 14 15  1  0  0  0  0
 14  1  1  0  0  0  0
 15 19  2  0  0  0  0
 17  7  1  0  0  0  0
 18 15  1  0  0  0  0
 18  6  1  0  0  0  0
 19  8  1  0  0  0  0
 19  2  1  0  0  0  0
 20  5  1  0  0  0  0
 21 20  1  0  0  0  0
 22  6  1  0  0  0  0
 22  3  1  0  0  0  0
 23  3  1  6  0  0  0
 23 11  1  0  0  0  0
 23 13  1  0  0  0  0
 24 13  1  0  0  0  0
 25 32  2  0  0  0  0
 26 25  1  0  0  0  0
 26 29  1  0  0  0  0
 27 31  2  0  0  0  0
 28 27  1  0  0  0  0
 29 28  1  0  0  0  0
 30 26  2  0  0  0  0
 32 24  1  0  0  0  0
 32 27  1  0  0  0  0
M  END
>  <MODEL>
6

>  <REMARK>
 VINA RESULT:      -6.1      2.764      4.004
  Name = 
  2 active torsions:
  status: ('A' for Active; 'I' for Inactive)
    1  A    between atoms: N_16  and  C_27
    2  A    between atoms: C_27  and  C_32
                            x       y       z     vdW  Elec       q    Type
                         _______ _______ _______ _____ _____    ______ ____

>  <TORSDO>
F 2

$$$$
=
 OpenBabel10272413243D

 32 37  0  0  1  0  0  0  0  0999 V2000
  193.8210  170.4780  136.2190 C   0  0  0  0  0  0  0  0  0  0  0  0
  194.6680  173.6240  138.0200 C   0  0  0  0  0  2  0  0  0  0  0  0
  190.8690  175.8500  135.9050 C   0  0  0  0  0  2  0  0  0  0  0  0
  190.7230  177.5060  141.6210 C   0  0  0  0  0  2  0  0  0  0  0  0
  189.2420  177.2540  141.3270 C   0  0  0  0  0  2  0  0  0  0  0  0
  193.3410  175.2860  135.7050 C   0  0  0  0  0  0  0  0  0  0  0  0
  193.2260  176.7590  137.7620 C   0  0  0  0  0  2  0  0  0  0  0  0
  194.2180  171.2510  137.2990 C   0  0  0  0  0  3  0  0  0  0  0  0
  195.0530  174.9970  137.4770 C   0  0  0  0  0  2  0  0  0  0  0  0
  191.6040  176.7140  140.6480 C   0  0  0  0  0  2  0  0  0  0  0  0
  191.7790  176.3830  138.0000 C   0  0  1  0  0  3  0  0  0  0  0  0
  191.1410  176.9150  139.2350 C   0  0  0  0  0  0  0  0  0  0  0  0
  189.7220  177.1420  137.5140 N   0  0  0  0  0  0  0  0  0  0  0  0
  193.5720  171.4370  134.8660 S   0  0  0  0  0  0  0  0  0  0  0  0
  193.9540  172.8800  135.6370 C   0  0  0  0  0  0  0  0  0  0  0  0
  193.6480  169.0680  136.2540 N   0  0  0  0  0  1  0  0  0  0  0  0
  193.8530  175.6910  136.9020 C   0  0  0  0  0  0  0  0  0  0  0  0
  194.0230  174.1970  134.9290 C   0  0  0  0  0  2  0  0  0  0  0  0
  194.3120  172.6090  136.9680 C   0  0  0  0  0  0  0  0  0  0  0  0
  188.8850  177.7160  139.9100 C   0  0  0  0  0  2  0  0  0  0  0  0
  189.9010  177.2270  138.9180 C   0  0  0  0  0  0  0  0  0  0  0  0
  192.1310  175.9090  135.0450 C   0  0  0  0  0  2  0  0  0  0  0  0
  190.9650  176.9010  136.9030 N   0  0  2  0  0  0  0  0  0  0  0  0
  188.6050  177.7560  136.8020 C   0  0  0  0  0  2  0  0  0  0  0  0
  187.3850  175.6410  136.7410 C   0  0  0  0  0  3  0  0  0  0  0  0
  186.1780  174.8310  136.9350 C   0  0  0  0  0  0  0  0  0  0  0  0
  186.1010  177.5980  137.4160 C   0  0  0  0  0  0  0  0  0  0  0  0
  184.8000  176.8580  137.2970 C   0  0  0  0  0  2  0  0  0  0  0  0
  184.9880  175.4410  137.3460 O   0  0  0  0  0  0  0  0  0  0  0  0
  186.2220  173.5850  136.7710 O   0  0  0  0  0  0  0  0  0  0  0  0
  186.1010  178.7870  137.8280 O   0  0  0  0  0  0  0  0  0  0  0  0
  187.3580  176.9510  136.9850 C   0  0  0  0  0  0  0  0  0  0  0  0
  1 16  1  0  0  0  0
  1  8  2  0  0  0  0
  5  4  1  0  0  0  0
  6 17  2  0  0  0  0
  9  2  1  0  0  0  0
 10  4  1  0  0  0  0
 11  7  1  6  0  0  0
 11 12  1  0  0  0  0
 12 10  1  0  0  0  0
 13 21  1  0  0  0  0
 14 15  1  0  0  0  0
 14  1  1  0  0  0  0
 15 19  2  0  0  0  0
 17  9  1  0  0  0  0
 17  7  1  0  0  0  0
 18 15  1  0  0  0  0
 18  6  1  0  0  0  0
 19  8  1  0  0  0  0
 19  2  1  0  0  0  0
 20  5  1  0  0  0  0
 21 12  2  0  0  0  0
 21 20  1  0  0  0  0
 22  6  1  0  0  0  0
 22  3  1  0  0  0  0
 23  3  1  6  0  0  0
 23 13  1  0  0  0  0
 23 11  1  0  0  0  0
 24 32  1  0  0  0  0
 24 13  1  0  0  0  0
 25 26  1  0  0  0  0
 25 32  2  0  0  0  0
 26 29  1  0  0  0  0
 27 31  2  0  0  0  0
 28 29  1  0  0  0  0
 28 27  1  0  0  0  0
 30 26  2  0  0  0  0
 32 27  1  0  0  0  0
M  END
>  <MODEL>
7

>  <REMARK>
 VINA RESULT:      -6.0      3.508      4.744
  Name = 
  2 active torsions:
  status: ('A' for Active; 'I' for Inactive)
    1  A    between atoms: N_16  and  C_27
    2  A    between atoms: C_27  and  C_32
                            x       y       z     vdW  Elec       q    Type
                         _______ _______ _______ _____ _____    ______ ____

>  <TORSDO>
F 2

$$$$
=
 OpenBabel10272413243D

 32 37  0  0  1  0  0  0  0  0999 V2000
  183.2220  173.6640  136.9140 C   0  0  0  0  0  0  0  0  0  0  0  0
  186.6450  175.1260  136.9820 C   0  0  0  0  0  2  0  0  0  0  0  0
  185.1010  178.5810  140.0690 C   0  0  0  0  0  2  0  0  0  0  0  0
  190.3390  176.7360  142.2120 C   0  0  0  0  0  2  0  0  0  0  0  0
  189.5040  176.8680  143.4890 C   0  0  0  0  0  2  0  0  0  0  0  0
  185.4100  177.9440  137.6270 C   0  0  0  0  0  0  0  0  0  0  0  0
  187.7730  178.0040  138.5360 C   0  0  0  0  0  2  0  0  0  0  0  0
  184.6070  173.6420  136.9600 C   0  0  0  0  0  3  0  0  0  0  0  0
  187.1340  176.5110  136.5650 C   0  0  0  0  0  2  0  0  0  0  0  0
  189.4280  176.5330  140.9970 C   0  0  0  0  0  2  0  0  0  0  0  0
  187.2830  177.7320  139.9410 C   0  0  1  0  0  3  0  0  0  0  0  0
  188.3220  177.5470  140.9900 C   0  0  0  0  0  0  0  0  0  0  0  0
  186.6940  178.8670  141.7880 N   0  0  0  0  0  0  0  0  0  0  0  0
  182.6590  175.2400  136.7930 S   0  0  0  0  0  0  0  0  0  0  0  0
  184.1860  175.9420  136.8130 C   0  0  0  0  0  0  0  0  0  0  0  0
  182.3920  172.5110  136.9620 N   0  0  0  0  0  1  0  0  0  0  0  0
  186.7110  177.5420  137.5700 C   0  0  0  0  0  0  0  0  0  0  0  0
  184.4170  177.4100  136.6360 C   0  0  0  0  0  2  0  0  0  0  0  0
  185.1560  174.9290  136.8840 C   0  0  0  0  0  0  0  0  0  0  0  0
  188.5760  178.0860  143.4060 C   0  0  0  0  0  2  0  0  0  0  0  0
  187.8660  178.1250  142.0830 C   0  0  0  0  0  0  0  0  0  0  0  0
  184.8790  178.9660  138.6070 C   0  0  0  0  0  2  0  0  0  0  0  0
  186.4860  178.8680  140.3970 N   0  0  2  0  0  0  0  0  0  0  0  0
  186.1490  179.9010  142.6630 C   0  0  0  0  0  2  0  0  0  0  0  0
  183.7820  179.3050  142.7590 C   0  0  0  0  0  3  0  0  0  0  0  0
  182.5990  178.7880  143.4560 C   0  0  0  0  0  0  0  0  0  0  0  0
  185.0470  178.9990  144.8180 C   0  0  0  0  0  0  0  0  0  0  0  0
  183.7980  178.7890  145.6230 C   0  0  0  0  0  2  0  0  0  0  0  0
  182.6910  178.4130  144.8000 O   0  0  0  0  0  0  0  0  0  0  0  0
  181.5150  178.6430  142.8340 O   0  0  0  0  0  0  0  0  0  0  0  0
  186.1700  178.8950  145.3780 O   0  0  0  0  0  0  0  0  0  0  0  0
  184.9500  179.3910  143.3960 C   0  0  0  0  0  0  0  0  0  0  0  0
  1  8  2  0  0  0  0
  1 16  1  0  0  0  0
  4  5  1  0  0  0  0
  6 22  1  0  0  0  0
  9  2  1  0  0  0  0
  9 17  1  0  0  0  0
 10  4  1  0  0  0  0
 11  7  1  6  0  0  0
 11 23  1  0  0  0  0
 11 12  1  0  0  0  0
 12 10  1  0  0  0  0
 12 21  2  0  0  0  0
 13 21  1  0  0  0  0
 13 24  1  0  0  0  0
 14 15  1  0  0  0  0
 14  1  1  0  0  0  0
 15 19  2  0  0  0  0
 17  6  2  0  0  0  0
 17  7  1  0  0  0  0
 18 15  1  0  0  0  0
 18  6  1  0  0  0  0
 19  8  1  0  0  0  0
 19  2  1  0  0  0  0
 20  5  1  0  0  0  0
 21 20  1  0  0  0  0
 22  3  1  0  0  0  0
 23  3  1  1  0  0  0
 23 13  1  0  0  0  0
 24 32  1  0  0  0  0
 25 32  2  0  0  0  0
 25 26  1  0  0  0  0
 26 29  1  0  0  0  0
 27 31  2  0  0  0  0
 27 28  1  0  0  0  0
 29 28  1  0  0  0  0
 30 26  2  0  0  0  0
 32 27  1  0  0  0  0
M  END
>  <MODEL>
8

>  <REMARK>
 VINA RESULT:      -6.0      3.173      4.157
  Name = 
  2 active torsions:
  status: ('A' for Active; 'I' for Inactive)
    1  A    between atoms: N_16  and  C_27
    2  A    between atoms: C_27  and  C_32
                            x       y       z     vdW  Elec       q    Type
                         _______ _______ _______ _____ _____    ______ ____

>  <TORSDO>
F 2

$$$$
=
 OpenBabel10272413243D

 32 37  0  0  1  0  0  0  0  0999 V2000
  191.5530  174.9520  137.2820 C   0  0  0  0  0  0  0  0  0  0  0  0
  189.6150  178.0450  138.0110 C   0  0  0  0  0  2  0  0  0  0  0  0
  185.8080  176.2320  135.5450 C   0  0  0  0  0  2  0  0  0  0  0  0
  183.5260  178.6040  140.5050 C   0  0  0  0  0  2  0  0  0  0  0  0
  182.7310  177.3010  140.3840 C   0  0  0  0  0  2  0  0  0  0  0  0
  187.9470  177.5980  135.3840 C   0  0  0  0  0  0  0  0  0  0  0  0
  186.4680  178.9750  136.9110 C   0  0  0  0  0  2  0  0  0  0  0  0
  191.0940  176.0040  138.0580 C   0  0  0  0  0  3  0  0  0  0  0  0
  189.0160  179.0800  137.0620 C   0  0  0  0  0  2  0  0  0  0  0  0
  184.8630  178.4860  139.7650 C   0  0  0  0  0  2  0  0  0  0  0  0
  185.6890  177.7480  137.3310 C   0  0  1  0  0  3  0  0  0  0  0  0
  184.6550  177.9360  138.3840 C   0  0  0  0  0  0  0  0  0  0  0  0
  183.8230  176.6380  136.7570 N   0  0  0  0  0  0  0  0  0  0  0  0
  190.9520  175.0630  135.7200 S   0  0  0  0  0  0  0  0  0  0  0  0
  190.0680  176.4630  136.0030 C   0  0  0  0  0  0  0  0  0  0  0  0
  192.4150  173.9210  137.7460 N   0  0  0  0  0  1  0  0  0  0  0  0
  187.8030  178.5230  136.3750 C   0  0  0  0  0  0  0  0  0  0  0  0
  189.3190  177.1930  134.9320 C   0  0  0  0  0  2  0  0  0  0  0  0
  190.2670  176.8720  137.3310 C   0  0  0  0  0  0  0  0  0  0  0  0
  182.4140  176.9950  138.9150 C   0  0  0  0  0  2  0  0  0  0  0  0
  183.6360  177.1670  138.0590 C   0  0  0  0  0  0  0  0  0  0  0  0
  186.7920  176.9680  134.6370 C   0  0  0  0  0  2  0  0  0  0  0  0
  184.9600  177.2270  136.1770 N   0  0  2  0  0  0  0  0  0  0  0  0
  182.7480  176.0570  135.9570 C   0  0  0  0  0  2  0  0  0  0  0  0
  183.4670  173.7690  136.4210 C   0  0  0  0  0  3  0  0  0  0  0  0
  183.2180  172.3930  136.8640 C   0  0  0  0  0  0  0  0  0  0  0  0
  181.1020  174.2390  136.7700 C   0  0  0  0  0  0  0  0  0  0  0  0
  180.7720  172.7800  136.9010 C   0  0  0  0  0  2  0  0  0  0  0  0
  181.9250  172.0010  137.2260 O   0  0  0  0  0  0  0  0  0  0  0  0
  184.1720  171.5790  136.9570 O   0  0  0  0  0  0  0  0  0  0  0  0
  180.1940  175.0960  136.9280 O   0  0  0  0  0  0  0  0  0  0  0  0
  182.4690  174.6530  136.3920 C   0  0  0  0  0  0  0  0  0  0  0  0
  1 16  1  0  0  0  0
  1  8  2  0  0  0  0
  5  4  1  0  0  0  0
  6 17  2  0  0  0  0
  9  2  1  0  0  0  0
 10  4  1  0  0  0  0
 11  7  1  6  0  0  0
 11 12  1  0  0  0  0
 12 10  1  0  0  0  0
 13 21  1  0  0  0  0
 14 15  1  0  0  0  0
 14  1  1  0  0  0  0
 15 19  2  0  0  0  0
 17  7  1  0  0  0  0
 17  9  1  0  0  0  0
 18  6  1  0  0  0  0
 18 15  1  0  0  0  0
 19  2  1  0  0  0  0
 19  8  1  0  0  0  0
 20  5  1  0  0  0  0
 21 12  2  0  0  0  0
 21 20  1  0  0  0  0
 22  6  1  0  0  0  0
 22  3  1  0  0  0  0
 23  3  1  1  0  0  0
 23 13  1  0  0  0  0
 23 11  1  0  0  0  0
 24 32  1  0  0  0  0
 24 13  1  0  0  0  0
 25 26  1  0  0  0  0
 26 30  2  0  0  0  0
 26 29  1  0  0  0  0
 27 28  1  0  0  0  0
 27 31  2  0  0  0  0
 28 29  1  0  0  0  0
 32 25  2  0  0  0  0
 32 27  1  0  0  0  0
M  END
>  <MODEL>
9

>  <REMARK>
 VINA RESULT:      -5.8      3.300      4.866
  Name = 
  2 active torsions:
  status: ('A' for Active; 'I' for Inactive)
    1  A    between atoms: N_16  and  C_27
    2  A    between atoms: C_27  and  C_32
                            x       y       z     vdW  Elec       q    Type
                         _______ _______ _______ _____ _____    ______ ____

>  <TORSDO>
F 2

$$$$
