=
 OpenBabel10272401063D

 27 31  0  0  1  0  0  0  0  0999 V2000
  187.3980  178.5060  141.9980 N   0  0  0  0  0  2  0  0  0  0  0  0
  187.8270  177.5810  144.1920 C   0  0  0  0  0  0  0  0  0  0  0  0
  189.4990  176.4160  142.7290 N   0  0  0  0  0  0  0  0  0  0  0  0
  190.4320  177.1890  147.4280 N   0  0  0  0  0  2  0  0  0  0  0  0
  192.3910  176.4610  148.3070 O   0  0  0  0  0  0  0  0  0  0  0  0
  187.4930  178.0900  145.4600 C   0  0  0  0  0  3  0  0  0  0  0  0
  191.1870  176.1670  144.9730 C   0  0  0  0  0  3  0  0  0  0  0  0
  190.0940  176.7390  139.2760 C   0  0  0  0  0  0  0  0  0  0  0  0
  192.0340  176.0440  146.0750 C   0  0  0  0  0  3  0  0  0  0  0  0
  190.7500  176.0250  138.2350 N   0  0  0  0  0  1  0  0  0  0  0  0
  189.9470  176.8080  145.1050 C   0  0  0  0  0  0  0  0  0  0  0  0
  186.8510  177.6740  143.0520 C   0  0  1  0  0  3  0  0  0  0  0  0
  191.6360  176.5660  147.3070 C   0  0  0  0  0  0  0  0  0  0  0  0
  189.5870  177.3220  146.3700 C   0  0  0  0  0  0  0  0  0  0  0  0
  188.4960  178.0720  141.2010 C   0  0  0  0  0  0  0  0  0  0  0  0
  189.0820  176.9560  144.0010 C   0  0  0  0  0  0  0  0  0  0  0  0
  189.9190  176.1690  140.4320 N   0  0  0  0  0  0  0  0  0  0  0  0
  188.3650  177.9660  146.5380 C   0  0  0  0  0  3  0  0  0  0  0  0
  189.7670  178.1950  139.0760 C   0  0  0  0  0  2  0  0  0  0  0  0
  188.6980  178.6630  140.0230 C   0  0  0  0  0  3  0  0  0  0  0  0
  189.2740  176.8460  141.5180 C   0  0  0  0  0  0  0  0  0  0  0  0
  182.8660  178.9270  144.0900 C   0  0  0  0  0  3  0  0  0  0  0  0
  185.4690  178.1280  143.4290 C   0  0  0  0  0  0  0  0  0  0  0  0
  184.4980  178.2600  142.4300 C   0  0  0  0  0  3  0  0  0  0  0  0
  183.2000  178.6610  142.7590 C   0  0  0  0  0  3  0  0  0  0  0  0
  183.8300  178.7900  145.0930 C   0  0  0  0  0  3  0  0  0  0  0  0
  185.1280  178.3900  144.7650 C   0  0  0  0  0  3  0  0  0  0  0  0
  1 12  1  0  0  0  0
  2  6  1  0  0  0  0
  3 16  1  0  0  0  0
  6 18  2  0  0  0  0
  7 11  1  0  0  0  0
  7  9  2  0  0  0  0
  8 17  2  0  0  0  0
  9 13  1  0  0  0  0
 10  8  1  0  0  0  0
 11 14  2  0  0  0  0
 12 23  1  1  0  0  0
 12  2  1  0  0  0  0
 13  4  1  0  0  0  0
 13  5  2  0  0  0  0
 14 18  1  0  0  0  0
 14  4  1  0  0  0  0
 15 21  1  0  0  0  0
 15  1  1  0  0  0  0
 16  2  2  0  0  0  0
 16 11  1  0  0  0  0
 17 21  1  0  0  0  0
 19  8  1  0  0  0  0
 19 20  1  0  0  0  0
 20 15  2  0  0  0  0
 21  3  2  0  0  0  0
 22 26  1  0  0  0  0
 23 27  1  0  0  0  0
 24 25  1  0  0  0  0
 24 23  2  0  0  0  0
 25 22  2  0  0  0  0
 27 26  2  0  0  0  0
M  END
>  <MODEL>
1

>  <REMARK>
 VINA RESULT:     -11.5      0.000      0.000
  Name = 
  1 active torsions:
  status: ('A' for Active; 'I' for Inactive)
    1  A    between atoms: C_9  and  C_15
                            x       y       z     vdW  Elec       q    Type
                         _______ _______ _______ _____ _____    ______ ____

>  <TORSDO>
F 1

$$$$
=
 OpenBabel10272401063D

 27 31  0  0  1  0  0  0  0  0999 V2000
  186.2210  178.7430  141.5840 N   0  0  0  0  0  2  0  0  0  0  0  0
  185.9130  178.1810  143.9170 C   0  0  0  0  0  0  0  0  0  0  0  0
  188.0480  177.0110  143.3100 N   0  0  0  0  0  0  0  0  0  0  0  0
  187.2550  178.5190  147.8540 N   0  0  0  0  0  2  0  0  0  0  0  0
  188.8250  178.1340  149.4440 O   0  0  0  0  0  0  0  0  0  0  0  0
  185.1350  178.8200  144.8980 C   0  0  0  0  0  3  0  0  0  0  0  0
  188.8650  177.2550  145.9970 C   0  0  0  0  0  3  0  0  0  0  0  0
  189.7830  176.9170  140.2510 C   0  0  0  0  0  0  0  0  0  0  0  0
  189.2840  177.3770  147.3230 C   0  0  0  0  0  3  0  0  0  0  0  0
  190.7960  176.1410  139.6220 N   0  0  0  0  0  1  0  0  0  0  0  0
  187.6240  177.7720  145.5990 C   0  0  0  0  0  0  0  0  0  0  0  0
  185.3890  178.0110  142.5180 C   0  0  1  0  0  3  0  0  0  0  0  0
  188.4580  178.0180  148.2460 C   0  0  0  0  0  0  0  0  0  0  0  0
  186.8220  178.4140  146.5680 C   0  0  0  0  0  0  0  0  0  0  0  0
  187.5480  178.3230  141.2830 C   0  0  0  0  0  0  0  0  0  0  0  0
  187.1880  177.6730  144.2620 C   0  0  0  0  0  0  0  0  0  0  0  0
  189.2500  176.4970  141.3590 N   0  0  0  0  0  0  0  0  0  0  0  0
  185.5850  178.9400  146.2100 C   0  0  0  0  0  3  0  0  0  0  0  0
  189.4680  178.2890  139.7140 C   0  0  0  0  0  2  0  0  0  0  0  0
  188.1130  178.7650  140.1590 C   0  0  0  0  0  3  0  0  0  0  0  0
  188.2330  177.2430  142.0400 C   0  0  0  0  0  0  0  0  0  0  0  0
  181.2300  178.9600  141.9450 C   0  0  0  0  0  3  0  0  0  0  0  0
  183.9390  178.3620  142.3320 C   0  0  0  0  0  0  0  0  0  0  0  0
  183.3710  178.2580  141.0570 C   0  0  0  0  0  3  0  0  0  0  0  0
  182.0200  178.5590  140.8630 C   0  0  0  0  0  3  0  0  0  0  0  0
  181.7910  179.0600  143.2210 C   0  0  0  0  0  3  0  0  0  0  0  0
  183.1410  178.7590  143.4160 C   0  0  0  0  0  3  0  0  0  0  0  0
  1 12  1  0  0  0  0
  2 16  2  0  0  0  0
  2  6  1  0  0  0  0
  3 16  1  0  0  0  0
  4 13  1  0  0  0  0
  6 18  2  0  0  0  0
  7  9  2  0  0  0  0
  8 17  2  0  0  0  0
  9 13  1  0  0  0  0
 10  8  1  0  0  0  0
 11  7  1  0  0  0  0
 11 14  2  0  0  0  0
 12 23  1  1  0  0  0
 12  2  1  0  0  0  0
 13  5  2  0  0  0  0
 14  4  1  0  0  0  0
 15  1  1  0  0  0  0
 15 21  1  0  0  0  0
 16 11  1  0  0  0  0
 17 21  1  0  0  0  0
 18 14  1  0  0  0  0
 19 20  1  0  0  0  0
 19  8  1  0  0  0  0
 20 15  2  0  0  0  0
 21  3  2  0  0  0  0
 22 26  1  0  0  0  0
 23 27  1  0  0  0  0
 24 23  2  0  0  0  0
 25 24  1  0  0  0  0
 25 22  2  0  0  0  0
 26 27  2  0  0  0  0
M  END
>  <MODEL>
2

>  <REMARK>
 VINA RESULT:     -10.7      1.708      2.332
  Name = 
  1 active torsions:
  status: ('A' for Active; 'I' for Inactive)
    1  A    between atoms: C_9  and  C_15
                            x       y       z     vdW  Elec       q    Type
                         _______ _______ _______ _____ _____    ______ ____

>  <TORSDO>
F 1

$$$$
=
 OpenBabel10272401063D

 27 31  0  0  1  0  0  0  0  0999 V2000
  189.7140  176.5900  141.7640 N   0  0  0  0  0  2  0  0  0  0  0  0
  188.1130  177.6180  143.2580 C   0  0  0  0  0  0  0  0  0  0  0  0
  187.6780  178.7520  141.0630 N   0  0  0  0  0  0  0  0  0  0  0  0
  184.1190  178.2040  144.3160 N   0  0  0  0  0  2  0  0  0  0  0  0
  182.0520  179.0090  143.8490 O   0  0  0  0  0  0  0  0  0  0  0  0
  187.6120  177.1580  144.4890 C   0  0  0  0  0  3  0  0  0  0  0  0
  185.0030  179.1340  141.8680 C   0  0  0  0  0  3  0  0  0  0  0  0
  189.2220  178.2930  137.9350 C   0  0  0  0  0  0  0  0  0  0  0  0
  183.6750  179.3220  142.2520 C   0  0  0  0  0  3  0  0  0  0  0  0
  189.3390  178.9740  136.6920 N   0  0  0  0  0  1  0  0  0  0  0  0
  185.8980  178.4740  142.7220 C   0  0  0  0  0  0  0  0  0  0  0  0
  189.5680  177.4550  142.9180 C   0  0  1  0  0  3  0  0  0  0  0  0
  183.2470  178.8450  143.4920 C   0  0  0  0  0  0  0  0  0  0  0  0
  185.4190  178.0080  143.9660 C   0  0  0  0  0  0  0  0  0  0  0  0
  189.3180  177.0120  140.4620 C   0  0  0  0  0  0  0  0  0  0  0  0
  187.2410  178.2600  142.3470 C   0  0  0  0  0  0  0  0  0  0  0  0
  188.7060  178.9080  138.9570 N   0  0  0  0  0  0  0  0  0  0  0  0
  186.2780  177.3470  144.8390 C   0  0  0  0  0  3  0  0  0  0  0  0
  189.5430  176.8220  138.0010 C   0  0  0  0  0  2  0  0  0  0  0  0
  189.8260  176.3740  139.4070 C   0  0  0  0  0  3  0  0  0  0  0  0
  188.5560  178.2660  140.2300 C   0  0  0  0  0  0  0  0  0  0  0  0
  192.0150  176.1330  146.2020 C   0  0  0  0  0  3  0  0  0  0  0  0
  190.4410  176.9900  144.0490 C   0  0  0  0  0  0  0  0  0  0  0  0
  190.4060  177.6810  145.2660 C   0  0  0  0  0  3  0  0  0  0  0  0
  191.1930  177.2550  146.3400 C   0  0  0  0  0  3  0  0  0  0  0  0
  192.0500  175.4350  144.9920 C   0  0  0  0  0  3  0  0  0  0  0  0
  191.2630  175.8600  143.9180 C   0  0  0  0  0  3  0  0  0  0  0  0
  1 12  1  0  0  0  0
  2  6  1  0  0  0  0
  3 16  1  0  0  0  0
  6 18  2  0  0  0  0
  7  9  2  0  0  0  0
  7 11  1  0  0  0  0
  8 19  1  0  0  0  0
  8 17  2  0  0  0  0
  9 13  1  0  0  0  0
 10  8  1  0  0  0  0
 11 14  2  0  0  0  0
 12  2  1  0  0  0  0
 12 23  1  1  0  0  0
 13  5  2  0  0  0  0
 13  4  1  0  0  0  0
 14  4  1  0  0  0  0
 14 18  1  0  0  0  0
 15  1  1  0  0  0  0
 16 11  1  0  0  0  0
 16  2  2  0  0  0  0
 17 21  1  0  0  0  0
 19 20  1  0  0  0  0
 20 15  2  0  0  0  0
 21 15  1  0  0  0  0
 21  3  2  0  0  0  0
 22 25  1  0  0  0  0
 23 24  1  0  0  0  0
 24 25  2  0  0  0  0
 26 22  2  0  0  0  0
 27 23  2  0  0  0  0
 27 26  1  0  0  0  0
M  END
>  <MODEL>
3

>  <REMARK>
 VINA RESULT:     -10.3      2.789      5.883
  Name = 
  1 active torsions:
  status: ('A' for Active; 'I' for Inactive)
    1  A    between atoms: C_9  and  C_15
                            x       y       z     vdW  Elec       q    Type
                         _______ _______ _______ _____ _____    ______ ____

>  <TORSDO>
F 1

$$$$
=
 OpenBabel10272401063D

 27 31  0  0  1  0  0  0  0  0999 V2000
  189.7900  178.3710  141.4860 N   0  0  0  0  0  2  0  0  0  0  0  0
  187.3950  178.0340  141.4490 C   0  0  0  0  0  0  0  0  0  0  0  0
  188.0560  177.2920  143.7530 N   0  0  0  0  0  0  0  0  0  0  0  0
  183.6390  179.1160  142.9110 N   0  0  0  0  0  2  0  0  0  0  0  0
  182.1550  179.2700  144.6180 O   0  0  0  0  0  0  0  0  0  0  0  0
  186.4220  178.6010  140.6070 C   0  0  0  0  0  3  0  0  0  0  0  0
  185.4860  178.0220  144.6520 C   0  0  0  0  0  3  0  0  0  0  0  0
  191.2240  177.2150  145.2820 C   0  0  0  0  0  0  0  0  0  0  0  0
  184.2190  178.3860  145.1110 C   0  0  0  0  0  3  0  0  0  0  0  0
  191.8540  176.6080  146.4040 N   0  0  0  0  0  1  0  0  0  0  0  0
  185.8290  178.2070  143.3050 C   0  0  0  0  0  0  0  0  0  0  0  0
  188.7200  177.5910  140.8950 C   0  0  1  0  0  3  0  0  0  0  0  0
  183.3000  178.9380  144.2170 C   0  0  0  0  0  0  0  0  0  0  0  0
  184.8670  178.7690  142.4380 C   0  0  0  0  0  0  0  0  0  0  0  0
  190.1570  178.2160  142.8530 C   0  0  0  0  0  0  0  0  0  0  0  0
  187.1080  177.8590  142.8240 C   0  0  0  0  0  0  0  0  0  0  0  0
  190.0380  176.8230  144.9230 N   0  0  0  0  0  0  0  0  0  0  0  0
  185.1720  178.9690  141.0950 C   0  0  0  0  0  3  0  0  0  0  0  0
  191.8700  178.4130  144.6350 C   0  0  0  0  0  2  0  0  0  0  0  0
  191.3640  178.6340  143.2370 C   0  0  0  0  0  3  0  0  0  0  0  0
  189.3540  177.4070  143.8060 C   0  0  0  0  0  0  0  0  0  0  0  0
  189.0580  177.6440  136.6050 C   0  0  0  0  0  3  0  0  0  0  0  0
  188.8200  177.5950  139.3960 C   0  0  0  0  0  0  0  0  0  0  0  0
  189.0690  178.8010  138.7320 C   0  0  0  0  0  3  0  0  0  0  0  0
  189.1860  178.8270  137.3400 C   0  0  0  0  0  3  0  0  0  0  0  0
  188.8150  176.4350  137.2630 C   0  0  0  0  0  3  0  0  0  0  0  0
  188.6980  176.4090  138.6550 C   0  0  0  0  0  3  0  0  0  0  0  0
  1 15  1  0  0  0  0
  2 16  1  0  0  0  0
  3 21  2  0  0  0  0
  4 13  1  0  0  0  0
  6 18  1  0  0  0  0
  6  2  2  0  0  0  0
  7  9  2  0  0  0  0
  8 10  1  0  0  0  0
 11  7  1  0  0  0  0
 12 23  1  6  0  0  0
 12  2  1  0  0  0  0
 12  1  1  0  0  0  0
 13  5  2  0  0  0  0
 13  9  1  0  0  0  0
 14  4  1  0  0  0  0
 14 11  1  0  0  0  0
 15 20  2  0  0  0  0
 15 21  1  0  0  0  0
 16 11  2  0  0  0  0
 16  3  1  0  0  0  0
 17  8  2  0  0  0  0
 18 14  2  0  0  0  0
 19  8  1  0  0  0  0
 20 19  1  0  0  0  0
 21 17  1  0  0  0  0
 22 26  2  0  0  0  0
 22 25  1  0  0  0  0
 24 23  1  0  0  0  0
 25 24  2  0  0  0  0
 26 27  1  0  0  0  0
 27 23  2  0  0  0  0
M  END
>  <MODEL>
4

>  <REMARK>
 VINA RESULT:      -9.9      2.799      6.396
  Name = 
  1 active torsions:
  status: ('A' for Active; 'I' for Inactive)
    1  A    between atoms: C_9  and  C_15
                            x       y       z     vdW  Elec       q    Type
                         _______ _______ _______ _____ _____    ______ ____

>  <TORSDO>
F 1

$$$$
=
 OpenBabel10272401063D

 27 31  0  0  1  0  0  0  0  0999 V2000
  189.4700  176.9810  140.6940 N   0  0  0  0  0  2  0  0  0  0  0  0
  187.6470  178.1380  141.7860 C   0  0  0  0  0  0  0  0  0  0  0  0
  187.3100  178.6750  139.3580 N   0  0  0  0  0  0  0  0  0  0  0  0
  183.5340  178.4920  142.4010 N   0  0  0  0  0  2  0  0  0  0  0  0
  181.4520  178.9260  141.6170 O   0  0  0  0  0  0  0  0  0  0  0  0
  187.0800  177.9210  143.0540 C   0  0  0  0  0  3  0  0  0  0  0  0
  184.5490  178.9250  139.8670 C   0  0  0  0  0  3  0  0  0  0  0  0
  189.1740  177.6830  136.5440 C   0  0  0  0  0  0  0  0  0  0  0  0
  183.1780  179.0440  140.1040 C   0  0  0  0  0  3  0  0  0  0  0  0
  189.3390  178.0660  135.1840 N   0  0  0  0  0  1  0  0  0  0  0  0
  185.4200  178.5870  140.9120 C   0  0  0  0  0  0  0  0  0  0  0  0
  189.1360  178.0680  141.5940 C   0  0  1  0  0  3  0  0  0  0  0  0
  182.6850  178.8220  141.3900 C   0  0  0  0  0  0  0  0  0  0  0  0
  184.8740  178.3710  142.1970 C   0  0  0  0  0  0  0  0  0  0  0  0
  189.1570  177.0420  139.3060 C   0  0  0  0  0  0  0  0  0  0  0  0
  186.8050  178.4470  140.6910 C   0  0  0  0  0  0  0  0  0  0  0  0
  188.5090  178.4550  137.3510 N   0  0  0  0  0  0  0  0  0  0  0  0
  185.7070  178.0320  143.2590 C   0  0  0  0  0  3  0  0  0  0  0  0
  189.6260  176.3140  136.9820 C   0  0  0  0  0  2  0  0  0  0  0  0
  189.8190  176.2390  138.4710 C   0  0  0  0  0  3  0  0  0  0  0  0
  188.3040  178.1130  138.7280 C   0  0  0  0  0  0  0  0  0  0  0  0
  191.4500  177.7510  145.2090 C   0  0  0  0  0  3  0  0  0  0  0  0
  189.9400  177.9810  142.8600 C   0  0  0  0  0  0  0  0  0  0  0  0
  189.7590  176.8820  143.7090 C   0  0  0  0  0  3  0  0  0  0  0  0
  190.5110  176.7690  144.8820 C   0  0  0  0  0  3  0  0  0  0  0  0
  191.6400  178.8470  144.3620 C   0  0  0  0  0  3  0  0  0  0  0  0
  190.8890  178.9620  143.1890 C   0  0  0  0  0  3  0  0  0  0  0  0
  1 12  1  0  0  0  0
  2  6  1  0  0  0  0
  3 16  1  0  0  0  0
  6 18  2  0  0  0  0
  7  9  2  0  0  0  0
  7 11  1  0  0  0  0
  8 19  1  0  0  0  0
  8 17  2  0  0  0  0
  9 13  1  0  0  0  0
 10  8  1  0  0  0  0
 11 14  2  0  0  0  0
 12  2  1  0  0  0  0
 12 23  1  1  0  0  0
 13  5  2  0  0  0  0
 13  4  1  0  0  0  0
 14  4  1  0  0  0  0
 14 18  1  0  0  0  0
 15  1  1  0  0  0  0
 16 11  1  0  0  0  0
 16  2  2  0  0  0  0
 17 21  1  0  0  0  0
 19 20  1  0  0  0  0
 20 15  2  0  0  0  0
 21 15  1  0  0  0  0
 21  3  2  0  0  0  0
 23 27  2  0  0  0  0
 23 24  1  0  0  0  0
 24 25  2  0  0  0  0
 25 22  1  0  0  0  0
 26 22  2  0  0  0  0
 27 26  1  0  0  0  0
M  END
>  <MODEL>
5

>  <REMARK>
 VINA RESULT:      -9.3      3.314      6.367
  Name = 
  1 active torsions:
  status: ('A' for Active; 'I' for Inactive)
    1  A    between atoms: C_9  and  C_15
                            x       y       z     vdW  Elec       q    Type
                         _______ _______ _______ _____ _____    ______ ____

>  <TORSDO>
F 1

$$$$
=
 OpenBabel10272401063D

 27 31  0  0  1  0  0  0  0  0999 V2000
  188.3650  177.1320  143.6660 N   0  0  0  0  0  2  0  0  0  0  0  0
  186.3120  178.2450  144.2990 C   0  0  0  0  0  0  0  0  0  0  0  0
  186.5970  178.8690  141.8860 N   0  0  0  0  0  0  0  0  0  0  0  0
  182.1750  178.5690  143.8610 N   0  0  0  0  0  2  0  0  0  0  0  0
  180.3550  179.0270  142.5890 O   0  0  0  0  0  0  0  0  0  0  0  0
  185.4440  177.9810  145.3740 C   0  0  0  0  0  3  0  0  0  0  0  0
  183.7940  179.0950  141.6840 C   0  0  0  0  0  3  0  0  0  0  0  0
  189.1250  177.9840  139.6040 C   0  0  0  0  0  0  0  0  0  0  0  0
  182.4070  179.2030  141.5700 C   0  0  0  0  0  3  0  0  0  0  0  0
  189.6250  178.4170  138.3450 N   0  0  0  0  0  1  0  0  0  0  0  0
  184.3750  178.7210  142.9040 C   0  0  0  0  0  0  0  0  0  0  0  0
  187.8020  178.1850  144.4890 C   0  0  1  0  0  3  0  0  0  0  0  0
  181.6060  178.9330  142.6800 C   0  0  0  0  0  0  0  0  0  0  0  0
  183.5240  178.4570  144.0000 C   0  0  0  0  0  0  0  0  0  0  0  0
  188.4140  177.2430  142.2470 C   0  0  0  0  0  0  0  0  0  0  0  0
  185.7730  178.5920  143.0380 C   0  0  0  0  0  0  0  0  0  0  0  0
  188.2680  178.7250  140.2420 N   0  0  0  0  0  0  0  0  0  0  0  0
  184.0640  178.0820  145.2260 C   0  0  0  0  0  3  0  0  0  0  0  0
  189.4650  176.6010  140.0950 C   0  0  0  0  0  2  0  0  0  0  0  0
  189.2750  176.4720  141.5810 C   0  0  0  0  0  3  0  0  0  0  0  0
  187.7240  178.3320  141.5090 C   0  0  0  0  0  0  0  0  0  0  0  0
  189.1760  177.8240  148.5520 C   0  0  0  0  0  3  0  0  0  0  0  0
  188.2590  178.0530  145.9140 C   0  0  0  0  0  0  0  0  0  0  0  0
  189.4800  177.4220  146.1830 C   0  0  0  0  0  3  0  0  0  0  0  0
  189.9360  177.3060  147.4990 C   0  0  0  0  0  3  0  0  0  0  0  0
  187.9590  178.4600  148.2890 C   0  0  0  0  0  3  0  0  0  0  0  0
  187.5020  178.5770  146.9740 C   0  0  0  0  0  3  0  0  0  0  0  0
  1 12  1  0  0  0  0
  2 12  1  0  0  0  0
  2  6  1  0  0  0  0
  3 16  1  0  0  0  0
  4 14  1  0  0  0  0
  5 13  2  0  0  0  0
  7 11  1  0  0  0  0
  8 19  1  0  0  0  0
  8 17  2  0  0  0  0
  9  7  2  0  0  0  0
  9 13  1  0  0  0  0
 10  8  1  0  0  0  0
 11 16  1  0  0  0  0
 11 14  2  0  0  0  0
 12 23  1  1  0  0  0
 13  4  1  0  0  0  0
 14 18  1  0  0  0  0
 15  1  1  0  0  0  0
 16  2  2  0  0  0  0
 17 21  1  0  0  0  0
 18  6  2  0  0  0  0
 19 20  1  0  0  0  0
 20 15  2  0  0  0  0
 21  3  2  0  0  0  0
 21 15  1  0  0  0  0
 23 24  2  0  0  0  0
 23 27  1  0  0  0  0
 24 25  1  0  0  0  0
 25 22  2  0  0  0  0
 26 22  1  0  0  0  0
 27 26  2  0  0  0  0
M  END
>  <MODEL>
6

>  <REMARK>
 VINA RESULT:      -9.1      3.082      6.083
  Name = 
  1 active torsions:
  status: ('A' for Active; 'I' for Inactive)
    1  A    between atoms: C_9  and  C_15
                            x       y       z     vdW  Elec       q    Type
                         _______ _______ _______ _____ _____    ______ ____

>  <TORSDO>
F 1

$$$$
=
 OpenBabel10272401063D

 27 31  0  0  1  0  0  0  0  0999 V2000
  184.6660  177.9170  141.0060 N   0  0  0  0  0  2  0  0  0  0  0  0
  186.4650  178.2330  142.5930 C   0  0  0  0  0  0  0  0  0  0  0  0
  184.4850  179.2660  143.7380 N   0  0  0  0  0  0  0  0  0  0  0  0
  188.1060  177.3240  146.3200 N   0  0  0  0  0  2  0  0  0  0  0  0
  188.0120  177.3800  148.5840 O   0  0  0  0  0  0  0  0  0  0  0  0
  187.6930  177.5580  142.7010 C   0  0  0  0  0  3  0  0  0  0  0  0
  185.6790  178.6410  146.2140 C   0  0  0  0  0  3  0  0  0  0  0  0
  181.1470  179.5530  142.6630 C   0  0  0  0  0  0  0  0  0  0  0  0
  186.2560  178.3310  147.4470 C   0  0  0  0  0  3  0  0  0  0  0  0
  179.9820  180.3010  142.9890 N   0  0  0  0  0  1  0  0  0  0  0  0
  186.3270  178.2890  145.0220 C   0  0  0  0  0  0  0  0  0  0  0  0
  185.9170  178.6100  141.2440 C   0  0  1  0  0  3  0  0  0  0  0  0
  187.4820  177.6650  147.4800 C   0  0  0  0  0  0  0  0  0  0  0  0
  187.5660  177.6150  145.1060 C   0  0  0  0  0  0  0  0  0  0  0  0
  183.4830  178.2460  141.7290 C   0  0  0  0  0  0  0  0  0  0  0  0
  185.7550  178.5800  143.7670 C   0  0  0  0  0  0  0  0  0  0  0  0
  182.2910  179.8900  143.1820 N   0  0  0  0  0  0  0  0  0  0  0  0
  188.2380  177.2480  143.9440 C   0  0  0  0  0  3  0  0  0  0  0  0
  181.0080  178.2870  141.8600 C   0  0  0  0  0  2  0  0  0  0  0  0
  182.3060  177.8870  141.2160 C   0  0  0  0  0  3  0  0  0  0  0  0
  183.4940  179.1650  142.8970 C   0  0  0  0  0  0  0  0  0  0  0  0
  188.5880  178.0950  137.9090 C   0  0  0  0  0  3  0  0  0  0  0  0
  186.8630  178.4160  140.0940 C   0  0  0  0  0  0  0  0  0  0  0  0
  186.3440  178.1940  138.8130 C   0  0  0  0  0  3  0  0  0  0  0  0
  187.2040  178.0310  137.7230 C   0  0  0  0  0  3  0  0  0  0  0  0
  189.1130  178.3230  139.1840 C   0  0  0  0  0  3  0  0  0  0  0  0
  188.2530  178.4850  140.2740 C   0  0  0  0  0  3  0  0  0  0  0  0
  1 12  1  0  0  0  0
  1 15  1  0  0  0  0
  2  6  2  0  0  0  0
  2 16  1  0  0  0  0
  3 16  1  0  0  0  0
  4 13  1  0  0  0  0
  6 18  1  0  0  0  0
  7  9  2  0  0  0  0
  8 10  1  0  0  0  0
  8 17  2  0  0  0  0
  9 13  1  0  0  0  0
 11 14  1  0  0  0  0
 11  7  1  0  0  0  0
 12 23  1  6  0  0  0
 12  2  1  0  0  0  0
 13  5  2  0  0  0  0
 14  4  1  0  0  0  0
 15 21  1  0  0  0  0
 16 11  2  0  0  0  0
 18 14  2  0  0  0  0
 19  8  1  0  0  0  0
 20 15  2  0  0  0  0
 20 19  1  0  0  0  0
 21 17  1  0  0  0  0
 21  3  2  0  0  0  0
 22 26  1  0  0  0  0
 23 27  1  0  0  0  0
 24 23  2  0  0  0  0
 25 22  2  0  0  0  0
 25 24  1  0  0  0  0
 26 27  2  0  0  0  0
M  END
>  <MODEL>
7

>  <REMARK>
 VINA RESULT:      -8.9      2.818      6.062
  Name = 
  1 active torsions:
  status: ('A' for Active; 'I' for Inactive)
    1  A    between atoms: C_9  and  C_15
                            x       y       z     vdW  Elec       q    Type
                         _______ _______ _______ _____ _____    ______ ____

>  <TORSDO>
F 1

$$$$
=
 OpenBabel10272401063D

 27 31  0  0  1  0  0  0  0  0999 V2000
  191.3140  177.3820  140.8000 N   0  0  0  0  0  2  0  0  0  0  0  0
  189.2160  177.2610  139.6020 C   0  0  0  0  0  0  0  0  0  0  0  0
  188.5180  177.2180  142.0120 N   0  0  0  0  0  0  0  0  0  0  0  0
  185.5860  179.0690  138.6170 N   0  0  0  0  0  2  0  0  0  0  0  0
  183.5550  179.8760  139.2210 O   0  0  0  0  0  0  0  0  0  0  0  0
  188.9190  177.6210  138.2750 C   0  0  0  0  0  3  0  0  0  0  0  0
  186.0790  178.4130  141.2560 C   0  0  0  0  0  3  0  0  0  0  0  0
  190.4730  177.3440  144.9340 C   0  0  0  0  0  0  0  0  0  0  0  0
  184.8710  179.0120  140.8960 C   0  0  0  0  0  3  0  0  0  0  0  0
  190.3370  177.0640  146.3220 N   0  0  0  0  0  1  0  0  0  0  0  0
  187.0500  178.1390  140.2820 C   0  0  0  0  0  0  0  0  0  0  0  0
  190.5010  176.5540  139.9320 C   0  0  1  0  0  3  0  0  0  0  0  0
  184.6400  179.3360  139.5580 C   0  0  0  0  0  0  0  0  0  0  0  0
  186.7720  178.4860  138.9410 C   0  0  0  0  0  0  0  0  0  0  0  0
  190.9450  177.6290  142.1530 C   0  0  0  0  0  0  0  0  0  0  0  0
  188.2830  177.5490  140.6270 C   0  0  0  0  0  0  0  0  0  0  0  0
  189.5420  176.9650  144.1100 N   0  0  0  0  0  0  0  0  0  0  0  0
  187.7110  178.2310  137.9470 C   0  0  0  0  0  3  0  0  0  0  0  0
  191.6070  178.2200  144.4690 C   0  0  0  0  0  2  0  0  0  0  0  0
  191.8880  178.0380  143.0030 C   0  0  0  0  0  3  0  0  0  0  0  0
  189.6230  177.2300  142.7030 C   0  0  0  0  0  0  0  0  0  0  0  0
  192.8270  175.2060  136.5710 C   0  0  0  0  0  3  0  0  0  0  0  0
  191.2930  176.0820  138.7450 C   0  0  0  0  0  0  0  0  0  0  0  0
  192.5300  176.6770  138.4710 C   0  0  0  0  0  3  0  0  0  0  0  0
  193.2940  176.2410  137.3850 C   0  0  0  0  0  3  0  0  0  0  0  0
  191.5950  174.6030  136.8430 C   0  0  0  0  0  3  0  0  0  0  0  0
  190.8300  175.0380  137.9290 C   0  0  0  0  0  3  0  0  0  0  0  0
  1 15  1  0  0  0  0
  2 12  1  0  0  0  0
  2 16  1  0  0  0  0
  3 21  2  0  0  0  0
  4 14  1  0  0  0  0
  4 13  1  0  0  0  0
  5 13  2  0  0  0  0
  6  2  2  0  0  0  0
  8 10  1  0  0  0  0
  9  7  2  0  0  0  0
 11 16  2  0  0  0  0
 11  7  1  0  0  0  0
 12 23  1  6  0  0  0
 12  1  1  0  0  0  0
 13  9  1  0  0  0  0
 14 11  1  0  0  0  0
 15 21  1  0  0  0  0
 15 20  2  0  0  0  0
 16  3  1  0  0  0  0
 17  8  2  0  0  0  0
 18  6  1  0  0  0  0
 18 14  2  0  0  0  0
 19  8  1  0  0  0  0
 20 19  1  0  0  0  0
 21 17  1  0  0  0  0
 22 26  2  0  0  0  0
 22 25  1  0  0  0  0
 24 23  1  0  0  0  0
 25 24  2  0  0  0  0
 26 27  1  0  0  0  0
 27 23  2  0  0  0  0
M  END
>  <MODEL>
8

>  <REMARK>
 VINA RESULT:      -8.9      3.371      7.914
  Name = 
  1 active torsions:
  status: ('A' for Active; 'I' for Inactive)
    1  A    between atoms: C_9  and  C_15
                            x       y       z     vdW  Elec       q    Type
                         _______ _______ _______ _____ _____    ______ ____

>  <TORSDO>
F 1

$$$$
=
 OpenBabel10272401063D

 27 31  0  0  1  0  0  0  0  0999 V2000
  188.7600  177.9040  140.2060 N   0  0  0  0  0  2  0  0  0  0  0  0
  190.8810  176.8380  139.7360 C   0  0  0  0  0  0  0  0  0  0  0  0
  189.3990  176.0420  137.8740 N   0  0  0  0  0  0  0  0  0  0  0  0
  194.1870  176.4790  137.2160 N   0  0  0  0  0  2  0  0  0  0  0  0
  195.0890  175.9290  135.2100 O   0  0  0  0  0  0  0  0  0  0  0  0
  192.1720  177.1780  140.1780 C   0  0  0  0  0  3  0  0  0  0  0  0
  191.6890  175.7990  136.2480 C   0  0  0  0  0  3  0  0  0  0  0  0
  186.0210  176.7630  137.2060 C   0  0  0  0  0  0  0  0  0  0  0  0
  192.8150  175.6820  135.4310 C   0  0  0  0  0  3  0  0  0  0  0  0
  184.9520  176.2410  136.4260 N   0  0  0  0  0  1  0  0  0  0  0  0
  191.8190  176.2610  137.5660 C   0  0  0  0  0  0  0  0  0  0  0  0
  189.7090  176.9130  140.6750 C   0  0  1  0  0  3  0  0  0  0  0  0
  194.0670  176.0300  135.9370 C   0  0  0  0  0  0  0  0  0  0  0  0
  193.1070  176.6020  138.0340 C   0  0  0  0  0  0  0  0  0  0  0  0
  187.9800  177.6920  139.0330 C   0  0  0  0  0  0  0  0  0  0  0  0
  190.6930  176.4010  138.4040 C   0  0  0  0  0  0  0  0  0  0  0  0
  187.1110  176.0690  137.3450 N   0  0  0  0  0  0  0  0  0  0  0  0
  193.2740  177.0650  139.3360 C   0  0  0  0  0  3  0  0  0  0  0  0
  185.9370  178.1780  137.7160 C   0  0  0  0  0  2  0  0  0  0  0  0
  186.8710  178.4130  138.8700 C   0  0  0  0  0  3  0  0  0  0  0  0
  188.2230  176.5520  138.1120 C   0  0  0  0  0  0  0  0  0  0  0  0
  190.7700  177.5490  144.7970 C   0  0  0  0  0  3  0  0  0  0  0  0
  190.0590  177.1480  142.1170 C   0  0  0  0  0  0  0  0  0  0  0  0
  190.5730  176.0900  142.8750 C   0  0  0  0  0  3  0  0  0  0  0  0
  190.9250  176.2890  144.2130 C   0  0  0  0  0  3  0  0  0  0  0  0
  190.2630  178.6120  144.0440 C   0  0  0  0  0  3  0  0  0  0  0  0
  189.9100  178.4140  142.7060 C   0  0  0  0  0  3  0  0  0  0  0  0
  1 12  1  0  0  0  0
  2  6  1  0  0  0  0
  2 12  1  0  0  0  0
  3 21  2  0  0  0  0
  3 16  1  0  0  0  0
  4 14  1  0  0  0  0
  5 13  2  0  0  0  0
  7 11  1  0  0  0  0
  8 17  2  0  0  0  0
  8 19  1  0  0  0  0
  9 13  1  0  0  0  0
  9  7  2  0  0  0  0
 10  8  1  0  0  0  0
 11 14  2  0  0  0  0
 11 16  1  0  0  0  0
 12 23  1  1  0  0  0
 13  4  1  0  0  0  0
 14 18  1  0  0  0  0
 15  1  1  0  0  0  0
 16  2  2  0  0  0  0
 17 21  1  0  0  0  0
 18  6  2  0  0  0  0
 19 20  1  0  0  0  0
 20 15  2  0  0  0  0
 21 15  1  0  0  0  0
 23 27  2  0  0  0  0
 23 24  1  0  0  0  0
 24 25  2  0  0  0  0
 25 22  1  0  0  0  0
 26 22  2  0  0  0  0
 27 26  1  0  0  0  0
M  END
>  <MODEL>
9

>  <REMARK>
 VINA RESULT:      -8.8      4.325      7.159
  Name = 
  1 active torsions:
  status: ('A' for Active; 'I' for Inactive)
    1  A    between atoms: C_9  and  C_15
                            x       y       z     vdW  Elec       q    Type
                         _______ _______ _______ _____ _____    ______ ____

>  <TORSDO>
F 1

$$$$
