=
 OpenBabel10272401463D

 28 30  0  0  1  0  0  0  0  0999 V2000
  187.6750  177.8470  145.4130 C   0  0  2  0  0  3  0  0  0  0  0  0
  183.1760  179.5800  144.1550 C   0  0  0  0  0  1  0  0  0  0  0  0
  185.8250  177.9110  142.0300 C   0  0  0  0  0  2  0  0  0  0  0  0
  185.4170  178.6800  144.7730 C   0  0  1  0  0  3  0  0  0  0  0  0
  187.0060  178.1030  142.9720 C   0  0  0  0  0  2  0  0  0  0  0  0
  186.2650  178.4670  147.0860 C   0  0  0  0  0  2  0  0  0  0  0  0
  184.2460  178.5550  143.7860 C   0  0  2  0  0  3  0  0  0  0  0  0
  185.0080  178.4040  146.2180 C   0  0  0  0  0  2  0  0  0  0  0  0
  184.7060  178.7880  142.3980 N   0  0  0  0  0  0  0  0  0  0  0  0
  187.1800  177.4770  146.6820 O   0  0  0  0  0  0  0  0  0  0  0  0
  186.5490  177.7360  144.3740 C   0  0  1  0  0  3  0  0  0  0  0  0
  188.8360  176.9310  145.0430 C   0  0  0  0  0  2  0  0  0  0  0  0
  190.1470  177.6570  145.1300 C   0  0  0  0  0  0  0  0  0  0  0  0
  190.4290  178.6180  144.2460 C   0  0  0  0  0  3  0  0  0  0  0  0
  191.5940  179.3170  144.3060 F   0  0  0  0  0  0  0  0  0  0  0  0
  190.4050  177.1530  147.4340 O   0  0  0  0  0  1  0  0  0  0  0  0
  191.1050  177.3460  146.2430 C   0  0  1  0  0  3  0  0  0  0  0  0
  192.3390  175.4950  147.1170 O   0  0  0  0  0  1  0  0  0  0  0  0
  191.9330  176.1090  145.9320 C   0  0  0  0  0  2  0  0  0  0  0  0
  183.6270  178.5790  141.4180 C   0  0  0  0  0  2  0  0  0  0  0  0
  183.8740  179.2220  140.0430 C   0  0  0  0  0  2  0  0  0  0  0  0
  182.9990  177.3140  138.6330 C   0  0  0  0  0  3  0  0  0  0  0  0
  186.2260  178.7710  138.3490 O   0  0  0  0  0  0  0  0  0  0  0  0
  185.1530  177.0690  137.2630 N   0  0  0  0  0  0  0  0  0  0  0  0
  184.0280  178.2050  138.9590 C   0  0  0  0  0  0  0  0  0  0  0  0
  185.2030  178.0520  138.1890 C   0  0  0  0  0  0  0  0  0  0  0  0
  186.1970  176.6740  136.3340 C   0  0  0  0  0  1  0  0  0  0  0  0
  183.6510  176.3890  137.3940 S   0  0  0  0  0  0  0  0  0  0  0  0
  1 12  1  6  0  0  0
  1 10  1  0  0  0  0
  3  9  1  0  0  0  0
  3  5  1  0  0  0  0
  4  8  1  1  0  0  0
  7  2  1  1  0  0  0
  7  4  1  0  0  0  0
  8  6  1  0  0  0  0
  9  7  1  0  0  0  0
 10  6  1  0  0  0  0
 11  5  1  6  0  0  0
 11  4  1  0  0  0  0
 11  1  1  0  0  0  0
 12 13  1  0  0  0  0
 13 17  1  0  0  0  0
 14 15  1  0  0  0  0
 14 13  2  0  0  0  0
 17 16  1  1  0  0  0
 19 17  1  0  0  0  0
 19 18  1  0  0  0  0
 20  9  1  0  0  0  0
 21 20  1  0  0  0  0
 22 25  2  0  0  0  0
 24 28  1  0  0  0  0
 24 26  1  0  0  0  0
 25 21  1  0  0  0  0
 26 23  2  0  0  0  0
 26 25  1  0  0  0  0
 27 24  1  0  0  0  0
 28 22  1  0  0  0  0
M  END
>  <MODEL>
1

>  <REMARK>
 VINA RESULT:      -7.9      0.000      0.000
  Name = 
  7 active torsions:
  status: ('A' for Active; 'I' for Inactive)
    1  A    between atoms: C_1  and  C_2
    2  A    between atoms: C_2  and  C_3
    3  A    between atoms: C_3  and  C_11
    4  A    between atoms: C_11  and  C_22
    5  A    between atoms: C_13  and  C_18
    6  A    between atoms: C_14  and  C_18
    7  A    between atoms: C_14  and  N_25
                            x       y       z     vdW  Elec       q    Type
                         _______ _______ _______ _____ _____    ______ ____

>  <TORSDO>
F 7

$$$$
=
 OpenBabel10272401463D

 28 30  0  0  1  0  0  0  0  0999 V2000
  189.3800  177.0190  143.8590 C   0  0  2  0  0  3  0  0  0  0  0  0
  185.9840  178.9690  146.9380 C   0  0  0  0  0  1  0  0  0  0  0  0
  185.6370  177.7960  143.3580 C   0  0  0  0  0  2  0  0  0  0  0  0
  187.6630  177.9640  145.3950 C   0  0  1  0  0  3  0  0  0  0  0  0
  187.1160  177.7860  142.9930 C   0  0  0  0  0  2  0  0  0  0  0  0
  189.9430  177.2660  146.0490 C   0  0  0  0  0  2  0  0  0  0  0  0
  186.1670  178.0490  145.7340 C   0  0  2  0  0  3  0  0  0  0  0  0
  188.4990  177.3860  146.5350 C   0  0  0  0  0  2  0  0  0  0  0  0
  185.3990  178.5720  144.5810 N   0  0  0  0  0  0  0  0  0  0  0  0
  190.0120  176.3870  144.9520 O   0  0  0  0  0  0  0  0  0  0  0  0
  187.8730  177.1290  144.1340 C   0  0  1  0  0  3  0  0  0  0  0  0
  189.6370  176.2050  142.5960 C   0  0  0  0  0  2  0  0  0  0  0  0
  190.5710  176.9240  141.6680 C   0  0  0  0  0  0  0  0  0  0  0  0
  191.7630  177.3290  142.1150 C   0  0  0  0  0  3  0  0  0  0  0  0
  192.6490  177.9610  141.2990 F   0  0  0  0  0  0  0  0  0  0  0  0
  190.5310  176.0000  139.4830 O   0  0  0  0  0  1  0  0  0  0  0  0
  190.1920  177.1290  140.2290 C   0  0  1  0  0  3  0  0  0  0  0  0
  188.3660  177.5040  138.7340 O   0  0  0  0  0  1  0  0  0  0  0  0
  188.7040  177.4090  140.0840 C   0  0  0  0  0  2  0  0  0  0  0  0
  183.9490  178.5730  144.8410 C   0  0  0  0  0  2  0  0  0  0  0  0
  183.1590  179.6410  144.0650 C   0  0  0  0  0  2  0  0  0  0  0  0
  180.8100  178.7620  143.7400 C   0  0  0  0  0  3  0  0  0  0  0  0
  183.3180  178.9100  141.2290 O   0  0  0  0  0  0  0  0  0  0  0  0
  181.1510  178.1800  141.2660 N   0  0  0  0  0  0  0  0  0  0  0  0
  182.0780  179.0460  143.2210 C   0  0  0  0  0  0  0  0  0  0  0  0
  182.2410  178.7190  141.8560 C   0  0  0  0  0  0  0  0  0  0  0  0
  181.0160  177.7430  139.8870 C   0  0  0  0  0  1  0  0  0  0  0  0
  179.9820  178.1100  142.4340 S   0  0  0  0  0  0  0  0  0  0  0  0
  1 12  1  6  0  0  0
  1 11  1  0  0  0  0
  1 10  1  0  0  0  0
  3  9  1  0  0  0  0
  4  7  1  0  0  0  0
  4  8  1  1  0  0  0
  5  3  1  0  0  0  0
  6  8  1  0  0  0  0
  7  2  1  1  0  0  0
  9 20  1  0  0  0  0
  9  7  1  0  0  0  0
 10  6  1  0  0  0  0
 11  5  1  6  0  0  0
 11  4  1  0  0  0  0
 13 14  2  0  0  0  0
 13 12  1  0  0  0  0
 15 14  1  0  0  0  0
 17 16  1  6  0  0  0
 17 13  1  0  0  0  0
 18 19  1  0  0  0  0
 19 17  1  0  0  0  0
 21 20  1  0  0  0  0
 23 26  2  0  0  0  0
 24 26  1  0  0  0  0
 24 28  1  0  0  0  0
 25 22  2  0  0  0  0
 25 21  1  0  0  0  0
 26 25  1  0  0  0  0
 27 24  1  0  0  0  0
 28 22  1  0  0  0  0
M  END
>  <MODEL>
2

>  <REMARK>
 VINA RESULT:      -7.6      2.766      4.644
  Name = 
  7 active torsions:
  status: ('A' for Active; 'I' for Inactive)
    1  A    between atoms: C_1  and  C_2
    2  A    between atoms: C_2  and  C_3
    3  A    between atoms: C_3  and  C_11
    4  A    between atoms: C_11  and  C_22
    5  A    between atoms: C_13  and  C_18
    6  A    between atoms: C_14  and  C_18
    7  A    between atoms: C_14  and  N_25
                            x       y       z     vdW  Elec       q    Type
                         _______ _______ _______ _____ _____    ______ ____

>  <TORSDO>
F 7

$$$$
=
 OpenBabel10272401463D

 28 30  0  0  1  0  0  0  0  0999 V2000
  188.2370  177.6830  145.6360 C   0  0  2  0  0  3  0  0  0  0  0  0
  183.6280  179.3890  144.8200 C   0  0  0  0  0  1  0  0  0  0  0  0
  186.0680  177.7360  142.4480 C   0  0  0  0  0  2  0  0  0  0  0  0
  185.9230  178.5030  145.2170 C   0  0  1  0  0  3  0  0  0  0  0  0
  187.3340  177.9350  143.2720 C   0  0  0  0  0  2  0  0  0  0  0  0
  186.9920  178.2950  147.4380 C   0  0  0  0  0  2  0  0  0  0  0  0
  184.6630  178.3710  144.3490 C   0  0  2  0  0  3  0  0  0  0  0  0
  185.6580  178.2250  146.6960 C   0  0  0  0  0  2  0  0  0  0  0  0
  184.9850  178.6070  142.9230 N   0  0  0  0  0  0  0  0  0  0  0  0
  187.8700  177.3100  146.9460 O   0  0  0  0  0  0  0  0  0  0  0  0
  187.0160  177.5660  144.7100 C   0  0  1  0  0  3  0  0  0  0  0  0
  189.3630  176.7740  145.1550 C   0  0  0  0  0  2  0  0  0  0  0  0
  190.3810  177.5440  144.3670 C   0  0  0  0  0  0  0  0  0  0  0  0
  190.5640  178.8430  144.6160 C   0  0  0  0  0  3  0  0  0  0  0  0
  191.4960  179.5700  143.9420 F   0  0  0  0  0  0  0  0  0  0  0  0
  191.8080  175.7020  143.9170 O   0  0  0  0  0  1  0  0  0  0  0  0
  191.2340  176.8400  143.3500 C   0  0  1  0  0  3  0  0  0  0  0  0
  190.3470  177.5180  141.2370 O   0  0  0  0  0  1  0  0  0  0  0  0
  190.4220  176.4460  142.1260 C   0  0  0  0  0  2  0  0  0  0  0  0
  183.8170  178.3900  142.0510 C   0  0  0  0  0  2  0  0  0  0  0  0
  184.1190  178.4560  140.5450 C   0  0  0  0  0  2  0  0  0  0  0  0
  181.8220  177.8200  139.7010 C   0  0  0  0  0  3  0  0  0  0  0  0
  183.5800  180.7850  138.8450 O   0  0  0  0  0  0  0  0  0  0  0  0
  181.5440  179.9240  138.2630 N   0  0  0  0  0  0  0  0  0  0  0  0
  182.8930  178.7190  139.7310 C   0  0  0  0  0  0  0  0  0  0  0  0
  182.7160  179.8720  138.9330 C   0  0  0  0  0  0  0  0  0  0  0  0
  181.0820  180.9720  137.3680 C   0  0  0  0  0  1  0  0  0  0  0  0
  180.7230  178.5450  138.6590 S   0  0  0  0  0  0  0  0  0  0  0  0
  1 12  1  6  0  0  0
  1 10  1  0  0  0  0
  3  9  1  0  0  0  0
  3  5  1  0  0  0  0
  4  8  1  1  0  0  0
  7  2  1  1  0  0  0
  7  4  1  0  0  0  0
  8  6  1  0  0  0  0
  9  7  1  0  0  0  0
 10  6  1  0  0  0  0
 11  5  1  6  0  0  0
 11  4  1  0  0  0  0
 11  1  1  0  0  0  0
 13 14  2  0  0  0  0
 13 12  1  0  0  0  0
 15 14  1  0  0  0  0
 17 16  1  1  0  0  0
 17 13  1  0  0  0  0
 18 19  1  0  0  0  0
 19 17  1  0  0  0  0
 20  9  1  0  0  0  0
 21 20  1  0  0  0  0
 22 25  2  0  0  0  0
 23 26  2  0  0  0  0
 24 28  1  0  0  0  0
 24 26  1  0  0  0  0
 25 21  1  0  0  0  0
 26 25  1  0  0  0  0
 27 24  1  0  0  0  0
 28 22  1  0  0  0  0
M  END
>  <MODEL>
3

>  <REMARK>
 VINA RESULT:      -7.5      2.176      2.683
  Name = 
  7 active torsions:
  status: ('A' for Active; 'I' for Inactive)
    1  A    between atoms: C_1  and  C_2
    2  A    between atoms: C_2  and  C_3
    3  A    between atoms: C_3  and  C_11
    4  A    between atoms: C_11  and  C_22
    5  A    between atoms: C_13  and  C_18
    6  A    between atoms: C_14  and  C_18
    7  A    between atoms: C_14  and  N_25
                            x       y       z     vdW  Elec       q    Type
                         _______ _______ _______ _____ _____    ______ ____

>  <TORSDO>
F 7

$$$$
=
 OpenBabel10272401463D

 28 30  0  0  1  0  0  0  0  0999 V2000
  183.8960  178.7220  144.6040 C   0  0  2  0  0  3  0  0  0  0  0  0
  188.5050  176.8400  144.7880 C   0  0  0  0  0  1  0  0  0  0  0  0
  186.6290  178.4110  141.9030 C   0  0  0  0  0  2  0  0  0  0  0  0
  186.2130  177.8140  144.6860 C   0  0  1  0  0  3  0  0  0  0  0  0
  185.2220  178.2980  142.4770 C   0  0  0  0  0  2  0  0  0  0  0  0
  184.7490  178.1890  146.6440 C   0  0  0  0  0  2  0  0  0  0  0  0
  187.6190  177.8560  144.0710 C   0  0  2  0  0  3  0  0  0  0  0  0
  186.2020  178.1760  146.1700 C   0  0  0  0  0  2  0  0  0  0  0  0
  187.5660  177.5410  142.6250 N   0  0  0  0  0  0  0  0  0  0  0  0
  184.0200  179.1650  145.9390 O   0  0  0  0  0  0  0  0  0  0  0  0
  185.2740  178.7480  143.9270 C   0  0  1  0  0  3  0  0  0  0  0  0
  182.9190  179.6310  143.8660 C   0  0  0  0  0  2  0  0  0  0  0  0
  181.6160  178.9320  143.6120 C   0  0  0  0  0  0  0  0  0  0  0  0
  181.1720  178.0250  144.4860 C   0  0  0  0  0  3  0  0  0  0  0  0
  179.9830  177.3890  144.3070 F   0  0  0  0  0  0  0  0  0  0  0  0
  180.3570  180.6230  142.5230 O   0  0  0  0  0  1  0  0  0  0  0  0
  180.7860  179.3000  142.4160 C   0  0  1  0  0  3  0  0  0  0  0  0
  181.9010  177.7780  140.9480 O   0  0  0  0  0  1  0  0  0  0  0  0
  181.5700  179.1220  141.1240 C   0  0  0  0  0  2  0  0  0  0  0  0
  188.8860  177.6690  141.9840 C   0  0  0  0  0  2  0  0  0  0  0  0
  188.9180  178.5990  140.7590 C   0  0  0  0  0  2  0  0  0  0  0  0
  190.6080  177.0920  139.6340 C   0  0  0  0  0  3  0  0  0  0  0  0
  187.9580  178.7950  137.9940 O   0  0  0  0  0  0  0  0  0  0  0  0
  189.6260  177.4010  137.2860 N   0  0  0  0  0  0  0  0  0  0  0  0
  189.4890  177.9270  139.5520 C   0  0  0  0  0  0  0  0  0  0  0  0
  188.9640  178.0800  138.2490 C   0  0  0  0  0  0  0  0  0  0  0  0
  189.3280  177.3650  135.8650 C   0  0  0  0  0  1  0  0  0  0  0  0
  190.8610  176.6060  138.0470 S   0  0  0  0  0  0  0  0  0  0  0  0
  1 12  1  6  0  0  0
  1 10  1  0  0  0  0
  3  5  1  0  0  0  0
  3  9  1  0  0  0  0
  4  8  1  1  0  0  0
  7  4  1  0  0  0  0
  7  2  1  1  0  0  0
  8  6  1  0  0  0  0
  9  7  1  0  0  0  0
 10  6  1  0  0  0  0
 11  5  1  6  0  0  0
 11  1  1  0  0  0  0
 11  4  1  0  0  0  0
 13 12  1  0  0  0  0
 13 14  2  0  0  0  0
 15 14  1  0  0  0  0
 17 16  1  1  0  0  0
 17 13  1  0  0  0  0
 18 19  1  0  0  0  0
 19 17  1  0  0  0  0
 20  9  1  0  0  0  0
 21 20  1  0  0  0  0
 23 26  2  0  0  0  0
 24 28  1  0  0  0  0
 24 26  1  0  0  0  0
 25 22  2  0  0  0  0
 25 21  1  0  0  0  0
 26 25  1  0  0  0  0
 27 24  1  0  0  0  0
 28 22  1  0  0  0  0
M  END
>  <MODEL>
4

>  <REMARK>
 VINA RESULT:      -7.4      4.084      6.664
  Name = 
  7 active torsions:
  status: ('A' for Active; 'I' for Inactive)
    1  A    between atoms: C_1  and  C_2
    2  A    between atoms: C_2  and  C_3
    3  A    between atoms: C_3  and  C_11
    4  A    between atoms: C_11  and  C_22
    5  A    between atoms: C_13  and  C_18
    6  A    between atoms: C_14  and  C_18
    7  A    between atoms: C_14  and  N_25
                            x       y       z     vdW  Elec       q    Type
                         _______ _______ _______ _____ _____    ______ ____

>  <TORSDO>
F 7

$$$$
=
 OpenBabel10272401463D

 28 30  0  0  1  0  0  0  0  0999 V2000
  187.9040  177.7410  144.8690 C   0  0  2  0  0  3  0  0  0  0  0  0
  183.2380  179.4510  144.5080 C   0  0  0  0  0  1  0  0  0  0  0  0
  185.5270  178.0380  141.8470 C   0  0  0  0  0  2  0  0  0  0  0  0
  185.5610  178.5630  144.6760 C   0  0  1  0  0  3  0  0  0  0  0  0
  186.8430  178.1820  142.6000 C   0  0  0  0  0  2  0  0  0  0  0  0
  186.7770  178.1790  146.7950 C   0  0  0  0  0  2  0  0  0  0  0  0
  184.2470  178.4900  143.8840 C   0  0  2  0  0  3  0  0  0  0  0  0
  185.3970  178.1560  146.1390 C   0  0  0  0  0  2  0  0  0  0  0  0
  184.4720  178.8510  142.4660 N   0  0  0  0  0  0  0  0  0  0  0  0
  187.6270  177.2520  146.1640 O   0  0  0  0  0  0  0  0  0  0  0  0
  186.6250  177.6870  144.0190 C   0  0  1  0  0  3  0  0  0  0  0  0
  189.0010  176.8900  144.2380 C   0  0  0  0  0  2  0  0  0  0  0  0
  190.1490  177.7410  143.7810 C   0  0  0  0  0  0  0  0  0  0  0  0
  190.4800  178.8330  144.4750 C   0  0  0  0  0  3  0  0  0  0  0  0
  191.5300  179.6150  144.1080 F   0  0  0  0  0  0  0  0  0  0  0  0
  191.9860  176.4690  142.9800 O   0  0  0  0  0  1  0  0  0  0  0  0
  190.9600  177.3290  142.5860 C   0  0  1  0  0  3  0  0  0  0  0  0
  189.6540  177.5760  140.6000 O   0  0  0  0  0  1  0  0  0  0  0  0
  190.0950  176.6430  141.5390 C   0  0  0  0  0  2  0  0  0  0  0  0
  183.2500  178.6960  141.6570 C   0  0  0  0  0  2  0  0  0  0  0  0
  183.4450  177.9290  140.3390 C   0  0  0  0  0  2  0  0  0  0  0  0
  180.9670  177.4380  140.4510 C   0  0  0  0  0  3  0  0  0  0  0  0
  183.3510  175.5770  138.5870 O   0  0  0  0  0  0  0  0  0  0  0  0
  181.0940  175.3970  138.9040 N   0  0  0  0  0  0  0  0  0  0  0  0
  182.2420  177.1250  139.9660 C   0  0  0  0  0  0  0  0  0  0  0  0
  182.2860  175.9980  139.1140 C   0  0  0  0  0  0  0  0  0  0  0  0
  180.8250  174.2260  138.0870 C   0  0  0  0  0  1  0  0  0  0  0  0
  179.9820  176.2610  139.7710 S   0  0  0  0  0  0  0  0  0  0  0  0
  1 12  1  6  0  0  0
  1 10  1  0  0  0  0
  3  9  1  0  0  0  0
  3  5  1  0  0  0  0
  4  8  1  1  0  0  0
  7  2  1  1  0  0  0
  7  4  1  0  0  0  0
  8  6  1  0  0  0  0
  9  7  1  0  0  0  0
 10  6  1  0  0  0  0
 11  5  1  6  0  0  0
 11  4  1  0  0  0  0
 11  1  1  0  0  0  0
 13 12  1  0  0  0  0
 13 14  2  0  0  0  0
 15 14  1  0  0  0  0
 17 16  1  1  0  0  0
 17 13  1  0  0  0  0
 18 19  1  0  0  0  0
 19 17  1  0  0  0  0
 20  9  1  0  0  0  0
 21 20  1  0  0  0  0
 23 26  2  0  0  0  0
 24 26  1  0  0  0  0
 24 28  1  0  0  0  0
 25 21  1  0  0  0  0
 25 22  2  0  0  0  0
 26 25  1  0  0  0  0
 27 24  1  0  0  0  0
 28 22  1  0  0  0  0
M  END
>  <MODEL>
5

>  <REMARK>
 VINA RESULT:      -7.3      2.284      2.954
  Name = 
  7 active torsions:
  status: ('A' for Active; 'I' for Inactive)
    1  A    between atoms: C_1  and  C_2
    2  A    between atoms: C_2  and  C_3
    3  A    between atoms: C_3  and  C_11
    4  A    between atoms: C_11  and  C_22
    5  A    between atoms: C_13  and  C_18
    6  A    between atoms: C_14  and  C_18
    7  A    between atoms: C_14  and  N_25
                            x       y       z     vdW  Elec       q    Type
                         _______ _______ _______ _____ _____    ______ ____

>  <TORSDO>
F 7

$$$$
=
 OpenBabel10272401463D

 28 30  0  0  1  0  0  0  0  0999 V2000
  189.6940  177.5050  146.4240 C   0  0  2  0  0  3  0  0  0  0  0  0
  184.9260  178.9160  146.7330 C   0  0  0  0  0  1  0  0  0  0  0  0
  186.8820  177.5690  143.7880 C   0  0  0  0  0  2  0  0  0  0  0  0
  187.3010  178.1770  146.5680 C   0  0  1  0  0  3  0  0  0  0  0  0
  188.2830  177.8150  144.3320 C   0  0  0  0  0  2  0  0  0  0  0  0
  188.8400  177.9300  148.4880 C   0  0  0  0  0  2  0  0  0  0  0  0
  185.8910  178.0010  145.9840 C   0  0  2  0  0  3  0  0  0  0  0  0
  187.3820  177.8030  148.0470 C   0  0  0  0  0  2  0  0  0  0  0  0
  185.8800  178.3340  144.5410 N   0  0  0  0  0  0  0  0  0  0  0  0
  189.6450  177.0380  147.7550 O   0  0  0  0  0  0  0  0  0  0  0  0
  188.3100  177.3490  145.7770 C   0  0  1  0  0  3  0  0  0  0  0  0
  190.7390  176.7050  145.6540 C   0  0  0  0  0  2  0  0  0  0  0  0
  191.2810  177.4940  144.4980 C   0  0  0  0  0  0  0  0  0  0  0  0
  191.5230  178.7990  144.6460 C   0  0  0  0  0  3  0  0  0  0  0  0
  192.0390  179.5440  143.6310 F   0  0  0  0  0  0  0  0  0  0  0  0
  191.3120  175.4440  143.3030 O   0  0  0  0  0  1  0  0  0  0  0  0
  191.6080  176.8040  143.2050 C   0  0  1  0  0  3  0  0  0  0  0  0
  189.9640  176.4650  141.5030 O   0  0  0  0  0  1  0  0  0  0  0  0
  190.8350  177.4110  142.0430 C   0  0  0  0  0  2  0  0  0  0  0  0
  184.5640  178.0800  143.9280 C   0  0  0  0  0  2  0  0  0  0  0  0
  184.0920  179.1670  142.9480 C   0  0  0  0  0  2  0  0  0  0  0  0
  182.7460  177.9090  141.2160 C   0  0  0  0  0  3  0  0  0  0  0  0
  185.9000  179.4420  140.6540 O   0  0  0  0  0  0  0  0  0  0  0  0
  184.4600  178.2480  139.3400 N   0  0  0  0  0  0  0  0  0  0  0  0
  183.8890  178.6360  141.5660 C   0  0  0  0  0  0  0  0  0  0  0  0
  184.8180  178.8110  140.5150 C   0  0  0  0  0  0  0  0  0  0  0  0
  185.2040  178.2560  138.0910 C   0  0  0  0  0  1  0  0  0  0  0  0
  182.9910  177.5330  139.5990 S   0  0  0  0  0  0  0  0  0  0  0  0
  1 12  1  6  0  0  0
  1 10  1  0  0  0  0
  3  5  1  0  0  0  0
  3  9  1  0  0  0  0
  4  8  1  1  0  0  0
  7  4  1  0  0  0  0
  7  2  1  1  0  0  0
  8  6  1  0  0  0  0
  9  7  1  0  0  0  0
 10  6  1  0  0  0  0
 11  5  1  6  0  0  0
 11  1  1  0  0  0  0
 11  4  1  0  0  0  0
 13 14  2  0  0  0  0
 13 12  1  0  0  0  0
 15 14  1  0  0  0  0
 17 16  1  1  0  0  0
 17 13  1  0  0  0  0
 18 19  1  0  0  0  0
 19 17  1  0  0  0  0
 20  9  1  0  0  0  0
 21 20  1  0  0  0  0
 22 25  2  0  0  0  0
 24 28  1  0  0  0  0
 24 26  1  0  0  0  0
 25 21  1  0  0  0  0
 26 23  2  0  0  0  0
 26 25  1  0  0  0  0
 27 24  1  0  0  0  0
 28 22  1  0  0  0  0
M  END
>  <MODEL>
6

>  <REMARK>
 VINA RESULT:      -7.3      1.988      2.873
  Name = 
  7 active torsions:
  status: ('A' for Active; 'I' for Inactive)
    1  A    between atoms: C_1  and  C_2
    2  A    between atoms: C_2  and  C_3
    3  A    between atoms: C_3  and  C_11
    4  A    between atoms: C_11  and  C_22
    5  A    between atoms: C_13  and  C_18
    6  A    between atoms: C_14  and  C_18
    7  A    between atoms: C_14  and  N_25
                            x       y       z     vdW  Elec       q    Type
                         _______ _______ _______ _____ _____    ______ ____

>  <TORSDO>
F 7

$$$$
=
 OpenBabel10272401463D

 28 30  0  0  1  0  0  0  0  0999 V2000
  187.9230  177.7290  143.0150 C   0  0  2  0  0  3  0  0  0  0  0  0
  188.9620  178.7420  138.2490 C   0  0  0  0  0  1  0  0  0  0  0  0
  190.7950  176.5510  140.7290 C   0  0  0  0  0  2  0  0  0  0  0  0
  188.4400  178.2000  140.6250 C   0  0  1  0  0  3  0  0  0  0  0  0
  190.1710  177.1020  142.0040 C   0  0  0  0  0  2  0  0  0  0  0  0
  186.3530  178.8310  141.7930 C   0  0  0  0  0  2  0  0  0  0  0  0
  189.1300  177.6970  139.3490 C   0  0  2  0  0  3  0  0  0  0  0  0
  186.9400  178.4230  140.4420 C   0  0  0  0  0  2  0  0  0  0  0  0
  190.5710  177.4560  139.5940 N   0  0  0  0  0  0  0  0  0  0  0  0
  186.5420  177.8000  142.7320 O   0  0  0  0  0  0  0  0  0  0  0  0
  188.6740  177.2230  141.7740 C   0  0  1  0  0  3  0  0  0  0  0  0
  188.1430  176.7890  144.1950 C   0  0  0  0  0  2  0  0  0  0  0  0
  188.0630  177.5280  145.4990 C   0  0  0  0  0  0  0  0  0  0  0  0
  186.8940  178.0380  145.8970 C   0  0  0  0  0  3  0  0  0  0  0  0
  186.7740  178.6910  147.0840 F   0  0  0  0  0  0  0  0  0  0  0  0
  189.1540  176.7680  147.4640 O   0  0  0  0  0  1  0  0  0  0  0  0
  189.2760  177.6360  146.3780 C   0  0  1  0  0  3  0  0  0  0  0  0
  191.5570  176.9330  146.4910 O   0  0  0  0  0  1  0  0  0  0  0  0
  190.5470  177.3130  145.6070 C   0  0  0  0  0  2  0  0  0  0  0  0
  191.2410  176.8780  138.4170 C   0  0  0  0  0  2  0  0  0  0  0  0
  192.7690  176.7510  138.5450 C   0  0  0  0  0  2  0  0  0  0  0  0
  192.7940  175.8060  136.2000 C   0  0  0  0  0  3  0  0  0  0  0  0
  195.1440  175.0410  138.7510 O   0  0  0  0  0  0  0  0  0  0  0  0
  194.8820  174.3680  136.5810 N   0  0  0  0  0  0  0  0  0  0  0  0
  193.3580  175.8870  137.4770 C   0  0  0  0  0  0  0  0  0  0  0  0
  194.5090  175.0880  137.6630 C   0  0  0  0  0  0  0  0  0  0  0  0
  196.0100  173.4600  136.4690 C   0  0  0  0  0  1  0  0  0  0  0  0
  193.7890  174.7230  135.3920 S   0  0  0  0  0  0  0  0  0  0  0  0
  1 12  1  1  0  0  0
  3  5  1  0  0  0  0
  4  8  1  6  0  0  0
  4 11  1  0  0  0  0
  6 10  1  0  0  0  0
  7  2  1  6  0  0  0
  7  9  1  0  0  0  0
  7  4  1  0  0  0  0
  8  6  1  0  0  0  0
  9  3  1  0  0  0  0
 10  1  1  0  0  0  0
 11  5  1  1  0  0  0
 11  1  1  0  0  0  0
 12 13  1  0  0  0  0
 13 14  2  0  0  0  0
 13 17  1  0  0  0  0
 14 15  1  0  0  0  0
 17 16  1  1  0  0  0
 19 17  1  0  0  0  0
 19 18  1  0  0  0  0
 20 21  1  0  0  0  0
 20  9  1  0  0  0  0
 22 25  2  0  0  0  0
 24 26  1  0  0  0  0
 25 26  1  0  0  0  0
 25 21  1  0  0  0  0
 26 23  2  0  0  0  0
 27 24  1  0  0  0  0
 28 22  1  0  0  0  0
 28 24  1  0  0  0  0
M  END
>  <MODEL>
7

>  <REMARK>
 VINA RESULT:      -7.1      5.358      6.685
  Name = 
  7 active torsions:
  status: ('A' for Active; 'I' for Inactive)
    1  A    between atoms: C_1  and  C_2
    2  A    between atoms: C_2  and  C_3
    3  A    between atoms: C_3  and  C_11
    4  A    between atoms: C_11  and  C_22
    5  A    between atoms: C_13  and  C_18
    6  A    between atoms: C_14  and  C_18
    7  A    between atoms: C_14  and  N_25
                            x       y       z     vdW  Elec       q    Type
                         _______ _______ _______ _____ _____    ______ ____

>  <TORSDO>
F 7

$$$$
=
 OpenBabel10272401463D

 28 30  0  0  1  0  0  0  0  0999 V2000
  185.8500  178.1830  143.4160 C   0  0  2  0  0  3  0  0  0  0  0  0
  190.3060  175.9790  143.0900 C   0  0  0  0  0  1  0  0  0  0  0  0
  188.4740  178.1490  140.5910 C   0  0  0  0  0  2  0  0  0  0  0  0
  188.0930  177.1140  143.2480 C   0  0  1  0  0  3  0  0  0  0  0  0
  187.0800  178.0390  141.1950 C   0  0  0  0  0  2  0  0  0  0  0  0
  186.7180  177.2500  145.3000 C   0  0  0  0  0  2  0  0  0  0  0  0
  189.4810  177.1620  142.5910 C   0  0  2  0  0  3  0  0  0  0  0  0
  188.1520  177.2160  144.7710 C   0  0  0  0  0  2  0  0  0  0  0  0
  189.3620  177.1040  141.1160 N   0  0  0  0  0  0  0  0  0  0  0  0
  186.0470  178.3810  144.8000 O   0  0  0  0  0  0  0  0  0  0  0  0
  187.2070  178.2280  142.6970 C   0  0  1  0  0  3  0  0  0  0  0  0
  184.9250  179.2720  142.8830 C   0  0  0  0  0  2  0  0  0  0  0  0
  183.4870  178.8520  142.9730 C   0  0  0  0  0  0  0  0  0  0  0  0
  182.8740  178.8500  144.1600 C   0  0  0  0  0  3  0  0  0  0  0  0
  181.5640  178.5020  144.2800 F   0  0  0  0  0  0  0  0  0  0  0  0
  181.6260  179.3450  141.5860 O   0  0  0  0  0  1  0  0  0  0  0  0
  182.7280  178.5000  141.7270 C   0  0  1  0  0  3  0  0  0  0  0  0
  183.4850  177.4520  139.7170 O   0  0  0  0  0  1  0  0  0  0  0  0
  183.6110  178.6040  140.4930 C   0  0  0  0  0  2  0  0  0  0  0  0
  190.6700  177.2480  140.4530 C   0  0  0  0  0  2  0  0  0  0  0  0
  190.6000  177.4100  138.9250 C   0  0  0  0  0  2  0  0  0  0  0  0
  190.3630  175.2180  137.6870 C   0  0  0  0  0  3  0  0  0  0  0  0
  193.4310  176.8640  138.3850 O   0  0  0  0  0  0  0  0  0  0  0  0
  192.8820  174.9150  137.3240 N   0  0  0  0  0  0  0  0  0  0  0  0
  191.1740  176.2340  138.2030 C   0  0  0  0  0  0  0  0  0  0  0  0
  192.5580  176.0460  137.9890 C   0  0  0  0  0  0  0  0  0  0  0  0
  194.2110  174.4510  136.9620 C   0  0  0  0  0  1  0  0  0  0  0  0
  191.4550  174.1460  136.9980 S   0  0  0  0  0  0  0  0  0  0  0  0
  1 12  1  6  0  0  0
  1 10  1  0  0  0  0
  3  9  1  0  0  0  0
  3  5  1  0  0  0  0
  4  8  1  1  0  0  0
  7  2  1  1  0  0  0
  7  4  1  0  0  0  0
  8  6  1  0  0  0  0
  9  7  1  0  0  0  0
 10  6  1  0  0  0  0
 11  5  1  6  0  0  0
 11  4  1  0  0  0  0
 11  1  1  0  0  0  0
 12 13  1  0  0  0  0
 13 14  2  0  0  0  0
 14 15  1  0  0  0  0
 17 16  1  6  0  0  0
 17 13  1  0  0  0  0
 18 19  1  0  0  0  0
 19 17  1  0  0  0  0
 20  9  1  0  0  0  0
 21 20  1  0  0  0  0
 22 25  2  0  0  0  0
 24 26  1  0  0  0  0
 25 21  1  0  0  0  0
 26 25  1  0  0  0  0
 26 23  2  0  0  0  0
 27 24  1  0  0  0  0
 28 24  1  0  0  0  0
 28 22  1  0  0  0  0
M  END
>  <MODEL>
8

>  <REMARK>
 VINA RESULT:      -6.8      4.636      7.061
  Name = 
  7 active torsions:
  status: ('A' for Active; 'I' for Inactive)
    1  A    between atoms: C_1  and  C_2
    2  A    between atoms: C_2  and  C_3
    3  A    between atoms: C_3  and  C_11
    4  A    between atoms: C_11  and  C_22
    5  A    between atoms: C_13  and  C_18
    6  A    between atoms: C_14  and  C_18
    7  A    between atoms: C_14  and  N_25
                            x       y       z     vdW  Elec       q    Type
                         _______ _______ _______ _____ _____    ______ ____

>  <TORSDO>
F 7

$$$$
=
 OpenBabel10272401463D

 28 30  0  0  1  0  0  0  0  0999 V2000
  189.5650  177.5280  144.0520 C   0  0  2  0  0  3  0  0  0  0  0  0
  190.7580  176.5390  139.3180 C   0  0  0  0  0  1  0  0  0  0  0  0
  187.8340  178.4730  140.7390 C   0  0  0  0  0  2  0  0  0  0  0  0
  190.1630  177.0700  141.6790 C   0  0  1  0  0  3  0  0  0  0  0  0
  187.9100  177.9540  142.1690 C   0  0  0  0  0  2  0  0  0  0  0  0
  191.6080  176.6210  143.6360 C   0  0  0  0  0  2  0  0  0  0  0  0
  190.0340  177.5340  140.2210 C   0  0  2  0  0  3  0  0  0  0  0  0
  191.6130  177.0020  142.1550 C   0  0  0  0  0  2  0  0  0  0  0  0
  188.6090  177.6240  139.8260 N   0  0  0  0  0  0  0  0  0  0  0  0
  190.9340  177.6030  144.3850 O   0  0  0  0  0  0  0  0  0  0  0  0
  189.3650  177.9900  142.6010 C   0  0  1  0  0  3  0  0  0  0  0  0
  188.7700  178.4120  145.0080 C   0  0  0  0  0  2  0  0  0  0  0  0
  188.1890  177.6060  146.1330 C   0  0  0  0  0  0  0  0  0  0  0  0
  189.0000  176.9140  146.9370 C   0  0  0  0  0  3  0  0  0  0  0  0
  188.5150  176.1930  147.9840 F   0  0  0  0  0  0  0  0  0  0  0  0
  186.4280  178.4770  147.4630 O   0  0  0  0  0  1  0  0  0  0  0  0
  186.7100  177.6320  146.3900 C   0  0  1  0  0  3  0  0  0  0  0  0
  185.1170  179.1720  145.4910 O   0  0  0  0  0  1  0  0  0  0  0  0
  185.9430  178.0970  145.1610 C   0  0  0  0  0  2  0  0  0  0  0  0
  188.4480  178.1620  138.4640 C   0  0  0  0  0  2  0  0  0  0  0  0
  187.4260  177.4110  137.5940 C   0  0  0  0  0  2  0  0  0  0  0  0
  189.1340  176.7240  135.8610 C   0  0  0  0  0  3  0  0  0  0  0  0
  186.7300  174.5720  137.3450 O   0  0  0  0  0  0  0  0  0  0  0  0
  188.3690  174.2790  135.7780 N   0  0  0  0  0  0  0  0  0  0  0  0
  188.0720  176.3950  136.7090 C   0  0  0  0  0  0  0  0  0  0  0  0
  187.6690  175.0410  136.6480 C   0  0  0  0  0  0  0  0  0  0  0  0
  188.1870  172.8650  135.4950 C   0  0  0  0  0  1  0  0  0  0  0  0
  189.4900  175.2780  135.0860 S   0  0  0  0  0  0  0  0  0  0  0  0
  1 10  1  0  0  0  0
  1 12  1  1  0  0  0
  3  5  1  0  0  0  0
  4  8  1  1  0  0  0
  4 11  1  0  0  0  0
  6 10  1  0  0  0  0
  7  2  1  6  0  0  0
  7  4  1  0  0  0  0
  8  6  1  0  0  0  0
  9  7  1  0  0  0  0
  9  3  1  0  0  0  0
 11  5  1  6  0  0  0
 11  1  1  0  0  0  0
 12 13  1  0  0  0  0
 13 17  1  0  0  0  0
 13 14  2  0  0  0  0
 14 15  1  0  0  0  0
 17 16  1  1  0  0  0
 19 18  1  0  0  0  0
 19 17  1  0  0  0  0
 20  9  1  0  0  0  0
 21 20  1  0  0  0  0
 22 25  2  0  0  0  0
 24 26  1  0  0  0  0
 25 21  1  0  0  0  0
 26 25  1  0  0  0  0
 26 23  2  0  0  0  0
 27 24  1  0  0  0  0
 28 24  1  0  0  0  0
 28 22  1  0  0  0  0
M  END
>  <MODEL>
9

>  <REMARK>
 VINA RESULT:      -6.8      3.234      5.290
  Name = 
  7 active torsions:
  status: ('A' for Active; 'I' for Inactive)
    1  A    between atoms: C_1  and  C_2
    2  A    between atoms: C_2  and  C_3
    3  A    between atoms: C_3  and  C_11
    4  A    between atoms: C_11  and  C_22
    5  A    between atoms: C_13  and  C_18
    6  A    between atoms: C_14  and  C_18
    7  A    between atoms: C_14  and  N_25
                            x       y       z     vdW  Elec       q    Type
                         _______ _______ _______ _____ _____    ______ ____

>  <TORSDO>
F 7

$$$$
