=
 OpenBabel10272400543D

 25 27  0  0  1  0  0  0  0  0999 V2000
  189.3480  177.2540  143.5980 C   0  0  1  0  0  0  0  0  0  0  0  0
  189.4870  177.3250  145.1050 C   0  0  0  0  0  0  0  0  0  0  0  0
  191.5750  176.3650  143.3510 C   0  0  0  0  0  2  0  0  0  0  0  0
  188.5110  178.3710  142.9660 C   0  0  0  0  0  2  0  0  0  0  0  0
  190.4220  176.5870  140.7270 C   0  0  0  0  0  1  0  0  0  0  0  0
  191.8430  176.3520  144.8640 C   0  0  0  0  0  2  0  0  0  0  0  0
  189.1980  178.6650  141.6350 C   0  0  2  0  0  3  0  0  0  0  0  0
  188.2530  178.4190  140.4670 C   0  0  0  0  0  1  0  0  0  0  0  0
  190.7530  176.8130  147.1120 C   0  0  0  0  0  0  0  0  0  0  0  0
  191.9720  176.3120  147.8090 C   0  0  0  0  0  1  0  0  0  0  0  0
  188.4410  177.7880  145.9110 C   0  0  0  0  0  3  0  0  0  0  0  0
  190.6800  177.4800  143.0420 N   0  0  1  0  0  0  0  0  0  0  0  0
  190.4880  177.8250  141.6340 C   0  0  1  0  0  3  0  0  0  0  0  0
  189.7190  177.2830  147.8600 N   0  0  0  0  0  0  0  0  0  0  0  0
  188.5770  177.7610  147.2970 C   0  0  0  0  0  0  0  0  0  0  0  0
  190.6620  176.8140  145.7080 C   0  0  0  0  0  0  0  0  0  0  0  0
  188.8710  175.9730  143.1950 O   0  0  0  0  0  0  0  0  0  0  0  0
  187.4760  175.8970  143.3570 C   0  0  0  0  0  1  0  0  0  0  0  0
  187.4830  178.2780  148.1610 C   0  0  0  0  0  2  0  0  0  0  0  0
  186.5600  179.1710  147.3510 C   0  0  0  0  0  2  0  0  0  0  0  0
  185.2940  178.4200  146.9650 C   0  0  0  0  0  2  0  0  0  0  0  0
  184.8270  178.7630  145.5540 C   0  0  0  0  0  0  0  0  0  0  0  0
  185.3980  179.9610  145.1730 F   0  0  0  0  0  0  0  0  0  0  0  0
  185.2160  177.7780  144.6650 F   0  0  0  0  0  0  0  0  0  0  0  0
  183.4500  178.8920  145.5270 F   0  0  0  0  0  0  0  0  0  0  0  0
  1 17  1  6  0  0  0
  1  2  1  0  0  0  0
  2 16  2  0  0  0  0
  2 11  1  0  0  0  0
  3  6  1  0  0  0  0
  4  1  1  0  0  0  0
  6 16  1  0  0  0  0
  7  8  1  6  0  0  0
  7  4  1  0  0  0  0
  9 10  1  0  0  0  0
  9 14  2  0  0  0  0
 11 15  2  0  0  0  0
 12  3  1  6  0  0  0
 12  1  1  0  0  0  0
 13  5  1  6  0  0  0
 13  7  1  0  0  0  0
 13 12  1  0  0  0  0
 15 14  1  0  0  0  0
 15 19  1  0  0  0  0
 16  9  1  0  0  0  0
 17 18  1  0  0  0  0
 20 19  1  0  0  0  0
 21 20  1  0  0  0  0
 22 21  1  0  0  0  0
 23 22  1  0  0  0  0
 24 22  1  0  0  0  0
 25 22  1  0  0  0  0
M  END
>  <MODEL>
1

>  <REMARK>
 VINA RESULT:      -7.7      0.000      0.000
  Name = 
  5 active torsions:
  status: ('A' for Active; 'I' for Inactive)
    1  A    between atoms: C_1  and  O_17
    2  A    between atoms: C_2  and  C_21
    3  A    between atoms: C_6  and  C_15
    4  A    between atoms: C_6  and  C_23
    5  A    between atoms: C_15  and  C_21
                            x       y       z     vdW  Elec       q    Type
                         _______ _______ _______ _____ _____    ______ ____

>  <TORSDO>
F 5

$$$$
=
 OpenBabel10272400543D

 25 27  0  0  1  0  0  0  0  0999 V2000
  188.9670  177.6250  142.9260 C   0  0  1  0  0  0  0  0  0  0  0  0
  187.5040  178.0030  143.0500 C   0  0  0  0  0  0  0  0  0  0  0  0
  188.9200  177.9010  140.5310 C   0  0  0  0  0  2  0  0  0  0  0  0
  189.4560  176.5700  143.9230 C   0  0  0  0  0  2  0  0  0  0  0  0
  191.5840  177.1160  141.2730 C   0  0  0  0  0  1  0  0  0  0  0  0
  187.4450  178.3310  140.5110 C   0  0  0  0  0  2  0  0  0  0  0  0
  190.4660  175.7360  143.1390 C   0  0  2  0  0  3  0  0  0  0  0  0
  191.8420  175.7970  143.7870 C   0  0  0  0  0  1  0  0  0  0  0  0
  185.4690  178.8380  142.0260 C   0  0  0  0  0  0  0  0  0  0  0  0
  184.6680  179.2640  140.8420 C   0  0  0  0  0  1  0  0  0  0  0  0
  186.8680  178.0480  144.2950 C   0  0  0  0  0  3  0  0  0  0  0  0
  189.1200  176.9600  141.6340 N   0  0  1  0  0  0  0  0  0  0  0  0
  190.3920  176.2410  141.6880 C   0  0  1  0  0  3  0  0  0  0  0  0
  184.8820  178.8560  143.2520 N   0  0  0  0  0  0  0  0  0  0  0  0
  185.5460  178.4790  144.3770 C   0  0  0  0  0  0  0  0  0  0  0  0
  186.8040  178.4170  141.8910 C   0  0  0  0  0  0  0  0  0  0  0  0
  189.7930  178.7860  142.9690 O   0  0  0  0  0  0  0  0  0  0  0  0
  190.3360  178.9510  144.2560 C   0  0  0  0  0  1  0  0  0  0  0  0
  184.8520  178.5020  145.6920 C   0  0  0  0  0  2  0  0  0  0  0  0
  185.6660  177.7380  146.7230 C   0  0  0  0  0  2  0  0  0  0  0  0
  186.5670  178.6860  147.5010 C   0  0  0  0  0  2  0  0  0  0  0  0
  187.8650  178.0170  147.9400 C   0  0  0  0  0  0  0  0  0  0  0  0
  188.9070  178.5270  147.1910 F   0  0  0  0  0  0  0  0  0  0  0  0
  188.1090  178.2690  149.2770 F   0  0  0  0  0  0  0  0  0  0  0  0
  187.7890  176.6510  147.7340 F   0  0  0  0  0  0  0  0  0  0  0  0
  1 17  1  1  0  0  0
  1  2  1  0  0  0  0
  1  4  1  0  0  0  0
  2 11  1  0  0  0  0
  6  3  1  0  0  0  0
  6 16  1  0  0  0  0
  7  8  1  1  0  0  0
  7  4  1  0  0  0  0
  9 14  2  0  0  0  0
 10  9  1  0  0  0  0
 11 15  2  0  0  0  0
 12  3  1  6  0  0  0
 12 13  1  0  0  0  0
 12  1  1  0  0  0  0
 13  5  1  1  0  0  0
 13  7  1  0  0  0  0
 14 15  1  0  0  0  0
 15 19  1  0  0  0  0
 16  9  1  0  0  0  0
 16  2  2  0  0  0  0
 17 18  1  0  0  0  0
 19 20  1  0  0  0  0
 20 21  1  0  0  0  0
 21 22  1  0  0  0  0
 22 24  1  0  0  0  0
 23 22  1  0  0  0  0
 25 22  1  0  0  0  0
M  END
>  <MODEL>
2

>  <REMARK>
 VINA RESULT:      -7.6      2.615      4.627
  Name = 
  5 active torsions:
  status: ('A' for Active; 'I' for Inactive)
    1  A    between atoms: C_1  and  O_17
    2  A    between atoms: C_2  and  C_21
    3  A    between atoms: C_6  and  C_15
    4  A    between atoms: C_6  and  C_23
    5  A    between atoms: C_15  and  C_21
                            x       y       z     vdW  Elec       q    Type
                         _______ _______ _______ _____ _____    ______ ____

>  <TORSDO>
F 5

$$$$
=
 OpenBabel10272400543D

 25 27  0  0  1  0  0  0  0  0999 V2000
  189.2400  177.4040  144.3410 C   0  0  1  0  0  0  0  0  0  0  0  0
  188.2230  177.8160  145.3870 C   0  0  0  0  0  0  0  0  0  0  0  0
  190.9060  176.9460  146.0220 C   0  0  0  0  0  2  0  0  0  0  0  0
  189.1640  178.1730  143.0180 C   0  0  0  0  0  2  0  0  0  0  0  0
  192.0690  176.3790  143.4550 C   0  0  0  0  0  1  0  0  0  0  0  0
  189.9710  177.3040  147.1870 C   0  0  0  0  0  2  0  0  0  0  0  0
  190.6160  178.3130  142.5680 C   0  0  2  0  0  3  0  0  0  0  0  0
  190.8350  177.6430  141.2180 C   0  0  0  0  0  1  0  0  0  0  0  0
  187.5860  177.9990  147.7220 C   0  0  0  0  0  0  0  0  0  0  0  0
  187.8840  177.9100  149.1800 C   0  0  0  0  0  1  0  0  0  0  0  0
  186.9330  178.2180  145.0270 C   0  0  0  0  0  3  0  0  0  0  0  0
  190.5540  177.7700  144.8660 N   0  0  1  0  0  0  0  0  0  0  0  0
  191.4700  177.7660  143.7260 C   0  0  1  0  0  3  0  0  0  0  0  0
  186.3460  178.3990  147.3320 N   0  0  0  0  0  0  0  0  0  0  0  0
  186.0010  178.5100  146.0210 C   0  0  0  0  0  0  0  0  0  0  0  0
  188.5610  177.6870  146.7560 C   0  0  0  0  0  0  0  0  0  0  0  0
  189.1890  175.9970  144.1140 O   0  0  0  0  0  0  0  0  0  0  0  0
  188.3020  175.7040  143.0630 C   0  0  0  0  0  1  0  0  0  0  0  0
  184.6360  178.9670  145.6490 C   0  0  0  0  0  2  0  0  0  0  0  0
  184.6440  179.5350  144.2410 C   0  0  0  0  0  2  0  0  0  0  0  0
  183.7940  178.6760  143.3140 C   0  0  0  0  0  2  0  0  0  0  0  0
  184.5210  178.3340  142.0180 C   0  0  0  0  0  0  0  0  0  0  0  0
  183.7120  177.5160  141.2540 F   0  0  0  0  0  0  0  0  0  0  0  0
  184.8000  179.4840  141.3030 F   0  0  0  0  0  0  0  0  0  0  0  0
  185.7010  177.6670  142.2960 F   0  0  0  0  0  0  0  0  0  0  0  0
  1 17  1  6  0  0  0
  1 12  1  0  0  0  0
  1  2  1  0  0  0  0
  2 16  1  0  0  0  0
  3  6  1  0  0  0  0
  4  1  1  0  0  0  0
  7  8  1  6  0  0  0
  7  4  1  0  0  0  0
  7 13  1  0  0  0  0
  9 10  1  0  0  0  0
 11  2  2  0  0  0  0
 11 15  1  0  0  0  0
 12  3  1  1  0  0  0
 13  5  1  6  0  0  0
 13 12  1  0  0  0  0
 14  9  1  0  0  0  0
 15 14  2  0  0  0  0
 16  6  1  0  0  0  0
 16  9  2  0  0  0  0
 18 17  1  0  0  0  0
 19 15  1  0  0  0  0
 20 19  1  0  0  0  0
 21 20  1  0  0  0  0
 22 25  1  0  0  0  0
 22 21  1  0  0  0  0
 23 22  1  0  0  0  0
 24 22  1  0  0  0  0
M  END
>  <MODEL>
3

>  <REMARK>
 VINA RESULT:      -7.6      1.859      3.025
  Name = 
  5 active torsions:
  status: ('A' for Active; 'I' for Inactive)
    1  A    between atoms: C_1  and  O_17
    2  A    between atoms: C_2  and  C_21
    3  A    between atoms: C_6  and  C_15
    4  A    between atoms: C_6  and  C_23
    5  A    between atoms: C_15  and  C_21
                            x       y       z     vdW  Elec       q    Type
                         _______ _______ _______ _____ _____    ______ ____

>  <TORSDO>
F 5

$$$$
=
 OpenBabel10272400543D

 25 27  0  0  1  0  0  0  0  0999 V2000
  188.7750  177.5930  144.0820 C   0  0  1  0  0  0  0  0  0  0  0  0
  187.3160  177.9770  144.2240 C   0  0  0  0  0  0  0  0  0  0  0  0
  189.0660  177.4870  146.4730 C   0  0  0  0  0  2  0  0  0  0  0  0
  189.5040  178.2250  142.8910 C   0  0  0  0  0  2  0  0  0  0  0  0
  191.5840  176.8290  145.2520 C   0  0  0  0  0  1  0  0  0  0  0  0
  187.5990  177.8380  146.7650 C   0  0  0  0  0  2  0  0  0  0  0  0
  190.9180  178.4920  143.4000 C   0  0  2  0  0  3  0  0  0  0  0  0
  191.9470  177.7330  142.5730 C   0  0  0  0  0  1  0  0  0  0  0  0
  185.3690  178.2960  145.6370 C   0  0  0  0  0  0  0  0  0  0  0  0
  184.7070  178.3740  146.9710 C   0  0  0  0  0  1  0  0  0  0  0  0
  186.5080  178.1920  143.1020 C   0  0  0  0  0  3  0  0  0  0  0  0
  189.4720  178.1570  145.2370 N   0  0  1  0  0  0  0  0  0  0  0  0
  190.8950  178.1560  144.9010 C   0  0  1  0  0  3  0  0  0  0  0  0
  184.6200  178.5110  144.5230 N   0  0  0  0  0  0  0  0  0  0  0  0
  185.1520  178.4620  143.2730 C   0  0  0  0  0  0  0  0  0  0  0  0
  186.7420  178.0130  145.5180 C   0  0  0  0  0  0  0  0  0  0  0  0
  188.9270  176.1760  144.0750 O   0  0  0  0  0  0  0  0  0  0  0  0
  189.0380  175.7030  142.7550 C   0  0  0  0  0  1  0  0  0  0  0  0
  184.2910  178.7210  142.0880 C   0  0  0  0  0  2  0  0  0  0  0  0
  185.1510  178.8690  140.8440 C   0  0  0  0  0  2  0  0  0  0  0  0
  184.2950  179.2630  139.6480 C   0  0  0  0  0  2  0  0  0  0  0  0
  184.1220  178.1140  138.6610 C   0  0  0  0  0  0  0  0  0  0  0  0
  183.6090  177.0210  139.3300 F   0  0  0  0  0  0  0  0  0  0  0  0
  183.2460  178.4730  137.6520 F   0  0  0  0  0  0  0  0  0  0  0  0
  185.3440  177.7710  138.1100 F   0  0  0  0  0  0  0  0  0  0  0  0
  1 17  1  6  0  0  0
  1  2  1  0  0  0  0
  1 12  1  0  0  0  0
  2 16  1  0  0  0  0
  3  6  1  0  0  0  0
  4  7  1  0  0  0  0
  4  1  1  0  0  0  0
  7  8  1  6  0  0  0
  7 13  1  0  0  0  0
  9 10  1  0  0  0  0
 11 15  1  0  0  0  0
 11  2  2  0  0  0  0
 12  3  1  1  0  0  0
 13 12  1  0  0  0  0
 13  5  1  6  0  0  0
 14  9  1  0  0  0  0
 15 14  2  0  0  0  0
 16  9  2  0  0  0  0
 16  6  1  0  0  0  0
 18 17  1  0  0  0  0
 19 15  1  0  0  0  0
 20 19  1  0  0  0  0
 21 20  1  0  0  0  0
 22 23  1  0  0  0  0
 22 21  1  0  0  0  0
 24 22  1  0  0  0  0
 25 22  1  0  0  0  0
M  END
>  <MODEL>
4

>  <REMARK>
 VINA RESULT:      -7.4      3.265      5.131
  Name = 
  5 active torsions:
  status: ('A' for Active; 'I' for Inactive)
    1  A    between atoms: C_1  and  O_17
    2  A    between atoms: C_2  and  C_21
    3  A    between atoms: C_6  and  C_15
    4  A    between atoms: C_6  and  C_23
    5  A    between atoms: C_15  and  C_21
                            x       y       z     vdW  Elec       q    Type
                         _______ _______ _______ _____ _____    ______ ____

>  <TORSDO>
F 5

$$$$
=
 OpenBabel10272400543D

 25 27  0  0  1  0  0  0  0  0999 V2000
  188.8270  177.5840  143.9790 C   0  0  1  0  0  0  0  0  0  0  0  0
  187.3630  177.9760  144.0210 C   0  0  0  0  0  0  0  0  0  0  0  0
  188.9560  177.4890  146.3840 C   0  0  0  0  0  2  0  0  0  0  0  0
  189.6370  178.2070  142.8370 C   0  0  0  0  0  2  0  0  0  0  0  0
  191.5470  176.8110  145.3380 C   0  0  0  0  0  1  0  0  0  0  0  0
  187.4750  177.8480  146.5760 C   0  0  0  0  0  2  0  0  0  0  0  0
  191.0150  178.4690  143.4380 C   0  0  2  0  0  3  0  0  0  0  0  0
  192.0930  177.7010  142.6850 C   0  0  0  0  0  1  0  0  0  0  0  0
  185.3280  178.3110  145.2990 C   0  0  0  0  0  0  0  0  0  0  0  0
  184.5790  178.3990  146.5860 C   0  0  0  0  0  1  0  0  0  0  0  0
  186.6330  178.1890  142.8470 C   0  0  0  0  0  3  0  0  0  0  0  0
  189.4470  178.1490  145.1750 N   0  0  1  0  0  0  0  0  0  0  0  0
  190.8900  178.1400  144.9360 C   0  0  1  0  0  3  0  0  0  0  0  0
  184.6560  178.5250  144.1370 N   0  0  0  0  0  0  0  0  0  0  0  0
  185.2710  178.4670  142.9250 C   0  0  0  0  0  0  0  0  0  0  0  0
  186.7040  178.0220  145.2740 C   0  0  0  0  0  0  0  0  0  0  0  0
  188.9700  176.1660  143.9890 O   0  0  0  0  0  0  0  0  0  0  0  0
  189.1730  175.6870  142.6820 C   0  0  0  0  0  1  0  0  0  0  0  0
  184.4920  178.7250  141.6840 C   0  0  0  0  0  2  0  0  0  0  0  0
  183.1780  177.9640  141.7280 C   0  0  0  0  0  2  0  0  0  0  0  0
  182.0060  178.9100  141.5100 C   0  0  0  0  0  2  0  0  0  0  0  0
  181.0160  178.8800  142.6700 C   0  0  0  0  0  0  0  0  0  0  0  0
  180.1220  177.8480  142.4680 F   0  0  0  0  0  0  0  0  0  0  0  0
  181.6800  178.6700  143.8650 F   0  0  0  0  0  0  0  0  0  0  0  0
  180.3200  180.0730  142.7330 F   0  0  0  0  0  0  0  0  0  0  0  0
  1 17  1  6  0  0  0
  1  2  1  0  0  0  0
  1 12  1  0  0  0  0
  2 16  1  0  0  0  0
  3  6  1  0  0  0  0
  4  7  1  0  0  0  0
  4  1  1  0  0  0  0
  7  8  1  6  0  0  0
  7 13  1  0  0  0  0
  9 10  1  0  0  0  0
 11 15  1  0  0  0  0
 11  2  2  0  0  0  0
 12  3  1  1  0  0  0
 13 12  1  0  0  0  0
 13  5  1  6  0  0  0
 14  9  1  0  0  0  0
 15 14  2  0  0  0  0
 16  9  2  0  0  0  0
 16  6  1  0  0  0  0
 18 17  1  0  0  0  0
 19 20  1  0  0  0  0
 19 15  1  0  0  0  0
 21 20  1  0  0  0  0
 21 22  1  0  0  0  0
 22 25  1  0  0  0  0
 22 24  1  0  0  0  0
 23 22  1  0  0  0  0
M  END
>  <MODEL>
5

>  <REMARK>
 VINA RESULT:      -7.3      2.878      4.689
  Name = 
  5 active torsions:
  status: ('A' for Active; 'I' for Inactive)
    1  A    between atoms: C_1  and  O_17
    2  A    between atoms: C_2  and  C_21
    3  A    between atoms: C_6  and  C_15
    4  A    between atoms: C_6  and  C_23
    5  A    between atoms: C_15  and  C_21
                            x       y       z     vdW  Elec       q    Type
                         _______ _______ _______ _____ _____    ______ ____

>  <TORSDO>
F 5

$$$$
=
 OpenBabel10272400543D

 25 27  0  0  1  0  0  0  0  0999 V2000
  188.0890  177.7050  143.9910 C   0  0  1  0  0  0  0  0  0  0  0  0
  186.7640  178.1730  143.4250 C   0  0  0  0  0  0  0  0  0  0  0  0
  187.1940  177.6110  146.2270 C   0  0  0  0  0  2  0  0  0  0  0  0
  189.3320  178.2800  143.3040 C   0  0  0  0  0  2  0  0  0  0  0  0
  189.9480  176.7940  146.3480 C   0  0  0  0  0  1  0  0  0  0  0  0
  185.7880  178.0490  145.7890 C   0  0  0  0  0  2  0  0  0  0  0  0
  190.3430  178.4710  144.4320 C   0  0  2  0  0  3  0  0  0  0  0  0
  191.5980  177.6440  144.1850 C   0  0  0  0  0  1  0  0  0  0  0  0
  184.3990  178.6200  143.7400 C   0  0  0  0  0  0  0  0  0  0  0  0
  183.1860  178.7520  144.5960 C   0  0  0  0  0  1  0  0  0  0  0  0
  186.6040  178.4210  142.0570 C   0  0  0  0  0  3  0  0  0  0  0  0
  188.1790  178.2410  145.3480 N   0  0  1  0  0  0  0  0  0  0  0  0
  189.5870  178.1540  145.7340 C   0  0  1  0  0  3  0  0  0  0  0  0
  184.2870  178.8650  142.4070 N   0  0  0  0  0  0  0  0  0  0  0  0
  185.3490  178.7710  141.5630 C   0  0  0  0  0  0  0  0  0  0  0  0
  185.6440  178.2580  144.2870 C   0  0  0  0  0  0  0  0  0  0  0  0
  188.1450  176.2810  144.0330 O   0  0  0  0  0  0  0  0  0  0  0  0
  188.8460  175.7870  142.9180 C   0  0  0  0  0  1  0  0  0  0  0  0
  185.1760  179.0650  140.1160 C   0  0  0  0  0  2  0  0  0  0  0  0
  183.7180  178.8980  139.7230 C   0  0  0  0  0  2  0  0  0  0  0  0
  183.4690  177.4980  139.1790 C   0  0  0  0  0  2  0  0  0  0  0  0
  182.1490  176.9150  139.6730 C   0  0  0  0  0  0  0  0  0  0  0  0
  181.1820  177.1140  138.7080 F   0  0  0  0  0  0  0  0  0  0  0  0
  182.2780  175.5580  139.9050 F   0  0  0  0  0  0  0  0  0  0  0  0
  181.7570  177.5460  140.8400 F   0  0  0  0  0  0  0  0  0  0  0  0
  1 17  1  1  0  0  0
  1 12  1  0  0  0  0
  2  1  1  0  0  0  0
  2 16  1  0  0  0  0
  4  1  1  0  0  0  0
  4  7  1  0  0  0  0
  6  3  1  0  0  0  0
  7  8  1  6  0  0  0
  7 13  1  0  0  0  0
  9 16  2  0  0  0  0
  9 10  1  0  0  0  0
 11  2  2  0  0  0  0
 12 13  1  0  0  0  0
 12  3  1  1  0  0  0
 13  5  1  6  0  0  0
 14  9  1  0  0  0  0
 15 11  1  0  0  0  0
 15 14  2  0  0  0  0
 16  6  1  0  0  0  0
 18 17  1  0  0  0  0
 19 15  1  0  0  0  0
 20 19  1  0  0  0  0
 21 22  1  0  0  0  0
 21 20  1  0  0  0  0
 22 24  1  0  0  0  0
 22 25  1  0  0  0  0
 23 22  1  0  0  0  0
M  END
>  <MODEL>
6

>  <REMARK>
 VINA RESULT:      -7.3      3.508      5.876
  Name = 
  5 active torsions:
  status: ('A' for Active; 'I' for Inactive)
    1  A    between atoms: C_1  and  O_17
    2  A    between atoms: C_2  and  C_21
    3  A    between atoms: C_6  and  C_15
    4  A    between atoms: C_6  and  C_23
    5  A    between atoms: C_15  and  C_21
                            x       y       z     vdW  Elec       q    Type
                         _______ _______ _______ _____ _____    ______ ____

>  <TORSDO>
F 5

$$$$
=
 OpenBabel10272400543D

 25 27  0  0  1  0  0  0  0  0999 V2000
  188.9480  177.8390  142.7990 C   0  0  1  0  0  0  0  0  0  0  0  0
  188.1610  177.7070  144.0870 C   0  0  0  0  0  0  0  0  0  0  0  0
  186.9960  178.5630  141.5840 C   0  0  0  0  0  2  0  0  0  0  0  0
  190.0690  176.8110  142.6110 C   0  0  0  0  0  2  0  0  0  0  0  0
  189.2080  178.5180  139.7480 C   0  0  0  0  0  1  0  0  0  0  0  0
  186.0850  178.5060  142.8190 C   0  0  0  0  0  2  0  0  0  0  0  0
  190.0700  176.5100  141.1140 C   0  0  2  0  0  3  0  0  0  0  0  0
  191.4110  176.8660  140.4880 C   0  0  0  0  0  1  0  0  0  0  0  0
  186.0980  178.0540  145.3190 C   0  0  0  0  0  0  0  0  0  0  0  0
  184.6590  178.4370  145.3990 C   0  0  0  0  0  1  0  0  0  0  0  0
  188.7750  177.2990  145.2760 C   0  0  0  0  0  3  0  0  0  0  0  0
  188.0250  177.5300  141.7090 N   0  0  1  0  0  0  0  0  0  0  0  0
  188.8500  177.2490  140.5360 C   0  0  1  0  0  3  0  0  0  0  0  0
  186.7270  177.6400  146.4510 N   0  0  0  0  0  0  0  0  0  0  0  0
  188.0360  177.2690  146.4570 C   0  0  0  0  0  0  0  0  0  0  0  0
  186.8020  178.1070  144.1020 C   0  0  0  0  0  0  0  0  0  0  0  0
  189.4460  179.1660  142.6450 O   0  0  0  0  0  0  0  0  0  0  0  0
  190.6380  179.3270  143.3730 C   0  0  0  0  0  1  0  0  0  0  0  0
  188.6720  176.8090  147.7200 C   0  0  0  0  0  2  0  0  0  0  0  0
  190.1770  177.0000  147.6440 C   0  0  0  0  0  2  0  0  0  0  0  0
  190.8820  175.6530  147.5580 C   0  0  0  0  0  2  0  0  0  0  0  0
  192.1840  175.7330  146.7690 C   0  0  0  0  0  0  0  0  0  0  0  0
  193.2410  175.8080  147.6540 F   0  0  0  0  0  0  0  0  0  0  0  0
  192.3390  174.6090  145.9790 F   0  0  0  0  0  0  0  0  0  0  0  0
  192.1860  176.8620  145.9690 F   0  0  0  0  0  0  0  0  0  0  0  0
  1 17  1  6  0  0  0
  1  2  1  0  0  0  0
  2 16  2  0  0  0  0
  2 11  1  0  0  0  0
  3  6  1  0  0  0  0
  4  1  1  0  0  0  0
  6 16  1  0  0  0  0
  7  8  1  6  0  0  0
  7  4  1  0  0  0  0
  9 10  1  0  0  0  0
  9 14  2  0  0  0  0
 11 15  2  0  0  0  0
 12  3  1  6  0  0  0
 12  1  1  0  0  0  0
 13  5  1  1  0  0  0
 13  7  1  0  0  0  0
 13 12  1  0  0  0  0
 14 15  1  0  0  0  0
 15 19  1  0  0  0  0
 16  9  1  0  0  0  0
 17 18  1  0  0  0  0
 20 19  1  0  0  0  0
 21 20  1  0  0  0  0
 22 21  1  0  0  0  0
 22 23  1  0  0  0  0
 24 22  1  0  0  0  0
 25 22  1  0  0  0  0
M  END
>  <MODEL>
7

>  <REMARK>
 VINA RESULT:      -7.3      3.217      5.004
  Name = 
  5 active torsions:
  status: ('A' for Active; 'I' for Inactive)
    1  A    between atoms: C_1  and  O_17
    2  A    between atoms: C_2  and  C_21
    3  A    between atoms: C_6  and  C_15
    4  A    between atoms: C_6  and  C_23
    5  A    between atoms: C_15  and  C_21
                            x       y       z     vdW  Elec       q    Type
                         _______ _______ _______ _____ _____    ______ ____

>  <TORSDO>
F 5

$$$$
=
 OpenBabel10272400543D

 25 27  0  0  1  0  0  0  0  0999 V2000
  188.7260  177.4810  143.4950 C   0  0  1  0  0  0  0  0  0  0  0  0
  187.9360  177.9480  142.2900 C   0  0  0  0  0  0  0  0  0  0  0  0
  186.7990  177.6590  144.9320 C   0  0  0  0  0  2  0  0  0  0  0  0
  190.1930  177.9250  143.5260 C   0  0  0  0  0  2  0  0  0  0  0  0
  189.0040  176.7360  146.5300 C   0  0  0  0  0  1  0  0  0  0  0  0
  185.8700  178.1120  143.7950 C   0  0  0  0  0  2  0  0  0  0  0  0
  190.4870  178.1860  145.0010 C   0  0  2  0  0  3  0  0  0  0  0  0
  191.6060  177.2830  145.5020 C   0  0  0  0  0  1  0  0  0  0  0  0
  185.8020  178.5310  141.2900 C   0  0  0  0  0  0  0  0  0  0  0  0
  184.3390  178.8050  141.3730 C   0  0  0  0  0  1  0  0  0  0  0  0
  188.5300  178.0590  141.0290 C   0  0  0  0  0  3  0  0  0  0  0  0
  188.1500  178.1500  144.6600 N   0  0  1  0  0  0  0  0  0  0  0  0
  189.1400  178.0410  145.7310 C   0  0  1  0  0  3  0  0  0  0  0  0
  186.4200  178.6410  140.0840 N   0  0  0  0  0  0  0  0  0  0  0  0
  187.7510  178.4120  139.9290 C   0  0  0  0  0  0  0  0  0  0  0  0
  186.5440  178.1720  142.4300 C   0  0  0  0  0  0  0  0  0  0  0  0
  188.6210  176.0680  143.6530 O   0  0  0  0  0  0  0  0  0  0  0  0
  189.6700  175.4220  142.9750 C   0  0  0  0  0  1  0  0  0  0  0  0
  188.3800  178.5620  138.5900 C   0  0  0  0  0  2  0  0  0  0  0  0
  188.8850  177.2160  138.0990 C   0  0  0  0  0  2  0  0  0  0  0  0
  190.3780  177.2800  137.8090 C   0  0  0  0  0  2  0  0  0  0  0  0
  191.2130  176.7100  138.9500 C   0  0  0  0  0  0  0  0  0  0  0  0
  191.5810  177.7400  139.7930 F   0  0  0  0  0  0  0  0  0  0  0  0
  190.4790  175.7840  139.6690 F   0  0  0  0  0  0  0  0  0  0  0  0
  192.3530  176.1080  138.4500 F   0  0  0  0  0  0  0  0  0  0  0  0
  1  4  1  0  0  0  0
  1 17  1  1  0  0  0
  1 12  1  0  0  0  0
  2 16  1  0  0  0  0
  2  1  1  0  0  0  0
  4  7  1  0  0  0  0
  6  3  1  0  0  0  0
  7  8  1  1  0  0  0
  7 13  1  0  0  0  0
  9 10  1  0  0  0  0
  9 16  2  0  0  0  0
 11  2  2  0  0  0  0
 12  3  1  1  0  0  0
 12 13  1  0  0  0  0
 13  5  1  6  0  0  0
 14  9  1  0  0  0  0
 15 14  2  0  0  0  0
 15 11  1  0  0  0  0
 16  6  1  0  0  0  0
 18 17  1  0  0  0  0
 19 15  1  0  0  0  0
 20 19  1  0  0  0  0
 21 20  1  0  0  0  0
 21 22  1  0  0  0  0
 22 24  1  0  0  0  0
 22 23  1  0  0  0  0
 25 22  1  0  0  0  0
M  END
>  <MODEL>
8

>  <REMARK>
 VINA RESULT:      -7.1      3.596      6.939
  Name = 
  5 active torsions:
  status: ('A' for Active; 'I' for Inactive)
    1  A    between atoms: C_1  and  O_17
    2  A    between atoms: C_2  and  C_21
    3  A    between atoms: C_6  and  C_15
    4  A    between atoms: C_6  and  C_23
    5  A    between atoms: C_15  and  C_21
                            x       y       z     vdW  Elec       q    Type
                         _______ _______ _______ _____ _____    ______ ____

>  <TORSDO>
F 5

$$$$
=
 OpenBabel10272400543D

 25 27  0  0  1  0  0  0  0  0999 V2000
  188.1460  177.7220  143.9910 C   0  0  1  0  0  0  0  0  0  0  0  0
  186.7830  178.1700  143.5030 C   0  0  0  0  0  0  0  0  0  0  0  0
  187.4060  177.6910  146.2850 C   0  0  0  0  0  2  0  0  0  0  0  0
  189.3370  178.2800  143.2050 C   0  0  0  0  0  2  0  0  0  0  0  0
  190.1650  176.8860  146.2410 C   0  0  0  0  0  1  0  0  0  0  0  0
  185.9710  178.1120  145.9310 C   0  0  0  0  0  2  0  0  0  0  0  0
  190.4210  178.5070  144.2550 C   0  0  2  0  0  3  0  0  0  0  0  0
  191.6600  177.6770  143.9470 C   0  0  0  0  0  1  0  0  0  0  0  0
  184.4430  178.6200  143.9660 C   0  0  0  0  0  0  0  0  0  0  0  0
  183.2900  178.7730  144.8990 C   0  0  0  0  0  1  0  0  0  0  0  0
  186.5290  178.3770  142.1430 C   0  0  0  0  0  3  0  0  0  0  0  0
  188.3250  178.2980  145.3220 N   0  0  1  0  0  0  0  0  0  0  0  0
  189.7570  178.2270  145.6140 C   0  0  1  0  0  3  0  0  0  0  0  0
  184.2400  178.8250  142.6370 N   0  0  0  0  0  0  0  0  0  0  0  0
  185.2420  178.7090  141.7250 C   0  0  0  0  0  0  0  0  0  0  0  0
  185.7240  178.2770  144.4370 C   0  0  0  0  0  0  0  0  0  0  0  0
  188.2110  176.3000  144.0710 O   0  0  0  0  0  0  0  0  0  0  0  0
  188.8670  175.7780  142.9410 C   0  0  0  0  0  1  0  0  0  0  0  0
  184.9690  178.9600  140.2850 C   0  0  0  0  0  2  0  0  0  0  0  0
  186.1000  178.4020  139.4380 C   0  0  0  0  0  2  0  0  0  0  0  0
  185.6340  178.1810  138.0060 C   0  0  0  0  0  2  0  0  0  0  0  0
  186.7860  177.8180  137.0740 C   0  0  0  0  0  0  0  0  0  0  0  0
  186.3450  177.8910  135.7680 F   0  0  0  0  0  0  0  0  0  0  0  0
  187.8380  178.6990  137.2430 F   0  0  0  0  0  0  0  0  0  0  0  0
  187.2170  176.5290  137.3330 F   0  0  0  0  0  0  0  0  0  0  0  0
  1 17  1  1  0  0  0
  1 12  1  0  0  0  0
  2  1  1  0  0  0  0
  2 16  1  0  0  0  0
  4  1  1  0  0  0  0
  4  7  1  0  0  0  0
  6  3  1  0  0  0  0
  7  8  1  6  0  0  0
  7 13  1  0  0  0  0
  9 16  2  0  0  0  0
  9 10  1  0  0  0  0
 11  2  2  0  0  0  0
 12 13  1  0  0  0  0
 12  3  1  1  0  0  0
 13  5  1  6  0  0  0
 14  9  1  0  0  0  0
 15 11  1  0  0  0  0
 15 14  2  0  0  0  0
 16  6  1  0  0  0  0
 18 17  1  0  0  0  0
 19 15  1  0  0  0  0
 20 19  1  0  0  0  0
 21 20  1  0  0  0  0
 22 24  1  0  0  0  0
 22 25  1  0  0  0  0
 22 21  1  0  0  0  0
 23 22  1  0  0  0  0
M  END
>  <MODEL>
9

>  <REMARK>
 VINA RESULT:      -7.1      3.694      6.321
  Name = 
  5 active torsions:
  status: ('A' for Active; 'I' for Inactive)
    1  A    between atoms: C_1  and  O_17
    2  A    between atoms: C_2  and  C_21
    3  A    between atoms: C_6  and  C_15
    4  A    between atoms: C_6  and  C_23
    5  A    between atoms: C_15  and  C_21
                            x       y       z     vdW  Elec       q    Type
                         _______ _______ _______ _____ _____    ______ ____

>  <TORSDO>
F 5

$$$$
