=
 OpenBabel10272400513D

 25 27  0  0  0  0  0  0  0  0999 V2000
  190.0670  177.5650  141.2340 C   0  0  0  0  0  0  0  0  0  0  0  0
  188.8030  177.9650  140.9690 C   0  0  0  0  0  0  0  0  0  0  0  0
  190.9140  177.0770  138.8890 C   0  0  0  0  0  3  0  0  0  0  0  0
  189.8800  177.3870  138.1210 C   0  0  0  0  0  3  0  0  0  0  0  0
  188.1310  178.0990  139.7530 C   0  0  0  0  0  0  0  0  0  0  0  0
  187.6250  178.1090  137.3590 C   0  0  0  0  0  1  0  0  0  0  0  0
  187.9490  178.3070  141.9580 N   0  0  0  0  0  0  0  0  0  0  0  0
  191.0000  177.1440  140.2770 O   0  0  0  0  0  0  0  0  0  0  0  0
  186.8750  178.5330  140.0000 N   0  0  0  0  0  2  0  0  0  0  0  0
  186.8070  178.6360  141.3370 C   0  0  0  0  0  0  0  0  0  0  0  0
  188.5570  177.8720  138.5030 C   0  0  0  0  0  0  0  0  0  0  0  0
  190.5590  177.5450  142.6360 C   0  0  0  0  0  0  0  0  0  0  0  0
  191.5630  177.4930  145.2330 C   0  0  0  0  0  3  0  0  0  0  0  0
  190.6060  176.3480  143.3810 C   0  0  0  0  0  0  0  0  0  0  0  0
  191.0970  176.3570  144.6500 N   0  0  0  0  0  0  0  0  0  0  0  0
  191.5480  178.6960  144.5310 C   0  0  0  0  0  3  0  0  0  0  0  0
  190.1140  175.1270  142.8350 N   0  0  0  0  0  1  0  0  0  0  0  0
  191.0490  178.7170  143.2300 C   0  0  0  0  0  3  0  0  0  0  0  0
  185.6010  179.1350  142.0560 C   0  0  0  0  0  2  0  0  0  0  0  0
  185.5840  178.6260  143.4200 N   0  0  0  0  0  2  0  0  0  0  0  0
  184.6140  179.0370  144.3870 C   0  0  0  0  0  0  0  0  0  0  0  0
  183.7550  179.9140  144.1040 O   0  0  0  0  0  0  0  0  0  0  0  0
  184.6440  178.4500  145.7530 C   0  0  0  0  0  2  0  0  0  0  0  0
  185.8500  178.9680  146.5100 C   0  0  0  0  0  2  0  0  0  0  0  0
  186.8850  177.8690  146.6230 C   0  0  0  0  0  1  0  0  0  0  0  0
  1 12  1  0  0  0  0
  2  1  2  0  0  0  0
  2  7  1  0  0  0  0
  3  8  1  0  0  0  0
  4 11  1  0  0  0  0
  4  3  2  0  0  0  0
  5  9  1  0  0  0  0
  5  2  1  0  0  0  0
  6 11  1  0  0  0  0
  8  1  1  0  0  0  0
  9 10  1  0  0  0  0
 10  7  2  0  0  0  0
 10 19  1  0  0  0  0
 11  5  2  0  0  0  0
 12 18  2  0  0  0  0
 12 14  1  0  0  0  0
 14 15  2  0  0  0  0
 15 13  1  0  0  0  0
 16 13  2  0  0  0  0
 17 14  1  0  0  0  0
 18 16  1  0  0  0  0
 19 20  1  0  0  0  0
 20 21  1  0  0  0  0
 21 23  1  0  0  0  0
 22 21  2  0  0  0  0
 23 24  1  0  0  0  0
 24 25  1  0  0  0  0
M  END
>  <MODEL>
1

>  <REMARK>
 VINA RESULT:      -7.9      0.000      0.000
  Name = 
  5 active torsions:
  status: ('A' for Active; 'I' for Inactive)
    1  A    between atoms: C_1  and  C_5
    2  A    between atoms: C_2  and  C_7
    3  A    between atoms: C_2  and  C_21
    4  A    between atoms: C_6  and  N_15
    5  A    between atoms: C_6  and  C_23
                            x       y       z     vdW  Elec       q    Type
                         _______ _______ _______ _____ _____    ______ ____

>  <TORSDO>
F 5

$$$$
=
 OpenBabel10272400513D

 25 27  0  0  0  0  0  0  0  0999 V2000
  189.5870  177.5990  142.0760 C   0  0  0  0  0  0  0  0  0  0  0  0
  188.5090  178.0020  141.3650 C   0  0  0  0  0  0  0  0  0  0  0  0
  191.2230  177.0780  140.2030 C   0  0  0  0  0  3  0  0  0  0  0  0
  190.5420  177.3840  139.1090 C   0  0  0  0  0  3  0  0  0  0  0  0
  188.3260  178.1250  139.9870 C   0  0  0  0  0  0  0  0  0  0  0  0
  188.7250  178.1080  137.5730 C   0  0  0  0  0  1  0  0  0  0  0  0
  187.3570  178.3610  141.9730 N   0  0  0  0  0  0  0  0  0  0  0  0
  190.7990  177.1620  141.5270 O   0  0  0  0  0  0  0  0  0  0  0  0
  187.0700  178.5690  139.7560 N   0  0  0  0  0  2  0  0  0  0  0  0
  186.5220  178.6880  140.9760 C   0  0  0  0  0  0  0  0  0  0  0  0
  189.1750  177.8800  138.9800 C   0  0  0  0  0  0  0  0  0  0  0  0
  189.5350  177.5940  143.5600 C   0  0  0  0  0  0  0  0  0  0  0  0
  189.3810  177.6530  146.3410 C   0  0  0  0  0  3  0  0  0  0  0  0
  190.4330  178.3620  144.3290 C   0  0  0  0  0  0  0  0  0  0  0  0
  190.3360  178.3660  145.6860 N   0  0  0  0  0  0  0  0  0  0  0  0
  188.4640  176.8890  145.6220 C   0  0  0  0  0  3  0  0  0  0  0  0
  191.4700  179.1160  143.7060 N   0  0  0  0  0  1  0  0  0  0  0  0
  188.5420  176.8650  144.2300 C   0  0  0  0  0  3  0  0  0  0  0  0
  185.1420  179.2020  141.2030 C   0  0  0  0  0  2  0  0  0  0  0  0
  184.8850  179.3380  142.6300 N   0  0  0  0  0  2  0  0  0  0  0  0
  183.6530  178.9380  143.2360 C   0  0  0  0  0  0  0  0  0  0  0  0
  182.7050  178.4970  142.5330 O   0  0  0  0  0  0  0  0  0  0  0  0
  183.4760  179.0820  144.7050 C   0  0  0  0  0  2  0  0  0  0  0  0
  184.8300  179.1180  145.3860 C   0  0  0  0  0  2  0  0  0  0  0  0
  184.7780  178.2980  146.6570 C   0  0  0  0  0  1  0  0  0  0  0  0
  1 12  1  0  0  0  0
  2  7  1  0  0  0  0
  2  1  2  0  0  0  0
  3  8  1  0  0  0  0
  4  3  2  0  0  0  0
  5  2  1  0  0  0  0
  6 11  1  0  0  0  0
  8  1  1  0  0  0  0
  9  5  1  0  0  0  0
  9 10  1  0  0  0  0
 10 19  1  0  0  0  0
 10  7  2  0  0  0  0
 11  4  1  0  0  0  0
 11  5  2  0  0  0  0
 12 18  2  0  0  0  0
 12 14  1  0  0  0  0
 14 15  2  0  0  0  0
 15 13  1  0  0  0  0
 16 13  2  0  0  0  0
 17 14  1  0  0  0  0
 18 16  1  0  0  0  0
 19 20  1  0  0  0  0
 20 21  1  0  0  0  0
 21 23  1  0  0  0  0
 22 21  2  0  0  0  0
 23 24  1  0  0  0  0
 24 25  1  0  0  0  0
M  END
>  <MODEL>
2

>  <REMARK>
 VINA RESULT:      -7.8      1.512      1.904
  Name = 
  5 active torsions:
  status: ('A' for Active; 'I' for Inactive)
    1  A    between atoms: C_1  and  C_5
    2  A    between atoms: C_2  and  C_7
    3  A    between atoms: C_2  and  C_21
    4  A    between atoms: C_6  and  N_15
    5  A    between atoms: C_6  and  C_23
                            x       y       z     vdW  Elec       q    Type
                         _______ _______ _______ _____ _____    ______ ____

>  <TORSDO>
F 5

$$$$
=
 OpenBabel10272400513D

 25 27  0  0  0  0  0  0  0  0999 V2000
  187.7490  177.9580  144.4370 C   0  0  0  0  0  0  0  0  0  0  0  0
  186.7390  178.2620  143.5900 C   0  0  0  0  0  0  0  0  0  0  0  0
  186.5490  178.0880  146.6730 C   0  0  0  0  0  3  0  0  0  0  0  0
  185.3030  178.3830  146.3340 C   0  0  0  0  0  3  0  0  0  0  0  0
  185.3980  178.5530  143.8450 C   0  0  0  0  0  0  0  0  0  0  0  0
  183.2760  178.9340  145.0020 C   0  0  0  0  0  1  0  0  0  0  0  0
  186.9360  178.3390  142.2560 N   0  0  0  0  0  0  0  0  0  0  0  0
  187.6460  177.9080  145.8330 O   0  0  0  0  0  0  0  0  0  0  0  0
  184.7770  178.7940  142.6690 N   0  0  0  0  0  2  0  0  0  0  0  0
  185.7400  178.6630  141.7430 C   0  0  0  0  0  0  0  0  0  0  0  0
  184.7340  178.6070  145.0080 C   0  0  0  0  0  0  0  0  0  0  0  0
  189.0980  177.6490  143.8990 C   0  0  0  0  0  0  0  0  0  0  0  0
  191.6050  177.1070  142.8120 C   0  0  0  0  0  3  0  0  0  0  0  0
  189.3670  176.4270  143.2480 C   0  0  0  0  0  0  0  0  0  0  0  0
  190.6040  176.1900  142.7330 N   0  0  0  0  0  0  0  0  0  0  0  0
  191.3820  178.3330  143.4350 C   0  0  0  0  0  3  0  0  0  0  0  0
  188.3690  175.4160  143.1490 N   0  0  0  0  0  1  0  0  0  0  0  0
  190.1240  178.6020  143.9740 C   0  0  0  0  0  3  0  0  0  0  0  0
  185.4880  178.7970  140.2810 C   0  0  0  0  0  2  0  0  0  0  0  0
  186.7330  178.6460  139.5410 N   0  0  0  0  0  2  0  0  0  0  0  0
  186.8000  178.0260  138.2550 C   0  0  0  0  0  0  0  0  0  0  0  0
  185.7700  177.5260  137.7290 O   0  0  0  0  0  0  0  0  0  0  0  0
  188.1050  177.9350  137.5480 C   0  0  0  0  0  2  0  0  0  0  0  0
  189.1890  178.5870  138.3820 C   0  0  0  0  0  2  0  0  0  0  0  0
  189.9960  177.5180  139.0870 C   0  0  0  0  0  1  0  0  0  0  0  0
  1  8  1  0  0  0  0
  2  5  1  0  0  0  0
  2  1  2  0  0  0  0
  4  3  2  0  0  0  0
  5 11  2  0  0  0  0
  6 11  1  0  0  0  0
  7  2  1  0  0  0  0
  8  3  1  0  0  0  0
  9  5  1  0  0  0  0
 10  7  2  0  0  0  0
 10  9  1  0  0  0  0
 11  4  1  0  0  0  0
 12 18  1  0  0  0  0
 12  1  1  0  0  0  0
 13 16  1  0  0  0  0
 14 12  2  0  0  0  0
 15 13  2  0  0  0  0
 15 14  1  0  0  0  0
 16 18  2  0  0  0  0
 17 14  1  0  0  0  0
 19 10  1  0  0  0  0
 20 19  1  0  0  0  0
 21 20  1  0  0  0  0
 22 21  2  0  0  0  0
 23 21  1  0  0  0  0
 23 24  1  0  0  0  0
 24 25  1  0  0  0  0
M  END
>  <MODEL>
3

>  <REMARK>
 VINA RESULT:      -7.7      1.932      5.557
  Name = 
  5 active torsions:
  status: ('A' for Active; 'I' for Inactive)
    1  A    between atoms: C_1  and  C_5
    2  A    between atoms: C_2  and  C_7
    3  A    between atoms: C_2  and  C_21
    4  A    between atoms: C_6  and  N_15
    5  A    between atoms: C_6  and  C_23
                            x       y       z     vdW  Elec       q    Type
                         _______ _______ _______ _____ _____    ______ ____

>  <TORSDO>
F 5

$$$$
=
 OpenBabel10272400513D

 25 27  0  0  0  0  0  0  0  0999 V2000
  187.2380  177.7560  145.3890 C   0  0  0  0  0  0  0  0  0  0  0  0
  188.2770  177.5920  144.5390 C   0  0  0  0  0  0  0  0  0  0  0  0
  188.3500  177.2160  147.6090 C   0  0  0  0  0  3  0  0  0  0  0  0
  189.6060  176.9680  147.2690 C   0  0  0  0  0  3  0  0  0  0  0  0
  189.6050  177.2420  144.7870 C   0  0  0  0  0  0  0  0  0  0  0  0
  191.6780  176.6330  145.9350 C   0  0  0  0  0  1  0  0  0  0  0  0
  188.1300  177.7550  143.2060 N   0  0  0  0  0  0  0  0  0  0  0  0
  187.2870  177.5570  146.7750 O   0  0  0  0  0  0  0  0  0  0  0  0
  190.2690  177.2040  143.6110 N   0  0  0  0  0  2  0  0  0  0  0  0
  189.3430  177.5100  142.6880 C   0  0  0  0  0  0  0  0  0  0  0  0
  190.2230  176.9740  145.9460 C   0  0  0  0  0  0  0  0  0  0  0  0
  185.9120  178.1740  144.8660 C   0  0  0  0  0  0  0  0  0  0  0  0
  183.4630  179.0360  143.8570 C   0  0  0  0  0  3  0  0  0  0  0  0
  184.9910  178.8730  145.6730 C   0  0  0  0  0  0  0  0  0  0  0  0
  183.8000  179.2760  145.1520 N   0  0  0  0  0  0  0  0  0  0  0  0
  184.3460  178.3590  143.0190 C   0  0  0  0  0  3  0  0  0  0  0  0
  185.2750  179.1400  147.0440 N   0  0  0  0  0  1  0  0  0  0  0  0
  185.5730  177.9330  143.5260 C   0  0  0  0  0  3  0  0  0  0  0  0
  189.6490  177.6330  141.2350 C   0  0  0  0  0  2  0  0  0  0  0  0
  188.4290  177.5040  140.4510 N   0  0  0  0  0  2  0  0  0  0  0  0
  188.2050  178.2330  139.2420 C   0  0  0  0  0  0  0  0  0  0  0  0
  189.0500  179.0730  138.8320 O   0  0  0  0  0  0  0  0  0  0  0  0
  186.9440  178.0260  138.4810 C   0  0  0  0  0  2  0  0  0  0  0  0
  185.7580  178.4430  139.3270 C   0  0  0  0  0  2  0  0  0  0  0  0
  184.4960  178.3770  138.4930 C   0  0  0  0  0  1  0  0  0  0  0  0
  1  8  1  0  0  0  0
  2  5  1  0  0  0  0
  2  1  2  0  0  0  0
  4  3  2  0  0  0  0
  5 11  2  0  0  0  0
  6 11  1  0  0  0  0
  7  2  1  0  0  0  0
  8  3  1  0  0  0  0
  9  5  1  0  0  0  0
 10  7  2  0  0  0  0
 10  9  1  0  0  0  0
 11  4  1  0  0  0  0
 12  1  1  0  0  0  0
 12 14  1  0  0  0  0
 13 15  1  0  0  0  0
 14 17  1  0  0  0  0
 15 14  2  0  0  0  0
 16 18  1  0  0  0  0
 16 13  2  0  0  0  0
 18 12  2  0  0  0  0
 19 10  1  0  0  0  0
 20 19  1  0  0  0  0
 21 20  1  0  0  0  0
 22 21  2  0  0  0  0
 23 21  1  0  0  0  0
 23 24  1  0  0  0  0
 25 24  1  0  0  0  0
M  END
>  <MODEL>
4

>  <REMARK>
 VINA RESULT:      -7.7      2.186      6.749
  Name = 
  5 active torsions:
  status: ('A' for Active; 'I' for Inactive)
    1  A    between atoms: C_1  and  C_5
    2  A    between atoms: C_2  and  C_7
    3  A    between atoms: C_2  and  C_21
    4  A    between atoms: C_6  and  N_15
    5  A    between atoms: C_6  and  C_23
                            x       y       z     vdW  Elec       q    Type
                         _______ _______ _______ _____ _____    ______ ____

>  <TORSDO>
F 5

$$$$
=
 OpenBabel10272400513D

 25 27  0  0  0  0  0  0  0  0999 V2000
  187.7520  177.9380  144.5690 C   0  0  0  0  0  0  0  0  0  0  0  0
  186.7860  178.2500  143.6760 C   0  0  0  0  0  0  0  0  0  0  0  0
  186.4460  178.0610  146.7450 C   0  0  0  0  0  3  0  0  0  0  0  0
  185.2190  178.3620  146.3480 C   0  0  0  0  0  3  0  0  0  0  0  0
  185.4350  178.5440  143.8670 C   0  0  0  0  0  0  0  0  0  0  0  0
  183.2610  178.9270  144.9220 C   0  0  0  0  0  1  0  0  0  0  0  0
  187.0480  178.3330  142.3530 N   0  0  0  0  0  0  0  0  0  0  0  0
  187.5810  177.8800  145.9580 O   0  0  0  0  0  0  0  0  0  0  0  0
  184.8720  178.7940  142.6640 N   0  0  0  0  0  2  0  0  0  0  0  0
  185.8790  178.6640  141.7850 C   0  0  0  0  0  0  0  0  0  0  0  0
  184.7150  178.5940  144.9970 C   0  0  0  0  0  0  0  0  0  0  0  0
  189.1250  177.6260  144.0960 C   0  0  0  0  0  0  0  0  0  0  0  0
  191.6810  177.0840  143.1310 C   0  0  0  0  0  3  0  0  0  0  0  0
  189.4070  176.4370  143.3920 C   0  0  0  0  0  0  0  0  0  0  0  0
  190.6680  176.1990  142.9390 N   0  0  0  0  0  0  0  0  0  0  0  0
  191.4470  178.2780  143.8090 C   0  0  0  0  0  3  0  0  0  0  0  0
  188.3950  175.4580  143.1750 N   0  0  0  0  0  1  0  0  0  0  0  0
  190.1650  178.5480  144.2870 C   0  0  0  0  0  3  0  0  0  0  0  0
  185.6990  178.8060  140.3130 C   0  0  0  0  0  2  0  0  0  0  0  0
  184.2910  178.6730  139.9640 N   0  0  0  0  0  2  0  0  0  0  0  0
  183.5900  179.6500  139.1900 C   0  0  0  0  0  0  0  0  0  0  0  0
  184.1620  180.7100  138.8230 O   0  0  0  0  0  0  0  0  0  0  0  0
  182.1590  179.4290  138.8490 C   0  0  0  0  0  2  0  0  0  0  0  0
  181.4320  180.7580  138.7920 C   0  0  0  0  0  2  0  0  0  0  0  0
  180.8380  180.9490  137.4130 C   0  0  0  0  0  1  0  0  0  0  0  0
  1  8  1  0  0  0  0
  2  5  1  0  0  0  0
  2  1  2  0  0  0  0
  4  3  2  0  0  0  0
  5 11  2  0  0  0  0
  6 11  1  0  0  0  0
  7  2  1  0  0  0  0
  8  3  1  0  0  0  0
  9  5  1  0  0  0  0
 10  7  2  0  0  0  0
 10  9  1  0  0  0  0
 11  4  1  0  0  0  0
 12 18  1  0  0  0  0
 12  1  1  0  0  0  0
 13 16  1  0  0  0  0
 14 12  2  0  0  0  0
 15 13  2  0  0  0  0
 15 14  1  0  0  0  0
 16 18  2  0  0  0  0
 17 14  1  0  0  0  0
 19 10  1  0  0  0  0
 20 19  1  0  0  0  0
 21 20  1  0  0  0  0
 22 21  2  0  0  0  0
 23 21  1  0  0  0  0
 24 23  1  0  0  0  0
 25 24  1  0  0  0  0
M  END
>  <MODEL>
5

>  <REMARK>
 VINA RESULT:      -7.5      2.860      5.581
  Name = 
  5 active torsions:
  status: ('A' for Active; 'I' for Inactive)
    1  A    between atoms: C_1  and  C_5
    2  A    between atoms: C_2  and  C_7
    3  A    between atoms: C_2  and  C_21
    4  A    between atoms: C_6  and  N_15
    5  A    between atoms: C_6  and  C_23
                            x       y       z     vdW  Elec       q    Type
                         _______ _______ _______ _____ _____    ______ ____

>  <TORSDO>
F 5

$$$$
=
 OpenBabel10272400513D

 25 27  0  0  0  0  0  0  0  0999 V2000
  188.1580  177.7130  143.3940 C   0  0  0  0  0  0  0  0  0  0  0  0
  186.8360  177.9990  143.3970 C   0  0  0  0  0  0  0  0  0  0  0  0
  188.6240  177.5860  145.8880 C   0  0  0  0  0  3  0  0  0  0  0  0
  187.4360  177.8070  146.4320 C   0  0  0  0  0  3  0  0  0  0  0  0
  185.9470  178.1650  144.4600 C   0  0  0  0  0  0  0  0  0  0  0  0
  185.0150  178.2960  146.7190 C   0  0  0  0  0  1  0  0  0  0  0  0
  186.1520  178.1870  142.2480 N   0  0  0  0  0  0  0  0  0  0  0  0
  188.9540  177.5530  144.5350 O   0  0  0  0  0  0  0  0  0  0  0  0
  184.7230  178.4430  143.9610 N   0  0  0  0  0  2  0  0  0  0  0  0
  184.8940  178.4550  142.6290 C   0  0  0  0  0  0  0  0  0  0  0  0
  186.1580  178.0820  145.7810 C   0  0  0  0  0  0  0  0  0  0  0  0
  188.8760  177.5490  142.1040 C   0  0  0  0  0  0  0  0  0  0  0  0
  190.1560  177.1900  139.6560 C   0  0  0  0  0  3  0  0  0  0  0  0
  189.7890  176.4930  141.9010 C   0  0  0  0  0  0  0  0  0  0  0  0
  190.4020  176.3480  140.6950 N   0  0  0  0  0  0  0  0  0  0  0  0
  189.2520  178.2400  139.8070 C   0  0  0  0  0  3  0  0  0  0  0  0
  190.1070  175.5880  142.9540 N   0  0  0  0  0  1  0  0  0  0  0  0
  188.6100  178.4130  141.0320 C   0  0  0  0  0  3  0  0  0  0  0  0
  183.7790  178.6750  141.6660 C   0  0  0  0  0  2  0  0  0  0  0  0
  184.0800  178.0330  140.3940 N   0  0  0  0  0  2  0  0  0  0  0  0
  184.4530  178.7680  139.2250 C   0  0  0  0  0  0  0  0  0  0  0  0
  184.4820  180.0270  139.2400 O   0  0  0  0  0  0  0  0  0  0  0  0
  184.7740  178.0380  137.9700 C   0  0  0  0  0  2  0  0  0  0  0  0
  186.2400  177.6530  137.9580 C   0  0  0  0  0  2  0  0  0  0  0  0
  186.9530  178.4140  136.8600 C   0  0  0  0  0  1  0  0  0  0  0  0
  1  2  2  0  0  0  0
  1  8  1  0  0  0  0
  2  5  1  0  0  0  0
  3  4  2  0  0  0  0
  5 11  2  0  0  0  0
  7 10  2  0  0  0  0
  7  2  1  0  0  0  0
  8  3  1  0  0  0  0
  9  5  1  0  0  0  0
 10  9  1  0  0  0  0
 11  4  1  0  0  0  0
 11  6  1  0  0  0  0
 12  1  1  0  0  0  0
 13 16  2  0  0  0  0
 13 15  1  0  0  0  0
 14 12  1  0  0  0  0
 14 17  1  0  0  0  0
 15 14  2  0  0  0  0
 16 18  1  0  0  0  0
 18 12  2  0  0  0  0
 19 10  1  0  0  0  0
 20 19  1  0  0  0  0
 21 22  2  0  0  0  0
 21 20  1  0  0  0  0
 23 21  1  0  0  0  0
 24 23  1  0  0  0  0
 25 24  1  0  0  0  0
M  END
>  <MODEL>
6

>  <REMARK>
 VINA RESULT:      -7.5      2.156      5.555
  Name = 
  5 active torsions:
  status: ('A' for Active; 'I' for Inactive)
    1  A    between atoms: C_1  and  C_5
    2  A    between atoms: C_2  and  C_7
    3  A    between atoms: C_2  and  C_21
    4  A    between atoms: C_6  and  N_15
    5  A    between atoms: C_6  and  C_23
                            x       y       z     vdW  Elec       q    Type
                         _______ _______ _______ _____ _____    ______ ____

>  <TORSDO>
F 5

$$$$
=
 OpenBabel10272400513D

 25 27  0  0  0  0  0  0  0  0999 V2000
  187.1380  177.7580  145.2100 C   0  0  0  0  0  0  0  0  0  0  0  0
  188.0890  177.5650  144.2670 C   0  0  0  0  0  0  0  0  0  0  0  0
  188.4580  177.2710  147.3250 C   0  0  0  0  0  3  0  0  0  0  0  0
  189.6740  177.0060  146.8710 C   0  0  0  0  0  3  0  0  0  0  0  0
  189.4330  177.2130  144.3950 C   0  0  0  0  0  0  0  0  0  0  0  0
  191.6060  176.6210  145.3530 C   0  0  0  0  0  1  0  0  0  0  0  0
  187.8140  177.6940  142.9510 N   0  0  0  0  0  0  0  0  0  0  0  0
  187.3210  177.5960  146.5890 O   0  0  0  0  0  0  0  0  0  0  0  0
  189.9800  177.1400  143.1610 N   0  0  0  0  0  2  0  0  0  0  0  0
  188.9700  177.4270  142.3240 C   0  0  0  0  0  0  0  0  0  0  0  0
  190.1600  176.9730  145.4950 C   0  0  0  0  0  0  0  0  0  0  0  0
  185.7690  178.1710  144.8060 C   0  0  0  0  0  0  0  0  0  0  0  0
  183.2350  179.0260  144.0280 C   0  0  0  0  0  3  0  0  0  0  0  0
  184.8790  178.7620  145.7270 C   0  0  0  0  0  0  0  0  0  0  0  0
  183.6450  179.1630  145.3160 N   0  0  0  0  0  0  0  0  0  0  0  0
  184.0850  178.4590  143.0800 C   0  0  0  0  0  3  0  0  0  0  0  0
  185.2390  178.9170  147.0960 N   0  0  0  0  0  1  0  0  0  0  0  0
  185.3540  178.0370  143.4730 C   0  0  0  0  0  3  0  0  0  0  0  0
  189.1340  177.5090  140.8460 C   0  0  0  0  0  2  0  0  0  0  0  0
  190.5460  177.5980  140.5020 N   0  0  0  0  0  2  0  0  0  0  0  0
  191.1630  176.7420  139.5370 C   0  0  0  0  0  0  0  0  0  0  0  0
  190.5050  175.8240  138.9780 O   0  0  0  0  0  0  0  0  0  0  0  0
  192.6060  176.9130  139.2180 C   0  0  0  0  0  2  0  0  0  0  0  0
  192.8630  176.5270  137.7750 C   0  0  0  0  0  2  0  0  0  0  0  0
  193.8190  175.3550  137.7290 C   0  0  0  0  0  1  0  0  0  0  0  0
  1  8  1  0  0  0  0
  2  5  1  0  0  0  0
  2  1  2  0  0  0  0
  4  3  2  0  0  0  0
  5 11  2  0  0  0  0
  6 11  1  0  0  0  0
  7  2  1  0  0  0  0
  8  3  1  0  0  0  0
  9  5  1  0  0  0  0
 10  7  2  0  0  0  0
 10  9  1  0  0  0  0
 11  4  1  0  0  0  0
 12  1  1  0  0  0  0
 12 14  1  0  0  0  0
 13 15  1  0  0  0  0
 14 17  1  0  0  0  0
 15 14  2  0  0  0  0
 16 18  1  0  0  0  0
 16 13  2  0  0  0  0
 18 12  2  0  0  0  0
 19 10  1  0  0  0  0
 20 19  1  0  0  0  0
 21 20  1  0  0  0  0
 22 21  2  0  0  0  0
 23 21  1  0  0  0  0
 24 23  1  0  0  0  0
 25 24  1  0  0  0  0
M  END
>  <MODEL>
7

>  <REMARK>
 VINA RESULT:      -7.4      2.215      7.410
  Name = 
  5 active torsions:
  status: ('A' for Active; 'I' for Inactive)
    1  A    between atoms: C_1  and  C_5
    2  A    between atoms: C_2  and  C_7
    3  A    between atoms: C_2  and  C_21
    4  A    between atoms: C_6  and  N_15
    5  A    between atoms: C_6  and  C_23
                            x       y       z     vdW  Elec       q    Type
                         _______ _______ _______ _____ _____    ______ ____

>  <TORSDO>
F 5

$$$$
=
 OpenBabel10272400513D

 25 27  0  0  0  0  0  0  0  0999 V2000
  187.2430  177.7760  145.6690 C   0  0  0  0  0  0  0  0  0  0  0  0
  188.3130  177.3590  144.9540 C   0  0  0  0  0  0  0  0  0  0  0  0
  188.1820  177.6870  148.0280 C   0  0  0  0  0  3  0  0  0  0  0  0
  189.4330  177.2920  147.8430 C   0  0  0  0  0  3  0  0  0  0  0  0
  189.5940  176.9940  145.3700 C   0  0  0  0  0  0  0  0  0  0  0  0
  191.5470  176.5360  146.7720 C   0  0  0  0  0  1  0  0  0  0  0  0
  188.2550  177.2240  143.6110 N   0  0  0  0  0  0  0  0  0  0  0  0
  187.1990  177.8950  147.0640 O   0  0  0  0  0  0  0  0  0  0  0  0
  190.3190  176.6490  144.2830 N   0  0  0  0  0  2  0  0  0  0  0  0
  189.4730  176.7930  143.2500 C   0  0  0  0  0  0  0  0  0  0  0  0
  190.1240  176.9590  146.6010 C   0  0  0  0  0  0  0  0  0  0  0  0
  185.9850  178.1450  144.9710 C   0  0  0  0  0  0  0  0  0  0  0  0
  183.6580  178.9190  143.6500 C   0  0  0  0  0  3  0  0  0  0  0  0
  184.8790  178.6640  145.6750 C   0  0  0  0  0  0  0  0  0  0  0  0
  183.7540  179.0280  145.0010 N   0  0  0  0  0  0  0  0  0  0  0  0
  184.7300  178.4230  142.9100 C   0  0  0  0  0  3  0  0  0  0  0  0
  184.9070  178.7850  147.0950 N   0  0  0  0  0  1  0  0  0  0  0  0
  185.8940  178.0410  143.5750 C   0  0  0  0  0  3  0  0  0  0  0  0
  189.8710  176.5640  141.8330 C   0  0  0  0  0  2  0  0  0  0  0  0
  189.3780  177.6460  140.9920 N   0  0  0  0  0  2  0  0  0  0  0  0
  189.5380  177.6570  139.5710 C   0  0  0  0  0  0  0  0  0  0  0  0
  190.1740  176.7380  138.9890 O   0  0  0  0  0  0  0  0  0  0  0  0
  188.9820  178.7850  138.7770 C   0  0  0  0  0  2  0  0  0  0  0  0
  189.0440  178.4540  137.3000 C   0  0  0  0  0  2  0  0  0  0  0  0
  187.6560  178.5440  136.7030 C   0  0  0  0  0  1  0  0  0  0  0  0
  1  8  1  0  0  0  0
  2  5  1  0  0  0  0
  2  1  2  0  0  0  0
  4  3  2  0  0  0  0
  5 11  2  0  0  0  0
  7  2  1  0  0  0  0
  8  3  1  0  0  0  0
  9  5  1  0  0  0  0
 10  7  2  0  0  0  0
 10  9  1  0  0  0  0
 11  6  1  0  0  0  0
 11  4  1  0  0  0  0
 12  1  1  0  0  0  0
 12 14  1  0  0  0  0
 13 15  1  0  0  0  0
 14 17  1  0  0  0  0
 15 14  2  0  0  0  0
 16 18  1  0  0  0  0
 16 13  2  0  0  0  0
 18 12  2  0  0  0  0
 19 10  1  0  0  0  0
 20 19  1  0  0  0  0
 21 20  1  0  0  0  0
 22 21  2  0  0  0  0
 23 21  1  0  0  0  0
 24 23  1  0  0  0  0
 25 24  1  0  0  0  0
M  END
>  <MODEL>
8

>  <REMARK>
 VINA RESULT:      -7.4      2.033      7.272
  Name = 
  5 active torsions:
  status: ('A' for Active; 'I' for Inactive)
    1  A    between atoms: C_1  and  C_5
    2  A    between atoms: C_2  and  C_7
    3  A    between atoms: C_2  and  C_21
    4  A    between atoms: C_6  and  N_15
    5  A    between atoms: C_6  and  C_23
                            x       y       z     vdW  Elec       q    Type
                         _______ _______ _______ _____ _____    ______ ____

>  <TORSDO>
F 5

$$$$
=
 OpenBabel10272400513D

 25 27  0  0  0  0  0  0  0  0999 V2000
  187.7350  177.6140  144.4840 C   0  0  0  0  0  0  0  0  0  0  0  0
  186.8180  178.0550  143.5930 C   0  0  0  0  0  0  0  0  0  0  0  0
  186.4510  177.8800  146.6610 C   0  0  0  0  0  3  0  0  0  0  0  0
  185.2730  178.3390  146.2650 C   0  0  0  0  0  3  0  0  0  0  0  0
  185.5150  178.5170  143.7870 C   0  0  0  0  0  0  0  0  0  0  0  0
  183.4050  179.1640  144.8450 C   0  0  0  0  0  1  0  0  0  0  0  0
  187.0910  178.1170  142.2720 N   0  0  0  0  0  0  0  0  0  0  0  0
  187.5550  177.5650  145.8730 O   0  0  0  0  0  0  0  0  0  0  0  0
  184.9910  178.8490  142.5860 N   0  0  0  0  0  2  0  0  0  0  0  0
  185.9750  178.6010  141.7060 C   0  0  0  0  0  0  0  0  0  0  0  0
  184.8060  178.6470  144.9170 C   0  0  0  0  0  0  0  0  0  0  0  0
  189.0580  177.1350  144.0080 C   0  0  0  0  0  0  0  0  0  0  0  0
  191.5500  176.1940  143.1950 C   0  0  0  0  0  3  0  0  0  0  0  0
  190.2320  177.8850  144.2260 C   0  0  0  0  0  0  0  0  0  0  0  0
  191.4340  177.4000  143.8110 N   0  0  0  0  0  0  0  0  0  0  0  0
  190.4190  175.4130  142.9700 C   0  0  0  0  0  3  0  0  0  0  0  0
  190.1770  179.1650  144.8490 N   0  0  0  0  0  1  0  0  0  0  0  0
  189.1740  175.8850  143.3830 C   0  0  0  0  0  3  0  0  0  0  0  0
  185.8170  178.7800  140.2360 C   0  0  0  0  0  2  0  0  0  0  0  0
  187.0490  178.4140  139.5500 N   0  0  0  0  0  2  0  0  0  0  0  0
  187.0850  178.0380  138.1710 C   0  0  0  0  0  0  0  0  0  0  0  0
  186.0220  177.9540  137.5000 O   0  0  0  0  0  0  0  0  0  0  0  0
  188.3870  177.7060  137.5340 C   0  0  0  0  0  2  0  0  0  0  0  0
  189.5260  178.1140  138.4460 C   0  0  0  0  0  2  0  0  0  0  0  0
  190.1430  176.8780  139.0660 C   0  0  0  0  0  1  0  0  0  0  0  0
  1  8  1  0  0  0  0
  2  5  1  0  0  0  0
  2  1  2  0  0  0  0
  4  3  2  0  0  0  0
  5 11  2  0  0  0  0
  6 11  1  0  0  0  0
  7  2  1  0  0  0  0
  8  3  1  0  0  0  0
  9  5  1  0  0  0  0
 10  7  2  0  0  0  0
 10  9  1  0  0  0  0
 11  4  1  0  0  0  0
 12 14  1  0  0  0  0
 12  1  1  0  0  0  0
 13 15  1  0  0  0  0
 14 17  1  0  0  0  0
 15 14  2  0  0  0  0
 16 13  2  0  0  0  0
 16 18  1  0  0  0  0
 18 12  2  0  0  0  0
 19 10  1  0  0  0  0
 20 19  1  0  0  0  0
 21 20  1  0  0  0  0
 22 21  2  0  0  0  0
 23 21  1  0  0  0  0
 23 24  1  0  0  0  0
 24 25  1  0  0  0  0
M  END
>  <MODEL>
9

>  <REMARK>
 VINA RESULT:      -7.3      2.017      5.715
  Name = 
  5 active torsions:
  status: ('A' for Active; 'I' for Inactive)
    1  A    between atoms: C_1  and  C_5
    2  A    between atoms: C_2  and  C_7
    3  A    between atoms: C_2  and  C_21
    4  A    between atoms: C_6  and  N_15
    5  A    between atoms: C_6  and  C_23
                            x       y       z     vdW  Elec       q    Type
                         _______ _______ _______ _____ _____    ______ ____

>  <TORSDO>
F 5

$$$$
