=
 OpenBabel10272401573D

 28 31  0  0  1  0  0  0  0  0999 V2000
  188.5400  176.9800  144.2160 C   0  0  0  0  0  0  0  0  0  0  0  0
  185.2890  178.9110  140.6620 C   0  0  0  0  0  2  0  0  0  0  0  0
  185.2500  179.2270  146.9360 O   0  0  0  0  0  1  0  0  0  0  0  0
  183.4230  178.3190  142.2580 C   0  0  2  0  0  3  0  0  0  0  0  0
  185.6670  179.0400  143.1870 C   0  0  2  0  0  3  0  0  0  0  0  0
  182.9760  178.5120  139.8330 C   0  0  0  0  0  0  0  0  0  0  0  0
  184.6690  179.1950  142.0320 C   0  0  1  0  0  3  0  0  0  0  0  0
  183.4880  179.5800  144.4840 C   0  0  0  0  0  2  0  0  0  0  0  0
  182.3640  178.6130  141.1990 C   0  0  0  0  0  2  0  0  0  0  0  0
  186.8060  177.9680  145.6150 C   0  0  0  0  0  0  0  0  0  0  0  0
  186.3240  177.6540  143.1900 C   0  0  0  0  0  2  0  0  0  0  0  0
  182.8350  178.4590  143.6700 C   0  0  0  0  0  2  0  0  0  0  0  0
  188.9090  177.2620  146.6000 C   0  0  0  0  0  3  0  0  0  0  0  0
  185.4060  178.5150  145.7440 C   0  0  2  0  0  3  0  0  0  0  0  0
  187.6350  177.8160  146.7360 C   0  0  0  0  0  3  0  0  0  0  0  0
  182.3880  177.9250  138.9400 O   0  0  0  0  0  0  0  0  0  0  0  0
  184.2770  179.2050  139.5530 C   0  0  0  0  0  2  0  0  0  0  0  0
  185.0140  179.4130  144.5550 C   0  0  1  0  0  3  0  0  0  0  0  0
  189.3600  176.8460  145.3470 C   0  0  0  0  0  3  0  0  0  0  0  0
  187.2540  177.5320  144.3570 C   0  0  0  0  0  0  0  0  0  0  0  0
  189.0300  176.5130  142.8750 C   0  0  2  0  0  3  0  0  0  0  0  0
  190.1080  175.6430  143.0410 O   0  0  0  0  0  1  0  0  0  0  0  0
  189.4430  177.6730  141.9680 C   0  0  0  0  0  2  0  0  0  0  0  0
  188.7570  178.4820  139.6580 C   0  0  0  0  0  1  0  0  0  0  0  0
  189.3760  177.3510  140.4720 C   0  0  1  0  0  3  0  0  0  0  0  0
  190.6860  176.8740  139.9200 C   0  0  0  0  0  0  0  0  0  0  0  0
  190.7060  175.7900  139.0530 O   0  0  0  0  0  0  0  0  0  0  0  0
  191.7700  177.4230  140.2520 O   0  0  0  0  0  1  0  0  0  0  0  0
  1 20  2  0  0  0  0
  1 19  1  0  0  0  0
  4  9  1  6  0  0  0
  4 12  1  0  0  0  0
  5 11  1  1  0  0  0
  5 18  1  0  0  0  0
  6  9  1  0  0  0  0
  7  2  1  6  0  0  0
  7  4  1  0  0  0  0
  7  5  1  0  0  0  0
 10 14  1  0  0  0  0
 10 15  2  0  0  0  0
 11 20  1  0  0  0  0
 12  8  1  0  0  0  0
 13 15  1  0  0  0  0
 14  3  1  1  0  0  0
 16  6  2  0  0  0  0
 17  6  1  0  0  0  0
 17  2  1  0  0  0  0
 18  8  1  6  0  0  0
 18 14  1  0  0  0  0
 19 13  2  0  0  0  0
 20 10  1  0  0  0  0
 21 22  1  1  0  0  0
 21  1  1  0  0  0  0
 23 21  1  0  0  0  0
 25 24  1  6  0  0  0
 25 23  1  0  0  0  0
 26 28  1  0  0  0  0
 26 25  1  0  0  0  0
 27 26  2  0  0  0  0
M  END
>  <MODEL>
1

>  <REMARK>
 VINA RESULT:     -10.3      0.000      0.000
  Name = 
  4 active torsions:
  status: ('A' for Active; 'I' for Inactive)
    1  A    between atoms: C_1  and  C_2
    2  A    between atoms: C_2  and  C_3
    3  A    between atoms: C_3  and  C_11
    4  A    between atoms: C_6  and  C_11
                            x       y       z     vdW  Elec       q    Type
                         _______ _______ _______ _____ _____    ______ ____

>  <TORSDO>
F 4

$$$$
=
 OpenBabel10272401573D

 28 31  0  0  1  0  0  0  0  0999 V2000
  184.1320  178.5670  142.3840 C   0  0  0  0  0  0  0  0  0  0  0  0
  188.7600  176.2510  142.7740 C   0  0  0  0  0  2  0  0  0  0  0  0
  184.8090  178.4050  147.1590 O   0  0  0  0  0  1  0  0  0  0  0  0
  189.2340  177.8420  144.6780 C   0  0  2  0  0  3  0  0  0  0  0  0
  186.8660  177.0220  144.3080 C   0  0  2  0  0  3  0  0  0  0  0  0
  191.0970  176.8400  143.3970 C   0  0  0  0  0  0  0  0  0  0  0  0
  188.3550  176.6770  144.1880 C   0  0  1  0  0  3  0  0  0  0  0  0
  187.6950  177.5640  146.7040 C   0  0  0  0  0  2  0  0  0  0  0  0
  190.7010  177.4250  144.7210 C   0  0  0  0  0  2  0  0  0  0  0  0
  184.5230  178.6440  144.7890 C   0  0  0  0  0  0  0  0  0  0  0  0
  186.4470  178.1010  143.3000 C   0  0  0  0  0  2  0  0  0  0  0  0
  188.7870  178.4050  146.0360 C   0  0  0  0  0  2  0  0  0  0  0  0
  182.3240  179.1500  143.8980 C   0  0  0  0  0  3  0  0  0  0  0  0
  185.4880  178.5410  145.9450 C   0  0  2  0  0  3  0  0  0  0  0  0
  183.1860  179.0140  144.9880 C   0  0  0  0  0  3  0  0  0  0  0  0
  192.1540  177.1580  142.8780 O   0  0  0  0  0  0  0  0  0  0  0  0
  190.2220  175.8030  142.7550 C   0  0  0  0  0  2  0  0  0  0  0  0
  186.4810  177.3750  145.7800 C   0  0  1  0  0  3  0  0  0  0  0  0
  182.7940  178.9280  142.6030 C   0  0  0  0  0  3  0  0  0  0  0  0
  185.0000  178.4380  143.4840 C   0  0  0  0  0  0  0  0  0  0  0  0
  184.6310  178.3470  140.9850 C   0  0  2  0  0  3  0  0  0  0  0  0
  185.1340  179.5420  140.4690 O   0  0  0  0  0  1  0  0  0  0  0  0
  183.5440  177.8050  140.0550 C   0  0  0  0  0  2  0  0  0  0  0  0
  183.2740  177.8290  137.5280 C   0  0  0  0  0  1  0  0  0  0  0  0
  183.3070  178.6590  138.8060 C   0  0  1  0  0  3  0  0  0  0  0  0
  182.1310  179.5790  138.9450 C   0  0  0  0  0  0  0  0  0  0  0  0
  182.2420  180.8960  138.5200 O   0  0  0  0  0  0  0  0  0  0  0  0
  181.0550  179.1830  139.4650 O   0  0  0  0  0  1  0  0  0  0  0  0
  1 19  2  0  0  0  0
  1 20  1  0  0  0  0
  4  9  1  1  0  0  0
  4 12  1  0  0  0  0
  5 11  1  6  0  0  0
  5 18  1  0  0  0  0
  6  9  1  0  0  0  0
  7  2  1  6  0  0  0
  7  5  1  0  0  0  0
  7  4  1  0  0  0  0
 10 15  1  0  0  0  0
 10 14  1  0  0  0  0
 11 20  1  0  0  0  0
 12  8  1  0  0  0  0
 13 15  2  0  0  0  0
 14  3  1  1  0  0  0
 16  6  2  0  0  0  0
 17  2  1  0  0  0  0
 17  6  1  0  0  0  0
 18 14  1  0  0  0  0
 18  8  1  1  0  0  0
 19 13  1  0  0  0  0
 20 10  2  0  0  0  0
 21 22  1  6  0  0  0
 21  1  1  0  0  0  0
 23 21  1  0  0  0  0
 25 24  1  6  0  0  0
 25 26  1  0  0  0  0
 25 23  1  0  0  0  0
 26 28  1  0  0  0  0
 27 26  2  0  0  0  0
M  END
>  <MODEL>
2

>  <REMARK>
 VINA RESULT:     -10.2      1.751      6.443
  Name = 
  4 active torsions:
  status: ('A' for Active; 'I' for Inactive)
    1  A    between atoms: C_1  and  C_2
    2  A    between atoms: C_2  and  C_3
    3  A    between atoms: C_3  and  C_11
    4  A    between atoms: C_6  and  C_11
                            x       y       z     vdW  Elec       q    Type
                         _______ _______ _______ _____ _____    ______ ____

>  <TORSDO>
F 4

$$$$
=
 OpenBabel10272401573D

 28 31  0  0  1  0  0  0  0  0999 V2000
  184.0920  178.5930  142.4380 C   0  0  0  0  0  0  0  0  0  0  0  0
  188.7350  176.2900  142.7290 C   0  0  0  0  0  2  0  0  0  0  0  0
  184.8430  178.3730  147.1990 O   0  0  0  0  0  1  0  0  0  0  0  0
  189.2320  177.8590  144.6450 C   0  0  2  0  0  3  0  0  0  0  0  0
  186.8610  177.0340  144.3010 C   0  0  2  0  0  3  0  0  0  0  0  0
  191.0790  176.8800  143.3230 C   0  0  0  0  0  0  0  0  0  0  0  0
  188.3490  176.6970  144.1530 C   0  0  1  0  0  3  0  0  0  0  0  0
  187.7250  177.5500  146.6910 C   0  0  0  0  0  2  0  0  0  0  0  0
  190.7010  177.4470  144.6600 C   0  0  0  0  0  2  0  0  0  0  0  0
  184.5200  178.6410  144.8380 C   0  0  0  0  0  0  0  0  0  0  0  0
  186.4240  178.1240  143.3130 C   0  0  0  0  0  2  0  0  0  0  0  0
  188.8040  178.4030  146.0160 C   0  0  0  0  0  2  0  0  0  0  0  0
  182.3050  179.1490  143.9870 C   0  0  0  0  0  3  0  0  0  0  0  0
  185.5030  178.5270  145.9770 C   0  0  2  0  0  3  0  0  0  0  0  0
  183.1850  179.0030  145.0620 C   0  0  0  0  0  3  0  0  0  0  0  0
  192.1260  177.2100  142.7920 O   0  0  0  0  0  0  0  0  0  0  0  0
  190.1980  175.8480  142.6820 C   0  0  0  0  0  2  0  0  0  0  0  0
  186.4980  177.3670  145.7820 C   0  0  1  0  0  3  0  0  0  0  0  0
  182.7570  178.9460  142.6820 C   0  0  0  0  0  3  0  0  0  0  0  0
  184.9780  178.4530  143.5230 C   0  0  0  0  0  0  0  0  0  0  0  0
  184.5710  178.3930  141.0290 C   0  0  2  0  0  3  0  0  0  0  0  0
  185.2890  179.5130  140.6100 O   0  0  0  0  0  1  0  0  0  0  0  0
  183.4230  178.1270  140.0540 C   0  0  0  0  0  2  0  0  0  0  0  0
  182.4540  175.9110  139.2720 C   0  0  0  0  0  1  0  0  0  0  0  0
  183.6220  176.8860  139.1780 C   0  0  1  0  0  3  0  0  0  0  0  0
  183.9970  177.2260  137.7670 C   0  0  0  0  0  0  0  0  0  0  0  0
  185.2230  177.8250  137.5120 O   0  0  0  0  0  1  0  0  0  0  0  0
  183.2070  177.0000  136.8120 O   0  0  0  0  0  0  0  0  0  0  0  0
  1 19  2  0  0  0  0
  1 20  1  0  0  0  0
  4  9  1  1  0  0  0
  4 12  1  0  0  0  0
  5 11  1  6  0  0  0
  5 18  1  0  0  0  0
  6  9  1  0  0  0  0
  7  2  1  6  0  0  0
  7  5  1  0  0  0  0
  7  4  1  0  0  0  0
 10 15  1  0  0  0  0
 10 14  1  0  0  0  0
 11 20  1  0  0  0  0
 12  8  1  0  0  0  0
 13 15  2  0  0  0  0
 14  3  1  1  0  0  0
 16  6  2  0  0  0  0
 17  2  1  0  0  0  0
 17  6  1  0  0  0  0
 18 14  1  0  0  0  0
 18  8  1  1  0  0  0
 19 13  1  0  0  0  0
 20 10  2  0  0  0  0
 21 22  1  6  0  0  0
 21  1  1  0  0  0  0
 23 21  1  0  0  0  0
 25 24  1  6  0  0  0
 25 23  1  0  0  0  0
 26 25  1  0  0  0  0
 27 26  1  0  0  0  0
 28 26  2  0  0  0  0
M  END
>  <MODEL>
3

>  <REMARK>
 VINA RESULT:     -10.0      1.757      6.083
  Name = 
  4 active torsions:
  status: ('A' for Active; 'I' for Inactive)
    1  A    between atoms: C_1  and  C_2
    2  A    between atoms: C_2  and  C_3
    3  A    between atoms: C_3  and  C_11
    4  A    between atoms: C_6  and  C_11
                            x       y       z     vdW  Elec       q    Type
                         _______ _______ _______ _____ _____    ______ ____

>  <TORSDO>
F 4

$$$$
=
 OpenBabel10272401573D

 28 31  0  0  1  0  0  0  0  0999 V2000
  188.6450  176.9570  144.7210 C   0  0  0  0  0  0  0  0  0  0  0  0
  185.6800  178.8580  140.9090 C   0  0  0  0  0  2  0  0  0  0  0  0
  185.1320  179.1930  147.1580 O   0  0  0  0  0  1  0  0  0  0  0  0
  183.6950  178.2590  142.3510 C   0  0  2  0  0  3  0  0  0  0  0  0
  185.8520  178.9970  143.4560 C   0  0  2  0  0  3  0  0  0  0  0  0
  183.4440  178.4420  139.8970 C   0  0  0  0  0  0  0  0  0  0  0  0
  184.9500  179.1420  142.2240 C   0  0  1  0  0  3  0  0  0  0  0  0
  183.5720  179.5270  144.5710 C   0  0  0  0  0  2  0  0  0  0  0  0
  182.7230  178.5430  141.2100 C   0  0  0  0  0  2  0  0  0  0  0  0
  186.7980  177.9380  145.9720 C   0  0  0  0  0  0  0  0  0  0  0  0
  186.5150  177.6140  143.5170 C   0  0  0  0  0  2  0  0  0  0  0  0
  182.9940  178.3990  143.7110 C   0  0  0  0  0  2  0  0  0  0  0  0
  188.8180  177.2490  147.1270 C   0  0  0  0  0  3  0  0  0  0  0  0
  185.3880  178.4770  145.9850 C   0  0  2  0  0  3  0  0  0  0  0  0
  187.5340  177.7960  147.1570 C   0  0  0  0  0  3  0  0  0  0  0  0
  182.9340  177.8480  138.9620 O   0  0  0  0  0  0  0  0  0  0  0  0
  184.7590  179.1410  139.7210 C   0  0  0  0  0  2  0  0  0  0  0  0
  185.0890  179.3700  144.7660 C   0  0  1  0  0  3  0  0  0  0  0  0
  189.3710  176.8310  145.9150 C   0  0  0  0  0  3  0  0  0  0  0  0
  187.3480  177.5020  144.7560 C   0  0  0  0  0  0  0  0  0  0  0  0
  189.2440  176.4890  143.4260 C   0  0  2  0  0  3  0  0  0  0  0  0
  188.5790  175.3440  142.9830 O   0  0  0  0  0  1  0  0  0  0  0  0
  190.7410  176.1980  143.5450 C   0  0  0  0  0  2  0  0  0  0  0  0
  191.4120  177.4860  141.4600 C   0  0  0  0  0  1  0  0  0  0  0  0
  191.6380  177.2890  142.9540 C   0  0  1  0  0  3  0  0  0  0  0  0
  191.5880  178.5680  143.7340 C   0  0  0  0  0  0  0  0  0  0  0  0
  190.6900  179.5590  143.3620 O   0  0  0  0  0  0  0  0  0  0  0  0
  192.3660  178.7690  144.7040 O   0  0  0  0  0  1  0  0  0  0  0  0
  1 20  2  0  0  0  0
  1 19  1  0  0  0  0
  4  9  1  6  0  0  0
  4 12  1  0  0  0  0
  5 11  1  1  0  0  0
  5 18  1  0  0  0  0
  6  9  1  0  0  0  0
  7  2  1  6  0  0  0
  7  4  1  0  0  0  0
  7  5  1  0  0  0  0
 10 14  1  0  0  0  0
 10 15  2  0  0  0  0
 11 20  1  0  0  0  0
 12  8  1  0  0  0  0
 13 15  1  0  0  0  0
 14  3  1  1  0  0  0
 16  6  2  0  0  0  0
 17  6  1  0  0  0  0
 17  2  1  0  0  0  0
 18  8  1  6  0  0  0
 18 14  1  0  0  0  0
 19 13  2  0  0  0  0
 20 10  1  0  0  0  0
 21 22  1  1  0  0  0
 21 23  1  0  0  0  0
 21  1  1  0  0  0  0
 25 24  1  6  0  0  0
 25 23  1  0  0  0  0
 25 26  1  0  0  0  0
 26 28  1  0  0  0  0
 27 26  2  0  0  0  0
M  END
>  <MODEL>
4

>  <REMARK>
 VINA RESULT:      -9.5      1.520      1.963
  Name = 
  4 active torsions:
  status: ('A' for Active; 'I' for Inactive)
    1  A    between atoms: C_1  and  C_2
    2  A    between atoms: C_2  and  C_3
    3  A    between atoms: C_3  and  C_11
    4  A    between atoms: C_6  and  C_11
                            x       y       z     vdW  Elec       q    Type
                         _______ _______ _______ _____ _____    ______ ____

>  <TORSDO>
F 4

$$$$
=
 OpenBabel10272401573D

 28 31  0  0  1  0  0  0  0  0999 V2000
  186.6220  178.6260  141.3890 C   0  0  0  0  0  0  0  0  0  0  0  0
  188.7030  177.0150  145.8630 C   0  0  0  0  0  2  0  0  0  0  0  0
  182.8130  178.5920  144.3500 O   0  0  0  0  0  1  0  0  0  0  0  0
  187.1720  178.6700  147.0030 C   0  0  2  0  0  3  0  0  0  0  0  0
  186.3900  177.5090  144.8910 C   0  0  2  0  0  3  0  0  0  0  0  0
  189.2650  177.9440  148.1030 C   0  0  0  0  0  0  0  0  0  0  0  0
  187.2470  177.3850  146.1570 C   0  0  1  0  0  3  0  0  0  0  0  0
  184.6760  178.1810  146.7160 C   0  0  0  0  0  2  0  0  0  0  0  0
  187.8810  178.4720  148.3400 C   0  0  0  0  0  2  0  0  0  0  0  0
  184.7180  178.7730  142.9030 C   0  0  0  0  0  0  0  0  0  0  0  0
  186.9900  178.5090  143.8930 C   0  0  0  0  0  2  0  0  0  0  0  0
  185.7350  179.1690  147.2160 C   0  0  0  0  0  2  0  0  0  0  0  0
  184.3820  178.9460  140.5060 C   0  0  0  0  0  3  0  0  0  0  0  0
  184.1910  178.8200  144.3170 C   0  0  2  0  0  3  0  0  0  0  0  0
  183.8660  178.9440  141.8030 C   0  0  0  0  0  3  0  0  0  0  0  0
  190.2120  178.4110  148.7140 O   0  0  0  0  0  0  0  0  0  0  0  0
  189.4650  176.7860  147.1690 C   0  0  0  0  0  2  0  0  0  0  0  0
  184.8990  177.8110  145.2410 C   0  0  1  0  0  3  0  0  0  0  0  0
  185.7540  178.7880  140.3000 C   0  0  0  0  0  3  0  0  0  0  0  0
  186.1000  178.6320  142.6950 C   0  0  0  0  0  0  0  0  0  0  0  0
  188.0980  178.4730  141.1560 C   0  0  2  0  0  3  0  0  0  0  0  0
  188.4080  178.8180  139.8400 O   0  0  0  0  0  1  0  0  0  0  0  0
  188.5910  177.0540  141.4430 C   0  0  0  0  0  2  0  0  0  0  0  0
  190.3440  175.8680  142.8510 C   0  0  0  0  0  1  0  0  0  0  0  0
  190.0690  176.9740  141.8390 C   0  0  1  0  0  3  0  0  0  0  0  0
  190.9860  176.9330  140.6540 C   0  0  0  0  0  0  0  0  0  0  0  0
  190.6730  176.1140  139.5770 O   0  0  0  0  0  0  0  0  0  0  0  0
  192.0490  177.6090  140.6310 O   0  0  0  0  0  1  0  0  0  0  0  0
  1 20  1  0  0  0  0
  2 17  1  0  0  0  0
  4 12  1  1  0  0  0
  4  9  1  0  0  0  0
  5 11  1  6  0  0  0
  5 18  1  0  0  0  0
  5  7  1  0  0  0  0
  6  9  1  0  0  0  0
  6 16  2  0  0  0  0
  7  2  1  6  0  0  0
  7  4  1  0  0  0  0
  8 12  1  0  0  0  0
 10 14  1  0  0  0  0
 13 15  2  0  0  0  0
 14  3  1  6  0  0  0
 14 18  1  0  0  0  0
 15 10  1  0  0  0  0
 17  6  1  0  0  0  0
 18  8  1  1  0  0  0
 19 13  1  0  0  0  0
 19  1  2  0  0  0  0
 20 10  2  0  0  0  0
 20 11  1  0  0  0  0
 21 22  1  6  0  0  0
 21  1  1  0  0  0  0
 21 23  1  0  0  0  0
 23 25  1  0  0  0  0
 25 24  1  6  0  0  0
 26 25  1  0  0  0  0
 27 26  2  0  0  0  0
 28 26  1  0  0  0  0
M  END
>  <MODEL>
5

>  <REMARK>
 VINA RESULT:      -9.3      1.761      5.446
  Name = 
  4 active torsions:
  status: ('A' for Active; 'I' for Inactive)
    1  A    between atoms: C_1  and  C_2
    2  A    between atoms: C_2  and  C_3
    3  A    between atoms: C_3  and  C_11
    4  A    between atoms: C_6  and  C_11
                            x       y       z     vdW  Elec       q    Type
                         _______ _______ _______ _____ _____    ______ ____

>  <TORSDO>
F 4

$$$$
=
 OpenBabel10272401573D

 28 31  0  0  1  0  0  0  0  0999 V2000
  184.4540  178.5610  142.8090 C   0  0  0  0  0  0  0  0  0  0  0  0
  189.1290  176.5240  141.8430 C   0  0  0  0  0  2  0  0  0  0  0  0
  186.3320  178.1350  147.2330 O   0  0  0  0  0  1  0  0  0  0  0  0
  190.0000  178.0160  143.6850 C   0  0  2  0  0  3  0  0  0  0  0  0
  187.6550  177.0720  143.8590 C   0  0  2  0  0  3  0  0  0  0  0  0
  191.5180  177.2190  141.9030 C   0  0  0  0  0  0  0  0  0  0  0  0
  189.0780  176.8310  143.3420 C   0  0  1  0  0  3  0  0  0  0  0  0
  189.0420  177.5110  146.0050 C   0  0  0  0  0  2  0  0  0  0  0  0
  191.4460  177.6910  143.3260 C   0  0  0  0  0  2  0  0  0  0  0  0
  185.4420  178.5070  145.0370 C   0  0  0  0  0  0  0  0  0  0  0  0
  186.9450  178.1850  143.0760 C   0  0  0  0  0  2  0  0  0  0  0  0
  189.8890  178.4610  145.1520 C   0  0  0  0  0  2  0  0  0  0  0  0
  183.0670  178.9290  144.7690 C   0  0  0  0  0  3  0  0  0  0  0  0
  186.6730  178.3930  145.9020 C   0  0  2  0  0  3  0  0  0  0  0  0
  184.1840  178.7780  145.5940 C   0  0  0  0  0  3  0  0  0  0  0  0
  192.3920  177.6360  141.1620 O   0  0  0  0  0  0  0  0  0  0  0  0
  190.5570  176.1720  141.4230 C   0  0  0  0  0  2  0  0  0  0  0  0
  187.6430  177.3050  145.4030 C   0  0  1  0  0  3  0  0  0  0  0  0
  183.2010  178.8210  143.3840 C   0  0  0  0  0  3  0  0  0  0  0  0
  185.5790  178.4170  143.6420 C   0  0  0  0  0  0  0  0  0  0  0  0
  184.5900  178.4640  141.3170 C   0  0  2  0  0  3  0  0  0  0  0  0
  184.7310  179.7400  140.7700 O   0  0  0  0  0  1  0  0  0  0  0  0
  183.3980  177.7580  140.6670 C   0  0  0  0  0  2  0  0  0  0  0  0
  182.7540  178.4540  138.3080 C   0  0  0  0  0  1  0  0  0  0  0  0
  182.5280  178.6720  139.8000 C   0  0  1  0  0  3  0  0  0  0  0  0
  181.0800  178.6370  140.1890 C   0  0  0  0  0  0  0  0  0  0  0  0
  180.6020  179.5510  141.1190 O   0  0  0  0  0  1  0  0  0  0  0  0
  180.2980  177.7750  139.7070 O   0  0  0  0  0  0  0  0  0  0  0  0
  1 19  2  0  0  0  0
  1 20  1  0  0  0  0
  4  9  1  1  0  0  0
  4 12  1  0  0  0  0
  5 11  1  6  0  0  0
  5 18  1  0  0  0  0
  6  9  1  0  0  0  0
  7  2  1  6  0  0  0
  7  4  1  0  0  0  0
  7  5  1  0  0  0  0
 10 15  1  0  0  0  0
 10 14  1  0  0  0  0
 11 20  1  0  0  0  0
 12  8  1  0  0  0  0
 13 15  2  0  0  0  0
 14  3  1  1  0  0  0
 16  6  2  0  0  0  0
 17  2  1  0  0  0  0
 17  6  1  0  0  0  0
 18 14  1  0  0  0  0
 18  8  1  6  0  0  0
 19 13  1  0  0  0  0
 20 10  2  0  0  0  0
 21 22  1  6  0  0  0
 21  1  1  0  0  0  0
 23 21  1  0  0  0  0
 25 24  1  6  0  0  0
 25 26  1  0  0  0  0
 25 23  1  0  0  0  0
 26 27  1  0  0  0  0
 28 26  2  0  0  0  0
M  END
>  <MODEL>
6

>  <REMARK>
 VINA RESULT:      -9.2      1.558      6.575
  Name = 
  4 active torsions:
  status: ('A' for Active; 'I' for Inactive)
    1  A    between atoms: C_1  and  C_2
    2  A    between atoms: C_2  and  C_3
    3  A    between atoms: C_3  and  C_11
    4  A    between atoms: C_6  and  C_11
                            x       y       z     vdW  Elec       q    Type
                         _______ _______ _______ _____ _____    ______ ____

>  <TORSDO>
F 4

$$$$
=
 OpenBabel10272401573D

 28 31  0  0  1  0  0  0  0  0999 V2000
  189.8120  176.6330  144.2390 C   0  0  0  0  0  0  0  0  0  0  0  0
  185.3440  179.0970  143.2910 C   0  0  0  0  0  2  0  0  0  0  0  0
  188.5870  178.2720  148.6080 O   0  0  0  0  0  1  0  0  0  0  0  0
  184.5380  178.1810  145.5030 C   0  0  2  0  0  3  0  0  0  0  0  0
  186.9840  178.7760  145.2250 C   0  0  2  0  0  3  0  0  0  0  0  0
  182.9140  178.7990  143.7420 C   0  0  0  0  0  0  0  0  0  0  0  0
  185.5480  179.1130  144.8080 C   0  0  1  0  0  3  0  0  0  0  0  0
  185.8420  179.0200  147.5400 C   0  0  0  0  0  2  0  0  0  0  0  0
  183.1090  178.6360  145.2210 C   0  0  0  0  0  2  0  0  0  0  0  0
  189.1340  177.3090  146.4800 C   0  0  0  0  0  0  0  0  0  0  0  0
  187.4430  177.4280  144.6530 C   0  0  0  0  0  2  0  0  0  0  0  0
  184.7800  178.0490  147.0140 C   0  0  0  0  0  2  0  0  0  0  0  0
  191.3830  176.4880  146.0860 C   0  0  0  0  0  3  0  0  0  0  0  0
  188.0490  177.7910  147.4120 C   0  0  2  0  0  3  0  0  0  0  0  0
  190.4100  176.9780  146.9580 C   0  0  0  0  0  3  0  0  0  0  0  0
  181.9070  178.3690  143.2060 O   0  0  0  0  0  0  0  0  0  0  0  0
  183.9290  179.5620  142.9430 C   0  0  0  0  0  2  0  0  0  0  0  0
  187.1660  178.8800  146.7720 C   0  0  1  0  0  3  0  0  0  0  0  0
  191.0870  176.3160  144.7330 C   0  0  0  0  0  3  0  0  0  0  0  0
  188.8310  177.1190  145.1220 C   0  0  0  0  0  0  0  0  0  0  0  0
  189.4990  176.4280  142.7840 C   0  0  2  0  0  3  0  0  0  0  0  0
  190.3690  175.4820  142.2410 O   0  0  0  0  0  1  0  0  0  0  0  0
  189.5870  177.7260  141.9790 C   0  0  0  0  0  2  0  0  0  0  0  0
  187.4540  178.5680  140.8840 C   0  0  0  0  0  1  0  0  0  0  0  0
  188.7210  177.7380  140.7160 C   0  0  1  0  0  3  0  0  0  0  0  0
  189.4980  178.0870  139.4820 C   0  0  0  0  0  0  0  0  0  0  0  0
  189.0650  179.1310  138.6760 O   0  0  0  0  0  0  0  0  0  0  0  0
  190.5220  177.4320  139.1520 O   0  0  0  0  0  1  0  0  0  0  0  0
  1 19  2  0  0  0  0
  1 20  1  0  0  0  0
  4  9  1  1  0  0  0
  4 12  1  0  0  0  0
  5 11  1  1  0  0  0
  5 18  1  0  0  0  0
  6  9  1  0  0  0  0
  7  2  1  6  0  0  0
  7  5  1  0  0  0  0
  7  4  1  0  0  0  0
 10 15  1  0  0  0  0
 10 14  1  0  0  0  0
 11 20  1  0  0  0  0
 12  8  1  0  0  0  0
 13 15  2  0  0  0  0
 14  3  1  1  0  0  0
 16  6  2  0  0  0  0
 17  2  1  0  0  0  0
 17  6  1  0  0  0  0
 18 14  1  0  0  0  0
 18  8  1  1  0  0  0
 19 13  1  0  0  0  0
 20 10  2  0  0  0  0
 21 22  1  6  0  0  0
 21  1  1  0  0  0  0
 23 21  1  0  0  0  0
 25 24  1  1  0  0  0
 25 23  1  0  0  0  0
 26 25  1  0  0  0  0
 27 26  2  0  0  0  0
 28 26  1  0  0  0  0
M  END
>  <MODEL>
7

>  <REMARK>
 VINA RESULT:      -8.8      1.813      2.801
  Name = 
  4 active torsions:
  status: ('A' for Active; 'I' for Inactive)
    1  A    between atoms: C_1  and  C_2
    2  A    between atoms: C_2  and  C_3
    3  A    between atoms: C_3  and  C_11
    4  A    between atoms: C_6  and  C_11
                            x       y       z     vdW  Elec       q    Type
                         _______ _______ _______ _____ _____    ______ ____

>  <TORSDO>
F 4

$$$$
=
 OpenBabel10272401573D

 28 31  0  0  1  0  0  0  0  0999 V2000
  189.0260  178.0020  140.8440 C   0  0  0  0  0  0  0  0  0  0  0  0
  188.5180  176.8910  145.8890 C   0  0  0  0  0  2  0  0  0  0  0  0
  184.2630  178.3770  141.5130 O   0  0  0  0  0  1  0  0  0  0  0  0
  186.7490  178.6930  145.9590 C   0  0  2  0  0  3  0  0  0  0  0  0
  187.0240  177.3060  143.8570 C   0  0  2  0  0  3  0  0  0  0  0  0
  187.9730  178.0660  148.0140 C   0  0  0  0  0  0  0  0  0  0  0  0
  187.1370  177.3170  145.3850 C   0  0  1  0  0  3  0  0  0  0  0  0
  184.6880  178.2150  144.5180 C   0  0  0  0  0  2  0  0  0  0  0  0
  186.6930  178.6410  147.4820 C   0  0  0  0  0  2  0  0  0  0  0  0
  186.6400  178.3560  141.1920 C   0  0  0  0  0  0  0  0  0  0  0  0
  188.1070  178.1720  143.1990 C   0  0  0  0  0  2  0  0  0  0  0  0
  185.4330  179.2370  145.3830 C   0  0  0  0  0  2  0  0  0  0  0  0
  187.5380  178.2530  138.9400 C   0  0  0  0  0  3  0  0  0  0  0  0
  185.4920  178.5760  142.1470 C   0  0  2  0  0  3  0  0  0  0  0  0
  186.4520  178.4110  139.8040 C   0  0  0  0  0  3  0  0  0  0  0  0
  188.5290  178.5860  148.9680 O   0  0  0  0  0  0  0  0  0  0  0  0
  188.5220  176.8040  147.4160 C   0  0  0  0  0  2  0  0  0  0  0  0
  185.5790  177.6710  143.3900 C   0  0  1  0  0  3  0  0  0  0  0  0
  188.8190  178.0490  139.4580 C   0  0  0  0  0  3  0  0  0  0  0  0
  187.9310  178.1690  141.7120 C   0  0  0  0  0  0  0  0  0  0  0  0
  190.4100  177.7990  141.3900 C   0  0  2  0  0  3  0  0  0  0  0  0
  191.2470  177.3080  140.3870 O   0  0  0  0  0  1  0  0  0  0  0  0
  190.4330  176.8460  142.5870 C   0  0  0  0  0  2  0  0  0  0  0  0
  191.5430  178.4390  144.2270 C   0  0  0  0  0  1  0  0  0  0  0  0
  191.6040  177.0770  143.5470 C   0  0  1  0  0  3  0  0  0  0  0  0
  191.7980  175.9440  144.5090 C   0  0  0  0  0  0  0  0  0  0  0  0
  191.8150  176.2030  145.8730 O   0  0  0  0  0  1  0  0  0  0  0  0
  191.9720  174.7650  144.0990 O   0  0  0  0  0  0  0  0  0  0  0  0
  1 21  1  0  0  0  0
  1 20  1  0  0  0  0
  2 17  1  0  0  0  0
  4 12  1  6  0  0  0
  4  9  1  0  0  0  0
  5 11  1  6  0  0  0
  5  7  1  0  0  0  0
  6 16  2  0  0  0  0
  7  2  1  6  0  0  0
  7  4  1  0  0  0  0
  8 12  1  0  0  0  0
  9  6  1  0  0  0  0
 10 20  2  0  0  0  0
 10 14  1  0  0  0  0
 13 19  1  0  0  0  0
 13 15  2  0  0  0  0
 14  3  1  6  0  0  0
 14 18  1  0  0  0  0
 15 10  1  0  0  0  0
 17  6  1  0  0  0  0
 18  5  1  0  0  0  0
 18  8  1  1  0  0  0
 19  1  2  0  0  0  0
 20 11  1  0  0  0  0
 21 22  1  6  0  0  0
 21 23  1  0  0  0  0
 23 25  1  0  0  0  0
 25 24  1  1  0  0  0
 25 26  1  0  0  0  0
 26 27  1  0  0  0  0
 28 26  2  0  0  0  0
M  END
>  <MODEL>
8

>  <REMARK>
 VINA RESULT:      -8.5      1.859      5.595
  Name = 
  4 active torsions:
  status: ('A' for Active; 'I' for Inactive)
    1  A    between atoms: C_1  and  C_2
    2  A    between atoms: C_2  and  C_3
    3  A    between atoms: C_3  and  C_11
    4  A    between atoms: C_6  and  C_11
                            x       y       z     vdW  Elec       q    Type
                         _______ _______ _______ _____ _____    ______ ____

>  <TORSDO>
F 4

$$$$
=
 OpenBabel10272401573D

 28 31  0  0  1  0  0  0  0  0999 V2000
  187.8500  178.3150  140.0450 C   0  0  0  0  0  0  0  0  0  0  0  0
  187.4950  177.3230  145.1270 C   0  0  0  0  0  2  0  0  0  0  0  0
  183.0980  178.6090  140.8290 O   0  0  0  0  0  1  0  0  0  0  0  0
  185.6910  179.0890  145.1980 C   0  0  2  0  0  3  0  0  0  0  0  0
  185.9410  177.6550  143.1250 C   0  0  2  0  0  3  0  0  0  0  0  0
  186.9800  178.5410  147.2360 C   0  0  0  0  0  0  0  0  0  0  0  0
  186.0930  177.7080  144.6500 C   0  0  1  0  0  3  0  0  0  0  0  0
  183.6040  178.5330  143.8250 C   0  0  0  0  0  2  0  0  0  0  0  0
  185.6750  179.0760  146.7240 C   0  0  0  0  0  2  0  0  0  0  0  0
  185.4660  178.6290  140.4470 C   0  0  0  0  0  0  0  0  0  0  0  0
  186.9880  178.5270  142.4180 C   0  0  0  0  0  2  0  0  0  0  0  0
  184.3490  179.5910  144.6440 C   0  0  0  0  0  2  0  0  0  0  0  0
  186.3080  178.4870  138.1750 C   0  0  0  0  0  3  0  0  0  0  0  0
  184.3390  178.8500  141.4250 C   0  0  2  0  0  3  0  0  0  0  0  0
  185.2420  178.6440  139.0630 C   0  0  0  0  0  3  0  0  0  0  0  0
  187.5490  179.0960  148.1620 O   0  0  0  0  0  0  0  0  0  0  0  0
  187.5400  177.2760  146.6560 C   0  0  0  0  0  2  0  0  0  0  0  0
  184.4770  177.9780  142.6880 C   0  0  1  0  0  3  0  0  0  0  0  0
  187.6060  178.3230  138.6630 C   0  0  0  0  0  3  0  0  0  0  0  0
  186.7740  178.4810  140.9370 C   0  0  0  0  0  0  0  0  0  0  0  0
  189.2520  178.1540  140.5590 C   0  0  2  0  0  3  0  0  0  0  0  0
  190.1050  177.8140  139.5090 O   0  0  0  0  0  1  0  0  0  0  0  0
  189.3520  177.1000  141.6620 C   0  0  0  0  0  2  0  0  0  0  0  0
  190.4130  178.5260  143.4790 C   0  0  0  0  0  1  0  0  0  0  0  0
  190.5490  177.2880  142.6000 C   0  0  1  0  0  3  0  0  0  0  0  0
  190.8820  176.0480  143.3730 C   0  0  0  0  0  0  0  0  0  0  0  0
  190.3020  174.8400  143.0080 O   0  0  0  0  0  0  0  0  0  0  0  0
  191.6600  176.0890  144.3630 O   0  0  0  0  0  1  0  0  0  0  0  0
  1 21  1  0  0  0  0
  1 20  1  0  0  0  0
  2 17  1  0  0  0  0
  4 12  1  6  0  0  0
  4  9  1  0  0  0  0
  5 11  1  6  0  0  0
  5  7  1  0  0  0  0
  6 16  2  0  0  0  0
  7  2  1  6  0  0  0
  7  4  1  0  0  0  0
  8 12  1  0  0  0  0
  9  6  1  0  0  0  0
 10 20  2  0  0  0  0
 10 14  1  0  0  0  0
 13 19  1  0  0  0  0
 13 15  2  0  0  0  0
 14  3  1  6  0  0  0
 14 18  1  0  0  0  0
 15 10  1  0  0  0  0
 17  6  1  0  0  0  0
 18  5  1  0  0  0  0
 18  8  1  1  0  0  0
 19  1  2  0  0  0  0
 20 11  1  0  0  0  0
 21 22  1  6  0  0  0
 21 23  1  0  0  0  0
 23 25  1  0  0  0  0
 25 26  1  0  0  0  0
 25 24  1  1  0  0  0
 26 28  1  0  0  0  0
 27 26  2  0  0  0  0
M  END
>  <MODEL>
9

>  <REMARK>
 VINA RESULT:      -8.5      1.406      5.258
  Name = 
  4 active torsions:
  status: ('A' for Active; 'I' for Inactive)
    1  A    between atoms: C_1  and  C_2
    2  A    between atoms: C_2  and  C_3
    3  A    between atoms: C_3  and  C_11
    4  A    between atoms: C_6  and  C_11
                            x       y       z     vdW  Elec       q    Type
                         _______ _______ _______ _____ _____    ______ ____

>  <TORSDO>
F 4

$$$$
