=
 OpenBabel10272400023D

 34 41  0  0  1  0  0  0  0  0999 V2000
  186.0150  178.6270  140.5440 C   0  0  0  0  0  0  0  0  0  0  0  0
  187.7970  178.2670  138.9430 C   0  0  0  0  0  0  0  0  0  0  0  0
  192.8570  176.3730  137.8820 C   0  0  0  0  0  3  0  0  0  0  0  0
  188.2020  177.9930  141.3320 C   0  0  0  0  0  0  0  0  0  0  0  0
  190.3930  177.3110  141.9690 C   0  0  0  0  0  0  0  0  0  0  0  0
  185.6500  178.8890  138.2420 N   0  0  0  0  0  0  0  0  0  0  0  0
  186.9180  178.5700  137.9560 N   0  0  0  0  0  0  0  0  0  0  0  0
  189.9780  177.6150  139.7570 C   0  0  0  0  0  0  0  0  0  0  0  0
  187.3390  178.3010  140.2790 C   0  0  0  0  0  0  0  0  0  0  0  0
  192.1130  176.7890  138.8760 C   0  0  0  0  0  0  0  0  0  0  0  0
  191.7040  176.9490  141.3350 C   0  0  0  0  0  2  0  0  0  0  0  0
  185.1970  178.9190  139.5020 N   0  0  0  0  0  0  0  0  0  0  0  0
  187.7880  177.9890  142.6740 C   0  0  0  0  0  0  0  0  0  0  0  0
  185.5600  178.6360  141.8740 C   0  0  0  0  0  3  0  0  0  0  0  0
  189.1440  177.9130  138.6630 C   0  0  0  0  0  3  0  0  0  0  0  0
  190.0350  177.2830  143.2820 N   0  0  0  0  0  0  0  0  0  0  0  0
  188.7550  177.6260  143.6780 C   0  0  0  0  0  0  0  0  0  0  0  0
  191.3760  177.1970  139.8710 C   0  0  0  0  0  0  0  0  0  0  0  0
  189.4930  177.6640  141.0250 C   0  0  0  0  0  0  0  0  0  0  0  0
  186.4390  178.3150  142.9300 C   0  0  0  0  0  3  0  0  0  0  0  0
  186.9530  177.9710  147.0190 C   0  0  0  0  0  0  0  0  0  0  0  0
  187.9430  177.5350  147.9020 C   0  0  0  0  0  3  0  0  0  0  0  0
  188.4470  177.5860  145.1330 C   0  0  0  0  0  0  0  0  0  0  0  0
  189.1860  177.1290  147.4090 C   0  0  0  0  0  3  0  0  0  0  0  0
  187.2060  178.0000  145.6450 C   0  0  0  0  0  3  0  0  0  0  0  0
  189.4350  177.1580  146.0350 C   0  0  0  0  0  3  0  0  0  0  0  0
  185.7490  178.3680  147.4930 F   0  0  0  0  0  0  0  0  0  0  0  0
  195.1000  176.0420  136.2020 O   0  0  0  0  0  1  0  0  0  0  0  0
  193.4160  174.9760  137.7730 C   0  0  1  0  0  3  0  0  0  0  0  0
  194.6000  174.8950  136.8220 C   0  0  2  0  0  0  0  0  0  0  0  0
  195.5520  172.8120  137.2270 C   0  0  0  0  0  2  0  0  0  0  0  0
  195.1900  173.4020  138.5740 C   0  0  0  0  0  2  0  0  0  0  0  0
  194.8550  174.8470  138.3050 C   0  0  2  0  0  3  0  0  0  0  0  0
  194.8980  173.6130  136.2000 N   0  0  0  0  0  2  0  0  0  0  0  0
  1 14  1  0  0  0  0
  2  9  1  0  0  0  0
  3 10  2  0  0  0  0
  4 13  2  0  0  0  0
  5 16  1  0  0  0  0
  6 12  2  0  0  0  0
  7  6  1  0  0  0  0
  7  2  2  0  0  0  0
  8 18  1  0  0  0  0
  8 19  1  0  0  0  0
  9  1  2  0  0  0  0
  9  4  1  0  0  0  0
 10 18  2  0  0  0  0
 11  5  1  0  0  0  0
 12  1  1  0  0  0  0
 13 20  1  0  0  0  0
 13 17  1  0  0  0  0
 14 20  2  0  0  0  0
 15  2  1  0  0  0  0
 15  8  2  0  0  0  0
 16 17  2  0  0  0  0
 17 23  1  0  0  0  0
 18 11  1  0  0  0  0
 19  4  1  0  0  0  0
 19  5  2  0  0  0  0
 21 27  1  0  0  0  0
 21 22  1  0  0  0  0
 23 25  1  0  0  0  0
 23 26  2  0  0  0  0
 24 22  2  0  0  0  0
 25 21  2  0  0  0  0
 26 24  1  0  0  0  0
 29  3  1  1  0  0  0
 29 33  1  0  0  0  0
 30 28  1  6  0  0  0
 30 29  1  0  0  0  0
 30 33  1  0  0  0  0
 31 32  1  0  0  0  0
 33 32  1  6  0  0  0
 34 30  1  0  0  0  0
 34 31  1  0  0  0  0
M  END
>  <MODEL>
1

>  <REMARK>
 VINA RESULT:     -11.9      0.000      0.000
  Name = 
  2 active torsions:
  status: ('A' for Active; 'I' for Inactive)
    1  A    between atoms: C_3  and  C_13
    2  A    between atoms: C_12  and  C_28
                            x       y       z     vdW  Elec       q    Type
                         _______ _______ _______ _____ _____    ______ ____

>  <TORSDO>
F 2

$$$$
=
 OpenBabel10272400023D

 34 41  0  0  1  0  0  0  0  0999 V2000
  184.2060  178.5520  144.5550 C   0  0  0  0  0  0  0  0  0  0  0  0
  184.1760  178.7730  142.1430 C   0  0  0  0  0  0  0  0  0  0  0  0
  186.7620  178.1210  137.3260 C   0  0  0  0  0  3  0  0  0  0  0  0
  186.2570  178.2950  143.3190 C   0  0  0  0  0  0  0  0  0  0  0  0
  188.2000  178.0090  141.9710 C   0  0  0  0  0  0  0  0  0  0  0  0
  182.2170  179.0170  143.4040 N   0  0  0  0  0  0  0  0  0  0  0  0
  182.8420  179.0060  142.2210 N   0  0  0  0  0  0  0  0  0  0  0  0
  186.2440  178.4930  140.9240 C   0  0  0  0  0  0  0  0  0  0  0  0
  184.8850  178.5450  143.3430 C   0  0  0  0  0  0  0  0  0  0  0  0
  187.0090  178.2460  138.6060 C   0  0  0  0  0  0  0  0  0  0  0  0
  188.5930  178.0100  140.5230 C   0  0  0  0  0  2  0  0  0  0  0  0
  182.8710  178.7940  144.5510 N   0  0  0  0  0  0  0  0  0  0  0  0
  187.0020  178.0380  144.4820 C   0  0  0  0  0  0  0  0  0  0  0  0
  184.9130  178.3000  145.7440 C   0  0  0  0  0  3  0  0  0  0  0  0
  184.8590  178.7450  140.8990 C   0  0  0  0  0  3  0  0  0  0  0  0
  188.9600  177.7450  143.0690 N   0  0  0  0  0  0  0  0  0  0  0  0
  188.4080  177.7620  144.3360 C   0  0  0  0  0  0  0  0  0  0  0  0
  187.2620  178.3640  139.8790 C   0  0  0  0  0  0  0  0  0  0  0  0
  186.8830  178.2820  142.1040 C   0  0  0  0  0  0  0  0  0  0  0  0
  186.3000  178.0410  145.7060 C   0  0  0  0  0  3  0  0  0  0  0  0
  189.8810  177.6340  147.8490 C   0  0  0  0  0  0  0  0  0  0  0  0
  191.0780  176.9540  147.6120 C   0  0  0  0  0  3  0  0  0  0  0  0
  189.3080  177.4770  145.4870 C   0  0  0  0  0  0  0  0  0  0  0  0
  191.3970  176.5390  146.3170 C   0  0  0  0  0  3  0  0  0  0  0  0
  189.0060  177.8970  146.7930 C   0  0  0  0  0  3  0  0  0  0  0  0
  190.5190  176.8020  145.2630 C   0  0  0  0  0  3  0  0  0  0  0  0
  189.5700  178.0410  149.1030 F   0  0  0  0  0  0  0  0  0  0  0  0
  184.8670  176.0300  137.3450 O   0  0  0  0  0  1  0  0  0  0  0  0
  187.1040  176.8950  136.5160 C   0  0  1  0  0  3  0  0  0  0  0  0
  186.0390  175.8150  136.6160 C   0  0  2  0  0  0  0  0  0  0  0  0
  186.5560  174.3060  134.9240 C   0  0  0  0  0  2  0  0  0  0  0  0
  186.7420  175.6950  134.3490 C   0  0  0  0  0  2  0  0  0  0  0  0
  186.1270  176.6340  135.3560 C   0  0  2  0  0  3  0  0  0  0  0  0
  186.4310  174.4350  136.3700 N   0  0  0  0  0  2  0  0  0  0  0  0
  1 14  1  0  0  0  0
  2  7  2  0  0  0  0
  2  9  1  0  0  0  0
  3 10  2  0  0  0  0
  4  9  1  0  0  0  0
  4 13  2  0  0  0  0
  5 19  2  0  0  0  0
  5 16  1  0  0  0  0
  6 12  2  0  0  0  0
  7  6  1  0  0  0  0
  8 19  1  0  0  0  0
  9  1  2  0  0  0  0
 10 18  2  0  0  0  0
 11  5  1  0  0  0  0
 12  1  1  0  0  0  0
 13 20  1  0  0  0  0
 15  8  2  0  0  0  0
 15  2  1  0  0  0  0
 16 17  2  0  0  0  0
 17 13  1  0  0  0  0
 17 23  1  0  0  0  0
 18 11  1  0  0  0  0
 18  8  1  0  0  0  0
 19  4  1  0  0  0  0
 20 14  2  0  0  0  0
 21 27  1  0  0  0  0
 22 21  1  0  0  0  0
 23 25  1  0  0  0  0
 24 22  2  0  0  0  0
 25 21  2  0  0  0  0
 26 23  2  0  0  0  0
 26 24  1  0  0  0  0
 29 30  1  0  0  0  0
 29  3  1  1  0  0  0
 30 28  1  1  0  0  0
 31 34  1  0  0  0  0
 32 31  1  0  0  0  0
 33 32  1  6  0  0  0
 33 29  1  0  0  0  0
 33 30  1  0  0  0  0
 34 30  1  0  0  0  0
M  END
>  <MODEL>
2

>  <REMARK>
 VINA RESULT:     -11.5      4.378      5.345
  Name = 
  2 active torsions:
  status: ('A' for Active; 'I' for Inactive)
    1  A    between atoms: C_3  and  C_13
    2  A    between atoms: C_12  and  C_28
                            x       y       z     vdW  Elec       q    Type
                         _______ _______ _______ _____ _____    ______ ____

>  <TORSDO>
F 2

$$$$
=
 OpenBabel10272400023D

 34 41  0  0  1  0  0  0  0  0999 V2000
  184.0950  178.5520  144.4990 C   0  0  0  0  0  0  0  0  0  0  0  0
  184.0890  178.7890  142.0880 C   0  0  0  0  0  0  0  0  0  0  0  0
  186.7270  178.1740  137.2940 C   0  0  0  0  0  3  0  0  0  0  0  0
  186.1590  178.3080  143.2830 C   0  0  0  0  0  0  0  0  0  0  0  0
  188.1170  178.0360  141.9530 C   0  0  0  0  0  0  0  0  0  0  0  0
  182.1160  179.0200  143.3300 N   0  0  0  0  0  0  0  0  0  0  0  0
  182.7540  179.0180  142.1540 N   0  0  0  0  0  0  0  0  0  0  0  0
  186.1700  178.5220  140.8880 C   0  0  0  0  0  0  0  0  0  0  0  0
  184.7860  178.5540  143.2940 C   0  0  0  0  0  0  0  0  0  0  0  0
  186.9600  178.2920  138.5770 C   0  0  0  0  0  0  0  0  0  0  0  0
  188.5250  178.0470  140.5090 C   0  0  0  0  0  2  0  0  0  0  0  0
  182.7590  178.7910  144.4820 N   0  0  0  0  0  0  0  0  0  0  0  0
  186.8930  178.0450  144.4520 C   0  0  0  0  0  0  0  0  0  0  0  0
  184.7900  178.2950  145.6930 C   0  0  0  0  0  3  0  0  0  0  0  0
  184.7850  178.7700  140.8510 C   0  0  0  0  0  3  0  0  0  0  0  0
  188.8660  177.7660  143.0580 N   0  0  0  0  0  0  0  0  0  0  0  0
  188.3010  177.7740  144.3190 C   0  0  0  0  0  0  0  0  0  0  0  0
  187.1990  178.4030  139.8540 C   0  0  0  0  0  0  0  0  0  0  0  0
  186.7980  178.3050  142.0740 C   0  0  0  0  0  0  0  0  0  0  0  0
  186.1780  178.0390  145.6680 C   0  0  0  0  0  3  0  0  0  0  0  0
  189.7420  177.6340  147.8450 C   0  0  0  0  0  0  0  0  0  0  0  0
  190.9380  176.9510  147.6170 C   0  0  0  0  0  3  0  0  0  0  0  0
  189.1900  177.4840  145.4770 C   0  0  0  0  0  0  0  0  0  0  0  0
  191.2680  176.5380  146.3240 C   0  0  0  0  0  3  0  0  0  0  0  0
  188.8770  177.9020  146.7810 C   0  0  0  0  0  3  0  0  0  0  0  0
  190.4010  176.8060  145.2620 C   0  0  0  0  0  3  0  0  0  0  0  0
  189.4200  178.0380  149.0960 F   0  0  0  0  0  0  0  0  0  0  0  0
  189.3560  178.0620  136.2760 O   0  0  0  0  0  1  0  0  0  0  0  0
  187.0810  176.9550  136.4800 C   0  0  1  0  0  3  0  0  0  0  0  0
  188.5060  177.0030  135.9500 C   0  0  2  0  0  0  0  0  0  0  0  0
  188.9370  174.8460  135.1970 C   0  0  0  0  0  2  0  0  0  0  0  0
  188.1970  174.7150  136.5120 C   0  0  0  0  0  2  0  0  0  0  0  0
  188.1930  176.0980  137.1120 C   0  0  2  0  0  3  0  0  0  0  0  0
  188.8240  176.2310  134.7580 N   0  0  0  0  0  2  0  0  0  0  0  0
  1 14  1  0  0  0  0
  2  7  2  0  0  0  0
  2  9  1  0  0  0  0
  3 10  2  0  0  0  0
  4  9  1  0  0  0  0
  4 13  2  0  0  0  0
  5 19  2  0  0  0  0
  5 16  1  0  0  0  0
  6 12  2  0  0  0  0
  7  6  1  0  0  0  0
  8 19  1  0  0  0  0
  9  1  2  0  0  0  0
 10 18  2  0  0  0  0
 11  5  1  0  0  0  0
 12  1  1  0  0  0  0
 13 20  1  0  0  0  0
 15  8  2  0  0  0  0
 15  2  1  0  0  0  0
 16 17  2  0  0  0  0
 17 13  1  0  0  0  0
 17 23  1  0  0  0  0
 18 11  1  0  0  0  0
 18  8  1  0  0  0  0
 19  4  1  0  0  0  0
 20 14  2  0  0  0  0
 21 27  1  0  0  0  0
 22 21  1  0  0  0  0
 23 25  1  0  0  0  0
 24 22  2  0  0  0  0
 25 21  2  0  0  0  0
 26 23  2  0  0  0  0
 26 24  1  0  0  0  0
 29 33  1  0  0  0  0
 29  3  1  1  0  0  0
 30 28  1  1  0  0  0
 30 29  1  0  0  0  0
 30 33  1  0  0  0  0
 31 32  1  0  0  0  0
 33 32  1  6  0  0  0
 34 31  1  0  0  0  0
 34 30  1  0  0  0  0
M  END
>  <MODEL>
3

>  <REMARK>
 VINA RESULT:     -11.2      3.654      4.630
  Name = 
  2 active torsions:
  status: ('A' for Active; 'I' for Inactive)
    1  A    between atoms: C_3  and  C_13
    2  A    between atoms: C_12  and  C_28
                            x       y       z     vdW  Elec       q    Type
                         _______ _______ _______ _____ _____    ______ ____

>  <TORSDO>
F 2

$$$$
=
 OpenBabel10272400023D

 34 41  0  0  1  0  0  0  0  0999 V2000
  185.4380  178.4140  145.7160 C   0  0  0  0  0  0  0  0  0  0  0  0
  185.0380  178.8030  143.3580 C   0  0  0  0  0  0  0  0  0  0  0  0
  186.7060  178.2200  138.1430 C   0  0  0  0  0  3  0  0  0  0  0  0
  187.2160  178.0320  144.1360 C   0  0  0  0  0  0  0  0  0  0  0  0
  188.8650  177.6400  142.4630 C   0  0  0  0  0  0  0  0  0  0  0  0
  183.3530  179.1610  144.9460 N   0  0  0  0  0  0  0  0  0  0  0  0
  183.7700  179.1670  143.6740 N   0  0  0  0  0  0  0  0  0  0  0  0
  186.8320  178.3950  141.7910 C   0  0  0  0  0  0  0  0  0  0  0  0
  185.9030  178.4200  144.4060 C   0  0  0  0  0  0  0  0  0  0  0  0
  187.1720  178.2310  139.3670 C   0  0  0  0  0  0  0  0  0  0  0  0
  189.0130  177.7000  140.9710 C   0  0  0  0  0  2  0  0  0  0  0  0
  184.1570  178.7930  145.9510 N   0  0  0  0  0  0  0  0  0  0  0  0
  188.1070  177.6190  145.1400 C   0  0  0  0  0  0  0  0  0  0  0  0
  186.2970  178.0090  146.7510 C   0  0  0  0  0  3  0  0  0  0  0  0
  185.4990  178.7900  142.0150 C   0  0  0  0  0  3  0  0  0  0  0  0
  189.7600  177.2230  143.4000 N   0  0  0  0  0  0  0  0  0  0  0  0
  189.4300  177.2100  144.7420 C   0  0  0  0  0  0  0  0  0  0  0  0
  187.6430  178.2340  140.5830 C   0  0  0  0  0  0  0  0  0  0  0  0
  187.6280  178.0390  142.8320 C   0  0  0  0  0  0  0  0  0  0  0  0
  187.6200  177.6110  146.4640 C   0  0  0  0  0  3  0  0  0  0  0  0
  191.6230  176.9130  147.8460 C   0  0  0  0  0  0  0  0  0  0  0  0
  192.4860  175.8840  147.4650 C   0  0  0  0  0  3  0  0  0  0  0  0
  190.4680  176.7550  145.7060 C   0  0  0  0  0  0  0  0  0  0  0  0
  192.3500  175.2920  146.2070 C   0  0  0  0  0  3  0  0  0  0  0  0
  190.6240  177.3480  146.9700 C   0  0  0  0  0  3  0  0  0  0  0  0
  191.3500  175.7280  145.3340 C   0  0  0  0  0  3  0  0  0  0  0  0
  191.7540  177.4920  149.0630 F   0  0  0  0  0  0  0  0  0  0  0  0
  188.7710  178.2180  136.2210 O   0  0  0  0  0  1  0  0  0  0  0  0
  186.7700  177.0250  137.2260 C   0  0  1  0  0  3  0  0  0  0  0  0
  187.8940  177.1320  136.2070 C   0  0  2  0  0  0  0  0  0  0  0  0
  188.0800  175.0010  135.2940 C   0  0  0  0  0  2  0  0  0  0  0  0
  187.8860  174.8280  136.7860 C   0  0  0  0  0  2  0  0  0  0  0  0
  188.0620  176.2020  137.3790 C   0  0  2  0  0  3  0  0  0  0  0  0
  187.7700  176.3860  134.9630 N   0  0  0  0  0  2  0  0  0  0  0  0
  1 12  1  0  0  0  0
  1 14  1  0  0  0  0
  2  7  2  0  0  0  0
  2  9  1  0  0  0  0
  3 10  2  0  0  0  0
  4  9  1  0  0  0  0
  4 13  2  0  0  0  0
  5 19  2  0  0  0  0
  5 16  1  0  0  0  0
  6 12  2  0  0  0  0
  7  6  1  0  0  0  0
  8 15  2  0  0  0  0
  8 19  1  0  0  0  0
  9  1  2  0  0  0  0
 10 18  2  0  0  0  0
 11  5  1  0  0  0  0
 13 20  1  0  0  0  0
 15  2  1  0  0  0  0
 16 17  2  0  0  0  0
 17 13  1  0  0  0  0
 17 23  1  0  0  0  0
 18 11  1  0  0  0  0
 18  8  1  0  0  0  0
 19  4  1  0  0  0  0
 20 14  2  0  0  0  0
 21 27  1  0  0  0  0
 22 21  1  0  0  0  0
 23 25  1  0  0  0  0
 24 22  2  0  0  0  0
 25 21  2  0  0  0  0
 26 23  2  0  0  0  0
 26 24  1  0  0  0  0
 29 33  1  0  0  0  0
 29  3  1  1  0  0  0
 30 28  1  6  0  0  0
 30 29  1  0  0  0  0
 30 33  1  0  0  0  0
 31 32  1  0  0  0  0
 33 32  1  6  0  0  0
 34 31  1  0  0  0  0
 34 30  1  0  0  0  0
M  END
>  <MODEL>
4

>  <REMARK>
 VINA RESULT:     -11.0      3.920      5.170
  Name = 
  2 active torsions:
  status: ('A' for Active; 'I' for Inactive)
    1  A    between atoms: C_3  and  C_13
    2  A    between atoms: C_12  and  C_28
                            x       y       z     vdW  Elec       q    Type
                         _______ _______ _______ _____ _____    ______ ____

>  <TORSDO>
F 2

$$$$
=
 OpenBabel10272400023D

 34 41  0  0  1  0  0  0  0  0999 V2000
  185.6190  178.7700  141.2360 C   0  0  0  0  0  0  0  0  0  0  0  0
  187.0810  178.3860  139.3430 C   0  0  0  0  0  0  0  0  0  0  0  0
  191.8150  176.3660  137.3860 C   0  0  0  0  0  3  0  0  0  0  0  0
  187.8890  178.0620  141.6190 C   0  0  0  0  0  0  0  0  0  0  0  0
  190.1360  177.3070  141.8540 C   0  0  0  0  0  0  0  0  0  0  0  0
  184.8640  179.0810  139.0370 N   0  0  0  0  0  0  0  0  0  0  0  0
  186.0520  178.7300  138.5290 N   0  0  0  0  0  0  0  0  0  0  0  0
  189.3490  177.6590  139.7520 C   0  0  0  0  0  0  0  0  0  0  0  0
  186.8660  178.4110  140.7380 C   0  0  0  0  0  0  0  0  0  0  0  0
  191.2700  176.7870  138.5000 C   0  0  0  0  0  0  0  0  0  0  0  0
  191.3040  176.9180  140.9950 C   0  0  0  0  0  2  0  0  0  0  0  0
  184.6400  179.1020  140.3570 N   0  0  0  0  0  0  0  0  0  0  0  0
  187.7180  178.0480  143.0140 C   0  0  0  0  0  0  0  0  0  0  0  0
  185.4050  178.7700  142.6250 C   0  0  0  0  0  3  0  0  0  0  0  0
  188.3460  177.9980  138.8260 C   0  0  0  0  0  3  0  0  0  0  0  0
  190.0140  177.2680  143.2090 N   0  0  0  0  0  0  0  0  0  0  0  0
  188.8350  177.6400  143.8270 C   0  0  0  0  0  0  0  0  0  0  0  0
  190.7320  177.1990  139.6140 C   0  0  0  0  0  0  0  0  0  0  0  0
  189.0960  177.7010  141.0870 C   0  0  0  0  0  0  0  0  0  0  0  0
  186.4460  178.4070  143.5060 C   0  0  0  0  0  3  0  0  0  0  0  0
  189.8350  177.2190  147.4810 C   0  0  0  0  0  0  0  0  0  0  0  0
  188.6140  177.4450  148.1190 C   0  0  0  0  0  3  0  0  0  0  0  0
  188.7850  177.5850  145.3130 C   0  0  0  0  0  0  0  0  0  0  0  0
  187.4760  177.7350  147.3620 C   0  0  0  0  0  3  0  0  0  0  0  0
  189.9180  177.2850  146.0880 C   0  0  0  0  0  3  0  0  0  0  0  0
  187.5620  177.8010  145.9700 C   0  0  0  0  0  3  0  0  0  0  0  0
  190.9390  176.9350  148.2110 F   0  0  0  0  0  0  0  0  0  0  0  0
  190.8850  175.0640  135.0630 O   0  0  0  0  0  1  0  0  0  0  0  0
  192.3020  174.9560  137.1650 C   0  0  1  0  0  3  0  0  0  0  0  0
  191.7210  174.3300  135.9070 C   0  0  2  0  0  0  0  0  0  0  0  0
  192.9940  172.4170  135.5470 C   0  0  0  0  0  2  0  0  0  0  0  0
  193.9530  173.5170  135.9530 C   0  0  0  0  0  2  0  0  0  0  0  0
  193.1530  174.7930  135.8930 C   0  0  2  0  0  3  0  0  0  0  0  0
  191.6410  172.8780  135.8330 N   0  0  0  0  0  2  0  0  0  0  0  0
  1 14  1  0  0  0  0
  2  9  1  0  0  0  0
  3 10  2  0  0  0  0
  4 13  2  0  0  0  0
  5 16  1  0  0  0  0
  6 12  2  0  0  0  0
  7  6  1  0  0  0  0
  7  2  2  0  0  0  0
  8 19  1  0  0  0  0
  9  1  2  0  0  0  0
  9  4  1  0  0  0  0
 10 18  2  0  0  0  0
 11  5  1  0  0  0  0
 12  1  1  0  0  0  0
 13 20  1  0  0  0  0
 13 17  1  0  0  0  0
 14 20  2  0  0  0  0
 15  2  1  0  0  0  0
 15  8  2  0  0  0  0
 16 17  2  0  0  0  0
 17 23  1  0  0  0  0
 18  8  1  0  0  0  0
 18 11  1  0  0  0  0
 19  4  1  0  0  0  0
 19  5  2  0  0  0  0
 21 22  1  0  0  0  0
 21 27  1  0  0  0  0
 23 26  2  0  0  0  0
 23 25  1  0  0  0  0
 24 22  2  0  0  0  0
 25 21  2  0  0  0  0
 26 24  1  0  0  0  0
 29  3  1  6  0  0  0
 30 28  1  6  0  0  0
 30 29  1  0  0  0  0
 31 34  1  0  0  0  0
 31 32  1  0  0  0  0
 33 30  1  0  0  0  0
 33 32  1  1  0  0  0
 33 29  1  0  0  0  0
 34 30  1  0  0  0  0
M  END
>  <MODEL>
5

>  <REMARK>
 VINA RESULT:     -11.0      1.689      1.988
  Name = 
  2 active torsions:
  status: ('A' for Active; 'I' for Inactive)
    1  A    between atoms: C_3  and  C_13
    2  A    between atoms: C_12  and  C_28
                            x       y       z     vdW  Elec       q    Type
                         _______ _______ _______ _____ _____    ______ ____

>  <TORSDO>
F 2

$$$$
=
 OpenBabel10272400023D

 34 41  0  0  1  0  0  0  0  0999 V2000
  189.4070  177.0740  145.4180 C   0  0  0  0  0  0  0  0  0  0  0  0
  187.0970  177.7960  145.3220 C   0  0  0  0  0  0  0  0  0  0  0  0
  182.6390  178.9220  142.2910 C   0  0  0  0  0  3  0  0  0  0  0  0
  188.4360  177.6520  143.2900 C   0  0  0  0  0  0  0  0  0  0  0  0
  187.3350  178.1970  141.2500 C   0  0  0  0  0  0  0  0  0  0  0  0
  188.1020  177.2260  147.3600 N   0  0  0  0  0  0  0  0  0  0  0  0
  187.0340  177.6400  146.6680 N   0  0  0  0  0  0  0  0  0  0  0  0
  186.1390  178.3530  143.1740 C   0  0  0  0  0  0  0  0  0  0  0  0
  188.3190  177.5120  144.6740 C   0  0  0  0  0  0  0  0  0  0  0  0
  183.9420  178.8280  142.1920 C   0  0  0  0  0  0  0  0  0  0  0  0
  185.9800  178.6170  140.7620 C   0  0  0  0  0  2  0  0  0  0  0  0
  189.2660  176.9440  146.7610 N   0  0  0  0  0  0  0  0  0  0  0  0
  189.6210  177.3580  142.5960 C   0  0  0  0  0  0  0  0  0  0  0  0
  190.6130  176.7710  144.7630 C   0  0  0  0  0  3  0  0  0  0  0  0
  185.9730  178.2230  144.5660 C   0  0  0  0  0  3  0  0  0  0  0  0
  188.4590  177.9150  140.5340 N   0  0  0  0  0  0  0  0  0  0  0  0
  189.6190  177.5090  141.1640 C   0  0  0  0  0  0  0  0  0  0  0  0
  185.2380  178.7320  142.0850 C   0  0  0  0  0  0  0  0  0  0  0  0
  187.3360  178.0710  142.5950 C   0  0  0  0  0  0  0  0  0  0  0  0
  190.7170  176.9080  143.3620 C   0  0  0  0  0  3  0  0  0  0  0  0
  191.8540  176.2630  138.3380 C   0  0  0  0  0  0  0  0  0  0  0  0
  193.1050  176.7030  138.7740 C   0  0  0  0  0  3  0  0  0  0  0  0
  190.8090  177.2340  140.3130 C   0  0  0  0  0  0  0  0  0  0  0  0
  193.2160  177.4030  139.9780 C   0  0  0  0  0  3  0  0  0  0  0  0
  190.7150  176.5230  139.1050 C   0  0  0  0  0  3  0  0  0  0  0  0
  192.0760  177.6630  140.7420 C   0  0  0  0  0  3  0  0  0  0  0  0
  191.7430  175.5810  137.1730 F   0  0  0  0  0  0  0  0  0  0  0  0
  181.8020  179.8350  139.7570 O   0  0  0  0  0  1  0  0  0  0  0  0
  181.6710  178.0390  141.5450 C   0  0  1  0  0  3  0  0  0  0  0  0
  181.2550  178.6320  140.2070 C   0  0  2  0  0  0  0  0  0  0  0  0
  180.2050  176.8900  139.0810 C   0  0  0  0  0  2  0  0  0  0  0  0
  181.4290  176.3050  139.7560 C   0  0  0  0  0  2  0  0  0  0  0  0
  182.2360  177.4890  140.2220 C   0  0  2  0  0  3  0  0  0  0  0  0
  179.9820  178.2190  139.6360 N   0  0  0  0  0  2  0  0  0  0  0  0
  1 12  1  0  0  0  0
  2  7  2  0  0  0  0
  4  9  1  0  0  0  0
  5 19  1  0  0  0  0
  7  6  1  0  0  0  0
  8 15  2  0  0  0  0
  9  2  1  0  0  0  0
  9  1  2  0  0  0  0
 10  3  2  0  0  0  0
 11  5  1  0  0  0  0
 11 18  1  0  0  0  0
 12  6  2  0  0  0  0
 13  4  1  0  0  0  0
 13 20  1  0  0  0  0
 14  1  1  0  0  0  0
 15  2  1  0  0  0  0
 16 17  1  0  0  0  0
 16  5  2  0  0  0  0
 17 13  2  0  0  0  0
 18 10  2  0  0  0  0
 18  8  1  0  0  0  0
 19  8  1  0  0  0  0
 19  4  2  0  0  0  0
 20 14  2  0  0  0  0
 21 22  2  0  0  0  0
 21 25  1  0  0  0  0
 22 24  1  0  0  0  0
 23 26  1  0  0  0  0
 23 17  1  0  0  0  0
 24 26  2  0  0  0  0
 25 23  2  0  0  0  0
 27 21  1  0  0  0  0
 29  3  1  1  0  0  0
 30 28  1  6  0  0  0
 30 33  1  0  0  0  0
 30 29  1  0  0  0  0
 31 34  1  0  0  0  0
 31 32  1  0  0  0  0
 33 32  1  6  0  0  0
 33 29  1  0  0  0  0
 34 30  1  0  0  0  0
M  END
>  <MODEL>
6

>  <REMARK>
 VINA RESULT:     -10.7      4.178      9.096
  Name = 
  2 active torsions:
  status: ('A' for Active; 'I' for Inactive)
    1  A    between atoms: C_3  and  C_13
    2  A    between atoms: C_12  and  C_28
                            x       y       z     vdW  Elec       q    Type
                         _______ _______ _______ _____ _____    ______ ____

>  <TORSDO>
F 2

$$$$
=
 OpenBabel10272400023D

 34 41  0  0  1  0  0  0  0  0999 V2000
  190.1180  177.6620  140.9220 C   0  0  0  0  0  0  0  0  0  0  0  0
  188.2330  177.9790  139.4350 C   0  0  0  0  0  0  0  0  0  0  0  0
  182.9390  179.3400  138.7700 C   0  0  0  0  0  3  0  0  0  0  0  0
  187.9110  177.9260  141.8500 C   0  0  0  0  0  0  0  0  0  0  0  0
  185.6860  178.2550  142.6350 C   0  0  0  0  0  0  0  0  0  0  0  0
  190.4040  177.7110  138.5960 N   0  0  0  0  0  0  0  0  0  0  0  0
  189.0950  177.9020  138.3910 N   0  0  0  0  0  0  0  0  0  0  0  0
  186.0310  178.2580  140.3900 C   0  0  0  0  0  0  0  0  0  0  0  0
  188.7530  177.8490  140.7410 C   0  0  0  0  0  0  0  0  0  0  0  0
  183.7730  178.9090  139.6830 C   0  0  0  0  0  0  0  0  0  0  0  0
  184.3130  178.5210  142.0910 C   0  0  0  0  0  2  0  0  0  0  0  0
  190.9160  177.5950  139.8270 N   0  0  0  0  0  0  0  0  0  0  0  0
  188.3830  177.8280  143.1700 C   0  0  0  0  0  0  0  0  0  0  0  0
  190.6330  177.5580  142.2260 C   0  0  0  0  0  3  0  0  0  0  0  0
  186.8420  178.1930  139.2420 C   0  0  0  0  0  3  0  0  0  0  0  0
  186.0990  178.1760  143.9300 N   0  0  0  0  0  0  0  0  0  0  0  0
  187.4270  177.9520  144.2400 C   0  0  0  0  0  0  0  0  0  0  0  0
  184.5990  178.4840  140.5980 C   0  0  0  0  0  0  0  0  0  0  0  0
  186.5770  178.1250  141.6270 C   0  0  0  0  0  0  0  0  0  0  0  0
  189.7710  177.6450  143.3410 C   0  0  0  0  0  3  0  0  0  0  0  0
  189.3560  177.2910  147.4600 C   0  0  0  0  0  0  0  0  0  0  0  0
  188.4140  177.6720  148.4180 C   0  0  0  0  0  3  0  0  0  0  0  0
  187.7960  177.8640  145.6790 C   0  0  0  0  0  0  0  0  0  0  0  0
  187.1630  178.1430  148.0150 C   0  0  0  0  0  3  0  0  0  0  0  0
  189.0460  177.3830  146.1010 C   0  0  0  0  0  3  0  0  0  0  0  0
  186.8560  178.2350  146.6550 C   0  0  0  0  0  3  0  0  0  0  0  0
  190.5690  176.8310  147.8480 F   0  0  0  0  0  0  0  0  0  0  0  0
  181.2000  179.9450  136.6320 O   0  0  0  0  0  1  0  0  0  0  0  0
  182.2140  180.6600  138.8460 C   0  0  1  0  0  3  0  0  0  0  0  0
  181.3280  180.9080  137.6350 C   0  0  2  0  0  0  0  0  0  0  0  0
  179.9820  182.7070  138.2360 C   0  0  0  0  0  2  0  0  0  0  0  0
  180.0620  181.7930  139.4410 C   0  0  0  0  0  2  0  0  0  0  0  0
  180.6840  180.5150  138.9380 C   0  0  2  0  0  3  0  0  0  0  0  0
  181.0050  182.2840  137.2870 N   0  0  0  0  0  2  0  0  0  0  0  0
  1 14  1  0  0  0  0
  2  9  1  0  0  0  0
  3 10  2  0  0  0  0
  4 13  2  0  0  0  0
  5 16  1  0  0  0  0
  6 12  2  0  0  0  0
  7  6  1  0  0  0  0
  7  2  2  0  0  0  0
  8 18  1  0  0  0  0
  8 19  1  0  0  0  0
  9  1  2  0  0  0  0
  9  4  1  0  0  0  0
 10 18  2  0  0  0  0
 11  5  1  0  0  0  0
 12  1  1  0  0  0  0
 13 20  1  0  0  0  0
 13 17  1  0  0  0  0
 14 20  2  0  0  0  0
 15  2  1  0  0  0  0
 15  8  2  0  0  0  0
 16 17  2  0  0  0  0
 17 23  1  0  0  0  0
 18 11  1  0  0  0  0
 19  4  1  0  0  0  0
 19  5  2  0  0  0  0
 21 27  1  0  0  0  0
 21 22  1  0  0  0  0
 23 25  1  0  0  0  0
 23 26  2  0  0  0  0
 24 22  2  0  0  0  0
 25 21  2  0  0  0  0
 26 24  1  0  0  0  0
 29  3  1  6  0  0  0
 29 33  1  0  0  0  0
 30 28  1  6  0  0  0
 30 29  1  0  0  0  0
 30 33  1  0  0  0  0
 31 32  1  0  0  0  0
 33 32  1  1  0  0  0
 34 30  1  0  0  0  0
 34 31  1  0  0  0  0
M  END
>  <MODEL>
7

>  <REMARK>
 VINA RESULT:     -10.3      4.181      8.157
  Name = 
  2 active torsions:
  status: ('A' for Active; 'I' for Inactive)
    1  A    between atoms: C_3  and  C_13
    2  A    between atoms: C_12  and  C_28
                            x       y       z     vdW  Elec       q    Type
                         _______ _______ _______ _____ _____    ______ ____

>  <TORSDO>
F 2

$$$$
=
 OpenBabel10272400023D

 34 41  0  0  1  0  0  0  0  0999 V2000
  181.8870  178.8500  143.3600 C   0  0  0  0  0  0  0  0  0  0  0  0
  182.4390  178.8570  141.0010 C   0  0  0  0  0  0  0  0  0  0  0  0
  186.1660  178.0010  137.0380 C   0  0  0  0  0  3  0  0  0  0  0  0
  184.1910  178.6550  142.6840 C   0  0  0  0  0  0  0  0  0  0  0  0
  186.4190  178.4130  141.8780 C   0  0  0  0  0  0  0  0  0  0  0  0
  180.2190  179.0480  141.7230 N   0  0  0  0  0  0  0  0  0  0  0  0
  181.1170  178.9860  140.7330 N   0  0  0  0  0  0  0  0  0  0  0  0
  184.7570  178.6420  140.3480 C   0  0  0  0  0  0  0  0  0  0  0  0
  182.8430  178.7930  142.3530 C   0  0  0  0  0  0  0  0  0  0  0  0
  186.0820  178.2570  138.3200 C   0  0  0  0  0  0  0  0  0  0  0  0
  187.1560  178.3200  140.5740 C   0  0  0  0  0  2  0  0  0  0  0  0
  180.5830  178.9810  143.0100 N   0  0  0  0  0  0  0  0  0  0  0  0
  184.6400  178.5630  144.0130 C   0  0  0  0  0  0  0  0  0  0  0  0
  182.2930  178.7620  144.7030 C   0  0  0  0  0  3  0  0  0  0  0  0
  183.4090  178.7760  139.9660 C   0  0  0  0  0  3  0  0  0  0  0  0
  186.8990  178.3090  143.1480 N   0  0  0  0  0  0  0  0  0  0  0  0
  186.0530  178.3910  144.2370 C   0  0  0  0  0  0  0  0  0  0  0  0
  186.0060  178.5060  139.5970 C   0  0  0  0  0  0  0  0  0  0  0  0
  185.0970  178.5880  141.6620 C   0  0  0  0  0  0  0  0  0  0  0  0
  183.6590  178.6150  145.0250 C   0  0  0  0  0  3  0  0  0  0  0  0
  188.2650  177.3280  147.1530 C   0  0  0  0  0  0  0  0  0  0  0  0
  187.7200  178.0860  148.1920 C   0  0  0  0  0  3  0  0  0  0  0  0
  186.6560  178.2830  145.5930 C   0  0  0  0  0  0  0  0  0  0  0  0
  186.6420  178.9380  147.9390 C   0  0  0  0  0  3  0  0  0  0  0  0
  187.7340  177.4230  145.8640 C   0  0  0  0  0  3  0  0  0  0  0  0
  186.1130  179.0320  146.6500 C   0  0  0  0  0  3  0  0  0  0  0  0
  189.3080  176.4990  147.3950 F   0  0  0  0  0  0  0  0  0  0  0  0
  184.7460  176.7700  134.9340 O   0  0  0  0  0  1  0  0  0  0  0  0
  186.7680  176.7410  136.4670 C   0  0  1  0  0  3  0  0  0  0  0  0
  185.9150  176.1370  135.3630 C   0  0  2  0  0  0  0  0  0  0  0  0
  187.2830  174.5560  134.3460 C   0  0  0  0  0  2  0  0  0  0  0  0
  188.1390  175.7780  134.6070 C   0  0  0  0  0  2  0  0  0  0  0  0
  187.1740  176.8720  134.9880 C   0  0  2  0  0  3  0  0  0  0  0  0
  186.0430  174.7120  135.0940 N   0  0  0  0  0  2  0  0  0  0  0  0
  1 14  1  0  0  0  0
  2  9  1  0  0  0  0
  3 10  2  0  0  0  0
  4 13  2  0  0  0  0
  5 16  1  0  0  0  0
  6 12  2  0  0  0  0
  7  2  2  0  0  0  0
  7  6  1  0  0  0  0
  8 19  1  0  0  0  0
  9  4  1  0  0  0  0
  9  1  2  0  0  0  0
 10 18  2  0  0  0  0
 11  5  1  0  0  0  0
 12  1  1  0  0  0  0
 13 17  1  0  0  0  0
 13 20  1  0  0  0  0
 14 20  2  0  0  0  0
 15  8  2  0  0  0  0
 15  2  1  0  0  0  0
 16 17  2  0  0  0  0
 17 23  1  0  0  0  0
 18  8  1  0  0  0  0
 18 11  1  0  0  0  0
 19  5  2  0  0  0  0
 19  4  1  0  0  0  0
 21 27  1  0  0  0  0
 21 22  1  0  0  0  0
 23 25  1  0  0  0  0
 23 26  2  0  0  0  0
 24 22  2  0  0  0  0
 25 21  2  0  0  0  0
 26 24  1  0  0  0  0
 29  3  1  6  0  0  0
 30 28  1  6  0  0  0
 30 29  1  0  0  0  0
 31 32  1  0  0  0  0
 31 34  1  0  0  0  0
 33 32  1  1  0  0  0
 33 30  1  0  0  0  0
 33 29  1  0  0  0  0
 34 30  1  0  0  0  0
M  END
>  <MODEL>
8

>  <REMARK>
 VINA RESULT:     -10.1      4.654      5.724
  Name = 
  2 active torsions:
  status: ('A' for Active; 'I' for Inactive)
    1  A    between atoms: C_3  and  C_13
    2  A    between atoms: C_12  and  C_28
                            x       y       z     vdW  Elec       q    Type
                         _______ _______ _______ _____ _____    ______ ____

>  <TORSDO>
F 2

$$$$
=
 OpenBabel10272400023D

 34 41  0  0  1  0  0  0  0  0999 V2000
  188.6460  178.2550  139.9350 C   0  0  0  0  0  0  0  0  0  0  0  0
  186.7860  178.3670  138.3870 C   0  0  0  0  0  0  0  0  0  0  0  0
  181.4100  179.2110  137.5450 C   0  0  0  0  0  3  0  0  0  0  0  0
  186.3970  178.3240  140.7930 C   0  0  0  0  0  0  0  0  0  0  0  0
  184.1280  178.4540  141.5070 C   0  0  0  0  0  0  0  0  0  0  0  0
  188.9970  178.2930  137.6160 N   0  0  0  0  0  0  0  0  0  0  0  0
  187.6830  178.3550  137.3700 N   0  0  0  0  0  0  0  0  0  0  0  0
  184.5390  178.4530  139.2730 C   0  0  0  0  0  0  0  0  0  0  0  0
  187.2760  178.3090  139.7100 C   0  0  0  0  0  0  0  0  0  0  0  0
  182.2530  178.8750  138.4890 C   0  0  0  0  0  0  0  0  0  0  0  0
  182.7540  178.5800  140.9190 C   0  0  0  0  0  2  0  0  0  0  0  0
  189.4800  178.2450  138.8650 N   0  0  0  0  0  0  0  0  0  0  0  0
  186.8360  178.2930  142.1280 C   0  0  0  0  0  0  0  0  0  0  0  0
  189.1290  178.2210  141.2550 C   0  0  0  0  0  3  0  0  0  0  0  0
  185.3880  178.4460  138.1510 C   0  0  0  0  0  3  0  0  0  0  0  0
  184.5070  178.4360  142.8150 N   0  0  0  0  0  0  0  0  0  0  0  0
  185.8400  178.3440  143.1670 C   0  0  0  0  0  0  0  0  0  0  0  0
  183.0870  178.5460  139.4360 C   0  0  0  0  0  0  0  0  0  0  0  0
  185.0570  178.3930  140.5280 C   0  0  0  0  0  0  0  0  0  0  0  0
  188.2290  178.2450  142.3420 C   0  0  0  0  0  3  0  0  0  0  0  0
  187.5710  177.6080  146.4820 C   0  0  0  0  0  0  0  0  0  0  0  0
  186.7160  178.2520  147.3790 C   0  0  0  0  0  3  0  0  0  0  0  0
  186.1720  178.3140  144.6170 C   0  0  0  0  0  0  0  0  0  0  0  0
  185.5870  178.9230  146.9030 C   0  0  0  0  0  3  0  0  0  0  0  0
  187.2980  177.6360  145.1120 C   0  0  0  0  0  3  0  0  0  0  0  0
  185.3160  178.9500  145.5320 C   0  0  0  0  0  3  0  0  0  0  0  0
  188.6650  176.9540  146.9400 F   0  0  0  0  0  0  0  0  0  0  0  0
  182.6630  181.5620  138.4730 O   0  0  0  0  0  1  0  0  0  0  0  0
  180.5620  180.4580  137.5740 C   0  0  1  0  0  3  0  0  0  0  0  0
  181.3160  181.6610  138.1190 C   0  0  2  0  0  0  0  0  0  0  0  0
  179.9840  183.4920  137.5880 C   0  0  0  0  0  2  0  0  0  0  0  0
  179.9830  182.5790  136.3790 C   0  0  0  0  0  2  0  0  0  0  0  0
  181.0700  181.5680  136.6370 C   0  0  2  0  0  3  0  0  0  0  0  0
  180.5460  182.7480  138.7080 N   0  0  0  0  0  2  0  0  0  0  0  0
  1 14  1  0  0  0  0
  2  9  1  0  0  0  0
  3 10  2  0  0  0  0
  4 13  2  0  0  0  0
  5 16  1  0  0  0  0
  6 12  2  0  0  0  0
  7  6  1  0  0  0  0
  7  2  2  0  0  0  0
  8 18  1  0  0  0  0
  8 19  1  0  0  0  0
  9  1  2  0  0  0  0
  9  4  1  0  0  0  0
 10 18  2  0  0  0  0
 11  5  1  0  0  0  0
 12  1  1  0  0  0  0
 13 20  1  0  0  0  0
 13 17  1  0  0  0  0
 14 20  2  0  0  0  0
 15  2  1  0  0  0  0
 15  8  2  0  0  0  0
 16 17  2  0  0  0  0
 17 23  1  0  0  0  0
 18 11  1  0  0  0  0
 19  4  1  0  0  0  0
 19  5  2  0  0  0  0
 21 27  1  0  0  0  0
 21 22  1  0  0  0  0
 23 25  1  0  0  0  0
 23 26  2  0  0  0  0
 24 22  2  0  0  0  0
 25 21  2  0  0  0  0
 26 24  1  0  0  0  0
 29  3  1  6  0  0  0
 29 30  1  0  0  0  0
 30 28  1  1  0  0  0
 30 34  1  0  0  0  0
 31 34  1  0  0  0  0
 32 31  1  0  0  0  0
 33 32  1  1  0  0  0
 33 29  1  0  0  0  0
 33 30  1  0  0  0  0
M  END
>  <MODEL>
9

>  <REMARK>
 VINA RESULT:      -9.4      4.472      8.545
  Name = 
  2 active torsions:
  status: ('A' for Active; 'I' for Inactive)
    1  A    between atoms: C_3  and  C_13
    2  A    between atoms: C_12  and  C_28
                            x       y       z     vdW  Elec       q    Type
                         _______ _______ _______ _____ _____    ______ ____

>  <TORSDO>
F 2

$$$$
