=
 OpenBabel10272401533D

 28 31  0  0  1  0  0  0  0  0999 V2000
  186.9520  177.8320  145.8710 C   0  0  0  0  0  0  0  0  0  0  0  0
  188.3720  178.1470  140.7500 C   0  0  0  0  0  2  0  0  0  0  0  0
  191.7070  177.2990  145.8190 O   0  0  0  0  0  0  0  0  0  0  0  0
  190.7980  177.6400  140.8790 C   0  0  2  0  0  3  0  0  0  0  0  0
  189.4330  177.9120  143.0100 C   0  0  1  0  0  3  0  0  0  0  0  0
  189.5360  177.3350  138.6970 C   0  0  0  0  0  0  0  0  0  0  0  0
  189.4420  177.4130  141.5570 C   0  0  1  0  0  3  0  0  0  0  0  0
  191.9500  177.6310  143.0700 C   0  0  0  0  0  2  0  0  0  0  0  0
  190.7950  177.0350  139.4750 C   0  0  0  0  0  2  0  0  0  0  0  0
  189.3670  177.6380  145.8930 C   0  0  0  0  0  0  0  0  0  0  0  0
  188.1760  177.3670  143.6990 C   0  0  0  0  0  2  0  0  0  0  0  0
  191.9040  176.9940  141.6930 C   0  0  0  0  0  2  0  0  0  0  0  0
  188.2040  178.0250  147.9270 C   0  0  0  0  0  3  0  0  0  0  0  0
  190.6370  177.4670  145.1730 C   0  0  0  0  0  0  0  0  0  0  0  0
  189.3600  177.8260  147.2400 N   0  0  0  0  0  0  0  0  0  0  0  0
  189.4910  177.0090  137.3810 F   0  0  0  0  0  0  0  0  0  0  0  0
  188.4140  177.7650  139.2950 C   0  0  0  0  0  3  0  0  0  0  0  0
  190.6530  177.5070  143.7350 N   0  0  0  0  0  0  0  0  0  0  0  0
  186.9830  178.0370  147.2540 C   0  0  0  0  0  3  0  0  0  0  0  0
  188.1610  177.6510  145.1740 C   0  0  0  0  0  0  0  0  0  0  0  0
  185.6220  177.8390  145.1550 C   0  0  0  0  0  2  0  0  0  0  0  0
  184.9030  179.1200  145.2430 N   0  0  0  0  0  0  0  0  0  0  0  0
  183.9350  178.9970  146.1880 O   0  0  0  0  0  1  0  0  0  0  0  0
  182.8520  178.9750  143.9060 C   0  0  0  0  0  1  0  0  0  0  0  0
  184.2930  179.4620  143.9460 C   0  0  2  0  0  3  0  0  0  0  0  0
  185.0280  178.8470  142.7480 C   0  0  1  0  0  3  0  0  0  0  0  0
  184.0740  178.0890  141.8430 C   0  0  0  0  0  1  0  0  0  0  0  0
  185.7200  179.8170  142.0190 O   0  0  0  0  0  1  0  0  0  0  0  0
  1 19  1  0  0  0  0
  4  9  1  6  0  0  0
  4  7  1  0  0  0  0
  4 12  1  0  0  0  0
  5 11  1  1  0  0  0
  5 18  1  0  0  0  0
  6 17  2  0  0  0  0
  6  9  1  0  0  0  0
  7  2  1  6  0  0  0
  7  5  1  0  0  0  0
  8 18  1  0  0  0  0
 10 15  2  0  0  0  0
 11 20  1  0  0  0  0
 12  8  1  0  0  0  0
 14  3  2  0  0  0  0
 14 10  1  0  0  0  0
 15 13  1  0  0  0  0
 16  6  1  0  0  0  0
 17  2  1  0  0  0  0
 18 14  1  0  0  0  0
 19 13  2  0  0  0  0
 20  1  2  0  0  0  0
 20 10  1  0  0  0  0
 21 22  1  0  0  0  0
 21  1  1  0  0  0  0
 22 23  1  0  0  0  0
 25 24  1  1  0  0  0
 25 22  1  0  0  0  0
 26 27  1  6  0  0  0
 26 25  1  0  0  0  0
 28 26  1  0  0  0  0
M  END
>  <MODEL>
1

>  <REMARK>
 VINA RESULT:      -9.9      0.000      0.000
  Name = 
  4 active torsions:
  status: ('A' for Active; 'I' for Inactive)
    1  A    between atoms: C_1  and  C_2
    2  A    between atoms: C_2  and  N_3
    3  A    between atoms: N_3  and  C_11
    4  A    between atoms: C_6  and  C_11
                            x       y       z     vdW  Elec       q    Type
                         _______ _______ _______ _____ _____    ______ ____

>  <TORSDO>
F 4

$$$$
=
 OpenBabel10272401533D

 28 31  0  0  1  0  0  0  0  0999 V2000
  185.9400  178.1340  142.2230 C   0  0  0  0  0  0  0  0  0  0  0  0
  190.4310  177.3310  144.9650 C   0  0  0  0  0  2  0  0  0  0  0  0
  184.7380  178.6160  146.8300 O   0  0  0  0  0  0  0  0  0  0  0  0
  189.6000  177.3980  147.3030 C   0  0  2  0  0  3  0  0  0  0  0  0
  188.0350  177.9480  145.3730 C   0  0  1  0  0  3  0  0  0  0  0  0
  191.7980  176.2520  146.7530 C   0  0  0  0  0  0  0  0  0  0  0  0
  189.2120  177.0850  145.8530 C   0  0  1  0  0  3  0  0  0  0  0  0
  187.3190  178.2280  147.7860 C   0  0  0  0  0  2  0  0  0  0  0  0
  190.7010  176.4460  147.7720 C   0  0  0  0  0  2  0  0  0  0  0  0
  185.3090  178.4640  144.5390 C   0  0  0  0  0  0  0  0  0  0  0  0
  187.5130  177.3620  144.0560 C   0  0  0  0  0  2  0  0  0  0  0  0
  188.3940  177.2450  148.2120 C   0  0  0  0  0  2  0  0  0  0  0  0
  183.8240  179.1400  142.8140 C   0  0  0  0  0  3  0  0  0  0  0  0
  185.6290  178.3730  145.9710 C   0  0  0  0  0  0  0  0  0  0  0  0
  184.1300  179.0070  144.1310 N   0  0  0  0  0  0  0  0  0  0  0  0
  192.9160  175.5770  147.1210 F   0  0  0  0  0  0  0  0  0  0  0  0
  191.6390  176.5840  145.4630 C   0  0  0  0  0  3  0  0  0  0  0  0
  186.9620  178.0220  146.3830 N   0  0  0  0  0  0  0  0  0  0  0  0
  184.7250  178.7110  141.8390 C   0  0  0  0  0  3  0  0  0  0  0  0
  186.2490  178.0270  143.5920 C   0  0  0  0  0  0  0  0  0  0  0  0
  186.9030  177.6670  141.1570 C   0  0  0  0  0  2  0  0  0  0  0  0
  187.3250  178.7270  140.2270 N   0  0  0  0  0  0  0  0  0  0  0  0
  186.6390  178.5680  139.0670 O   0  0  0  0  0  1  0  0  0  0  0  0
  189.0350  178.7200  138.4700 C   0  0  0  0  0  1  0  0  0  0  0  0
  188.7730  178.6410  139.9670 C   0  0  2  0  0  3  0  0  0  0  0  0
  189.4080  177.3450  140.4860 C   0  0  1  0  0  3  0  0  0  0  0  0
  190.1080  176.5870  139.3730 C   0  0  0  0  0  1  0  0  0  0  0  0
  190.2950  177.5940  141.5360 O   0  0  0  0  0  1  0  0  0  0  0  0
  1 20  1  0  0  0  0
  2 17  1  0  0  0  0
  4  9  1  1  0  0  0
  4 12  1  0  0  0  0
  5 11  1  6  0  0  0
  5  7  1  0  0  0  0
  5 18  1  0  0  0  0
  6 16  1  0  0  0  0
  6  9  1  0  0  0  0
  7  2  1  6  0  0  0
  7  4  1  0  0  0  0
  8 12  1  0  0  0  0
 10 14  1  0  0  0  0
 13 15  2  0  0  0  0
 14 18  1  0  0  0  0
 14  3  2  0  0  0  0
 15 10  1  0  0  0  0
 17  6  2  0  0  0  0
 18  8  1  0  0  0  0
 19  1  2  0  0  0  0
 19 13  1  0  0  0  0
 20 11  1  0  0  0  0
 20 10  2  0  0  0  0
 21  1  1  0  0  0  0
 22 21  1  0  0  0  0
 23 22  1  0  0  0  0
 25 24  1  6  0  0  0
 25 22  1  0  0  0  0
 25 26  1  0  0  0  0
 26 27  1  6  0  0  0
 26 28  1  0  0  0  0
M  END
>  <MODEL>
2

>  <REMARK>
 VINA RESULT:      -9.7      2.732      6.145
  Name = 
  4 active torsions:
  status: ('A' for Active; 'I' for Inactive)
    1  A    between atoms: C_1  and  C_2
    2  A    between atoms: C_2  and  N_3
    3  A    between atoms: N_3  and  C_11
    4  A    between atoms: C_6  and  C_11
                            x       y       z     vdW  Elec       q    Type
                         _______ _______ _______ _____ _____    ______ ____

>  <TORSDO>
F 4

$$$$
=
 OpenBabel10272401533D

 28 31  0  0  1  0  0  0  0  0999 V2000
  190.7190  177.1280  144.9000 C   0  0  0  0  0  0  0  0  0  0  0  0
  185.8420  177.6720  142.8390 C   0  0  0  0  0  2  0  0  0  0  0  0
  187.8130  177.8220  148.6380 O   0  0  0  0  0  0  0  0  0  0  0  0
  184.5130  178.2340  144.8590 C   0  0  2  0  0  3  0  0  0  0  0  0
  186.9630  177.5840  145.0800 C   0  0  1  0  0  3  0  0  0  0  0  0
  183.6530  178.8370  142.5460 C   0  0  0  0  0  0  0  0  0  0  0  0
  185.9080  178.3060  144.2280 C   0  0  1  0  0  3  0  0  0  0  0  0
  185.4920  177.9360  147.1120 C   0  0  0  0  0  2  0  0  0  0  0  0
  183.5180  179.0520  144.0340 C   0  0  0  0  0  2  0  0  0  0  0  0
  189.2700  177.3970  146.8220 C   0  0  0  0  0  0  0  0  0  0  0  0
  188.3520  177.9700  144.5560 C   0  0  0  0  0  2  0  0  0  0  0  0
  184.5500  178.7810  146.2740 C   0  0  0  0  0  2  0  0  0  0  0  0
  191.5040  176.6540  147.1350 C   0  0  0  0  0  3  0  0  0  0  0  0
  187.9520  177.7220  147.3880 C   0  0  0  0  0  0  0  0  0  0  0  0
  190.2870  176.9990  147.6330 N   0  0  0  0  0  0  0  0  0  0  0  0
  182.7120  179.3650  141.7240 F   0  0  0  0  0  0  0  0  0  0  0  0
  184.7470  178.2800  142.0040 C   0  0  0  0  0  3  0  0  0  0  0  0
  186.8260  177.9100  146.5130 N   0  0  0  0  0  0  0  0  0  0  0  0
  191.7380  176.7090  145.7610 C   0  0  0  0  0  3  0  0  0  0  0  0
  189.4590  177.4570  145.4320 C   0  0  0  0  0  0  0  0  0  0  0  0
  190.9890  177.1890  143.4150 C   0  0  0  0  0  2  0  0  0  0  0  0
  190.0830  176.3560  142.6080 N   0  0  0  0  0  0  0  0  0  0  0  0
  190.3000  175.0560  142.9370 O   0  0  0  0  0  1  0  0  0  0  0  0
  191.4880  177.5330  140.9800 C   0  0  0  0  0  1  0  0  0  0  0  0
  190.3370  176.5560  141.1710 C   0  0  2  0  0  3  0  0  0  0  0  0
  189.1240  177.1080  140.4100 C   0  0  1  0  0  3  0  0  0  0  0  0
  188.7240  178.4780  140.9250 C   0  0  0  0  0  1  0  0  0  0  0  0
  189.3620  177.1560  139.0350 O   0  0  0  0  0  1  0  0  0  0  0  0
  1 20  2  0  0  0  0
  1 19  1  0  0  0  0
  4  9  1  6  0  0  0
  4 12  1  0  0  0  0
  5 11  1  6  0  0  0
  5 18  1  0  0  0  0
  6  9  1  0  0  0  0
  7  2  1  6  0  0  0
  7  4  1  0  0  0  0
  7  5  1  0  0  0  0
 10 14  1  0  0  0  0
 10 15  2  0  0  0  0
 11 20  1  0  0  0  0
 12  8  1  0  0  0  0
 13 15  1  0  0  0  0
 14  3  2  0  0  0  0
 16  6  1  0  0  0  0
 17  6  2  0  0  0  0
 17  2  1  0  0  0  0
 18  8  1  0  0  0  0
 18 14  1  0  0  0  0
 19 13  2  0  0  0  0
 20 10  1  0  0  0  0
 21  1  1  0  0  0  0
 22 23  1  0  0  0  0
 22 21  1  0  0  0  0
 25 24  1  1  0  0  0
 25 22  1  0  0  0  0
 26 27  1  1  0  0  0
 26 25  1  0  0  0  0
 28 26  1  0  0  0  0
M  END
>  <MODEL>
3

>  <REMARK>
 VINA RESULT:      -9.6      2.511      5.761
  Name = 
  4 active torsions:
  status: ('A' for Active; 'I' for Inactive)
    1  A    between atoms: C_1  and  C_2
    2  A    between atoms: C_2  and  N_3
    3  A    between atoms: N_3  and  C_11
    4  A    between atoms: C_6  and  C_11
                            x       y       z     vdW  Elec       q    Type
                         _______ _______ _______ _____ _____    ______ ____

>  <TORSDO>
F 4

$$$$
=
 OpenBabel10272401533D

 28 31  0  0  1  0  0  0  0  0999 V2000
  187.3300  178.3500  140.5210 C   0  0  0  0  0  0  0  0  0  0  0  0
  187.3910  177.4720  145.7700 C   0  0  0  0  0  2  0  0  0  0  0  0
  191.8110  177.0270  141.5510 O   0  0  0  0  0  0  0  0  0  0  0  0
  189.7990  177.0160  146.1660 C   0  0  2  0  0  3  0  0  0  0  0  0
  188.9250  177.3040  143.7930 C   0  0  1  0  0  3  0  0  0  0  0  0
  188.3010  177.7600  148.0760 C   0  0  0  0  0  0  0  0  0  0  0  0
  188.8040  177.7500  145.2590 C   0  0  1  0  0  3  0  0  0  0  0  0
  191.3150  176.6040  144.2530 C   0  0  0  0  0  2  0  0  0  0  0  0
  189.7170  177.5640  147.5910 C   0  0  0  0  0  2  0  0  0  0  0  0
  189.5880  177.6080  140.9900 C   0  0  0  0  0  0  0  0  0  0  0  0
  188.1390  178.2930  142.9230 C   0  0  0  0  0  2  0  0  0  0  0  0
  191.2130  177.1980  145.6460 C   0  0  0  0  0  2  0  0  0  0  0  0
  188.8320  177.7110  138.7400 C   0  0  0  0  0  3  0  0  0  0  0  0
  190.6430  177.2750  141.9570 C   0  0  0  0  0  0  0  0  0  0  0  0
  189.8020  177.4490  139.6560 N   0  0  0  0  0  0  0  0  0  0  0  0
  188.0980  178.0680  149.3830 F   0  0  0  0  0  0  0  0  0  0  0  0
  187.2580  177.7960  147.2340 C   0  0  0  0  0  3  0  0  0  0  0  0
  190.3330  177.2190  143.3610 N   0  0  0  0  0  0  0  0  0  0  0  0
  187.5800  178.1610  139.1580 C   0  0  0  0  0  3  0  0  0  0  0  0
  188.3390  178.0500  141.4550 C   0  0  0  0  0  0  0  0  0  0  0  0
  185.9710  178.8450  140.9580 C   0  0  0  0  0  2  0  0  0  0  0  0
  184.9190  178.6790  139.9420 N   0  0  0  0  0  0  0  0  0  0  0  0
  184.4950  179.9130  139.5680 O   0  0  0  0  0  1  0  0  0  0  0  0
  183.1380  177.0900  139.3800 C   0  0  0  0  0  1  0  0  0  0  0  0
  183.7890  177.9070  140.4870 C   0  0  2  0  0  3  0  0  0  0  0  0
  182.7020  178.7850  141.1210 C   0  0  1  0  0  3  0  0  0  0  0  0
  181.3150  178.3550  140.6800 C   0  0  0  0  0  1  0  0  0  0  0  0
  182.7910  178.7830  142.5150 O   0  0  0  0  0  1  0  0  0  0  0  0
  1 21  1  0  0  0  0
  1 20  1  0  0  0  0
  2 17  1  0  0  0  0
  3 14  2  0  0  0  0
  4 12  1  6  0  0  0
  4  9  1  0  0  0  0
  5 11  1  6  0  0  0
  5  7  1  0  0  0  0
  6 16  1  0  0  0  0
  7  2  1  1  0  0  0
  7  4  1  0  0  0  0
  8 12  1  0  0  0  0
  9  6  1  0  0  0  0
 10 20  2  0  0  0  0
 10 14  1  0  0  0  0
 13 19  1  0  0  0  0
 13 15  2  0  0  0  0
 14 18  1  0  0  0  0
 15 10  1  0  0  0  0
 17  6  2  0  0  0  0
 18  5  1  0  0  0  0
 18  8  1  0  0  0  0
 19  1  2  0  0  0  0
 20 11  1  0  0  0  0
 22 25  1  0  0  0  0
 22 21  1  0  0  0  0
 23 22  1  0  0  0  0
 25 24  1  6  0  0  0
 25 26  1  0  0  0  0
 26 27  1  1  0  0  0
 26 28  1  0  0  0  0
M  END
>  <MODEL>
4

>  <REMARK>
 VINA RESULT:      -9.1      3.147      5.741
  Name = 
  4 active torsions:
  status: ('A' for Active; 'I' for Inactive)
    1  A    between atoms: C_1  and  C_2
    2  A    between atoms: C_2  and  N_3
    3  A    between atoms: N_3  and  C_11
    4  A    between atoms: C_6  and  C_11
                            x       y       z     vdW  Elec       q    Type
                         _______ _______ _______ _____ _____    ______ ____

>  <TORSDO>
F 4

$$$$
=
 OpenBabel10272401533D

 28 31  0  0  1  0  0  0  0  0999 V2000
  189.9880  177.1210  142.7730 C   0  0  0  0  0  0  0  0  0  0  0  0
  185.1450  178.7990  144.2070 C   0  0  0  0  0  2  0  0  0  0  0  0
  187.7360  178.1900  138.6890 O   0  0  0  0  0  0  0  0  0  0  0  0
  184.0520  179.0980  141.9980 C   0  0  2  0  0  3  0  0  0  0  0  0
  186.5270  178.5210  142.1340 C   0  0  1  0  0  3  0  0  0  0  0  0
  182.6510  178.7950  144.0940 C   0  0  0  0  0  0  0  0  0  0  0  0
  185.1360  178.3220  142.7550 C   0  0  1  0  0  3  0  0  0  0  0  0
  185.4090  179.0720  139.9290 C   0  0  0  0  0  2  0  0  0  0  0  0
  182.6740  178.7880  142.5850 C   0  0  0  0  0  2  0  0  0  0  0  0
  188.9090  177.7260  140.6900 C   0  0  0  0  0  0  0  0  0  0  0  0
  187.4780  177.4810  142.7390 C   0  0  0  0  0  2  0  0  0  0  0  0
  184.0620  178.7130  140.5300 C   0  0  0  0  0  2  0  0  0  0  0  0
  191.2520  177.3400  140.7260 C   0  0  0  0  0  3  0  0  0  0  0  0
  187.7010  178.1120  139.9470 C   0  0  0  0  0  0  0  0  0  0  0  0
  190.1120  177.6560  140.0580 N   0  0  0  0  0  0  0  0  0  0  0  0
  181.4530  178.7140  144.7270 F   0  0  0  0  0  0  0  0  0  0  0  0
  183.7740  178.7200  144.8240 C   0  0  0  0  0  3  0  0  0  0  0  0
  186.4890  178.4130  140.6620 N   0  0  0  0  0  0  0  0  0  0  0  0
  191.2100  177.0730  142.0940 C   0  0  0  0  0  3  0  0  0  0  0  0
  188.8220  177.4730  142.0680 C   0  0  0  0  0  0  0  0  0  0  0  0
  189.9560  176.8220  144.2530 C   0  0  0  0  0  2  0  0  0  0  0  0
  189.6710  177.9950  145.0940 N   0  0  0  0  0  0  0  0  0  0  0  0
  190.4820  179.0080  144.6940 O   0  0  0  0  0  1  0  0  0  0  0  0
  190.9110  176.5400  146.6290 C   0  0  0  0  0  1  0  0  0  0  0  0
  189.9200  177.6890  146.5140 C   0  0  2  0  0  3  0  0  0  0  0  0
  188.6520  177.2900  147.2810 C   0  0  1  0  0  3  0  0  0  0  0  0
  188.5410  178.0380  148.5960 C   0  0  0  0  0  1  0  0  0  0  0  0
  187.5040  177.4900  146.5100 O   0  0  0  0  0  1  0  0  0  0  0  0
  1 21  1  0  0  0  0
  2 17  1  0  0  0  0
  3 14  2  0  0  0  0
  4 12  1  6  0  0  0
  4  9  1  0  0  0  0
  4  7  1  0  0  0  0
  5 11  1  1  0  0  0
  5  7  1  0  0  0  0
  6 16  1  0  0  0  0
  6 17  2  0  0  0  0
  7  2  1  1  0  0  0
  8 12  1  0  0  0  0
  8 18  1  0  0  0  0
  9  6  1  0  0  0  0
 10 20  1  0  0  0  0
 13 19  2  0  0  0  0
 14 18  1  0  0  0  0
 14 10  1  0  0  0  0
 15 10  2  0  0  0  0
 15 13  1  0  0  0  0
 18  5  1  0  0  0  0
 19  1  1  0  0  0  0
 20 11  1  0  0  0  0
 20  1  2  0  0  0  0
 21 22  1  0  0  0  0
 22 25  1  0  0  0  0
 23 22  1  0  0  0  0
 25 24  1  6  0  0  0
 25 26  1  0  0  0  0
 26 27  1  1  0  0  0
 28 26  1  0  0  0  0
M  END
>  <MODEL>
5

>  <REMARK>
 VINA RESULT:      -9.0      2.873      6.663
  Name = 
  4 active torsions:
  status: ('A' for Active; 'I' for Inactive)
    1  A    between atoms: C_1  and  C_2
    2  A    between atoms: C_2  and  N_3
    3  A    between atoms: N_3  and  C_11
    4  A    between atoms: C_6  and  C_11
                            x       y       z     vdW  Elec       q    Type
                         _______ _______ _______ _____ _____    ______ ____

>  <TORSDO>
F 4

$$$$
=
 OpenBabel10272401533D

 28 31  0  0  1  0  0  0  0  0999 V2000
  189.3050  177.7250  140.4870 C   0  0  0  0  0  0  0  0  0  0  0  0
  184.2980  178.0890  142.2550 C   0  0  0  0  0  2  0  0  0  0  0  0
  189.6310  177.8310  145.2590 O   0  0  0  0  0  0  0  0  0  0  0  0
  184.6550  178.3500  144.6970 C   0  0  2  0  0  3  0  0  0  0  0  0
  186.6260  177.8720  143.1600 C   0  0  1  0  0  3  0  0  0  0  0  0
  182.4780  179.1050  143.6290 C   0  0  0  0  0  0  0  0  0  0  0  0
  185.2770  178.5900  143.3160 C   0  0  1  0  0  3  0  0  0  0  0  0
  186.8840  177.9130  145.6790 C   0  0  0  0  0  2  0  0  0  0  0  0
  183.3700  179.1650  144.8460 C   0  0  0  0  0  2  0  0  0  0  0  0
  189.5060  177.6960  142.9010 C   0  0  0  0  0  0  0  0  0  0  0  0
  187.3160  178.4130  141.9020 C   0  0  0  0  0  2  0  0  0  0  0  0
  185.6290  178.7590  145.7870 C   0  0  0  0  0  2  0  0  0  0  0  0
  191.3760  177.1010  141.5630 C   0  0  0  0  0  3  0  0  0  0  0  0
  188.9020  177.8630  144.2310 C   0  0  0  0  0  0  0  0  0  0  0  0
  190.8020  177.3010  142.7780 N   0  0  0  0  0  0  0  0  0  0  0  0
  181.2320  179.6360  143.7080 F   0  0  0  0  0  0  0  0  0  0  0  0
  182.9290  178.6890  142.4360 C   0  0  0  0  0  3  0  0  0  0  0  0
  187.4800  178.0470  144.3510 N   0  0  0  0  0  0  0  0  0  0  0  0
  190.6360  177.3050  140.3990 C   0  0  0  0  0  3  0  0  0  0  0  0
  188.7220  177.9040  141.7550 C   0  0  0  0  0  0  0  0  0  0  0  0
  188.5180  177.9500  139.2170 C   0  0  0  0  0  2  0  0  0  0  0  0
  189.3430  178.3510  138.0660 N   0  0  0  0  0  0  0  0  0  0  0  0
  188.9830  179.6090  137.7060 O   0  0  0  0  0  1  0  0  0  0  0  0
  187.9480  176.5230  137.2160 C   0  0  0  0  0  1  0  0  0  0  0  0
  189.1360  177.4300  136.9340 C   0  0  2  0  0  3  0  0  0  0  0  0
  190.3500  176.5350  136.6490 C   0  0  1  0  0  3  0  0  0  0  0  0
  190.2180  175.1880  137.3350 C   0  0  0  0  0  1  0  0  0  0  0  0
  190.5490  176.3640  135.2770 O   0  0  0  0  0  1  0  0  0  0  0  0
  1 20  1  0  0  0  0
  2 17  1  0  0  0  0
  4  9  1  6  0  0  0
  4 12  1  0  0  0  0
  5 11  1  6  0  0  0
  5  7  1  0  0  0  0
  5 18  1  0  0  0  0
  6 16  1  0  0  0  0
  6  9  1  0  0  0  0
  7  2  1  6  0  0  0
  7  4  1  0  0  0  0
  8 12  1  0  0  0  0
 10 14  1  0  0  0  0
 13 15  2  0  0  0  0
 14 18  1  0  0  0  0
 14  3  2  0  0  0  0
 15 10  1  0  0  0  0
 17  6  2  0  0  0  0
 18  8  1  0  0  0  0
 19  1  2  0  0  0  0
 19 13  1  0  0  0  0
 20 11  1  0  0  0  0
 20 10  2  0  0  0  0
 21  1  1  0  0  0  0
 22 21  1  0  0  0  0
 23 22  1  0  0  0  0
 25 24  1  1  0  0  0
 25 22  1  0  0  0  0
 26 25  1  0  0  0  0
 26 27  1  1  0  0  0
 28 26  1  0  0  0  0
M  END
>  <MODEL>
6

>  <REMARK>
 VINA RESULT:      -8.9      3.334      6.852
  Name = 
  4 active torsions:
  status: ('A' for Active; 'I' for Inactive)
    1  A    between atoms: C_1  and  C_2
    2  A    between atoms: C_2  and  N_3
    3  A    between atoms: N_3  and  C_11
    4  A    between atoms: C_6  and  C_11
                            x       y       z     vdW  Elec       q    Type
                         _______ _______ _______ _____ _____    ______ ____

>  <TORSDO>
F 4

$$$$
=
 OpenBabel10272401533D

 28 31  0  0  1  0  0  0  0  0999 V2000
  189.3280  177.9130  139.9850 C   0  0  0  0  0  0  0  0  0  0  0  0
  184.7170  177.9840  142.6440 C   0  0  0  0  0  2  0  0  0  0  0  0
  190.5040  177.5440  144.6080 O   0  0  0  0  0  0  0  0  0  0  0  0
  185.5060  178.0050  144.9980 C   0  0  2  0  0  3  0  0  0  0  0  0
  187.1710  177.7290  143.0930 C   0  0  1  0  0  3  0  0  0  0  0  0
  183.1700  178.8140  144.4180 C   0  0  0  0  0  0  0  0  0  0  0  0
  185.8680  178.3960  143.5610 C   0  0  1  0  0  3  0  0  0  0  0  0
  187.8760  177.5210  145.5170 C   0  0  0  0  0  2  0  0  0  0  0  0
  184.2650  178.7720  145.4570 C   0  0  0  0  0  2  0  0  0  0  0  0
  189.9580  177.6450  142.3090 C   0  0  0  0  0  0  0  0  0  0  0  0
  187.6220  178.4090  141.7950 C   0  0  0  0  0  2  0  0  0  0  0  0
  186.6570  178.3240  145.9330 C   0  0  0  0  0  2  0  0  0  0  0  0
  191.5600  177.2300  140.6050 C   0  0  0  0  0  3  0  0  0  0  0  0
  189.6020  177.6630  143.7350 C   0  0  0  0  0  0  0  0  0  0  0  0
  191.2130  177.2930  141.9170 N   0  0  0  0  0  0  0  0  0  0  0  0
  181.9560  179.3070  144.7720 F   0  0  0  0  0  0  0  0  0  0  0  0
  183.4010  178.5310  143.1270 C   0  0  0  0  0  3  0  0  0  0  0  0
  188.2240  177.8020  144.1250 N   0  0  0  0  0  0  0  0  0  0  0  0
  190.6220  177.5330  139.6180 C   0  0  0  0  0  3  0  0  0  0  0  0
  188.9800  177.9500  141.3480 C   0  0  0  0  0  0  0  0  0  0  0  0
  188.3240  178.2470  138.9060 C   0  0  0  0  0  2  0  0  0  0  0  0
  188.9300  178.5310  137.5950 N   0  0  0  0  0  0  0  0  0  0  0  0
  189.0050  179.8790  137.4480 O   0  0  0  0  0  1  0  0  0  0  0  0
  186.6850  177.7490  136.9930 C   0  0  0  0  0  1  0  0  0  0  0  0
  188.1140  177.9560  136.5110 C   0  0  2  0  0  3  0  0  0  0  0  0
  188.6370  176.6040  136.0080 C   0  0  1  0  0  3  0  0  0  0  0  0
  190.1510  176.5310  136.0870 C   0  0  0  0  0  1  0  0  0  0  0  0
  188.0630  175.5410  136.7080 O   0  0  0  0  0  1  0  0  0  0  0  0
  1 20  1  0  0  0  0
  2 17  1  0  0  0  0
  4  9  1  1  0  0  0
  4 12  1  0  0  0  0
  5 11  1  6  0  0  0
  5  7  1  0  0  0  0
  5 18  1  0  0  0  0
  6 16  1  0  0  0  0
  6  9  1  0  0  0  0
  7  2  1  6  0  0  0
  7  4  1  0  0  0  0
  8 12  1  0  0  0  0
 10 14  1  0  0  0  0
 13 15  2  0  0  0  0
 14 18  1  0  0  0  0
 14  3  2  0  0  0  0
 15 10  1  0  0  0  0
 17  6  2  0  0  0  0
 18  8  1  0  0  0  0
 19  1  2  0  0  0  0
 19 13  1  0  0  0  0
 20 11  1  0  0  0  0
 20 10  2  0  0  0  0
 21  1  1  0  0  0  0
 22 21  1  0  0  0  0
 23 22  1  0  0  0  0
 25 24  1  1  0  0  0
 25 22  1  0  0  0  0
 26 27  1  1  0  0  0
 26 25  1  0  0  0  0
 26 28  1  0  0  0  0
M  END
>  <MODEL>
7

>  <REMARK>
 VINA RESULT:      -8.9      3.285      6.742
  Name = 
  4 active torsions:
  status: ('A' for Active; 'I' for Inactive)
    1  A    between atoms: C_1  and  C_2
    2  A    between atoms: C_2  and  N_3
    3  A    between atoms: N_3  and  C_11
    4  A    between atoms: C_6  and  C_11
                            x       y       z     vdW  Elec       q    Type
                         _______ _______ _______ _____ _____    ______ ____

>  <TORSDO>
F 4

$$$$
=
 OpenBabel10272401533D

 28 31  0  0  1  0  0  0  0  0999 V2000
  183.4640  178.4200  141.2180 C   0  0  0  0  0  0  0  0  0  0  0  0
  188.6220  177.8650  142.4090 C   0  0  0  0  0  2  0  0  0  0  0  0
  183.7320  178.7900  145.9810 O   0  0  0  0  0  0  0  0  0  0  0  0
  188.5580  177.8630  144.8900 C   0  0  2  0  0  3  0  0  0  0  0  0
  186.4430  178.3340  143.5560 C   0  0  1  0  0  3  0  0  0  0  0  0
  190.5350  176.8550  143.6550 C   0  0  0  0  0  0  0  0  0  0  0  0
  187.7560  177.5390  143.6240 C   0  0  1  0  0  3  0  0  0  0  0  0
  186.5000  178.5500  146.0790 C   0  0  0  0  0  2  0  0  0  0  0  0
  189.8010  176.9750  144.9680 C   0  0  0  0  0  2  0  0  0  0  0  0
  183.5690  178.6920  143.6230 C   0  0  0  0  0  0  0  0  0  0  0  0
  185.5700  177.7280  142.4510 C   0  0  0  0  0  2  0  0  0  0  0  0
  187.7060  177.6300  146.1240 C   0  0  0  0  0  2  0  0  0  0  0  0
  181.5860  179.2920  142.4620 C   0  0  0  0  0  3  0  0  0  0  0  0
  184.3230  178.6080  144.8820 C   0  0  0  0  0  0  0  0  0  0  0  0
  182.2940  179.1660  143.6150 N   0  0  0  0  0  0  0  0  0  0  0  0
  191.7470  176.2450  143.6390 F   0  0  0  0  0  0  0  0  0  0  0  0
  189.9640  177.1880  142.4870 C   0  0  0  0  0  3  0  0  0  0  0  0
  185.7350  178.3340  144.8510 N   0  0  0  0  0  0  0  0  0  0  0  0
  182.1610  178.9260  141.2450 C   0  0  0  0  0  3  0  0  0  0  0  0
  184.1900  178.3200  142.4200 C   0  0  0  0  0  0  0  0  0  0  0  0
  184.0710  178.0210  139.8940 C   0  0  0  0  0  2  0  0  0  0  0  0
  185.0820  178.9650  139.3910 N   0  0  0  0  0  0  0  0  0  0  0  0
  184.4810  180.1680  139.2070 O   0  0  0  0  0  1  0  0  0  0  0  0
  184.7370  177.4320  137.5090 C   0  0  0  0  0  1  0  0  0  0  0  0
  185.6470  178.4890  138.1160 C   0  0  2  0  0  3  0  0  0  0  0  0
  187.0450  177.8730  138.2630 C   0  0  1  0  0  3  0  0  0  0  0  0
  187.1970  176.6320  137.4030 C   0  0  0  0  0  1  0  0  0  0  0  0
  188.0460  178.7990  137.9610 O   0  0  0  0  0  1  0  0  0  0  0  0
  1 19  2  0  0  0  0
  1 20  1  0  0  0  0
  2 17  1  0  0  0  0
  4  9  1  1  0  0  0
  4 12  1  0  0  0  0
  5 11  1  6  0  0  0
  5  7  1  0  0  0  0
  5 18  1  0  0  0  0
  6  9  1  0  0  0  0
  7  2  1  6  0  0  0
  7  4  1  0  0  0  0
  8 12  1  0  0  0  0
 10 14  1  0  0  0  0
 13 15  2  0  0  0  0
 14  3  2  0  0  0  0
 15 10  1  0  0  0  0
 16  6  1  0  0  0  0
 17  6  2  0  0  0  0
 18 14  1  0  0  0  0
 18  8  1  0  0  0  0
 19 13  1  0  0  0  0
 20 11  1  0  0  0  0
 20 10  2  0  0  0  0
 21  1  1  0  0  0  0
 22 21  1  0  0  0  0
 23 22  1  0  0  0  0
 25 24  1  1  0  0  0
 25 26  1  0  0  0  0
 25 22  1  0  0  0  0
 26 27  1  6  0  0  0
 28 26  1  0  0  0  0
M  END
>  <MODEL>
8

>  <REMARK>
 VINA RESULT:      -8.8      2.785      5.827
  Name = 
  4 active torsions:
  status: ('A' for Active; 'I' for Inactive)
    1  A    between atoms: C_1  and  C_2
    2  A    between atoms: C_2  and  N_3
    3  A    between atoms: N_3  and  C_11
    4  A    between atoms: C_6  and  C_11
                            x       y       z     vdW  Elec       q    Type
                         _______ _______ _______ _____ _____    ______ ____

>  <TORSDO>
F 4

$$$$
=
 OpenBabel10272401533D

 28 31  0  0  1  0  0  0  0  0999 V2000
  190.2850  176.8150  142.7580 C   0  0  0  0  0  0  0  0  0  0  0  0
  185.0570  177.8040  142.8940 C   0  0  0  0  0  2  0  0  0  0  0  0
  189.2290  177.5210  147.3710 O   0  0  0  0  0  0  0  0  0  0  0  0
  184.7210  178.3550  145.2910 C   0  0  2  0  0  3  0  0  0  0  0  0
  186.9840  177.5240  144.4740 C   0  0  1  0  0  3  0  0  0  0  0  0
  183.0470  179.1320  143.5460 C   0  0  0  0  0  0  0  0  0  0  0  0
  185.7380  178.3600  144.1430 C   0  0  1  0  0  3  0  0  0  0  0  0
  186.5060  177.8760  146.9360 C   0  0  0  0  0  2  0  0  0  0  0  0
  183.5500  179.2820  144.9620 C   0  0  0  0  0  2  0  0  0  0  0  0
  189.7750  177.0880  145.1110 C   0  0  0  0  0  0  0  0  0  0  0  0
  188.0650  177.8380  143.4330 C   0  0  0  0  0  2  0  0  0  0  0  0
  185.3790  178.8250  146.5750 C   0  0  0  0  0  2  0  0  0  0  0  0
  191.8710  176.1750  144.4650 C   0  0  0  0  0  3  0  0  0  0  0  0
  188.8370  177.4760  146.1740 C   0  0  0  0  0  0  0  0  0  0  0  0
  190.9980  176.5790  145.4250 N   0  0  0  0  0  0  0  0  0  0  0  0
  181.9010  179.7670  143.1930 F   0  0  0  0  0  0  0  0  0  0  0  0
  183.7730  178.5290  142.5930 C   0  0  0  0  0  3  0  0  0  0  0  0
  187.4720  177.7860  145.8420 N   0  0  0  0  0  0  0  0  0  0  0  0
  191.5270  176.2820  143.1180 C   0  0  0  0  0  3  0  0  0  0  0  0
  189.3850  177.2050  143.7670 C   0  0  0  0  0  0  0  0  0  0  0  0
  189.9300  176.9320  141.2950 C   0  0  0  0  0  2  0  0  0  0  0  0
  191.0900  176.8730  140.3910 N   0  0  0  0  0  0  0  0  0  0  0  0
  191.9710  177.8340  140.7720 O   0  0  0  0  0  1  0  0  0  0  0  0
  189.4990  178.0690  138.9590 C   0  0  0  0  0  1  0  0  0  0  0  0
  190.6730  177.1010  138.9970 C   0  0  2  0  0  3  0  0  0  0  0  0
  190.2440  175.8190  138.2720 C   0  0  1  0  0  3  0  0  0  0  0  0
  189.6680  176.1220  136.9020 C   0  0  0  0  0  1  0  0  0  0  0  0
  191.3020  174.9140  138.1650 O   0  0  0  0  0  1  0  0  0  0  0  0
  1 19  2  0  0  0  0
  1 20  1  0  0  0  0
  4  9  1  6  0  0  0
  4 12  1  0  0  0  0
  5 11  1  6  0  0  0
  5 18  1  0  0  0  0
  6  9  1  0  0  0  0
  7  2  1  6  0  0  0
  7  5  1  0  0  0  0
  7  4  1  0  0  0  0
 10 15  1  0  0  0  0
 10 14  1  0  0  0  0
 11 20  1  0  0  0  0
 12  8  1  0  0  0  0
 13 15  2  0  0  0  0
 14  3  2  0  0  0  0
 16  6  1  0  0  0  0
 17  2  1  0  0  0  0
 17  6  2  0  0  0  0
 18 14  1  0  0  0  0
 18  8  1  0  0  0  0
 19 13  1  0  0  0  0
 20 10  2  0  0  0  0
 21  1  1  0  0  0  0
 22 23  1  0  0  0  0
 22 21  1  0  0  0  0
 25 24  1  1  0  0  0
 25 22  1  0  0  0  0
 26 27  1  6  0  0  0
 26 25  1  0  0  0  0
 28 26  1  0  0  0  0
M  END
>  <MODEL>
9

>  <REMARK>
 VINA RESULT:      -8.7      2.987      6.435
  Name = 
  4 active torsions:
  status: ('A' for Active; 'I' for Inactive)
    1  A    between atoms: C_1  and  C_2
    2  A    between atoms: C_2  and  N_3
    3  A    between atoms: N_3  and  C_11
    4  A    between atoms: C_6  and  C_11
                            x       y       z     vdW  Elec       q    Type
                         _______ _______ _______ _____ _____    ______ ____

>  <TORSDO>
F 4

$$$$
