=
 OpenBabel10272413133D

 32 36  0  0  1  0  0  0  0  0999 V2000
  186.1970  178.3920  143.7970 C   0  0  1  0  0  3  0  0  0  0  0  0
  188.6170  178.0560  143.1230 C   0  0  1  0  0  3  0  0  0  0  0  0
  185.1790  178.0020  144.6780 O   0  0  0  0  0  0  0  0  0  0  0  0
  187.5180  177.6680  144.1410 C   0  0  1  0  0  3  0  0  0  0  0  0
  189.9420  177.3550  143.4470 C   0  0  1  0  0  3  0  0  0  0  0  0
  188.1710  177.7860  141.6760 C   0  0  1  0  0  3  0  0  0  0  0  0
  190.3880  177.7250  144.8580 C   0  0  1  0  0  3  0  0  0  0  0  0
  187.9950  177.9840  145.5820 C   0  0  1  0  0  3  0  0  0  0  0  0
  189.8160  175.9670  143.3140 O   0  0  0  0  0  1  0  0  0  0  0  0
  187.0010  177.4740  146.6230 C   0  0  0  0  0  2  0  0  0  0  0  0
  185.8920  178.4820  146.9250 C   0  0  0  0  0  2  0  0  0  0  0  0
  186.8620  178.5190  141.3750 C   0  0  0  0  0  2  0  0  0  0  0  0
  189.3330  177.3090  145.8750 C   0  0  0  0  0  2  0  0  0  0  0  0
  185.7690  178.0980  142.3460 C   0  0  2  0  0  3  0  0  0  0  0  0
  191.6020  177.1070  145.1580 O   0  0  0  0  0  1  0  0  0  0  0  0
  185.1790  178.9840  145.6720 C   0  0  0  0  0  2  0  0  0  0  0  0
  183.1150  179.0360  139.7370 C   0  0  0  0  0  0  0  0  0  0  0  0
  183.0930  179.2060  138.3920 F   0  0  0  0  0  0  0  0  0  0  0  0
  184.4500  178.7760  141.9400 C   0  0  2  0  0  3  0  0  0  0  0  0
  181.9770  178.7650  140.3800 C   0  0  0  0  0  3  0  0  0  0  0  0
  183.2170  177.9790  142.3980 C   0  0  0  0  0  2  0  0  0  0  0  0
  184.3950  179.1060  140.4660 C   0  0  0  0  0  0  0  0  0  0  0  0
  185.4330  179.4930  139.8650 O   0  0  0  0  0  0  0  0  0  0  0  0
  181.9240  178.6080  141.8760 C   0  0  1  0  0  3  0  0  0  0  0  0
  180.3790  179.8600  142.8520 C   0  0  0  0  0  1  0  0  0  0  0  0
  181.7230  179.8560  142.4750 O   0  0  0  0  0  0  0  0  0  0  0  0
  188.9490  178.2830  138.3610 N   0  0  0  0  0  0  0  0  0  0  0  0
  190.3460  175.9440  140.4900 O   0  0  0  0  0  0  0  0  0  0  0  0
  189.7830  176.9330  139.9500 C   0  0  0  0  0  0  0  0  0  0  0  0
  189.2800  178.1340  140.6630 C   0  0  1  0  0  3  0  0  0  0  0  0
  189.5690  177.0470  138.5590 N   0  0  0  0  0  2  0  0  0  0  0  0
  188.7700  178.9130  139.4800 C   0  0  0  0  0  3  0  0  0  0  0  0
  1  4  1  0  0  0  0
  1  3  1  1  0  0  0
  2  5  1  0  0  0  0
  2  4  1  0  0  0  0
  3 16  1  0  0  0  0
  4  8  1  0  0  0  0
  5  7  1  0  0  0  0
  6  2  1  0  0  0  0
  7 15  1  0  0  0  0
  7 13  1  0  0  0  0
  8 13  1  0  0  0  0
  8 10  1  0  0  0  0
  9  5  1  0  0  0  0
 10 11  1  0  0  0  0
 12  6  1  0  0  0  0
 12 14  1  0  0  0  0
 14  1  1  0  0  0  0
 16 11  1  0  0  0  0
 17 20  2  0  0  0  0
 17 22  1  0  0  0  0
 18 17  1  0  0  0  0
 19 14  1  0  0  0  0
 19 21  1  0  0  0  0
 20 24  1  0  0  0  0
 22 19  1  0  0  0  0
 23 22  2  0  0  0  0
 24 21  1  0  0  0  0
 24 26  1  0  0  0  0
 26 25  1  0  0  0  0
 27 31  1  0  0  0  0
 27 32  2  0  0  0  0
 29 28  2  0  0  0  0
 29 30  1  0  0  0  0
 30  6  1  0  0  0  0
 31 29  1  0  0  0  0
 32 30  1  0  0  0  0
M  END
>  <MODEL>
1

>  <REMARK>
 VINA RESULT:      -9.6      0.000      0.000
  Name = 
  3 active torsions:
  status: ('A' for Active; 'I' for Inactive)
    1  A    between atoms: C_10  and  C_28
    2  A    between atoms: O_15  and  C_26
    3  A    between atoms: C_16  and  C_27
                            x       y       z     vdW  Elec       q    Type
                         _______ _______ _______ _____ _____    ______ ____

>  <TORSDO>
F 3

$$$$
=
 OpenBabel10272413133D

 32 36  0  0  1  0  0  0  0  0999 V2000
  187.8600  177.5150  142.1830 C   0  0  1  0  0  3  0  0  0  0  0  0
  185.5140  178.3210  142.7020 C   0  0  1  0  0  3  0  0  0  0  0  0
  189.2030  177.5340  142.5850 O   0  0  0  0  0  0  0  0  0  0  0  0
  186.9820  178.2930  143.1900 C   0  0  1  0  0  3  0  0  0  0  0  0
  184.6190  179.0830  143.6880 C   0  0  1  0  0  3  0  0  0  0  0  0
  185.4000  178.8890  141.2770 C   0  0  1  0  0  3  0  0  0  0  0  0
  184.6970  178.4280  145.0640 C   0  0  1  0  0  3  0  0  0  0  0  0
  187.0570  177.6870  144.6140 C   0  0  1  0  0  3  0  0  0  0  0  0
  184.9910  180.4310  143.7580 O   0  0  0  0  0  1  0  0  0  0  0  0
  188.4670  177.7830  145.1890 C   0  0  0  0  0  2  0  0  0  0  0  0
  189.3480  176.5970  144.7970 C   0  0  0  0  0  2  0  0  0  0  0  0
  186.2820  178.0930  140.3130 C   0  0  0  0  0  2  0  0  0  0  0  0
  186.1320  178.4330  145.5740 C   0  0  0  0  0  2  0  0  0  0  0  0
  187.7340  178.1090  140.7670 C   0  0  2  0  0  3  0  0  0  0  0  0
  183.8730  179.1010  145.9650 O   0  0  0  0  0  1  0  0  0  0  0  0
  189.3750  176.3410  143.2920 C   0  0  0  0  0  2  0  0  0  0  0  0
  189.2560  177.8460  137.2540 C   0  0  0  0  0  0  0  0  0  0  0  0
  188.9350  178.3080  136.0200 F   0  0  0  0  0  0  0  0  0  0  0  0
  188.5960  177.3910  139.7150 C   0  0  2  0  0  3  0  0  0  0  0  0
  190.5200  177.5070  137.5160 C   0  0  0  0  0  3  0  0  0  0  0  0
  190.1020  177.5640  139.9770 C   0  0  0  0  0  2  0  0  0  0  0  0
  188.2200  177.7670  138.3000 C   0  0  0  0  0  0  0  0  0  0  0  0
  187.0130  177.9630  137.9970 O   0  0  0  0  0  0  0  0  0  0  0  0
  190.9340  176.9470  138.8500 C   0  0  1  0  0  3  0  0  0  0  0  0
  191.6280  175.1040  137.8370 C   0  0  0  0  0  1  0  0  0  0  0  0
  190.7800  175.5570  138.8490 O   0  0  0  0  0  0  0  0  0  0  0  0
  182.9330  177.3740  139.4150 N   0  0  0  0  0  0  0  0  0  0  0  0
  184.1850  180.5700  138.9900 O   0  0  0  0  0  0  0  0  0  0  0  0
  183.8180  179.4390  139.4060 C   0  0  0  0  0  0  0  0  0  0  0  0
  183.9340  178.9560  140.8050 C   0  0  1  0  0  3  0  0  0  0  0  0
  183.2110  178.4640  138.5860 N   0  0  0  0  0  2  0  0  0  0  0  0
  183.3090  177.5960  140.6360 C   0  0  0  0  0  3  0  0  0  0  0  0
  1  3  1  1  0  0  0
  1  4  1  0  0  0  0
  2  4  1  0  0  0  0
  2  5  1  0  0  0  0
  3 16  1  0  0  0  0
  4  8  1  0  0  0  0
  5  9  1  0  0  0  0
  5  7  1  0  0  0  0
  6  2  1  0  0  0  0
  7 13  1  0  0  0  0
  7 15  1  0  0  0  0
  8 10  1  0  0  0  0
  8 13  1  0  0  0  0
 11 10  1  0  0  0  0
 12 14  1  0  0  0  0
 12  6  1  0  0  0  0
 14  1  1  0  0  0  0
 16 11  1  0  0  0  0
 17 20  2  0  0  0  0
 17 22  1  0  0  0  0
 18 17  1  0  0  0  0
 19 21  1  0  0  0  0
 19 14  1  0  0  0  0
 20 24  1  0  0  0  0
 22 19  1  0  0  0  0
 23 22  2  0  0  0  0
 24 21  1  0  0  0  0
 25 26  1  0  0  0  0
 26 24  1  0  0  0  0
 27 32  2  0  0  0  0
 28 29  2  0  0  0  0
 29 30  1  0  0  0  0
 30  6  1  0  0  0  0
 31 29  1  0  0  0  0
 31 27  1  0  0  0  0
 32 30  1  0  0  0  0
M  END
>  <MODEL>
2

>  <REMARK>
 VINA RESULT:      -9.6      2.546      6.120
  Name = 
  3 active torsions:
  status: ('A' for Active; 'I' for Inactive)
    1  A    between atoms: C_10  and  C_28
    2  A    between atoms: O_15  and  C_26
    3  A    between atoms: C_16  and  C_27
                            x       y       z     vdW  Elec       q    Type
                         _______ _______ _______ _____ _____    ______ ____

>  <TORSDO>
F 3

$$$$
=
 OpenBabel10272413133D

 32 36  0  0  1  0  0  0  0  0999 V2000
  189.1910  178.0440  142.0180 C   0  0  1  0  0  3  0  0  0  0  0  0
  190.1420  177.6010  139.7110 C   0  0  1  0  0  3  0  0  0  0  0  0
  189.2640  177.7190  143.3790 O   0  0  0  0  0  0  0  0  0  0  0  0
  190.2740  177.2840  141.2200 C   0  0  1  0  0  3  0  0  0  0  0  0
  191.2110  176.8630  138.8960 C   0  0  1  0  0  3  0  0  0  0  0  0
  188.7250  177.3040  139.1900 C   0  0  1  0  0  3  0  0  0  0  0  0
  192.5990  177.2590  139.3900 C   0  0  1  0  0  3  0  0  0  0  0  0
  191.7040  177.6260  141.7100 C   0  0  1  0  0  3  0  0  0  0  0  0
  191.0310  175.4770  138.9790 O   0  0  0  0  0  1  0  0  0  0  0  0
  191.9200  177.1840  143.1550 C   0  0  0  0  0  2  0  0  0  0  0  0
  191.4770  178.2400  144.1680 C   0  0  0  0  0  2  0  0  0  0  0  0
  187.6840  178.0740  140.0050 C   0  0  0  0  0  2  0  0  0  0  0  0
  192.7570  176.9120  140.8640 C   0  0  0  0  0  2  0  0  0  0  0  0
  187.7830  177.7230  141.4820 C   0  0  2  0  0  3  0  0  0  0  0  0
  193.5800  176.6080  138.6430 O   0  0  0  0  0  1  0  0  0  0  0  0
  190.0490  178.7290  143.9410 C   0  0  0  0  0  2  0  0  0  0  0  0
  184.1320  178.8550  141.8270 C   0  0  0  0  0  0  0  0  0  0  0  0
  183.1120  179.1180  140.9730 F   0  0  0  0  0  0  0  0  0  0  0  0
  186.6530  178.4350  142.2430 C   0  0  2  0  0  3  0  0  0  0  0  0
  183.8580  178.5470  143.0970 C   0  0  0  0  0  3  0  0  0  0  0  0
  186.1480  177.6150  143.4430 C   0  0  0  0  0  2  0  0  0  0  0  0
  185.5230  178.8660  141.3370 C   0  0  0  0  0  0  0  0  0  0  0  0
  185.7690  179.2880  140.1750 O   0  0  0  0  0  0  0  0  0  0  0  0
  184.9440  178.2870  144.1060 C   0  0  1  0  0  3  0  0  0  0  0  0
  185.6310  179.1580  146.0230 C   0  0  0  0  0  1  0  0  0  0  0  0
  185.3360  179.4910  144.7000 O   0  0  0  0  0  0  0  0  0  0  0  0
  187.5230  179.4360  136.7710 N   0  0  0  0  0  0  0  0  0  0  0  0
  186.7400  176.0900  137.1620 O   0  0  0  0  0  0  0  0  0  0  0  0
  187.2570  177.2380  137.1540 C   0  0  0  0  0  0  0  0  0  0  0  0
  188.6030  177.5810  137.6780 C   0  0  1  0  0  3  0  0  0  0  0  0
  186.6240  178.3780  136.6120 N   0  0  0  0  0  2  0  0  0  0  0  0
  188.6180  179.0490  137.3480 C   0  0  0  0  0  3  0  0  0  0  0  0
  1  3  1  1  0  0  0
  2  4  1  0  0  0  0
  3 16  1  0  0  0  0
  4  8  1  0  0  0  0
  4  1  1  0  0  0  0
  5  9  1  0  0  0  0
  5  7  1  0  0  0  0
  5  2  1  0  0  0  0
  6  2  1  0  0  0  0
  6 12  1  0  0  0  0
  7 13  1  0  0  0  0
  8 10  1  0  0  0  0
 10 11  1  0  0  0  0
 12 14  1  0  0  0  0
 13  8  1  0  0  0  0
 14  1  1  0  0  0  0
 14 19  1  0  0  0  0
 15  7  1  0  0  0  0
 16 11  1  0  0  0  0
 17 20  2  0  0  0  0
 18 17  1  0  0  0  0
 19 21  1  0  0  0  0
 20 24  1  0  0  0  0
 21 24  1  0  0  0  0
 22 17  1  0  0  0  0
 22 19  1  0  0  0  0
 23 22  2  0  0  0  0
 24 26  1  0  0  0  0
 26 25  1  0  0  0  0
 27 32  2  0  0  0  0
 29 28  2  0  0  0  0
 29 30  1  0  0  0  0
 30  6  1  0  0  0  0
 31 27  1  0  0  0  0
 31 29  1  0  0  0  0
 32 30  1  0  0  0  0
M  END
>  <MODEL>
3

>  <REMARK>
 VINA RESULT:      -9.5      2.051      4.152
  Name = 
  3 active torsions:
  status: ('A' for Active; 'I' for Inactive)
    1  A    between atoms: C_10  and  C_28
    2  A    between atoms: O_15  and  C_26
    3  A    between atoms: C_16  and  C_27
                            x       y       z     vdW  Elec       q    Type
                         _______ _______ _______ _____ _____    ______ ____

>  <TORSDO>
F 3

$$$$
=
 OpenBabel10272413133D

 32 36  0  0  1  0  0  0  0  0999 V2000
  186.9000  178.3610  141.6820 C   0  0  1  0  0  3  0  0  0  0  0  0
  187.3180  178.5390  144.1750 C   0  0  1  0  0  3  0  0  0  0  0  0
  186.0200  177.9120  140.6880 O   0  0  0  0  0  0  0  0  0  0  0  0
  186.3110  178.0980  143.0860 C   0  0  1  0  0  3  0  0  0  0  0  0
  186.7530  178.2950  145.5800 C   0  0  1  0  0  3  0  0  0  0  0  0
  188.6870  177.8630  143.9890 C   0  0  1  0  0  3  0  0  0  0  0  0
  185.4430  179.0570  145.7480 C   0  0  1  0  0  3  0  0  0  0  0  0
  184.9560  178.8240  143.2920 C   0  0  1  0  0  3  0  0  0  0  0  0
  186.5650  176.9270  145.8100 O   0  0  0  0  0  1  0  0  0  0  0  0
  183.8910  178.3020  142.3320 C   0  0  0  0  0  2  0  0  0  0  0  0
  183.9070  179.0230  140.9840 C   0  0  0  0  0  2  0  0  0  0  0  0
  189.2360  178.1460  142.5880 C   0  0  0  0  0  2  0  0  0  0  0  0
  184.4280  178.6020  144.7080 C   0  0  0  0  0  2  0  0  0  0  0  0
  188.2660  177.6670  141.5190 C   0  0  2  0  0  3  0  0  0  0  0  0
  184.9290  178.8570  147.0290 O   0  0  0  0  0  1  0  0  0  0  0  0
  185.2870  179.0450  140.3300 C   0  0  0  0  0  2  0  0  0  0  0  0
  190.8750  176.8070  138.8380 C   0  0  0  0  0  0  0  0  0  0  0  0
  192.1180  176.2640  138.8320 F   0  0  0  0  0  0  0  0  0  0  0  0
  188.9040  177.8740  140.1360 C   0  0  2  0  0  3  0  0  0  0  0  0
  190.1370  176.7620  137.7270 C   0  0  0  0  0  3  0  0  0  0  0  0
  188.0530  177.2740  139.0030 C   0  0  0  0  0  2  0  0  0  0  0  0
  190.3370  177.3970  140.0780 C   0  0  0  0  0  0  0  0  0  0  0  0
  191.0950  177.5500  141.0740 O   0  0  0  0  0  0  0  0  0  0  0  0
  188.7680  177.3830  137.6540 C   0  0  1  0  0  3  0  0  0  0  0  0
  187.6970  179.0010  136.5860 C   0  0  0  0  0  1  0  0  0  0  0  0
  188.8770  178.7260  137.2790 O   0  0  0  0  0  0  0  0  0  0  0  0
  191.9910  178.0090  144.9420 N   0  0  0  0  0  0  0  0  0  0  0  0
  189.4370  176.3310  146.5620 O   0  0  0  0  0  0  0  0  0  0  0  0
  190.1600  177.0990  145.8730 C   0  0  0  0  0  0  0  0  0  0  0  0
  189.6800  178.2690  145.0960 C   0  0  1  0  0  3  0  0  0  0  0  0
  191.5610  176.9620  145.7620 N   0  0  0  0  0  2  0  0  0  0  0  0
  191.0000  178.7490  144.5540 C   0  0  0  0  0  3  0  0  0  0  0  0
  1  3  1  6  0  0  0
  1  4  1  0  0  0  0
  2  5  1  0  0  0  0
  4  8  1  0  0  0  0
  4  2  1  0  0  0  0
  5  7  1  0  0  0  0
  5  9  1  0  0  0  0
  6  2  1  0  0  0  0
  6 30  1  0  0  0  0
  7 15  1  0  0  0  0
  8 13  1  0  0  0  0
 10  8  1  0  0  0  0
 11 10  1  0  0  0  0
 12  6  1  0  0  0  0
 13  7  1  0  0  0  0
 14  1  1  0  0  0  0
 14 12  1  0  0  0  0
 16  3  1  0  0  0  0
 16 11  1  0  0  0  0
 17 22  1  0  0  0  0
 18 17  1  0  0  0  0
 19 14  1  0  0  0  0
 20 17  2  0  0  0  0
 21 19  1  0  0  0  0
 22 19  1  0  0  0  0
 22 23  2  0  0  0  0
 24 20  1  0  0  0  0
 24 21  1  0  0  0  0
 25 26  1  0  0  0  0
 26 24  1  0  0  0  0
 27 31  1  0  0  0  0
 29 28  2  0  0  0  0
 30 29  1  0  0  0  0
 31 29  1  0  0  0  0
 32 27  2  0  0  0  0
 32 30  1  0  0  0  0
M  END
>  <MODEL>
4

>  <REMARK>
 VINA RESULT:      -9.2      2.987      5.964
  Name = 
  3 active torsions:
  status: ('A' for Active; 'I' for Inactive)
    1  A    between atoms: C_10  and  C_28
    2  A    between atoms: O_15  and  C_26
    3  A    between atoms: C_16  and  C_27
                            x       y       z     vdW  Elec       q    Type
                         _______ _______ _______ _____ _____    ______ ____

>  <TORSDO>
F 3

$$$$
=
 OpenBabel10272413133D

 32 36  0  0  1  0  0  0  0  0999 V2000
  186.5700  178.2040  142.5000 C   0  0  1  0  0  3  0  0  0  0  0  0
  185.7580  178.0570  140.1040 C   0  0  1  0  0  3  0  0  0  0  0  0
  186.4000  178.8330  143.7400 O   0  0  0  0  0  0  0  0  0  0  0  0
  185.5200  178.7100  141.4860 C   0  0  1  0  0  3  0  0  0  0  0  0
  184.7230  178.5400  139.0790 C   0  0  1  0  0  3  0  0  0  0  0  0
  187.1960  178.2870  139.6080 C   0  0  1  0  0  3  0  0  0  0  0  0
  183.3180  178.2090  139.5740 C   0  0  1  0  0  3  0  0  0  0  0  0
  184.0710  178.4300  141.9620 C   0  0  1  0  0  3  0  0  0  0  0  0
  184.8570  179.9130  138.8460 O   0  0  0  0  0  1  0  0  0  0  0  0
  183.7500  179.1850  143.2490 C   0  0  0  0  0  2  0  0  0  0  0  0
  184.1570  178.4130  144.5040 C   0  0  0  0  0  2  0  0  0  0  0  0
  188.2050  177.7730  140.6380 C   0  0  0  0  0  2  0  0  0  0  0  0
  183.0560  178.8810  140.9140 C   0  0  0  0  0  2  0  0  0  0  0  0
  188.0000  178.4530  141.9830 C   0  0  2  0  0  3  0  0  0  0  0  0
  182.3690  178.6270  138.6420 O   0  0  0  0  0  1  0  0  0  0  0  0
  185.6110  177.9470  144.4780 C   0  0  0  0  0  2  0  0  0  0  0  0
  190.4820  175.8190  143.2630 C   0  0  0  0  0  0  0  0  0  0  0  0
  190.5640  174.4660  143.2290 F   0  0  0  0  0  0  0  0  0  0  0  0
  189.0990  177.9860  142.9520 C   0  0  2  0  0  3  0  0  0  0  0  0
  191.5920  176.5370  143.4390 C   0  0  0  0  0  3  0  0  0  0  0  0
  190.4660  178.6140  142.6310 C   0  0  0  0  0  2  0  0  0  0  0  0
  189.1800  176.4800  143.0590 C   0  0  0  0  0  0  0  0  0  0  0  0
  188.1280  175.7870  143.0290 O   0  0  0  0  0  0  0  0  0  0  0  0
  191.5650  178.0390  143.5290 C   0  0  1  0  0  3  0  0  0  0  0  0
  191.6070  177.2850  145.6110 C   0  0  0  0  0  1  0  0  0  0  0  0
  191.3510  178.4300  144.8550 O   0  0  0  0  0  0  0  0  0  0  0  0
  189.4790  176.8790  137.4510 N   0  0  0  0  0  0  0  0  0  0  0  0
  187.5980  179.7290  136.9080 O   0  0  0  0  0  0  0  0  0  0  0  0
  188.0770  178.6260  137.2810 C   0  0  0  0  0  0  0  0  0  0  0  0
  187.4240  177.6730  138.2120 C   0  0  1  0  0  3  0  0  0  0  0  0
  189.3200  178.1230  136.8360 N   0  0  0  0  0  2  0  0  0  0  0  0
  188.4690  176.5890  138.2110 C   0  0  0  0  0  3  0  0  0  0  0  0
  1  3  1  1  0  0  0
  2  4  1  0  0  0  0
  3 16  1  0  0  0  0
  4  8  1  0  0  0  0
  4  1  1  0  0  0  0
  5  7  1  0  0  0  0
  5  2  1  0  0  0  0
  6  2  1  0  0  0  0
  6 12  1  0  0  0  0
  7 13  1  0  0  0  0
  8 10  1  0  0  0  0
  9  5  1  0  0  0  0
 10 11  1  0  0  0  0
 12 14  1  0  0  0  0
 13  8  1  0  0  0  0
 14  1  1  0  0  0  0
 14 19  1  0  0  0  0
 15  7  1  0  0  0  0
 16 11  1  0  0  0  0
 17 20  2  0  0  0  0
 18 17  1  0  0  0  0
 19 22  1  0  0  0  0
 20 24  1  0  0  0  0
 21 19  1  0  0  0  0
 21 24  1  0  0  0  0
 22 17  1  0  0  0  0
 23 22  2  0  0  0  0
 24 26  1  0  0  0  0
 26 25  1  0  0  0  0
 27 32  2  0  0  0  0
 28 29  2  0  0  0  0
 29 30  1  0  0  0  0
 30  6  1  0  0  0  0
 31 29  1  0  0  0  0
 31 27  1  0  0  0  0
 32 30  1  0  0  0  0
M  END
>  <MODEL>
5

>  <REMARK>
 VINA RESULT:      -9.2      2.561      6.455
  Name = 
  3 active torsions:
  status: ('A' for Active; 'I' for Inactive)
    1  A    between atoms: C_10  and  C_28
    2  A    between atoms: O_15  and  C_26
    3  A    between atoms: C_16  and  C_27
                            x       y       z     vdW  Elec       q    Type
                         _______ _______ _______ _____ _____    ______ ____

>  <TORSDO>
F 3

$$$$
=
 OpenBabel10272413133D

 32 36  0  0  1  0  0  0  0  0999 V2000
  189.5610  176.8950  143.5770 C   0  0  1  0  0  3  0  0  0  0  0  0
  187.6890  177.3120  145.2330 C   0  0  1  0  0  3  0  0  0  0  0  0
  190.9380  177.0050  143.3380 O   0  0  0  0  0  0  0  0  0  0  0  0
  189.2180  177.3780  145.0040 C   0  0  1  0  0  3  0  0  0  0  0  0
  187.3230  177.7810  146.6470 C   0  0  1  0  0  3  0  0  0  0  0  0
  186.9200  178.0980  144.1580 C   0  0  1  0  0  3  0  0  0  0  0  0
  188.0400  176.9140  147.6780 C   0  0  1  0  0  3  0  0  0  0  0  0
  189.9530  176.5500  146.0890 C   0  0  1  0  0  3  0  0  0  0  0  0
  187.6460  179.1320  146.8230 O   0  0  0  0  0  1  0  0  0  0  0  0
  191.4670  176.7150  145.9870 C   0  0  0  0  0  2  0  0  0  0  0  0
  192.1050  175.7280  145.0100 C   0  0  0  0  0  2  0  0  0  0  0  0
  187.2870  177.5900  142.7610 C   0  0  0  0  0  2  0  0  0  0  0  0
  189.5480  177.0040  147.4900 C   0  0  0  0  0  2  0  0  0  0  0  0
  188.7840  177.7020  142.5190 C   0  0  2  0  0  3  0  0  0  0  0  0
  187.6990  177.3200  148.9680 O   0  0  0  0  0  1  0  0  0  0  0  0
  191.4480  175.7380  143.6310 C   0  0  0  0  0  2  0  0  0  0  0  0
  188.9050  178.4130  138.7500 C   0  0  0  0  0  0  0  0  0  0  0  0
  188.2500  179.2390  137.8960 F   0  0  0  0  0  0  0  0  0  0  0  0
  189.0900  177.2840  141.0720 C   0  0  2  0  0  3  0  0  0  0  0  0
  190.1070  177.9420  138.4100 C   0  0  0  0  0  3  0  0  0  0  0  0
  190.5980  177.2870  140.7690 C   0  0  0  0  0  2  0  0  0  0  0  0
  188.3070  178.0840  140.0570 C   0  0  0  0  0  0  0  0  0  0  0  0
  187.1190  178.4270  140.3020 O   0  0  0  0  0  0  0  0  0  0  0  0
  190.8670  176.9890  139.2920 C   0  0  1  0  0  3  0  0  0  0  0  0
  190.9930  175.4420  137.7110 C   0  0  0  0  0  1  0  0  0  0  0  0
  190.4980  175.6730  138.9960 O   0  0  0  0  0  0  0  0  0  0  0  0
  183.8180  179.0060  142.9750 N   0  0  0  0  0  0  0  0  0  0  0  0
  185.2320  179.9130  145.9970 O   0  0  0  0  0  0  0  0  0  0  0  0
  184.8900  179.3660  144.9160 C   0  0  0  0  0  0  0  0  0  0  0  0
  185.3990  178.0680  144.4080 C   0  0  1  0  0  3  0  0  0  0  0  0
  183.9360  179.9140  144.0300 N   0  0  0  0  0  2  0  0  0  0  0  0
  184.5970  177.9820  143.1370 C   0  0  0  0  0  3  0  0  0  0  0  0
  1  3  1  6  0  0  0
  1  4  1  0  0  0  0
  2  5  1  0  0  0  0
  3 16  1  0  0  0  0
  4  2  1  0  0  0  0
  4  8  1  0  0  0  0
  5  9  1  0  0  0  0
  5  7  1  0  0  0  0
  6 30  1  0  0  0  0
  6  2  1  0  0  0  0
  7 15  1  0  0  0  0
  8 13  1  0  0  0  0
 10  8  1  0  0  0  0
 11 10  1  0  0  0  0
 12  6  1  0  0  0  0
 13  7  1  0  0  0  0
 14 12  1  0  0  0  0
 14  1  1  0  0  0  0
 16 11  1  0  0  0  0
 17 22  1  0  0  0  0
 18 17  1  0  0  0  0
 19 14  1  0  0  0  0
 20 17  2  0  0  0  0
 20 24  1  0  0  0  0
 21 19  1  0  0  0  0
 22 23  2  0  0  0  0
 22 19  1  0  0  0  0
 24 21  1  0  0  0  0
 25 26  1  0  0  0  0
 26 24  1  0  0  0  0
 27 32  2  0  0  0  0
 27 31  1  0  0  0  0
 29 28  2  0  0  0  0
 30 29  1  0  0  0  0
 31 29  1  0  0  0  0
 32 30  1  0  0  0  0
M  END
>  <MODEL>
6

>  <REMARK>
 VINA RESULT:      -9.0      2.881      6.114
  Name = 
  3 active torsions:
  status: ('A' for Active; 'I' for Inactive)
    1  A    between atoms: C_10  and  C_28
    2  A    between atoms: O_15  and  C_26
    3  A    between atoms: C_16  and  C_27
                            x       y       z     vdW  Elec       q    Type
                         _______ _______ _______ _____ _____    ______ ____

>  <TORSDO>
F 3

$$$$
=
 OpenBabel10272413133D

 32 36  0  0  1  0  0  0  0  0999 V2000
  187.7100  177.8900  141.3870 C   0  0  1  0  0  3  0  0  0  0  0  0
  188.2510  177.6370  138.9240 C   0  0  1  0  0  3  0  0  0  0  0  0
  186.9780  178.6110  142.3400 O   0  0  0  0  0  0  0  0  0  0  0  0
  187.3890  178.3950  139.9620 C   0  0  1  0  0  3  0  0  0  0  0  0
  187.9460  178.1160  137.4990 C   0  0  1  0  0  3  0  0  0  0  0  0
  189.7510  177.7390  139.2490 C   0  0  1  0  0  3  0  0  0  0  0  0
  186.4660  177.9110  137.1930 C   0  0  1  0  0  3  0  0  0  0  0  0
  185.8860  178.2420  139.6170 C   0  0  1  0  0  3  0  0  0  0  0  0
  188.3060  179.4590  137.3380 O   0  0  0  0  0  1  0  0  0  0  0  0
  185.0130  179.1010  140.5280 C   0  0  0  0  0  2  0  0  0  0  0  0
  184.6370  178.3910  141.8280 C   0  0  0  0  0  2  0  0  0  0  0  0
  190.0260  177.2300  140.6660 C   0  0  0  0  0  2  0  0  0  0  0  0
  185.6070  178.6870  138.1820 C   0  0  0  0  0  2  0  0  0  0  0  0
  189.2160  178.0100  141.6890 C   0  0  2  0  0  3  0  0  0  0  0  0
  186.1810  178.3260  135.8930 O   0  0  0  0  0  1  0  0  0  0  0  0
  185.8440  177.8300  142.5770 C   0  0  0  0  0  2  0  0  0  0  0  0
  191.4650  176.0370  144.0930 C   0  0  0  0  0  0  0  0  0  0  0  0
  192.2700  174.9500  143.9970 F   0  0  0  0  0  0  0  0  0  0  0  0
  189.6040  177.5390  143.1000 C   0  0  2  0  0  3  0  0  0  0  0  0
  191.6640  176.9130  145.0790 C   0  0  0  0  0  3  0  0  0  0  0  0
  190.2930  178.6450  143.9170 C   0  0  0  0  0  2  0  0  0  0  0  0
  190.4110  176.2610  143.0860 C   0  0  0  0  0  0  0  0  0  0  0  0
  190.1520  175.3590  142.2450 O   0  0  0  0  0  0  0  0  0  0  0  0
  190.7800  178.1160  145.2680 C   0  0  1  0  0  3  0  0  0  0  0  0
  190.2420  177.1710  147.1980 C   0  0  0  0  0  1  0  0  0  0  0  0
  189.6860  177.7780  146.0710 O   0  0  0  0  0  0  0  0  0  0  0  0
  190.7740  174.7020  137.9940 N   0  0  0  0  0  0  0  0  0  0  0  0
  192.7900  177.1970  139.2850 O   0  0  0  0  0  0  0  0  0  0  0  0
  191.8800  176.4980  138.7660 C   0  0  0  0  0  0  0  0  0  0  0  0
  190.6130  177.0180  138.1930 C   0  0  1  0  0  3  0  0  0  0  0  0
  191.9520  175.0940  138.6350 N   0  0  0  0  0  2  0  0  0  0  0  0
  190.0120  175.7170  137.7320 C   0  0  0  0  0  3  0  0  0  0  0  0
  1 14  1  0  0  0  0
  1  3  1  1  0  0  0
  2  6  1  0  0  0  0
  2  4  1  0  0  0  0
  3 16  1  0  0  0  0
  4  1  1  0  0  0  0
  5  2  1  0  0  0  0
  6 12  1  0  0  0  0
  7  5  1  0  0  0  0
  7 13  1  0  0  0  0
  8  4  1  0  0  0  0
  8 10  1  0  0  0  0
  9  5  1  0  0  0  0
 10 11  1  0  0  0  0
 11 16  1  0  0  0  0
 12 14  1  0  0  0  0
 13  8  1  0  0  0  0
 14 19  1  0  0  0  0
 15  7  1  0  0  0  0
 17 20  2  0  0  0  0
 18 17  1  0  0  0  0
 19 21  1  0  0  0  0
 20 24  1  0  0  0  0
 21 24  1  0  0  0  0
 22 19  1  0  0  0  0
 22 17  1  0  0  0  0
 23 22  2  0  0  0  0
 24 26  1  0  0  0  0
 26 25  1  0  0  0  0
 27 31  1  0  0  0  0
 29 28  2  0  0  0  0
 30 29  1  0  0  0  0
 30  6  1  0  0  0  0
 31 29  1  0  0  0  0
 32 27  2  0  0  0  0
 32 30  1  0  0  0  0
M  END
>  <MODEL>
7

>  <REMARK>
 VINA RESULT:      -8.9      3.197      6.739
  Name = 
  3 active torsions:
  status: ('A' for Active; 'I' for Inactive)
    1  A    between atoms: C_10  and  C_28
    2  A    between atoms: O_15  and  C_26
    3  A    between atoms: C_16  and  C_27
                            x       y       z     vdW  Elec       q    Type
                         _______ _______ _______ _____ _____    ______ ____

>  <TORSDO>
F 3

$$$$
=
 OpenBabel10272413133D

 32 36  0  0  1  0  0  0  0  0999 V2000
  186.0570  178.6100  143.5740 C   0  0  1  0  0  3  0  0  0  0  0  0
  187.9250  178.1350  145.2190 C   0  0  1  0  0  3  0  0  0  0  0  0
  184.6950  178.4410  143.2940 O   0  0  0  0  0  0  0  0  0  0  0  0
  186.4080  178.0000  144.9500 C   0  0  1  0  0  3  0  0  0  0  0  0
  188.2990  177.5430  146.5840 C   0  0  1  0  0  3  0  0  0  0  0  0
  188.7600  177.5160  144.0840 C   0  0  1  0  0  3  0  0  0  0  0  0
  187.5130  178.2490  147.6830 C   0  0  1  0  0  3  0  0  0  0  0  0
  185.6050  178.6620  146.0990 C   0  0  1  0  0  3  0  0  0  0  0  0
  188.0590  176.1640  146.6100 O   0  0  0  0  0  1  0  0  0  0  0  0
  184.1060  178.4160  145.9470 C   0  0  0  0  0  2  0  0  0  0  0  0
  183.4220  179.4600  145.0640 C   0  0  0  0  0  2  0  0  0  0  0  0
  188.3840  178.1460  142.7410 C   0  0  0  0  0  2  0  0  0  0  0  0
  186.0160  178.0870  147.4530 C   0  0  0  0  0  2  0  0  0  0  0  0
  186.9000  177.9680  142.4550 C   0  0  2  0  0  3  0  0  0  0  0  0
  187.8570  177.7310  148.9310 O   0  0  0  0  0  1  0  0  0  0  0  0
  184.1000  179.6360  143.7070 C   0  0  0  0  0  2  0  0  0  0  0  0
  187.4410  178.0320  138.6560 C   0  0  0  0  0  0  0  0  0  0  0  0
  188.4530  177.7080  137.8140 F   0  0  0  0  0  0  0  0  0  0  0  0
  186.5910  178.5180  141.0530 C   0  0  2  0  0  3  0  0  0  0  0  0
  186.1900  178.0670  138.1920 C   0  0  0  0  0  3  0  0  0  0  0  0
  185.2510  177.9990  140.5040 C   0  0  0  0  0  2  0  0  0  0  0  0
  187.7250  178.2980  140.0780 C   0  0  0  0  0  0  0  0  0  0  0  0
  188.9210  178.3920  140.4670 O   0  0  0  0  0  0  0  0  0  0  0  0
  185.0270  178.4610  139.0620 C   0  0  1  0  0  3  0  0  0  0  0  0
  183.4800  180.0380  138.9000 C   0  0  0  0  0  1  0  0  0  0  0  0
  184.8570  179.8480  139.0260 O   0  0  0  0  0  0  0  0  0  0  0  0
  191.7820  178.7910  143.0410 N   0  0  0  0  0  0  0  0  0  0  0  0
  190.9750  175.4560  143.4690 O   0  0  0  0  0  0  0  0  0  0  0  0
  191.0650  176.7110  143.4980 C   0  0  0  0  0  0  0  0  0  0  0  0
  190.2720  177.6130  144.3700 C   0  0  1  0  0  3  0  0  0  0  0  0
  191.9700  177.4480  142.7030 N   0  0  0  0  0  2  0  0  0  0  0  0
  190.8660  178.9310  143.9480 C   0  0  0  0  0  3  0  0  0  0  0  0
  1  3  1  6  0  0  0
  1  4  1  0  0  0  0
  2  5  1  0  0  0  0
  3 16  1  0  0  0  0
  4  2  1  0  0  0  0
  4  8  1  0  0  0  0
  5  9  1  0  0  0  0
  5  7  1  0  0  0  0
  6 30  1  0  0  0  0
  6  2  1  0  0  0  0
  7 15  1  0  0  0  0
  8 13  1  0  0  0  0
 10  8  1  0  0  0  0
 11 10  1  0  0  0  0
 12  6  1  0  0  0  0
 13  7  1  0  0  0  0
 14 12  1  0  0  0  0
 14  1  1  0  0  0  0
 16 11  1  0  0  0  0
 17 22  1  0  0  0  0
 18 17  1  0  0  0  0
 19 14  1  0  0  0  0
 20 17  2  0  0  0  0
 20 24  1  0  0  0  0
 21 19  1  0  0  0  0
 22 23  2  0  0  0  0
 22 19  1  0  0  0  0
 24 21  1  0  0  0  0
 25 26  1  0  0  0  0
 26 24  1  0  0  0  0
 27 32  2  0  0  0  0
 28 29  2  0  0  0  0
 29 30  1  0  0  0  0
 31 27  1  0  0  0  0
 31 29  1  0  0  0  0
 32 30  1  0  0  0  0
M  END
>  <MODEL>
8

>  <REMARK>
 VINA RESULT:      -8.9      2.360      3.683
  Name = 
  3 active torsions:
  status: ('A' for Active; 'I' for Inactive)
    1  A    between atoms: C_10  and  C_28
    2  A    between atoms: O_15  and  C_26
    3  A    between atoms: C_16  and  C_27
                            x       y       z     vdW  Elec       q    Type
                         _______ _______ _______ _____ _____    ______ ____

>  <TORSDO>
F 3

$$$$
=
 OpenBabel10272413133D

 32 36  0  0  1  0  0  0  0  0999 V2000
  188.3310  178.0420  142.0990 C   0  0  1  0  0  3  0  0  0  0  0  0
  187.6700  178.2630  139.6630 C   0  0  1  0  0  3  0  0  0  0  0  0
  189.1330  177.3540  143.0200 O   0  0  0  0  0  0  0  0  0  0  0  0
  188.6070  177.5430  140.6620 C   0  0  1  0  0  3  0  0  0  0  0  0
  187.9290  177.7900  138.2260 C   0  0  1  0  0  3  0  0  0  0  0  0
  186.1910  178.1040  140.0550 C   0  0  1  0  0  3  0  0  0  0  0  0
  189.3850  178.0510  137.8530 C   0  0  1  0  0  3  0  0  0  0  0  0
  190.0860  177.7540  140.2490 C   0  0  1  0  0  3  0  0  0  0  0  0
  187.6150  176.4330  138.0850 O   0  0  0  0  0  1  0  0  0  0  0  0
  191.0310  176.9330  141.1220 C   0  0  0  0  0  2  0  0  0  0  0  0
  191.4380  177.6630  142.4020 C   0  0  0  0  0  2  0  0  0  0  0  0
  185.9600  178.6080  141.4810 C   0  0  0  0  0  2  0  0  0  0  0  0
  190.3170  177.3130  138.8050 C   0  0  0  0  0  2  0  0  0  0  0  0
  186.8460  177.8640  142.4690 C   0  0  2  0  0  3  0  0  0  0  0  0
  189.6270  177.6420  136.5420 O   0  0  0  0  0  1  0  0  0  0  0  0
  190.2450  178.1800  143.2030 C   0  0  0  0  0  2  0  0  0  0  0  0
  184.3190  178.7390  145.2220 C   0  0  0  0  0  0  0  0  0  0  0  0
  183.0320  179.1640  145.2590 F   0  0  0  0  0  0  0  0  0  0  0  0
  186.5030  178.3260  143.8950 C   0  0  2  0  0  3  0  0  0  0  0  0
  184.8340  178.1210  146.2870 C   0  0  0  0  0  3  0  0  0  0  0  0
  186.7320  177.2200  144.9390 C   0  0  0  0  0  2  0  0  0  0  0  0
  185.1180  178.9220  143.9970 C   0  0  0  0  0  0  0  0  0  0  0  0
  184.6600  179.6240  143.0550 O   0  0  0  0  0  0  0  0  0  0  0  0
  186.2670  177.6630  146.3280 C   0  0  1  0  0  3  0  0  0  0  0  0
  187.8180  178.1340  147.8370 C   0  0  0  0  0  1  0  0  0  0  0  0
  187.0810  178.7000  146.7960 O   0  0  0  0  0  0  0  0  0  0  0  0
  183.0360  179.3500  139.4750 N   0  0  0  0  0  0  0  0  0  0  0  0
  184.6240  176.8280  137.7210 O   0  0  0  0  0  0  0  0  0  0  0  0
  184.3050  177.8250  138.4210 C   0  0  0  0  0  0  0  0  0  0  0  0
  185.2540  178.7860  139.0370 C   0  0  1  0  0  3  0  0  0  0  0  0
  182.9700  178.1880  138.7020 N   0  0  0  0  0  2  0  0  0  0  0  0
  184.2620  179.7150  139.6840 C   0  0  0  0  0  3  0  0  0  0  0  0
  1 14  1  0  0  0  0
  1  3  1  1  0  0  0
  2  6  1  0  0  0  0
  2  4  1  0  0  0  0
  3 16  1  0  0  0  0
  4  1  1  0  0  0  0
  5  2  1  0  0  0  0
  6 12  1  0  0  0  0
  7  5  1  0  0  0  0
  7 13  1  0  0  0  0
  8  4  1  0  0  0  0
  8 10  1  0  0  0  0
  9  5  1  0  0  0  0
 10 11  1  0  0  0  0
 11 16  1  0  0  0  0
 12 14  1  0  0  0  0
 13  8  1  0  0  0  0
 14 19  1  0  0  0  0
 15  7  1  0  0  0  0
 17 18  1  0  0  0  0
 17 20  2  0  0  0  0
 19 22  1  0  0  0  0
 19 21  1  0  0  0  0
 20 24  1  0  0  0  0
 21 24  1  0  0  0  0
 22 17  1  0  0  0  0
 23 22  2  0  0  0  0
 24 26  1  0  0  0  0
 26 25  1  0  0  0  0
 27 32  2  0  0  0  0
 28 29  2  0  0  0  0
 29 31  1  0  0  0  0
 29 30  1  0  0  0  0
 30 32  1  0  0  0  0
 30  6  1  0  0  0  0
 31 27  1  0  0  0  0
M  END
>  <MODEL>
9

>  <REMARK>
 VINA RESULT:      -8.8      2.814      5.620
  Name = 
  3 active torsions:
  status: ('A' for Active; 'I' for Inactive)
    1  A    between atoms: C_10  and  C_28
    2  A    between atoms: O_15  and  C_26
    3  A    between atoms: C_16  and  C_27
                            x       y       z     vdW  Elec       q    Type
                         _______ _______ _______ _____ _____    ______ ____

>  <TORSDO>
F 3

$$$$
