=
 OpenBabel10272401143D

 27 30  0  0  1  0  0  0  0  0999 V2000
  189.4050  177.9770  141.5690 N   0  0  0  0  0  0  0  0  0  0  0  0
  189.6390  177.6080  140.1900 C   0  0  0  0  0  0  0  0  0  0  0  0
  190.1150  176.6870  136.1480 N   0  0  0  0  0  2  0  0  0  0  0  0
  188.3010  176.8050  134.5340 C   0  0  0  0  0  1  0  0  0  0  0  0
  190.5190  176.5580  139.8520 C   0  0  0  0  0  3  0  0  0  0  0  0
  188.3640  178.7180  136.5140 S   0  0  0  0  0  0  0  0  0  0  0  0
  189.1700  177.9340  137.8910 C   0  0  0  0  0  0  0  0  0  0  0  0
  189.2840  177.6010  135.3680 C   0  0  1  0  0  3  0  0  0  0  0  0
  190.0210  176.9250  137.5370 C   0  0  0  0  0  0  0  0  0  0  0  0
  188.9790  178.2700  139.1920 N   0  0  0  0  0  0  0  0  0  0  0  0
  190.7150  176.2110  138.5100 C   0  0  0  0  0  3  0  0  0  0  0  0
  190.3670  178.6670  143.7570 C   0  0  1  0  0  3  0  0  0  0  0  0
  190.0550  176.4530  144.8250 C   0  0  1  0  0  3  0  0  0  0  0  0
  191.5150  179.4400  143.5720 O   0  0  0  0  0  1  0  0  0  0  0  0
  188.7570  176.3560  144.2710 O   0  0  0  0  0  0  0  0  0  0  0  0
  190.2790  177.6000  142.6850 C   0  0  1  0  0  3  0  0  0  0  0  0
  191.6490  177.9850  145.6850 F   0  0  0  0  0  0  0  0  0  0  0  0
  190.1600  175.0700  142.8650 O   0  0  0  0  0  1  0  0  0  0  0  0
  189.8380  176.3250  143.3760 C   0  0  1  0  0  0  0  0  0  0  0  0
  190.4000  177.9170  145.0930 C   0  0  1  0  0  3  0  0  0  0  0  0
  188.2930  178.8610  141.9010 C   0  0  0  0  0  2  0  0  0  0  0  0
  186.9600  178.1730  141.6460 C   0  0  2  0  0  3  0  0  0  0  0  0
  186.2460  178.9050  140.7160 F   0  0  0  0  0  0  0  0  0  0  0  0
  186.1680  178.0700  142.9430 C   0  0  0  0  0  2  0  0  0  0  0  0
  184.6930  178.3490  142.7070 C   0  0  0  0  0  2  0  0  0  0  0  0
  184.0250  178.6990  143.9640 C   0  0  0  0  0  0  0  0  0  0  0  0
  183.4750  178.9890  144.9970 C   0  0  0  0  0  3  0  0  0  0  0  0
  1 21  1  0  0  0  0
  2  1  1  0  0  0  0
  3  9  1  0  0  0  0
  5  2  1  0  0  0  0
  6  7  1  0  0  0  0
  7 10  1  0  0  0  0
  8  4  1  1  0  0  0
  8  3  1  0  0  0  0
  8  6  1  0  0  0  0
  9  7  2  0  0  0  0
  9 11  1  0  0  0  0
 10  2  2  0  0  0  0
 11  5  2  0  0  0  0
 12 14  1  6  0  0  0
 12 20  1  0  0  0  0
 13 15  1  1  0  0  0
 13 20  1  0  0  0  0
 16  1  1  6  0  0  0
 16 19  1  0  0  0  0
 16 12  1  0  0  0  0
 19 18  1  6  0  0  0
 19 15  1  0  0  0  0
 19 13  1  0  0  0  0
 20 17  1  6  0  0  0
 22 23  1  6  0  0  0
 22 21  1  0  0  0  0
 22 24  1  0  0  0  0
 25 24  1  0  0  0  0
 25 26  1  0  0  0  0
 26 27  3  0  0  0  0
M  END
>  <MODEL>
1

>  <REMARK>
 VINA RESULT:      -6.9      0.000      0.000
  Name = 
  6 active torsions:
  status: ('A' for Active; 'I' for Inactive)
    1  A    between atoms: N_1  and  C_15
    2  A    between atoms: N_1  and  C_18
    3  A    between atoms: C_7  and  C_25
    4  A    between atoms: C_9  and  C_15
    5  A    between atoms: C_9  and  C_27
    6  A    between atoms: C_25  and  C_27
                            x       y       z     vdW  Elec       q    Type
                         _______ _______ _______ _____ _____    ______ ____

>  <TORSDO>
F 6

$$$$
=
 OpenBabel10272401143D

 27 30  0  0  1  0  0  0  0  0999 V2000
  186.7730  177.9630  144.3930 N   0  0  0  0  0  0  0  0  0  0  0  0
  187.7540  177.5150  143.4300 C   0  0  0  0  0  0  0  0  0  0  0  0
  190.4690  176.3610  140.4780 N   0  0  0  0  0  2  0  0  0  0  0  0
  189.9500  176.4030  138.1030 C   0  0  0  0  0  1  0  0  0  0  0  0
  188.6210  176.4380  143.7160 C   0  0  0  0  0  3  0  0  0  0  0  0
  188.9200  178.4250  139.6640 S   0  0  0  0  0  0  0  0  0  0  0  0
  188.7340  177.7130  141.2820 C   0  0  0  0  0  0  0  0  0  0  0  0
  190.2900  177.2360  139.3220 C   0  0  1  0  0  3  0  0  0  0  0  0
  189.5890  176.6780  141.5370 C   0  0  0  0  0  0  0  0  0  0  0  0
  187.8310  178.1240  142.2090 N   0  0  0  0  0  0  0  0  0  0  0  0
  189.5510  176.0140  142.7590 C   0  0  0  0  0  3  0  0  0  0  0  0
  188.1420  177.9640  146.4700 C   0  0  1  0  0  3  0  0  0  0  0  0
  186.3080  178.7740  147.9250 C   0  0  1  0  0  3  0  0  0  0  0  0
  188.9290  176.8130  146.5440 O   0  0  0  0  0  1  0  0  0  0  0  0
  185.9410  179.7300  146.9490 O   0  0  0  0  0  0  0  0  0  0  0  0
  186.8110  177.6430  145.8240 C   0  0  1  0  0  3  0  0  0  0  0  0
  188.1570  177.6180  148.8580 F   0  0  0  0  0  0  0  0  0  0  0  0
  184.4370  177.9230  146.6820 O   0  0  0  0  0  1  0  0  0  0  0  0
  185.7520  178.3790  146.6210 C   0  0  1  0  0  0  0  0  0  0  0  0
  187.8110  178.5140  147.8610 C   0  0  1  0  0  3  0  0  0  0  0  0
  185.7140  178.8760  143.9720 C   0  0  0  0  0  2  0  0  0  0  0  0
  184.5980  178.1200  143.2660 C   0  0  2  0  0  3  0  0  0  0  0  0
  185.0380  177.7310  142.0150 F   0  0  0  0  0  0  0  0  0  0  0  0
  183.3690  179.0100  143.1290 C   0  0  0  0  0  2  0  0  0  0  0  0
  182.5020  178.9430  144.3760 C   0  0  0  0  0  2  0  0  0  0  0  0
  181.1190  178.6070  144.0270 C   0  0  0  0  0  0  0  0  0  0  0  0
  179.9820  178.3290  143.7390 C   0  0  0  0  0  3  0  0  0  0  0  0
  2  5  1  0  0  0  0
  2  1  1  0  0  0  0
  3  9  1  0  0  0  0
  6  7  1  0  0  0  0
  7  9  2  0  0  0  0
  7 10  1  0  0  0  0
  8  4  1  6  0  0  0
  8  6  1  0  0  0  0
  8  3  1  0  0  0  0
  9 11  1  0  0  0  0
 10  2  2  0  0  0  0
 11  5  2  0  0  0  0
 12 14  1  1  0  0  0
 12 20  1  0  0  0  0
 13 15  1  6  0  0  0
 16  1  1  6  0  0  0
 16 12  1  0  0  0  0
 16 19  1  0  0  0  0
 19 18  1  6  0  0  0
 19 15  1  0  0  0  0
 19 13  1  0  0  0  0
 20 13  1  0  0  0  0
 20 17  1  1  0  0  0
 21  1  1  0  0  0  0
 22 23  1  6  0  0  0
 22 21  1  0  0  0  0
 24 22  1  0  0  0  0
 24 25  1  0  0  0  0
 26 25  1  0  0  0  0
 27 26  3  0  0  0  0
M  END
>  <MODEL>
2

>  <REMARK>
 VINA RESULT:      -6.6      2.796      4.158
  Name = 
  6 active torsions:
  status: ('A' for Active; 'I' for Inactive)
    1  A    between atoms: N_1  and  C_15
    2  A    between atoms: N_1  and  C_18
    3  A    between atoms: C_7  and  C_25
    4  A    between atoms: C_9  and  C_15
    5  A    between atoms: C_9  and  C_27
    6  A    between atoms: C_25  and  C_27
                            x       y       z     vdW  Elec       q    Type
                         _______ _______ _______ _____ _____    ______ ____

>  <TORSDO>
F 6

$$$$
=
 OpenBabel10272401143D

 27 30  0  0  1  0  0  0  0  0999 V2000
  187.2550  178.0060  143.7820 N   0  0  0  0  0  0  0  0  0  0  0  0
  185.8620  178.3420  143.5850 C   0  0  0  0  0  0  0  0  0  0  0  0
  181.8600  179.2150  142.7870 N   0  0  0  0  0  2  0  0  0  0  0  0
  180.9850  179.5030  140.5360 C   0  0  0  0  0  1  0  0  0  0  0  0
  185.1810  179.1940  144.4810 C   0  0  0  0  0  3  0  0  0  0  0  0
  182.9250  177.5840  140.9080 S   0  0  0  0  0  0  0  0  0  0  0  0
  183.8900  178.1610  142.2840 C   0  0  0  0  0  0  0  0  0  0  0  0
  181.4700  178.5070  141.5700 C   0  0  1  0  0  3  0  0  0  0  0  0
  183.2070  178.9780  143.1400 C   0  0  0  0  0  0  0  0  0  0  0  0
  185.1940  177.8480  142.4990 N   0  0  0  0  0  0  0  0  0  0  0  0
  183.8370  179.5160  144.2580 C   0  0  0  0  0  3  0  0  0  0  0  0
  187.5160  177.2150  146.1260 C   0  0  1  0  0  3  0  0  0  0  0  0
  189.9920  177.2830  146.0910 C   0  0  1  0  0  3  0  0  0  0  0  0
  186.5950  177.8440  146.9660 O   0  0  0  0  0  1  0  0  0  0  0  0
  190.0020  176.6840  144.8090 O   0  0  0  0  0  0  0  0  0  0  0  0
  187.9760  178.1740  145.0480 C   0  0  1  0  0  3  0  0  0  0  0  0
  188.8210  177.3530  148.1520 F   0  0  0  0  0  0  0  0  0  0  0  0
  190.2990  179.0030  144.4420 O   0  0  0  0  0  1  0  0  0  0  0  0
  189.4720  177.9800  144.9040 C   0  0  1  0  0  0  0  0  0  0  0  0
  188.7810  176.7980  146.8840 C   0  0  1  0  0  3  0  0  0  0  0  0
  188.0010  177.3640  142.7040 C   0  0  0  0  0  2  0  0  0  0  0  0
  188.4470  178.3880  141.6710 C   0  0  2  0  0  3  0  0  0  0  0  0
  187.3660  178.7340  140.8820 F   0  0  0  0  0  0  0  0  0  0  0  0
  189.5560  177.8070  140.8030 C   0  0  0  0  0  2  0  0  0  0  0  0
  188.9930  177.2080  139.5250 C   0  0  0  0  0  2  0  0  0  0  0  0
  189.0780  178.1690  138.4210 C   0  0  0  0  0  0  0  0  0  0  0  0
  189.1510  178.9610  137.5150 C   0  0  0  0  0  3  0  0  0  0  0  0
  2  1  1  0  0  0  0
  2  5  1  0  0  0  0
  3  9  1  0  0  0  0
  6  8  1  0  0  0  0
  6  7  1  0  0  0  0
  7 10  1  0  0  0  0
  7  9  2  0  0  0  0
  8  4  1  6  0  0  0
  8  3  1  0  0  0  0
  9 11  1  0  0  0  0
 10  2  2  0  0  0  0
 11  5  2  0  0  0  0
 12 20  1  0  0  0  0
 12 14  1  1  0  0  0
 13 15  1  6  0  0  0
 13 20  1  0  0  0  0
 15 19  1  0  0  0  0
 16  1  1  6  0  0  0
 16 12  1  0  0  0  0
 19 18  1  6  0  0  0
 19 16  1  0  0  0  0
 19 13  1  0  0  0  0
 20 17  1  1  0  0  0
 21  1  1  0  0  0  0
 22 23  1  6  0  0  0
 22 21  1  0  0  0  0
 24 22  1  0  0  0  0
 25 24  1  0  0  0  0
 26 25  1  0  0  0  0
 27 26  3  0  0  0  0
M  END
>  <MODEL>
3

>  <REMARK>
 VINA RESULT:      -6.4      2.974      6.135
  Name = 
  6 active torsions:
  status: ('A' for Active; 'I' for Inactive)
    1  A    between atoms: N_1  and  C_15
    2  A    between atoms: N_1  and  C_18
    3  A    between atoms: C_7  and  C_25
    4  A    between atoms: C_9  and  C_15
    5  A    between atoms: C_9  and  C_27
    6  A    between atoms: C_25  and  C_27
                            x       y       z     vdW  Elec       q    Type
                         _______ _______ _______ _____ _____    ______ ____

>  <TORSDO>
F 6

$$$$
=
 OpenBabel10272401143D

 27 30  0  0  1  0  0  0  0  0999 V2000
  185.5040  178.8870  140.2960 N   0  0  0  0  0  0  0  0  0  0  0  0
  186.8470  178.4100  140.5430 C   0  0  0  0  0  0  0  0  0  0  0  0
  190.6790  177.0670  141.5040 N   0  0  0  0  0  2  0  0  0  0  0  0
  191.8320  177.6900  143.5520 C   0  0  0  0  0  1  0  0  0  0  0  0
  187.7760  178.2600  139.4920 C   0  0  0  0  0  3  0  0  0  0  0  0
  189.1130  177.2840  143.7000 S   0  0  0  0  0  0  0  0  0  0  0  0
  188.4950  177.6840  142.0820 C   0  0  0  0  0  0  0  0  0  0  0  0
  190.7380  176.8370  142.9460 C   0  0  1  0  0  3  0  0  0  0  0  0
  189.4110  177.5240  141.0810 C   0  0  0  0  0  0  0  0  0  0  0  0
  187.2360  178.1200  141.8210 N   0  0  0  0  0  0  0  0  0  0  0  0
  189.0740  177.8110  139.7620 C   0  0  0  0  0  3  0  0  0  0  0  0
  184.4110  177.5310  138.5200 C   0  0  1  0  0  3  0  0  0  0  0  0
  182.6070  179.1730  138.0890 C   0  0  1  0  0  3  0  0  0  0  0  0
  185.3640  176.9730  137.6660 O   0  0  0  0  0  1  0  0  0  0  0  0
  182.4290  179.3600  139.4800 O   0  0  0  0  0  0  0  0  0  0  0  0
  184.8610  178.9020  138.9770 C   0  0  1  0  0  3  0  0  0  0  0  0
  183.1850  177.5680  136.4410 F   0  0  0  0  0  0  0  0  0  0  0  0
  183.7550  181.1770  138.7480 O   0  0  0  0  0  1  0  0  0  0  0  0
  183.6410  179.8000  138.9270 C   0  0  1  0  0  0  0  0  0  0  0  0
  183.0700  177.7450  137.8090 C   0  0  1  0  0  3  0  0  0  0  0  0
  184.6660  179.2990  141.4180 C   0  0  0  0  0  2  0  0  0  0  0  0
  184.2330  178.0940  142.2400 C   0  0  2  0  0  3  0  0  0  0  0  0
  183.2450  177.4120  141.5550 F   0  0  0  0  0  0  0  0  0  0  0  0
  183.7050  178.5480  143.5940 C   0  0  0  0  0  2  0  0  0  0  0  0
  184.7030  179.4560  144.2950 C   0  0  0  0  0  2  0  0  0  0  0  0
  185.0620  178.9130  145.6090 C   0  0  0  0  0  0  0  0  0  0  0  0
  185.3600  178.4650  146.6870 C   0  0  0  0  0  3  0  0  0  0  0  0
  1  2  1  0  0  0  0
  1 21  1  0  0  0  0
  2 10  1  0  0  0  0
  3  8  1  0  0  0  0
  5 11  1  0  0  0  0
  5  2  2  0  0  0  0
  7  6  1  0  0  0  0
  8  4  1  1  0  0  0
  8  6  1  0  0  0  0
  9  3  1  0  0  0  0
  9  7  1  0  0  0  0
 10  7  2  0  0  0  0
 11  9  2  0  0  0  0
 12 14  1  6  0  0  0
 12 16  1  0  0  0  0
 13 19  1  0  0  0  0
 13 15  1  1  0  0  0
 16  1  1  1  0  0  0
 19 18  1  6  0  0  0
 19 16  1  0  0  0  0
 19 15  1  0  0  0  0
 20 17  1  6  0  0  0
 20 13  1  0  0  0  0
 20 12  1  0  0  0  0
 21 22  1  0  0  0  0
 22 23  1  6  0  0  0
 22 24  1  0  0  0  0
 24 25  1  0  0  0  0
 25 26  1  0  0  0  0
 26 27  3  0  0  0  0
M  END
>  <MODEL>
4

>  <REMARK>
 VINA RESULT:      -6.3      4.194      6.597
  Name = 
  6 active torsions:
  status: ('A' for Active; 'I' for Inactive)
    1  A    between atoms: N_1  and  C_15
    2  A    between atoms: N_1  and  C_18
    3  A    between atoms: C_7  and  C_25
    4  A    between atoms: C_9  and  C_15
    5  A    between atoms: C_9  and  C_27
    6  A    between atoms: C_25  and  C_27
                            x       y       z     vdW  Elec       q    Type
                         _______ _______ _______ _____ _____    ______ ____

>  <TORSDO>
F 6

$$$$
=
 OpenBabel10272401143D

 27 30  0  0  1  0  0  0  0  0999 V2000
  189.3120  177.2230  141.4280 N   0  0  0  0  0  0  0  0  0  0  0  0
  188.0660  177.8530  141.8040 C   0  0  0  0  0  0  0  0  0  0  0  0
  184.4810  179.5440  143.1090 N   0  0  0  0  0  2  0  0  0  0  0  0
  183.0570  178.5130  144.7890 C   0  0  0  0  0  1  0  0  0  0  0  0
  187.2760  178.5380  140.8560 C   0  0  0  0  0  3  0  0  0  0  0  0
  185.7810  178.2780  145.1160 S   0  0  0  0  0  0  0  0  0  0  0  0
  186.4530  178.3330  143.4720 C   0  0  0  0  0  0  0  0  0  0  0  0
  184.3410  179.2770  144.5390 C   0  0  1  0  0  3  0  0  0  0  0  0
  185.6740  179.0080  142.5750 C   0  0  0  0  0  0  0  0  0  0  0  0
  187.6270  177.7640  143.0960 N   0  0  0  0  0  0  0  0  0  0  0  0
  186.0660  179.1250  141.2440 C   0  0  0  0  0  3  0  0  0  0  0  0
  191.4590  176.9600  140.1970 C   0  0  1  0  0  3  0  0  0  0  0  0
  190.3870  176.5010  138.0110 C   0  0  1  0  0  3  0  0  0  0  0  0
  192.3720  177.9440  140.5800 O   0  0  0  0  0  1  0  0  0  0  0  0
  189.4600  175.6330  138.6350 O   0  0  0  0  0  0  0  0  0  0  0  0
  190.0540  177.5260  140.1990 C   0  0  1  0  0  3  0  0  0  0  0  0
  192.6220  177.2890  138.1090 F   0  0  0  0  0  0  0  0  0  0  0  0
  188.3270  177.6900  138.3440 O   0  0  0  0  0  1  0  0  0  0  0  0
  189.3710  176.9970  138.9530 C   0  0  1  0  0  0  0  0  0  0  0  0
  191.7150  176.4760  138.7660 C   0  0  1  0  0  3  0  0  0  0  0  0
  189.9580  176.2920  142.3480 C   0  0  0  0  0  2  0  0  0  0  0  0
  190.3900  177.0040  143.6210 C   0  0  2  0  0  3  0  0  0  0  0  0
  190.9380  178.2290  143.2900 F   0  0  0  0  0  0  0  0  0  0  0  0
  191.4170  176.1620  144.3680 C   0  0  0  0  0  2  0  0  0  0  0  0
  191.6000  176.6580  145.7930 C   0  0  0  0  0  2  0  0  0  0  0  0
  190.3010  176.9210  146.4200 C   0  0  0  0  0  0  0  0  0  0  0  0
  189.2330  177.1390  146.9340 C   0  0  0  0  0  3  0  0  0  0  0  0
  1  2  1  0  0  0  0
  1 21  1  0  0  0  0
  2 10  1  0  0  0  0
  3  8  1  0  0  0  0
  5 11  1  0  0  0  0
  5  2  2  0  0  0  0
  7  6  1  0  0  0  0
  8  4  1  6  0  0  0
  8  6  1  0  0  0  0
  9  3  1  0  0  0  0
  9  7  1  0  0  0  0
 10  7  2  0  0  0  0
 11  9  2  0  0  0  0
 12 16  1  0  0  0  0
 12 14  1  6  0  0  0
 13 15  1  1  0  0  0
 13 20  1  0  0  0  0
 13 19  1  0  0  0  0
 15 19  1  0  0  0  0
 16  1  1  1  0  0  0
 19 18  1  6  0  0  0
 19 16  1  0  0  0  0
 20 17  1  6  0  0  0
 20 12  1  0  0  0  0
 21 22  1  0  0  0  0
 22 23  1  6  0  0  0
 22 24  1  0  0  0  0
 24 25  1  0  0  0  0
 25 26  1  0  0  0  0
 26 27  3  0  0  0  0
M  END
>  <MODEL>
5

>  <REMARK>
 VINA RESULT:      -6.3      3.108      6.340
  Name = 
  6 active torsions:
  status: ('A' for Active; 'I' for Inactive)
    1  A    between atoms: N_1  and  C_15
    2  A    between atoms: N_1  and  C_18
    3  A    between atoms: C_7  and  C_25
    4  A    between atoms: C_9  and  C_15
    5  A    between atoms: C_9  and  C_27
    6  A    between atoms: C_25  and  C_27
                            x       y       z     vdW  Elec       q    Type
                         _______ _______ _______ _____ _____    ______ ____

>  <TORSDO>
F 6

$$$$
=
 OpenBabel10272401143D

 27 30  0  0  1  0  0  0  0  0999 V2000
  186.8960  178.0320  144.2070 N   0  0  0  0  0  0  0  0  0  0  0  0
  185.5610  178.3860  143.7780 C   0  0  0  0  0  0  0  0  0  0  0  0
  181.7530  179.2820  142.3250 N   0  0  0  0  0  2  0  0  0  0  0  0
  181.2110  179.3290  139.9550 C   0  0  0  0  0  1  0  0  0  0  0  0
  184.8050  179.3590  144.4660 C   0  0  0  0  0  3  0  0  0  0  0  0
  182.9880  177.4080  140.8130 S   0  0  0  0  0  0  0  0  0  0  0  0
  183.7810  178.1130  142.2380 C   0  0  0  0  0  0  0  0  0  0  0  0
  181.5010  178.4480  141.1530 C   0  0  1  0  0  3  0  0  0  0  0  0
  183.0260  179.0470  142.8910 C   0  0  0  0  0  0  0  0  0  0  0  0
  185.0260  177.7880  142.6700 N   0  0  0  0  0  0  0  0  0  0  0  0
  183.5210  179.6930  144.0190 C   0  0  0  0  0  3  0  0  0  0  0  0
  186.6710  177.6640  146.6570 C   0  0  1  0  0  3  0  0  0  0  0  0
  189.1000  177.3610  147.0430 C   0  0  1  0  0  3  0  0  0  0  0  0
  185.7620  178.5670  147.2110 O   0  0  0  0  0  1  0  0  0  0  0  0
  189.1910  176.5380  145.8950 O   0  0  0  0  0  0  0  0  0  0  0  0
  187.4440  178.3270  145.5350 C   0  0  1  0  0  3  0  0  0  0  0  0
  187.6710  177.9860  148.8300 F   0  0  0  0  0  0  0  0  0  0  0  0
  189.9390  178.6780  145.2180 O   0  0  0  0  0  1  0  0  0  0  0  0
  188.8880  177.8920  145.6870 C   0  0  1  0  0  0  0  0  0  0  0  0
  187.7200  177.2160  147.6810 C   0  0  1  0  0  3  0  0  0  0  0  0
  187.7530  177.2450  143.3250 C   0  0  0  0  0  2  0  0  0  0  0  0
  188.4380  178.1350  142.2990 C   0  0  2  0  0  3  0  0  0  0  0  0
  187.7110  178.1100  141.1230 F   0  0  0  0  0  0  0  0  0  0  0  0
  189.8550  177.6430  142.0420 C   0  0  0  0  0  2  0  0  0  0  0  0
  189.9890  176.1640  142.3670 C   0  0  0  0  0  2  0  0  0  0  0  0
  191.0830  175.9380  143.3150 C   0  0  0  0  0  0  0  0  0  0  0  0
  191.9820  175.7510  144.0960 C   0  0  0  0  0  3  0  0  0  0  0  0
  2  1  1  0  0  0  0
  2  5  1  0  0  0  0
  3  9  1  0  0  0  0
  6  8  1  0  0  0  0
  6  7  1  0  0  0  0
  7 10  1  0  0  0  0
  7  9  2  0  0  0  0
  8  4  1  6  0  0  0
  8  3  1  0  0  0  0
  9 11  1  0  0  0  0
 10  2  2  0  0  0  0
 11  5  2  0  0  0  0
 12 14  1  1  0  0  0
 12 20  1  0  0  0  0
 13 15  1  6  0  0  0
 13 20  1  0  0  0  0
 16  1  1  6  0  0  0
 16 19  1  0  0  0  0
 16 12  1  0  0  0  0
 19 18  1  6  0  0  0
 19 15  1  0  0  0  0
 19 13  1  0  0  0  0
 20 17  1  1  0  0  0
 21  1  1  0  0  0  0
 22 23  1  6  0  0  0
 22 21  1  0  0  0  0
 24 22  1  0  0  0  0
 24 25  1  0  0  0  0
 25 26  1  0  0  0  0
 26 27  3  0  0  0  0
M  END
>  <MODEL>
6

>  <REMARK>
 VINA RESULT:      -6.2      3.840      6.282
  Name = 
  6 active torsions:
  status: ('A' for Active; 'I' for Inactive)
    1  A    between atoms: N_1  and  C_15
    2  A    between atoms: N_1  and  C_18
    3  A    between atoms: C_7  and  C_25
    4  A    between atoms: C_9  and  C_15
    5  A    between atoms: C_9  and  C_27
    6  A    between atoms: C_25  and  C_27
                            x       y       z     vdW  Elec       q    Type
                         _______ _______ _______ _____ _____    ______ ____

>  <TORSDO>
F 6

$$$$
=
 OpenBabel10272401143D

 27 30  0  0  1  0  0  0  0  0999 V2000
  188.8210  177.8210  141.3890 N   0  0  0  0  0  0  0  0  0  0  0  0
  189.1430  177.8630  142.7980 C   0  0  0  0  0  0  0  0  0  0  0  0
  189.8310  177.9330  146.9140 N   0  0  0  0  0  2  0  0  0  0  0  0
  188.0820  178.3600  148.5470 C   0  0  0  0  0  1  0  0  0  0  0  0
  190.3690  178.3940  143.2530 C   0  0  0  0  0  3  0  0  0  0  0  0
  187.4060  176.8890  146.3200 S   0  0  0  0  0  0  0  0  0  0  0  0
  188.5080  177.4490  145.0430 C   0  0  0  0  0  0  0  0  0  0  0  0
  188.6700  177.3510  147.5830 C   0  0  1  0  0  3  0  0  0  0  0  0
  189.6900  177.9510  145.5080 C   0  0  0  0  0  0  0  0  0  0  0  0
  188.2360  177.4060  143.7130 N   0  0  0  0  0  0  0  0  0  0  0  0
  190.6490  178.4380  144.6240 C   0  0  0  0  0  3  0  0  0  0  0  0
  190.7960  176.8030  140.2690 C   0  0  1  0  0  3  0  0  0  0  0  0
  190.0000  177.2840  137.9730 C   0  0  1  0  0  3  0  0  0  0  0  0
  191.9760  177.1620  140.9230 O   0  0  0  0  0  1  0  0  0  0  0  0
  188.6970  176.8570  138.3230 O   0  0  0  0  0  0  0  0  0  0  0  0
  189.8080  177.9490  140.3110 C   0  0  1  0  0  3  0  0  0  0  0  0
  192.3040  176.9050  138.3870 F   0  0  0  0  0  0  0  0  0  0  0  0
  188.6560  179.2200  138.4370 O   0  0  0  0  0  1  0  0  0  0  0  0
  189.1720  178.0260  138.9370 C   0  0  1  0  0  0  0  0  0  0  0  0
  191.0370  176.5110  138.7840 C   0  0  1  0  0  3  0  0  0  0  0  0
  187.4530  177.5360  140.9700 C   0  0  0  0  0  2  0  0  0  0  0  0
  186.5560  178.7450  141.1910 C   0  0  2  0  0  3  0  0  0  0  0  0
  187.3010  179.7610  141.7590 F   0  0  0  0  0  0  0  0  0  0  0  0
  185.3980  178.3760  142.1090 C   0  0  0  0  0  2  0  0  0  0  0  0
  184.9590  179.5690  142.9420 C   0  0  0  0  0  2  0  0  0  0  0  0
  184.5810  179.1460  144.2940 C   0  0  0  0  0  0  0  0  0  0  0  0
  184.2720  178.7950  145.4040 C   0  0  0  0  0  3  0  0  0  0  0  0
  1  2  1  0  0  0  0
  2  5  2  0  0  0  0
  2 10  1  0  0  0  0
  3  8  1  0  0  0  0
  5 11  1  0  0  0  0
  6  8  1  0  0  0  0
  7  9  1  0  0  0  0
  7  6  1  0  0  0  0
  8  4  1  1  0  0  0
  9  3  1  0  0  0  0
 10  7  2  0  0  0  0
 11  9  2  0  0  0  0
 12 16  1  0  0  0  0
 12 14  1  6  0  0  0
 13 15  1  1  0  0  0
 13 20  1  0  0  0  0
 13 19  1  0  0  0  0
 15 19  1  0  0  0  0
 16  1  1  1  0  0  0
 19 18  1  6  0  0  0
 19 16  1  0  0  0  0
 20 17  1  6  0  0  0
 20 12  1  0  0  0  0
 21 22  1  0  0  0  0
 21  1  1  0  0  0  0
 22 23  1  1  0  0  0
 22 24  1  0  0  0  0
 24 25  1  0  0  0  0
 25 26  1  0  0  0  0
 26 27  3  0  0  0  0
M  END
>  <MODEL>
7

>  <REMARK>
 VINA RESULT:      -6.2      3.323      6.259
  Name = 
  6 active torsions:
  status: ('A' for Active; 'I' for Inactive)
    1  A    between atoms: N_1  and  C_15
    2  A    between atoms: N_1  and  C_18
    3  A    between atoms: C_7  and  C_25
    4  A    between atoms: C_9  and  C_15
    5  A    between atoms: C_9  and  C_27
    6  A    between atoms: C_25  and  C_27
                            x       y       z     vdW  Elec       q    Type
                         _______ _______ _______ _____ _____    ______ ____

>  <TORSDO>
F 6

$$$$
=
 OpenBabel10272401143D

 27 30  0  0  1  0  0  0  0  0999 V2000
  188.7030  177.8250  141.7800 N   0  0  0  0  0  0  0  0  0  0  0  0
  189.0390  177.6090  140.3900 C   0  0  0  0  0  0  0  0  0  0  0  0
  189.8030  177.1170  136.3170 N   0  0  0  0  0  2  0  0  0  0  0  0
  188.0730  177.2450  134.6140 C   0  0  0  0  0  1  0  0  0  0  0  0
  190.0200  176.6680  140.0120 C   0  0  0  0  0  3  0  0  0  0  0  0
  187.8710  178.9600  136.7590 S   0  0  0  0  0  0  0  0  0  0  0  0
  188.6660  178.1140  138.1060 C   0  0  0  0  0  0  0  0  0  0  0  0
  188.9400  178.0320  135.5740 C   0  0  1  0  0  3  0  0  0  0  0  0
  189.6160  177.2140  137.7140 C   0  0  0  0  0  0  0  0  0  0  0  0
  188.3790  178.3090  139.4180 N   0  0  0  0  0  0  0  0  0  0  0  0
  190.3150  176.4670  138.6580 C   0  0  0  0  0  3  0  0  0  0  0  0
  190.1950  176.0620  142.7040 C   0  0  1  0  0  3  0  0  0  0  0  0
  191.8760  177.6560  143.5830 C   0  0  1  0  0  3  0  0  0  0  0  0
  189.4510  175.0700  143.3460 O   0  0  0  0  0  1  0  0  0  0  0  0
  191.8080  178.4050  142.3850 O   0  0  0  0  0  0  0  0  0  0  0  0
  189.5450  177.4140  142.9090 C   0  0  1  0  0  3  0  0  0  0  0  0
  191.7300  175.4600  144.4670 F   0  0  0  0  0  0  0  0  0  0  0  0
  190.4460  179.5520  143.9430 O   0  0  0  0  0  1  0  0  0  0  0  0
  190.6640  178.3950  143.1970 C   0  0  1  0  0  0  0  0  0  0  0  0
  191.6050  176.1820  143.2920 C   0  0  1  0  0  3  0  0  0  0  0  0
  187.5040  178.5840  142.1230 C   0  0  0  0  0  2  0  0  0  0  0  0
  186.5590  177.7470  142.9720 C   0  0  2  0  0  3  0  0  0  0  0  0
  185.3350  177.6630  142.3350 F   0  0  0  0  0  0  0  0  0  0  0  0
  186.3860  178.3840  144.3440 C   0  0  0  0  0  2  0  0  0  0  0  0
  186.5570  177.3550  145.4500 C   0  0  0  0  0  2  0  0  0  0  0  0
  187.9050  177.4300  146.0220 C   0  0  0  0  0  0  0  0  0  0  0  0
  189.0140  177.4920  146.4890 C   0  0  0  0  0  3  0  0  0  0  0  0
  1 21  1  0  0  0  0
  2  1  1  0  0  0  0
  3  9  1  0  0  0  0
  5  2  1  0  0  0  0
  6  7  1  0  0  0  0
  7 10  1  0  0  0  0
  8  4  1  6  0  0  0
  8  3  1  0  0  0  0
  8  6  1  0  0  0  0
  9  7  2  0  0  0  0
  9 11  1  0  0  0  0
 10  2  2  0  0  0  0
 11  5  2  0  0  0  0
 12 16  1  0  0  0  0
 12 20  1  0  0  0  0
 12 14  1  1  0  0  0
 13 15  1  6  0  0  0
 15 19  1  0  0  0  0
 16  1  1  6  0  0  0
 16 19  1  0  0  0  0
 19 13  1  0  0  0  0
 19 18  1  1  0  0  0
 20 13  1  0  0  0  0
 20 17  1  1  0  0  0
 21 22  1  0  0  0  0
 22 23  1  6  0  0  0
 22 24  1  0  0  0  0
 24 25  1  0  0  0  0
 25 26  1  0  0  0  0
 26 27  3  0  0  0  0
M  END
>  <MODEL>
8

>  <REMARK>
 VINA RESULT:      -6.2      1.397      2.575
  Name = 
  6 active torsions:
  status: ('A' for Active; 'I' for Inactive)
    1  A    between atoms: N_1  and  C_15
    2  A    between atoms: N_1  and  C_18
    3  A    between atoms: C_7  and  C_25
    4  A    between atoms: C_9  and  C_15
    5  A    between atoms: C_9  and  C_27
    6  A    between atoms: C_25  and  C_27
                            x       y       z     vdW  Elec       q    Type
                         _______ _______ _______ _____ _____    ______ ____

>  <TORSDO>
F 6

$$$$
=
 OpenBabel10272401143D

 27 30  0  0  1  0  0  0  0  0999 V2000
  188.9790  177.2510  143.7500 N   0  0  0  0  0  0  0  0  0  0  0  0
  189.5480  177.3120  142.4220 C   0  0  0  0  0  0  0  0  0  0  0  0
  190.9660  177.4130  138.4980 N   0  0  0  0  0  2  0  0  0  0  0  0
  189.9910  176.1020  136.6970 C   0  0  0  0  0  1  0  0  0  0  0  0
  190.9400  177.4420  142.2270 C   0  0  0  0  0  3  0  0  0  0  0  0
  188.2750  177.1390  138.5850 S   0  0  0  0  0  0  0  0  0  0  0  0
  189.2390  177.2580  140.0730 C   0  0  0  0  0  0  0  0  0  0  0  0
  189.8230  177.3110  137.5940 C   0  0  1  0  0  3  0  0  0  0  0  0
  190.5820  177.3900  139.8570 C   0  0  0  0  0  0  0  0  0  0  0  0
  188.7290  177.2180  141.3310 N   0  0  0  0  0  0  0  0  0  0  0  0
  191.4650  177.4830  140.9300 C   0  0  0  0  0  3  0  0  0  0  0  0
  189.1410  177.0150  146.2210 C   0  0  1  0  0  3  0  0  0  0  0  0
  191.6180  176.9680  146.2610 C   0  0  1  0  0  3  0  0  0  0  0  0
  188.2310  177.8610  146.8600 O   0  0  0  0  0  1  0  0  0  0  0  0
  191.6300  176.0880  145.1530 O   0  0  0  0  0  0  0  0  0  0  0  0
  189.6760  177.6770  144.9690 C   0  0  1  0  0  3  0  0  0  0  0  0
  190.3990  177.5640  148.2070 F   0  0  0  0  0  0  0  0  0  0  0  0
  192.0520  178.2430  144.2730 O   0  0  0  0  0  1  0  0  0  0  0  0
  191.1640  177.3920  144.9280 C   0  0  1  0  0  0  0  0  0  0  0  0
  190.3640  176.7320  147.1000 C   0  0  1  0  0  3  0  0  0  0  0  0
  187.5900  176.8370  143.9220 C   0  0  0  0  0  2  0  0  0  0  0  0
  186.6690  178.0460  143.9850 C   0  0  2  0  0  3  0  0  0  0  0  0
  185.9880  178.0320  145.1880 F   0  0  0  0  0  0  0  0  0  0  0  0
  185.6780  178.0090  142.8290 C   0  0  0  0  0  2  0  0  0  0  0  0
  184.8080  179.2550  142.8140 C   0  0  0  0  0  2  0  0  0  0  0  0
  183.5470  179.0150  143.5230 C   0  0  0  0  0  0  0  0  0  0  0  0
  182.5100  178.8200  144.1050 C   0  0  0  0  0  3  0  0  0  0  0  0
  1 21  1  0  0  0  0
  2  1  1  0  0  0  0
  3  9  1  0  0  0  0
  5  2  1  0  0  0  0
  6  7  1  0  0  0  0
  7 10  1  0  0  0  0
  8  4  1  6  0  0  0
  8  3  1  0  0  0  0
  8  6  1  0  0  0  0
  9  7  2  0  0  0  0
  9 11  1  0  0  0  0
 10  2  2  0  0  0  0
 11  5  2  0  0  0  0
 12 14  1  1  0  0  0
 12 20  1  0  0  0  0
 13 15  1  6  0  0  0
 13 20  1  0  0  0  0
 16  1  1  6  0  0  0
 16 12  1  0  0  0  0
 19 18  1  6  0  0  0
 19 16  1  0  0  0  0
 19 15  1  0  0  0  0
 19 13  1  0  0  0  0
 20 17  1  1  0  0  0
 21 22  1  0  0  0  0
 22 23  1  1  0  0  0
 24 22  1  0  0  0  0
 25 24  1  0  0  0  0
 25 26  1  0  0  0  0
 26 27  3  0  0  0  0
M  END
>  <MODEL>
9

>  <REMARK>
 VINA RESULT:      -6.1      1.967      2.693
  Name = 
  6 active torsions:
  status: ('A' for Active; 'I' for Inactive)
    1  A    between atoms: N_1  and  C_15
    2  A    between atoms: N_1  and  C_18
    3  A    between atoms: C_7  and  C_25
    4  A    between atoms: C_9  and  C_15
    5  A    between atoms: C_9  and  C_27
    6  A    between atoms: C_25  and  C_27
                            x       y       z     vdW  Elec       q    Type
                         _______ _______ _______ _____ _____    ______ ____

>  <TORSDO>
F 6

$$$$
