=
 OpenBabel10272414393D

 43 46  0  0  1  0  0  0  0  0999 V2000
  190.1130  176.2880  136.1080 N   0  0  0  0  0  0  0  0  0  0  0  0
  189.6940  177.7560  138.0290 C   0  0  0  0  0  3  0  0  0  0  0  0
  190.1060  176.7710  138.8390 C   0  0  0  0  0  0  0  0  0  0  0  0
  189.4260  177.4980  136.5710 C   0  0  2  0  0  3  0  0  0  0  0  0
  190.3710  175.2190  137.0390 C   0  0  0  0  0  0  0  0  0  0  0  0
  190.3640  175.4610  138.3140 N   0  0  0  0  0  0  0  0  0  0  0  0
  185.2340  177.1830  135.7850 C   0  0  0  0  0  0  0  0  0  0  0  0
  187.1150  176.6790  137.2000 C   0  0  0  0  0  3  0  0  0  0  0  0
  186.0570  177.8710  134.9490 N   0  0  0  0  0  0  0  0  0  0  0  0
  183.9120  177.0890  135.5090 F   0  0  0  0  0  0  0  0  0  0  0  0
  187.9500  177.3860  136.3260 C   0  0  0  0  0  0  0  0  0  0  0  0
  185.7500  176.5760  136.9320 C   0  0  0  0  0  3  0  0  0  0  0  0
  187.3920  177.9830  135.1920 C   0  0  0  0  0  3  0  0  0  0  0  0
  190.2020  176.9870  140.3190 C   0  0  1  0  0  3  0  0  0  0  0  0
  191.6260  177.3140  140.7320 C   0  0  0  0  0  1  0  0  0  0  0  0
  189.3060  178.0590  140.7330 N   0  0  0  0  0  2  0  0  0  0  0  0
  188.2320  177.8510  141.6540 C   0  0  0  0  0  0  0  0  0  0  0  0
  188.1170  176.7570  142.2690 O   0  0  0  0  0  0  0  0  0  0  0  0
  187.2020  178.9090  141.8410 C   0  0  0  0  0  2  0  0  0  0  0  0
  185.9530  178.3140  142.4840 C   0  0  2  0  0  3  0  0  0  0  0  0
  185.1120  179.1260  140.2370 C   0  0  0  0  0  1  0  0  0  0  0  0
  184.7240  178.6990  141.6400 C   0  0  0  0  0  3  0  0  0  0  0  0
  183.6530  177.6200  141.6030 C   0  0  0  0  0  1  0  0  0  0  0  0
  185.8730  178.7020  143.9730 C   0  0  1  0  0  3  0  0  0  0  0  0
  184.5440  179.3630  144.3140 C   0  0  0  0  0  1  0  0  0  0  0  0
  186.0440  177.4590  144.8470 C   0  0  0  0  0  2  0  0  0  0  0  0
  187.0930  177.6640  145.8870 C   0  0  0  0  0  0  0  0  0  0  0  0
  189.4260  177.6390  146.5430 C   0  0  0  0  0  3  0  0  0  0  0  0
  187.7200  178.2230  148.1600 C   0  0  0  0  0  3  0  0  0  0  0  0
  189.0660  178.0210  147.8390 C   0  0  0  0  0  3  0  0  0  0  0  0
  186.7340  178.0450  147.1850 C   0  0  0  0  0  3  0  0  0  0  0  0
  188.4400  177.4590  145.5670 C   0  0  0  0  0  3  0  0  0  0  0  0
  190.3490  176.1250  134.6800 C   0  0  0  0  0  2  0  0  0  0  0  0
  191.8380  176.1750  134.3880 C   0  0  0  0  0  1  0  0  0  0  0  0
  190.6290  173.5350  136.4760 S   0  0  0  0  0  0  0  0  0  0  0  0
  186.9200  173.2010  134.8310 C   0  0  0  0  0  3  0  0  0  0  0  0
  186.1350  172.7720  135.9060 C   0  0  0  0  0  0  0  0  0  0  0  0
  188.0910  172.8520  137.3460 C   0  0  0  0  0  3  0  0  0  0  0  0
  188.2840  173.4480  135.0070 C   0  0  0  0  0  3  0  0  0  0  0  0
  188.8720  173.2680  136.2640 C   0  0  0  0  0  0  0  0  0  0  0  0
  186.7270  172.6050  137.1700 C   0  0  0  0  0  3  0  0  0  0  0  0
  183.8870  172.1780  136.7490 C   0  0  0  0  0  1  0  0  0  0  0  0
  184.7770  172.5170  135.6950 O   0  0  0  0  0  0  0  0  0  0  0  0
  1  4  1  0  0  0  0
  1  5  1  0  0  0  0
  2  3  2  0  0  0  0
  3 14  1  0  0  0  0
  4 11  1  1  0  0  0
  4  2  1  0  0  0  0
  5  6  2  0  0  0  0
  6  3  1  0  0  0  0
  7 12  1  0  0  0  0
  9 13  1  0  0  0  0
  9  7  2  0  0  0  0
 10  7  1  0  0  0  0
 11  8  1  0  0  0  0
 12  8  2  0  0  0  0
 13 11  2  0  0  0  0
 14 15  1  6  0  0  0
 14 16  1  0  0  0  0
 16 17  1  0  0  0  0
 17 19  1  0  0  0  0
 17 18  2  0  0  0  0
 20 19  1  6  0  0  0
 20 24  1  0  0  0  0
 21 22  1  0  0  0  0
 22 20  1  0  0  0  0
 23 22  1  0  0  0  0
 24 25  1  6  0  0  0
 24 26  1  0  0  0  0
 26 27  1  0  0  0  0
 27 31  1  0  0  0  0
 28 30  2  0  0  0  0
 30 29  1  0  0  0  0
 31 29  2  0  0  0  0
 32 27  2  0  0  0  0
 32 28  1  0  0  0  0
 33  1  1  0  0  0  0
 34 33  1  0  0  0  0
 35  5  1  0  0  0  0
 36 39  2  0  0  0  0
 36 37  1  0  0  0  0
 37 41  2  0  0  0  0
 39 40  1  0  0  0  0
 40 35  1  0  0  0  0
 40 38  2  0  0  0  0
 41 38  1  0  0  0  0
 43 37  1  0  0  0  0
 43 42  1  0  0  0  0
M  END
>  <MODEL>
1

>  <REMARK>
 VINA RESULT:      -7.7      0.000      0.000
  Name = 
  13 active torsions:
  status: ('A' for Active; 'I' for Inactive)
    1  A    between atoms: S_1  and  C_34
    2  A    between atoms: S_1  and  C_35
    3  A    between atoms: C_2  and  N_6
    4  A    between atoms: C_2  and  C_27
    5  A    between atoms: C_3  and  C_4
    6  A    between atoms: C_3  and  C_12
    7  A    between atoms: C_4  and  C_15
    8  A    between atoms: C_4  and  C_22
    9  A    between atoms: N_8  and  C_33
   10  A    between atoms: C_11  and  C_14
   11  A    between atoms: C_14  and  C_22
   12  A    between atoms: C_19  and  O_37
   13  A    between atoms: C_21  and  C_30
                            x       y       z     vdW  Elec       q    Type
                         _______ _______ _______ _____ _____    ______ ____

>  <TORSDO>
F 13

$$$$
=
 OpenBabel10272414393D

 43 46  0  0  1  0  0  0  0  0999 V2000
  190.0860  176.2830  136.1520 N   0  0  0  0  0  0  0  0  0  0  0  0
  189.6630  177.7710  138.0570 C   0  0  0  0  0  3  0  0  0  0  0  0
  190.0570  176.7880  138.8780 C   0  0  0  0  0  0  0  0  0  0  0  0
  189.4050  177.5030  136.5980 C   0  0  2  0  0  3  0  0  0  0  0  0
  190.3240  175.2200  137.0930 C   0  0  0  0  0  0  0  0  0  0  0  0
  190.3080  175.4720  138.3660 N   0  0  0  0  0  0  0  0  0  0  0  0
  185.2190  177.1860  135.7830 C   0  0  0  0  0  0  0  0  0  0  0  0
  187.0210  177.1620  137.3790 C   0  0  0  0  0  3  0  0  0  0  0  0
  186.1140  177.4270  134.7870 N   0  0  0  0  0  0  0  0  0  0  0  0
  183.9000  177.0810  135.4980 F   0  0  0  0  0  0  0  0  0  0  0  0
  187.9310  177.4040  136.3410 C   0  0  0  0  0  0  0  0  0  0  0  0
  185.6580  177.0530  137.1020 C   0  0  0  0  0  3  0  0  0  0  0  0
  187.4480  177.5360  135.0360 C   0  0  0  0  0  3  0  0  0  0  0  0
  190.1420  177.0150  140.3570 C   0  0  1  0  0  3  0  0  0  0  0  0
  191.5670  177.3230  140.7830 C   0  0  0  0  0  1  0  0  0  0  0  0
  189.2580  178.1040  140.7530 N   0  0  0  0  0  2  0  0  0  0  0  0
  188.2120  177.9350  141.7140 C   0  0  0  0  0  0  0  0  0  0  0  0
  188.1160  176.8680  142.3780 O   0  0  0  0  0  0  0  0  0  0  0  0
  187.1880  179.0010  141.8880 C   0  0  0  0  0  2  0  0  0  0  0  0
  185.9090  178.4060  142.4700 C   0  0  2  0  0  3  0  0  0  0  0  0
  185.1940  179.1600  140.1600 C   0  0  0  0  0  1  0  0  0  0  0  0
  184.7290  178.7590  141.5470 C   0  0  0  0  0  3  0  0  0  0  0  0
  183.6730  177.6670  141.4710 C   0  0  0  0  0  1  0  0  0  0  0  0
  185.7370  178.8260  143.9430 C   0  0  1  0  0  3  0  0  0  0  0  0
  184.4120  179.5380  144.1760 C   0  0  0  0  0  1  0  0  0  0  0  0
  185.8030  177.5960  144.8470 C   0  0  0  0  0  2  0  0  0  0  0  0
  186.9140  177.7050  145.8360 C   0  0  0  0  0  0  0  0  0  0  0  0
  187.7060  178.3420  148.0360 C   0  0  0  0  0  3  0  0  0  0  0  0
  189.2500  177.4150  146.4160 C   0  0  0  0  0  3  0  0  0  0  0  0
  188.9990  177.9350  147.6900 C   0  0  0  0  0  3  0  0  0  0  0  0
  188.2090  177.3000  145.4900 C   0  0  0  0  0  3  0  0  0  0  0  0
  186.6650  178.2280  147.1100 C   0  0  0  0  0  3  0  0  0  0  0  0
  190.3330  176.1070  134.7270 C   0  0  0  0  0  2  0  0  0  0  0  0
  191.7840  176.4170  134.4070 C   0  0  0  0  0  1  0  0  0  0  0  0
  190.5720  173.5290  136.5460 S   0  0  0  0  0  0  0  0  0  0  0  0
  194.2950  174.7570  137.6440 C   0  0  0  0  0  3  0  0  0  0  0  0
  195.1340  173.8560  136.9790 C   0  0  0  0  0  0  0  0  0  0  0  0
  193.1820  172.7790  136.0110 C   0  0  0  0  0  3  0  0  0  0  0  0
  192.9080  174.6680  137.5000 C   0  0  0  0  0  3  0  0  0  0  0  0
  192.3500  173.6750  136.6880 C   0  0  0  0  0  0  0  0  0  0  0  0
  194.5690  172.8690  136.1530 C   0  0  0  0  0  3  0  0  0  0  0  0
  197.2810  175.0270  136.6090 C   0  0  0  0  0  1  0  0  0  0  0  0
  196.5160  173.9610  137.1550 O   0  0  0  0  0  0  0  0  0  0  0  0
  1  4  1  0  0  0  0
  1  5  1  0  0  0  0
  2  3  2  0  0  0  0
  3 14  1  0  0  0  0
  4 11  1  1  0  0  0
  4  2  1  0  0  0  0
  5  6  2  0  0  0  0
  6  3  1  0  0  0  0
  7 12  1  0  0  0  0
  9 13  1  0  0  0  0
  9  7  2  0  0  0  0
 10  7  1  0  0  0  0
 11  8  1  0  0  0  0
 12  8  2  0  0  0  0
 13 11  2  0  0  0  0
 14 16  1  0  0  0  0
 14 15  1  6  0  0  0
 16 17  1  0  0  0  0
 17 19  1  0  0  0  0
 17 18  2  0  0  0  0
 20 19  1  6  0  0  0
 20 24  1  0  0  0  0
 21 22  1  0  0  0  0
 22 20  1  0  0  0  0
 23 22  1  0  0  0  0
 24 25  1  6  0  0  0
 24 26  1  0  0  0  0
 26 27  1  0  0  0  0
 27 32  1  0  0  0  0
 29 30  2  0  0  0  0
 30 28  1  0  0  0  0
 31 27  2  0  0  0  0
 31 29  1  0  0  0  0
 32 28  2  0  0  0  0
 33  1  1  0  0  0  0
 34 33  1  0  0  0  0
 35 40  1  0  0  0  0
 35  5  1  0  0  0  0
 37 43  1  0  0  0  0
 37 36  2  0  0  0  0
 38 41  2  0  0  0  0
 38 40  1  0  0  0  0
 39 36  1  0  0  0  0
 40 39  2  0  0  0  0
 41 37  1  0  0  0  0
 42 43  1  0  0  0  0
M  END
>  <MODEL>
2

>  <REMARK>
 VINA RESULT:      -7.3      2.317      3.841
  Name = 
  13 active torsions:
  status: ('A' for Active; 'I' for Inactive)
    1  A    between atoms: S_1  and  C_34
    2  A    between atoms: S_1  and  C_35
    3  A    between atoms: C_2  and  N_6
    4  A    between atoms: C_2  and  C_27
    5  A    between atoms: C_3  and  C_4
    6  A    between atoms: C_3  and  C_12
    7  A    between atoms: C_4  and  C_15
    8  A    between atoms: C_4  and  C_22
    9  A    between atoms: N_8  and  C_33
   10  A    between atoms: C_11  and  C_14
   11  A    between atoms: C_14  and  C_22
   12  A    between atoms: C_19  and  O_37
   13  A    between atoms: C_21  and  C_30
                            x       y       z     vdW  Elec       q    Type
                         _______ _______ _______ _____ _____    ______ ____

>  <TORSDO>
F 13

$$$$
=
 OpenBabel10272414393D

 43 46  0  0  1  0  0  0  0  0999 V2000
  190.6820  174.8550  136.2670 N   0  0  0  0  0  0  0  0  0  0  0  0
  191.2840  175.7720  138.4610 C   0  0  0  0  0  3  0  0  0  0  0  0
  190.3970  176.7580  138.2640 C   0  0  0  0  0  0  0  0  0  0  0  0
  191.6840  174.8550  137.3370 C   0  0  2  0  0  3  0  0  0  0  0  0
  189.8820  176.0310  136.0440 C   0  0  0  0  0  0  0  0  0  0  0  0
  189.7580  176.9130  136.9890 N   0  0  0  0  0  0  0  0  0  0  0  0
  195.5440  175.9020  135.8220 C   0  0  0  0  0  0  0  0  0  0  0  0
  193.1480  176.0970  135.6870 C   0  0  0  0  0  3  0  0  0  0  0  0
  195.4090  175.0860  136.9020 N   0  0  0  0  0  0  0  0  0  0  0  0
  196.7770  176.2110  135.3550 F   0  0  0  0  0  0  0  0  0  0  0  0
  193.0270  175.2500  136.7970 C   0  0  0  0  0  0  0  0  0  0  0  0
  194.4110  176.4270  135.1960 C   0  0  0  0  0  3  0  0  0  0  0  0
  194.1860  174.7500  137.3960 C   0  0  0  0  0  3  0  0  0  0  0  0
  190.1330  177.7750  139.3310 C   0  0  1  0  0  3  0  0  0  0  0  0
  188.9800  178.6860  138.9470 C   0  0  0  0  0  1  0  0  0  0  0  0
  189.8440  177.1160  140.5980 N   0  0  0  0  0  2  0  0  0  0  0  0
  190.8100  177.0050  141.6470 C   0  0  0  0  0  0  0  0  0  0  0  0
  191.9080  177.6200  141.5750 O   0  0  0  0  0  0  0  0  0  0  0  0
  190.5480  176.1080  142.8040 C   0  0  0  0  0  2  0  0  0  0  0  0
  191.0500  176.7560  144.0920 C   0  0  2  0  0  3  0  0  0  0  0  0
  192.3530  174.6200  144.4900 C   0  0  0  0  0  1  0  0  0  0  0  0
  191.4190  175.6500  145.0970 C   0  0  0  0  0  3  0  0  0  0  0  0
  191.9770  176.1840  146.4070 C   0  0  0  0  0  1  0  0  0  0  0  0
  190.0360  177.7970  144.6050 C   0  0  1  0  0  3  0  0  0  0  0  0
  190.3700  179.1990  144.1150 C   0  0  0  0  0  1  0  0  0  0  0  0
  188.6290  177.4310  144.1360 C   0  0  0  0  0  2  0  0  0  0  0  0
  187.6050  177.7680  145.1660 C   0  0  0  0  0  0  0  0  0  0  0  0
  185.3350  178.3970  145.7380 C   0  0  0  0  0  3  0  0  0  0  0  0
  186.9920  178.1260  147.4840 C   0  0  0  0  0  3  0  0  0  0  0  0
  185.6830  178.4250  147.0920 C   0  0  0  0  0  3  0  0  0  0  0  0
  187.9530  177.7980  146.5220 C   0  0  0  0  0  3  0  0  0  0  0  0
  186.2960  178.0700  144.7750 C   0  0  0  0  0  3  0  0  0  0  0  0
  190.6540  173.7310  135.3400 C   0  0  0  0  0  2  0  0  0  0  0  0
  189.6270  172.7080  135.7910 C   0  0  0  0  0  1  0  0  0  0  0  0
  189.1080  176.3460  134.4560 S   0  0  0  0  0  0  0  0  0  0  0  0
  185.6390  174.8840  136.0070 C   0  0  0  0  0  3  0  0  0  0  0  0
  184.9290  176.0420  136.3400 C   0  0  0  0  0  0  0  0  0  0  0  0
  186.7580  177.3920  135.4790 C   0  0  0  0  0  3  0  0  0  0  0  0
  186.9040  174.9750  135.4190 C   0  0  0  0  0  3  0  0  0  0  0  0
  187.4670  176.2300  135.1600 C   0  0  0  0  0  0  0  0  0  0  0  0
  185.4930  177.3000  136.0660 C   0  0  0  0  0  3  0  0  0  0  0  0
  183.4490  175.1090  138.0880 C   0  0  0  0  0  1  0  0  0  0  0  0
  183.6740  175.9170  136.9410 O   0  0  0  0  0  0  0  0  0  0  0  0
  1  4  1  0  0  0  0
  3  2  2  0  0  0  0
  3 14  1  0  0  0  0
  4 11  1  6  0  0  0
  4  2  1  0  0  0  0
  5  1  1  0  0  0  0
  5  6  2  0  0  0  0
  6  3  1  0  0  0  0
  7  9  1  0  0  0  0
  8 11  2  0  0  0  0
  9 13  2  0  0  0  0
 10  7  1  0  0  0  0
 11 13  1  0  0  0  0
 12  8  1  0  0  0  0
 12  7  2  0  0  0  0
 14 15  1  6  0  0  0
 14 16  1  0  0  0  0
 16 17  1  0  0  0  0
 17 19  1  0  0  0  0
 18 17  2  0  0  0  0
 20 19  1  6  0  0  0
 20 24  1  0  0  0  0
 20 22  1  0  0  0  0
 21 22  1  0  0  0  0
 22 23  1  0  0  0  0
 24 25  1  6  0  0  0
 26 24  1  0  0  0  0
 26 27  1  0  0  0  0
 27 31  1  0  0  0  0
 28 30  2  0  0  0  0
 30 29  1  0  0  0  0
 31 29  2  0  0  0  0
 32 27  2  0  0  0  0
 32 28  1  0  0  0  0
 33 34  1  0  0  0  0
 33  1  1  0  0  0  0
 35 40  1  0  0  0  0
 35  5  1  0  0  0  0
 36 37  1  0  0  0  0
 37 43  1  0  0  0  0
 38 41  1  0  0  0  0
 39 36  2  0  0  0  0
 40 39  1  0  0  0  0
 40 38  2  0  0  0  0
 41 37  2  0  0  0  0
 43 42  1  0  0  0  0
M  END
>  <MODEL>
3

>  <REMARK>
 VINA RESULT:      -7.2      3.078      5.282
  Name = 
  13 active torsions:
  status: ('A' for Active; 'I' for Inactive)
    1  A    between atoms: S_1  and  C_34
    2  A    between atoms: S_1  and  C_35
    3  A    between atoms: C_2  and  N_6
    4  A    between atoms: C_2  and  C_27
    5  A    between atoms: C_3  and  C_4
    6  A    between atoms: C_3  and  C_12
    7  A    between atoms: C_4  and  C_15
    8  A    between atoms: C_4  and  C_22
    9  A    between atoms: N_8  and  C_33
   10  A    between atoms: C_11  and  C_14
   11  A    between atoms: C_14  and  C_22
   12  A    between atoms: C_19  and  O_37
   13  A    between atoms: C_21  and  C_30
                            x       y       z     vdW  Elec       q    Type
                         _______ _______ _______ _____ _____    ______ ____

>  <TORSDO>
F 13

$$$$
=
 OpenBabel10272414393D

 43 46  0  0  1  0  0  0  0  0999 V2000
  189.7450  176.0510  136.4300 N   0  0  0  0  0  0  0  0  0  0  0  0
  190.8310  175.6280  138.5890 C   0  0  0  0  0  3  0  0  0  0  0  0
  190.2010  176.7020  139.0870 C   0  0  0  0  0  0  0  0  0  0  0  0
  190.8420  175.3550  137.1100 C   0  0  2  0  0  3  0  0  0  0  0  0
  189.2440  177.2860  136.9740 C   0  0  0  0  0  0  0  0  0  0  0  0
  189.4650  177.5770  138.2200 N   0  0  0  0  0  0  0  0  0  0  0  0
  194.6400  176.4880  135.5020 C   0  0  0  0  0  0  0  0  0  0  0  0
  192.5000  175.4280  135.1980 C   0  0  0  0  0  3  0  0  0  0  0  0
  194.2940  176.8020  136.7800 N   0  0  0  0  0  0  0  0  0  0  0  0
  195.8520  176.8490  135.0200 F   0  0  0  0  0  0  0  0  0  0  0  0
  192.1610  175.7550  136.5170 C   0  0  0  0  0  0  0  0  0  0  0  0
  193.7440  175.7960  134.6850 C   0  0  0  0  0  3  0  0  0  0  0  0
  193.0860  176.4520  137.3000 C   0  0  0  0  0  3  0  0  0  0  0  0
  190.3380  177.0680  140.5330 C   0  0  1  0  0  3  0  0  0  0  0  0
  191.7430  177.5550  140.8440 C   0  0  0  0  0  1  0  0  0  0  0  0
  189.3670  178.0940  140.8890 N   0  0  0  0  0  2  0  0  0  0  0  0
  188.1810  177.8060  141.6360 C   0  0  0  0  0  0  0  0  0  0  0  0
  188.0100  176.6710  142.1550 O   0  0  0  0  0  0  0  0  0  0  0  0
  187.1090  178.8320  141.7490 C   0  0  0  0  0  2  0  0  0  0  0  0
  185.9400  178.2790  142.5590 C   0  0  2  0  0  3  0  0  0  0  0  0
  184.8560  179.5290  140.6400 C   0  0  0  0  0  1  0  0  0  0  0  0
  184.6220  178.7700  141.9330 C   0  0  0  0  0  3  0  0  0  0  0  0
  183.5970  177.6650  141.7360 C   0  0  0  0  0  1  0  0  0  0  0  0
  186.1160  178.6030  144.0550 C   0  0  1  0  0  3  0  0  0  0  0  0
  184.8950  179.3090  144.6270 C   0  0  0  0  0  1  0  0  0  0  0  0
  186.3570  177.3160  144.8430 C   0  0  0  0  0  2  0  0  0  0  0  0
  187.4020  177.5040  145.8900 C   0  0  0  0  0  0  0  0  0  0  0  0
  188.0070  178.0440  148.1740 C   0  0  0  0  0  3  0  0  0  0  0  0
  189.7330  177.5350  146.5530 C   0  0  0  0  0  3  0  0  0  0  0  0
  189.3590  177.8830  147.8540 C   0  0  0  0  0  3  0  0  0  0  0  0
  188.7560  177.3450  145.5710 C   0  0  0  0  0  3  0  0  0  0  0  0
  187.0290  177.8560  147.1920 C   0  0  0  0  0  3  0  0  0  0  0  0
  189.3190  175.5680  135.1230 C   0  0  0  0  0  2  0  0  0  0  0  0
  188.4580  174.3280  135.2790 C   0  0  0  0  0  1  0  0  0  0  0  0
  188.3790  178.4750  135.9460 S   0  0  0  0  0  0  0  0  0  0  0  0
  185.0220  177.5840  138.0700 C   0  0  0  0  0  3  0  0  0  0  0  0
  184.2440  176.8760  137.1490 C   0  0  0  0  0  0  0  0  0  0  0  0
  186.0150  177.1060  135.5010 C   0  0  0  0  0  3  0  0  0  0  0  0
  186.2870  178.0570  137.7100 C   0  0  0  0  0  3  0  0  0  0  0  0
  186.7820  177.8230  136.4230 C   0  0  0  0  0  0  0  0  0  0  0  0
  184.7510  176.6310  135.8610 C   0  0  0  0  0  3  0  0  0  0  0  0
  182.7650  175.6190  138.6820 C   0  0  0  0  0  1  0  0  0  0  0  0
  182.9770  176.4290  137.5340 O   0  0  0  0  0  0  0  0  0  0  0  0
  1  5  1  0  0  0  0
  1  4  1  0  0  0  0
  2  3  2  0  0  0  0
  3 14  1  0  0  0  0
  4 11  1  6  0  0  0
  4  2  1  0  0  0  0
  5  6  2  0  0  0  0
  6  3  1  0  0  0  0
  7  9  1  0  0  0  0
  8 11  2  0  0  0  0
  9 13  2  0  0  0  0
 10  7  1  0  0  0  0
 11 13  1  0  0  0  0
 12  8  1  0  0  0  0
 12  7  2  0  0  0  0
 14 15  1  6  0  0  0
 14 16  1  0  0  0  0
 16 17  1  0  0  0  0
 17 19  1  0  0  0  0
 17 18  2  0  0  0  0
 20 19  1  6  0  0  0
 20 24  1  0  0  0  0
 21 22  1  0  0  0  0
 22 20  1  0  0  0  0
 23 22  1  0  0  0  0
 24 25  1  1  0  0  0
 24 26  1  0  0  0  0
 26 27  1  0  0  0  0
 27 32  1  0  0  0  0
 29 30  2  0  0  0  0
 30 28  1  0  0  0  0
 31 27  2  0  0  0  0
 31 29  1  0  0  0  0
 32 28  2  0  0  0  0
 33 34  1  0  0  0  0
 33  1  1  0  0  0  0
 35 40  1  0  0  0  0
 35  5  1  0  0  0  0
 37 43  1  0  0  0  0
 37 36  2  0  0  0  0
 38 41  2  0  0  0  0
 38 40  1  0  0  0  0
 39 36  1  0  0  0  0
 40 39  2  0  0  0  0
 41 37  1  0  0  0  0
 43 42  1  0  0  0  0
M  END
>  <MODEL>
4

>  <REMARK>
 VINA RESULT:      -7.2      2.560      4.215
  Name = 
  13 active torsions:
  status: ('A' for Active; 'I' for Inactive)
    1  A    between atoms: S_1  and  C_34
    2  A    between atoms: S_1  and  C_35
    3  A    between atoms: C_2  and  N_6
    4  A    between atoms: C_2  and  C_27
    5  A    between atoms: C_3  and  C_4
    6  A    between atoms: C_3  and  C_12
    7  A    between atoms: C_4  and  C_15
    8  A    between atoms: C_4  and  C_22
    9  A    between atoms: N_8  and  C_33
   10  A    between atoms: C_11  and  C_14
   11  A    between atoms: C_14  and  C_22
   12  A    between atoms: C_19  and  O_37
   13  A    between atoms: C_21  and  C_30
                            x       y       z     vdW  Elec       q    Type
                         _______ _______ _______ _____ _____    ______ ____

>  <TORSDO>
F 13

$$$$
=
 OpenBabel10272414393D

 43 46  0  0  1  0  0  0  0  0999 V2000
  189.7980  176.2450  136.3790 N   0  0  0  0  0  0  0  0  0  0  0  0
  189.6820  177.4320  138.5240 C   0  0  0  0  0  3  0  0  0  0  0  0
  190.4270  176.4610  139.0720 C   0  0  0  0  0  0  0  0  0  0  0  0
  189.0860  177.2690  137.1520 C   0  0  2  0  0  3  0  0  0  0  0  0
  190.4380  175.1550  137.0680 C   0  0  0  0  0  0  0  0  0  0  0  0
  190.7270  175.2710  138.3290 N   0  0  0  0  0  0  0  0  0  0  0  0
  184.9550  176.2170  137.4840 C   0  0  0  0  0  0  0  0  0  0  0  0
  186.6580  177.9170  137.4520 C   0  0  0  0  0  3  0  0  0  0  0  0
  185.9090  175.2670  137.2880 N   0  0  0  0  0  0  0  0  0  0  0  0
  183.6540  175.8570  137.5960 F   0  0  0  0  0  0  0  0  0  0  0  0
  187.6290  176.9270  137.2550 C   0  0  0  0  0  0  0  0  0  0  0  0
  185.3130  177.5630  137.5660 C   0  0  0  0  0  3  0  0  0  0  0  0
  187.2270  175.5910  137.1740 C   0  0  0  0  0  3  0  0  0  0  0  0
  190.8700  176.5500  140.5000 C   0  0  1  0  0  3  0  0  0  0  0  0
  191.8840  177.6640  140.6900 C   0  0  0  0  0  1  0  0  0  0  0  0
  189.7240  176.7680  141.3730 N   0  0  0  0  0  2  0  0  0  0  0  0
  189.5750  176.1020  142.6300 C   0  0  0  0  0  0  0  0  0  0  0  0
  190.5170  175.4150  143.1070 O   0  0  0  0  0  0  0  0  0  0  0  0
  188.2760  176.1660  143.3530 C   0  0  0  0  0  2  0  0  0  0  0  0
  187.9410  177.6140  143.6980 C   0  0  2  0  0  3  0  0  0  0  0  0
  189.1710  176.9370  145.8060 C   0  0  0  0  0  1  0  0  0  0  0  0
  188.8440  178.0740  144.8570 C   0  0  0  0  0  3  0  0  0  0  0  0
  190.1100  178.7780  144.3940 C   0  0  0  0  0  1  0  0  0  0  0  0
  186.4280  177.7770  143.9410 C   0  0  1  0  0  3  0  0  0  0  0  0
  186.1060  177.9130  145.4230 C   0  0  0  0  0  1  0  0  0  0  0  0
  185.9110  179.0140  143.2070 C   0  0  0  0  0  2  0  0  0  0  0  0
  184.5710  178.7680  142.6000 C   0  0  0  0  0  0  0  0  0  0  0  0
  183.2230  178.0280  140.7280 C   0  0  0  0  0  3  0  0  0  0  0  0
  182.1530  178.8490  142.7400 C   0  0  0  0  0  3  0  0  0  0  0  0
  182.0610  178.3280  141.4450 C   0  0  0  0  0  3  0  0  0  0  0  0
  183.4070  179.0690  143.3170 C   0  0  0  0  0  3  0  0  0  0  0  0
  184.4780  178.2500  141.3040 C   0  0  0  0  0  3  0  0  0  0  0  0
  189.6780  176.2600  134.9280 C   0  0  0  0  0  2  0  0  0  0  0  0
  189.7280  177.6870  134.4150 C   0  0  0  0  0  1  0  0  0  0  0  0
  190.7820  173.6010  136.2390 S   0  0  0  0  0  0  0  0  0  0  0  0
  194.4140  175.2990  135.5300 C   0  0  0  0  0  3  0  0  0  0  0  0
  195.2900  174.4870  136.2590 C   0  0  0  0  0  0  0  0  0  0  0  0
  193.4130  173.1030  136.9420 C   0  0  0  0  0  3  0  0  0  0  0  0
  193.0440  175.0210  135.5110 C   0  0  0  0  0  3  0  0  0  0  0  0
  192.5420  173.9260  136.2220 C   0  0  0  0  0  0  0  0  0  0  0  0
  194.7820  173.3800  136.9610 C   0  0  0  0  0  3  0  0  0  0  0  0
  197.2060  175.8480  135.4880 C   0  0  0  0  0  1  0  0  0  0  0  0
  196.6510  174.8010  136.2720 O   0  0  0  0  0  0  0  0  0  0  0  0
  1  5  1  0  0  0  0
  1  4  1  0  0  0  0
  2  3  2  0  0  0  0
  3 14  1  0  0  0  0
  4 11  1  1  0  0  0
  4  2  1  0  0  0  0
  5  6  2  0  0  0  0
  6  3  1  0  0  0  0
  7 12  1  0  0  0  0
  7 10  1  0  0  0  0
  8 12  2  0  0  0  0
  9  7  2  0  0  0  0
 11  8  1  0  0  0  0
 13 11  2  0  0  0  0
 13  9  1  0  0  0  0
 14 15  1  6  0  0  0
 14 16  1  0  0  0  0
 16 17  1  0  0  0  0
 17 18  2  0  0  0  0
 17 19  1  0  0  0  0
 20 19  1  1  0  0  0
 20 24  1  0  0  0  0
 20 22  1  0  0  0  0
 22 21  1  0  0  0  0
 23 22  1  0  0  0  0
 24 25  1  1  0  0  0
 26 24  1  0  0  0  0
 27 26  1  0  0  0  0
 27 31  1  0  0  0  0
 28 32  1  0  0  0  0
 28 30  2  0  0  0  0
 29 31  2  0  0  0  0
 30 29  1  0  0  0  0
 32 27  2  0  0  0  0
 33  1  1  0  0  0  0
 34 33  1  0  0  0  0
 35  5  1  0  0  0  0
 36 37  1  0  0  0  0
 37 43  1  0  0  0  0
 37 41  2  0  0  0  0
 38 41  1  0  0  0  0
 39 36  2  0  0  0  0
 39 40  1  0  0  0  0
 40 35  1  0  0  0  0
 40 38  2  0  0  0  0
 42 43  1  0  0  0  0
M  END
>  <MODEL>
5

>  <REMARK>
 VINA RESULT:      -7.0      2.625      5.162
  Name = 
  13 active torsions:
  status: ('A' for Active; 'I' for Inactive)
    1  A    between atoms: S_1  and  C_34
    2  A    between atoms: S_1  and  C_35
    3  A    between atoms: C_2  and  N_6
    4  A    between atoms: C_2  and  C_27
    5  A    between atoms: C_3  and  C_4
    6  A    between atoms: C_3  and  C_12
    7  A    between atoms: C_4  and  C_15
    8  A    between atoms: C_4  and  C_22
    9  A    between atoms: N_8  and  C_33
   10  A    between atoms: C_11  and  C_14
   11  A    between atoms: C_14  and  C_22
   12  A    between atoms: C_19  and  O_37
   13  A    between atoms: C_21  and  C_30
                            x       y       z     vdW  Elec       q    Type
                         _______ _______ _______ _____ _____    ______ ____

>  <TORSDO>
F 13

$$$$
=
 OpenBabel10272414393D

 43 46  0  0  1  0  0  0  0  0999 V2000
  189.1570  177.6190  136.4450 N   0  0  0  0  0  0  0  0  0  0  0  0
  189.0510  178.0080  138.8650 C   0  0  0  0  0  3  0  0  0  0  0  0
  189.9800  177.0560  139.0330 C   0  0  0  0  0  0  0  0  0  0  0  0
  188.3690  178.1980  137.5370 C   0  0  2  0  0  3  0  0  0  0  0  0
  190.0140  176.4920  136.7090 C   0  0  0  0  0  0  0  0  0  0  0  0
  190.3910  176.2410  137.9260 N   0  0  0  0  0  0  0  0  0  0  0  0
  184.4210  176.5560  137.5920 C   0  0  0  0  0  0  0  0  0  0  0  0
  186.7940  176.2240  137.3620 C   0  0  0  0  0  3  0  0  0  0  0  0
  184.6340  177.8840  137.7970 N   0  0  0  0  0  0  0  0  0  0  0  0
  183.1600  176.0620  137.6050 F   0  0  0  0  0  0  0  0  0  0  0  0
  186.9950  177.5950  137.5680 C   0  0  0  0  0  0  0  0  0  0  0  0
  185.5010  175.6990  137.3740 C   0  0  0  0  0  3  0  0  0  0  0  0
  185.8860  178.4170  137.7870 C   0  0  0  0  0  3  0  0  0  0  0  0
  190.5280  176.7530  140.3940 C   0  0  1  0  0  3  0  0  0  0  0  0
  191.7030  177.6560  140.7240 C   0  0  0  0  0  1  0  0  0  0  0  0
  189.4880  176.9020  141.4030 N   0  0  0  0  0  2  0  0  0  0  0  0
  189.4820  176.1510  142.6200 C   0  0  0  0  0  0  0  0  0  0  0  0
  190.4720  175.4400  142.9400 O   0  0  0  0  0  0  0  0  0  0  0  0
  188.2730  176.1560  143.4880 C   0  0  0  0  0  2  0  0  0  0  0  0
  187.9440  177.5820  143.9170 C   0  0  2  0  0  3  0  0  0  0  0  0
  189.4480  176.9220  145.8450 C   0  0  0  0  0  1  0  0  0  0  0  0
  188.9930  178.0510  144.9400 C   0  0  0  0  0  3  0  0  0  0  0  0
  190.1850  178.7530  144.3060 C   0  0  0  0  0  1  0  0  0  0  0  0
  186.4800  177.6820  144.3870 C   0  0  1  0  0  3  0  0  0  0  0  0
  186.3550  177.4820  145.8910 C   0  0  0  0  0  1  0  0  0  0  0  0
  185.9060  179.0500  144.0220 C   0  0  0  0  0  2  0  0  0  0  0  0
  184.5770  178.9250  143.3560 C   0  0  0  0  0  0  0  0  0  0  0  0
  183.2600  178.4250  141.3840 C   0  0  0  0  0  3  0  0  0  0  0  0
  182.1610  179.1070  143.4320 C   0  0  0  0  0  3  0  0  0  0  0  0
  182.0890  178.7120  142.0920 C   0  0  0  0  0  3  0  0  0  0  0  0
  183.4040  179.2130  144.0640 C   0  0  0  0  0  3  0  0  0  0  0  0
  184.5040  178.5330  142.0150 C   0  0  0  0  0  3  0  0  0  0  0  0
  188.9090  178.0830  135.0860 C   0  0  0  0  0  2  0  0  0  0  0  0
  187.5600  177.5850  134.6030 C   0  0  0  0  0  1  0  0  0  0  0  0
  190.5160  175.3750  135.3980 S   0  0  0  0  0  0  0  0  0  0  0  0
  186.9840  173.4080  134.9140 C   0  0  0  0  0  3  0  0  0  0  0  0
  186.9160  172.5960  136.0510 C   0  0  0  0  0  0  0  0  0  0  0  0
  189.0320  173.5170  136.8150 C   0  0  0  0  0  3  0  0  0  0  0  0
  188.0710  174.2650  134.7220 C   0  0  0  0  0  3  0  0  0  0  0  0
  189.0990  174.3160  135.6700 C   0  0  0  0  0  0  0  0  0  0  0  0
  187.9450  172.6600  137.0070 C   0  0  0  0  0  3  0  0  0  0  0  0
  184.5550  172.1850  136.6600 C   0  0  0  0  0  1  0  0  0  0  0  0
  185.8250  171.7370  136.2070 O   0  0  0  0  0  0  0  0  0  0  0  0
  1  5  1  0  0  0  0
  1  4  1  0  0  0  0
  2  3  2  0  0  0  0
  3 14  1  0  0  0  0
  4 11  1  1  0  0  0
  4  2  1  0  0  0  0
  5  6  2  0  0  0  0
  6  3  1  0  0  0  0
  7 10  1  0  0  0  0
  7  9  1  0  0  0  0
  8 12  1  0  0  0  0
  8 11  2  0  0  0  0
 11 13  1  0  0  0  0
 12  7  2  0  0  0  0
 13  9  2  0  0  0  0
 14 15  1  1  0  0  0
 14 16  1  0  0  0  0
 16 17  1  0  0  0  0
 17 18  2  0  0  0  0
 17 19  1  0  0  0  0
 20 19  1  1  0  0  0
 20 24  1  0  0  0  0
 20 22  1  0  0  0  0
 22 21  1  0  0  0  0
 23 22  1  0  0  0  0
 24 25  1  1  0  0  0
 26 24  1  0  0  0  0
 27 26  1  0  0  0  0
 27 31  1  0  0  0  0
 28 32  1  0  0  0  0
 28 30  2  0  0  0  0
 29 31  2  0  0  0  0
 30 29  1  0  0  0  0
 32 27  2  0  0  0  0
 33  1  1  0  0  0  0
 34 33  1  0  0  0  0
 35 40  1  0  0  0  0
 35  5  1  0  0  0  0
 36 37  1  0  0  0  0
 37 43  1  0  0  0  0
 37 41  2  0  0  0  0
 38 41  1  0  0  0  0
 39 36  2  0  0  0  0
 39 40  1  0  0  0  0
 40 38  2  0  0  0  0
 43 42  1  0  0  0  0
M  END
>  <MODEL>
6

>  <REMARK>
 VINA RESULT:      -6.9      1.559      3.520
  Name = 
  13 active torsions:
  status: ('A' for Active; 'I' for Inactive)
    1  A    between atoms: S_1  and  C_34
    2  A    between atoms: S_1  and  C_35
    3  A    between atoms: C_2  and  N_6
    4  A    between atoms: C_2  and  C_27
    5  A    between atoms: C_3  and  C_4
    6  A    between atoms: C_3  and  C_12
    7  A    between atoms: C_4  and  C_15
    8  A    between atoms: C_4  and  C_22
    9  A    between atoms: N_8  and  C_33
   10  A    between atoms: C_11  and  C_14
   11  A    between atoms: C_14  and  C_22
   12  A    between atoms: C_19  and  O_37
   13  A    between atoms: C_21  and  C_30
                            x       y       z     vdW  Elec       q    Type
                         _______ _______ _______ _____ _____    ______ ____

>  <TORSDO>
F 13

$$$$
=
 OpenBabel10272414393D

 43 46  0  0  1  0  0  0  0  0999 V2000
  183.7140  176.3840  136.6430 N   0  0  0  0  0  0  0  0  0  0  0  0
  185.2570  178.1910  137.2510 C   0  0  0  0  0  3  0  0  0  0  0  0
  186.2110  177.2720  137.4560 C   0  0  0  0  0  0  0  0  0  0  0  0
  183.8210  177.7860  137.0590 C   0  0  2  0  0  3  0  0  0  0  0  0
  184.7250  175.4430  137.0510 C   0  0  0  0  0  0  0  0  0  0  0  0
  185.8900  175.8750  137.4290 N   0  0  0  0  0  0  0  0  0  0  0  0
  181.5480  178.4990  140.6110 C   0  0  0  0  0  0  0  0  0  0  0  0
  182.9310  177.0250  139.3040 C   0  0  0  0  0  3  0  0  0  0  0  0
  181.6710  179.4540  139.6500 N   0  0  0  0  0  0  0  0  0  0  0  0
  180.8150  178.7460  141.7220 F   0  0  0  0  0  0  0  0  0  0  0  0
  183.0430  178.0170  138.3210 C   0  0  0  0  0  0  0  0  0  0  0  0
  182.1810  177.2650  140.4560 C   0  0  0  0  0  3  0  0  0  0  0  0
  182.3970  179.2410  138.5190 C   0  0  0  0  0  3  0  0  0  0  0  0
  187.6050  177.6840  137.8210 C   0  0  1  0  0  3  0  0  0  0  0  0
  188.2250  178.5420  136.7320 C   0  0  0  0  0  1  0  0  0  0  0  0
  187.6030  178.4100  139.0840 N   0  0  0  0  0  2  0  0  0  0  0  0
  188.5750  178.1760  140.1080 C   0  0  0  0  0  0  0  0  0  0  0  0
  189.5730  177.4390  139.8890 O   0  0  0  0  0  0  0  0  0  0  0  0
  188.3760  178.7550  141.4640 C   0  0  0  0  0  2  0  0  0  0  0  0
  187.4100  177.8870  142.2660 C   0  0  2  0  0  3  0  0  0  0  0  0
  185.2450  179.0110  141.5840 C   0  0  0  0  0  1  0  0  0  0  0  0
  186.2190  178.7510  142.7180 C   0  0  0  0  0  3  0  0  0  0  0  0
  185.4980  178.1970  143.9370 C   0  0  0  0  0  1  0  0  0  0  0  0
  188.1540  177.1530  143.3980 C   0  0  1  0  0  3  0  0  0  0  0  0
  188.7060  175.8120  142.9340 C   0  0  0  0  0  1  0  0  0  0  0  0
  189.3110  178.0130  143.9070 C   0  0  0  0  0  2  0  0  0  0  0  0
  189.8390  177.5050  145.2050 C   0  0  0  0  0  0  0  0  0  0  0  0
  189.5400  177.1020  147.5760 C   0  0  0  0  0  3  0  0  0  0  0  0
  191.6310  176.5150  146.5040 C   0  0  0  0  0  3  0  0  0  0  0  0
  190.8330  176.5760  147.6510 C   0  0  0  0  0  3  0  0  0  0  0  0
  191.1350  176.9800  145.2810 C   0  0  0  0  0  3  0  0  0  0  0  0
  189.0430  177.5680  146.3540 C   0  0  0  0  0  3  0  0  0  0  0  0
  182.4900  175.9450  135.9840 C   0  0  0  0  0  2  0  0  0  0  0  0
  181.7180  177.1440  135.4660 C   0  0  0  0  0  1  0  0  0  0  0  0
  184.3870  173.6830  137.1220 S   0  0  0  0  0  0  0  0  0  0  0  0
  187.4560  173.6370  134.4470 C   0  0  0  0  0  3  0  0  0  0  0  0
  188.3620  172.7390  135.0220 C   0  0  0  0  0  0  0  0  0  0  0  0
  186.8170  172.3820  136.8630 C   0  0  0  0  0  3  0  0  0  0  0  0
  186.2400  173.9120  135.0770 C   0  0  0  0  0  3  0  0  0  0  0  0
  185.9220  173.2890  136.2890 C   0  0  0  0  0  0  0  0  0  0  0  0
  188.0330  172.1060  136.2320 C   0  0  0  0  0  3  0  0  0  0  0  0
  190.8290  172.5540  135.0470 C   0  0  0  0  0  1  0  0  0  0  0  0
  189.5780  172.4970  134.3760 O   0  0  0  0  0  0  0  0  0  0  0  0
  1  5  1  0  0  0  0
  1  4  1  0  0  0  0
  2  3  2  0  0  0  0
  3 14  1  0  0  0  0
  4  2  1  0  0  0  0
  4 11  1  1  0  0  0
  5 35  1  0  0  0  0
  5  6  2  0  0  0  0
  6  3  1  0  0  0  0
  7 10  1  0  0  0  0
  8 12  2  0  0  0  0
  9  7  2  0  0  0  0
 11 13  2  0  0  0  0
 11  8  1  0  0  0  0
 12  7  1  0  0  0  0
 13  9  1  0  0  0  0
 14 15  1  6  0  0  0
 14 16  1  0  0  0  0
 16 17  1  0  0  0  0
 17 19  1  0  0  0  0
 18 17  2  0  0  0  0
 20 19  1  1  0  0  0
 20 22  1  0  0  0  0
 20 24  1  0  0  0  0
 21 22  1  0  0  0  0
 22 23  1  0  0  0  0
 24 25  1  6  0  0  0
 24 26  1  0  0  0  0
 26 27  1  0  0  0  0
 27 31  2  0  0  0  0
 27 32  1  0  0  0  0
 28 30  1  0  0  0  0
 29 30  2  0  0  0  0
 31 29  1  0  0  0  0
 32 28  2  0  0  0  0
 33  1  1  0  0  0  0
 34 33  1  0  0  0  0
 36 37  2  0  0  0  0
 36 39  1  0  0  0  0
 37 41  1  0  0  0  0
 39 40  2  0  0  0  0
 40 38  1  0  0  0  0
 40 35  1  0  0  0  0
 41 38  2  0  0  0  0
 43 37  1  0  0  0  0
 43 42  1  0  0  0  0
M  END
>  <MODEL>
7

>  <REMARK>
 VINA RESULT:      -6.9      2.695      4.596
  Name = 
  13 active torsions:
  status: ('A' for Active; 'I' for Inactive)
    1  A    between atoms: S_1  and  C_34
    2  A    between atoms: S_1  and  C_35
    3  A    between atoms: C_2  and  N_6
    4  A    between atoms: C_2  and  C_27
    5  A    between atoms: C_3  and  C_4
    6  A    between atoms: C_3  and  C_12
    7  A    between atoms: C_4  and  C_15
    8  A    between atoms: C_4  and  C_22
    9  A    between atoms: N_8  and  C_33
   10  A    between atoms: C_11  and  C_14
   11  A    between atoms: C_14  and  C_22
   12  A    between atoms: C_19  and  O_37
   13  A    between atoms: C_21  and  C_30
                            x       y       z     vdW  Elec       q    Type
                         _______ _______ _______ _____ _____    ______ ____

>  <TORSDO>
F 13

$$$$
=
 OpenBabel10272414393D

 43 46  0  0  1  0  0  0  0  0999 V2000
  189.6860  176.2610  136.6670 N   0  0  0  0  0  0  0  0  0  0  0  0
  190.8260  175.4730  138.6920 C   0  0  0  0  0  3  0  0  0  0  0  0
  190.2740  176.4900  139.3670 C   0  0  0  0  0  0  0  0  0  0  0  0
  190.7690  175.4200  137.1890 C   0  0  2  0  0  3  0  0  0  0  0  0
  189.2730  177.4250  137.4070 C   0  0  0  0  0  0  0  0  0  0  0  0
  189.5550  177.5180  138.6710 N   0  0  0  0  0  0  0  0  0  0  0  0
  194.5600  176.5940  135.5970 C   0  0  0  0  0  0  0  0  0  0  0  0
  192.3550  175.6980  135.2360 C   0  0  0  0  0  3  0  0  0  0  0  0
  194.2800  176.7300  136.9210 N   0  0  0  0  0  0  0  0  0  0  0  0
  195.7720  176.9640  135.1190 F   0  0  0  0  0  0  0  0  0  0  0  0
  192.0850  175.8400  136.6030 C   0  0  0  0  0  0  0  0  0  0  0  0
  193.5980  176.0770  134.7270 C   0  0  0  0  0  3  0  0  0  0  0  0
  193.0750  176.3660  137.4380 C   0  0  0  0  0  3  0  0  0  0  0  0
  190.4840  176.6320  140.8440 C   0  0  1  0  0  3  0  0  0  0  0  0
  191.4850  177.7310  141.1520 C   0  0  0  0  0  1  0  0  0  0  0  0
  189.2180  176.9120  141.5100 N   0  0  0  0  0  2  0  0  0  0  0  0
  188.9070  176.4110  142.8130 C   0  0  0  0  0  0  0  0  0  0  0  0
  189.7880  175.8350  143.5070 O   0  0  0  0  0  0  0  0  0  0  0  0
  187.5160  176.5110  143.3320 C   0  0  0  0  0  2  0  0  0  0  0  0
  187.2760  177.9000  143.9180 C   0  0  2  0  0  3  0  0  0  0  0  0
  188.2830  177.6620  146.2300 C   0  0  0  0  0  1  0  0  0  0  0  0
  187.0010  177.7660  145.4260 C   0  0  0  0  0  3  0  0  0  0  0  0
  186.1010  178.8610  145.9770 C   0  0  0  0  0  1  0  0  0  0  0  0
  186.1920  178.6460  143.1170 C   0  0  1  0  0  3  0  0  0  0  0  0
  186.7760  179.3640  141.9090 C   0  0  0  0  0  1  0  0  0  0  0  0
  185.1260  177.6610  142.6390 C   0  0  0  0  0  2  0  0  0  0  0  0
  183.7680  178.2770  142.6490 C   0  0  0  0  0  0  0  0  0  0  0  0
  181.9460  179.3110  143.8680 C   0  0  0  0  0  3  0  0  0  0  0  0
  181.7530  178.9470  141.4810 C   0  0  0  0  0  3  0  0  0  0  0  0
  181.2110  179.4130  142.6820 C   0  0  0  0  0  3  0  0  0  0  0  0
  183.0310  178.3790  141.4640 C   0  0  0  0  0  3  0  0  0  0  0  0
  183.2230  178.7420  143.8520 C   0  0  0  0  0  3  0  0  0  0  0  0
  189.1870  175.9980  135.3240 C   0  0  0  0  0  2  0  0  0  0  0  0
  188.8660  174.5240  135.1650 C   0  0  0  0  0  1  0  0  0  0  0  0
  188.4370  178.7930  136.6020 S   0  0  0  0  0  0  0  0  0  0  0  0
  184.9940  177.5650  138.3950 C   0  0  0  0  0  3  0  0  0  0  0  0
  184.2710  177.0010  137.3380 C   0  0  0  0  0  0  0  0  0  0  0  0
  186.1170  177.4920  135.8350 C   0  0  0  0  0  3  0  0  0  0  0  0
  186.2670  178.0970  138.1750 C   0  0  0  0  0  3  0  0  0  0  0  0
  186.8280  178.0660  136.8930 C   0  0  0  0  0  0  0  0  0  0  0  0
  184.8440  176.9600  136.0550 C   0  0  0  0  0  3  0  0  0  0  0  0
  182.6060  175.9750  138.8520 C   0  0  0  0  0  1  0  0  0  0  0  0
  182.9940  176.4920  137.5860 O   0  0  0  0  0  0  0  0  0  0  0  0
  1  4  1  0  0  0  0
  1  5  1  0  0  0  0
  2  3  2  0  0  0  0
  3 14  1  0  0  0  0
  4 11  1  6  0  0  0
  4  2  1  0  0  0  0
  5  6  2  0  0  0  0
  6  3  1  0  0  0  0
  7  9  1  0  0  0  0
  8 11  2  0  0  0  0
  9 13  2  0  0  0  0
 10  7  1  0  0  0  0
 11 13  1  0  0  0  0
 12  8  1  0  0  0  0
 12  7  2  0  0  0  0
 14 15  1  6  0  0  0
 14 16  1  0  0  0  0
 16 17  1  0  0  0  0
 17 19  1  0  0  0  0
 17 18  2  0  0  0  0
 20 19  1  6  0  0  0
 20 22  1  0  0  0  0
 22 23  1  0  0  0  0
 22 21  1  0  0  0  0
 24 25  1  6  0  0  0
 24 20  1  0  0  0  0
 26 27  1  0  0  0  0
 26 24  1  0  0  0  0
 27 32  1  0  0  0  0
 29 30  2  0  0  0  0
 30 28  1  0  0  0  0
 31 29  1  0  0  0  0
 31 27  2  0  0  0  0
 32 28  2  0  0  0  0
 33  1  1  0  0  0  0
 34 33  1  0  0  0  0
 35 40  1  0  0  0  0
 35  5  1  0  0  0  0
 37 43  1  0  0  0  0
 37 36  2  0  0  0  0
 38 41  2  0  0  0  0
 38 40  1  0  0  0  0
 39 36  1  0  0  0  0
 40 39  2  0  0  0  0
 41 37  1  0  0  0  0
 43 42  1  0  0  0  0
M  END
>  <MODEL>
8

>  <REMARK>
 VINA RESULT:      -6.8      2.781      5.330
  Name = 
  13 active torsions:
  status: ('A' for Active; 'I' for Inactive)
    1  A    between atoms: S_1  and  C_34
    2  A    between atoms: S_1  and  C_35
    3  A    between atoms: C_2  and  N_6
    4  A    between atoms: C_2  and  C_27
    5  A    between atoms: C_3  and  C_4
    6  A    between atoms: C_3  and  C_12
    7  A    between atoms: C_4  and  C_15
    8  A    between atoms: C_4  and  C_22
    9  A    between atoms: N_8  and  C_33
   10  A    between atoms: C_11  and  C_14
   11  A    between atoms: C_14  and  C_22
   12  A    between atoms: C_19  and  O_37
   13  A    between atoms: C_21  and  C_30
                            x       y       z     vdW  Elec       q    Type
                         _______ _______ _______ _____ _____    ______ ____

>  <TORSDO>
F 13

$$$$
=
 OpenBabel10272414393D

 43 46  0  0  1  0  0  0  0  0999 V2000
  190.8210  177.2610  141.2190 N   0  0  0  0  0  0  0  0  0  0  0  0
  189.6810  178.3500  139.3390 C   0  0  0  0  0  3  0  0  0  0  0  0
  188.5070  177.9920  139.8770 C   0  0  0  0  0  0  0  0  0  0  0  0
  190.9750  177.7820  139.8570 C   0  0  2  0  0  3  0  0  0  0  0  0
  189.5410  176.7570  141.6450 C   0  0  0  0  0  0  0  0  0  0  0  0
  188.4670  177.1080  141.0070 N   0  0  0  0  0  0  0  0  0  0  0  0
  192.3200  174.7130  137.1990 C   0  0  0  0  0  0  0  0  0  0  0  0
  192.8160  176.6520  138.5360 C   0  0  0  0  0  3  0  0  0  0  0  0
  191.0220  174.7750  137.6040 N   0  0  0  0  0  0  0  0  0  0  0  0
  192.7180  173.7370  136.3500 F   0  0  0  0  0  0  0  0  0  0  0  0
  191.4750  176.7060  138.9380 C   0  0  0  0  0  0  0  0  0  0  0  0
  193.2430  175.6510  137.6630 C   0  0  0  0  0  3  0  0  0  0  0  0
  190.5840  175.7440  138.4540 C   0  0  0  0  0  3  0  0  0  0  0  0
  187.2150  178.4190  139.2500 C   0  0  1  0  0  3  0  0  0  0  0  0
  187.0530  177.8150  137.8660 C   0  0  0  0  0  1  0  0  0  0  0  0
  186.0910  178.0340  140.0940 N   0  0  0  0  0  2  0  0  0  0  0  0
  184.9420  178.8660  140.2720 C   0  0  0  0  0  0  0  0  0  0  0  0
  184.7860  179.9030  139.5730 O   0  0  0  0  0  0  0  0  0  0  0  0
  183.9520  178.5440  141.3350 C   0  0  0  0  0  2  0  0  0  0  0  0
  182.5380  178.5910  140.7630 C   0  0  2  0  0  3  0  0  0  0  0  0
  182.2290  178.8990  143.2580 C   0  0  0  0  0  1  0  0  0  0  0  0
  181.5330  178.7160  141.9220 C   0  0  0  0  0  3  0  0  0  0  0  0
  180.4860  179.7960  141.7020 C   0  0  0  0  0  1  0  0  0  0  0  0
  182.2980  177.4020  139.8120 C   0  0  1  0  0  3  0  0  0  0  0  0
  180.9910  176.6850  140.1240 C   0  0  0  0  0  1  0  0  0  0  0  0
  182.2600  177.8890  138.3650 C   0  0  0  0  0  2  0  0  0  0  0  0
  183.0840  177.0210  137.4750 C   0  0  0  0  0  0  0  0  0  0  0  0
  183.8820  176.4500  135.2590 C   0  0  0  0  0  3  0  0  0  0  0  0
  184.5700  175.1310  137.1700 C   0  0  0  0  0  3  0  0  0  0  0  0
  184.6070  175.3810  135.7950 C   0  0  0  0  0  3  0  0  0  0  0  0
  183.8090  175.9500  138.0100 C   0  0  0  0  0  3  0  0  0  0  0  0
  183.1200  177.2690  136.0980 C   0  0  0  0  0  3  0  0  0  0  0  0
  192.0140  177.0960  142.0390 C   0  0  0  0  0  2  0  0  0  0  0  0
  191.9510  178.0190  143.2420 C   0  0  0  0  0  1  0  0  0  0  0  0
  189.4030  175.5890  143.0000 S   0  0  0  0  0  0  0  0  0  0  0  0
  186.2020  177.8120  144.1740 C   0  0  0  0  0  3  0  0  0  0  0  0
  186.6160  178.3370  145.4030 C   0  0  0  0  0  0  0  0  0  0  0  0
  188.7560  177.2170  145.1430 C   0  0  0  0  0  3  0  0  0  0  0  0
  187.0550  176.9890  143.4350 C   0  0  0  0  0  3  0  0  0  0  0  0
  188.3310  176.6860  143.9220 C   0  0  0  0  0  0  0  0  0  0  0  0
  187.9040  178.0410  145.8820 C   0  0  0  0  0  3  0  0  0  0  0  0
  184.3670  178.8060  146.3220 C   0  0  0  0  0  1  0  0  0  0  0  0
  185.7340  179.1450  146.1260 O   0  0  0  0  0  0  0  0  0  0  0  0
  1  5  1  0  0  0  0
  1 33  1  0  0  0  0
  2  4  1  0  0  0  0
  2  3  2  0  0  0  0
  3  6  1  0  0  0  0
  4 11  1  6  0  0  0
  4  1  1  0  0  0  0
  5 35  1  0  0  0  0
  6  5  2  0  0  0  0
  7  9  2  0  0  0  0
  7 12  1  0  0  0  0
  8 11  1  0  0  0  0
  9 13  1  0  0  0  0
 10  7  1  0  0  0  0
 12  8  2  0  0  0  0
 13 11  2  0  0  0  0
 14 15  1  6  0  0  0
 14  3  1  0  0  0  0
 14 16  1  0  0  0  0
 16 17  1  0  0  0  0
 17 19  1  0  0  0  0
 18 17  2  0  0  0  0
 20 19  1  1  0  0  0
 20 22  1  0  0  0  0
 22 21  1  0  0  0  0
 23 22  1  0  0  0  0
 24 25  1  1  0  0  0
 24 20  1  0  0  0  0
 26 24  1  0  0  0  0
 27 31  1  0  0  0  0
 27 26  1  0  0  0  0
 28 30  2  0  0  0  0
 28 32  1  0  0  0  0
 29 31  2  0  0  0  0
 30 29  1  0  0  0  0
 32 27  2  0  0  0  0
 33 34  1  0  0  0  0
 35 40  1  0  0  0  0
 36 37  1  0  0  0  0
 37 41  2  0  0  0  0
 37 43  1  0  0  0  0
 38 41  1  0  0  0  0
 39 40  1  0  0  0  0
 39 36  2  0  0  0  0
 40 38  2  0  0  0  0
 43 42  1  0  0  0  0
M  END
>  <MODEL>
9

>  <REMARK>
 VINA RESULT:      -6.8      3.239      7.663
  Name = 
  13 active torsions:
  status: ('A' for Active; 'I' for Inactive)
    1  A    between atoms: S_1  and  C_34
    2  A    between atoms: S_1  and  C_35
    3  A    between atoms: C_2  and  N_6
    4  A    between atoms: C_2  and  C_27
    5  A    between atoms: C_3  and  C_4
    6  A    between atoms: C_3  and  C_12
    7  A    between atoms: C_4  and  C_15
    8  A    between atoms: C_4  and  C_22
    9  A    between atoms: N_8  and  C_33
   10  A    between atoms: C_11  and  C_14
   11  A    between atoms: C_14  and  C_22
   12  A    between atoms: C_19  and  O_37
   13  A    between atoms: C_21  and  C_30
                            x       y       z     vdW  Elec       q    Type
                         _______ _______ _______ _____ _____    ______ ____

>  <TORSDO>
F 13

$$$$
