=
 OpenBabel10262423413D

 34 39  0  0  1  0  0  0  0  0999 V2000
  189.3230  177.1940  146.5880 C   0  0  0  0  0  0  0  0  0  0  0  0
  191.1000  176.5490  145.0500 C   0  0  0  0  0  0  0  0  0  0  0  0
  188.9340  177.3030  144.1770 C   0  0  0  0  0  0  0  0  0  0  0  0
  188.5510  177.5280  141.7960 C   0  0  0  0  0  0  0  0  0  0  0  0
  191.4780  176.5000  147.4440 C   0  0  0  0  0  3  0  0  0  0  0  0
  191.9340  176.2860  146.1400 C   0  0  0  0  0  3  0  0  0  0  0  0
  190.9010  177.0640  142.6100 C   0  0  0  0  0  2  0  0  0  0  0  0
  189.7890  177.0190  145.2650 C   0  0  0  0  0  0  0  0  0  0  0  0
  190.1740  176.9460  147.6680 C   0  0  0  0  0  3  0  0  0  0  0  0
  187.5870  177.6710  144.4150 C   0  0  0  0  0  0  0  0  0  0  0  0
  188.0090  177.6000  146.8160 C   0  0  0  0  0  3  0  0  0  0  0  0
  191.5550  176.1790  143.6700 C   0  0  0  0  0  2  0  0  0  0  0  0
  187.2550  177.8430  142.0520 N   0  0  0  0  0  0  0  0  0  0  0  0
  186.7350  177.9170  143.3080 C   0  0  0  0  0  0  0  0  0  0  0  0
  189.4250  177.2490  142.8580 C   0  0  0  0  0  0  0  0  0  0  0  0
  187.1500  177.8290  145.7410 C   0  0  0  0  0  3  0  0  0  0  0  0
  183.0850  178.6310  142.4820 C   0  0  0  0  0  0  0  0  0  0  0  0
  182.6040  179.0320  143.7300 C   0  0  0  0  0  3  0  0  0  0  0  0
  185.2960  178.2730  143.4390 C   0  0  0  0  0  0  0  0  0  0  0  0
  183.4620  179.0640  144.8310 C   0  0  0  0  0  3  0  0  0  0  0  0
  184.4250  178.2600  142.3370 C   0  0  0  0  0  3  0  0  0  0  0  0
  184.8010  178.6920  144.6840 C   0  0  0  0  0  3  0  0  0  0  0  0
  182.2560  178.6040  141.4120 F   0  0  0  0  0  0  0  0  0  0  0  0
  189.0260  177.5280  140.3820 C   0  0  0  0  0  2  0  0  0  0  0  0
  188.0430  178.2840  139.5040 C   0  0  0  0  0  2  0  0  0  0  0  0
  187.7440  177.4900  138.2470 C   0  0  0  0  0  2  0  0  0  0  0  0
  186.8010  178.2680  137.3450 C   0  0  0  0  0  2  0  0  0  0  0  0
  184.4460  179.2040  138.9140 C   0  0  0  0  0  1  0  0  0  0  0  0
  185.4870  177.5170  137.1860 C   0  0  2  0  0  3  0  0  0  0  0  0
  184.4780  177.8590  138.2700 C   0  0  0  0  0  0  0  0  0  0  0  0
  183.4610  175.6600  137.9350 C   0  0  0  0  0  3  0  0  0  0  0  0
  184.5070  175.2090  137.2380 C   0  0  0  0  0  3  0  0  0  0  0  0
  185.7760  176.0120  137.1630 C   0  0  0  0  0  2  0  0  0  0  0  0
  183.5020  176.9930  138.5650 C   0  0  0  0  0  3  0  0  0  0  0  0
  1 11  1  0  0  0  0
  1  9  2  0  0  0  0
  2  8  2  0  0  0  0
  2  6  1  0  0  0  0
  3 10  1  0  0  0  0
  3  8  1  0  0  0  0
  4 13  2  0  0  0  0
  4 15  1  0  0  0  0
  5  9  1  0  0  0  0
  6  5  2  0  0  0  0
  7 15  1  0  0  0  0
  7 12  1  0  0  0  0
  8  1  1  0  0  0  0
 10 16  1  0  0  0  0
 12  2  1  0  0  0  0
 13 14  1  0  0  0  0
 14 19  1  0  0  0  0
 14 10  2  0  0  0  0
 15  3  2  0  0  0  0
 16 11  2  0  0  0  0
 17 18  1  0  0  0  0
 18 20  2  0  0  0  0
 19 22  2  0  0  0  0
 21 17  2  0  0  0  0
 21 19  1  0  0  0  0
 22 20  1  0  0  0  0
 23 17  1  0  0  0  0
 24  4  1  0  0  0  0
 25 24  1  0  0  0  0
 26 25  1  0  0  0  0
 27 26  1  0  0  0  0
 29 27  1  1  0  0  0
 29 30  1  0  0  0  0
 30 34  2  0  0  0  0
 30 28  1  0  0  0  0
 31 34  1  0  0  0  0
 32 31  2  0  0  0  0
 33 29  1  0  0  0  0
 33 32  1  0  0  0  0
M  END
>  <MODEL>
1

>  <REMARK>
 VINA RESULT:     -11.2      0.000      0.000
  Name = 
  6 active torsions:
  status: ('A' for Active; 'I' for Inactive)
    1  A    between atoms: C_3  and  C_13
    2  A    between atoms: C_3  and  C_17
    3  A    between atoms: C_5  and  C_18
    4  A    between atoms: C_12  and  C_28
    5  A    between atoms: C_17  and  C_29
    6  A    between atoms: C_18  and  C_29
                            x       y       z     vdW  Elec       q    Type
                         _______ _______ _______ _____ _____    ______ ____

>  <TORSDO>
F 6

$$$$
=
 OpenBabel10262423413D

 34 39  0  0  1  0  0  0  0  0999 V2000
  188.9240  177.2050  146.3720 C   0  0  0  0  0  0  0  0  0  0  0  0
  190.8480  176.9150  144.9020 C   0  0  0  0  0  0  0  0  0  0  0  0
  188.6870  177.6140  143.9730 C   0  0  0  0  0  0  0  0  0  0  0  0
  188.4420  178.1340  141.6210 C   0  0  0  0  0  0  0  0  0  0  0  0
  191.0710  176.5670  147.2910 C   0  0  0  0  0  3  0  0  0  0  0  0
  191.6280  176.5700  146.0090 C   0  0  0  0  0  3  0  0  0  0  0  0
  190.7650  177.7440  142.5430 C   0  0  0  0  0  2  0  0  0  0  0  0
  189.4890  177.2490  145.0770 C   0  0  0  0  0  0  0  0  0  0  0  0
  189.7210  176.8770  147.4710 C   0  0  0  0  0  3  0  0  0  0  0  0
  187.2990  177.8420  144.1540 C   0  0  0  0  0  0  0  0  0  0  0  0
  187.5680  177.4740  146.5500 C   0  0  0  0  0  3  0  0  0  0  0  0
  191.4220  176.7750  143.5250 C   0  0  0  0  0  2  0  0  0  0  0  0
  187.1090  178.3110  141.8150 N   0  0  0  0  0  0  0  0  0  0  0  0
  186.5040  178.1720  143.0270 C   0  0  0  0  0  0  0  0  0  0  0  0
  189.2650  177.7800  142.7000 C   0  0  0  0  0  0  0  0  0  0  0  0
  186.7650  177.7820  145.4520 C   0  0  0  0  0  3  0  0  0  0  0  0
  182.8450  178.5520  142.0380 C   0  0  0  0  0  0  0  0  0  0  0  0
  182.2740  178.9050  143.2630 C   0  0  0  0  0  3  0  0  0  0  0  0
  185.0350  178.3940  143.0930 C   0  0  0  0  0  0  0  0  0  0  0  0
  183.0760  179.0130  144.4010 C   0  0  0  0  0  3  0  0  0  0  0  0
  184.2180  178.3050  141.9540 C   0  0  0  0  0  3  0  0  0  0  0  0
  184.4480  178.7640  144.3140 C   0  0  0  0  0  3  0  0  0  0  0  0
  182.0700  178.4530  140.9330 F   0  0  0  0  0  0  0  0  0  0  0  0
  189.0070  178.3650  140.2590 C   0  0  0  0  0  2  0  0  0  0  0  0
  189.0480  177.0580  139.4850 C   0  0  0  0  0  2  0  0  0  0  0  0
  189.2550  177.3290  138.0070 C   0  0  0  0  0  2  0  0  0  0  0  0
  188.5750  178.6290  137.6110 C   0  0  0  0  0  2  0  0  0  0  0  0
  185.7180  178.3300  138.4100 C   0  0  0  0  0  1  0  0  0  0  0  0
  187.5470  178.3730  136.5190 C   0  0  2  0  0  3  0  0  0  0  0  0
  186.2100  177.9010  137.0670 C   0  0  0  0  0  0  0  0  0  0  0  0
  185.7980  176.7770  134.9350 C   0  0  0  0  0  3  0  0  0  0  0  0
  187.0740  176.8870  134.5550 C   0  0  0  0  0  3  0  0  0  0  0  0
  188.1210  177.3540  135.5270 C   0  0  0  0  0  2  0  0  0  0  0  0
  185.3820  177.2000  136.2850 C   0  0  0  0  0  3  0  0  0  0  0  0
  1 11  1  0  0  0  0
  1  9  2  0  0  0  0
  2  8  2  0  0  0  0
  2  6  1  0  0  0  0
  3 10  1  0  0  0  0
  3  8  1  0  0  0  0
  4 13  2  0  0  0  0
  4 15  1  0  0  0  0
  5  9  1  0  0  0  0
  6  5  2  0  0  0  0
  7 15  1  0  0  0  0
  7 12  1  0  0  0  0
  8  1  1  0  0  0  0
 10 16  1  0  0  0  0
 12  2  1  0  0  0  0
 13 14  1  0  0  0  0
 14 19  1  0  0  0  0
 14 10  2  0  0  0  0
 15  3  2  0  0  0  0
 16 11  2  0  0  0  0
 17 18  1  0  0  0  0
 18 20  2  0  0  0  0
 19 22  2  0  0  0  0
 21 17  2  0  0  0  0
 21 19  1  0  0  0  0
 22 20  1  0  0  0  0
 23 17  1  0  0  0  0
 24  4  1  0  0  0  0
 25 24  1  0  0  0  0
 26 25  1  0  0  0  0
 27 26  1  0  0  0  0
 29 30  1  0  0  0  0
 29 27  1  1  0  0  0
 30 28  1  0  0  0  0
 31 34  1  0  0  0  0
 32 31  2  0  0  0  0
 32 33  1  0  0  0  0
 33 29  1  0  0  0  0
 34 30  2  0  0  0  0
M  END
>  <MODEL>
2

>  <REMARK>
 VINA RESULT:     -11.1      1.083      1.521
  Name = 
  6 active torsions:
  status: ('A' for Active; 'I' for Inactive)
    1  A    between atoms: C_3  and  C_13
    2  A    between atoms: C_3  and  C_17
    3  A    between atoms: C_5  and  C_18
    4  A    between atoms: C_12  and  C_28
    5  A    between atoms: C_17  and  C_29
    6  A    between atoms: C_18  and  C_29
                            x       y       z     vdW  Elec       q    Type
                         _______ _______ _______ _____ _____    ______ ____

>  <TORSDO>
F 6

$$$$
=
 OpenBabel10262423413D

 34 39  0  0  1  0  0  0  0  0999 V2000
  188.9260  177.2210  146.3480 C   0  0  0  0  0  0  0  0  0  0  0  0
  190.8390  176.9450  144.8610 C   0  0  0  0  0  0  0  0  0  0  0  0
  188.6680  177.6400  143.9530 C   0  0  0  0  0  0  0  0  0  0  0  0
  188.4010  178.1690  141.6050 C   0  0  0  0  0  0  0  0  0  0  0  0
  191.0830  176.5870  147.2460 C   0  0  0  0  0  3  0  0  0  0  0  0
  191.6300  176.5980  145.9600 C   0  0  0  0  0  3  0  0  0  0  0  0
  190.7340  177.7840  142.5060 C   0  0  0  0  0  2  0  0  0  0  0  0
  189.4800  177.2730  145.0480 C   0  0  0  0  0  0  0  0  0  0  0  0
  189.7330  176.8920  147.4390 C   0  0  0  0  0  3  0  0  0  0  0  0
  187.2810  177.8620  144.1460 C   0  0  0  0  0  0  0  0  0  0  0  0
  187.5710  177.4840  146.5380 C   0  0  0  0  0  3  0  0  0  0  0  0
  191.4030  176.8130  143.4780 C   0  0  0  0  0  2  0  0  0  0  0  0
  187.0700  178.3400  141.8110 N   0  0  0  0  0  0  0  0  0  0  0  0
  186.4750  178.1940  143.0270 C   0  0  0  0  0  0  0  0  0  0  0  0
  189.2350  177.8130  142.6760 C   0  0  0  0  0  0  0  0  0  0  0  0
  186.7570  177.7940  145.4480 C   0  0  0  0  0  3  0  0  0  0  0  0
  182.8050  178.5560  142.0720 C   0  0  0  0  0  0  0  0  0  0  0  0
  182.2440  178.9100  143.3010 C   0  0  0  0  0  3  0  0  0  0  0  0
  185.0050  178.4100  143.1060 C   0  0  0  0  0  0  0  0  0  0  0  0
  183.0570  179.0250  144.4310 C   0  0  0  0  0  3  0  0  0  0  0  0
  184.1790  178.3130  141.9750 C   0  0  0  0  0  3  0  0  0  0  0  0
  184.4290  178.7810  144.3320 C   0  0  0  0  0  3  0  0  0  0  0  0
  182.0200  178.4490  140.9740 F   0  0  0  0  0  0  0  0  0  0  0  0
  188.9540  178.4080  140.2400 C   0  0  0  0  0  2  0  0  0  0  0  0
  188.7040  177.1960  139.3580 C   0  0  0  0  0  2  0  0  0  0  0  0
  188.9010  177.5590  137.8990 C   0  0  0  0  0  2  0  0  0  0  0  0
  187.7320  178.3940  137.4020 C   0  0  0  0  0  2  0  0  0  0  0  0
  186.6680  177.0630  134.9570 C   0  0  0  0  0  1  0  0  0  0  0  0
  186.4350  177.6070  137.5200 C   0  0  2  0  0  3  0  0  0  0  0  0
  185.8240  177.2750  136.1690 C   0  0  0  0  0  0  0  0  0  0  0  0
  183.6320  177.1860  137.2490 C   0  0  0  0  0  3  0  0  0  0  0  0
  184.0780  177.7910  138.3530 C   0  0  0  0  0  3  0  0  0  0  0  0
  185.4510  178.4020  138.3860 C   0  0  0  0  0  2  0  0  0  0  0  0
  184.5130  177.0270  136.0770 C   0  0  0  0  0  3  0  0  0  0  0  0
  1 11  1  0  0  0  0
  1  9  2  0  0  0  0
  2  8  2  0  0  0  0
  2  6  1  0  0  0  0
  3 10  1  0  0  0  0
  3  8  1  0  0  0  0
  4 13  2  0  0  0  0
  4 15  1  0  0  0  0
  5  9  1  0  0  0  0
  6  5  2  0  0  0  0
  7 15  1  0  0  0  0
  7 12  1  0  0  0  0
  8  1  1  0  0  0  0
 10 16  1  0  0  0  0
 12  2  1  0  0  0  0
 13 14  1  0  0  0  0
 14 19  1  0  0  0  0
 14 10  2  0  0  0  0
 15  3  2  0  0  0  0
 16 11  2  0  0  0  0
 17 18  1  0  0  0  0
 18 20  2  0  0  0  0
 19 22  2  0  0  0  0
 21 17  2  0  0  0  0
 21 19  1  0  0  0  0
 22 20  1  0  0  0  0
 23 17  1  0  0  0  0
 24  4  1  0  0  0  0
 25 24  1  0  0  0  0
 26 25  1  0  0  0  0
 27 26  1  0  0  0  0
 28 30  1  0  0  0  0
 29 27  1  6  0  0  0
 29 33  1  0  0  0  0
 30 29  1  0  0  0  0
 31 32  2  0  0  0  0
 32 33  1  0  0  0  0
 34 30  2  0  0  0  0
 34 31  1  0  0  0  0
M  END
>  <MODEL>
3

>  <REMARK>
 VINA RESULT:     -11.0      0.859      1.431
  Name = 
  6 active torsions:
  status: ('A' for Active; 'I' for Inactive)
    1  A    between atoms: C_3  and  C_13
    2  A    between atoms: C_3  and  C_17
    3  A    between atoms: C_5  and  C_18
    4  A    between atoms: C_12  and  C_28
    5  A    between atoms: C_17  and  C_29
    6  A    between atoms: C_18  and  C_29
                            x       y       z     vdW  Elec       q    Type
                         _______ _______ _______ _____ _____    ______ ____

>  <TORSDO>
F 6

$$$$
=
 OpenBabel10262423413D

 34 39  0  0  1  0  0  0  0  0999 V2000
  188.9330  177.2030  146.3060 C   0  0  0  0  0  0  0  0  0  0  0  0
  190.8090  176.9340  144.7720 C   0  0  0  0  0  0  0  0  0  0  0  0
  188.6190  177.6460  143.9220 C   0  0  0  0  0  0  0  0  0  0  0  0
  188.2990  178.1990  141.5870 C   0  0  0  0  0  0  0  0  0  0  0  0
  191.1080  176.5510  147.1460 C   0  0  0  0  0  3  0  0  0  0  0  0
  191.6240  176.5730  145.8480 C   0  0  0  0  0  3  0  0  0  0  0  0
  190.6510  177.7960  142.4280 C   0  0  0  0  0  2  0  0  0  0  0  0
  189.4560  177.2650  144.9940 C   0  0  0  0  0  0  0  0  0  0  0  0
  189.7650  176.8590  147.3750 C   0  0  0  0  0  3  0  0  0  0  0  0
  187.2390  177.8720  144.1510 C   0  0  0  0  0  0  0  0  0  0  0  0
  187.5840  177.4690  146.5310 C   0  0  0  0  0  3  0  0  0  0  0  0
  191.3380  176.8130  143.3740 C   0  0  0  0  0  2  0  0  0  0  0  0
  186.9730  178.3740  141.8260 N   0  0  0  0  0  0  0  0  0  0  0  0
  186.4080  178.2180  143.0550 C   0  0  0  0  0  0  0  0  0  0  0  0
  189.1560  177.8300  142.6340 C   0  0  0  0  0  0  0  0  0  0  0  0
  186.7460  177.7930  145.4640 C   0  0  0  0  0  3  0  0  0  0  0  0
  182.7220  178.6370  142.1870 C   0  0  0  0  0  0  0  0  0  0  0  0
  182.1870  178.9470  143.4390 C   0  0  0  0  0  3  0  0  0  0  0  0
  184.9410  178.4400  143.1710 C   0  0  0  0  0  0  0  0  0  0  0  0
  183.0220  179.0140  144.5560 C   0  0  0  0  0  3  0  0  0  0  0  0
  184.0920  178.3910  142.0540 C   0  0  0  0  0  3  0  0  0  0  0  0
  184.3910  178.7670  144.4210 C   0  0  0  0  0  3  0  0  0  0  0  0
  181.9150  178.5770  141.1010 F   0  0  0  0  0  0  0  0  0  0  0  0
  188.8200  178.4500  140.2110 C   0  0  0  0  0  2  0  0  0  0  0  0
  187.8370  177.9220  139.1790 C   0  0  0  0  0  2  0  0  0  0  0  0
  188.5800  177.2220  138.0570 C   0  0  0  0  0  2  0  0  0  0  0  0
  190.0580  177.1140  138.3920 C   0  0  0  0  0  2  0  0  0  0  0  0
  192.9950  176.6030  138.3800 C   0  0  0  0  0  1  0  0  0  0  0  0
  190.5380  175.6820  138.1980 C   0  0  2  0  0  3  0  0  0  0  0  0
  192.0190  175.5970  137.8680 C   0  0  0  0  0  0  0  0  0  0  0  0
  191.5810  173.4810  136.7230 C   0  0  0  0  0  3  0  0  0  0  0  0
  190.2620  173.6880  136.7030 C   0  0  0  0  0  3  0  0  0  0  0  0
  189.6940  175.0220  137.1020 C   0  0  0  0  0  2  0  0  0  0  0  0
  192.4940  174.5260  137.2230 C   0  0  0  0  0  3  0  0  0  0  0  0
  1 11  1  0  0  0  0
  1  9  2  0  0  0  0
  2  8  2  0  0  0  0
  2  6  1  0  0  0  0
  3 10  1  0  0  0  0
  3  8  1  0  0  0  0
  4 13  2  0  0  0  0
  4 15  1  0  0  0  0
  5  9  1  0  0  0  0
  6  5  2  0  0  0  0
  7 15  1  0  0  0  0
  7 12  1  0  0  0  0
  8  1  1  0  0  0  0
 10 16  1  0  0  0  0
 12  2  1  0  0  0  0
 13 14  1  0  0  0  0
 14 19  1  0  0  0  0
 14 10  2  0  0  0  0
 15  3  2  0  0  0  0
 16 11  2  0  0  0  0
 17 18  1  0  0  0  0
 18 20  2  0  0  0  0
 19 22  2  0  0  0  0
 21 17  2  0  0  0  0
 21 19  1  0  0  0  0
 22 20  1  0  0  0  0
 23 17  1  0  0  0  0
 24  4  1  0  0  0  0
 25 24  1  0  0  0  0
 26 27  1  0  0  0  0
 26 25  1  0  0  0  0
 29 27  1  6  0  0  0
 30 29  1  0  0  0  0
 30 28  1  0  0  0  0
 31 34  1  0  0  0  0
 32 31  2  0  0  0  0
 32 33  1  0  0  0  0
 33 29  1  0  0  0  0
 34 30  2  0  0  0  0
M  END
>  <MODEL>
4

>  <REMARK>
 VINA RESULT:     -11.0      2.189      3.461
  Name = 
  6 active torsions:
  status: ('A' for Active; 'I' for Inactive)
    1  A    between atoms: C_3  and  C_13
    2  A    between atoms: C_3  and  C_17
    3  A    between atoms: C_5  and  C_18
    4  A    between atoms: C_12  and  C_28
    5  A    between atoms: C_17  and  C_29
    6  A    between atoms: C_18  and  C_29
                            x       y       z     vdW  Elec       q    Type
                         _______ _______ _______ _____ _____    ______ ____

>  <TORSDO>
F 6

$$$$
=
 OpenBabel10262423413D

 34 39  0  0  1  0  0  0  0  0999 V2000
  188.9500  177.1740  146.3120 C   0  0  0  0  0  0  0  0  0  0  0  0
  190.8300  176.9000  144.7840 C   0  0  0  0  0  0  0  0  0  0  0  0
  188.6450  177.6170  143.9260 C   0  0  0  0  0  0  0  0  0  0  0  0
  188.3350  178.1710  141.5890 C   0  0  0  0  0  0  0  0  0  0  0  0
  191.1200  176.5180  147.1600 C   0  0  0  0  0  3  0  0  0  0  0  0
  191.6410  176.5370  145.8630 C   0  0  0  0  0  3  0  0  0  0  0  0
  190.6820  177.7620  142.4390 C   0  0  0  0  0  2  0  0  0  0  0  0
  189.4780  177.2350  145.0010 C   0  0  0  0  0  0  0  0  0  0  0  0
  189.7770  176.8290  147.3830 C   0  0  0  0  0  3  0  0  0  0  0  0
  187.2640  177.8460  144.1500 C   0  0  0  0  0  0  0  0  0  0  0  0
  187.6000  177.4440  146.5310 C   0  0  0  0  0  3  0  0  0  0  0  0
  191.3640  176.7770  143.3880 C   0  0  0  0  0  2  0  0  0  0  0  0
  187.0090  178.3480  141.8240 N   0  0  0  0  0  0  0  0  0  0  0  0
  186.4380  178.1940  143.0510 C   0  0  0  0  0  0  0  0  0  0  0  0
  189.1880  177.7990  142.6400 C   0  0  0  0  0  0  0  0  0  0  0  0
  186.7670  177.7690  145.4610 C   0  0  0  0  0  3  0  0  0  0  0  0
  182.7580  178.6280  142.1680 C   0  0  0  0  0  0  0  0  0  0  0  0
  182.2180  178.9330  143.4200 C   0  0  0  0  0  3  0  0  0  0  0  0
  184.9720  178.4190  143.1620 C   0  0  0  0  0  0  0  0  0  0  0  0
  183.0490  178.9920  144.5410 C   0  0  0  0  0  3  0  0  0  0  0  0
  184.1270  178.3790  142.0400 C   0  0  0  0  0  3  0  0  0  0  0  0
  184.4170  178.7410  144.4110 C   0  0  0  0  0  3  0  0  0  0  0  0
  181.9550  178.5760  141.0790 F   0  0  0  0  0  0  0  0  0  0  0  0
  188.8620  178.4190  140.2150 C   0  0  0  0  0  2  0  0  0  0  0  0
  187.8150  178.0390  139.1810 C   0  0  0  0  0  2  0  0  0  0  0  0
  188.4570  177.2740  138.0410 C   0  0  0  0  0  2  0  0  0  0  0  0
  189.3210  176.1470  138.5850 C   0  0  0  0  0  2  0  0  0  0  0  0
  189.9970  173.7440  136.9560 C   0  0  0  0  0  1  0  0  0  0  0  0
  190.6630  176.1200  137.8680 C   0  0  2  0  0  3  0  0  0  0  0  0
  191.0350  174.7330  137.3680 C   0  0  0  0  0  0  0  0  0  0  0  0
  193.3900  175.3800  137.5100 C   0  0  0  0  0  3  0  0  0  0  0  0
  193.1180  176.4580  138.2500 C   0  0  0  0  0  3  0  0  0  0  0  0
  191.7390  176.6690  138.8110 C   0  0  0  0  0  2  0  0  0  0  0  0
  192.3200  174.4280  137.1550 C   0  0  0  0  0  3  0  0  0  0  0  0
  1 11  1  0  0  0  0
  1  9  2  0  0  0  0
  2  8  2  0  0  0  0
  2  6  1  0  0  0  0
  3 10  1  0  0  0  0
  3  8  1  0  0  0  0
  4 13  2  0  0  0  0
  4 15  1  0  0  0  0
  5  9  1  0  0  0  0
  6  5  2  0  0  0  0
  7 15  1  0  0  0  0
  7 12  1  0  0  0  0
  8  1  1  0  0  0  0
 10 16  1  0  0  0  0
 12  2  1  0  0  0  0
 13 14  1  0  0  0  0
 14 19  1  0  0  0  0
 14 10  2  0  0  0  0
 15  3  2  0  0  0  0
 16 11  2  0  0  0  0
 17 18  1  0  0  0  0
 18 20  2  0  0  0  0
 19 22  2  0  0  0  0
 21 17  2  0  0  0  0
 21 19  1  0  0  0  0
 22 20  1  0  0  0  0
 23 17  1  0  0  0  0
 24  4  1  0  0  0  0
 25 24  1  0  0  0  0
 26 27  1  0  0  0  0
 26 25  1  0  0  0  0
 28 30  1  0  0  0  0
 29 27  1  1  0  0  0
 29 33  1  0  0  0  0
 30 29  1  0  0  0  0
 31 32  2  0  0  0  0
 32 33  1  0  0  0  0
 34 30  2  0  0  0  0
 34 31  1  0  0  0  0
M  END
>  <MODEL>
5

>  <REMARK>
 VINA RESULT:     -11.0      2.161      3.711
  Name = 
  6 active torsions:
  status: ('A' for Active; 'I' for Inactive)
    1  A    between atoms: C_3  and  C_13
    2  A    between atoms: C_3  and  C_17
    3  A    between atoms: C_5  and  C_18
    4  A    between atoms: C_12  and  C_28
    5  A    between atoms: C_17  and  C_29
    6  A    between atoms: C_18  and  C_29
                            x       y       z     vdW  Elec       q    Type
                         _______ _______ _______ _____ _____    ______ ____

>  <TORSDO>
F 6

$$$$
=
 OpenBabel10262423413D

 34 39  0  0  1  0  0  0  0  0999 V2000
  189.4060  177.2180  146.6360 C   0  0  0  0  0  0  0  0  0  0  0  0
  191.1510  176.4470  145.1180 C   0  0  0  0  0  0  0  0  0  0  0  0
  189.0070  177.2380  144.2230 C   0  0  0  0  0  0  0  0  0  0  0  0
  188.6180  177.3750  141.8370 C   0  0  0  0  0  0  0  0  0  0  0  0
  191.5410  176.4870  147.5100 C   0  0  0  0  0  3  0  0  0  0  0  0
  191.9820  176.2020  146.2150 C   0  0  0  0  0  3  0  0  0  0  0  0
  190.9550  176.8640  142.6590 C   0  0  0  0  0  2  0  0  0  0  0  0
  189.8570  176.9710  145.3190 C   0  0  0  0  0  0  0  0  0  0  0  0
  190.2540  176.9870  147.7210 C   0  0  0  0  0  3  0  0  0  0  0  0
  187.6740  177.6630  144.4520 C   0  0  0  0  0  0  0  0  0  0  0  0
  188.1080  177.6790  146.8510 C   0  0  0  0  0  3  0  0  0  0  0  0
  191.5850  176.0030  143.7530 C   0  0  0  0  0  2  0  0  0  0  0  0
  187.3340  177.7460  142.0850 N   0  0  0  0  0  0  0  0  0  0  0  0
  186.8250  177.8920  143.3390 C   0  0  0  0  0  0  0  0  0  0  0  0
  189.4880  177.1110  142.9060 C   0  0  0  0  0  0  0  0  0  0  0  0
  187.2510  177.8920  145.7720 C   0  0  0  0  0  3  0  0  0  0  0  0
  183.2140  178.7570  142.4890 C   0  0  0  0  0  0  0  0  0  0  0  0
  182.7370  179.1640  143.7370 C   0  0  0  0  0  3  0  0  0  0  0  0
  185.4000  178.3020  143.4610 C   0  0  0  0  0  0  0  0  0  0  0  0
  183.5860  179.1500  144.8450 C   0  0  0  0  0  3  0  0  0  0  0  0
  184.5400  178.3350  142.3520 C   0  0  0  0  0  3  0  0  0  0  0  0
  184.9100  178.7270  144.7060 C   0  0  0  0  0  3  0  0  0  0  0  0
  182.3940  178.7750  141.4110 F   0  0  0  0  0  0  0  0  0  0  0  0
  189.0840  177.2990  140.4220 C   0  0  0  0  0  2  0  0  0  0  0  0
  188.3870  178.3600  139.5870 C   0  0  0  0  0  2  0  0  0  0  0  0
  189.2760  178.7880  138.4350 C   0  0  0  0  0  2  0  0  0  0  0  0
  188.6410  178.4020  137.1100 C   0  0  0  0  0  2  0  0  0  0  0  0
  186.8640  176.0110  136.9800 C   0  0  0  0  0  1  0  0  0  0  0  0
  189.2320  177.0930  136.6050 C   0  0  2  0  0  3  0  0  0  0  0  0
  188.3490  175.8930  136.9070 C   0  0  0  0  0  0  0  0  0  0  0  0
  190.3500  174.4870  136.8710 C   0  0  0  0  0  3  0  0  0  0  0  0
  191.1710  175.5390  136.9400 C   0  0  0  0  0  3  0  0  0  0  0  0
  190.6270  176.9130  137.2140 C   0  0  0  0  0  2  0  0  0  0  0  0
  188.8900  174.6720  136.9710 C   0  0  0  0  0  3  0  0  0  0  0  0
  1 11  1  0  0  0  0
  1  9  2  0  0  0  0
  2  8  2  0  0  0  0
  2  6  1  0  0  0  0
  3 10  1  0  0  0  0
  3  8  1  0  0  0  0
  4 13  2  0  0  0  0
  4 15  1  0  0  0  0
  5  9  1  0  0  0  0
  6  5  2  0  0  0  0
  7 15  1  0  0  0  0
  7 12  1  0  0  0  0
  8  1  1  0  0  0  0
 10 16  1  0  0  0  0
 12  2  1  0  0  0  0
 13 14  1  0  0  0  0
 14 19  1  0  0  0  0
 14 10  2  0  0  0  0
 15  3  2  0  0  0  0
 16 11  2  0  0  0  0
 17 18  1  0  0  0  0
 18 20  2  0  0  0  0
 19 22  2  0  0  0  0
 21 17  2  0  0  0  0
 21 19  1  0  0  0  0
 22 20  1  0  0  0  0
 23 17  1  0  0  0  0
 24  4  1  0  0  0  0
 25 24  1  0  0  0  0
 26 25  1  0  0  0  0
 27 26  1  0  0  0  0
 29 30  1  0  0  0  0
 29 27  1  1  0  0  0
 29 33  1  0  0  0  0
 30 34  2  0  0  0  0
 30 28  1  0  0  0  0
 31 32  2  0  0  0  0
 31 34  1  0  0  0  0
 32 33  1  0  0  0  0
M  END
>  <MODEL>
6

>  <REMARK>
 VINA RESULT:     -11.0      1.466      2.539
  Name = 
  6 active torsions:
  status: ('A' for Active; 'I' for Inactive)
    1  A    between atoms: C_3  and  C_13
    2  A    between atoms: C_3  and  C_17
    3  A    between atoms: C_5  and  C_18
    4  A    between atoms: C_12  and  C_28
    5  A    between atoms: C_17  and  C_29
    6  A    between atoms: C_18  and  C_29
                            x       y       z     vdW  Elec       q    Type
                         _______ _______ _______ _____ _____    ______ ____

>  <TORSDO>
F 6

$$$$
=
 OpenBabel10262423413D

 34 39  0  0  1  0  0  0  0  0999 V2000
  190.8270  176.8300  145.0300 C   0  0  0  0  0  0  0  0  0  0  0  0
  189.0720  177.3040  146.6550 C   0  0  0  0  0  0  0  0  0  0  0  0
  188.5990  177.4710  144.2520 C   0  0  0  0  0  0  0  0  0  0  0  0
  186.3780  177.9960  143.4450 C   0  0  0  0  0  0  0  0  0  0  0  0
  191.2740  176.6160  147.4000 C   0  0  0  0  0  3  0  0  0  0  0  0
  189.9670  177.0180  147.6890 C   0  0  0  0  0  3  0  0  0  0  0  0
  186.6940  177.5230  145.9100 C   0  0  0  0  0  2  0  0  0  0  0  0
  189.4920  177.2000  145.3130 C   0  0  0  0  0  0  0  0  0  0  0  0
  191.7050  176.5280  146.0740 C   0  0  0  0  0  3  0  0  0  0  0  0
  189.0690  177.4650  142.9150 C   0  0  0  0  0  0  0  0  0  0  0  0
  191.2710  176.7820  143.7100 C   0  0  0  0  0  3  0  0  0  0  0  0
  187.7230  177.8700  146.9840 C   0  0  0  0  0  2  0  0  0  0  0  0
  186.8620  178.0190  142.1760 N   0  0  0  0  0  0  0  0  0  0  0  0
  188.1660  177.7760  141.8670 C   0  0  0  0  0  0  0  0  0  0  0  0
  187.2390  177.7200  144.5170 C   0  0  0  0  0  0  0  0  0  0  0  0
  190.4040  177.1030  142.6660 C   0  0  0  0  0  3  0  0  0  0  0  0
  188.0490  178.2820  138.0930 C   0  0  0  0  0  0  0  0  0  0  0  0
  189.3270  177.8520  137.7280 C   0  0  0  0  0  3  0  0  0  0  0  0
  188.5570  177.8360  140.4330 C   0  0  0  0  0  0  0  0  0  0  0  0
  190.2180  177.4060  138.7050 C   0  0  0  0  0  3  0  0  0  0  0  0
  187.6660  178.2680  139.4370 C   0  0  0  0  0  3  0  0  0  0  0  0
  189.8330  177.3940  140.0480 C   0  0  0  0  0  3  0  0  0  0  0  0
  187.1810  178.7100  137.1460 F   0  0  0  0  0  0  0  0  0  0  0  0
  184.9190  178.2250  143.6620 C   0  0  0  0  0  2  0  0  0  0  0  0
  184.3000  178.8470  142.4210 C   0  0  0  0  0  2  0  0  0  0  0  0
  182.8130  178.5560  142.3740 C   0  0  0  0  0  2  0  0  0  0  0  0
  182.3250  178.5400  140.9350 C   0  0  0  0  0  2  0  0  0  0  0  0
  184.1870  179.6920  138.9110 C   0  0  0  0  0  1  0  0  0  0  0  0
  183.1670  177.5810  140.1060 C   0  0  2  0  0  3  0  0  0  0  0  0
  183.8030  178.2500  138.8970 C   0  0  0  0  0  0  0  0  0  0  0  0
  183.8390  176.0720  137.7850 C   0  0  0  0  0  3  0  0  0  0  0  0
  182.9970  175.5320  138.6710 C   0  0  0  0  0  3  0  0  0  0  0  0
  182.2930  176.3970  139.6790 C   0  0  0  0  0  2  0  0  0  0  0  0
  184.1600  177.5100  137.8420 C   0  0  0  0  0  3  0  0  0  0  0  0
  1  8  1  0  0  0  0
  1  9  2  0  0  0  0
  2 12  1  0  0  0  0
  2  6  1  0  0  0  0
  3 15  1  0  0  0  0
  3  8  1  0  0  0  0
  4 24  1  0  0  0  0
  4 15  2  0  0  0  0
  5  6  2  0  0  0  0
  7 12  1  0  0  0  0
  8  2  2  0  0  0  0
  9  5  1  0  0  0  0
 10  3  2  0  0  0  0
 11  1  1  0  0  0  0
 13  4  1  0  0  0  0
 14 13  2  0  0  0  0
 14 10  1  0  0  0  0
 15  7  1  0  0  0  0
 16 10  1  0  0  0  0
 16 11  2  0  0  0  0
 17 21  1  0  0  0  0
 18 17  2  0  0  0  0
 18 20  1  0  0  0  0
 19 14  1  0  0  0  0
 20 22  2  0  0  0  0
 21 19  2  0  0  0  0
 22 19  1  0  0  0  0
 23 17  1  0  0  0  0
 25 24  1  0  0  0  0
 26 25  1  0  0  0  0
 27 26  1  0  0  0  0
 29 27  1  6  0  0  0
 30 28  1  0  0  0  0
 30 29  1  0  0  0  0
 31 34  1  0  0  0  0
 31 32  2  0  0  0  0
 32 33  1  0  0  0  0
 33 29  1  0  0  0  0
 34 30  2  0  0  0  0
M  END
>  <MODEL>
7

>  <REMARK>
 VINA RESULT:     -10.8      1.403      4.392
  Name = 
  6 active torsions:
  status: ('A' for Active; 'I' for Inactive)
    1  A    between atoms: C_3  and  C_13
    2  A    between atoms: C_3  and  C_17
    3  A    between atoms: C_5  and  C_18
    4  A    between atoms: C_12  and  C_28
    5  A    between atoms: C_17  and  C_29
    6  A    between atoms: C_18  and  C_29
                            x       y       z     vdW  Elec       q    Type
                         _______ _______ _______ _____ _____    ______ ____

>  <TORSDO>
F 6

$$$$
=
 OpenBabel10262423413D

 34 39  0  0  1  0  0  0  0  0999 V2000
  189.2120  177.4950  146.1930 C   0  0  0  0  0  0  0  0  0  0  0  0
  187.0240  178.2030  147.0040 C   0  0  0  0  0  0  0  0  0  0  0  0
  187.4290  177.9860  144.5930 C   0  0  0  0  0  0  0  0  0  0  0  0
  185.6570  178.3580  142.9860 C   0  0  0  0  0  0  0  0  0  0  0  0
  188.7920  177.6590  148.5710 C   0  0  0  0  0  3  0  0  0  0  0  0
  187.4870  178.0900  148.3180 C   0  0  0  0  0  3  0  0  0  0  0  0
  185.0690  178.2810  145.4450 C   0  0  0  0  0  2  0  0  0  0  0  0
  187.8810  177.8920  145.9280 C   0  0  0  0  0  0  0  0  0  0  0  0
  189.6540  177.3690  147.5120 C   0  0  0  0  0  3  0  0  0  0  0  0
  188.3350  177.7740  143.5250 C   0  0  0  0  0  0  0  0  0  0  0  0
  190.0860  177.2450  145.1380 C   0  0  0  0  0  3  0  0  0  0  0  0
  185.6730  178.8010  146.7480 C   0  0  0  0  0  2  0  0  0  0  0  0
  186.5540  178.1860  141.9810 N   0  0  0  0  0  0  0  0  0  0  0  0
  187.8710  177.9090  142.1920 C   0  0  0  0  0  0  0  0  0  0  0  0
  186.0750  178.2620  144.3210 C   0  0  0  0  0  0  0  0  0  0  0  0
  189.6540  177.3890  143.8190 C   0  0  0  0  0  3  0  0  0  0  0  0
  189.3420  178.2860  138.6980 C   0  0  0  0  0  0  0  0  0  0  0  0
  190.3680  177.3390  138.7380 C   0  0  0  0  0  3  0  0  0  0  0  0
  188.7410  177.7460  140.9960 C   0  0  0  0  0  0  0  0  0  0  0  0
  190.5800  176.5890  139.8970 C   0  0  0  0  0  3  0  0  0  0  0  0
  188.5300  178.4830  139.8190 C   0  0  0  0  0  3  0  0  0  0  0  0
  189.7670  176.7880  141.0160 C   0  0  0  0  0  3  0  0  0  0  0  0
  189.1320  179.0110  137.5740 F   0  0  0  0  0  0  0  0  0  0  0  0
  184.2270  178.6050  142.6380 C   0  0  0  0  0  2  0  0  0  0  0  0
  183.8960  177.9520  141.3060 C   0  0  0  0  0  2  0  0  0  0  0  0
  183.9440  178.9800  140.1920 C   0  0  0  0  0  2  0  0  0  0  0  0
  182.9960  178.5850  139.0710 C   0  0  0  0  0  2  0  0  0  0  0  0
  182.2890  175.7530  138.4670 C   0  0  0  0  0  1  0  0  0  0  0  0
  183.7590  177.8750  137.9630 C   0  0  2  0  0  3  0  0  0  0  0  0
  183.5590  176.3680  137.9820 C   0  0  0  0  0  0  0  0  0  0  0  0
  185.7350  176.1240  136.8940 C   0  0  0  0  0  3  0  0  0  0  0  0
  186.0840  177.3850  137.1610 C   0  0  0  0  0  3  0  0  0  0  0  0
  185.2460  178.2300  138.0790 C   0  0  0  0  0  2  0  0  0  0  0  0
  184.4750  175.5700  137.4240 C   0  0  0  0  0  3  0  0  0  0  0  0
  1  9  2  0  0  0  0
  2  6  1  0  0  0  0
  3  8  1  0  0  0  0
  4 15  2  0  0  0  0
  6  5  2  0  0  0  0
  7 12  1  0  0  0  0
  8  1  1  0  0  0  0
  8  2  2  0  0  0  0
  9  5  1  0  0  0  0
 10 16  1  0  0  0  0
 10  3  2  0  0  0  0
 11  1  1  0  0  0  0
 12  2  1  0  0  0  0
 13 14  2  0  0  0  0
 13  4  1  0  0  0  0
 14 10  1  0  0  0  0
 15  3  1  0  0  0  0
 15  7  1  0  0  0  0
 16 11  2  0  0  0  0
 17 18  2  0  0  0  0
 17 21  1  0  0  0  0
 18 20  1  0  0  0  0
 19 22  1  0  0  0  0
 19 14  1  0  0  0  0
 20 22  2  0  0  0  0
 21 19  2  0  0  0  0
 23 17  1  0  0  0  0
 24  4  1  0  0  0  0
 25 24  1  0  0  0  0
 26 25  1  0  0  0  0
 27 26  1  0  0  0  0
 29 30  1  0  0  0  0
 29 33  1  0  0  0  0
 29 27  1  1  0  0  0
 30 28  1  0  0  0  0
 31 32  2  0  0  0  0
 31 34  1  0  0  0  0
 32 33  1  0  0  0  0
 34 30  2  0  0  0  0
M  END
>  <MODEL>
8

>  <REMARK>
 VINA RESULT:     -10.7      1.788      4.583
  Name = 
  6 active torsions:
  status: ('A' for Active; 'I' for Inactive)
    1  A    between atoms: C_3  and  C_13
    2  A    between atoms: C_3  and  C_17
    3  A    between atoms: C_5  and  C_18
    4  A    between atoms: C_12  and  C_28
    5  A    between atoms: C_17  and  C_29
    6  A    between atoms: C_18  and  C_29
                            x       y       z     vdW  Elec       q    Type
                         _______ _______ _______ _____ _____    ______ ____

>  <TORSDO>
F 6

$$$$
=
 OpenBabel10262423413D

 34 39  0  0  1  0  0  0  0  0999 V2000
  187.0520  178.0790  146.9410 C   0  0  0  0  0  0  0  0  0  0  0  0
  189.2710  177.4180  146.1790 C   0  0  0  0  0  0  0  0  0  0  0  0
  187.4960  177.8710  144.5460 C   0  0  0  0  0  0  0  0  0  0  0  0
  187.9290  177.7830  142.1650 C   0  0  0  0  0  0  0  0  0  0  0  0
  188.8210  177.6810  148.5460 C   0  0  0  0  0  3  0  0  0  0  0  0
  189.6990  177.3580  147.5080 C   0  0  0  0  0  3  0  0  0  0  0  0
  189.8850  177.6250  143.7620 C   0  0  0  0  0  2  0  0  0  0  0  0
  187.9440  177.7920  145.8830 C   0  0  0  0  0  0  0  0  0  0  0  0
  187.4990  178.0350  148.2640 C   0  0  0  0  0  3  0  0  0  0  0  0
  186.1320  178.1450  144.2740 C   0  0  0  0  0  0  0  0  0  0  0  0
  185.7220  178.3910  146.6650 C   0  0  0  0  0  3  0  0  0  0  0  0
  190.1810  176.9310  145.0910 C   0  0  0  0  0  2  0  0  0  0  0  0
  186.6100  178.0100  141.9330 N   0  0  0  0  0  0  0  0  0  0  0  0
  185.6940  178.1840  142.9250 C   0  0  0  0  0  0  0  0  0  0  0  0
  188.4050  177.7070  143.4830 C   0  0  0  0  0  0  0  0  0  0  0  0
  185.2670  178.4170  145.3470 C   0  0  0  0  0  3  0  0  0  0  0  0
  181.9700  178.9740  143.0600 C   0  0  0  0  0  0  0  0  0  0  0  0
  181.6100  178.7860  141.7240 C   0  0  0  0  0  3  0  0  0  0  0  0
  184.2820  178.4240  142.5250 C   0  0  0  0  0  0  0  0  0  0  0  0
  182.5750  178.4100  140.7880 C   0  0  0  0  0  3  0  0  0  0  0  0
  183.2970  178.7880  143.4580 C   0  0  0  0  0  3  0  0  0  0  0  0
  183.9010  178.2250  141.1880 C   0  0  0  0  0  3  0  0  0  0  0  0
  181.0350  179.3340  143.9700 F   0  0  0  0  0  0  0  0  0  0  0  0
  188.8540  177.6600  141.0000 C   0  0  0  0  0  2  0  0  0  0  0  0
  188.2720  178.3840  139.7970 C   0  0  0  0  0  2  0  0  0  0  0  0
  189.0660  178.0500  138.5490 C   0  0  0  0  0  2  0  0  0  0  0  0
  189.3010  176.5510  138.4610 C   0  0  0  0  0  2  0  0  0  0  0  0
  189.5830  173.9810  136.9770 C   0  0  0  0  0  1  0  0  0  0  0  0
  190.6230  176.2650  137.7630 C   0  0  2  0  0  3  0  0  0  0  0  0
  190.7670  174.8110  137.3460 C   0  0  0  0  0  0  0  0  0  0  0  0
  193.1940  175.0740  137.4790 C   0  0  0  0  0  3  0  0  0  0  0  0
  193.0990  176.2220  138.1550 C   0  0  0  0  0  3  0  0  0  0  0  0
  191.7720  176.6860  138.6870 C   0  0  0  0  0  2  0  0  0  0  0  0
  191.9850  174.2900  137.1650 C   0  0  0  0  0  3  0  0  0  0  0  0
  1  9  2  0  0  0  0
  2  6  1  0  0  0  0
  3  8  1  0  0  0  0
  4 15  1  0  0  0  0
  6  5  2  0  0  0  0
  7 12  1  0  0  0  0
  8  2  2  0  0  0  0
  8  1  1  0  0  0  0
  9  5  1  0  0  0  0
 10  3  1  0  0  0  0
 10 16  1  0  0  0  0
 11  1  1  0  0  0  0
 12  2  1  0  0  0  0
 13  4  2  0  0  0  0
 13 14  1  0  0  0  0
 14 10  2  0  0  0  0
 15  7  1  0  0  0  0
 15  3  2  0  0  0  0
 16 11  2  0  0  0  0
 17 21  1  0  0  0  0
 17 23  1  0  0  0  0
 18 17  2  0  0  0  0
 19 14  1  0  0  0  0
 19 21  2  0  0  0  0
 20 22  2  0  0  0  0
 20 18  1  0  0  0  0
 22 19  1  0  0  0  0
 24  4  1  0  0  0  0
 25 24  1  0  0  0  0
 26 25  1  0  0  0  0
 27 26  1  0  0  0  0
 28 30  1  0  0  0  0
 29 27  1  1  0  0  0
 29 33  1  0  0  0  0
 30 29  1  0  0  0  0
 31 32  2  0  0  0  0
 32 33  1  0  0  0  0
 34 30  2  0  0  0  0
 34 31  1  0  0  0  0
M  END
>  <MODEL>
9

>  <REMARK>
 VINA RESULT:     -10.6      2.307      4.053
  Name = 
  6 active torsions:
  status: ('A' for Active; 'I' for Inactive)
    1  A    between atoms: C_3  and  C_13
    2  A    between atoms: C_3  and  C_17
    3  A    between atoms: C_5  and  C_18
    4  A    between atoms: C_12  and  C_28
    5  A    between atoms: C_17  and  C_29
    6  A    between atoms: C_18  and  C_29
                            x       y       z     vdW  Elec       q    Type
                         _______ _______ _______ _____ _____    ______ ____

>  <TORSDO>
F 6

$$$$
