=
 OpenBabel10272400423D

 25 27  0  0  1  0  0  0  0  0999 V2000
  187.5560  177.2490  145.1800 C   0  0  0  0  0  0  0  0  0  0  0  0
  185.6720  178.1600  146.4080 C   0  0  0  0  0  0  0  0  0  0  0  0
  185.0560  178.4970  147.5690 F   0  0  0  0  0  0  0  0  0  0  0  0
  186.8580  177.5080  143.9920 C   0  0  0  0  0  3  0  0  0  0  0  0
  185.0280  178.3830  145.2330 N   0  0  0  0  0  0  0  0  0  0  0  0
  185.5880  178.0720  144.0380 C   0  0  0  0  0  0  0  0  0  0  0  0
  186.9590  177.5910  146.4230 C   0  0  0  0  0  0  0  0  0  0  0  0
  189.0620  177.7340  147.8360 C   0  0  0  0  0  2  0  0  0  0  0  0
  187.5870  177.3840  147.7900 C   0  0  0  0  0  3  0  0  0  0  0  0
  188.0380  178.6730  148.4510 C   0  0  0  0  0  2  0  0  0  0  0  0
  184.8720  178.3280  142.8210 C   0  0  0  0  0  0  0  0  0  0  0  0
  184.2710  178.5440  141.7980 C   0  0  0  0  0  0  0  0  0  0  0  0
  183.5400  178.8060  140.5550 C   0  0  2  0  0  3  0  0  0  0  0  0
  182.9920  177.6280  140.0800 F   0  0  0  0  0  0  0  0  0  0  0  0
  184.4530  179.3980  139.5360 C   0  0  0  0  0  0  0  0  0  0  0  0
  184.1500  180.4750  138.9550 O   0  0  0  0  0  0  0  0  0  0  0  0
  185.6300  178.7430  139.2020 O   0  0  0  0  0  1  0  0  0  0  0  0
  188.8470  176.7010  145.1270 O   0  0  0  0  0  0  0  0  0  0  0  0
  189.8800  177.1430  144.2890 C   0  0  0  0  0  0  0  0  0  0  0  0
  191.9790  178.0880  142.6860 C   0  0  0  0  0  3  0  0  0  0  0  0
  190.3390  176.3790  143.1960 C   0  0  0  0  0  0  0  0  0  0  0  0
  191.3830  176.8580  142.3980 C   0  0  0  0  0  3  0  0  0  0  0  0
  191.5410  178.8390  143.7800 C   0  0  0  0  0  3  0  0  0  0  0  0
  189.8210  175.1550  142.9350 F   0  0  0  0  0  0  0  0  0  0  0  0
  190.5000  178.3640  144.5800 C   0  0  0  0  0  3  0  0  0  0  0  0
  1  7  1  0  0  0  0
  2  7  2  0  0  0  0
  2  3  1  0  0  0  0
  4  6  1  0  0  0  0
  4  1  2  0  0  0  0
  5  2  1  0  0  0  0
  6  5  2  0  0  0  0
  7  9  1  0  0  0  0
  8 10  1  0  0  0  0
  9  8  1  0  0  0  0
  9 10  1  0  0  0  0
 11  6  1  0  0  0  0
 12 11  3  0  0  0  0
 13 14  1  6  0  0  0
 13 12  1  0  0  0  0
 15 13  1  0  0  0  0
 16 15  2  0  0  0  0
 17 15  1  0  0  0  0
 18  1  1  0  0  0  0
 19 25  1  0  0  0  0
 19 18  1  0  0  0  0
 20 23  1  0  0  0  0
 21 19  2  0  0  0  0
 22 20  2  0  0  0  0
 22 21  1  0  0  0  0
 23 25  2  0  0  0  0
 24 21  1  0  0  0  0
M  END
>  <MODEL>
1

>  <REMARK>
 VINA RESULT:      -8.6      0.000      0.000
  Name = 
  6 active torsions:
  status: ('A' for Active; 'I' for Inactive)
    1  A    between atoms: O_1  and  C_3
    2  A    between atoms: O_1  and  C_5
    3  A    between atoms: C_2  and  C_21
    4  A    between atoms: C_6  and  C_23
    5  A    between atoms: C_9  and  C_24
    6  A    between atoms: C_15  and  C_21
                            x       y       z     vdW  Elec       q    Type
                         _______ _______ _______ _____ _____    ______ ____

>  <TORSDO>
F 6

$$$$
=
 OpenBabel10272400423D

 25 27  0  0  1  0  0  0  0  0999 V2000
  187.5160  177.2370  145.0730 C   0  0  0  0  0  0  0  0  0  0  0  0
  185.6720  178.1830  146.3350 C   0  0  0  0  0  0  0  0  0  0  0  0
  185.0830  178.5300  147.5070 F   0  0  0  0  0  0  0  0  0  0  0  0
  186.8020  177.5110  143.8970 C   0  0  0  0  0  3  0  0  0  0  0  0
  185.0120  178.4200  145.1710 N   0  0  0  0  0  0  0  0  0  0  0  0
  185.5450  178.1000  143.9670 C   0  0  0  0  0  0  0  0  0  0  0  0
  186.9480  177.5890  146.3270 C   0  0  0  0  0  0  0  0  0  0  0  0
  189.0930  177.6070  147.6820 C   0  0  0  0  0  2  0  0  0  0  0  0
  187.5960  177.3680  147.6820 C   0  0  0  0  0  3  0  0  0  0  0  0
  188.1590  178.6350  148.2980 C   0  0  0  0  0  2  0  0  0  0  0  0
  184.8130  178.3710  142.7630 C   0  0  0  0  0  0  0  0  0  0  0  0
  184.1970  178.5990  141.7510 C   0  0  0  0  0  0  0  0  0  0  0  0
  183.4500  178.8760  140.5210 C   0  0  2  0  0  3  0  0  0  0  0  0
  182.8640  177.7120  140.0590 F   0  0  0  0  0  0  0  0  0  0  0  0
  184.3580  179.4450  139.4830 C   0  0  0  0  0  0  0  0  0  0  0  0
  184.1010  180.5570  138.9500 O   0  0  0  0  0  0  0  0  0  0  0  0
  185.4760  178.7290  139.0800 O   0  0  0  0  0  1  0  0  0  0  0  0
  188.7950  176.6640  144.9960 O   0  0  0  0  0  0  0  0  0  0  0  0
  189.7500  176.9430  144.0090 C   0  0  0  0  0  0  0  0  0  0  0  0
  191.6150  177.4390  141.9720 C   0  0  0  0  0  3  0  0  0  0  0  0
  190.5100  178.1310  144.0140 C   0  0  0  0  0  0  0  0  0  0  0  0
  191.4400  178.3700  142.9990 C   0  0  0  0  0  3  0  0  0  0  0  0
  190.8500  176.2700  141.9520 C   0  0  0  0  0  3  0  0  0  0  0  0
  190.3140  179.0790  144.9630 F   0  0  0  0  0  0  0  0  0  0  0  0
  189.9180  176.0280  142.9640 C   0  0  0  0  0  3  0  0  0  0  0  0
  1  7  1  0  0  0  0
  2  3  1  0  0  0  0
  4  6  1  0  0  0  0
  4  1  2  0  0  0  0
  5  2  1  0  0  0  0
  6  5  2  0  0  0  0
  7  2  2  0  0  0  0
  7  9  1  0  0  0  0
  8 10  1  0  0  0  0
  9  8  1  0  0  0  0
  9 10  1  0  0  0  0
 11  6  1  0  0  0  0
 12 11  3  0  0  0  0
 13 14  1  6  0  0  0
 13 12  1  0  0  0  0
 15 13  1  0  0  0  0
 16 15  2  0  0  0  0
 17 15  1  0  0  0  0
 18  1  1  0  0  0  0
 19 21  1  0  0  0  0
 19 18  1  0  0  0  0
 20 22  1  0  0  0  0
 21 24  1  0  0  0  0
 22 21  2  0  0  0  0
 23 20  2  0  0  0  0
 23 25  1  0  0  0  0
 25 19  2  0  0  0  0
M  END
>  <MODEL>
2

>  <REMARK>
 VINA RESULT:      -8.4      0.955      1.364
  Name = 
  6 active torsions:
  status: ('A' for Active; 'I' for Inactive)
    1  A    between atoms: O_1  and  C_3
    2  A    between atoms: O_1  and  C_5
    3  A    between atoms: C_2  and  C_21
    4  A    between atoms: C_6  and  C_23
    5  A    between atoms: C_9  and  C_24
    6  A    between atoms: C_15  and  C_21
                            x       y       z     vdW  Elec       q    Type
                         _______ _______ _______ _____ _____    ______ ____

>  <TORSDO>
F 6

$$$$
=
 OpenBabel10272400423D

 25 27  0  0  1  0  0  0  0  0999 V2000
  188.5670  177.2980  143.9210 C   0  0  0  0  0  0  0  0  0  0  0  0
  190.8750  178.0450  143.8470 C   0  0  0  0  0  0  0  0  0  0  0  0
  192.0080  178.4760  144.4550 F   0  0  0  0  0  0  0  0  0  0  0  0
  188.6050  177.1670  142.5250 C   0  0  0  0  0  3  0  0  0  0  0  0
  190.8630  177.9130  142.4950 N   0  0  0  0  0  0  0  0  0  0  0  0
  189.7630  177.4860  141.8270 C   0  0  0  0  0  0  0  0  0  0  0  0
  189.7310  177.7380  144.6080 C   0  0  0  0  0  0  0  0  0  0  0  0
  189.2250  176.7940  146.9090 C   0  0  0  0  0  2  0  0  0  0  0  0
  189.8530  177.9200  146.1110 C   0  0  0  0  0  3  0  0  0  0  0  0
  190.7360  176.8840  146.7770 C   0  0  0  0  0  2  0  0  0  0  0  0
  189.7970  177.3580  140.3980 C   0  0  0  0  0  0  0  0  0  0  0  0
  189.8250  177.2520  139.1970 C   0  0  0  0  0  0  0  0  0  0  0  0
  189.8590  177.1220  137.7370 C   0  0  2  0  0  3  0  0  0  0  0  0
  191.1710  177.1440  137.2980 F   0  0  0  0  0  0  0  0  0  0  0  0
  189.0840  178.2270  137.1040 C   0  0  0  0  0  0  0  0  0  0  0  0
  188.4770  178.0400  136.0160 O   0  0  0  0  0  0  0  0  0  0  0  0
  189.0560  179.4790  137.7010 O   0  0  0  0  0  1  0  0  0  0  0  0
  187.4020  176.9530  144.6250 O   0  0  0  0  0  0  0  0  0  0  0  0
  186.2160  177.6990  144.6430 C   0  0  0  0  0  0  0  0  0  0  0  0
  183.8190  179.1560  144.5920 C   0  0  0  0  0  3  0  0  0  0  0  0
  185.6540  178.1850  145.8420 C   0  0  0  0  0  0  0  0  0  0  0  0
  184.4610  178.9130  145.8090 C   0  0  0  0  0  3  0  0  0  0  0  0
  184.3620  178.6600  143.4040 C   0  0  0  0  0  3  0  0  0  0  0  0
  186.2220  177.9080  147.0410 F   0  0  0  0  0  0  0  0  0  0  0  0
  185.5530  177.9300  143.4330 C   0  0  0  0  0  3  0  0  0  0  0  0
  1  7  1  0  0  0  0
  1 18  1  0  0  0  0
  2  3  1  0  0  0  0
  2  7  2  0  0  0  0
  4  1  2  0  0  0  0
  5  2  1  0  0  0  0
  6  5  2  0  0  0  0
  6  4  1  0  0  0  0
  7  9  1  0  0  0  0
  9 10  1  0  0  0  0
  9  8  1  0  0  0  0
 10  8  1  0  0  0  0
 11  6  1  0  0  0  0
 12 11  3  0  0  0  0
 13 14  1  6  0  0  0
 13 12  1  0  0  0  0
 15 17  1  0  0  0  0
 15 13  1  0  0  0  0
 16 15  2  0  0  0  0
 18 19  1  0  0  0  0
 19 21  1  0  0  0  0
 20 22  1  0  0  0  0
 21 24  1  0  0  0  0
 22 21  2  0  0  0  0
 23 25  1  0  0  0  0
 23 20  2  0  0  0  0
 25 19  2  0  0  0  0
M  END
>  <MODEL>
3

>  <REMARK>
 VINA RESULT:      -8.1      3.078      5.548
  Name = 
  6 active torsions:
  status: ('A' for Active; 'I' for Inactive)
    1  A    between atoms: O_1  and  C_3
    2  A    between atoms: O_1  and  C_5
    3  A    between atoms: C_2  and  C_21
    4  A    between atoms: C_6  and  C_23
    5  A    between atoms: C_9  and  C_24
    6  A    between atoms: C_15  and  C_21
                            x       y       z     vdW  Elec       q    Type
                         _______ _______ _______ _____ _____    ______ ____

>  <TORSDO>
F 6

$$$$
=
 OpenBabel10272400423D

 25 27  0  0  1  0  0  0  0  0999 V2000
  188.7200  177.0220  144.0010 C   0  0  0  0  0  0  0  0  0  0  0  0
  190.9750  177.9020  144.1780 C   0  0  0  0  0  0  0  0  0  0  0  0
  191.9960  178.4270  144.9010 F   0  0  0  0  0  0  0  0  0  0  0  0
  188.9440  176.8300  142.6300 C   0  0  0  0  0  3  0  0  0  0  0  0
  191.1440  177.7080  142.8450 N   0  0  0  0  0  0  0  0  0  0  0  0
  190.1650  177.1850  142.0660 C   0  0  0  0  0  0  0  0  0  0  0  0
  189.7610  177.5610  144.8040 C   0  0  0  0  0  0  0  0  0  0  0  0
  189.2090  176.6170  147.0940 C   0  0  0  0  0  2  0  0  0  0  0  0
  189.6780  177.8190  146.2980 C   0  0  0  0  0  3  0  0  0  0  0  0
  190.6760  177.0140  147.1090 C   0  0  0  0  0  2  0  0  0  0  0  0
  190.3880  176.9950  140.6620 C   0  0  0  0  0  0  0  0  0  0  0  0
  190.5770  176.8350  139.4810 C   0  0  0  0  0  0  0  0  0  0  0  0
  190.8050  176.6410  138.0460 C   0  0  2  0  0  3  0  0  0  0  0  0
  190.1500  177.6280  137.3330 F   0  0  0  0  0  0  0  0  0  0  0  0
  190.3240  175.2940  137.6260 C   0  0  0  0  0  0  0  0  0  0  0  0
  189.1590  175.1450  137.1690 O   0  0  0  0  0  0  0  0  0  0  0  0
  191.1540  174.1910  137.7690 O   0  0  0  0  0  1  0  0  0  0  0  0
  187.4950  176.6400  144.5690 O   0  0  0  0  0  0  0  0  0  0  0  0
  186.3830  177.4770  144.7340 C   0  0  0  0  0  0  0  0  0  0  0  0
  184.1920  179.1770  145.1560 C   0  0  0  0  0  3  0  0  0  0  0  0
  185.6490  177.9750  143.6380 C   0  0  0  0  0  0  0  0  0  0  0  0
  184.5560  178.8180  143.8550 C   0  0  0  0  0  3  0  0  0  0  0  0
  184.9280  178.7020  146.2440 C   0  0  0  0  0  3  0  0  0  0  0  0
  186.0200  177.6940  142.3650 F   0  0  0  0  0  0  0  0  0  0  0  0
  186.0230  177.8600  146.0310 C   0  0  0  0  0  3  0  0  0  0  0  0
  1 18  1  0  0  0  0
  1  7  1  0  0  0  0
  2  7  2  0  0  0  0
  2  3  1  0  0  0  0
  4  1  2  0  0  0  0
  5  2  1  0  0  0  0
  6  4  1  0  0  0  0
  6  5  2  0  0  0  0
  7  9  1  0  0  0  0
  8 10  1  0  0  0  0
  9  8  1  0  0  0  0
  9 10  1  0  0  0  0
 11  6  1  0  0  0  0
 12 11  3  0  0  0  0
 13 14  1  6  0  0  0
 13 12  1  0  0  0  0
 15 17  1  0  0  0  0
 15 13  1  0  0  0  0
 16 15  2  0  0  0  0
 18 19  1  0  0  0  0
 19 25  1  0  0  0  0
 20 23  1  0  0  0  0
 21 22  1  0  0  0  0
 21 19  2  0  0  0  0
 22 20  2  0  0  0  0
 24 21  1  0  0  0  0
 25 23  2  0  0  0  0
M  END
>  <MODEL>
4

>  <REMARK>
 VINA RESULT:      -8.1      3.356      5.739
  Name = 
  6 active torsions:
  status: ('A' for Active; 'I' for Inactive)
    1  A    between atoms: O_1  and  C_3
    2  A    between atoms: O_1  and  C_5
    3  A    between atoms: C_2  and  C_21
    4  A    between atoms: C_6  and  C_23
    5  A    between atoms: C_9  and  C_24
    6  A    between atoms: C_15  and  C_21
                            x       y       z     vdW  Elec       q    Type
                         _______ _______ _______ _____ _____    ______ ____

>  <TORSDO>
F 6

$$$$
=
 OpenBabel10272400423D

 25 27  0  0  1  0  0  0  0  0999 V2000
  188.6650  177.0840  143.9860 C   0  0  0  0  0  0  0  0  0  0  0  0
  190.9640  177.7740  144.3430 C   0  0  0  0  0  0  0  0  0  0  0  0
  191.9640  178.2230  145.1440 F   0  0  0  0  0  0  0  0  0  0  0  0
  188.9840  176.8530  142.6400 C   0  0  0  0  0  3  0  0  0  0  0  0
  191.2250  177.5480  143.0300 N   0  0  0  0  0  0  0  0  0  0  0  0
  190.2720  177.0970  142.1770 C   0  0  0  0  0  0  0  0  0  0  0  0
  189.6790  177.5460  144.8690 C   0  0  0  0  0  0  0  0  0  0  0  0
  188.9760  176.6430  147.1350 C   0  0  0  0  0  2  0  0  0  0  0  0
  189.4960  177.8320  146.3490 C   0  0  0  0  0  3  0  0  0  0  0  0
  190.4380  177.0440  147.2390 C   0  0  0  0  0  2  0  0  0  0  0  0
  190.5920  176.8680  140.7970 C   0  0  0  0  0  0  0  0  0  0  0  0
  190.8620  176.6770  139.6370 C   0  0  0  0  0  0  0  0  0  0  0  0
  191.1900  176.4440  138.2280 C   0  0  2  0  0  3  0  0  0  0  0  0
  190.6820  175.2210  137.8280 F   0  0  0  0  0  0  0  0  0  0  0  0
  192.6680  176.4790  138.0310 C   0  0  0  0  0  0  0  0  0  0  0  0
  193.4240  176.9060  138.9430 O   0  0  0  0  0  1  0  0  0  0  0  0
  193.2110  176.0670  136.8220 O   0  0  0  0  0  0  0  0  0  0  0  0
  187.3690  176.8140  144.4540 O   0  0  0  0  0  0  0  0  0  0  0  0
  186.2800  177.6910  144.3720 C   0  0  0  0  0  0  0  0  0  0  0  0
  184.0790  179.4120  144.1170 C   0  0  0  0  0  3  0  0  0  0  0  0
  185.6760  178.2480  145.5190 C   0  0  0  0  0  0  0  0  0  0  0  0
  184.5820  179.1070  145.3850 C   0  0  0  0  0  3  0  0  0  0  0  0
  184.6610  178.8470  142.9800 C   0  0  0  0  0  3  0  0  0  0  0  0
  186.1050  177.9180  146.7610 F   0  0  0  0  0  0  0  0  0  0  0  0
  185.7540  177.9860  143.1090 C   0  0  0  0  0  3  0  0  0  0  0  0
  1 18  1  0  0  0  0
  1  7  1  0  0  0  0
  2  7  2  0  0  0  0
  2  3  1  0  0  0  0
  4  1  2  0  0  0  0
  5  2  1  0  0  0  0
  6  4  1  0  0  0  0
  6  5  2  0  0  0  0
  7  9  1  0  0  0  0
  8 10  1  0  0  0  0
  9  8  1  0  0  0  0
  9 10  1  0  0  0  0
 11  6  1  0  0  0  0
 12 11  3  0  0  0  0
 13 14  1  1  0  0  0
 13 12  1  0  0  0  0
 15 13  1  0  0  0  0
 15 16  1  0  0  0  0
 17 15  2  0  0  0  0
 19 18  1  0  0  0  0
 19 21  1  0  0  0  0
 20 22  1  0  0  0  0
 21 24  1  0  0  0  0
 22 21  2  0  0  0  0
 23 25  1  0  0  0  0
 23 20  2  0  0  0  0
 25 19  2  0  0  0  0
M  END
>  <MODEL>
5

>  <REMARK>
 VINA RESULT:      -8.1      3.441      6.172
  Name = 
  6 active torsions:
  status: ('A' for Active; 'I' for Inactive)
    1  A    between atoms: O_1  and  C_3
    2  A    between atoms: O_1  and  C_5
    3  A    between atoms: C_2  and  C_21
    4  A    between atoms: C_6  and  C_23
    5  A    between atoms: C_9  and  C_24
    6  A    between atoms: C_15  and  C_21
                            x       y       z     vdW  Elec       q    Type
                         _______ _______ _______ _____ _____    ______ ____

>  <TORSDO>
F 6

$$$$
=
 OpenBabel10272400423D

 25 27  0  0  1  0  0  0  0  0999 V2000
  187.0850  177.4410  145.0970 C   0  0  0  0  0  0  0  0  0  0  0  0
  186.3100  179.0330  146.7570 C   0  0  0  0  0  0  0  0  0  0  0  0
  186.4730  179.7270  147.9110 F   0  0  0  0  0  0  0  0  0  0  0  0
  185.8960  177.6610  144.3870 C   0  0  0  0  0  3  0  0  0  0  0  0
  185.1680  179.2070  146.0410 N   0  0  0  0  0  0  0  0  0  0  0  0
  184.9440  178.5460  144.8780 C   0  0  0  0  0  0  0  0  0  0  0  0
  187.3100  178.1500  146.3080 C   0  0  0  0  0  0  0  0  0  0  0  0
  188.2330  177.6650  148.6230 C   0  0  0  0  0  2  0  0  0  0  0  0
  188.5450  178.0310  147.1840 C   0  0  0  0  0  3  0  0  0  0  0  0
  188.8030  176.6200  147.6780 C   0  0  0  0  0  2  0  0  0  0  0  0
  183.7240  178.7630  144.1540 C   0  0  0  0  0  0  0  0  0  0  0  0
  182.7000  178.9440  143.5440 C   0  0  0  0  0  0  0  0  0  0  0  0
  181.4540  179.1660  142.8040 C   0  0  2  0  0  3  0  0  0  0  0  0
  180.4090  178.5350  143.4530 F   0  0  0  0  0  0  0  0  0  0  0  0
  181.5850  178.6480  141.4110 C   0  0  0  0  0  0  0  0  0  0  0  0
  180.6180  178.0620  140.8540 O   0  0  0  0  0  1  0  0  0  0  0  0
  182.7890  178.7870  140.7350 O   0  0  0  0  0  0  0  0  0  0  0  0
  188.0540  176.5650  144.5840 O   0  0  0  0  0  0  0  0  0  0  0  0
  189.1660  176.9440  143.8210 C   0  0  0  0  0  0  0  0  0  0  0  0
  191.4510  177.6560  142.3560 C   0  0  0  0  0  3  0  0  0  0  0  0
  189.0550  177.3150  142.4650 C   0  0  0  0  0  0  0  0  0  0  0  0
  190.1970  177.6720  141.7420 C   0  0  0  0  0  3  0  0  0  0  0  0
  191.5690  177.2710  143.6940 C   0  0  0  0  0  3  0  0  0  0  0  0
  187.8590  177.2770  141.8280 F   0  0  0  0  0  0  0  0  0  0  0  0
  190.4310  176.9110  144.4200 C   0  0  0  0  0  3  0  0  0  0  0  0
  1  7  1  0  0  0  0
  2  3  1  0  0  0  0
  4  6  1  0  0  0  0
  4  1  2  0  0  0  0
  5  2  1  0  0  0  0
  6  5  2  0  0  0  0
  7  2  2  0  0  0  0
  7  9  1  0  0  0  0
  9 10  1  0  0  0  0
  9  8  1  0  0  0  0
 10  8  1  0  0  0  0
 11  6  1  0  0  0  0
 12 11  3  0  0  0  0
 13 14  1  1  0  0  0
 13 12  1  0  0  0  0
 15 13  1  0  0  0  0
 16 15  1  0  0  0  0
 17 15  2  0  0  0  0
 18  1  1  0  0  0  0
 19 25  1  0  0  0  0
 19 18  1  0  0  0  0
 20 23  1  0  0  0  0
 21 19  2  0  0  0  0
 22 20  2  0  0  0  0
 22 21  1  0  0  0  0
 23 25  2  0  0  0  0
 24 21  1  0  0  0  0
M  END
>  <MODEL>
6

>  <REMARK>
 VINA RESULT:      -7.9      2.030      2.208
  Name = 
  6 active torsions:
  status: ('A' for Active; 'I' for Inactive)
    1  A    between atoms: O_1  and  C_3
    2  A    between atoms: O_1  and  C_5
    3  A    between atoms: C_2  and  C_21
    4  A    between atoms: C_6  and  C_23
    5  A    between atoms: C_9  and  C_24
    6  A    between atoms: C_15  and  C_21
                            x       y       z     vdW  Elec       q    Type
                         _______ _______ _______ _____ _____    ______ ____

>  <TORSDO>
F 6

$$$$
=
 OpenBabel10272400423D

 25 27  0  0  1  0  0  0  0  0999 V2000
  186.6530  177.7510  144.4610 C   0  0  0  0  0  0  0  0  0  0  0  0
  184.4810  178.7830  144.7880 C   0  0  0  0  0  0  0  0  0  0  0  0
  183.4820  179.2310  145.5900 F   0  0  0  0  0  0  0  0  0  0  0  0
  186.4710  177.8980  143.0780 C   0  0  0  0  0  3  0  0  0  0  0  0
  184.3430  178.8950  143.4420 N   0  0  0  0  0  0  0  0  0  0  0  0
  185.3040  178.4700  142.5850 C   0  0  0  0  0  0  0  0  0  0  0  0
  185.6400  178.2130  145.3450 C   0  0  0  0  0  0  0  0  0  0  0  0
  187.0970  178.2150  147.4240 C   0  0  0  0  0  2  0  0  0  0  0  0
  185.6910  178.1350  146.8610 C   0  0  0  0  0  3  0  0  0  0  0  0
  186.1700  179.4150  147.5180 C   0  0  0  0  0  2  0  0  0  0  0  0
  185.1180  178.6110  141.1690 C   0  0  0  0  0  0  0  0  0  0  0  0
  184.9600  178.7300  139.9790 C   0  0  0  0  0  0  0  0  0  0  0  0
  184.7700  178.8750  138.5330 C   0  0  2  0  0  3  0  0  0  0  0  0
  183.5380  178.3610  138.1720 F   0  0  0  0  0  0  0  0  0  0  0  0
  185.8590  178.1710  137.7980 C   0  0  0  0  0  0  0  0  0  0  0  0
  185.6330  177.0760  137.2160 O   0  0  0  0  0  0  0  0  0  0  0  0
  187.1380  178.7090  137.7800 O   0  0  0  0  0  1  0  0  0  0  0  0
  187.8440  177.1960  144.9550 O   0  0  0  0  0  0  0  0  0  0  0  0
  189.1040  177.3190  144.3550 C   0  0  0  0  0  0  0  0  0  0  0  0
  191.6570  177.6230  143.2330 C   0  0  0  0  0  3  0  0  0  0  0  0
  189.5690  176.4040  143.3880 C   0  0  0  0  0  0  0  0  0  0  0  0
  190.8400  176.5630  142.8300 C   0  0  0  0  0  3  0  0  0  0  0  0
  191.2090  178.5200  144.2050 C   0  0  0  0  0  3  0  0  0  0  0  0
  188.8220  175.3320  143.0280 F   0  0  0  0  0  0  0  0  0  0  0  0
  189.9400  178.3640  144.7660 C   0  0  0  0  0  3  0  0  0  0  0  0
  1 18  1  0  0  0  0
  1  7  1  0  0  0  0
  2  7  2  0  0  0  0
  2  3  1  0  0  0  0
  4  1  2  0  0  0  0
  5  2  1  0  0  0  0
  6  4  1  0  0  0  0
  6  5  2  0  0  0  0
  7  9  1  0  0  0  0
  8 10  1  0  0  0  0
  9  8  1  0  0  0  0
  9 10  1  0  0  0  0
 11  6  1  0  0  0  0
 12 11  3  0  0  0  0
 13 14  1  6  0  0  0
 13 12  1  0  0  0  0
 15 13  1  0  0  0  0
 16 15  2  0  0  0  0
 17 15  1  0  0  0  0
 19 25  1  0  0  0  0
 19 18  1  0  0  0  0
 20 23  1  0  0  0  0
 21 19  2  0  0  0  0
 22 20  2  0  0  0  0
 22 21  1  0  0  0  0
 23 25  2  0  0  0  0
 24 21  1  0  0  0  0
M  END
>  <MODEL>
7

>  <REMARK>
 VINA RESULT:      -7.9      1.489      1.873
  Name = 
  6 active torsions:
  status: ('A' for Active; 'I' for Inactive)
    1  A    between atoms: O_1  and  C_3
    2  A    between atoms: O_1  and  C_5
    3  A    between atoms: C_2  and  C_21
    4  A    between atoms: C_6  and  C_23
    5  A    between atoms: C_9  and  C_24
    6  A    between atoms: C_15  and  C_21
                            x       y       z     vdW  Elec       q    Type
                         _______ _______ _______ _____ _____    ______ ____

>  <TORSDO>
F 6

$$$$
=
 OpenBabel10272400423D

 25 27  0  0  1  0  0  0  0  0999 V2000
  187.2970  177.5290  144.9220 C   0  0  0  0  0  0  0  0  0  0  0  0
  186.1130  179.0570  146.3890 C   0  0  0  0  0  0  0  0  0  0  0  0
  186.0130  179.7660  147.5420 F   0  0  0  0  0  0  0  0  0  0  0  0
  186.2390  177.6480  144.0090 C   0  0  0  0  0  3  0  0  0  0  0  0
  185.1070  179.1340  145.4800 N   0  0  0  0  0  0  0  0  0  0  0  0
  185.1470  178.4540  144.3080 C   0  0  0  0  0  0  0  0  0  0  0  0
  187.2440  178.2580  146.1410 C   0  0  0  0  0  0  0  0  0  0  0  0
  187.8600  177.5680  148.5050 C   0  0  0  0  0  2  0  0  0  0  0  0
  188.3090  178.2430  147.2240 C   0  0  0  0  0  3  0  0  0  0  0  0
  188.8110  176.8520  147.5610 C   0  0  0  0  0  2  0  0  0  0  0  0
  184.0620  178.5670  143.3750 C   0  0  0  0  0  0  0  0  0  0  0  0
  183.1510  178.6620  142.5910 C   0  0  0  0  0  0  0  0  0  0  0  0
  182.0430  178.7770  141.6380 C   0  0  2  0  0  3  0  0  0  0  0  0
  182.4600  179.4820  140.5230 F   0  0  0  0  0  0  0  0  0  0  0  0
  180.8830  179.4610  142.2780 C   0  0  0  0  0  0  0  0  0  0  0  0
  180.5050  179.1310  143.4340 O   0  0  0  0  0  1  0  0  0  0  0  0
  180.1950  180.4460  141.5830 O   0  0  0  0  0  0  0  0  0  0  0  0
  188.4080  176.7330  144.6050 O   0  0  0  0  0  0  0  0  0  0  0  0
  189.3770  177.0430  143.6410 C   0  0  0  0  0  0  0  0  0  0  0  0
  191.2460  177.6670  141.6430 C   0  0  0  0  0  3  0  0  0  0  0  0
  190.6250  177.6030  143.9850 C   0  0  0  0  0  0  0  0  0  0  0  0
  191.5530  177.9080  142.9850 C   0  0  0  0  0  3  0  0  0  0  0  0
  190.0030  177.1300  141.2970 C   0  0  0  0  0  3  0  0  0  0  0  0
  190.9220  177.9060  145.2720 F   0  0  0  0  0  0  0  0  0  0  0  0
  189.0720  176.8260  142.2930 C   0  0  0  0  0  3  0  0  0  0  0  0
  1  7  1  0  0  0  0
  2  3  1  0  0  0  0
  4  6  1  0  0  0  0
  4  1  2  0  0  0  0
  5  2  1  0  0  0  0
  6  5  2  0  0  0  0
  7  2  2  0  0  0  0
  7  9  1  0  0  0  0
  9 10  1  0  0  0  0
  9  8  1  0  0  0  0
 10  8  1  0  0  0  0
 11  6  1  0  0  0  0
 12 11  3  0  0  0  0
 13 14  1  6  0  0  0
 13 15  1  0  0  0  0
 13 12  1  0  0  0  0
 15 16  1  0  0  0  0
 17 15  2  0  0  0  0
 18  1  1  0  0  0  0
 19 21  1  0  0  0  0
 19 18  1  0  0  0  0
 20 22  1  0  0  0  0
 21 24  1  0  0  0  0
 22 21  2  0  0  0  0
 23 20  2  0  0  0  0
 23 25  1  0  0  0  0
 25 19  2  0  0  0  0
M  END
>  <MODEL>
8

>  <REMARK>
 VINA RESULT:      -7.7      2.108      2.528
  Name = 
  6 active torsions:
  status: ('A' for Active; 'I' for Inactive)
    1  A    between atoms: O_1  and  C_3
    2  A    between atoms: O_1  and  C_5
    3  A    between atoms: C_2  and  C_21
    4  A    between atoms: C_6  and  C_23
    5  A    between atoms: C_9  and  C_24
    6  A    between atoms: C_15  and  C_21
                            x       y       z     vdW  Elec       q    Type
                         _______ _______ _______ _____ _____    ______ ____

>  <TORSDO>
F 6

$$$$
=
 OpenBabel10272400423D

 25 27  0  0  1  0  0  0  0  0999 V2000
  187.8280  177.3920  143.4920 C   0  0  0  0  0  0  0  0  0  0  0  0
  188.1620  178.5960  141.4120 C   0  0  0  0  0  0  0  0  0  0  0  0
  188.9680  179.1270  140.4580 F   0  0  0  0  0  0  0  0  0  0  0  0
  186.4450  177.5360  143.3090 C   0  0  0  0  0  3  0  0  0  0  0  0
  186.8160  178.7210  141.2800 N   0  0  0  0  0  0  0  0  0  0  0  0
  185.9560  178.2110  142.1960 C   0  0  0  0  0  0  0  0  0  0  0  0
  188.7150  177.9230  142.5180 C   0  0  0  0  0  0  0  0  0  0  0  0
  190.7530  176.4320  142.7730 C   0  0  0  0  0  2  0  0  0  0  0  0
  190.2310  177.8400  142.5670 C   0  0  0  0  0  3  0  0  0  0  0  0
  190.8340  177.0800  141.4020 C   0  0  0  0  0  2  0  0  0  0  0  0
  184.5410  178.3650  142.0150 C   0  0  0  0  0  0  0  0  0  0  0  0
  183.3520  178.4940  141.8630 C   0  0  0  0  0  0  0  0  0  0  0  0
  181.9060  178.6520  141.6780 C   0  0  2  0  0  3  0  0  0  0  0  0
  181.6620  179.5870  140.6890 F   0  0  0  0  0  0  0  0  0  0  0  0
  181.2660  179.0730  142.9570 C   0  0  0  0  0  0  0  0  0  0  0  0
  180.1740  179.7010  142.9490 O   0  0  0  0  0  0  0  0  0  0  0  0
  181.8940  178.7990  144.1640 O   0  0  0  0  0  1  0  0  0  0  0  0
  188.3150  176.6890  144.6050 O   0  0  0  0  0  0  0  0  0  0  0  0
  188.4510  177.2130  145.8980 C   0  0  0  0  0  0  0  0  0  0  0  0
  188.6250  178.2550  148.4970 C   0  0  0  0  0  3  0  0  0  0  0  0
  189.6730  177.1680  146.6010 C   0  0  0  0  0  0  0  0  0  0  0  0
  189.7540  177.6930  147.8940 C   0  0  0  0  0  3  0  0  0  0  0  0
  187.4080  178.2830  147.8110 C   0  0  0  0  0  3  0  0  0  0  0  0
  190.7650  176.5710  146.0640 F   0  0  0  0  0  0  0  0  0  0  0  0
  187.3230  177.7590  146.5190 C   0  0  0  0  0  3  0  0  0  0  0  0
  1 18  1  0  0  0  0
  2  7  1  0  0  0  0
  3  2  1  0  0  0  0
  4  1  1  0  0  0  0
  5  2  2  0  0  0  0
  5  6  1  0  0  0  0
  6  4  2  0  0  0  0
  7  9  1  0  0  0  0
  7  1  2  0  0  0  0
  9  8  1  0  0  0  0
 10  9  1  0  0  0  0
 10  8  1  0  0  0  0
 11  6  1  0  0  0  0
 12 11  3  0  0  0  0
 13 14  1  6  0  0  0
 13 12  1  0  0  0  0
 13 15  1  0  0  0  0
 15 17  1  0  0  0  0
 16 15  2  0  0  0  0
 18 19  1  0  0  0  0
 19 25  2  0  0  0  0
 19 21  1  0  0  0  0
 21 22  2  0  0  0  0
 22 20  1  0  0  0  0
 23 20  2  0  0  0  0
 24 21  1  0  0  0  0
 25 23  1  0  0  0  0
M  END
>  <MODEL>
9

>  <REMARK>
 VINA RESULT:      -7.7      2.701      4.597
  Name = 
  6 active torsions:
  status: ('A' for Active; 'I' for Inactive)
    1  A    between atoms: O_1  and  C_3
    2  A    between atoms: O_1  and  C_5
    3  A    between atoms: C_2  and  C_21
    4  A    between atoms: C_6  and  C_23
    5  A    between atoms: C_9  and  C_24
    6  A    between atoms: C_15  and  C_21
                            x       y       z     vdW  Elec       q    Type
                         _______ _______ _______ _____ _____    ______ ____

>  <TORSDO>
F 6

$$$$
