=
 OpenBabel10262423523D

 34 40  0  0  1  0  0  0  0  0999 V2000
  185.2230  178.4720  142.8340 C   0  0  0  0  0  0  0  0  0  0  0  0
  185.7300  178.6890  140.3890 C   0  0  0  0  0  0  0  0  0  0  0  0
  187.5170  178.1780  141.9990 N   0  0  0  0  0  0  0  0  0  0  0  0
  189.7850  177.6300  141.1510 C   0  0  0  0  0  0  0  0  0  0  0  0
  183.4400  178.8000  141.1770 C   0  0  0  0  0  3  0  0  0  0  0  0
  184.2920  178.8620  140.1460 C   0  0  0  0  0  3  0  0  0  0  0  0
  187.9450  178.1510  139.6360 C   0  0  0  0  0  0  0  0  0  0  0  0
  186.2430  178.8710  141.7980 C   0  0  2  0  0  3  0  0  0  0  0  0
  188.8580  177.8970  138.5010 C   0  0  0  0  0  0  0  0  0  0  0  0
  190.7670  177.5540  140.0200 C   0  0  0  0  0  2  0  0  0  0  0  0
  183.9150  178.5200  142.5520 C   0  0  0  0  0  3  0  0  0  0  0  0
  187.9790  177.8650  143.3280 C   0  0  0  0  0  0  0  0  0  0  0  0
  185.6880  178.1300  144.1870 C   0  0  0  0  0  3  0  0  0  0  0  0
  186.5480  178.4200  139.4120 N   0  0  0  0  0  0  0  0  0  0  0  0
  190.1640  177.4140  142.3760 N   0  0  0  0  0  0  0  0  0  0  0  0
  189.2790  177.5070  143.5160 C   0  0  0  0  0  0  0  0  0  0  0  0
  190.1110  177.5960  138.7050 N   0  0  0  0  0  0  0  0  0  0  0  0
  188.4000  178.0150  140.8870 C   0  0  0  0  0  0  0  0  0  0  0  0
  186.9770  177.8630  144.4220 C   0  0  0  0  0  3  0  0  0  0  0  0
  189.7990  177.2640  147.2810 C   0  0  0  0  0  0  0  0  0  0  0  0
  191.0380  176.6210  147.3360 C   0  0  0  0  0  3  0  0  0  0  0  0
  189.8530  177.1820  144.8480 C   0  0  0  0  0  0  0  0  0  0  0  0
  191.6920  176.2670  146.1530 C   0  0  0  0  0  3  0  0  0  0  0  0
  189.2140  177.5480  146.0450 C   0  0  0  0  0  3  0  0  0  0  0  0
  191.1050  176.5510  144.9170 C   0  0  0  0  0  3  0  0  0  0  0  0
  189.1500  177.6220  148.4550 O   0  0  0  0  0  1  0  0  0  0  0  0
  188.3320  177.8990  137.1040 C   0  0  0  0  0  2  0  0  0  0  0  0
  189.3490  177.4010  134.3500 C   0  0  0  0  0  1  0  0  0  0  0  0
  188.4680  176.5670  136.5150 N   0  0  0  0  0  0  0  0  0  0  0  0
  188.2590  176.6110  135.0550 C   0  0  1  0  0  3  0  0  0  0  0  0
  185.7860  176.6870  135.6590 C   0  0  0  0  0  2  0  0  0  0  0  0
  186.2040  175.4270  136.4040 C   0  0  0  0  0  2  0  0  0  0  0  0
  187.5100  175.6660  137.1820 C   0  0  0  0  0  2  0  0  0  0  0  0
  186.8620  177.1110  134.6560 C   0  0  0  0  0  2  0  0  0  0  0  0
  1 13  1  0  0  0  0
  3 12  1  0  0  0  0
  4 15  2  0  0  0  0
  5 11  1  0  0  0  0
  6  2  1  0  0  0  0
  6  5  2  0  0  0  0
  7 18  2  0  0  0  0
  8  2  1  6  0  0  0
  8  3  1  0  0  0  0
  8  1  1  0  0  0  0
  9 17  2  0  0  0  0
  9  7  1  0  0  0  0
 10  4  1  0  0  0  0
 11  1  2  0  0  0  0
 12 16  2  0  0  0  0
 12 19  1  0  0  0  0
 13 19  2  0  0  0  0
 14  7  1  0  0  0  0
 14  2  2  0  0  0  0
 15 16  1  0  0  0  0
 16 22  1  0  0  0  0
 17 10  1  0  0  0  0
 18  4  1  0  0  0  0
 18  3  1  0  0  0  0
 20 21  1  0  0  0  0
 20 26  1  0  0  0  0
 22 25  2  0  0  0  0
 22 24  1  0  0  0  0
 23 21  2  0  0  0  0
 24 20  2  0  0  0  0
 25 23  1  0  0  0  0
 27  9  1  0  0  0  0
 29 27  1  0  0  0  0
 29 33  1  0  0  0  0
 30 28  1  6  0  0  0
 30 29  1  0  0  0  0
 31 32  1  0  0  0  0
 32 33  1  0  0  0  0
 34 30  1  0  0  0  0
 34 31  1  0  0  0  0
M  END
>  <MODEL>
1

>  <REMARK>
 VINA RESULT:     -11.0      0.000      0.000
  Name = 
  3 active torsions:
  status: ('A' for Active; 'I' for Inactive)
    1  A    between atoms: C_3  and  N_13
    2  A    between atoms: C_3  and  C_17
    3  A    between atoms: C_12  and  C_28
                            x       y       z     vdW  Elec       q    Type
                         _______ _______ _______ _____ _____    ______ ____

>  <TORSDO>
F 3

$$$$
=
 OpenBabel10262423523D

 34 40  0  0  1  0  0  0  0  0999 V2000
  184.7550  178.6050  142.4980 C   0  0  0  0  0  0  0  0  0  0  0  0
  185.4380  178.7650  140.0930 C   0  0  0  0  0  0  0  0  0  0  0  0
  187.1040  178.3020  141.8410 N   0  0  0  0  0  0  0  0  0  0  0  0
  189.4290  177.7450  141.1740 C   0  0  0  0  0  0  0  0  0  0  0  0
  183.0950  178.8840  140.7090 C   0  0  0  0  0  3  0  0  0  0  0  0
  184.0200  178.9250  139.7420 C   0  0  0  0  0  3  0  0  0  0  0  0
  187.7030  178.2190  139.5170 C   0  0  0  0  0  0  0  0  0  0  0  0
  185.8460  178.9830  141.5300 C   0  0  2  0  0  3  0  0  0  0  0  0
  188.6970  177.9430  138.4570 C   0  0  0  0  0  0  0  0  0  0  0  0
  190.4920  177.6470  140.1190 C   0  0  0  0  0  2  0  0  0  0  0  0
  183.4700  178.6400  142.1220 C   0  0  0  0  0  3  0  0  0  0  0  0
  187.4680  178.0240  143.2070 C   0  0  0  0  0  0  0  0  0  0  0  0
  185.1210  178.2980  143.8900 C   0  0  0  0  0  3  0  0  0  0  0  0
  186.3250  178.4760  139.1850 N   0  0  0  0  0  0  0  0  0  0  0  0
  189.7190  177.5610  142.4280 N   0  0  0  0  0  0  0  0  0  0  0  0
  188.7530  177.6770  143.4980 C   0  0  0  0  0  0  0  0  0  0  0  0
  189.9330  177.6540  138.7590 N   0  0  0  0  0  0  0  0  0  0  0  0
  188.0670  178.1160  140.8000 C   0  0  0  0  0  0  0  0  0  0  0  0
  186.3900  178.0430  144.2250 C   0  0  0  0  0  3  0  0  0  0  0  0
  190.9690  176.7220  146.4440 C   0  0  0  0  0  0  0  0  0  0  0  0
  190.0470  176.7610  147.4920 C   0  0  0  0  0  3  0  0  0  0  0  0
  189.2300  177.3870  144.8760 C   0  0  0  0  0  0  0  0  0  0  0  0
  188.7170  177.1030  147.2370 C   0  0  0  0  0  3  0  0  0  0  0  0
  190.5610  177.0260  145.1430 C   0  0  0  0  0  3  0  0  0  0  0  0
  188.3100  177.4080  145.9350 C   0  0  0  0  0  3  0  0  0  0  0  0
  192.2900  176.3770  146.6940 O   0  0  0  0  0  1  0  0  0  0  0  0
  188.2740  177.9080  137.0260 C   0  0  0  0  0  2  0  0  0  0  0  0
  189.5670  177.3190  134.4090 C   0  0  0  0  0  1  0  0  0  0  0  0
  188.4410  176.5590  136.4860 N   0  0  0  0  0  0  0  0  0  0  0  0
  188.3900  176.5700  135.0120 C   0  0  1  0  0  3  0  0  0  0  0  0
  185.8700  176.7130  135.3460 C   0  0  0  0  0  2  0  0  0  0  0  0
  186.1760  175.4640  136.1600 C   0  0  0  0  0  2  0  0  0  0  0  0
  187.3960  175.6950  137.0680 C   0  0  0  0  0  2  0  0  0  0  0  0
  187.0550  177.0890  134.4540 C   0  0  0  0  0  2  0  0  0  0  0  0
  1 13  1  0  0  0  0
  3 12  1  0  0  0  0
  4 15  2  0  0  0  0
  5 11  1  0  0  0  0
  6  2  1  0  0  0  0
  6  5  2  0  0  0  0
  7 18  2  0  0  0  0
  8  2  1  6  0  0  0
  8  3  1  0  0  0  0
  8  1  1  0  0  0  0
  9 17  2  0  0  0  0
  9  7  1  0  0  0  0
 10  4  1  0  0  0  0
 11  1  2  0  0  0  0
 12 16  2  0  0  0  0
 12 19  1  0  0  0  0
 13 19  2  0  0  0  0
 14  7  1  0  0  0  0
 14  2  2  0  0  0  0
 15 16  1  0  0  0  0
 16 22  1  0  0  0  0
 17 10  1  0  0  0  0
 18  4  1  0  0  0  0
 18  3  1  0  0  0  0
 20 26  1  0  0  0  0
 20 21  1  0  0  0  0
 22 24  1  0  0  0  0
 22 25  2  0  0  0  0
 23 21  2  0  0  0  0
 24 20  2  0  0  0  0
 25 23  1  0  0  0  0
 27  9  1  0  0  0  0
 29 27  1  0  0  0  0
 29 33  1  0  0  0  0
 30 28  1  6  0  0  0
 30 29  1  0  0  0  0
 31 32  1  0  0  0  0
 32 33  1  0  0  0  0
 34 30  1  0  0  0  0
 34 31  1  0  0  0  0
M  END
>  <MODEL>
2

>  <REMARK>
 VINA RESULT:     -10.7      0.829      1.165
  Name = 
  3 active torsions:
  status: ('A' for Active; 'I' for Inactive)
    1  A    between atoms: C_3  and  N_13
    2  A    between atoms: C_3  and  C_17
    3  A    between atoms: C_12  and  C_28
                            x       y       z     vdW  Elec       q    Type
                         _______ _______ _______ _____ _____    ______ ____

>  <TORSDO>
F 3

$$$$
=
 OpenBabel10262423523D

 34 40  0  0  1  0  0  0  0  0999 V2000
  188.3730  177.8380  138.2020 C   0  0  0  0  0  0  0  0  0  0  0  0
  189.4130  177.5610  140.4660 C   0  0  0  0  0  0  0  0  0  0  0  0
  187.0610  178.2410  140.2420 N   0  0  0  0  0  0  0  0  0  0  0  0
  185.6540  178.4070  142.2800 C   0  0  0  0  0  0  0  0  0  0  0  0
  190.6610  176.9850  138.4680 C   0  0  0  0  0  3  0  0  0  0  0  0
  190.6360  177.0890  139.8020 C   0  0  0  0  0  3  0  0  0  0  0  0
  187.9970  177.7400  142.3950 C   0  0  0  0  0  0  0  0  0  0  0  0
  188.3920  178.3030  139.6360 C   0  0  2  0  0  3  0  0  0  0  0  0
  187.8350  177.5630  143.8550 C   0  0  0  0  0  0  0  0  0  0  0  0
  185.5250  178.4130  143.7750 C   0  0  0  0  0  3  0  0  0  0  0  0
  189.4660  177.2970  137.6500 C   0  0  0  0  0  3  0  0  0  0  0  0
  185.8850  178.5060  139.4530 C   0  0  0  0  0  0  0  0  0  0  0  0
  187.1680  178.0850  137.3960 C   0  0  0  0  0  3  0  0  0  0  0  0
  189.2270  177.3740  141.7410 N   0  0  0  0  0  0  0  0  0  0  0  0
  184.6360  178.6970  141.5240 N   0  0  0  0  0  0  0  0  0  0  0  0
  184.7000  178.7460  140.0800 C   0  0  0  0  0  0  0  0  0  0  0  0
  186.7030  177.8380  144.4400 N   0  0  0  0  0  0  0  0  0  0  0  0
  186.9500  178.1370  141.6630 C   0  0  1  0  0  3  0  0  0  0  0  0
  186.0100  178.4130  137.9780 C   0  0  0  0  0  3  0  0  0  0  0  0
  181.8460  180.6100  138.3820 C   0  0  0  0  0  0  0  0  0  0  0  0
  180.9890  179.5520  138.0680 C   0  0  0  0  0  3  0  0  0  0  0  0
  183.4370  179.0450  139.3560 C   0  0  0  0  0  0  0  0  0  0  0  0
  181.3450  178.2440  138.4030 C   0  0  0  0  0  3  0  0  0  0  0  0
  183.0590  180.3580  139.0280 C   0  0  0  0  0  3  0  0  0  0  0  0
  182.5600  177.9930  139.0490 C   0  0  0  0  0  3  0  0  0  0  0  0
  181.4910  181.9110  138.0540 O   0  0  0  0  0  1  0  0  0  0  0  0
  188.9460  176.9800  144.6640 C   0  0  0  0  0  2  0  0  0  0  0  0
  191.6070  178.0620  143.8780 C   0  0  0  0  0  1  0  0  0  0  0  0
  189.6430  178.0380  145.3950 N   0  0  0  0  0  0  0  0  0  0  0  0
  191.1060  177.8710  145.3000 C   0  0  1  0  0  3  0  0  0  0  0  0
  190.7740  176.0970  147.0960 C   0  0  0  0  0  2  0  0  0  0  0  0
  190.1130  177.2900  147.7740 C   0  0  0  0  0  2  0  0  0  0  0  0
  189.1760  178.0180  146.7950 C   0  0  0  0  0  2  0  0  0  0  0  0
  191.6070  176.5440  145.8920 C   0  0  0  0  0  2  0  0  0  0  0  0
  2 14  2  0  0  0  0
  3 18  1  0  0  0  0
  4 10  1  0  0  0  0
  5  6  2  0  0  0  0
  6  2  1  0  0  0  0
  7  9  2  0  0  0  0
  8  1  1  6  0  0  0
  8  3  1  0  0  0  0
  8  2  1  0  0  0  0
  9 17  1  0  0  0  0
  9 27  1  0  0  0  0
 10 17  2  0  0  0  0
 11  1  2  0  0  0  0
 11  5  1  0  0  0  0
 12 16  2  0  0  0  0
 12  3  1  0  0  0  0
 13 19  2  0  0  0  0
 13  1  1  0  0  0  0
 14  7  1  0  0  0  0
 15  4  2  0  0  0  0
 16 15  1  0  0  0  0
 18  4  1  6  0  0  0
 18  7  1  0  0  0  0
 19 12  1  0  0  0  0
 20 24  1  0  0  0  0
 21 20  2  0  0  0  0
 21 23  1  0  0  0  0
 22 16  1  0  0  0  0
 23 25  2  0  0  0  0
 24 22  2  0  0  0  0
 25 22  1  0  0  0  0
 26 20  1  0  0  0  0
 27 29  1  0  0  0  0
 29 33  1  0  0  0  0
 30 28  1  6  0  0  0
 30 29  1  0  0  0  0
 30 34  1  0  0  0  0
 31 32  1  0  0  0  0
 33 32  1  0  0  0  0
 34 31  1  0  0  0  0
M  END
>  <MODEL>
3

>  <REMARK>
 VINA RESULT:     -10.0      2.916      8.490
  Name = 
  3 active torsions:
  status: ('A' for Active; 'I' for Inactive)
    1  A    between atoms: C_3  and  N_13
    2  A    between atoms: C_3  and  C_17
    3  A    between atoms: C_12  and  C_28
                            x       y       z     vdW  Elec       q    Type
                         _______ _______ _______ _____ _____    ______ ____

>  <TORSDO>
F 3

$$$$
=
 OpenBabel10262423523D

 34 40  0  0  1  0  0  0  0  0999 V2000
  184.9680  178.4800  140.7940 C   0  0  0  0  0  0  0  0  0  0  0  0
  186.6760  178.2320  138.9770 C   0  0  0  0  0  0  0  0  0  0  0  0
  187.3370  178.1170  141.3420 N   0  0  0  0  0  0  0  0  0  0  0  0
  189.6730  177.5010  141.9150 C   0  0  0  0  0  0  0  0  0  0  0  0
  184.3210  178.4070  138.4250 C   0  0  0  0  0  3  0  0  0  0  0  0
  185.5850  178.2980  137.9960 C   0  0  0  0  0  3  0  0  0  0  0  0
  188.9180  177.6420  139.5990 C   0  0  0  0  0  0  0  0  0  0  0  0
  186.4010  178.7070  140.3840 C   0  0  2  0  0  3  0  0  0  0  0  0
  190.2660  177.2070  139.1730 C   0  0  0  0  0  0  0  0  0  0  0  0
  191.0900  177.2430  141.4950 C   0  0  0  0  0  3  0  0  0  0  0  0
  183.9990  178.4210  139.8720 C   0  0  0  0  0  3  0  0  0  0  0  0
  187.0250  178.0890  142.7490 C   0  0  0  0  0  0  0  0  0  0  0  0
  184.6440  178.4280  142.2280 C   0  0  0  0  0  3  0  0  0  0  0  0
  187.8590  177.8080  138.6370 N   0  0  0  0  0  0  0  0  0  0  0  0
  189.3500  177.5450  143.1730 N   0  0  0  0  0  0  0  0  0  0  0  0
  188.0130  177.8260  143.6480 C   0  0  0  0  0  0  0  0  0  0  0  0
  191.2100  177.0010  140.0500 N   0  0  0  0  0  0  0  0  0  0  0  0
  188.6530  177.7730  140.9040 C   0  0  1  0  0  3  0  0  0  0  0  0
  185.6050  178.2630  143.1420 C   0  0  0  0  0  3  0  0  0  0  0  0
  186.4680  178.2910  147.0980 C   0  0  0  0  0  0  0  0  0  0  0  0
  187.4820  177.7830  147.9120 C   0  0  0  0  0  3  0  0  0  0  0  0
  187.7940  177.7920  145.1180 C   0  0  0  0  0  0  0  0  0  0  0  0
  188.6550  177.2880  147.3370 C   0  0  0  0  0  3  0  0  0  0  0  0
  186.6270  178.3020  145.7090 C   0  0  0  0  0  3  0  0  0  0  0  0
  188.8120  177.2980  145.9480 C   0  0  0  0  0  3  0  0  0  0  0  0
  185.3040  178.7890  147.6670 O   0  0  0  0  0  1  0  0  0  0  0  0
  190.5370  176.9140  137.7350 C   0  0  0  0  0  2  0  0  0  0  0  0
  193.1800  175.5980  137.3430 C   0  0  0  0  0  1  0  0  0  0  0  0
  190.7090  175.4740  137.5400 N   0  0  0  0  0  0  0  0  0  0  0  0
  191.8740  175.1930  136.6790 C   0  0  1  0  0  3  0  0  0  0  0  0
  190.3060  175.8160  134.7720 C   0  0  0  0  0  2  0  0  0  0  0  0
  189.4850  174.7250  135.4470 C   0  0  0  0  0  2  0  0  0  0  0  0
  189.4600  174.9320  136.9710 C   0  0  0  0  0  2  0  0  0  0  0  0
  191.7520  175.8000  135.2730 C   0  0  0  0  0  2  0  0  0  0  0  0
  1 13  1  0  0  0  0
  3 12  1  0  0  0  0
  4 15  2  0  0  0  0
  5 11  1  0  0  0  0
  6  5  2  0  0  0  0
  6  2  1  0  0  0  0
  8  2  1  6  0  0  0
  8  1  1  0  0  0  0
  8  3  1  0  0  0  0
  9  7  2  0  0  0  0
  9 17  1  0  0  0  0
 10  4  1  0  0  0  0
 11  1  2  0  0  0  0
 12 19  1  0  0  0  0
 12 16  2  0  0  0  0
 13 19  2  0  0  0  0
 14  2  2  0  0  0  0
 14  7  1  0  0  0  0
 15 16  1  0  0  0  0
 16 22  1  0  0  0  0
 17 10  2  0  0  0  0
 18  7  1  6  0  0  0
 18  3  1  0  0  0  0
 18  4  1  0  0  0  0
 20 26  1  0  0  0  0
 20 21  1  0  0  0  0
 22 24  1  0  0  0  0
 22 25  2  0  0  0  0
 23 21  2  0  0  0  0
 24 20  2  0  0  0  0
 25 23  1  0  0  0  0
 27  9  1  0  0  0  0
 29 27  1  0  0  0  0
 30 28  1  1  0  0  0
 30 29  1  0  0  0  0
 31 34  1  0  0  0  0
 31 32  1  0  0  0  0
 32 33  1  0  0  0  0
 33 29  1  0  0  0  0
 34 30  1  0  0  0  0
M  END
>  <MODEL>
4

>  <REMARK>
 VINA RESULT:      -9.9      1.951      2.739
  Name = 
  3 active torsions:
  status: ('A' for Active; 'I' for Inactive)
    1  A    between atoms: C_3  and  N_13
    2  A    between atoms: C_3  and  C_17
    3  A    between atoms: C_12  and  C_28
                            x       y       z     vdW  Elec       q    Type
                         _______ _______ _______ _____ _____    ______ ____

>  <TORSDO>
F 3

$$$$
=
 OpenBabel10262423523D

 34 40  0  0  1  0  0  0  0  0999 V2000
  184.2960  178.6980  144.6040 C   0  0  0  0  0  0  0  0  0  0  0  0
  183.8020  179.0170  142.1680 C   0  0  0  0  0  0  0  0  0  0  0  0
  186.0810  178.4910  142.9270 N   0  0  0  0  0  0  0  0  0  0  0  0
  187.8400  178.0300  141.2360 C   0  0  0  0  0  0  0  0  0  0  0  0
  182.0030  179.0420  143.7930 C   0  0  0  0  0  3  0  0  0  0  0  0
  182.3820  179.1630  142.5150 C   0  0  0  0  0  3  0  0  0  0  0  0
  185.5490  178.5610  140.5860 C   0  0  0  0  0  0  0  0  0  0  0  0
  184.8250  179.1590  143.2700 C   0  0  2  0  0  3  0  0  0  0  0  0
  185.9470  178.3720  139.1740 C   0  0  0  0  0  0  0  0  0  0  0  0
  188.3010  178.0200  139.8090 C   0  0  0  0  0  2  0  0  0  0  0  0
  182.9820  178.7240  144.8590 C   0  0  0  0  0  3  0  0  0  0  0  0
  187.0290  178.1410  143.9540 C   0  0  0  0  0  0  0  0  0  0  0  0
  185.2560  178.3180  145.6510 C   0  0  0  0  0  3  0  0  0  0  0  0
  184.1740  178.8030  140.9380 N   0  0  0  0  0  0  0  0  0  0  0  0
  188.6710  177.7790  142.2040 N   0  0  0  0  0  0  0  0  0  0  0  0
  188.3020  177.8080  143.6030 C   0  0  0  0  0  0  0  0  0  0  0  0
  187.1820  178.0950  138.8580 N   0  0  0  0  0  0  0  0  0  0  0  0
  186.4600  178.3900  141.5520 C   0  0  0  0  0  0  0  0  0  0  0  0
  186.5360  178.0740  145.3520 C   0  0  0  0  0  3  0  0  0  0  0  0
  190.2230  177.3700  146.8620 C   0  0  0  0  0  0  0  0  0  0  0  0
  191.4230  176.8330  146.3920 C   0  0  0  0  0  3  0  0  0  0  0  0
  189.3550  177.4490  144.5890 C   0  0  0  0  0  0  0  0  0  0  0  0
  191.5980  176.6120  145.0240 C   0  0  0  0  0  3  0  0  0  0  0  0
  189.1980  177.6830  145.9650 C   0  0  0  0  0  3  0  0  0  0  0  0
  190.5720  176.9230  144.1270 C   0  0  0  0  0  3  0  0  0  0  0  0
  190.0490  177.5970  148.2210 O   0  0  0  0  0  1  0  0  0  0  0  0
  184.9150  178.4120  138.0960 C   0  0  0  0  0  2  0  0  0  0  0  0
  185.6260  177.2360  135.4540 C   0  0  0  0  0  1  0  0  0  0  0  0
  184.5620  177.0520  137.6880 N   0  0  0  0  0  0  0  0  0  0  0  0
  184.3460  176.9760  136.2310 C   0  0  1  0  0  3  0  0  0  0  0  0
  182.0730  177.9920  136.7630 C   0  0  0  0  0  2  0  0  0  0  0  0
  182.0400  176.7730  137.6740 C   0  0  0  0  0  2  0  0  0  0  0  0
  183.3650  176.6380  138.4450 C   0  0  0  0  0  2  0  0  0  0  0  0
  183.2030  177.8780  135.7380 C   0  0  0  0  0  2  0  0  0  0  0  0
  1 11  2  0  0  0  0
  1 13  1  0  0  0  0
  2  6  1  0  0  0  0
  3  8  1  0  0  0  0
  3 12  1  0  0  0  0
  4 18  1  0  0  0  0
  4 15  2  0  0  0  0
  5 11  1  0  0  0  0
  6  5  2  0  0  0  0
  7 14  1  0  0  0  0
  7 18  2  0  0  0  0
  8  2  1  6  0  0  0
  8  1  1  0  0  0  0
  9  7  1  0  0  0  0
 10  4  1  0  0  0  0
 12 19  1  0  0  0  0
 14  2  2  0  0  0  0
 15 16  1  0  0  0  0
 16 12  2  0  0  0  0
 16 22  1  0  0  0  0
 17  9  2  0  0  0  0
 17 10  1  0  0  0  0
 18  3  1  0  0  0  0
 19 13  2  0  0  0  0
 20 26  1  0  0  0  0
 21 20  1  0  0  0  0
 22 24  1  0  0  0  0
 23 21  2  0  0  0  0
 24 20  2  0  0  0  0
 25 22  2  0  0  0  0
 25 23  1  0  0  0  0
 27  9  1  0  0  0  0
 29 27  1  0  0  0  0
 29 33  1  0  0  0  0
 30 28  1  6  0  0  0
 30 29  1  0  0  0  0
 31 32  1  0  0  0  0
 32 33  1  0  0  0  0
 34 30  1  0  0  0  0
 34 31  1  0  0  0  0
M  END
>  <MODEL>
5

>  <REMARK>
 VINA RESULT:      -9.7      1.775      2.645
  Name = 
  3 active torsions:
  status: ('A' for Active; 'I' for Inactive)
    1  A    between atoms: C_3  and  N_13
    2  A    between atoms: C_3  and  C_17
    3  A    between atoms: C_12  and  C_28
                            x       y       z     vdW  Elec       q    Type
                         _______ _______ _______ _____ _____    ______ ____

>  <TORSDO>
F 3

$$$$
=
 OpenBabel10262423523D

 34 40  0  0  1  0  0  0  0  0999 V2000
  189.7980  177.6670  140.3910 C   0  0  0  0  0  0  0  0  0  0  0  0
  187.5010  178.0370  139.4590 C   0  0  0  0  0  0  0  0  0  0  0  0
  187.8480  177.8060  141.8820 N   0  0  0  0  0  0  0  0  0  0  0  0
  185.9360  178.1940  143.4170 C   0  0  0  0  0  0  0  0  0  0  0  0
  189.4360  178.0850  137.9970 C   0  0  0  0  0  3  0  0  0  0  0  0
  188.1060  178.1670  138.1260 C   0  0  0  0  0  3  0  0  0  0  0  0
  185.6960  178.3990  140.9980 C   0  0  0  0  0  0  0  0  0  0  0  0
  188.3230  177.4050  140.5570 C   0  0  2  0  0  3  0  0  0  0  0  0
  184.2880  178.7990  141.2110 C   0  0  0  0  0  0  0  0  0  0  0  0
  184.4690  178.4130  143.6370 C   0  0  0  0  0  3  0  0  0  0  0  0
  190.3130  177.9050  139.1780 C   0  0  0  0  0  3  0  0  0  0  0  0
  188.7000  177.6730  143.0360 C   0  0  0  0  0  0  0  0  0  0  0  0
  190.6720  177.5550  141.5690 C   0  0  0  0  0  3  0  0  0  0  0  0
  186.2790  178.4260  139.6810 N   0  0  0  0  0  0  0  0  0  0  0  0
  186.7380  178.0090  144.4240 N   0  0  0  0  0  0  0  0  0  0  0  0
  188.1550  177.7560  144.2820 C   0  0  0  0  0  0  0  0  0  0  0  0
  183.7750  178.8310  142.4100 N   0  0  0  0  0  0  0  0  0  0  0  0
  186.4650  178.1190  142.0570 C   0  0  1  0  0  3  0  0  0  0  0  0
  190.1590  177.5400  142.8040 C   0  0  0  0  0  3  0  0  0  0  0  0
  190.9450  176.9130  146.7340 C   0  0  0  0  0  0  0  0  0  0  0  0
  190.3560  177.2880  147.9430 C   0  0  0  0  0  3  0  0  0  0  0  0
  188.9470  177.6150  145.5320 C   0  0  0  0  0  0  0  0  0  0  0  0
  189.0630  177.8160  147.9540 C   0  0  0  0  0  3  0  0  0  0  0  0
  190.2420  177.0690  145.5370 C   0  0  0  0  0  3  0  0  0  0  0  0
  188.3610  177.9730  146.7560 C   0  0  0  0  0  3  0  0  0  0  0  0
  192.2280  176.3830  146.7210 O   0  0  0  0  0  1  0  0  0  0  0  0
  183.4590  179.2570  140.0560 C   0  0  0  0  0  2  0  0  0  0  0  0
  182.9820  176.5430  138.9260 C   0  0  0  0  0  1  0  0  0  0  0  0
  182.1600  178.5840  140.0730 N   0  0  0  0  0  0  0  0  0  0  0  0
  182.0040  177.7060  138.8980 C   0  0  1  0  0  3  0  0  0  0  0  0
  181.4820  179.8680  137.6580 C   0  0  0  0  0  2  0  0  0  0  0  0
  180.4560  179.9490  138.7800 C   0  0  0  0  0  2  0  0  0  0  0  0
  181.1060  179.6150  140.1330 C   0  0  0  0  0  2  0  0  0  0  0  0
  182.0750  178.4600  137.5610 C   0  0  0  0  0  2  0  0  0  0  0  0
  1  8  1  0  0  0  0
  1 13  1  0  0  0  0
  2 14  2  0  0  0  0
  3 18  1  0  0  0  0
  3 12  1  0  0  0  0
  4 10  1  0  0  0  0
  4 15  2  0  0  0  0
  5  6  2  0  0  0  0
  5 11  1  0  0  0  0
  6  2  1  0  0  0  0
  7  9  2  0  0  0  0
  8  2  1  6  0  0  0
  8  3  1  0  0  0  0
  9 17  1  0  0  0  0
 11  1  2  0  0  0  0
 12 16  2  0  0  0  0
 13 19  2  0  0  0  0
 14  7  1  0  0  0  0
 16 15  1  0  0  0  0
 16 22  1  0  0  0  0
 17 10  2  0  0  0  0
 18  7  1  1  0  0  0
 18  4  1  0  0  0  0
 19 12  1  0  0  0  0
 20 21  1  0  0  0  0
 21 23  2  0  0  0  0
 22 24  1  0  0  0  0
 22 25  2  0  0  0  0
 24 20  2  0  0  0  0
 25 23  1  0  0  0  0
 26 20  1  0  0  0  0
 27 29  1  0  0  0  0
 27  9  1  0  0  0  0
 29 33  1  0  0  0  0
 30 28  1  6  0  0  0
 30 29  1  0  0  0  0
 31 32  1  0  0  0  0
 32 33  1  0  0  0  0
 34 31  1  0  0  0  0
 34 30  1  0  0  0  0
M  END
>  <MODEL>
6

>  <REMARK>
 VINA RESULT:      -9.4      2.078      4.961
  Name = 
  3 active torsions:
  status: ('A' for Active; 'I' for Inactive)
    1  A    between atoms: C_3  and  N_13
    2  A    between atoms: C_3  and  C_17
    3  A    between atoms: C_12  and  C_28
                            x       y       z     vdW  Elec       q    Type
                         _______ _______ _______ _____ _____    ______ ____

>  <TORSDO>
F 3

$$$$
=
 OpenBabel10262423523D

 34 40  0  0  1  0  0  0  0  0999 V2000
  182.5460  178.8530  143.0120 C   0  0  0  0  0  0  0  0  0  0  0  0
  184.9950  178.3860  143.2630 C   0  0  0  0  0  0  0  0  0  0  0  0
  183.9790  178.5840  141.0330 N   0  0  0  0  0  0  0  0  0  0  0  0
  185.4480  178.5670  139.0320 C   0  0  0  0  0  0  0  0  0  0  0  0
  183.6280  178.8300  145.2160 C   0  0  0  0  0  3  0  0  0  0  0  0
  184.8310  178.5210  144.7170 C   0  0  0  0  0  3  0  0  0  0  0  0
  186.3580  178.3770  141.2870 C   0  0  0  0  0  0  0  0  0  0  0  0
  183.7580  178.1790  142.4220 C   0  0  2  0  0  3  0  0  0  0  0  0
  187.7140  178.3550  140.6980 C   0  0  0  0  0  0  0  0  0  0  0  0
  186.7980  178.3570  138.4110 C   0  0  0  0  0  2  0  0  0  0  0  0
  182.4680  179.0790  144.3290 C   0  0  0  0  0  3  0  0  0  0  0  0
  182.8630  178.8650  140.1650 C   0  0  0  0  0  0  0  0  0  0  0  0
  181.4110  179.1640  142.1290 C   0  0  0  0  0  3  0  0  0  0  0  0
  186.1760  178.4110  142.7160 N   0  0  0  0  0  0  0  0  0  0  0  0
  184.3990  178.7660  138.2900 N   0  0  0  0  0  0  0  0  0  0  0  0
  183.0650  178.9380  138.8200 C   0  0  0  0  0  0  0  0  0  0  0  0
  187.8810  178.3840  139.4040 N   0  0  0  0  0  0  0  0  0  0  0  0
  185.2940  178.4830  140.4820 C   0  0  0  0  0  0  0  0  0  0  0  0
  181.5530  179.1530  140.7990 C   0  0  0  0  0  3  0  0  0  0  0  0
  180.4850  178.5000  136.0530 C   0  0  0  0  0  0  0  0  0  0  0  0
  179.9820  179.7990  135.9530 C   0  0  0  0  0  3  0  0  0  0  0  0
  181.9770  179.2060  137.8430 C   0  0  0  0  0  0  0  0  0  0  0  0
  180.4780  180.8050  136.7850 C   0  0  0  0  0  3  0  0  0  0  0  0
  181.4810  178.2070  136.9880 C   0  0  0  0  0  3  0  0  0  0  0  0
  181.4740  180.5100  137.7210 C   0  0  0  0  0  3  0  0  0  0  0  0
  179.9970  177.5000  135.2230 O   0  0  0  0  0  1  0  0  0  0  0  0
  188.9150  178.3880  141.5840 C   0  0  0  0  0  2  0  0  0  0  0  0
  188.2330  176.1540  143.4320 C   0  0  0  0  0  1  0  0  0  0  0  0
  189.5840  177.0870  141.5710 N   0  0  0  0  0  0  0  0  0  0  0  0
  189.6230  176.4990  142.9240 C   0  0  1  0  0  3  0  0  0  0  0  0
  191.5630  178.1050  143.2980 C   0  0  0  0  0  2  0  0  0  0  0  0
  192.0570  177.3740  142.0570 C   0  0  0  0  0  2  0  0  0  0  0  0
  190.9360  177.2680  141.0090 C   0  0  0  0  0  2  0  0  0  0  0  0
  190.3900  177.3610  143.9390 C   0  0  0  0  0  2  0  0  0  0  0  0
  1 11  2  0  0  0  0
  2  6  1  0  0  0  0
  3  8  1  0  0  0  0
  4 18  1  0  0  0  0
  6  5  2  0  0  0  0
  7 14  1  0  0  0  0
  8  1  1  1  0  0  0
  8  2  1  0  0  0  0
  9  7  1  0  0  0  0
  9 27  1  0  0  0  0
 10  4  1  0  0  0  0
 10 17  1  0  0  0  0
 11  5  1  0  0  0  0
 12 19  1  0  0  0  0
 12  3  1  0  0  0  0
 13  1  1  0  0  0  0
 14  2  2  0  0  0  0
 15 16  1  0  0  0  0
 15  4  2  0  0  0  0
 16 12  2  0  0  0  0
 17  9  2  0  0  0  0
 18  3  1  0  0  0  0
 18  7  2  0  0  0  0
 19 13  2  0  0  0  0
 20 24  1  0  0  0  0
 21 20  2  0  0  0  0
 21 23  1  0  0  0  0
 22 16  1  0  0  0  0
 23 25  2  0  0  0  0
 24 22  2  0  0  0  0
 25 22  1  0  0  0  0
 26 20  1  0  0  0  0
 29 27  1  0  0  0  0
 29 30  1  0  0  0  0
 30 28  1  1  0  0  0
 30 34  1  0  0  0  0
 31 34  1  0  0  0  0
 32 31  1  0  0  0  0
 33 29  1  0  0  0  0
 33 32  1  0  0  0  0
M  END
>  <MODEL>
7

>  <REMARK>
 VINA RESULT:      -9.3      3.744      8.147
  Name = 
  3 active torsions:
  status: ('A' for Active; 'I' for Inactive)
    1  A    between atoms: C_3  and  N_13
    2  A    between atoms: C_3  and  C_17
    3  A    between atoms: C_12  and  C_28
                            x       y       z     vdW  Elec       q    Type
                         _______ _______ _______ _____ _____    ______ ____

>  <TORSDO>
F 3

$$$$
=
 OpenBabel10262423523D

 34 40  0  0  1  0  0  0  0  0999 V2000
  190.0590  177.4790  140.0620 C   0  0  0  0  0  0  0  0  0  0  0  0
  187.7510  177.9940  139.2330 C   0  0  0  0  0  0  0  0  0  0  0  0
  188.1800  177.6790  141.6340 N   0  0  0  0  0  0  0  0  0  0  0  0
  186.3530  178.1250  143.2550 C   0  0  0  0  0  0  0  0  0  0  0  0
  189.6270  177.9800  137.6970 C   0  0  0  0  0  3  0  0  0  0  0  0
  188.3090  178.1280  137.8810 C   0  0  0  0  0  3  0  0  0  0  0  0
  186.0290  178.4080  140.8530 C   0  0  0  0  0  0  0  0  0  0  0  0
  188.5800  177.2900  140.2810 C   0  0  2  0  0  3  0  0  0  0  0  0
  184.6540  178.8750  141.1320 C   0  0  0  0  0  0  0  0  0  0  0  0
  184.9080  178.4150  143.5390 C   0  0  0  0  0  3  0  0  0  0  0  0
  190.5390  177.7230  138.8360 C   0  0  0  0  0  3  0  0  0  0  0  0
  189.0680  177.4700  142.7490 C   0  0  0  0  0  0  0  0  0  0  0  0
  190.9710  177.2890  141.2010 C   0  0  0  0  0  3  0  0  0  0  0  0
  186.5610  178.4400  139.5150 N   0  0  0  0  0  0  0  0  0  0  0  0
  187.1820  177.8710  144.2230 N   0  0  0  0  0  0  0  0  0  0  0  0
  188.5770  177.5480  144.0170 C   0  0  0  0  0  0  0  0  0  0  0  0
  184.1910  178.9010  142.3510 N   0  0  0  0  0  0  0  0  0  0  0  0
  186.8230  178.0600  141.8730 C   0  0  1  0  0  3  0  0  0  0  0  0
  190.5070  177.2680  142.4550 C   0  0  0  0  0  3  0  0  0  0  0  0
  189.8280  177.5980  147.6140 C   0  0  0  0  0  0  0  0  0  0  0  0
  191.0700  176.9750  147.4710 C   0  0  0  0  0  3  0  0  0  0  0  0
  189.4090  177.3320  145.2310 C   0  0  0  0  0  0  0  0  0  0  0  0
  191.4890  176.5380  146.2120 C   0  0  0  0  0  3  0  0  0  0  0  0
  189.0060  177.7820  146.5000 C   0  0  0  0  0  3  0  0  0  0  0  0
  190.6650  176.7210  145.0980 C   0  0  0  0  0  3  0  0  0  0  0  0
  189.4120  178.0380  148.8630 O   0  0  0  0  0  1  0  0  0  0  0  0
  183.8060  179.4070  140.0240 C   0  0  0  0  0  2  0  0  0  0  0  0
  183.3930  177.6630  137.6450 C   0  0  0  0  0  1  0  0  0  0  0  0
  182.6340  178.5520  139.8350 N   0  0  0  0  0  0  0  0  0  0  0  0
  182.3080  178.4120  138.4030 C   0  0  1  0  0  3  0  0  0  0  0  0
  181.2630  180.7190  138.6660 C   0  0  0  0  0  2  0  0  0  0  0  0
  180.5270  179.9650  139.7660 C   0  0  0  0  0  2  0  0  0  0  0  0
  181.5120  179.1290  140.6010 C   0  0  0  0  0  2  0  0  0  0  0  0
  181.9750  179.7480  137.7210 C   0  0  0  0  0  2  0  0  0  0  0  0
  1  8  1  0  0  0  0
  1 13  1  0  0  0  0
  2 14  2  0  0  0  0
  3 18  1  0  0  0  0
  3 12  1  0  0  0  0
  4 10  1  0  0  0  0
  4 15  2  0  0  0  0
  5  6  2  0  0  0  0
  5 11  1  0  0  0  0
  6  2  1  0  0  0  0
  7  9  2  0  0  0  0
  8  2  1  6  0  0  0
  8  3  1  0  0  0  0
  9 17  1  0  0  0  0
 11  1  2  0  0  0  0
 12 16  2  0  0  0  0
 13 19  2  0  0  0  0
 14  7  1  0  0  0  0
 16 15  1  0  0  0  0
 16 22  1  0  0  0  0
 17 10  2  0  0  0  0
 18  7  1  1  0  0  0
 18  4  1  0  0  0  0
 19 12  1  0  0  0  0
 20 26  1  0  0  0  0
 21 20  1  0  0  0  0
 22 24  1  0  0  0  0
 23 21  2  0  0  0  0
 24 20  2  0  0  0  0
 25 22  2  0  0  0  0
 25 23  1  0  0  0  0
 27  9  1  0  0  0  0
 29 27  1  0  0  0  0
 29 33  1  0  0  0  0
 30 28  1  6  0  0  0
 30 29  1  0  0  0  0
 31 32  1  0  0  0  0
 32 33  1  0  0  0  0
 34 30  1  0  0  0  0
 34 31  1  0  0  0  0
M  END
>  <MODEL>
8

>  <REMARK>
 VINA RESULT:      -9.2      1.860      4.807
  Name = 
  3 active torsions:
  status: ('A' for Active; 'I' for Inactive)
    1  A    between atoms: C_3  and  N_13
    2  A    between atoms: C_3  and  C_17
    3  A    between atoms: C_12  and  C_28
                            x       y       z     vdW  Elec       q    Type
                         _______ _______ _______ _____ _____    ______ ____

>  <TORSDO>
F 3

$$$$
=
 OpenBabel10262423523D

 34 40  0  0  1  0  0  0  0  0999 V2000
  188.8680  177.1090  143.4930 C   0  0  0  0  0  0  0  0  0  0  0  0
  186.6720  178.2080  142.9920 C   0  0  0  0  0  0  0  0  0  0  0  0
  188.2450  177.6660  141.1810 N   0  0  0  0  0  0  0  0  0  0  0  0
  187.5300  177.9890  138.8260 C   0  0  0  0  0  0  0  0  0  0  0  0
  187.1970  177.4980  145.2510 C   0  0  0  0  0  3  0  0  0  0  0  0
  186.3340  178.0910  144.4170 C   0  0  0  0  0  3  0  0  0  0  0  0
  186.0450  178.4960  140.6930 C   0  0  0  0  0  0  0  0  0  0  0  0
  188.1190  178.0530  142.5870 C   0  0  2  0  0  3  0  0  0  0  0  0
  184.9950  178.8480  139.7130 C   0  0  0  0  0  0  0  0  0  0  0  0
  186.5440  178.5190  137.8270 C   0  0  0  0  0  2  0  0  0  0  0  0
  188.4700  176.9220  144.7570 C   0  0  0  0  0  3  0  0  0  0  0  0
  189.4620  177.0710  140.6910 C   0  0  0  0  0  0  0  0  0  0  0  0
  190.1000  176.4800  142.9930 C   0  0  0  0  0  3  0  0  0  0  0  0
  185.7570  178.4710  142.1040 N   0  0  0  0  0  0  0  0  0  0  0  0
  188.6690  177.4950  138.4380 N   0  0  0  0  0  0  0  0  0  0  0  0
  189.6780  177.0020  139.3480 C   0  0  0  0  0  0  0  0  0  0  0  0
  185.2380  178.8140  138.4320 N   0  0  0  0  0  0  0  0  0  0  0  0
  187.2410  178.0860  140.2540 C   0  0  0  0  0  0  0  0  0  0  0  0
  190.3870  176.4760  141.6870 C   0  0  0  0  0  3  0  0  0  0  0  0
  192.0640  174.6870  137.4880 C   0  0  0  0  0  0  0  0  0  0  0  0
  193.2840  175.3290  137.7140 C   0  0  0  0  0  3  0  0  0  0  0  0
  190.9080  176.4220  138.7470 C   0  0  0  0  0  0  0  0  0  0  0  0
  193.3230  176.5080  138.4610 C   0  0  0  0  0  3  0  0  0  0  0  0
  190.8850  175.2270  138.0080 C   0  0  0  0  0  3  0  0  0  0  0  0
  192.1430  177.0480  138.9790 C   0  0  0  0  0  3  0  0  0  0  0  0
  192.0230  173.5120  136.7510 O   0  0  0  0  0  1  0  0  0  0  0  0
  183.6130  179.1640  140.1800 C   0  0  0  0  0  2  0  0  0  0  0  0
  181.9250  180.9280  138.4740 C   0  0  0  0  0  1  0  0  0  0  0  0
  182.6310  178.6670  139.2150 N   0  0  0  0  0  0  0  0  0  0  0  0
  181.4980  179.6040  139.0850 C   0  0  1  0  0  3  0  0  0  0  0  0
  180.6980  178.5550  141.2630 C   0  0  0  0  0  2  0  0  0  0  0  0
  180.8510  177.3060  140.4050 C   0  0  0  0  0  2  0  0  0  0  0  0
  182.1910  177.3280  139.6500 C   0  0  0  0  0  2  0  0  0  0  0  0
  180.7310  179.8180  140.3990 C   0  0  0  0  0  2  0  0  0  0  0  0
  1 11  2  0  0  0  0
  2  6  1  0  0  0  0
  3  8  1  0  0  0  0
  4 18  1  0  0  0  0
  6  5  2  0  0  0  0
  7 14  1  0  0  0  0
  8  2  1  1  0  0  0
  8  1  1  0  0  0  0
  9 27  1  0  0  0  0
  9  7  1  0  0  0  0
 10 17  1  0  0  0  0
 10  4  1  0  0  0  0
 11  5  1  0  0  0  0
 12  3  1  0  0  0  0
 12 19  1  0  0  0  0
 13  1  1  0  0  0  0
 14  2  2  0  0  0  0
 15  4  2  0  0  0  0
 15 16  1  0  0  0  0
 16 12  2  0  0  0  0
 17  9  2  0  0  0  0
 18  7  2  0  0  0  0
 18  3  1  0  0  0  0
 19 13  2  0  0  0  0
 20 21  2  0  0  0  0
 20 24  1  0  0  0  0
 21 23  1  0  0  0  0
 22 25  1  0  0  0  0
 22 16  1  0  0  0  0
 23 25  2  0  0  0  0
 24 22  2  0  0  0  0
 26 20  1  0  0  0  0
 29 33  1  0  0  0  0
 29 27  1  0  0  0  0
 30 28  1  1  0  0  0
 30 29  1  0  0  0  0
 30 34  1  0  0  0  0
 32 31  1  0  0  0  0
 33 32  1  0  0  0  0
 34 31  1  0  0  0  0
M  END
>  <MODEL>
9

>  <REMARK>
 VINA RESULT:      -9.2      3.074      6.260
  Name = 
  3 active torsions:
  status: ('A' for Active; 'I' for Inactive)
    1  A    between atoms: C_3  and  N_13
    2  A    between atoms: C_3  and  C_17
    3  A    between atoms: C_12  and  C_28
                            x       y       z     vdW  Elec       q    Type
                         _______ _______ _______ _____ _____    ______ ____

>  <TORSDO>
F 3

$$$$
