=
 OpenBabel10272401543D

 28 32  0  0  0  0  0  0  0  0999 V2000
  189.7100  176.9720  142.6410 N   0  0  0  0  0  0  0  0  0  0  0  0
  184.6550  178.3770  142.6200 C   0  0  0  0  0  3  0  0  0  0  0  0
  188.7570  177.5570  147.4570 C   0  0  0  0  0  1  0  0  0  0  0  0
  184.2810  178.6530  145.0390 C   0  0  0  0  0  0  0  0  0  0  0  0
  186.5120  177.9670  144.3480 C   0  0  0  0  0  0  0  0  0  0  0  0
  182.4460  179.0640  143.3550 C   0  0  0  0  0  0  0  0  0  0  0  0
  185.1180  178.3420  144.0240 C   0  0  0  0  0  0  0  0  0  0  0  0
  186.0570  178.2680  146.7040 C   0  0  0  0  0  3  0  0  0  0  0  0
  182.8440  179.0470  144.8040 C   0  0  0  0  0  2  0  0  0  0  0  0
  189.2180  177.2660  145.0000 C   0  0  0  0  0  0  0  0  0  0  0  0
  187.3920  177.6450  143.3970 C   0  0  0  0  0  3  0  0  0  0  0  0
  184.7410  178.6180  146.3660 O   0  0  0  0  0  0  0  0  0  0  0  0
  191.5930  177.1100  144.1740 C   0  0  0  0  0  2  0  0  0  0  0  0
  188.3020  177.5880  146.0700 N   0  0  0  0  0  0  0  0  0  0  0  0
  190.6340  176.8510  145.3300 C   0  0  0  0  0  2  0  0  0  0  0  0
  181.2710  179.3810  143.0390 O   0  0  0  0  0  0  0  0  0  0  0  0
  183.4070  178.7140  142.3050 C   0  0  0  0  0  3  0  0  0  0  0  0
  186.9440  177.9480  145.7560 C   0  0  0  0  0  0  0  0  0  0  0  0
  191.0390  176.4420  142.9280 C   0  0  0  0  0  2  0  0  0  0  0  0
  188.7920  177.2750  143.7140 C   0  0  0  0  0  0  0  0  0  0  0  0
  189.3870  177.3030  141.2580 C   0  0  0  0  0  2  0  0  0  0  0  0
  190.5550  177.0290  140.3720 C   0  0  0  0  0  0  0  0  0  0  0  0
  192.7330  176.5600  138.6780 C   0  0  0  0  0  0  0  0  0  0  0  0
  191.8020  177.5970  140.6590 C   0  0  0  0  0  3  0  0  0  0  0  0
  190.3980  176.2340  139.2310 C   0  0  0  0  0  3  0  0  0  0  0  0
  191.4870  175.9970  138.3860 C   0  0  0  0  0  3  0  0  0  0  0  0
  193.7870  176.3320  137.8590 F   0  0  0  0  0  0  0  0  0  0  0  0
  192.8900  177.3610  139.8140 C   0  0  0  0  0  3  0  0  0  0  0  0
  1 19  1  0  0  0  0
  1 20  1  0  0  0  0
  2  7  1  0  0  0  0
  4 12  1  0  0  0  0
  5 18  1  0  0  0  0
  6  9  1  0  0  0  0
  7  5  1  0  0  0  0
  7  4  2  0  0  0  0
  9  4  1  0  0  0  0
 10 15  1  0  0  0  0
 10 14  1  0  0  0  0
 11 20  1  0  0  0  0
 11  5  2  0  0  0  0
 12  8  1  0  0  0  0
 13 15  1  0  0  0  0
 14  3  1  0  0  0  0
 16  6  2  0  0  0  0
 17  2  2  0  0  0  0
 17  6  1  0  0  0  0
 18 14  1  0  0  0  0
 18  8  2  0  0  0  0
 19 13  1  0  0  0  0
 20 10  2  0  0  0  0
 21  1  1  0  0  0  0
 22 24  1  0  0  0  0
 22 21  1  0  0  0  0
 23 28  1  0  0  0  0
 25 22  2  0  0  0  0
 26 23  2  0  0  0  0
 26 25  1  0  0  0  0
 27 23  1  0  0  0  0
 28 24  2  0  0  0  0
M  END
>  <MODEL>
1

>  <REMARK>
 VINA RESULT:     -10.6      0.000      0.000
  Name = 
  2 active torsions:
  status: ('A' for Active; 'I' for Inactive)
    1  A    between atoms: N_1  and  C_2
    2  A    between atoms: C_2  and  C_3
                            x       y       z     vdW  Elec       q    Type
                         _______ _______ _______ _____ _____    ______ ____

>  <TORSDO>
F 2

$$$$
=
 OpenBabel10272401543D

 28 32  0  0  0  0  0  0  0  0999 V2000
  187.2090  178.2180  141.0870 N   0  0  0  0  0  0  0  0  0  0  0  0
  190.5330  177.0280  144.9680 C   0  0  0  0  0  3  0  0  0  0  0  0
  184.3580  178.6860  145.1000 C   0  0  0  0  0  1  0  0  0  0  0  0
  189.0310  177.2760  146.9050 C   0  0  0  0  0  0  0  0  0  0  0  0
  188.0710  177.7200  144.7120 C   0  0  0  0  0  0  0  0  0  0  0  0
  191.4460  176.5920  147.1740 C   0  0  0  0  0  0  0  0  0  0  0  0
  189.2170  177.3370  145.5670 C   0  0  0  0  0  0  0  0  0  0  0  0
  186.6680  177.9340  146.6700 C   0  0  0  0  0  3  0  0  0  0  0  0
  190.1410  176.8950  147.8530 C   0  0  0  0  0  2  0  0  0  0  0  0
  185.8280  178.4410  143.0730 C   0  0  0  0  0  0  0  0  0  0  0  0
  188.1830  177.8030  143.3840 C   0  0  0  0  0  3  0  0  0  0  0  0
  187.7730  177.5700  147.4540 O   0  0  0  0  0  0  0  0  0  0  0  0
  184.7990  178.3330  140.7750 C   0  0  0  0  0  2  0  0  0  0  0  0
  185.6570  178.3840  144.5060 N   0  0  0  0  0  0  0  0  0  0  0  0
  184.6690  178.8630  142.1980 C   0  0  0  0  0  2  0  0  0  0  0  0
  192.4420  176.2590  147.8660 O   0  0  0  0  0  0  0  0  0  0  0  0
  191.5760  176.6790  145.7160 C   0  0  0  0  0  3  0  0  0  0  0  0
  186.7720  178.0160  145.3390 C   0  0  0  0  0  0  0  0  0  0  0  0
  186.1530  178.7460  140.2280 C   0  0  0  0  0  2  0  0  0  0  0  0
  187.0380  178.1800  142.5210 C   0  0  0  0  0  0  0  0  0  0  0  0
  188.3750  177.6170  140.4510 C   0  0  0  0  0  2  0  0  0  0  0  0
  188.2930  177.7650  138.9690 C   0  0  0  0  0  0  0  0  0  0  0  0
  188.1850  178.0120  136.1840 C   0  0  0  0  0  0  0  0  0  0  0  0
  187.5510  176.8520  138.2130 C   0  0  0  0  0  3  0  0  0  0  0  0
  188.9880  178.7980  138.3290 C   0  0  0  0  0  3  0  0  0  0  0  0
  188.9320  178.9220  136.9380 C   0  0  0  0  0  3  0  0  0  0  0  0
  188.1310  178.1320  134.8360 F   0  0  0  0  0  0  0  0  0  0  0  0
  187.4950  176.9760  136.8210 C   0  0  0  0  0  3  0  0  0  0  0  0
  1 20  1  0  0  0  0
  2  7  1  0  0  0  0
  2 17  2  0  0  0  0
  4 12  1  0  0  0  0
  4  9  1  0  0  0  0
  5 18  1  0  0  0  0
  5  7  1  0  0  0  0
  6  9  1  0  0  0  0
  6 16  2  0  0  0  0
  7  4  2  0  0  0  0
  8 12  1  0  0  0  0
 10 14  1  0  0  0  0
 11  5  2  0  0  0  0
 13 15  1  0  0  0  0
 14  3  1  0  0  0  0
 14 18  1  0  0  0  0
 15 10  1  0  0  0  0
 17  6  1  0  0  0  0
 18  8  2  0  0  0  0
 19 13  1  0  0  0  0
 19  1  1  0  0  0  0
 20 10  2  0  0  0  0
 20 11  1  0  0  0  0
 21  1  1  0  0  0  0
 22 21  1  0  0  0  0
 23 28  2  0  0  0  0
 23 26  1  0  0  0  0
 24 22  2  0  0  0  0
 25 22  1  0  0  0  0
 26 25  2  0  0  0  0
 27 23  1  0  0  0  0
 28 24  1  0  0  0  0
M  END
>  <MODEL>
2

>  <REMARK>
 VINA RESULT:     -10.2      2.949      5.671
  Name = 
  2 active torsions:
  status: ('A' for Active; 'I' for Inactive)
    1  A    between atoms: N_1  and  C_2
    2  A    between atoms: C_2  and  C_3
                            x       y       z     vdW  Elec       q    Type
                         _______ _______ _______ _____ _____    ______ ____

>  <TORSDO>
F 2

$$$$
=
 OpenBabel10272401543D

 28 32  0  0  0  0  0  0  0  0999 V2000
  189.8420  177.7250  140.3120 N   0  0  0  0  0  0  0  0  0  0  0  0
  185.5820  178.5680  143.2550 C   0  0  0  0  0  3  0  0  0  0  0  0
  191.5060  176.7800  144.8710 C   0  0  0  0  0  1  0  0  0  0  0  0
  186.5060  178.0870  145.4870 C   0  0  0  0  0  0  0  0  0  0  0  0
  188.0270  177.8560  143.6000 C   0  0  0  0  0  0  0  0  0  0  0  0
  184.1020  178.7880  145.1660 C   0  0  0  0  0  0  0  0  0  0  0  0
  186.6900  178.1700  144.1510 C   0  0  0  0  0  0  0  0  0  0  0  0
  188.8500  177.4100  145.8300 C   0  0  0  0  0  3  0  0  0  0  0  0
  185.1780  178.3890  146.1360 C   0  0  0  0  0  2  0  0  0  0  0  0
  190.6360  177.2670  142.5600 C   0  0  0  0  0  0  0  0  0  0  0  0
  188.2790  177.9160  142.2910 C   0  0  0  0  0  3  0  0  0  0  0  0
  187.5720  177.7110  146.3220 O   0  0  0  0  0  0  0  0  0  0  0  0
  192.2480  177.5940  140.6510 C   0  0  0  0  0  2  0  0  0  0  0  0
  190.4130  177.1690  143.9840 N   0  0  0  0  0  0  0  0  0  0  0  0
  191.9920  176.9160  141.9910 C   0  0  0  0  0  2  0  0  0  0  0  0
  182.9530  179.0670  145.5960 O   0  0  0  0  0  0  0  0  0  0  0  0
  184.3720  178.8570  143.7270 C   0  0  0  0  0  3  0  0  0  0  0  0
  189.1110  177.4700  144.5200 C   0  0  0  0  0  0  0  0  0  0  0  0
  191.0950  177.2680  139.7180 C   0  0  0  0  0  2  0  0  0  0  0  0
  189.6180  177.6090  141.7340 C   0  0  0  0  0  0  0  0  0  0  0  0
  188.8860  178.4130  139.4520 C   0  0  0  0  0  2  0  0  0  0  0  0
  188.7600  177.7050  138.1450 C   0  0  0  0  0  0  0  0  0  0  0  0
  188.4700  176.3980  135.6880 C   0  0  0  0  0  0  0  0  0  0  0  0
  189.1590  178.3380  136.9630 C   0  0  0  0  0  3  0  0  0  0  0  0
  188.2070  176.4200  138.0950 C   0  0  0  0  0  3  0  0  0  0  0  0
  188.0640  175.7660  136.8680 C   0  0  0  0  0  3  0  0  0  0  0  0
  188.3310  175.7640  134.4990 F   0  0  0  0  0  0  0  0  0  0  0  0
  189.0160  177.6840  135.7350 C   0  0  0  0  0  3  0  0  0  0  0  0
  1 20  1  0  0  0  0
  2 17  2  0  0  0  0
  2  7  1  0  0  0  0
  4  9  1  0  0  0  0
  4 12  1  0  0  0  0
  5  7  1  0  0  0  0
  5 18  1  0  0  0  0
  6 16  2  0  0  0  0
  6  9  1  0  0  0  0
  7  4  2  0  0  0  0
  8 12  1  0  0  0  0
 10 14  1  0  0  0  0
 11  5  2  0  0  0  0
 13 15  1  0  0  0  0
 14 18  1  0  0  0  0
 14  3  1  0  0  0  0
 15 10  1  0  0  0  0
 17  6  1  0  0  0  0
 18  8  2  0  0  0  0
 19  1  1  0  0  0  0
 19 13  1  0  0  0  0
 20 11  1  0  0  0  0
 20 10  2  0  0  0  0
 21  1  1  0  0  0  0
 22 21  1  0  0  0  0
 23 28  2  0  0  0  0
 23 26  1  0  0  0  0
 24 22  2  0  0  0  0
 25 22  1  0  0  0  0
 26 25  2  0  0  0  0
 27 23  1  0  0  0  0
 28 24  1  0  0  0  0
M  END
>  <MODEL>
3

>  <REMARK>
 VINA RESULT:     -10.1      2.284      3.271
  Name = 
  2 active torsions:
  status: ('A' for Active; 'I' for Inactive)
    1  A    between atoms: N_1  and  C_2
    2  A    between atoms: C_2  and  C_3
                            x       y       z     vdW  Elec       q    Type
                         _______ _______ _______ _____ _____    ______ ____

>  <TORSDO>
F 2

$$$$
=
 OpenBabel10272401543D

 28 32  0  0  0  0  0  0  0  0999 V2000
  186.8980  178.4590  140.5570 N   0  0  0  0  0  0  0  0  0  0  0  0
  187.2170  178.0420  145.7770 C   0  0  0  0  0  3  0  0  0  0  0  0
  191.5490  176.9130  141.2100 C   0  0  0  0  0  1  0  0  0  0  0  0
  189.5510  177.2850  146.0010 C   0  0  0  0  0  0  0  0  0  0  0  0
  188.7360  177.6650  143.7380 C   0  0  0  0  0  0  0  0  0  0  0  0
  188.0740  177.6550  148.0150 C   0  0  0  0  0  0  0  0  0  0  0  0
  188.5240  177.6550  145.2040 C   0  0  0  0  0  0  0  0  0  0  0  0
  191.0170  176.9250  144.0530 C   0  0  0  0  0  3  0  0  0  0  0  0
  189.4270  177.2450  147.5040 C   0  0  0  0  0  2  0  0  0  0  0  0
  189.1790  177.7000  140.9030 C   0  0  0  0  0  0  0  0  0  0  0  0
  187.7660  178.0160  142.8910 C   0  0  0  0  0  3  0  0  0  0  0  0
  190.7860  176.9240  145.4370 O   0  0  0  0  0  0  0  0  0  0  0  0
  188.4400  178.6390  138.6840 C   0  0  0  0  0  2  0  0  0  0  0  0
  190.2570  177.2940  141.7740 N   0  0  0  0  0  0  0  0  0  0  0  0
  189.3810  177.6810  139.4050 C   0  0  0  0  0  2  0  0  0  0  0  0
  187.8570  177.6630  149.2540 O   0  0  0  0  0  0  0  0  0  0  0  0
  187.0050  178.0440  147.0910 C   0  0  0  0  0  3  0  0  0  0  0  0
  190.0510  177.2790  143.1990 C   0  0  0  0  0  0  0  0  0  0  0  0
  187.0160  178.3260  139.1080 C   0  0  0  0  0  2  0  0  0  0  0  0
  187.9730  178.0350  141.4240 C   0  0  0  0  0  0  0  0  0  0  0  0
  185.7260  179.1440  141.0900 C   0  0  0  0  0  2  0  0  0  0  0  0
  184.5080  178.7670  140.3170 C   0  0  0  0  0  0  0  0  0  0  0  0
  182.1900  178.0930  138.9020 C   0  0  0  0  0  0  0  0  0  0  0  0
  184.1060  179.5380  139.2210 C   0  0  0  0  0  3  0  0  0  0  0  0
  183.7430  177.6630  140.7110 C   0  0  0  0  0  3  0  0  0  0  0  0
  182.5860  177.3250  140.0020 C   0  0  0  0  0  3  0  0  0  0  0  0
  181.0690  177.7650  138.2160 F   0  0  0  0  0  0  0  0  0  0  0  0
  182.9500  179.2000  138.5120 C   0  0  0  0  0  3  0  0  0  0  0  0
  1 21  1  0  0  0  0
  1 20  1  0  0  0  0
  2 17  2  0  0  0  0
  3 14  1  0  0  0  0
  4  9  1  0  0  0  0
  5  7  1  0  0  0  0
  6 16  2  0  0  0  0
  7  2  1  0  0  0  0
  7  4  2  0  0  0  0
  8 12  1  0  0  0  0
  9  6  1  0  0  0  0
 10 20  2  0  0  0  0
 10 14  1  0  0  0  0
 11  5  2  0  0  0  0
 12  4  1  0  0  0  0
 13 19  1  0  0  0  0
 13 15  1  0  0  0  0
 14 18  1  0  0  0  0
 15 10  1  0  0  0  0
 17  6  1  0  0  0  0
 18  5  1  0  0  0  0
 18  8  2  0  0  0  0
 19  1  1  0  0  0  0
 20 11  1  0  0  0  0
 22 25  1  0  0  0  0
 22 21  1  0  0  0  0
 23 26  1  0  0  0  0
 24 22  2  0  0  0  0
 26 25  2  0  0  0  0
 27 23  1  0  0  0  0
 28 23  2  0  0  0  0
 28 24  1  0  0  0  0
M  END
>  <MODEL>
4

>  <REMARK>
 VINA RESULT:      -9.9      3.693      6.666
  Name = 
  2 active torsions:
  status: ('A' for Active; 'I' for Inactive)
    1  A    between atoms: N_1  and  C_2
    2  A    between atoms: C_2  and  C_3
                            x       y       z     vdW  Elec       q    Type
                         _______ _______ _______ _____ _____    ______ ____

>  <TORSDO>
F 2

$$$$
=
 OpenBabel10272401543D

 28 32  0  0  0  0  0  0  0  0999 V2000
  189.4770  177.6000  140.7320 N   0  0  0  0  0  0  0  0  0  0  0  0
  184.5540  178.5990  142.2450 C   0  0  0  0  0  3  0  0  0  0  0  0
  189.7990  177.2690  145.6550 C   0  0  0  0  0  1  0  0  0  0  0  0
  184.8170  178.4240  144.6880 C   0  0  0  0  0  0  0  0  0  0  0  0
  186.8090  178.0380  143.3430 C   0  0  0  0  0  0  0  0  0  0  0  0
  182.5950  178.9780  143.6260 C   0  0  0  0  0  0  0  0  0  0  0  0
  185.3680  178.3570  143.4560 C   0  0  0  0  0  0  0  0  0  0  0  0
  186.9750  177.8920  145.7510 C   0  0  0  0  0  3  0  0  0  0  0  0
  183.3570  178.7420  144.8990 C   0  0  0  0  0  2  0  0  0  0  0  0
  189.6100  177.4430  143.1510 C   0  0  0  0  0  0  0  0  0  0  0  0
  187.4190  177.9550  142.1580 C   0  0  0  0  0  3  0  0  0  0  0  0
  185.6080  178.1940  145.8260 O   0  0  0  0  0  0  0  0  0  0  0  0
  191.6910  177.6130  141.7400 C   0  0  0  0  0  2  0  0  0  0  0  0
  188.9960  177.5040  144.4580 N   0  0  0  0  0  0  0  0  0  0  0  0
  191.0740  177.0860  143.0310 C   0  0  0  0  0  2  0  0  0  0  0  0
  181.3690  179.2560  143.6810 O   0  0  0  0  0  0  0  0  0  0  0  0
  183.2580  178.8900  142.3220 C   0  0  0  0  0  3  0  0  0  0  0  0
  187.5930  177.8090  144.5680 C   0  0  0  0  0  0  0  0  0  0  0  0
  190.8500  177.1310  140.5720 C   0  0  0  0  0  2  0  0  0  0  0  0
  188.8630  177.6420  142.0380 C   0  0  0  0  0  0  0  0  0  0  0  0
  188.7960  178.1400  139.5610 C   0  0  0  0  0  2  0  0  0  0  0  0
  188.9800  177.2360  138.3900 C   0  0  0  0  0  0  0  0  0  0  0  0
  189.2960  175.5760  136.1590 C   0  0  0  0  0  0  0  0  0  0  0  0
  190.1070  177.3690  137.5710 C   0  0  0  0  0  3  0  0  0  0  0  0
  188.0070  176.2770  138.0860 C   0  0  0  0  0  3  0  0  0  0  0  0
  188.1660  175.4460  136.9720 C   0  0  0  0  0  3  0  0  0  0  0  0
  189.4500  174.7720  135.0800 F   0  0  0  0  0  0  0  0  0  0  0  0
  190.2660  176.5380  136.4580 C   0  0  0  0  0  3  0  0  0  0  0  0
  1 20  1  0  0  0  0
  2 17  2  0  0  0  0
  2  7  1  0  0  0  0
  4  9  1  0  0  0  0
  4 12  1  0  0  0  0
  5  7  1  0  0  0  0
  5 18  1  0  0  0  0
  6 16  2  0  0  0  0
  6  9  1  0  0  0  0
  7  4  2  0  0  0  0
  8 12  1  0  0  0  0
 10 14  1  0  0  0  0
 11  5  2  0  0  0  0
 13 15  1  0  0  0  0
 14 18  1  0  0  0  0
 14  3  1  0  0  0  0
 15 10  1  0  0  0  0
 17  6  1  0  0  0  0
 18  8  2  0  0  0  0
 19  1  1  0  0  0  0
 19 13  1  0  0  0  0
 20 11  1  0  0  0  0
 20 10  2  0  0  0  0
 21  1  1  0  0  0  0
 22 21  1  0  0  0  0
 23 28  2  0  0  0  0
 23 26  1  0  0  0  0
 24 22  2  0  0  0  0
 25 22  1  0  0  0  0
 26 25  2  0  0  0  0
 27 23  1  0  0  0  0
 28 24  1  0  0  0  0
M  END
>  <MODEL>
5

>  <REMARK>
 VINA RESULT:      -9.6      1.815      2.359
  Name = 
  2 active torsions:
  status: ('A' for Active; 'I' for Inactive)
    1  A    between atoms: N_1  and  C_2
    2  A    between atoms: C_2  and  C_3
                            x       y       z     vdW  Elec       q    Type
                         _______ _______ _______ _____ _____    ______ ____

>  <TORSDO>
F 2

$$$$
=
 OpenBabel10272401543D

 28 32  0  0  0  0  0  0  0  0999 V2000
  189.9350  177.7250  139.6600 N   0  0  0  0  0  0  0  0  0  0  0  0
  191.2710  176.8030  144.6490 C   0  0  0  0  0  3  0  0  0  0  0  0
  185.6580  178.4160  142.0420 C   0  0  0  0  0  1  0  0  0  0  0  0
  189.0930  177.1580  145.7440 C   0  0  0  0  0  0  0  0  0  0  0  0
  189.1660  177.4590  143.3290 C   0  0  0  0  0  0  0  0  0  0  0  0
  191.1510  176.5110  147.0550 C   0  0  0  0  0  0  0  0  0  0  0  0
  189.8310  177.1380  144.6120 C   0  0  0  0  0  0  0  0  0  0  0  0
  187.0670  177.7810  144.4870 C   0  0  0  0  0  3  0  0  0  0  0  0
  189.6870  176.8450  147.0950 C   0  0  0  0  0  2  0  0  0  0  0  0
  187.8460  178.0590  140.8520 C   0  0  0  0  0  0  0  0  0  0  0  0
  189.8330  177.4610  142.1720 C   0  0  0  0  0  3  0  0  0  0  0  0
  187.7260  177.4750  145.6870 O   0  0  0  0  0  0  0  0  0  0  0  0
  187.8900  177.8020  138.3450 C   0  0  0  0  0  2  0  0  0  0  0  0
  187.0810  178.0880  142.0770 N   0  0  0  0  0  0  0  0  0  0  0  0
  187.1770  178.4170  139.5440 C   0  0  0  0  0  2  0  0  0  0  0  0
  191.7510  176.2300  148.1240 O   0  0  0  0  0  0  0  0  0  0  0  0
  191.8900  176.5100  145.7890 C   0  0  0  0  0  3  0  0  0  0  0  0
  187.7290  177.7820  143.3250 C   0  0  0  0  0  0  0  0  0  0  0  0
  189.3560  178.1920  138.4030 C   0  0  0  0  0  2  0  0  0  0  0  0
  189.1710  177.7740  140.8840 C   0  0  0  0  0  0  0  0  0  0  0  0
  191.2500  177.0970  139.6170 C   0  0  0  0  0  2  0  0  0  0  0  0
  191.3950  176.2780  138.3790 C   0  0  0  0  0  0  0  0  0  0  0  0
  191.7000  174.7070  136.0830 C   0  0  0  0  0  0  0  0  0  0  0  0
  190.4820  175.2540  138.1040 C   0  0  0  0  0  3  0  0  0  0  0  0
  192.4660  176.5090  137.5080 C   0  0  0  0  0  3  0  0  0  0  0  0
  192.6170  175.7250  136.3600 C   0  0  0  0  0  3  0  0  0  0  0  0
  191.8470  173.9470  134.9710 F   0  0  0  0  0  0  0  0  0  0  0  0
  190.6330  174.4710  136.9550 C   0  0  0  0  0  3  0  0  0  0  0  0
  1 20  1  0  0  0  0
  2 17  2  0  0  0  0
  3 14  1  0  0  0  0
  4  9  1  0  0  0  0
  5  7  1  0  0  0  0
  6  9  1  0  0  0  0
  6 16  2  0  0  0  0
  7  2  1  0  0  0  0
  7  4  2  0  0  0  0
  8 12  1  0  0  0  0
 10 20  2  0  0  0  0
 10 14  1  0  0  0  0
 11  5  2  0  0  0  0
 12  4  1  0  0  0  0
 13 19  1  0  0  0  0
 13 15  1  0  0  0  0
 14 18  1  0  0  0  0
 15 10  1  0  0  0  0
 17  6  1  0  0  0  0
 18  5  1  0  0  0  0
 18  8  2  0  0  0  0
 19  1  1  0  0  0  0
 20 11  1  0  0  0  0
 21  1  1  0  0  0  0
 22 21  1  0  0  0  0
 23 26  2  0  0  0  0
 23 28  1  0  0  0  0
 24 22  1  0  0  0  0
 25 22  2  0  0  0  0
 26 25  1  0  0  0  0
 27 23  1  0  0  0  0
 28 24  2  0  0  0  0
M  END
>  <MODEL>
6

>  <REMARK>
 VINA RESULT:      -9.5      2.529      5.454
  Name = 
  2 active torsions:
  status: ('A' for Active; 'I' for Inactive)
    1  A    between atoms: N_1  and  C_2
    2  A    between atoms: C_2  and  C_3
                            x       y       z     vdW  Elec       q    Type
                         _______ _______ _______ _____ _____    ______ ____

>  <TORSDO>
F 2

$$$$
=
 OpenBabel10272401543D

 28 32  0  0  0  0  0  0  0  0999 V2000
  189.5750  177.9020  139.3740 N   0  0  0  0  0  0  0  0  0  0  0  0
  189.1300  177.4210  144.5800 C   0  0  0  0  0  3  0  0  0  0  0  0
  184.7600  178.7520  140.1040 C   0  0  0  0  0  1  0  0  0  0  0  0
  186.7180  177.8460  144.8400 C   0  0  0  0  0  0  0  0  0  0  0  0
  187.6070  177.9410  142.5760 C   0  0  0  0  0  0  0  0  0  0  0  0
  188.1990  177.3330  146.8190 C   0  0  0  0  0  0  0  0  0  0  0  0
  187.7940  177.7370  144.0300 C   0  0  0  0  0  0  0  0  0  0  0  0
  185.2470  178.3400  142.9260 C   0  0  0  0  0  3  0  0  0  0  0  0
  186.8140  177.6550  146.3340 C   0  0  0  0  0  2  0  0  0  0  0  0
  187.2130  178.3150  139.7580 C   0  0  0  0  0  0  0  0  0  0  0  0
  188.6250  177.8510  141.7170 C   0  0  0  0  0  3  0  0  0  0  0  0
  185.4560  178.1440  144.2990 O   0  0  0  0  0  0  0  0  0  0  0  0
  188.0950  177.8470  137.4440 C   0  0  0  0  0  2  0  0  0  0  0  0
  186.0800  178.4420  140.6450 N   0  0  0  0  0  0  0  0  0  0  0  0
  187.0320  178.5540  138.2760 C   0  0  0  0  0  2  0  0  0  0  0  0
  188.3970  177.1490  148.0470 O   0  0  0  0  0  0  0  0  0  0  0  0
  189.3210  177.2310  145.8820 C   0  0  0  0  0  3  0  0  0  0  0  0
  186.2620  178.2490  142.0600 C   0  0  0  0  0  0  0  0  0  0  0  0
  189.4630  178.2540  137.9620 C   0  0  0  0  0  2  0  0  0  0  0  0
  188.4440  178.0480  140.2600 C   0  0  0  0  0  0  0  0  0  0  0  0
  190.8150  177.2850  139.8310 C   0  0  0  0  0  2  0  0  0  0  0  0
  191.3900  176.4200  138.7610 C   0  0  0  0  0  0  0  0  0  0  0  0
  192.4930  174.7650  136.7920 C   0  0  0  0  0  0  0  0  0  0  0  0
  190.6500  175.3470  138.2530 C   0  0  0  0  0  3  0  0  0  0  0  0
  192.6860  176.6590  138.2890 C   0  0  0  0  0  3  0  0  0  0  0  0
  193.2360  175.8340  137.3030 C   0  0  0  0  0  3  0  0  0  0  0  0
  193.0260  173.9650  135.8380 F   0  0  0  0  0  0  0  0  0  0  0  0
  191.2000  174.5210  137.2670 C   0  0  0  0  0  3  0  0  0  0  0  0
  1 21  1  0  0  0  0
  1 20  1  0  0  0  0
  2 17  2  0  0  0  0
  3 14  1  0  0  0  0
  4  9  1  0  0  0  0
  5  7  1  0  0  0  0
  6 16  2  0  0  0  0
  7  2  1  0  0  0  0
  7  4  2  0  0  0  0
  8 12  1  0  0  0  0
  9  6  1  0  0  0  0
 10 20  2  0  0  0  0
 10 14  1  0  0  0  0
 11  5  2  0  0  0  0
 12  4  1  0  0  0  0
 13 19  1  0  0  0  0
 13 15  1  0  0  0  0
 14 18  1  0  0  0  0
 15 10  1  0  0  0  0
 17  6  1  0  0  0  0
 18  5  1  0  0  0  0
 18  8  2  0  0  0  0
 19  1  1  0  0  0  0
 20 11  1  0  0  0  0
 22 21  1  0  0  0  0
 23 28  2  0  0  0  0
 23 26  1  0  0  0  0
 24 22  2  0  0  0  0
 25 22  1  0  0  0  0
 26 25  2  0  0  0  0
 27 23  1  0  0  0  0
 28 24  1  0  0  0  0
M  END
>  <MODEL>
7

>  <REMARK>
 VINA RESULT:      -9.5      2.236      4.867
  Name = 
  2 active torsions:
  status: ('A' for Active; 'I' for Inactive)
    1  A    between atoms: N_1  and  C_2
    2  A    between atoms: C_2  and  C_3
                            x       y       z     vdW  Elec       q    Type
                         _______ _______ _______ _____ _____    ______ ____

>  <TORSDO>
F 2

$$$$
=
 OpenBabel10272401543D

 28 32  0  0  0  0  0  0  0  0999 V2000
  186.5080  178.4120  138.7450 N   0  0  0  0  0  0  0  0  0  0  0  0
  185.2690  178.4560  143.8430 C   0  0  0  0  0  3  0  0  0  0  0  0
  190.8190  177.2880  140.8880 C   0  0  0  0  0  1  0  0  0  0  0  0
  187.4630  177.9020  144.8170 C   0  0  0  0  0  0  0  0  0  0  0  0
  187.3450  178.0280  142.3890 C   0  0  0  0  0  0  0  0  0  0  0  0
  185.4350  178.3230  146.2600 C   0  0  0  0  0  0  0  0  0  0  0  0
  186.7050  178.1240  143.7200 C   0  0  0  0  0  0  0  0  0  0  0  0
  189.4600  177.4950  143.4330 C   0  0  0  0  0  3  0  0  0  0  0  0
  186.8960  177.9780  146.2140 C   0  0  0  0  0  2  0  0  0  0  0  0
  188.6140  177.8620  139.8200 C   0  0  0  0  0  0  0  0  0  0  0  0
  186.6570  178.2330  141.2630 C   0  0  0  0  0  3  0  0  0  0  0  0
  188.8260  177.5900  144.6800 O   0  0  0  0  0  0  0  0  0  0  0  0
  188.5290  178.5540  137.3990 C   0  0  0  0  0  2  0  0  0  0  0  0
  189.4010  177.6140  141.0060 N   0  0  0  0  0  0  0  0  0  0  0  0
  189.2570  177.7340  138.4570 C   0  0  0  0  0  2  0  0  0  0  0  0
  184.8560  178.4170  147.3730 O   0  0  0  0  0  0  0  0  0  0  0  0
  184.6740  178.5500  145.0280 C   0  0  0  0  0  3  0  0  0  0  0  0
  188.7780  177.7010  142.3010 C   0  0  0  0  0  0  0  0  0  0  0  0
  187.0610  178.1690  137.4150 C   0  0  0  0  0  2  0  0  0  0  0  0
  187.2930  178.1450  139.9270 C   0  0  0  0  0  0  0  0  0  0  0  0
  185.1990  179.0470  138.8380 C   0  0  0  0  0  2  0  0  0  0  0  0
  184.1190  178.0190  138.8080 C   0  0  0  0  0  0  0  0  0  0  0  0
  182.1330  176.0480  138.7590 C   0  0  0  0  0  0  0  0  0  0  0  0
  183.4910  177.6260  139.9950 C   0  0  0  0  0  3  0  0  0  0  0  0
  183.7580  177.4170  137.5970 C   0  0  0  0  0  3  0  0  0  0  0  0
  182.7640  176.4350  137.5720 C   0  0  0  0  0  3  0  0  0  0  0  0
  181.1700  175.0960  138.7340 F   0  0  0  0  0  0  0  0  0  0  0  0
  182.4970  176.6430  139.9700 C   0  0  0  0  0  3  0  0  0  0  0  0
  1 21  1  0  0  0  0
  1 20  1  0  0  0  0
  2 17  2  0  0  0  0
  3 14  1  0  0  0  0
  4  9  1  0  0  0  0
  5  7  1  0  0  0  0
  6 16  2  0  0  0  0
  7  2  1  0  0  0  0
  7  4  2  0  0  0  0
  8 12  1  0  0  0  0
  9  6  1  0  0  0  0
 10 20  2  0  0  0  0
 10 14  1  0  0  0  0
 11  5  2  0  0  0  0
 12  4  1  0  0  0  0
 13 19  1  0  0  0  0
 13 15  1  0  0  0  0
 14 18  1  0  0  0  0
 15 10  1  0  0  0  0
 17  6  1  0  0  0  0
 18  5  1  0  0  0  0
 18  8  2  0  0  0  0
 19  1  1  0  0  0  0
 20 11  1  0  0  0  0
 22 21  1  0  0  0  0
 22 24  1  0  0  0  0
 23 28  1  0  0  0  0
 25 22  2  0  0  0  0
 26 25  1  0  0  0  0
 26 23  2  0  0  0  0
 27 23  1  0  0  0  0
 28 24  2  0  0  0  0
M  END
>  <MODEL>
8

>  <REMARK>
 VINA RESULT:      -9.3      3.726      6.310
  Name = 
  2 active torsions:
  status: ('A' for Active; 'I' for Inactive)
    1  A    between atoms: N_1  and  C_2
    2  A    between atoms: C_2  and  C_3
                            x       y       z     vdW  Elec       q    Type
                         _______ _______ _______ _____ _____    ______ ____

>  <TORSDO>
F 2

$$$$
=
 OpenBabel10272401543D

 28 32  0  0  0  0  0  0  0  0999 V2000
  187.7800  177.9500  145.1310 N   0  0  0  0  0  0  0  0  0  0  0  0
  187.4890  178.1460  139.8960 C   0  0  0  0  0  3  0  0  0  0  0  0
  182.9550  178.7190  144.3700 C   0  0  0  0  0  1  0  0  0  0  0  0
  185.0730  178.5400  139.6200 C   0  0  0  0  0  0  0  0  0  0  0  0
  185.8930  178.3270  141.9020 C   0  0  0  0  0  0  0  0  0  0  0  0
  186.6270  178.3670  137.6380 C   0  0  0  0  0  0  0  0  0  0  0  0
  186.1280  178.3420  140.4410 C   0  0  0  0  0  0  0  0  0  0  0  0
  183.5350  178.7210  141.5360 C   0  0  0  0  0  3  0  0  0  0  0  0
  185.2180  178.5700  138.1180 C   0  0  0  0  0  2  0  0  0  0  0  0
  185.4140  178.3280  144.7320 C   0  0  0  0  0  0  0  0  0  0  0  0
  186.8870  178.1350  142.7720 C   0  0  0  0  0  3  0  0  0  0  0  0
  183.7890  178.7270  140.1570 O   0  0  0  0  0  0  0  0  0  0  0  0
  186.4180  178.6510  147.0210 C   0  0  0  0  0  2  0  0  0  0  0  0
  184.2990  178.5230  143.8340 N   0  0  0  0  0  0  0  0  0  0  0  0
  185.1730  178.2810  146.2240 C   0  0  0  0  0  2  0  0  0  0  0  0
  186.8680  178.3770  136.4040 O   0  0  0  0  0  0  0  0  0  0  0  0
  187.7250  178.1580  138.5870 C   0  0  0  0  0  3  0  0  0  0  0  0
  184.5260  178.5320  142.4130 C   0  0  0  0  0  0  0  0  0  0  0  0
  187.5640  177.7670  146.5640 C   0  0  0  0  0  2  0  0  0  0  0  0
  186.6590  178.1260  144.2370 C   0  0  0  0  0  0  0  0  0  0  0  0
  189.1520  178.0760  144.6540 C   0  0  0  0  0  2  0  0  0  0  0  0
  190.0870  177.3560  145.5660 C   0  0  0  0  0  0  0  0  0  0  0  0
  191.8790  176.0480  147.2710 C   0  0  0  0  0  0  0  0  0  0  0  0
  190.0130  177.5580  146.9480 C   0  0  0  0  0  3  0  0  0  0  0  0
  191.0650  176.5060  145.0370 C   0  0  0  0  0  3  0  0  0  0  0  0
  191.9590  175.8500  145.8890 C   0  0  0  0  0  3  0  0  0  0  0  0
  192.7450  175.4140  148.0970 F   0  0  0  0  0  0  0  0  0  0  0  0
  190.9070  176.9020  147.8010 C   0  0  0  0  0  3  0  0  0  0  0  0
  1 19  1  0  0  0  0
  2  7  1  0  0  0  0
  4 12  1  0  0  0  0
  4  7  2  0  0  0  0
  5 18  1  0  0  0  0
  5 11  2  0  0  0  0
  6  9  1  0  0  0  0
  6 17  1  0  0  0  0
  7  5  1  0  0  0  0
  8 18  2  0  0  0  0
  9  4  1  0  0  0  0
 10 15  1  0  0  0  0
 11 20  1  0  0  0  0
 12  8  1  0  0  0  0
 14  3  1  0  0  0  0
 14 10  1  0  0  0  0
 15 13  1  0  0  0  0
 16  6  2  0  0  0  0
 17  2  2  0  0  0  0
 18 14  1  0  0  0  0
 19 13  1  0  0  0  0
 20 10  2  0  0  0  0
 20  1  1  0  0  0  0
 21  1  1  0  0  0  0
 21 22  1  0  0  0  0
 22 24  1  0  0  0  0
 23 28  1  0  0  0  0
 23 27  1  0  0  0  0
 24 28  2  0  0  0  0
 25 22  2  0  0  0  0
 25 26  1  0  0  0  0
 26 23  2  0  0  0  0
M  END
>  <MODEL>
9

>  <REMARK>
 VINA RESULT:      -9.3      3.386      5.932
  Name = 
  2 active torsions:
  status: ('A' for Active; 'I' for Inactive)
    1  A    between atoms: N_1  and  C_2
    2  A    between atoms: C_2  and  C_3
                            x       y       z     vdW  Elec       q    Type
                         _______ _______ _______ _____ _____    ______ ____

>  <TORSDO>
F 2

$$$$
