=
 OpenBabel10272401593D

 28 32  0  0  1  0  0  0  0  0999 V2000
  190.0030  177.0480  143.8740 C   0  0  0  0  0  0  0  0  0  0  0  0
  185.0110  178.3620  142.9210 C   0  0  0  0  0  3  0  0  0  0  0  0
  188.1220  177.7260  148.4200 C   0  0  0  0  0  1  0  0  0  0  0  0
  184.1710  178.6740  145.1780 C   0  0  0  0  0  0  0  0  0  0  0  0
  186.5390  178.0230  144.9010 C   0  0  0  0  0  0  0  0  0  0  0  0
  182.7020  179.0000  143.2800 C   0  0  0  0  0  0  0  0  0  0  0  0
  185.2280  178.3560  144.3090 C   0  0  0  0  0  0  0  0  0  0  0  0
  185.6220  178.3540  147.1330 C   0  0  0  0  0  3  0  0  0  0  0  0
  182.9130  178.9950  144.6620 C   0  0  0  0  0  3  0  0  0  0  0  0
  189.0720  177.3830  146.1130 C   0  0  0  0  0  0  0  0  0  0  0  0
  187.5890  177.7110  144.1360 C   0  0  0  0  0  3  0  0  0  0  0  0
  184.3780  178.6690  146.5630 O   0  0  0  0  0  0  0  0  0  0  0  0
  191.3990  176.7420  145.8350 C   0  0  0  0  0  3  0  0  0  0  0  0
  187.9570  177.7160  146.9670 N   0  0  0  0  0  0  0  0  0  0  0  0
  190.3230  177.0640  146.6610 C   0  0  0  0  0  3  0  0  0  0  0  0
  181.4820  179.3120  142.7830 F   0  0  0  0  0  0  0  0  0  0  0  0
  183.7510  178.6850  142.4110 C   0  0  0  0  0  3  0  0  0  0  0  0
  186.6830  178.0390  146.3750 C   0  0  0  0  0  0  0  0  0  0  0  0
  191.2380  176.7350  144.4500 C   0  0  0  0  0  3  0  0  0  0  0  0
  188.9090  177.3750  144.7100 C   0  0  0  0  0  0  0  0  0  0  0  0
  189.9170  177.0160  142.3730 C   0  0  1  0  0  3  0  0  0  0  0  0
  188.9420  178.0730  141.8430 C   0  0  0  0  0  2  0  0  0  0  0  0
  190.0600  177.5880  139.5790 C   0  0  0  0  0  0  0  0  0  0  0  0
  191.2960  177.1530  141.7260 C   0  0  0  0  0  2  0  0  0  0  0  0
  187.8980  178.5470  139.7490 O   0  0  0  0  0  0  0  0  0  0  0  0
  188.9050  178.0810  140.3440 C   0  0  0  0  0  0  0  0  0  0  0  0
  190.0510  177.6060  138.3190 O   0  0  0  0  0  0  0  0  0  0  0  0
  191.1850  177.0470  140.2750 N   0  0  0  0  0  2  0  0  0  0  0  0
  1 19  2  0  0  0  0
  1 20  1  0  0  0  0
  2  7  1  0  0  0  0
  4 12  1  0  0  0  0
  5 18  1  0  0  0  0
  6  9  2  0  0  0  0
  7  5  1  0  0  0  0
  7  4  2  0  0  0  0
  9  4  1  0  0  0  0
 10 15  1  0  0  0  0
 10 14  1  0  0  0  0
 11 20  1  0  0  0  0
 11  5  2  0  0  0  0
 12  8  1  0  0  0  0
 13 15  2  0  0  0  0
 14  3  1  0  0  0  0
 16  6  1  0  0  0  0
 17  2  2  0  0  0  0
 17  6  1  0  0  0  0
 18 14  1  0  0  0  0
 18  8  2  0  0  0  0
 19 13  1  0  0  0  0
 20 10  2  0  0  0  0
 21  1  1  1  0  0  0
 22 21  1  0  0  0  0
 23 28  1  0  0  0  0
 23 26  1  0  0  0  0
 24 21  1  0  0  0  0
 25 26  2  0  0  0  0
 26 22  1  0  0  0  0
 27 23  2  0  0  0  0
 28 24  1  0  0  0  0
M  END
>  <MODEL>
1

>  <REMARK>
 VINA RESULT:     -12.9      0.000      0.000
  Name = 
  1 active torsions:
  status: ('A' for Active; 'I' for Inactive)
    1  A    between atoms: C_1  and  C_2
                            x       y       z     vdW  Elec       q    Type
                         _______ _______ _______ _____ _____    ______ ____

>  <TORSDO>
F 1

$$$$
=
 OpenBabel10272401593D

 28 32  0  0  1  0  0  0  0  0999 V2000
  190.2940  177.2670  144.3730 C   0  0  0  0  0  0  0  0  0  0  0  0
  185.3760  178.4730  142.9870 C   0  0  0  0  0  3  0  0  0  0  0  0
  187.9370  177.6050  148.7320 C   0  0  0  0  0  1  0  0  0  0  0  0
  184.3000  178.6190  145.1590 C   0  0  0  0  0  0  0  0  0  0  0  0
  186.7080  178.0640  145.0910 C   0  0  0  0  0  0  0  0  0  0  0  0
  183.0200  179.0120  143.1420 C   0  0  0  0  0  0  0  0  0  0  0  0
  185.4510  178.3890  144.3870 C   0  0  0  0  0  0  0  0  0  0  0  0
  185.5580  178.2280  147.2320 C   0  0  0  0  0  3  0  0  0  0  0  0
  183.0890  178.9290  144.5350 C   0  0  0  0  0  3  0  0  0  0  0  0
  189.1280  177.4350  146.5190 C   0  0  0  0  0  0  0  0  0  0  0  0
  187.8410  177.8340  144.4220 C   0  0  0  0  0  3  0  0  0  0  0  0
  184.3670  178.5370  146.5560 O   0  0  0  0  0  0  0  0  0  0  0  0
  191.4950  176.8880  146.4470 C   0  0  0  0  0  3  0  0  0  0  0  0
  187.9210  177.6780  147.2710 N   0  0  0  0  0  0  0  0  0  0  0  0
  190.3290  177.1240  147.1750 C   0  0  0  0  0  3  0  0  0  0  0  0
  181.8450  179.3140  142.5400 F   0  0  0  0  0  0  0  0  0  0  0  0
  184.1620  178.7850  142.3690 C   0  0  0  0  0  3  0  0  0  0  0  0
  186.7020  177.9940  146.5710 C   0  0  0  0  0  0  0  0  0  0  0  0
  191.4750  176.9600  145.0550 C   0  0  0  0  0  3  0  0  0  0  0  0
  189.1080  177.5070  145.1090 C   0  0  0  0  0  0  0  0  0  0  0  0
  190.3600  177.3240  142.8720 C   0  0  1  0  0  3  0  0  0  0  0  0
  191.8100  177.3540  142.3740 C   0  0  0  0  0  2  0  0  0  0  0  0
  190.7600  176.7850  140.0960 C   0  0  0  0  0  0  0  0  0  0  0  0
  189.5720  176.1810  142.2290 C   0  0  0  0  0  2  0  0  0  0  0  0
  192.9000  177.7880  140.2950 O   0  0  0  0  0  0  0  0  0  0  0  0
  191.8740  177.3470  140.8750 C   0  0  0  0  0  0  0  0  0  0  0  0
  190.8080  176.7550  138.8370 O   0  0  0  0  0  0  0  0  0  0  0  0
  189.5970  176.3060  140.7750 N   0  0  0  0  0  2  0  0  0  0  0  0
  1 19  2  0  0  0  0
  1 20  1  0  0  0  0
  2  7  1  0  0  0  0
  4 12  1  0  0  0  0
  5 18  1  0  0  0  0
  6  9  2  0  0  0  0
  7  5  1  0  0  0  0
  7  4  2  0  0  0  0
  9  4  1  0  0  0  0
 10 15  1  0  0  0  0
 10 14  1  0  0  0  0
 11  5  2  0  0  0  0
 11 20  1  0  0  0  0
 12  8  1  0  0  0  0
 13 15  2  0  0  0  0
 14  3  1  0  0  0  0
 16  6  1  0  0  0  0
 17  2  2  0  0  0  0
 17  6  1  0  0  0  0
 18  8  2  0  0  0  0
 18 14  1  0  0  0  0
 19 13  1  0  0  0  0
 20 10  2  0  0  0  0
 21  1  1  1  0  0  0
 22 21  1  0  0  0  0
 23 28  1  0  0  0  0
 23 26  1  0  0  0  0
 24 21  1  0  0  0  0
 25 26  2  0  0  0  0
 26 22  1  0  0  0  0
 27 23  2  0  0  0  0
 28 24  1  0  0  0  0
M  END
>  <MODEL>
2

>  <REMARK>
 VINA RESULT:     -12.6      1.071      1.449
  Name = 
  1 active torsions:
  status: ('A' for Active; 'I' for Inactive)
    1  A    between atoms: C_1  and  C_2
                            x       y       z     vdW  Elec       q    Type
                         _______ _______ _______ _____ _____    ______ ____

>  <TORSDO>
F 1

$$$$
=
 OpenBabel10272401593D

 28 32  0  0  1  0  0  0  0  0999 V2000
  186.9560  178.2110  146.0780 C   0  0  0  0  0  0  0  0  0  0  0  0
  188.4680  178.0630  141.0540 C   0  0  0  0  0  3  0  0  0  0  0  0
  191.6190  176.5230  146.3460 C   0  0  0  0  0  1  0  0  0  0  0  0
  190.7400  177.2340  141.2720 C   0  0  0  0  0  0  0  0  0  0  0  0
  189.4140  177.5460  143.3350 C   0  0  0  0  0  0  0  0  0  0  0  0
  189.8350  177.7290  139.0820 C   0  0  0  0  0  0  0  0  0  0  0  0
  189.5260  177.6220  141.8640 C   0  0  0  0  0  0  0  0  0  0  0  0
  191.7010  176.7180  143.4730 C   0  0  0  0  0  3  0  0  0  0  0  0
  190.8910  177.2890  139.8840 C   0  0  0  0  0  3  0  0  0  0  0  0
  189.2550  177.3790  146.2050 C   0  0  0  0  0  0  0  0  0  0  0  0
  188.2900  177.8980  143.9660 C   0  0  0  0  0  3  0  0  0  0  0  0
  191.8000  176.7920  142.0750 O   0  0  0  0  0  0  0  0  0  0  0  0
  187.9470  177.6890  148.2300 C   0  0  0  0  0  3  0  0  0  0  0  0
  190.4830  176.9910  145.5540 N   0  0  0  0  0  0  0  0  0  0  0  0
  189.1340  177.3130  147.6020 C   0  0  0  0  0  3  0  0  0  0  0  0
  189.9840  177.7810  137.7370 F   0  0  0  0  0  0  0  0  0  0  0  0
  188.6250  178.1150  139.6650 C   0  0  0  0  0  3  0  0  0  0  0  0
  190.5780  177.0690  144.1180 C   0  0  0  0  0  0  0  0  0  0  0  0
  186.8660  178.1340  147.4710 C   0  0  0  0  0  3  0  0  0  0  0  0
  188.1590  177.8300  145.4370 C   0  0  0  0  0  0  0  0  0  0  0  0
  185.7440  178.7010  145.3370 C   0  0  1  0  0  3  0  0  0  0  0  0
  185.5630  177.9660  144.0040 C   0  0  0  0  0  2  0  0  0  0  0  0
  183.2020  178.9840  144.0650 C   0  0  0  0  0  0  0  0  0  0  0  0
  184.4820  178.6140  146.1980 C   0  0  0  0  0  2  0  0  0  0  0  0
  184.2230  178.2620  142.0500 O   0  0  0  0  0  0  0  0  0  0  0  0
  184.3190  178.4140  143.2960 C   0  0  0  0  0  0  0  0  0  0  0  0
  182.1430  179.3460  143.4860 O   0  0  0  0  0  0  0  0  0  0  0  0
  183.3390  179.1630  145.4760 N   0  0  0  0  0  2  0  0  0  0  0  0
  1 19  1  0  0  0  0
  2  7  1  0  0  0  0
  4  7  2  0  0  0  0
  4 12  1  0  0  0  0
  5 11  2  0  0  0  0
  5 18  1  0  0  0  0
  6 17  1  0  0  0  0
  6  9  2  0  0  0  0
  7  5  1  0  0  0  0
  8 18  2  0  0  0  0
  9  4  1  0  0  0  0
 10 15  2  0  0  0  0
 11 20  1  0  0  0  0
 12  8  1  0  0  0  0
 14 10  1  0  0  0  0
 14  3  1  0  0  0  0
 15 13  1  0  0  0  0
 16  6  1  0  0  0  0
 17  2  2  0  0  0  0
 18 14  1  0  0  0  0
 19 13  2  0  0  0  0
 20  1  2  0  0  0  0
 20 10  1  0  0  0  0
 21  1  1  1  0  0  0
 21 24  1  0  0  0  0
 22 21  1  0  0  0  0
 23 28  1  0  0  0  0
 25 26  2  0  0  0  0
 26 22  1  0  0  0  0
 26 23  1  0  0  0  0
 27 23  2  0  0  0  0
 28 24  1  0  0  0  0
M  END
>  <MODEL>
3

>  <REMARK>
 VINA RESULT:     -12.4      2.700      6.177
  Name = 
  1 active torsions:
  status: ('A' for Active; 'I' for Inactive)
    1  A    between atoms: C_1  and  C_2
                            x       y       z     vdW  Elec       q    Type
                         _______ _______ _______ _____ _____    ______ ____

>  <TORSDO>
F 1

$$$$
=
 OpenBabel10272401593D

 28 32  0  0  1  0  0  0  0  0999 V2000
  189.2900  177.2410  143.3920 C   0  0  0  0  0  0  0  0  0  0  0  0
  184.3140  178.2440  142.0550 C   0  0  0  0  0  3  0  0  0  0  0  0
  187.1470  178.3340  147.7370 C   0  0  0  0  0  1  0  0  0  0  0  0
  183.3440  178.7660  144.2190 C   0  0  0  0  0  0  0  0  0  0  0  0
  185.7440  178.1840  144.1330 C   0  0  0  0  0  0  0  0  0  0  0  0
  181.9690  178.8240  142.2270 C   0  0  0  0  0  0  0  0  0  0  0  0
  184.4560  178.3970  143.4430 C   0  0  0  0  0  0  0  0  0  0  0  0
  184.6990  178.7190  146.2670 C   0  0  0  0  0  3  0  0  0  0  0  0
  182.1050  178.9780  143.6090 C   0  0  0  0  0  3  0  0  0  0  0  0
  188.2290  177.7810  145.5320 C   0  0  0  0  0  0  0  0  0  0  0  0
  186.8440  177.8320  143.4600 C   0  0  0  0  0  3  0  0  0  0  0  0
  183.4780  178.9200  145.6050 O   0  0  0  0  0  0  0  0  0  0  0  0
  190.5890  177.2070  145.4410 C   0  0  0  0  0  3  0  0  0  0  0  0
  187.0600  178.1600  146.2870 N   0  0  0  0  0  0  0  0  0  0  0  0
  189.4600  177.5730  146.1730 C   0  0  0  0  0  3  0  0  0  0  0  0
  180.7670  179.0320  141.6380 F   0  0  0  0  0  0  0  0  0  0  0  0
  183.0720  178.4590  141.4500 C   0  0  0  0  0  3  0  0  0  0  0  0
  185.8090  178.3650  145.6020 C   0  0  0  0  0  0  0  0  0  0  0  0
  190.5020  177.0420  144.0600 C   0  0  0  0  0  3  0  0  0  0  0  0
  188.1420  177.6140  144.1320 C   0  0  0  0  0  0  0  0  0  0  0  0
  189.2850  177.0420  141.9020 C   0  0  1  0  0  3  0  0  0  0  0  0
  188.8220  178.3060  141.1670 C   0  0  0  0  0  2  0  0  0  0  0  0
  189.7980  177.1390  139.0940 C   0  0  0  0  0  0  0  0  0  0  0  0
  190.6470  176.5670  141.3920 C   0  0  0  0  0  2  0  0  0  0  0  0
  188.1630  178.8490  138.9380 O   0  0  0  0  0  0  0  0  0  0  0  0
  188.8780  178.1250  139.6790 C   0  0  0  0  0  0  0  0  0  0  0  0
  189.8700  176.9900  137.8450 O   0  0  0  0  0  0  0  0  0  0  0  0
  190.5870  176.3150  139.9550 N   0  0  0  0  0  2  0  0  0  0  0  0
  1 19  2  0  0  0  0
  1 20  1  0  0  0  0
  2  7  1  0  0  0  0
  4 12  1  0  0  0  0
  5 18  1  0  0  0  0
  6  9  2  0  0  0  0
  7  5  1  0  0  0  0
  7  4  2  0  0  0  0
  9  4  1  0  0  0  0
 10 15  1  0  0  0  0
 10 14  1  0  0  0  0
 11 20  1  0  0  0  0
 11  5  2  0  0  0  0
 12  8  1  0  0  0  0
 13 15  2  0  0  0  0
 14  3  1  0  0  0  0
 16  6  1  0  0  0  0
 17  2  2  0  0  0  0
 17  6  1  0  0  0  0
 18  8  2  0  0  0  0
 18 14  1  0  0  0  0
 19 13  1  0  0  0  0
 20 10  2  0  0  0  0
 21  1  1  1  0  0  0
 22 21  1  0  0  0  0
 23 26  1  0  0  0  0
 23 28  1  0  0  0  0
 24 21  1  0  0  0  0
 25 26  2  0  0  0  0
 26 22  1  0  0  0  0
 27 23  2  0  0  0  0
 28 24  1  0  0  0  0
M  END
>  <MODEL>
4

>  <REMARK>
 VINA RESULT:     -12.4      0.953      1.085
  Name = 
  1 active torsions:
  status: ('A' for Active; 'I' for Inactive)
    1  A    between atoms: C_1  and  C_2
                            x       y       z     vdW  Elec       q    Type
                         _______ _______ _______ _____ _____    ______ ____

>  <TORSDO>
F 1

$$$$
=
 OpenBabel10272401593D

 28 32  0  0  1  0  0  0  0  0999 V2000
  187.1010  177.7030  145.5380 C   0  0  0  0  0  0  0  0  0  0  0  0
  189.2350  177.5090  140.7460 C   0  0  0  0  0  3  0  0  0  0  0  0
  183.4320  179.3010  142.5970 C   0  0  0  0  0  1  0  0  0  0  0  0
  187.3900  178.3000  139.3790 C   0  0  0  0  0  0  0  0  0  0  0  0
  187.0430  178.1440  141.8210 C   0  0  0  0  0  0  0  0  0  0  0  0
  189.4930  177.6910  138.3440 C   0  0  0  0  0  0  0  0  0  0  0  0
  187.9150  177.9760  140.6420 C   0  0  0  0  0  0  0  0  0  0  0  0
  185.2390  178.9280  140.3840 C   0  0  0  0  0  3  0  0  0  0  0  0
  188.1800  178.1570  138.2350 C   0  0  0  0  0  3  0  0  0  0  0  0
  185.2950  178.4900  144.0840 C   0  0  0  0  0  0  0  0  0  0  0  0
  187.4750  177.8560  143.0520 C   0  0  0  0  0  3  0  0  0  0  0  0
  186.0740  178.7660  139.2670 O   0  0  0  0  0  0  0  0  0  0  0  0
  184.9590  178.3340  146.4860 C   0  0  0  0  0  3  0  0  0  0  0  0
  184.7990  178.8100  142.7680 N   0  0  0  0  0  0  0  0  0  0  0  0
  184.4780  178.6430  145.2140 C   0  0  0  0  0  3  0  0  0  0  0  0
  190.2560  177.5540  137.2340 F   0  0  0  0  0  0  0  0  0  0  0  0
  190.0210  177.3690  139.5980 C   0  0  0  0  0  3  0  0  0  0  0  0
  185.6610  178.6420  141.6250 C   0  0  0  0  0  0  0  0  0  0  0  0
  186.2630  177.8660  146.6440 C   0  0  0  0  0  3  0  0  0  0  0  0
  186.6160  178.0170  144.2450 C   0  0  0  0  0  0  0  0  0  0  0  0
  188.4920  177.1940  145.7980 C   0  0  1  0  0  3  0  0  0  0  0  0
  189.5470  178.0560  145.0940 C   0  0  0  0  0  2  0  0  0  0  0  0
  191.1950  176.8360  146.6460 C   0  0  0  0  0  0  0  0  0  0  0  0
  188.7770  177.0740  147.2960 C   0  0  0  0  0  2  0  0  0  0  0  0
  191.8800  177.8660  144.6220 O   0  0  0  0  0  0  0  0  0  0  0  0
  190.9360  177.5840  145.4070 C   0  0  0  0  0  0  0  0  0  0  0  0
  192.3600  176.4500  146.9310 O   0  0  0  0  0  0  0  0  0  0  0  0
  190.1060  176.5120  147.5130 N   0  0  0  0  0  2  0  0  0  0  0  0
  1 19  1  0  0  0  0
  3 14  1  0  0  0  0
  4  7  2  0  0  0  0
  5 11  2  0  0  0  0
  6 17  1  0  0  0  0
  7  2  1  0  0  0  0
  7  5  1  0  0  0  0
  8 18  2  0  0  0  0
  9  6  2  0  0  0  0
  9  4  1  0  0  0  0
 10 20  1  0  0  0  0
 10 15  2  0  0  0  0
 11 20  1  0  0  0  0
 12  4  1  0  0  0  0
 12  8  1  0  0  0  0
 13 19  2  0  0  0  0
 14 10  1  0  0  0  0
 15 13  1  0  0  0  0
 16  6  1  0  0  0  0
 17  2  2  0  0  0  0
 18  5  1  0  0  0  0
 18 14  1  0  0  0  0
 20  1  2  0  0  0  0
 21  1  1  1  0  0  0
 21 24  1  0  0  0  0
 22 26  1  0  0  0  0
 22 21  1  0  0  0  0
 23 27  2  0  0  0  0
 23 28  1  0  0  0  0
 24 28  1  0  0  0  0
 25 26  2  0  0  0  0
 26 23  1  0  0  0  0
M  END
>  <MODEL>
5

>  <REMARK>
 VINA RESULT:     -11.8      3.228      6.222
  Name = 
  1 active torsions:
  status: ('A' for Active; 'I' for Inactive)
    1  A    between atoms: C_1  and  C_2
                            x       y       z     vdW  Elec       q    Type
                         _______ _______ _______ _____ _____    ______ ____

>  <TORSDO>
F 1

$$$$
=
 OpenBabel10272401593D

 28 32  0  0  1  0  0  0  0  0999 V2000
  185.2480  178.2990  144.1250 C   0  0  0  0  0  0  0  0  0  0  0  0
  189.3820  177.5780  140.9730 C   0  0  0  0  0  3  0  0  0  0  0  0
  189.0220  177.7710  147.3090 C   0  0  0  0  0  1  0  0  0  0  0  0
  191.1710  177.3300  142.5970 C   0  0  0  0  0  0  0  0  0  0  0  0
  188.8800  177.7100  143.4420 C   0  0  0  0  0  0  0  0  0  0  0  0
  191.6560  177.2030  140.2280 C   0  0  0  0  0  0  0  0  0  0  0  0
  189.8120  177.5390  142.3090 C   0  0  0  0  0  0  0  0  0  0  0  0
  190.7270  177.4520  145.0090 C   0  0  0  0  0  3  0  0  0  0  0  0
  192.0890  177.1630  141.5560 C   0  0  0  0  0  3  0  0  0  0  0  0
  187.1110  178.0380  145.6910 C   0  0  0  0  0  0  0  0  0  0  0  0
  187.5740  177.9120  143.2450 C   0  0  0  0  0  3  0  0  0  0  0  0
  191.6070  177.2900  143.9270 O   0  0  0  0  0  0  0  0  0  0  0  0
  184.8570  178.4130  146.5170 C   0  0  0  0  0  3  0  0  0  0  0  0
  188.5160  177.8220  145.9380 N   0  0  0  0  0  0  0  0  0  0  0  0
  186.2140  178.2040  146.7570 C   0  0  0  0  0  3  0  0  0  0  0  0
  192.5480  177.0390  139.2210 F   0  0  0  0  0  0  0  0  0  0  0  0
  190.3050  177.4090  139.9360 C   0  0  0  0  0  3  0  0  0  0  0  0
  189.4150  177.6560  144.8230 C   0  0  0  0  0  0  0  0  0  0  0  0
  184.3790  178.4600  145.2080 C   0  0  0  0  0  3  0  0  0  0  0  0
  186.6260  178.0860  144.3650 C   0  0  0  0  0  0  0  0  0  0  0  0
  184.6490  178.3640  142.7480 C   0  0  1  0  0  3  0  0  0  0  0  0
  183.1460  178.6630  142.8000 C   0  0  0  0  0  2  0  0  0  0  0  0
  183.4270  179.1670  140.2940 C   0  0  0  0  0  0  0  0  0  0  0  0
  185.3870  179.3670  141.8580 C   0  0  0  0  0  2  0  0  0  0  0  0
  181.3310  178.6060  141.2510 O   0  0  0  0  0  0  0  0  0  0  0  0
  182.5640  178.7880  141.4230 C   0  0  0  0  0  0  0  0  0  0  0  0
  182.9490  179.2960  139.1360 O   0  0  0  0  0  0  0  0  0  0  0  0
  184.8280  179.3520  140.5100 N   0  0  0  0  0  2  0  0  0  0  0  0
  1 20  2  0  0  0  0
  1 19  1  0  0  0  0
  2  7  1  0  0  0  0
  4 12  1  0  0  0  0
  5 18  1  0  0  0  0
  6  9  2  0  0  0  0
  7  4  2  0  0  0  0
  7  5  1  0  0  0  0
  9  4  1  0  0  0  0
 10 14  1  0  0  0  0
 10 15  2  0  0  0  0
 11  5  2  0  0  0  0
 11 20  1  0  0  0  0
 12  8  1  0  0  0  0
 13 15  1  0  0  0  0
 14  3  1  0  0  0  0
 16  6  1  0  0  0  0
 17  6  1  0  0  0  0
 17  2  2  0  0  0  0
 18  8  2  0  0  0  0
 18 14  1  0  0  0  0
 19 13  2  0  0  0  0
 20 10  1  0  0  0  0
 21 22  1  0  0  0  0
 21  1  1  1  0  0  0
 23 28  1  0  0  0  0
 23 26  1  0  0  0  0
 24 21  1  0  0  0  0
 25 26  2  0  0  0  0
 26 22  1  0  0  0  0
 27 23  2  0  0  0  0
 28 24  1  0  0  0  0
M  END
>  <MODEL>
6

>  <REMARK>
 VINA RESULT:     -11.5      3.309      6.239
  Name = 
  1 active torsions:
  status: ('A' for Active; 'I' for Inactive)
    1  A    between atoms: C_1  and  C_2
                            x       y       z     vdW  Elec       q    Type
                         _______ _______ _______ _____ _____    ______ ____

>  <TORSDO>
F 1

$$$$
=
 OpenBabel10272401593D

 28 32  0  0  1  0  0  0  0  0999 V2000
  186.7200  178.5540  141.8600 C   0  0  0  0  0  0  0  0  0  0  0  0
  190.6860  176.9040  144.8780 C   0  0  0  0  0  3  0  0  0  0  0  0
  184.7070  178.4050  146.3970 C   0  0  0  0  0  1  0  0  0  0  0  0
  189.6240  176.8590  147.0620 C   0  0  0  0  0  0  0  0  0  0  0  0
  188.2650  177.5710  145.1240 C   0  0  0  0  0  0  0  0  0  0  0  0
  191.9480  176.2180  146.8280 C   0  0  0  0  0  0  0  0  0  0  0  0
  189.5510  177.1050  145.6800 C   0  0  0  0  0  0  0  0  0  0  0  0
  187.2720  177.5000  147.3470 C   0  0  0  0  0  3  0  0  0  0  0  0
  190.8210  176.4160  147.6310 C   0  0  0  0  0  3  0  0  0  0  0  0
  185.7320  178.4790  144.0990 C   0  0  0  0  0  0  0  0  0  0  0  0
  188.1210  177.8250  143.8210 C   0  0  0  0  0  3  0  0  0  0  0  0
  188.4970  177.0570  147.8690 O   0  0  0  0  0  0  0  0  0  0  0  0
  184.3990  179.1800  142.1910 C   0  0  0  0  0  3  0  0  0  0  0  0
  185.8540  178.2140  145.5110 N   0  0  0  0  0  0  0  0  0  0  0  0
  184.5160  178.9240  143.5560 C   0  0  0  0  0  3  0  0  0  0  0  0
  193.1070  175.7880  147.3820 F   0  0  0  0  0  0  0  0  0  0  0  0
  191.8800  176.4610  145.4530 C   0  0  0  0  0  3  0  0  0  0  0  0
  187.1150  177.7590  146.0400 C   0  0  0  0  0  0  0  0  0  0  0  0
  185.4960  178.9960  141.3500 C   0  0  0  0  0  3  0  0  0  0  0  0
  186.8430  178.2930  143.2460 C   0  0  0  0  0  0  0  0  0  0  0  0
  187.8510  178.3820  140.8840 C   0  0  1  0  0  3  0  0  0  0  0  0
  188.6550  177.1090  141.1720 C   0  0  0  0  0  2  0  0  0  0  0  0
  189.6160  177.5000  138.8190 C   0  0  0  0  0  0  0  0  0  0  0  0
  187.3550  178.4140  139.4360 C   0  0  0  0  0  2  0  0  0  0  0  0
  190.7400  176.1980  140.4520 O   0  0  0  0  0  0  0  0  0  0  0  0
  189.7420  176.9070  140.1590 C   0  0  0  0  0  0  0  0  0  0  0  0
  190.5120  177.3220  137.9520 O   0  0  0  0  0  0  0  0  0  0  0  0
  188.4830  178.3160  138.5150 N   0  0  0  0  0  2  0  0  0  0  0  0
  1 20  1  0  0  0  0
  2 17  2  0  0  0  0
  2  7  1  0  0  0  0
  4  9  1  0  0  0  0
  4 12  1  0  0  0  0
  5  7  1  0  0  0  0
  5 18  1  0  0  0  0
  6 16  1  0  0  0  0
  6  9  2  0  0  0  0
  7  4  2  0  0  0  0
  8 12  1  0  0  0  0
 10 14  1  0  0  0  0
 11  5  2  0  0  0  0
 13 15  2  0  0  0  0
 14 18  1  0  0  0  0
 14  3  1  0  0  0  0
 15 10  1  0  0  0  0
 17  6  1  0  0  0  0
 18  8  2  0  0  0  0
 19  1  2  0  0  0  0
 19 13  1  0  0  0  0
 20 11  1  0  0  0  0
 20 10  2  0  0  0  0
 21 22  1  0  0  0  0
 21  1  1  1  0  0  0
 23 26  1  0  0  0  0
 24 21  1  0  0  0  0
 26 25  2  0  0  0  0
 26 22  1  0  0  0  0
 27 23  2  0  0  0  0
 28 23  1  0  0  0  0
 28 24  1  0  0  0  0
M  END
>  <MODEL>
7

>  <REMARK>
 VINA RESULT:     -11.1      3.008      5.499
  Name = 
  1 active torsions:
  status: ('A' for Active; 'I' for Inactive)
    1  A    between atoms: C_1  and  C_2
                            x       y       z     vdW  Elec       q    Type
                         _______ _______ _______ _____ _____    ______ ____

>  <TORSDO>
F 1

$$$$
=
 OpenBabel10272401593D

 28 32  0  0  1  0  0  0  0  0999 V2000
  185.1330  178.5910  144.6820 C   0  0  0  0  0  0  0  0  0  0  0  0
  188.1740  177.8970  140.4610 C   0  0  0  0  0  3  0  0  0  0  0  0
  189.4970  177.2500  146.6370 C   0  0  0  0  0  1  0  0  0  0  0  0
  190.2730  177.2480  141.4980 C   0  0  0  0  0  0  0  0  0  0  0  0
  188.3510  177.7380  142.9730 C   0  0  0  0  0  0  0  0  0  0  0  0
  190.1060  177.4000  139.0870 C   0  0  0  0  0  0  0  0  0  0  0  0
  188.9260  177.6310  141.6170 C   0  0  0  0  0  0  0  0  0  0  0  0
  190.4890  177.0800  143.9380 C   0  0  0  0  0  3  0  0  0  0  0  0
  190.8580  177.1340  140.2340 C   0  0  0  0  0  3  0  0  0  0  0  0
  187.2860  177.9300  145.6420 C   0  0  0  0  0  0  0  0  0  0  0  0
  187.0780  178.0960  143.1630 C   0  0  0  0  0  3  0  0  0  0  0  0
  191.0280  176.9800  142.6460 O   0  0  0  0  0  0  0  0  0  0  0  0
  185.3940  178.4130  147.0880 C   0  0  0  0  0  3  0  0  0  0  0  0
  188.6640  177.5400  145.4710 N   0  0  0  0  0  0  0  0  0  0  0  0
  186.7260  178.0370  146.9240 C   0  0  0  0  0  3  0  0  0  0  0  0
  190.6760  177.2880  137.8630 F   0  0  0  0  0  0  0  0  0  0  0  0
  188.7660  177.7800  139.2000 C   0  0  0  0  0  3  0  0  0  0  0  0
  189.2130  177.4400  144.1410 C   0  0  0  0  0  0  0  0  0  0  0  0
  184.6040  178.6890  145.9730 C   0  0  0  0  0  3  0  0  0  0  0  0
  186.4850  178.2090  144.5120 C   0  0  0  0  0  0  0  0  0  0  0  0
  184.2120  178.9060  143.5360 C   0  0  1  0  0  3  0  0  0  0  0  0
  184.5230  178.0380  142.3110 C   0  0  0  0  0  2  0  0  0  0  0  0
  182.2260  178.8490  141.4840 C   0  0  0  0  0  0  0  0  0  0  0  0
  182.7420  178.7880  143.9450 C   0  0  0  0  0  2  0  0  0  0  0  0
  183.8950  178.0360  140.0080 O   0  0  0  0  0  0  0  0  0  0  0  0
  183.5620  178.3100  141.1910 C   0  0  0  0  0  0  0  0  0  0  0  0
  181.4020  179.0640  140.5560 O   0  0  0  0  0  0  0  0  0  0  0  0
  181.8770  179.1690  142.8330 N   0  0  0  0  0  2  0  0  0  0  0  0
  1 19  1  0  0  0  0
  2  7  1  0  0  0  0
  4  7  2  0  0  0  0
  4 12  1  0  0  0  0
  5 11  2  0  0  0  0
  5 18  1  0  0  0  0
  6 17  1  0  0  0  0
  6  9  2  0  0  0  0
  7  5  1  0  0  0  0
  8 18  2  0  0  0  0
  9  4  1  0  0  0  0
 10 15  2  0  0  0  0
 11 20  1  0  0  0  0
 12  8  1  0  0  0  0
 14 10  1  0  0  0  0
 14  3  1  0  0  0  0
 15 13  1  0  0  0  0
 16  6  1  0  0  0  0
 17  2  2  0  0  0  0
 18 14  1  0  0  0  0
 19 13  2  0  0  0  0
 20  1  2  0  0  0  0
 20 10  1  0  0  0  0
 21 24  1  0  0  0  0
 21  1  1  1  0  0  0
 22 21  1  0  0  0  0
 23 28  1  0  0  0  0
 25 26  2  0  0  0  0
 26 23  1  0  0  0  0
 26 22  1  0  0  0  0
 27 23  2  0  0  0  0
 28 24  1  0  0  0  0
M  END
>  <MODEL>
8

>  <REMARK>
 VINA RESULT:     -11.1      3.106      6.263
  Name = 
  1 active torsions:
  status: ('A' for Active; 'I' for Inactive)
    1  A    between atoms: C_1  and  C_2
                            x       y       z     vdW  Elec       q    Type
                         _______ _______ _______ _____ _____    ______ ____

>  <TORSDO>
F 1

$$$$
=
 OpenBabel10272401593D

 28 32  0  0  1  0  0  0  0  0999 V2000
  186.8890  177.7980  144.8590 C   0  0  0  0  0  0  0  0  0  0  0  0
  189.9400  177.1420  140.6380 C   0  0  0  0  0  3  0  0  0  0  0  0
  183.9610  179.2260  141.1110 C   0  0  0  0  0  1  0  0  0  0  0  0
  188.4440  177.8580  138.8640 C   0  0  0  0  0  0  0  0  0  0  0  0
  187.6030  177.9200  141.1870 C   0  0  0  0  0  0  0  0  0  0  0  0
  190.6870  177.1120  138.3340 C   0  0  0  0  0  0  0  0  0  0  0  0
  188.6890  177.6300  140.2290 C   0  0  0  0  0  0  0  0  0  0  0  0
  186.1620  178.6210  139.3530 C   0  0  0  0  0  3  0  0  0  0  0  0
  189.4430  177.5980  137.9220 C   0  0  0  0  0  3  0  0  0  0  0  0
  185.4490  178.5010  143.0080 C   0  0  0  0  0  0  0  0  0  0  0  0
  187.7640  177.7280  142.5000 C   0  0  0  0  0  3  0  0  0  0  0  0
  187.1990  178.3440  138.4480 O   0  0  0  0  0  0  0  0  0  0  0  0
  184.6270  178.5590  145.2940 C   0  0  0  0  0  3  0  0  0  0  0  0
  185.2440  178.7190  141.5970 N   0  0  0  0  0  0  0  0  0  0  0  0
  184.4270  178.7700  143.9310 C   0  0  0  0  0  3  0  0  0  0  0  0
  191.6530  176.8620  137.4190 F   0  0  0  0  0  0  0  0  0  0  0  0
  190.9350  176.8850  139.6910 C   0  0  0  0  0  3  0  0  0  0  0  0
  186.3120  178.4320  140.6720 C   0  0  0  0  0  0  0  0  0  0  0  0
  185.8510  178.0760  145.7530 C   0  0  0  0  0  3  0  0  0  0  0  0
  186.6900  178.0110  143.4740 C   0  0  0  0  0  0  0  0  0  0  0  0
  188.1760  177.2810  145.4390 C   0  0  1  0  0  3  0  0  0  0  0  0
  189.3880  178.0450  144.8920 C   0  0  0  0  0  2  0  0  0  0  0  0
  190.6380  176.9330  146.8460 C   0  0  0  0  0  0  0  0  0  0  0  0
  188.1520  177.2940  146.9690 C   0  0  0  0  0  2  0  0  0  0  0  0
  191.7570  177.7520  144.9210 O   0  0  0  0  0  0  0  0  0  0  0  0
  190.6640  177.5690  145.5200 C   0  0  0  0  0  0  0  0  0  0  0  0
  191.7040  176.5460  147.3930 O   0  0  0  0  0  0  0  0  0  0  0  0
  189.3840  176.7190  147.4980 N   0  0  0  0  0  2  0  0  0  0  0  0
  1 19  1  0  0  0  0
  3 14  1  0  0  0  0
  4  7  2  0  0  0  0
  5 11  2  0  0  0  0
  6 17  1  0  0  0  0
  7  2  1  0  0  0  0
  7  5  1  0  0  0  0
  8 18  2  0  0  0  0
  9  6  2  0  0  0  0
  9  4  1  0  0  0  0
 10 20  1  0  0  0  0
 10 15  2  0  0  0  0
 11 20  1  0  0  0  0
 12  4  1  0  0  0  0
 12  8  1  0  0  0  0
 13 19  2  0  0  0  0
 14 10  1  0  0  0  0
 15 13  1  0  0  0  0
 16  6  1  0  0  0  0
 17  2  2  0  0  0  0
 18  5  1  0  0  0  0
 18 14  1  0  0  0  0
 20  1  2  0  0  0  0
 21  1  1  6  0  0  0
 21 24  1  0  0  0  0
 22 21  1  0  0  0  0
 22 26  1  0  0  0  0
 23 27  2  0  0  0  0
 23 28  1  0  0  0  0
 24 28  1  0  0  0  0
 25 26  2  0  0  0  0
 26 23  1  0  0  0  0
M  END
>  <MODEL>
9

>  <REMARK>
 VINA RESULT:     -11.1      3.398      6.796
  Name = 
  1 active torsions:
  status: ('A' for Active; 'I' for Inactive)
    1  A    between atoms: C_1  and  C_2
                            x       y       z     vdW  Elec       q    Type
                         _______ _______ _______ _____ _____    ______ ____

>  <TORSDO>
F 1

$$$$
