=
 OpenBabel10272414263D

 43 47  0  0  1  0  0  0  0  0999 V2000
  186.6100  178.3370  138.7410 N   0  0  0  0  0  2  0  0  0  0  0  0
  187.9010  177.4170  146.5350 C   0  0  0  0  0  0  0  0  0  0  0  0
  184.5030  179.3340  138.7360 O   0  0  0  0  0  0  0  0  0  0  0  0
  184.5600  178.7300  142.9800 C   0  0  0  0  0  0  0  0  0  0  0  0
  185.4250  178.7850  139.3970 C   0  0  0  0  0  0  0  0  0  0  0  0
  185.9580  178.4520  145.3690 C   0  0  0  0  0  0  0  0  0  0  0  0
  188.5340  177.2500  145.3630 C   0  0  0  0  0  3  0  0  0  0  0  0
  188.3940  176.6950  147.7400 C   0  0  0  0  0  1  0  0  0  0  0  0
  186.6320  178.2710  144.1410 C   0  0  0  0  0  0  0  0  0  0  0  0
  186.7150  178.3410  146.6620 C   0  0  0  0  0  2  0  0  0  0  0  0
  188.1070  177.9900  144.1200 C   0  0  0  0  0  2  0  0  0  0  0  0
  186.3830  178.3280  141.6390 N   0  0  0  0  0  2  0  0  0  0  0  0
  185.9000  178.4230  142.9620 C   0  0  0  0  0  0  0  0  0  0  0  0
  183.8740  178.9180  144.1810 C   0  0  0  0  0  3  0  0  0  0  0  0
  184.0530  178.8280  141.5790 C   0  0  1  0  0  3  0  0  0  0  0  0
  185.2850  178.5960  140.8080 N   0  0  0  0  0  0  0  0  0  0  0  0
  184.5880  178.7790  145.3830 C   0  0  0  0  0  3  0  0  0  0  0  0
  183.0650  177.6940  141.3360 C   0  0  0  0  0  2  0  0  0  0  0  0
  181.8960  178.1710  140.4930 C   0  0  0  0  0  2  0  0  0  0  0  0
  181.1900  176.8740  137.0580 O   0  0  0  0  0  0  0  0  0  0  0  0
  182.4830  175.1780  138.1710 C   0  0  0  0  0  2  0  0  0  0  0  0
  182.3190  176.0450  136.9220 C   0  0  1  0  0  3  0  0  0  0  0  0
  181.5010  177.8280  138.0430 C   0  0  0  0  0  2  0  0  0  0  0  0
  181.5710  177.1530  139.4160 C   0  0  1  0  0  3  0  0  0  0  0  0
  182.1500  175.1540  135.7090 C   0  0  0  0  0  1  0  0  0  0  0  0
  182.6610  176.0860  139.3860 C   0  0  0  0  0  2  0  0  0  0  0  0
  186.7800  178.4470  137.3010 C   0  0  0  0  0  2  0  0  0  0  0  0
  187.8110  177.4210  136.8080 C   0  0  2  0  0  3  0  0  0  0  0  0
  187.7830  177.2260  135.4100 O   0  0  0  0  0  0  0  0  0  0  0  0
  186.8330  178.0920  134.8470 C   0  0  0  0  0  1  0  0  0  0  0  0
  187.9000  176.1030  137.6080 C   0  0  1  0  0  3  0  0  0  0  0  0
  187.4250  174.9260  136.7600 C   0  0  0  0  0  2  0  0  0  0  0  0
  185.7470  173.2510  137.5310 C   0  0  0  0  0  1  0  0  0  0  0  0
  185.9460  174.6500  136.9800 C   0  0  0  0  0  2  0  0  0  0  0  0
  189.3100  175.8410  138.1320 C   0  0  0  0  0  2  0  0  0  0  0  0
  190.1630  177.1000  138.0800 C   0  0  2  0  0  3  0  0  0  0  0  0
  191.3100  176.8450  137.3240 O   0  0  0  0  0  1  0  0  0  0  0  0
  190.5520  177.5210  139.4930 C   0  0  2  0  0  3  0  0  0  0  0  0
  190.2320  176.2270  141.5380 O   0  0  0  0  0  0  0  0  0  0  0  0
  192.1890  177.5830  141.0680 C   0  0  0  0  0  2  0  0  0  0  0  0
  191.1770  177.0950  142.1200 C   0  0  0  0  0  2  0  0  0  0  0  0
  191.8640  177.0910  139.7880 O   0  0  0  0  0  0  0  0  0  0  0  0
  189.5590  176.9450  140.5250 C   0  0  0  0  0  2  0  0  0  0  0  0
  1  5  1  0  0  0  0
  2 10  1  0  0  0  0
  2  8  1  0  0  0  0
  3  5  2  0  0  0  0
  4 14  1  0  0  0  0
  5 16  1  0  0  0  0
  6 17  1  0  0  0  0
  6 10  1  0  0  0  0
  7  2  2  0  0  0  0
  9  6  2  0  0  0  0
 11  9  1  0  0  0  0
 11  7  1  0  0  0  0
 12 13  1  0  0  0  0
 13  4  2  0  0  0  0
 13  9  1  0  0  0  0
 14 17  2  0  0  0  0
 15 18  1  6  0  0  0
 15  4  1  0  0  0  0
 16 15  1  0  0  0  0
 16 12  1  0  0  0  0
 19 18  1  0  0  0  0
 20 23  1  0  0  0  0
 21 26  1  0  0  0  0
 22 25  1  6  0  0  0
 22 20  1  0  0  0  0
 22 21  1  0  0  0  0
 23 24  1  0  0  0  0
 24 19  1  1  0  0  0
 26 24  1  0  0  0  0
 27  1  1  0  0  0  0
 28 27  1  1  0  0  0
 28 31  1  0  0  0  0
 29 28  1  0  0  0  0
 30 29  1  0  0  0  0
 31 32  1  6  0  0  0
 31 35  1  0  0  0  0
 32 34  1  0  0  0  0
 34 33  1  0  0  0  0
 36 37  1  6  0  0  0
 36 35  1  0  0  0  0
 38 36  1  6  0  0  0
 38 42  1  0  0  0  0
 38 43  1  0  0  0  0
 39 41  1  0  0  0  0
 40 41  1  0  0  0  0
 42 40  1  0  0  0  0
 43 39  1  0  0  0  0
M  END
>  <MODEL>
1

>  <REMARK>
 VINA RESULT:      -8.3      0.000      0.000
  Name = 
  12 active torsions:
  status: ('A' for Active; 'I' for Inactive)
    1  A    between atoms: C_1  and  C_28
    2  A    between atoms: C_1  and  C_34
    3  A    between atoms: N_2  and  C_6
    4  A    between atoms: C_3  and  C_4
    5  A    between atoms: C_3  and  C_6
    6  A    between atoms: C_3  and  O_12
    7  A    between atoms: C_4  and  C_15
    8  A    between atoms: C_4  and  C_22
    9  A    between atoms: C_11  and  C_14
   10  A    between atoms: C_14  and  C_22
   11  A    between atoms: C_15  and  C_42
   12  A    between atoms: C_28  and  C_35
                            x       y       z     vdW  Elec       q    Type
                         _______ _______ _______ _____ _____    ______ ____

>  <TORSDO>
F 12

$$$$
=
 OpenBabel10272414263D

 43 47  0  0  1  0  0  0  0  0999 V2000
  186.5670  178.3310  138.9660 N   0  0  0  0  0  2  0  0  0  0  0  0
  187.4590  177.5600  146.8320 C   0  0  0  0  0  0  0  0  0  0  0  0
  184.4890  179.3810  138.8370 O   0  0  0  0  0  0  0  0  0  0  0  0
  184.3280  178.8740  143.0920 C   0  0  0  0  0  0  0  0  0  0  0  0
  185.3640  178.8240  139.5550 C   0  0  0  0  0  0  0  0  0  0  0  0
  185.6020  178.6160  145.5510 C   0  0  0  0  0  0  0  0  0  0  0  0
  188.1430  177.3500  145.6960 C   0  0  0  0  0  3  0  0  0  0  0  0
  187.8740  176.8540  148.0750 C   0  0  0  0  0  1  0  0  0  0  0  0
  186.3290  178.3900  144.3610 C   0  0  0  0  0  0  0  0  0  0  0  0
  186.2920  178.5160  146.8810 C   0  0  0  0  0  2  0  0  0  0  0  0
  187.7950  178.0710  144.4180 C   0  0  0  0  0  2  0  0  0  0  0  0
  186.2010  178.3950  141.8490 N   0  0  0  0  0  2  0  0  0  0  0  0
  185.6580  178.5320  143.1460 C   0  0  0  0  0  0  0  0  0  0  0  0
  183.5900  179.1070  144.2530 C   0  0  0  0  0  3  0  0  0  0  0  0
  183.8910  178.9520  141.6660 C   0  0  1  0  0  3  0  0  0  0  0  0
  185.1510  178.6710  140.9610 N   0  0  0  0  0  0  0  0  0  0  0  0
  184.2420  178.9780  145.4920 C   0  0  0  0  0  3  0  0  0  0  0  0
  182.8860  177.8380  141.4000 C   0  0  0  0  0  2  0  0  0  0  0  0
  181.4660  178.3720  141.4520 C   0  0  0  0  0  2  0  0  0  0  0  0
  180.4930  179.9280  138.1950 O   0  0  0  0  0  0  0  0  0  0  0  0
  181.1990  177.6860  137.6900 C   0  0  0  0  0  2  0  0  0  0  0  0
  181.3300  179.1710  137.3540 C   0  0  1  0  0  3  0  0  0  0  0  0
  181.0470  179.8660  139.4860 C   0  0  0  0  0  2  0  0  0  0  0  0
  180.8810  178.4540  140.0550 C   0  0  1  0  0  3  0  0  0  0  0  0
  180.9340  179.3980  135.9100 C   0  0  0  0  0  1  0  0  0  0  0  0
  181.6080  177.4670  139.1450 C   0  0  0  0  0  2  0  0  0  0  0  0
  186.8090  178.4030  137.5350 C   0  0  0  0  0  2  0  0  0  0  0  0
  188.2280  177.9160  137.2100 C   0  0  2  0  0  3  0  0  0  0  0  0
  188.4460  177.7020  135.8320 O   0  0  0  0  0  0  0  0  0  0  0  0
  187.2130  177.7430  135.1630 C   0  0  0  0  0  1  0  0  0  0  0  0
  188.7820  176.7820  138.1000 C   0  0  1  0  0  3  0  0  0  0  0  0
  189.3090  175.6340  137.2430 C   0  0  0  0  0  2  0  0  0  0  0  0
  191.6160  175.6220  136.2970 C   0  0  0  0  0  1  0  0  0  0  0  0
  190.7760  175.3600  137.5320 C   0  0  0  0  0  2  0  0  0  0  0  0
  189.8700  177.2740  139.0510 C   0  0  0  0  0  2  0  0  0  0  0  0
  189.3560  177.3630  140.4810 C   0  0  2  0  0  3  0  0  0  0  0  0
  189.2570  178.7070  140.8480 O   0  0  0  0  0  1  0  0  0  0  0  0
  190.3110  176.6350  141.4220 C   0  0  2  0  0  3  0  0  0  0  0  0
  191.3970  177.5650  143.4000 O   0  0  0  0  0  0  0  0  0  0  0  0
  190.5190  175.3070  143.2540 C   0  0  0  0  0  2  0  0  0  0  0  0
  191.6340  176.2280  143.7790 C   0  0  0  0  0  2  0  0  0  0  0  0
  189.5920  176.0300  142.4740 O   0  0  0  0  0  0  0  0  0  0  0  0
  191.3650  177.6090  141.9890 C   0  0  0  0  0  2  0  0  0  0  0  0
  1  5  1  0  0  0  0
  2 10  1  0  0  0  0
  2  8  1  0  0  0  0
  3  5  2  0  0  0  0
  4 13  2  0  0  0  0
  4 14  1  0  0  0  0
  5 16  1  0  0  0  0
  6 10  1  0  0  0  0
  7  2  2  0  0  0  0
  9 11  1  0  0  0  0
  9  6  2  0  0  0  0
 11  7  1  0  0  0  0
 12 13  1  0  0  0  0
 13  9  1  0  0  0  0
 14 17  2  0  0  0  0
 15 18  1  1  0  0  0
 15  4  1  0  0  0  0
 16 15  1  0  0  0  0
 16 12  1  0  0  0  0
 17  6  1  0  0  0  0
 18 19  1  0  0  0  0
 20 23  1  0  0  0  0
 21 26  1  0  0  0  0
 22 25  1  6  0  0  0
 22 21  1  0  0  0  0
 22 20  1  0  0  0  0
 23 24  1  0  0  0  0
 24 19  1  1  0  0  0
 26 24  1  0  0  0  0
 27  1  1  0  0  0  0
 28 27  1  6  0  0  0
 28 31  1  0  0  0  0
 29 28  1  0  0  0  0
 30 29  1  0  0  0  0
 31 32  1  6  0  0  0
 31 35  1  0  0  0  0
 32 34  1  0  0  0  0
 33 34  1  0  0  0  0
 35 36  1  0  0  0  0
 36 37  1  1  0  0  0
 38 36  1  6  0  0  0
 38 43  1  0  0  0  0
 38 42  1  0  0  0  0
 39 41  1  0  0  0  0
 40 41  1  0  0  0  0
 42 40  1  0  0  0  0
 43 39  1  0  0  0  0
M  END
>  <MODEL>
2

>  <REMARK>
 VINA RESULT:      -8.0      1.579      2.240
  Name = 
  12 active torsions:
  status: ('A' for Active; 'I' for Inactive)
    1  A    between atoms: C_1  and  C_28
    2  A    between atoms: C_1  and  C_34
    3  A    between atoms: N_2  and  C_6
    4  A    between atoms: C_3  and  C_4
    5  A    between atoms: C_3  and  C_6
    6  A    between atoms: C_3  and  O_12
    7  A    between atoms: C_4  and  C_15
    8  A    between atoms: C_4  and  C_22
    9  A    between atoms: C_11  and  C_14
   10  A    between atoms: C_14  and  C_22
   11  A    between atoms: C_15  and  C_42
   12  A    between atoms: C_28  and  C_35
                            x       y       z     vdW  Elec       q    Type
                         _______ _______ _______ _____ _____    ______ ____

>  <TORSDO>
F 12

$$$$
=
 OpenBabel10272414263D

 43 47  0  0  1  0  0  0  0  0999 V2000
  184.5800  179.5320  140.1040 N   0  0  0  0  0  2  0  0  0  0  0  0
  187.8060  177.9030  147.1890 C   0  0  0  0  0  0  0  0  0  0  0  0
  185.9830  178.3420  138.6720 O   0  0  0  0  0  0  0  0  0  0  0  0
  188.2910  177.4710  142.1790 C   0  0  0  0  0  0  0  0  0  0  0  0
  185.7410  178.7440  139.8420 C   0  0  0  0  0  0  0  0  0  0  0  0
  188.4710  177.0930  144.9290 C   0  0  0  0  0  0  0  0  0  0  0  0
  186.7440  178.5350  146.6660 C   0  0  0  0  0  3  0  0  0  0  0  0
  188.2390  178.2280  148.5750 C   0  0  0  0  0  1  0  0  0  0  0  0
  187.3510  177.7620  144.3880 C   0  0  0  0  0  0  0  0  0  0  0  0
  188.5570  176.8510  146.4090 C   0  0  0  0  0  2  0  0  0  0  0  0
  186.2340  178.2140  145.2840 C   0  0  0  0  0  2  0  0  0  0  0  0
  186.2520  178.5280  142.2590 N   0  0  0  0  0  2  0  0  0  0  0  0
  187.2920  177.9300  143.0040 C   0  0  0  0  0  0  0  0  0  0  0  0
  189.4050  176.8020  142.6890 C   0  0  0  0  0  3  0  0  0  0  0  0
  187.9530  177.7930  140.7610 C   0  0  1  0  0  3  0  0  0  0  0  0
  186.6330  178.4240  140.9130 N   0  0  0  0  0  0  0  0  0  0  0  0
  189.4870  176.6120  144.0800 C   0  0  0  0  0  3  0  0  0  0  0  0
  188.9590  178.8090  140.2360 C   0  0  0  0  0  2  0  0  0  0  0  0
  189.3380  178.4990  138.7990 C   0  0  0  0  0  2  0  0  0  0  0  0
  189.0850  175.0950  137.2720 O   0  0  0  0  0  0  0  0  0  0  0  0
  191.3530  175.3280  138.0350 C   0  0  0  0  0  2  0  0  0  0  0  0
  190.4280  174.9530  136.8780 C   0  0  1  0  0  3  0  0  0  0  0  0
  188.8440  176.4730  137.4100 C   0  0  0  0  0  2  0  0  0  0  0  0
  189.5950  177.0130  138.6300 C   0  0  1  0  0  3  0  0  0  0  0  0
  190.6860  173.5170  136.4710 C   0  0  0  0  0  1  0  0  0  0  0  0
  191.0910  176.7800  138.4310 C   0  0  0  0  0  2  0  0  0  0  0  0
  183.6720  179.9400  139.0440 C   0  0  0  0  0  2  0  0  0  0  0  0
  182.2890  179.3080  139.2570 C   0  0  2  0  0  3  0  0  0  0  0  0
  181.2250  180.2210  139.0950 O   0  0  0  0  0  0  0  0  0  0  0  0
  181.7050  181.3750  138.4570 C   0  0  0  0  0  1  0  0  0  0  0  0
  182.1350  178.4040  140.5000 C   0  0  1  0  0  3  0  0  0  0  0  0
  180.8820  178.7810  141.2870 C   0  0  0  0  0  2  0  0  0  0  0  0
  182.6740  178.9470  143.0130 C   0  0  0  0  0  1  0  0  0  0  0  0
  181.1770  178.8850  142.7750 C   0  0  0  0  0  2  0  0  0  0  0  0
  182.1030  176.9220  140.1340 C   0  0  0  0  0  2  0  0  0  0  0  0
  181.1110  176.6490  139.0130 C   0  0  2  0  0  3  0  0  0  0  0  0
  180.0450  175.9010  139.5180 O   0  0  0  0  0  1  0  0  0  0  0  0
  181.7980  175.8860  137.8860 C   0  0  2  0  0  3  0  0  0  0  0  0
  183.8520  174.5790  138.0560 O   0  0  0  0  0  0  0  0  0  0  0  0
  181.9280  173.9390  136.7220 C   0  0  0  0  0  2  0  0  0  0  0  0
  183.4630  173.9880  136.8370 C   0  0  0  0  0  2  0  0  0  0  0  0
  181.3180  174.5600  137.8310 O   0  0  0  0  0  0  0  0  0  0  0  0
  183.3290  175.8890  138.0820 C   0  0  0  0  0  2  0  0  0  0  0  0
  2  8  1  0  0  0  0
  3  5  2  0  0  0  0
  4 14  2  0  0  0  0
  4 13  1  0  0  0  0
  5  1  1  0  0  0  0
  5 16  1  0  0  0  0
  6 10  1  0  0  0  0
  7  2  2  0  0  0  0
  9  6  1  0  0  0  0
  9 11  1  0  0  0  0
 10  2  1  0  0  0  0
 11  7  1  0  0  0  0
 12 13  1  0  0  0  0
 13  9  2  0  0  0  0
 14 17  1  0  0  0  0
 15 18  1  1  0  0  0
 15 16  1  0  0  0  0
 15  4  1  0  0  0  0
 16 12  1  0  0  0  0
 17  6  2  0  0  0  0
 19 18  1  0  0  0  0
 20 23  1  0  0  0  0
 21 26  1  0  0  0  0
 22 25  1  1  0  0  0
 22 20  1  0  0  0  0
 22 21  1  0  0  0  0
 23 24  1  0  0  0  0
 24 19  1  6  0  0  0
 26 24  1  0  0  0  0
 27  1  1  0  0  0  0
 28 27  1  1  0  0  0
 28 31  1  0  0  0  0
 29 28  1  0  0  0  0
 30 29  1  0  0  0  0
 31 35  1  6  0  0  0
 31 32  1  0  0  0  0
 32 34  1  0  0  0  0
 34 33  1  0  0  0  0
 36 37  1  1  0  0  0
 36 35  1  0  0  0  0
 38 43  1  0  0  0  0
 38 36  1  1  0  0  0
 39 43  1  0  0  0  0
 40 41  1  0  0  0  0
 40 42  1  0  0  0  0
 41 39  1  0  0  0  0
 42 38  1  0  0  0  0
M  END
>  <MODEL>
3

>  <REMARK>
 VINA RESULT:      -7.9      1.965      6.780
  Name = 
  12 active torsions:
  status: ('A' for Active; 'I' for Inactive)
    1  A    between atoms: C_1  and  C_28
    2  A    between atoms: C_1  and  C_34
    3  A    between atoms: N_2  and  C_6
    4  A    between atoms: C_3  and  C_4
    5  A    between atoms: C_3  and  C_6
    6  A    between atoms: C_3  and  O_12
    7  A    between atoms: C_4  and  C_15
    8  A    between atoms: C_4  and  C_22
    9  A    between atoms: C_11  and  C_14
   10  A    between atoms: C_14  and  C_22
   11  A    between atoms: C_15  and  C_42
   12  A    between atoms: C_28  and  C_35
                            x       y       z     vdW  Elec       q    Type
                         _______ _______ _______ _____ _____    ______ ____

>  <TORSDO>
F 12

$$$$
=
 OpenBabel10272414263D

 43 47  0  0  1  0  0  0  0  0999 V2000
  185.0080  179.0740  139.4110 N   0  0  0  0  0  2  0  0  0  0  0  0
  192.3700  176.3470  138.1420 C   0  0  0  0  0  0  0  0  0  0  0  0
  185.1130  179.6570  141.6660 O   0  0  0  0  0  0  0  0  0  0  0  0
  189.0500  177.9620  141.5900 C   0  0  0  0  0  0  0  0  0  0  0  0
  185.6730  179.1190  140.6730 C   0  0  0  0  0  0  0  0  0  0  0  0
  191.3780  177.3020  140.2170 C   0  0  0  0  0  0  0  0  0  0  0  0
  191.2430  176.6110  137.4630 C   0  0  0  0  0  3  0  0  0  0  0  0
  193.3800  175.4260  137.5500 C   0  0  0  0  0  1  0  0  0  0  0  0
  190.1950  177.5750  139.4950 C   0  0  0  0  0  0  0  0  0  0  0  0
  192.6480  176.9830  139.4820 C   0  0  0  0  0  2  0  0  0  0  0  0
  190.2070  177.5690  137.9940 C   0  0  0  0  0  2  0  0  0  0  0  0
  187.7820  178.2540  139.6960 N   0  0  0  0  0  2  0  0  0  0  0  0
  189.0480  177.9070  140.2160 C   0  0  0  0  0  0  0  0  0  0  0  0
  190.2070  177.7010  142.3260 C   0  0  0  0  0  3  0  0  0  0  0  0
  187.6900  178.3400  142.0760 C   0  0  1  0  0  3  0  0  0  0  0  0
  186.9740  178.5390  140.8060 N   0  0  0  0  0  0  0  0  0  0  0  0
  191.3810  177.3720  141.6240 C   0  0  0  0  0  3  0  0  0  0  0  0
  187.0940  177.1590  142.8310 C   0  0  0  0  0  2  0  0  0  0  0  0
  186.1390  177.6380  143.9100 C   0  0  0  0  0  2  0  0  0  0  0  0
  186.7650  178.6760  147.4470 O   0  0  0  0  0  0  0  0  0  0  0  0
  188.8050  177.6720  146.6650 C   0  0  0  0  0  2  0  0  0  0  0  0
  187.7460  177.7190  147.7660 C   0  0  1  0  0  3  0  0  0  0  0  0
  186.0380  178.1670  146.3570 C   0  0  0  0  0  2  0  0  0  0  0  0
  186.9130  178.1750  145.1000 C   0  0  1  0  0  3  0  0  0  0  0  0
  188.4020  178.0840  149.0810 C   0  0  0  0  0  1  0  0  0  0  0  0
  188.1350  177.2940  145.3450 C   0  0  0  0  0  2  0  0  0  0  0  0
  183.6610  179.5920  139.2330 C   0  0  0  0  0  2  0  0  0  0  0  0
  182.7660  178.5300  138.5790 C   0  0  2  0  0  3  0  0  0  0  0  0
  183.4450  177.7270  137.6370 O   0  0  0  0  0  0  0  0  0  0  0  0
  182.5350  176.8250  137.0660 C   0  0  0  0  0  1  0  0  0  0  0  0
  181.3830  179.0100  138.0880 C   0  0  1  0  0  3  0  0  0  0  0  0
  180.3010  178.6720  139.1110 C   0  0  0  0  0  2  0  0  0  0  0  0
  180.6110  178.6360  141.5840 C   0  0  0  0  0  1  0  0  0  0  0  0
  180.8770  177.8990  140.2860 C   0  0  0  0  0  2  0  0  0  0  0  0
  181.3670  180.5060  137.7780 C   0  0  0  0  0  2  0  0  0  0  0  0
  180.4640  180.8160  136.5930 C   0  0  2  0  0  3  0  0  0  0  0  0
  181.0570  180.3290  135.4270 O   0  0  0  0  0  1  0  0  0  0  0  0
  180.2550  182.3230  136.4820 C   0  0  2  0  0  3  0  0  0  0  0  0
  181.7610  184.0650  137.2900 O   0  0  0  0  0  0  0  0  0  0  0  0
  180.5230  184.1830  135.2060 C   0  0  0  0  0  2  0  0  0  0  0  0
  181.0520  184.9370  136.4390 C   0  0  0  0  0  2  0  0  0  0  0  0
  180.8250  182.8080  135.2860 O   0  0  0  0  0  0  0  0  0  0  0  0
  180.8710  183.0490  137.6970 C   0  0  0  0  0  2  0  0  0  0  0  0
  1  5  1  0  0  0  0
  2 10  1  0  0  0  0
  4 15  1  0  0  0  0
  4 14  1  0  0  0  0
  5 16  1  0  0  0  0
  5  3  2  0  0  0  0
  6 17  1  0  0  0  0
  7 11  1  0  0  0  0
  7  2  2  0  0  0  0
  8  2  1  0  0  0  0
  9 13  1  0  0  0  0
  9  6  2  0  0  0  0
 10  6  1  0  0  0  0
 11  9  1  0  0  0  0
 12 13  1  0  0  0  0
 12 16  1  0  0  0  0
 13  4  2  0  0  0  0
 15 18  1  1  0  0  0
 16 15  1  0  0  0  0
 17 14  2  0  0  0  0
 18 19  1  0  0  0  0
 20 22  1  0  0  0  0
 21 22  1  0  0  0  0
 22 25  1  1  0  0  0
 23 20  1  0  0  0  0
 24 19  1  6  0  0  0
 24 26  1  0  0  0  0
 24 23  1  0  0  0  0
 26 21  1  0  0  0  0
 27  1  1  0  0  0  0
 28 27  1  6  0  0  0
 29 28  1  0  0  0  0
 30 29  1  0  0  0  0
 31 35  1  1  0  0  0
 31 28  1  0  0  0  0
 31 32  1  0  0  0  0
 32 34  1  0  0  0  0
 34 33  1  0  0  0  0
 36 37  1  6  0  0  0
 36 35  1  0  0  0  0
 38 36  1  1  0  0  0
 38 43  1  0  0  0  0
 39 43  1  0  0  0  0
 40 42  1  0  0  0  0
 40 41  1  0  0  0  0
 41 39  1  0  0  0  0
 42 38  1  0  0  0  0
M  END
>  <MODEL>
4

>  <REMARK>
 VINA RESULT:      -7.9      3.029      8.692
  Name = 
  12 active torsions:
  status: ('A' for Active; 'I' for Inactive)
    1  A    between atoms: C_1  and  C_28
    2  A    between atoms: C_1  and  C_34
    3  A    between atoms: N_2  and  C_6
    4  A    between atoms: C_3  and  C_4
    5  A    between atoms: C_3  and  C_6
    6  A    between atoms: C_3  and  O_12
    7  A    between atoms: C_4  and  C_15
    8  A    between atoms: C_4  and  C_22
    9  A    between atoms: C_11  and  C_14
   10  A    between atoms: C_14  and  C_22
   11  A    between atoms: C_15  and  C_42
   12  A    between atoms: C_28  and  C_35
                            x       y       z     vdW  Elec       q    Type
                         _______ _______ _______ _____ _____    ______ ____

>  <TORSDO>
F 12

$$$$
=
 OpenBabel10272414263D

 43 47  0  0  1  0  0  0  0  0999 V2000
  184.6110  179.4870  140.2500 N   0  0  0  0  0  2  0  0  0  0  0  0
  188.0340  177.8440  147.2390 C   0  0  0  0  0  0  0  0  0  0  0  0
  185.9620  178.2840  138.7800 O   0  0  0  0  0  0  0  0  0  0  0  0
  188.3660  177.4000  142.2180 C   0  0  0  0  0  0  0  0  0  0  0  0
  185.7570  178.6900  139.9560 C   0  0  0  0  0  0  0  0  0  0  0  0
  188.6250  177.0250  144.9620 C   0  0  0  0  0  0  0  0  0  0  0  0
  186.9620  178.4830  146.7470 C   0  0  0  0  0  3  0  0  0  0  0  0
  188.5110  178.1680  148.6120 C   0  0  0  0  0  1  0  0  0  0  0  0
  187.4950  177.7030  144.4530 C   0  0  0  0  0  0  0  0  0  0  0  0
  188.7530  176.7860  146.4390 C   0  0  0  0  0  2  0  0  0  0  0  0
  186.4080  178.1650  145.3810 C   0  0  0  0  0  2  0  0  0  0  0  0
  186.3380  178.4730  142.3570 N   0  0  0  0  0  2  0  0  0  0  0  0
  187.3960  177.8690  143.0720 C   0  0  0  0  0  0  0  0  0  0  0  0
  189.4900  176.7240  142.6960 C   0  0  0  0  0  3  0  0  0  0  0  0
  187.9890  177.7230  140.8100 C   0  0  1  0  0  3  0  0  0  0  0  0
  186.6780  178.3640  141.0010 N   0  0  0  0  0  0  0  0  0  0  0  0
  189.6120  176.5360  144.0840 C   0  0  0  0  0  3  0  0  0  0  0  0
  188.9860  178.7310  140.2540 C   0  0  0  0  0  2  0  0  0  0  0  0
  189.9590  178.0560  139.3030 C   0  0  0  0  0  2  0  0  0  0  0  0
  188.3780  177.1210  136.0460 O   0  0  0  0  0  0  0  0  0  0  0  0
  189.3670  175.1110  136.9210 C   0  0  0  0  0  2  0  0  0  0  0  0
  189.2200  176.0430  135.7180 C   0  0  1  0  0  3  0  0  0  0  0  0
  189.0820  177.9250  136.9600 C   0  0  0  0  0  2  0  0  0  0  0  0
  189.2090  177.1970  138.3010 C   0  0  1  0  0  3  0  0  0  0  0  0
  188.6280  175.2740  134.5550 C   0  0  0  0  0  1  0  0  0  0  0  0
  189.9720  175.8930  138.0840 C   0  0  0  0  0  2  0  0  0  0  0  0
  183.6750  179.9000  139.2180 C   0  0  0  0  0  2  0  0  0  0  0  0
  182.3940  179.0570  139.2940 C   0  0  2  0  0  3  0  0  0  0  0  0
  182.4320  177.9040  138.4820 O   0  0  0  0  0  0  0  0  0  0  0  0
  182.5780  176.7730  139.3000 C   0  0  0  0  0  1  0  0  0  0  0  0
  181.0610  179.8310  139.1960 C   0  0  1  0  0  3  0  0  0  0  0  0
  180.4590  180.0450  140.5830 C   0  0  0  0  0  2  0  0  0  0  0  0
  181.0760  178.7990  142.6530 C   0  0  0  0  0  1  0  0  0  0  0  0
  180.3280  178.7310  141.3350 C   0  0  0  0  0  2  0  0  0  0  0  0
  181.2210  181.1680  138.4770 C   0  0  0  0  0  2  0  0  0  0  0  0
  180.4060  181.2070  137.1930 C   0  0  2  0  0  3  0  0  0  0  0  0
  181.0660  180.4670  136.2100 O   0  0  0  0  0  1  0  0  0  0  0  0
  180.2340  182.6510  136.7310 C   0  0  2  0  0  3  0  0  0  0  0  0
  181.8460  184.4640  136.9920 O   0  0  0  0  0  0  0  0  0  0  0  0
  180.4630  184.1340  135.0250 C   0  0  0  0  0  2  0  0  0  0  0  0
  181.1040  185.1370  136.0010 C   0  0  0  0  0  2  0  0  0  0  0  0
  180.7290  182.8060  135.4190 O   0  0  0  0  0  0  0  0  0  0  0  0
  180.9580  183.6190  137.6910 C   0  0  0  0  0  2  0  0  0  0  0  0
  2  8  1  0  0  0  0
  3  5  2  0  0  0  0
  4 14  2  0  0  0  0
  4 13  1  0  0  0  0
  5  1  1  0  0  0  0
  5 16  1  0  0  0  0
  6 10  1  0  0  0  0
  7  2  2  0  0  0  0
  9  6  1  0  0  0  0
  9 11  1  0  0  0  0
 10  2  1  0  0  0  0
 11  7  1  0  0  0  0
 12 13  1  0  0  0  0
 13  9  2  0  0  0  0
 14 17  1  0  0  0  0
 15 18  1  1  0  0  0
 15 16  1  0  0  0  0
 15  4  1  0  0  0  0
 16 12  1  0  0  0  0
 17  6  2  0  0  0  0
 19 18  1  0  0  0  0
 20 23  1  0  0  0  0
 21 26  1  0  0  0  0
 22 25  1  6  0  0  0
 22 20  1  0  0  0  0
 22 21  1  0  0  0  0
 23 24  1  0  0  0  0
 24 19  1  1  0  0  0
 26 24  1  0  0  0  0
 27  1  1  0  0  0  0
 28 27  1  6  0  0  0
 29 28  1  0  0  0  0
 29 30  1  0  0  0  0
 31 35  1  1  0  0  0
 31 28  1  0  0  0  0
 31 32  1  0  0  0  0
 32 34  1  0  0  0  0
 34 33  1  0  0  0  0
 36 37  1  6  0  0  0
 36 35  1  0  0  0  0
 38 36  1  1  0  0  0
 38 43  1  0  0  0  0
 39 43  1  0  0  0  0
 40 42  1  0  0  0  0
 40 41  1  0  0  0  0
 41 39  1  0  0  0  0
 42 38  1  0  0  0  0
M  END
>  <MODEL>
5

>  <REMARK>
 VINA RESULT:      -7.7      2.900      7.474
  Name = 
  12 active torsions:
  status: ('A' for Active; 'I' for Inactive)
    1  A    between atoms: C_1  and  C_28
    2  A    between atoms: C_1  and  C_34
    3  A    between atoms: N_2  and  C_6
    4  A    between atoms: C_3  and  C_4
    5  A    between atoms: C_3  and  C_6
    6  A    between atoms: C_3  and  O_12
    7  A    between atoms: C_4  and  C_15
    8  A    between atoms: C_4  and  C_22
    9  A    between atoms: C_11  and  C_14
   10  A    between atoms: C_14  and  C_22
   11  A    between atoms: C_15  and  C_42
   12  A    between atoms: C_28  and  C_35
                            x       y       z     vdW  Elec       q    Type
                         _______ _______ _______ _____ _____    ______ ____

>  <TORSDO>
F 12

$$$$
=
 OpenBabel10272414263D

 43 47  0  0  1  0  0  0  0  0999 V2000
  190.0580  177.7680  141.5180 N   0  0  0  0  0  2  0  0  0  0  0  0
  194.7110  174.8550  135.7620 C   0  0  0  0  0  0  0  0  0  0  0  0
  187.9900  177.8490  140.4450 O   0  0  0  0  0  0  0  0  0  0  0  0
  190.1250  176.6200  136.9350 C   0  0  0  0  0  0  0  0  0  0  0  0
  189.2320  177.6420  140.3620 C   0  0  0  0  0  0  0  0  0  0  0  0
  192.2600  175.3010  135.7350 C   0  0  0  0  0  0  0  0  0  0  0  0
  194.7730  175.1910  137.0600 C   0  0  0  0  0  3  0  0  0  0  0  0
  195.9690  174.7520  134.9740 C   0  0  0  0  0  1  0  0  0  0  0  0
  192.3360  175.6540  137.1010 C   0  0  0  0  0  0  0  0  0  0  0  0
  193.3930  174.5550  135.0910 C   0  0  0  0  0  2  0  0  0  0  0  0
  193.5350  175.2670  137.9180 C   0  0  0  0  0  2  0  0  0  0  0  0
  191.0960  176.7120  139.0160 N   0  0  0  0  0  2  0  0  0  0  0  0
  191.2440  176.3110  137.6700 C   0  0  0  0  0  0  0  0  0  0  0  0
  190.0250  176.2780  135.5860 C   0  0  0  0  0  3  0  0  0  0  0  0
  189.1320  177.3150  137.8070 C   0  0  1  0  0  3  0  0  0  0  0  0
  189.8210  177.2910  139.1070 N   0  0  0  0  0  0  0  0  0  0  0  0
  191.1070  175.6080  134.9880 C   0  0  0  0  0  3  0  0  0  0  0  0
  188.9780  178.7520  137.3250 C   0  0  0  0  0  2  0  0  0  0  0  0
  187.6030  178.9720  136.7200 C   0  0  0  0  0  2  0  0  0  0  0  0
  184.6990  177.3680  138.4440 O   0  0  0  0  0  0  0  0  0  0  0  0
  184.8880  176.2980  136.2990 C   0  0  0  0  0  2  0  0  0  0  0  0
  183.9680  176.9960  137.3010 C   0  0  1  0  0  3  0  0  0  0  0  0
  185.5610  178.4100  138.0570 C   0  0  0  0  0  2  0  0  0  0  0  0
  186.6580  177.8620  137.1400 C   0  0  1  0  0  3  0  0  0  0  0  0
  182.8500  176.0550  137.6980 C   0  0  0  0  0  1  0  0  0  0  0  0
  186.0070  177.2580  135.8980 C   0  0  0  0  0  2  0  0  0  0  0  0
  189.5230  178.1820  142.8050 C   0  0  0  0  0  2  0  0  0  0  0  0
  189.8390  177.1270  143.8750 C   0  0  2  0  0  3  0  0  0  0  0  0
  190.3070  175.9080  143.3400 O   0  0  0  0  0  0  0  0  0  0  0  0
  191.6100  175.6750  143.8070 C   0  0  0  0  0  1  0  0  0  0  0  0
  188.7800  176.9410  144.9840 C   0  0  1  0  0  3  0  0  0  0  0  0
  189.0220  177.9220  146.1290 C   0  0  0  0  0  2  0  0  0  0  0  0
  188.6320  178.0310  148.5890 C   0  0  0  0  0  1  0  0  0  0  0  0
  189.1860  177.1940  147.4530 C   0  0  0  0  0  2  0  0  0  0  0  0
  187.3560  177.0890  144.4530 C   0  0  0  0  0  2  0  0  0  0  0  0
  186.5470  178.0590  145.3030 C   0  0  2  0  0  3  0  0  0  0  0  0
  185.9230  177.3520  146.3340 O   0  0  0  0  0  1  0  0  0  0  0  0
  185.5000  178.7550  144.4400 C   0  0  2  0  0  3  0  0  0  0  0  0
  184.4770  177.8820  142.4040 O   0  0  0  0  0  0  0  0  0  0  0  0
  183.2890  179.1540  144.0960 C   0  0  0  0  0  2  0  0  0  0  0  0
  183.4840  178.8640  142.5970 C   0  0  0  0  0  2  0  0  0  0  0  0
  184.2020  178.4140  144.8760 O   0  0  0  0  0  0  0  0  0  0  0  0
  185.6790  178.3750  142.9550 C   0  0  0  0  0  2  0  0  0  0  0  0
  1 27  1  0  0  0  0
  2  7  2  0  0  0  0
  4 13  1  0  0  0  0
  4 15  1  0  0  0  0
  5  3  2  0  0  0  0
  5  1  1  0  0  0  0
  6  9  1  0  0  0  0
  7 11  1  0  0  0  0
  8  2  1  0  0  0  0
  9 13  2  0  0  0  0
  9 11  1  0  0  0  0
 10  6  1  0  0  0  0
 10  2  1  0  0  0  0
 12 16  1  0  0  0  0
 13 12  1  0  0  0  0
 14  4  2  0  0  0  0
 15 18  1  6  0  0  0
 15 16  1  0  0  0  0
 16  5  1  0  0  0  0
 17 14  1  0  0  0  0
 17  6  2  0  0  0  0
 19 18  1  0  0  0  0
 21 22  1  0  0  0  0
 22 25  1  1  0  0  0
 22 20  1  0  0  0  0
 23 20  1  0  0  0  0
 24 19  1  6  0  0  0
 24 23  1  0  0  0  0
 26 21  1  0  0  0  0
 26 24  1  0  0  0  0
 28 27  1  6  0  0  0
 28 31  1  0  0  0  0
 29 30  1  0  0  0  0
 29 28  1  0  0  0  0
 31 35  1  6  0  0  0
 31 32  1  0  0  0  0
 32 34  1  0  0  0  0
 34 33  1  0  0  0  0
 35 36  1  0  0  0  0
 36 37  1  1  0  0  0
 38 42  1  0  0  0  0
 38 36  1  1  0  0  0
 39 41  1  0  0  0  0
 39 43  1  0  0  0  0
 40 42  1  0  0  0  0
 41 40  1  0  0  0  0
 43 38  1  0  0  0  0
M  END
>  <MODEL>
6

>  <REMARK>
 VINA RESULT:      -7.7      3.030      8.432
  Name = 
  12 active torsions:
  status: ('A' for Active; 'I' for Inactive)
    1  A    between atoms: C_1  and  C_28
    2  A    between atoms: C_1  and  C_34
    3  A    between atoms: N_2  and  C_6
    4  A    between atoms: C_3  and  C_4
    5  A    between atoms: C_3  and  C_6
    6  A    between atoms: C_3  and  O_12
    7  A    between atoms: C_4  and  C_15
    8  A    between atoms: C_4  and  C_22
    9  A    between atoms: C_11  and  C_14
   10  A    between atoms: C_14  and  C_22
   11  A    between atoms: C_15  and  C_42
   12  A    between atoms: C_28  and  C_35
                            x       y       z     vdW  Elec       q    Type
                         _______ _______ _______ _____ _____    ______ ____

>  <TORSDO>
F 12

$$$$
=
 OpenBabel10272414263D

 43 47  0  0  1  0  0  0  0  0999 V2000
  184.4270  179.4790  140.2240 N   0  0  0  0  0  2  0  0  0  0  0  0
  187.8820  177.9100  147.2130 C   0  0  0  0  0  0  0  0  0  0  0  0
  185.8560  178.3820  138.7440 O   0  0  0  0  0  0  0  0  0  0  0  0
  188.2800  177.5760  142.1880 C   0  0  0  0  0  0  0  0  0  0  0  0
  185.6190  178.7550  139.9260 C   0  0  0  0  0  0  0  0  0  0  0  0
  188.5380  177.1680  144.9280 C   0  0  0  0  0  0  0  0  0  0  0  0
  186.7780  178.4950  146.7230 C   0  0  0  0  0  3  0  0  0  0  0  0
  188.3280  178.2360  148.5960 C   0  0  0  0  0  1  0  0  0  0  0  0
  187.3740  177.7880  144.4210 C   0  0  0  0  0  0  0  0  0  0  0  0
  188.6670  176.9090  146.4020 C   0  0  0  0  0  2  0  0  0  0  0  0
  186.2550  178.1700  145.3470 C   0  0  0  0  0  2  0  0  0  0  0  0
  186.1920  178.5280  142.3280 N   0  0  0  0  0  2  0  0  0  0  0  0
  187.2770  177.9730  143.0410 C   0  0  0  0  0  0  0  0  0  0  0  0
  189.4360  176.9580  142.6650 C   0  0  0  0  0  3  0  0  0  0  0  0
  187.8960  177.9020  140.7830 C   0  0  1  0  0  3  0  0  0  0  0  0
  186.5490  178.4630  140.9730 N   0  0  0  0  0  0  0  0  0  0  0  0
  189.5580  176.7510  144.0500 C   0  0  0  0  0  3  0  0  0  0  0  0
  188.8380  178.9750  140.2530 C   0  0  0  0  0  2  0  0  0  0  0  0
  189.2470  178.6740  138.8230 C   0  0  0  0  0  2  0  0  0  0  0  0
  189.2440  175.3340  137.1410 O   0  0  0  0  0  0  0  0  0  0  0  0
  191.3180  175.4820  138.3500 C   0  0  0  0  0  2  0  0  0  0  0  0
  190.6360  175.1720  137.0170 C   0  0  1  0  0  3  0  0  0  0  0  0
  189.0050  176.7130  137.2830 C   0  0  0  0  0  2  0  0  0  0  0  0
  189.5060  177.1890  138.6490 C   0  0  1  0  0  3  0  0  0  0  0  0
  190.9450  173.7450  136.6140 C   0  0  0  0  0  1  0  0  0  0  0  0
  191.0070  176.9250  138.7430 C   0  0  0  0  0  2  0  0  0  0  0  0
  183.4770  179.8560  139.1900 C   0  0  0  0  0  2  0  0  0  0  0  0
  182.1360  179.1450  139.4150 C   0  0  2  0  0  3  0  0  0  0  0  0
  181.9600  178.6860  140.7390 O   0  0  0  0  0  0  0  0  0  0  0  0
  180.7060  179.1090  141.2060 C   0  0  0  0  0  1  0  0  0  0  0  0
  181.7250  178.1060  138.3490 C   0  0  1  0  0  3  0  0  0  0  0  0
  181.8020  178.7110  136.9500 C   0  0  0  0  0  2  0  0  0  0  0  0
  180.7240  180.7870  136.0860 C   0  0  0  0  0  1  0  0  0  0  0  0
  180.4870  179.3660  136.5590 C   0  0  0  0  0  2  0  0  0  0  0  0
  182.5720  176.8370  138.4230 C   0  0  0  0  0  2  0  0  0  0  0  0
  182.1330  175.8170  137.3820 C   0  0  2  0  0  3  0  0  0  0  0  0
  181.1170  175.0230  137.9200 O   0  0  0  0  0  1  0  0  0  0  0  0
  183.3170  174.9460  136.9770 C   0  0  2  0  0  3  0  0  0  0  0  0
  185.6720  175.5890  137.0040 O   0  0  0  0  0  0  0  0  0  0  0  0
  184.8430  173.3980  137.6380 C   0  0  0  0  0  2  0  0  0  0  0  0
  185.9490  174.2080  136.9400 C   0  0  0  0  0  2  0  0  0  0  0  0
  183.8100  174.2420  138.0960 O   0  0  0  0  0  0  0  0  0  0  0  0
  184.4380  175.8070  136.3550 C   0  0  0  0  0  2  0  0  0  0  0  0
  2  8  1  0  0  0  0
  3  5  2  0  0  0  0
  4 14  2  0  0  0  0
  4 13  1  0  0  0  0
  5  1  1  0  0  0  0
  5 16  1  0  0  0  0
  6 10  1  0  0  0  0
  7  2  2  0  0  0  0
  9  6  1  0  0  0  0
  9 11  1  0  0  0  0
 10  2  1  0  0  0  0
 11  7  1  0  0  0  0
 12 13  1  0  0  0  0
 13  9  2  0  0  0  0
 14 17  1  0  0  0  0
 15 18  1  1  0  0  0
 15 16  1  0  0  0  0
 15  4  1  0  0  0  0
 16 12  1  0  0  0  0
 17  6  2  0  0  0  0
 19 18  1  0  0  0  0
 20 23  1  0  0  0  0
 21 26  1  0  0  0  0
 22 25  1  1  0  0  0
 22 20  1  0  0  0  0
 22 21  1  0  0  0  0
 23 24  1  0  0  0  0
 24 26  1  0  0  0  0
 24 19  1  6  0  0  0
 27  1  1  0  0  0  0
 28 27  1  6  0  0  0
 28 29  1  0  0  0  0
 29 30  1  0  0  0  0
 31 32  1  6  0  0  0
 31 35  1  0  0  0  0
 31 28  1  0  0  0  0
 33 34  1  0  0  0  0
 34 32  1  0  0  0  0
 36 37  1  1  0  0  0
 36 35  1  0  0  0  0
 38 36  1  1  0  0  0
 38 42  1  0  0  0  0
 40 42  1  0  0  0  0
 41 39  1  0  0  0  0
 41 40  1  0  0  0  0
 43 38  1  0  0  0  0
 43 39  1  0  0  0  0
M  END
>  <MODEL>
7

>  <REMARK>
 VINA RESULT:      -7.5      1.936      6.376
  Name = 
  12 active torsions:
  status: ('A' for Active; 'I' for Inactive)
    1  A    between atoms: C_1  and  C_28
    2  A    between atoms: C_1  and  C_34
    3  A    between atoms: N_2  and  C_6
    4  A    between atoms: C_3  and  C_4
    5  A    between atoms: C_3  and  C_6
    6  A    between atoms: C_3  and  O_12
    7  A    between atoms: C_4  and  C_15
    8  A    between atoms: C_4  and  C_22
    9  A    between atoms: C_11  and  C_14
   10  A    between atoms: C_14  and  C_22
   11  A    between atoms: C_15  and  C_42
   12  A    between atoms: C_28  and  C_35
                            x       y       z     vdW  Elec       q    Type
                         _______ _______ _______ _____ _____    ______ ____

>  <TORSDO>
F 12

$$$$
=
 OpenBabel10272414263D

 43 47  0  0  1  0  0  0  0  0999 V2000
  189.8370  176.8740  141.5060 N   0  0  0  0  0  2  0  0  0  0  0  0
  184.8100  177.1010  135.3460 C   0  0  0  0  0  0  0  0  0  0  0  0
  191.8810  177.2480  140.4480 O   0  0  0  0  0  0  0  0  0  0  0  0
  189.6510  177.0950  136.7890 C   0  0  0  0  0  0  0  0  0  0  0  0
  190.6420  177.0400  140.3390 C   0  0  0  0  0  0  0  0  0  0  0  0
  187.2770  177.4440  135.3820 C   0  0  0  0  0  0  0  0  0  0  0  0
  184.7890  177.0030  136.6840 C   0  0  0  0  0  3  0  0  0  0  0  0
  183.6220  176.6620  134.5630 C   0  0  0  0  0  1  0  0  0  0  0  0
  187.2450  177.3380  136.7910 C   0  0  0  0  0  0  0  0  0  0  0  0
  186.0030  177.6700  134.6190 C   0  0  0  0  0  2  0  0  0  0  0  0
  185.9450  177.4720  137.5300 C   0  0  0  0  0  2  0  0  0  0  0  0
  188.6520  177.0830  138.8590 N   0  0  0  0  0  2  0  0  0  0  0  0
  188.4550  177.1680  137.4630 C   0  0  0  0  0  0  0  0  0  0  0  0
  189.7090  177.2020  135.3990 C   0  0  0  0  0  3  0  0  0  0  0  0
  190.7640  176.9140  137.7680 C   0  0  1  0  0  3  0  0  0  0  0  0
  190.0370  176.9570  139.0460 N   0  0  0  0  0  0  0  0  0  0  0  0
  188.5050  177.3810  134.6950 C   0  0  0  0  0  3  0  0  0  0  0  0
  191.3770  175.5340  137.5630 C   0  0  0  0  0  2  0  0  0  0  0  0
  192.8730  175.6400  137.3260 C   0  0  0  0  0  2  0  0  0  0  0  0
  194.3100  172.2130  136.9150 O   0  0  0  0  0  0  0  0  0  0  0  0
  195.7630  173.3780  138.4370 C   0  0  0  0  0  2  0  0  0  0  0  0
  195.6570  172.5290  137.1700 C   0  0  1  0  0  3  0  0  0  0  0  0
  193.6770  173.4070  136.5260 C   0  0  0  0  0  2  0  0  0  0  0  0
  193.5630  174.3490  137.7270 C   0  0  1  0  0  3  0  0  0  0  0  0
  196.4510  171.2520  137.3520 C   0  0  0  0  0  1  0  0  0  0  0  0
  194.9660  174.6660  138.2400 C   0  0  0  0  0  2  0  0  0  0  0  0
  190.4070  176.8870  142.8420 C   0  0  0  0  0  2  0  0  0  0  0  0
  189.5830  177.7980  143.7630 C   0  0  2  0  0  3  0  0  0  0  0  0
  190.2710  178.9650  144.1600 O   0  0  0  0  0  0  0  0  0  0  0  0
  191.6470  178.7720  143.9660 C   0  0  0  0  0  1  0  0  0  0  0  0
  188.8380  177.1030  144.9240 C   0  0  1  0  0  3  0  0  0  0  0  0
  189.1690  177.7750  146.2540 C   0  0  0  0  0  2  0  0  0  0  0  0
  191.1950  176.5640  147.0580 C   0  0  0  0  0  1  0  0  0  0  0  0
  189.7060  176.7690  147.2600 C   0  0  0  0  0  2  0  0  0  0  0  0
  187.3270  177.0770  144.7070 C   0  0  0  0  0  2  0  0  0  0  0  0
  186.6350  178.1780  145.4970 C   0  0  2  0  0  3  0  0  0  0  0  0
  186.0620  177.6260  146.6450 O   0  0  0  0  0  1  0  0  0  0  0  0
  185.5580  178.8340  144.6390 C   0  0  2  0  0  3  0  0  0  0  0  0
  184.5740  177.9300  142.5970 O   0  0  0  0  0  0  0  0  0  0  0  0
  183.3320  179.1360  144.2980 C   0  0  0  0  0  2  0  0  0  0  0  0
  183.5390  178.8660  142.7970 C   0  0  0  0  0  2  0  0  0  0  0  0
  184.2770  178.4320  145.0730 O   0  0  0  0  0  0  0  0  0  0  0  0
  185.7530  178.4720  143.1510 C   0  0  0  0  0  2  0  0  0  0  0  0
  1 27  1  0  0  0  0
  2  7  2  0  0  0  0
  4 13  1  0  0  0  0
  4 15  1  0  0  0  0
  5  3  2  0  0  0  0
  5  1  1  0  0  0  0
  6  9  1  0  0  0  0
  7 11  1  0  0  0  0
  8  2  1  0  0  0  0
  9 13  2  0  0  0  0
  9 11  1  0  0  0  0
 10  2  1  0  0  0  0
 10  6  1  0  0  0  0
 12 16  1  0  0  0  0
 13 12  1  0  0  0  0
 14  4  2  0  0  0  0
 15 18  1  6  0  0  0
 15 16  1  0  0  0  0
 16  5  1  0  0  0  0
 17  6  2  0  0  0  0
 17 14  1  0  0  0  0
 19 18  1  0  0  0  0
 20 22  1  0  0  0  0
 22 25  1  1  0  0  0
 22 21  1  0  0  0  0
 23 20  1  0  0  0  0
 23 24  1  0  0  0  0
 24 19  1  6  0  0  0
 24 26  1  0  0  0  0
 26 21  1  0  0  0  0
 28 27  1  1  0  0  0
 28 29  1  0  0  0  0
 28 31  1  0  0  0  0
 30 29  1  0  0  0  0
 31 35  1  6  0  0  0
 31 32  1  0  0  0  0
 32 34  1  0  0  0  0
 33 34  1  0  0  0  0
 35 36  1  0  0  0  0
 36 37  1  1  0  0  0
 38 42  1  0  0  0  0
 38 36  1  1  0  0  0
 39 41  1  0  0  0  0
 39 43  1  0  0  0  0
 40 42  1  0  0  0  0
 41 40  1  0  0  0  0
 43 38  1  0  0  0  0
M  END
>  <MODEL>
8

>  <REMARK>
 VINA RESULT:      -7.5      3.377      9.791
  Name = 
  12 active torsions:
  status: ('A' for Active; 'I' for Inactive)
    1  A    between atoms: C_1  and  C_28
    2  A    between atoms: C_1  and  C_34
    3  A    between atoms: N_2  and  C_6
    4  A    between atoms: C_3  and  C_4
    5  A    between atoms: C_3  and  C_6
    6  A    between atoms: C_3  and  O_12
    7  A    between atoms: C_4  and  C_15
    8  A    between atoms: C_4  and  C_22
    9  A    between atoms: C_11  and  C_14
   10  A    between atoms: C_14  and  C_22
   11  A    between atoms: C_15  and  C_42
   12  A    between atoms: C_28  and  C_35
                            x       y       z     vdW  Elec       q    Type
                         _______ _______ _______ _____ _____    ______ ____

>  <TORSDO>
F 12

$$$$
=
 OpenBabel10272414263D

 43 47  0  0  1  0  0  0  0  0999 V2000
  185.0270  178.9190  139.6910 N   0  0  0  0  0  2  0  0  0  0  0  0
  192.3160  176.2140  138.0140 C   0  0  0  0  0  0  0  0  0  0  0  0
  185.2860  179.6040  141.9040 O   0  0  0  0  0  0  0  0  0  0  0  0
  189.2300  177.9480  141.6180 C   0  0  0  0  0  0  0  0  0  0  0  0
  185.7810  179.0270  140.8980 C   0  0  0  0  0  0  0  0  0  0  0  0
  191.4630  177.2510  140.1110 C   0  0  0  0  0  0  0  0  0  0  0  0
  191.1390  176.4350  137.4080 C   0  0  0  0  0  3  0  0  0  0  0  0
  193.2930  175.2780  137.3920 C   0  0  0  0  0  1  0  0  0  0  0  0
  190.2270  177.4790  139.4650 C   0  0  0  0  0  0  0  0  0  0  0  0
  192.6810  176.9120  139.3010 C   0  0  0  0  0  2  0  0  0  0  0  0
  190.1310  177.4060  137.9690 C   0  0  0  0  0  2  0  0  0  0  0  0
  187.8250  178.1410  139.8100 N   0  0  0  0  0  2  0  0  0  0  0  0
  189.1300  177.8310  140.2520 C   0  0  0  0  0  0  0  0  0  0  0  0
  190.4410  177.7320  142.2790 C   0  0  0  0  0  3  0  0  0  0  0  0
  187.9030  178.3330  142.1840 C   0  0  1  0  0  3  0  0  0  0  0  0
  187.0950  178.4680  140.9620 N   0  0  0  0  0  0  0  0  0  0  0  0
  191.5650  177.3840  141.5100 C   0  0  0  0  0  3  0  0  0  0  0  0
  187.3790  177.1810  143.0320 C   0  0  0  0  0  2  0  0  0  0  0  0
  186.6050  177.7040  144.2290 C   0  0  0  0  0  2  0  0  0  0  0  0
  189.4250  177.3580  146.6600 O   0  0  0  0  0  0  0  0  0  0  0  0
  187.4670  177.8670  147.9610 C   0  0  0  0  0  2  0  0  0  0  0  0
  188.9270  178.2090  147.6650 C   0  0  1  0  0  3  0  0  0  0  0  0
  188.7850  177.7240  145.4620 C   0  0  0  0  0  2  0  0  0  0  0  0
  187.3080  177.3240  145.5190 C   0  0  1  0  0  3  0  0  0  0  0  0
  189.7500  178.0380  148.9250 C   0  0  0  0  0  1  0  0  0  0  0  0
  186.6450  178.0500  146.6870 C   0  0  0  0  0  2  0  0  0  0  0  0
  183.6640  179.4150  139.5880 C   0  0  0  0  0  2  0  0  0  0  0  0
  182.8810  178.6020  138.5470 C   0  0  2  0  0  3  0  0  0  0  0  0
  181.5260  178.9830  138.4420 O   0  0  0  0  0  0  0  0  0  0  0  0
  181.4270  180.0890  137.5840 C   0  0  0  0  0  1  0  0  0  0  0  0
  183.0850  177.0720  138.5800 C   0  0  1  0  0  3  0  0  0  0  0  0
  182.1520  176.4260  139.6020 C   0  0  0  0  0  2  0  0  0  0  0  0
  180.1990  174.9160  139.9490 C   0  0  0  0  0  1  0  0  0  0  0  0
  181.1820  175.4660  138.9330 C   0  0  0  0  0  2  0  0  0  0  0  0
  182.8850  176.4330  137.2070 C   0  0  0  0  0  2  0  0  0  0  0  0
  183.6510  177.1880  136.1290 C   0  0  2  0  0  3  0  0  0  0  0  0
  182.8720  177.2470  134.9710 O   0  0  0  0  0  1  0  0  0  0  0  0
  184.9680  176.4790  135.8360 C   0  0  2  0  0  3  0  0  0  0  0  0
  186.8840  176.2880  137.3370 O   0  0  0  0  0  0  0  0  0  0  0  0
  186.1110  174.5150  135.8710 C   0  0  0  0  0  2  0  0  0  0  0  0
  187.3150  175.2420  136.4970 C   0  0  0  0  0  2  0  0  0  0  0  0
  184.8990  175.1300  136.2460 O   0  0  0  0  0  0  0  0  0  0  0  0
  186.1390  177.1910  136.5470 C   0  0  0  0  0  2  0  0  0  0  0  0
  1  5  1  0  0  0  0
  2 10  1  0  0  0  0
  4 15  1  0  0  0  0
  4 14  1  0  0  0  0
  5 16  1  0  0  0  0
  5  3  2  0  0  0  0
  6 17  1  0  0  0  0
  7 11  1  0  0  0  0
  7  2  2  0  0  0  0
  8  2  1  0  0  0  0
  9  6  2  0  0  0  0
  9 13  1  0  0  0  0
 10  6  1  0  0  0  0
 11  9  1  0  0  0  0
 12 13  1  0  0  0  0
 12 16  1  0  0  0  0
 13  4  2  0  0  0  0
 15 18  1  1  0  0  0
 16 15  1  0  0  0  0
 17 14  2  0  0  0  0
 18 19  1  0  0  0  0
 20 22  1  0  0  0  0
 22 21  1  0  0  0  0
 22 25  1  1  0  0  0
 23 24  1  0  0  0  0
 23 20  1  0  0  0  0
 24 19  1  6  0  0  0
 24 26  1  0  0  0  0
 26 21  1  0  0  0  0
 27  1  1  0  0  0  0
 28 31  1  0  0  0  0
 28 27  1  1  0  0  0
 29 28  1  0  0  0  0
 30 29  1  0  0  0  0
 31 35  1  6  0  0  0
 31 32  1  0  0  0  0
 34 32  1  0  0  0  0
 34 33  1  0  0  0  0
 36 37  1  6  0  0  0
 36 35  1  0  0  0  0
 38 36  1  1  0  0  0
 38 42  1  0  0  0  0
 38 43  1  0  0  0  0
 40 42  1  0  0  0  0
 40 41  1  0  0  0  0
 41 39  1  0  0  0  0
 43 39  1  0  0  0  0
M  END
>  <MODEL>
9

>  <REMARK>
 VINA RESULT:      -7.5      2.095      7.545
  Name = 
  12 active torsions:
  status: ('A' for Active; 'I' for Inactive)
    1  A    between atoms: C_1  and  C_28
    2  A    between atoms: C_1  and  C_34
    3  A    between atoms: N_2  and  C_6
    4  A    between atoms: C_3  and  C_4
    5  A    between atoms: C_3  and  C_6
    6  A    between atoms: C_3  and  O_12
    7  A    between atoms: C_4  and  C_15
    8  A    between atoms: C_4  and  C_22
    9  A    between atoms: C_11  and  C_14
   10  A    between atoms: C_14  and  C_22
   11  A    between atoms: C_15  and  C_42
   12  A    between atoms: C_28  and  C_35
                            x       y       z     vdW  Elec       q    Type
                         _______ _______ _______ _____ _____    ______ ____

>  <TORSDO>
F 12

$$$$
