=
 OpenBabel10272401393D

 55 62  0  0  1  0  0  0  0  0999 V2000
  192.6040  176.5430  138.6620 C   0  0  0  0  0  2  0  0  0  0  0  0
  188.7090  178.9760  136.9990 C   0  0  0  0  0  2  0  0  0  0  0  0
  188.5780  177.3590  134.6640 O   0  0  0  0  0  0  0  0  0  0  0  0
  190.2270  175.7950  135.3610 C   0  0  0  0  0  2  0  0  0  0  0  0
  192.1830  177.0620  141.0670 C   0  0  0  0  0  3  0  0  0  0  0  0
  189.4740  177.3700  140.5310 C   0  0  0  0  0  0  0  0  0  0  0  0
  192.4000  175.1040  138.2260 C   0  0  0  0  0  2  0  0  0  0  0  0
  190.3440  177.0250  139.5420 N   0  0  0  0  0  0  0  0  0  0  0  0
  188.6330  179.3120  138.4820 C   0  0  0  0  0  2  0  0  0  0  0  0
  189.4360  177.7330  136.8020 N   0  0  0  0  0  2  0  0  0  0  0  0
  189.3550  176.9890  135.5840 C   0  0  0  0  0  0  0  0  0  0  0  0
  191.3070  177.3920  142.1010 C   0  0  0  0  0  3  0  0  0  0  0  0
  187.5990  178.4430  139.2100 C   0  0  2  0  0  0  0  0  0  0  0  0
  191.6780  176.8820  139.7770 C   0  0  0  0  0  0  0  0  0  0  0  0
  190.5810  175.0990  136.6720 C   0  0  2  0  0  3  0  0  0  0  0  0
  192.0480  175.0700  136.8140 N   0  0  0  0  0  0  0  0  0  0  0  0
  187.5310  178.8180  140.6290 N   0  0  0  0  0  2  0  0  0  0  0  0
  188.0020  177.4730  140.2540 C   0  0  2  0  0  3  0  0  0  0  0  0
  189.9460  177.5440  141.8370 C   0  0  0  0  0  3  0  0  0  0  0  0
  190.2570  172.7470  135.6940 C   0  0  0  0  0  2  0  0  0  0  0  0
  189.7430  173.2470  134.3460 C   0  0  0  0  0  2  0  0  0  0  0  0
  188.3410  173.8620  136.8930 C   0  0  2  0  0  3  0  0  0  0  0  0
  187.6620  173.9190  135.5450 C   0  0  0  0  0  3  0  0  0  0  0  0
  188.2830  173.6010  134.4000 C   0  0  0  0  0  3  0  0  0  0  0  0
  189.8710  173.7260  136.8120 C   0  0  2  0  0  3  0  0  0  0  0  0
  187.7620  172.7210  137.7060 C   0  0  0  0  0  1  0  0  0  0  0  0
  185.8990  177.3310  137.5670 C   0  0  0  0  0  2  0  0  0  0  0  0
  186.1820  178.3340  138.6240 C   0  0  2  0  0  0  0  0  0  0  0  0
  186.1860  178.6760  137.2570 O   0  0  0  0  0  0  0  0  0  0  0  0
  183.7060  178.1460  139.4750 C   0  0  2  0  0  0  0  0  0  0  0  0
  183.2420  180.2100  138.7930 C   0  0  0  0  0  2  0  0  0  0  0  0
  182.7390  178.8990  138.8100 O   0  0  0  0  0  0  0  0  0  0  0  0
  184.9900  178.9700  139.3780 C   0  0  2  0  0  3  0  0  0  0  0  0
  184.6420  180.2070  138.8320 O   0  0  0  0  0  0  0  0  0  0  0  0
  183.7810  176.7750  138.8020 C   0  0  0  0  0  1  0  0  0  0  0  0
  183.2900  177.9950  140.9550 C   0  0  2  0  0  3  0  0  0  0  0  0
  181.8230  178.2020  141.1940 C   0  0  0  0  0  0  0  0  0  0  0  0
  181.4080  179.2370  141.7810 O   0  0  0  0  0  1  0  0  0  0  0  0
  180.9140  177.2530  140.7490 O   0  0  0  0  0  0  0  0  0  0  0  0
  184.0440  178.8420  141.7810 O   0  0  0  0  0  0  0  0  0  0  0  0
  185.8700  177.8980  142.9940 C   0  0  0  0  0  1  0  0  0  0  0  0
  184.3610  178.0730  142.9050 C   0  0  1  0  0  3  0  0  0  0  0  0
  183.5440  180.0830  143.9590 O   0  0  0  0  0  1  0  0  0  0  0  0
  183.7850  178.7230  144.1620 C   0  0  2  0  0  3  0  0  0  0  0  0
  184.7110  178.5320  145.3490 C   0  0  0  0  0  1  0  0  0  0  0  0
  192.6410  173.8790  136.2110 C   0  0  0  0  0  2  0  0  0  0  0  0
  194.7930  175.1200  135.9220 C   0  0  0  0  0  3  0  0  0  0  0  0
  196.9250  174.0620  136.4020 C   0  0  0  0  0  0  0  0  0  0  0  0
  194.8550  172.8380  136.7320 C   0  0  0  0  0  3  0  0  0  0  0  0
  196.2500  172.8960  136.7900 C   0  0  0  0  0  3  0  0  0  0  0  0
  196.1880  175.1790  135.9800 C   0  0  0  0  0  3  0  0  0  0  0  0
  194.1250  173.9500  136.3000 C   0  0  0  0  0  0  0  0  0  0  0  0
  198.4170  174.1370  136.5100 C   0  0  1  0  0  3  0  0  0  0  0  0
  199.0010  172.7970  136.5340 C   0  0  0  0  0  2  0  0  0  0  0  0
  199.0370  173.5810  135.2950 N   0  0  0  0  0  2  0  0  0  0  0  0
  1 14  1  0  0  0  0
  2  9  1  0  0  0  0
  3 11  2  0  0  0  0
  4 11  1  0  0  0  0
  5 12  1  0  0  0  0
  6 19  1  0  0  0  0
  7  1  1  0  0  0  0
  8 14  1  0  0  0  0
  8  6  2  0  0  0  0
 10  2  1  0  0  0  0
 11 10  1  0  0  0  0
 13  9  1  6  0  0  0
 13 18  1  0  0  0  0
 13 17  1  0  0  0  0
 14  5  2  0  0  0  0
 15  4  1  6  0  0  0
 15 25  1  0  0  0  0
 15 16  1  0  0  0  0
 16  7  1  0  0  0  0
 18  6  1  6  0  0  0
 18 17  1  0  0  0  0
 19 12  2  0  0  0  0
 21 24  1  0  0  0  0
 21 20  1  0  0  0  0
 22 26  1  1  0  0  0
 23 22  1  0  0  0  0
 24 23  2  0  0  0  0
 25 20  1  6  0  0  0
 25 22  1  0  0  0  0
 28 27  1  1  0  0  0
 28 13  1  0  0  0  0
 28 33  1  0  0  0  0
 29 27  1  0  0  0  0
 29 28  1  0  0  0  0
 30 35  1  6  0  0  0
 30 36  1  0  0  0  0
 31 32  1  0  0  0  0
 31 34  1  0  0  0  0
 32 30  1  0  0  0  0
 33 34  1  6  0  0  0
 33 30  1  0  0  0  0
 36 37  1  6  0  0  0
 36 40  1  0  0  0  0
 37 38  1  0  0  0  0
 39 37  2  0  0  0  0
 40 42  1  0  0  0  0
 42 41  1  1  0  0  0
 42 44  1  0  0  0  0
 43 44  1  0  0  0  0
 44 45  1  1  0  0  0
 46 52  1  0  0  0  0
 46 16  1  0  0  0  0
 47 51  2  0  0  0  0
 47 52  1  0  0  0  0
 48 50  2  0  0  0  0
 49 50  1  0  0  0  0
 51 48  1  0  0  0  0
 52 49  2  0  0  0  0
 53 48  1  6  0  0  0
 53 54  1  0  0  0  0
 55 53  1  0  0  0  0
 55 54  1  0  0  0  0
M  END
>  <MODEL>
1

>  <REMARK>
 VINA RESULT:      -6.8      0.000      0.000
  Name = 
  11 active torsions:
  status: ('A' for Active; 'I' for Inactive)
    1  A    between atoms: C_1  and  C_53
    2  A    between atoms: C_6  and  C_53
    3  A    between atoms: C_8  and  C_20
    4  A    between atoms: C_8  and  C_43
    5  A    between atoms: C_10  and  C_32
    6  A    between atoms: C_11  and  C_29
    7  A    between atoms: C_11  and  O_38
    8  A    between atoms: C_26  and  C_45
    9  A    between atoms: C_33  and  N_49
   10  A    between atoms: C_33  and  C_52
   11  A    between atoms: O_38  and  C_53
                            x       y       z     vdW  Elec       q    Type
                         _______ _______ _______ _____ _____    ______ ____

>  <TORSDO>
F 11

$$$$
=
 OpenBabel10272401393D

 55 62  0  0  1  0  0  0  0  0999 V2000
  192.3550  176.5440  139.0520 C   0  0  0  0  0  2  0  0  0  0  0  0
  188.6660  179.0040  137.0030 C   0  0  0  0  0  2  0  0  0  0  0  0
  188.8380  177.4630  134.6200 O   0  0  0  0  0  0  0  0  0  0  0  0
  190.4060  175.8880  135.4630 C   0  0  0  0  0  2  0  0  0  0  0  0
  191.6390  176.9810  141.4020 C   0  0  0  0  0  3  0  0  0  0  0  0
  189.0120  177.2880  140.5500 C   0  0  0  0  0  0  0  0  0  0  0  0
  192.2210  175.1180  138.5490 C   0  0  0  0  0  2  0  0  0  0  0  0
  190.0000  176.9810  139.6640 N   0  0  0  0  0  0  0  0  0  0  0  0
  188.4060  179.2900  138.4760 C   0  0  0  0  0  2  0  0  0  0  0  0
  189.4250  177.7730  136.8580 N   0  0  0  0  0  2  0  0  0  0  0  0
  189.5000  177.0680  135.6150 C   0  0  0  0  0  0  0  0  0  0  0  0
  190.6400  177.2700  142.3320 C   0  0  0  0  0  3  0  0  0  0  0  0
  187.3010  178.3910  139.0450 C   0  0  2  0  0  0  0  0  0  0  0  0
  191.2970  176.8390  140.0560 C   0  0  0  0  0  0  0  0  0  0  0  0
  190.6050  175.1520  136.7840 C   0  0  2  0  0  3  0  0  0  0  0  0
  192.0440  175.1270  137.1040 N   0  0  0  0  0  0  0  0  0  0  0  0
  187.0570  178.7190  140.4550 N   0  0  0  0  0  2  0  0  0  0  0  0
  187.5840  177.3900  140.0980 C   0  0  2  0  0  3  0  0  0  0  0  0
  189.3190  177.4220  141.9080 C   0  0  0  0  0  3  0  0  0  0  0  0
  190.0450  173.0250  135.4590 C   0  0  0  0  0  2  0  0  0  0  0  0
  189.3030  173.7680  134.3500 C   0  0  0  0  0  2  0  0  0  0  0  0
  188.4130  173.8740  137.1830 C   0  0  2  0  0  3  0  0  0  0  0  0
  187.4980  174.1780  136.0210 C   0  0  0  0  0  3  0  0  0  0  0  0
  187.8880  174.0900  134.7410 C   0  0  0  0  0  3  0  0  0  0  0  0
  189.8980  173.7700  136.7940 C   0  0  2  0  0  3  0  0  0  0  0  0
  187.9650  172.5930  137.8600 C   0  0  0  0  0  1  0  0  0  0  0  0
  185.8500  177.3810  137.1200 C   0  0  0  0  0  2  0  0  0  0  0  0
  185.9670  178.2920  138.2870 C   0  0  2  0  0  0  0  0  0  0  0  0
  186.1150  178.7570  136.9640 O   0  0  0  0  0  0  0  0  0  0  0  0
  183.3430  178.3500  138.3480 C   0  0  2  0  0  0  0  0  0  0  0  0
  183.3290  180.5570  138.6060 C   0  0  0  0  0  2  0  0  0  0  0  0
  182.7150  179.5110  137.8990 O   0  0  0  0  0  0  0  0  0  0  0  0
  184.6700  178.8190  138.9450 C   0  0  2  0  0  3  0  0  0  0  0  0
  184.6390  180.2140  138.9660 O   0  0  0  0  0  0  0  0  0  0  0  0
  183.4850  177.4000  137.1580 C   0  0  0  0  0  1  0  0  0  0  0  0
  182.4720  177.7050  139.4480 C   0  0  2  0  0  3  0  0  0  0  0  0
  182.9770  177.9510  140.8400 C   0  0  0  0  0  0  0  0  0  0  0  0
  184.0600  177.4400  141.2290 O   0  0  0  0  0  0  0  0  0  0  0  0
  182.2520  178.7630  141.7000 O   0  0  0  0  0  1  0  0  0  0  0  0
  182.3080  176.3300  139.2240 O   0  0  0  0  0  0  0  0  0  0  0  0
  180.1870  177.3560  138.8440 C   0  0  0  0  0  1  0  0  0  0  0  0
  180.9300  176.1070  139.2950 C   0  0  1  0  0  3  0  0  0  0  0  0
  180.1100  173.8380  139.2660 O   0  0  0  0  0  1  0  0  0  0  0  0
  180.5550  174.8850  138.4570 C   0  0  2  0  0  3  0  0  0  0  0  0
  181.7250  174.4240  137.6080 C   0  0  0  0  0  1  0  0  0  0  0  0
  192.7190  173.9610  136.5400 C   0  0  0  0  0  2  0  0  0  0  0  0
  194.9790  175.0310  136.4880 C   0  0  0  0  0  3  0  0  0  0  0  0
  196.8890  173.9790  137.5550 C   0  0  0  0  0  0  0  0  0  0  0  0
  194.7030  172.9290  137.6600 C   0  0  0  0  0  3  0  0  0  0  0  0
  196.0620  172.9330  137.9870 C   0  0  0  0  0  3  0  0  0  0  0  0
  196.3380  175.0360  136.8150 C   0  0  0  0  0  3  0  0  0  0  0  0
  194.1600  173.9790  136.9130 C   0  0  0  0  0  0  0  0  0  0  0  0
  198.3350  174.0030  137.9470 C   0  0  1  0  0  3  0  0  0  0  0  0
  199.0850  174.9290  137.1000 C   0  0  0  0  0  2  0  0  0  0  0  0
  198.6960  175.3370  138.4540 N   0  0  0  0  0  2  0  0  0  0  0  0
  1 14  1  0  0  0  0
  2  9  1  0  0  0  0
  3 11  2  0  0  0  0
  4 11  1  0  0  0  0
  5 12  1  0  0  0  0
  6 19  1  0  0  0  0
  7  1  1  0  0  0  0
  8 14  1  0  0  0  0
  8  6  2  0  0  0  0
 10  2  1  0  0  0  0
 11 10  1  0  0  0  0
 13  9  1  6  0  0  0
 13 18  1  0  0  0  0
 13 17  1  0  0  0  0
 14  5  2  0  0  0  0
 15  4  1  6  0  0  0
 15 25  1  0  0  0  0
 15 16  1  0  0  0  0
 16  7  1  0  0  0  0
 18 17  1  1  0  0  0
 18  6  1  0  0  0  0
 19 12  2  0  0  0  0
 21 24  1  0  0  0  0
 21 20  1  0  0  0  0
 22 26  1  6  0  0  0
 23 22  1  0  0  0  0
 24 23  2  0  0  0  0
 25 20  1  6  0  0  0
 25 22  1  0  0  0  0
 28 27  1  6  0  0  0
 28 33  1  0  0  0  0
 28 13  1  0  0  0  0
 29 27  1  0  0  0  0
 29 28  1  0  0  0  0
 30 35  1  6  0  0  0
 30 33  1  0  0  0  0
 30 36  1  0  0  0  0
 31 34  1  0  0  0  0
 32 30  1  0  0  0  0
 32 31  1  0  0  0  0
 33 34  1  6  0  0  0
 36 40  1  6  0  0  0
 36 37  1  0  0  0  0
 37 38  2  0  0  0  0
 37 39  1  0  0  0  0
 40 42  1  0  0  0  0
 42 41  1  6  0  0  0
 44 45  1  1  0  0  0
 44 43  1  0  0  0  0
 44 42  1  0  0  0  0
 46 52  1  0  0  0  0
 46 16  1  0  0  0  0
 47 51  2  0  0  0  0
 47 52  1  0  0  0  0
 48 50  2  0  0  0  0
 49 50  1  0  0  0  0
 51 48  1  0  0  0  0
 52 49  2  0  0  0  0
 53 48  1  6  0  0  0
 53 55  1  0  0  0  0
 54 53  1  0  0  0  0
 54 55  1  0  0  0  0
M  END
>  <MODEL>
2

>  <REMARK>
 VINA RESULT:      -4.2      1.396      2.586
  Name = 
  11 active torsions:
  status: ('A' for Active; 'I' for Inactive)
    1  A    between atoms: C_1  and  C_53
    2  A    between atoms: C_6  and  C_53
    3  A    between atoms: C_8  and  C_20
    4  A    between atoms: C_8  and  C_43
    5  A    between atoms: C_10  and  C_32
    6  A    between atoms: C_11  and  C_29
    7  A    between atoms: C_11  and  O_38
    8  A    between atoms: C_26  and  C_45
    9  A    between atoms: C_33  and  N_49
   10  A    between atoms: C_33  and  C_52
   11  A    between atoms: O_38  and  C_53
                            x       y       z     vdW  Elec       q    Type
                         _______ _______ _______ _____ _____    ______ ____

>  <TORSDO>
F 11

$$$$
=
 OpenBabel10272401393D

 55 62  0  0  1  0  0  0  0  0999 V2000
  182.3970  175.8350  139.6530 C   0  0  0  0  0  2  0  0  0  0  0  0
  186.5750  174.4450  137.5370 C   0  0  0  0  0  2  0  0  0  0  0  0
  185.1860  172.9180  135.5820 O   0  0  0  0  0  0  0  0  0  0  0  0
  183.0150  173.6840  136.1750 C   0  0  0  0  0  2  0  0  0  0  0  0
  183.3260  177.9380  140.6240 C   0  0  0  0  0  3  0  0  0  0  0  0
  185.2580  178.0110  138.6280 C   0  0  0  0  0  0  0  0  0  0  0  0
  181.3990  175.9860  138.5200 C   0  0  0  0  0  2  0  0  0  0  0  0
  184.3250  177.0200  138.6570 N   0  0  0  0  0  0  0  0  0  0  0  0
  187.0400  175.6920  138.2770 C   0  0  0  0  0  2  0  0  0  0  0  0
  185.1450  174.5160  137.2830 N   0  0  0  0  0  2  0  0  0  0  0  0
  184.5040  173.6890  136.3080 C   0  0  0  0  0  0  0  0  0  0  0  0
  184.2570  178.9770  140.6010 C   0  0  0  0  0  3  0  0  0  0  0  0
  187.1380  176.9040  137.3430 C   0  0  2  0  0  0  0  0  0  0  0  0
  183.3760  176.9560  139.6320 C   0  0  0  0  0  0  0  0  0  0  0  0
  182.4060  175.0250  136.5730 C   0  0  2  0  0  3  0  0  0  0  0  0
  181.4460  174.8050  137.6700 N   0  0  0  0  0  0  0  0  0  0  0  0
  187.6210  178.0770  138.0840 N   0  0  0  0  0  2  0  0  0  0  0  0
  186.2620  178.0850  137.5140 C   0  0  2  0  0  3  0  0  0  0  0  0
  185.2270  179.0190  139.5990 C   0  0  0  0  0  3  0  0  0  0  0  0
  182.9480  176.1840  134.3470 C   0  0  0  0  0  2  0  0  0  0  0  0
  183.9080  177.1950  134.9690 C   0  0  0  0  0  2  0  0  0  0  0  0
  181.0460  177.0460  135.7590 C   0  0  2  0  0  3  0  0  0  0  0  0
  181.8970  178.2760  135.9740 C   0  0  0  0  0  3  0  0  0  0  0  0
  183.1760  178.3580  135.5800 C   0  0  0  0  0  3  0  0  0  0  0  0
  181.8500  175.8000  135.3480 C   0  0  2  0  0  3  0  0  0  0  0  0
  179.9820  177.3420  134.7190 C   0  0  0  0  0  1  0  0  0  0  0  0
  187.7110  177.7530  134.9390 C   0  0  0  0  0  2  0  0  0  0  0  0
  187.9130  176.7590  136.0220 C   0  0  2  0  0  0  0  0  0  0  0  0
  187.0250  176.5220  134.9540 O   0  0  0  0  0  0  0  0  0  0  0  0
  190.5120  176.4790  136.2570 C   0  0  2  0  0  0  0  0  0  0  0  0
  190.6210  175.2830  134.3870 C   0  0  0  0  0  2  0  0  0  0  0  0
  191.2510  176.3270  135.0840 O   0  0  0  0  0  0  0  0  0  0  0  0
  189.1550  175.8400  135.9600 C   0  0  2  0  0  3  0  0  0  0  0  0
  189.2620  175.2100  134.7190 O   0  0  0  0  0  0  0  0  0  0  0  0
  190.4500  177.9710  136.5850 C   0  0  0  0  0  1  0  0  0  0  0  0
  191.2180  175.7080  137.3940 C   0  0  2  0  0  3  0  0  0  0  0  0
  190.9320  176.2540  138.7620 C   0  0  0  0  0  0  0  0  0  0  0  0
  191.7010  177.1010  139.2880 O   0  0  0  0  0  0  0  0  0  0  0  0
  189.7990  175.8340  139.4460 O   0  0  0  0  0  1  0  0  0  0  0  0
  192.6010  175.6380  137.1760 O   0  0  0  0  0  0  0  0  0  0  0  0
  192.8850  173.5700  136.0170 C   0  0  0  0  0  1  0  0  0  0  0  0
  192.9350  174.2920  137.3560 C   0  0  1  0  0  3  0  0  0  0  0  0
  194.9990  175.3900  137.9480 O   0  0  0  0  0  1  0  0  0  0  0  0
  194.3090  174.1780  138.0150 C   0  0  2  0  0  3  0  0  0  0  0  0
  195.1320  173.0750  137.3760 C   0  0  0  0  0  1  0  0  0  0  0  0
  180.0990  174.5230  137.1820 C   0  0  0  0  0  2  0  0  0  0  0  0
  180.0230  172.0260  137.3110 C   0  0  0  0  0  3  0  0  0  0  0  0
  180.0720  170.6650  135.3020 C   0  0  0  0  0  0  0  0  0  0  0  0
  180.1070  173.0860  135.1340 C   0  0  0  0  0  3  0  0  0  0  0  0
  180.1030  171.8300  134.5220 C   0  0  0  0  0  3  0  0  0  0  0  0
  180.0180  170.7690  136.6990 C   0  0  0  0  0  3  0  0  0  0  0  0
  180.0650  173.1860  136.5290 C   0  0  0  0  0  0  0  0  0  0  0  0
  180.0200  169.3220  134.6410 C   0  0  1  0  0  3  0  0  0  0  0  0
  181.3680  168.8320  134.3580 C   0  0  0  0  0  2  0  0  0  0  0  0
  180.6330  168.3080  135.5140 N   0  0  0  0  0  2  0  0  0  0  0  0
  2  9  1  0  0  0  0
  3 11  2  0  0  0  0
  4 11  1  0  0  0  0
  6  8  2  0  0  0  0
  6 19  1  0  0  0  0
  7  1  1  0  0  0  0
  8 14  1  0  0  0  0
 10  2  1  0  0  0  0
 11 10  1  0  0  0  0
 12  5  1  0  0  0  0
 13 18  1  0  0  0  0
 13 17  1  0  0  0  0
 13  9  1  1  0  0  0
 14  1  1  0  0  0  0
 14  5  2  0  0  0  0
 15  4  1  6  0  0  0
 15 16  1  0  0  0  0
 16  7  1  0  0  0  0
 18 17  1  1  0  0  0
 18  6  1  0  0  0  0
 19 12  2  0  0  0  0
 20 21  1  0  0  0  0
 21 24  1  0  0  0  0
 22 26  1  6  0  0  0
 22 23  1  0  0  0  0
 24 23  2  0  0  0  0
 25 20  1  6  0  0  0
 25 22  1  0  0  0  0
 25 15  1  0  0  0  0
 27 29  1  0  0  0  0
 28 27  1  6  0  0  0
 28 13  1  0  0  0  0
 29 28  1  0  0  0  0
 30 35  1  1  0  0  0
 30 36  1  0  0  0  0
 31 34  1  0  0  0  0
 31 32  1  0  0  0  0
 32 30  1  0  0  0  0
 33 34  1  6  0  0  0
 33 28  1  0  0  0  0
 33 30  1  0  0  0  0
 36 40  1  6  0  0  0
 36 37  1  0  0  0  0
 37 38  2  0  0  0  0
 37 39  1  0  0  0  0
 40 42  1  0  0  0  0
 42 41  1  6  0  0  0
 42 44  1  0  0  0  0
 43 44  1  0  0  0  0
 44 45  1  6  0  0  0
 46 16  1  0  0  0  0
 48 51  2  0  0  0  0
 49 52  1  0  0  0  0
 50 49  2  0  0  0  0
 50 48  1  0  0  0  0
 51 47  1  0  0  0  0
 52 46  1  0  0  0  0
 52 47  2  0  0  0  0
 53 48  1  1  0  0  0
 53 55  1  0  0  0  0
 54 53  1  0  0  0  0
 54 55  1  0  0  0  0
M  END
>  <MODEL>
3

>  <REMARK>
 VINA RESULT:      -3.9      4.531     10.258
  Name = 
  11 active torsions:
  status: ('A' for Active; 'I' for Inactive)
    1  A    between atoms: C_1  and  C_53
    2  A    between atoms: C_6  and  C_53
    3  A    between atoms: C_8  and  C_20
    4  A    between atoms: C_8  and  C_43
    5  A    between atoms: C_10  and  C_32
    6  A    between atoms: C_11  and  C_29
    7  A    between atoms: C_11  and  O_38
    8  A    between atoms: C_26  and  C_45
    9  A    between atoms: C_33  and  N_49
   10  A    between atoms: C_33  and  C_52
   11  A    between atoms: O_38  and  C_53
                            x       y       z     vdW  Elec       q    Type
                         _______ _______ _______ _____ _____    ______ ____

>  <TORSDO>
F 11

$$$$
