=
 OpenBabel10272401063D

 27 31  0  0  1  0  0  0  0  0999 V2000
  189.9710  177.8430  141.2240 N   0  0  0  0  0  2  0  0  0  0  0  0
  187.5320  177.8880  141.3930 C   0  0  0  0  0  0  0  0  0  0  0  0
  188.2470  176.3940  143.2680 C   0  0  0  0  0  2  0  0  0  0  0  0
  184.2370  179.4600  143.6430 C   0  0  0  0  0  2  0  0  0  0  0  0
  183.1680  179.2940  145.7700 O   0  0  0  0  0  0  0  0  0  0  0  0
  186.6820  178.8770  140.8790 C   0  0  0  0  0  3  0  0  0  0  0  0
  186.0030  177.4340  144.7800 N   0  0  0  0  0  0  0  0  0  0  0  0
  191.3030  177.4070  145.2340 C   0  0  0  0  0  0  0  0  0  0  0  0
  185.0300  177.8690  145.5200 C   0  0  0  0  0  3  0  0  0  0  0  0
  191.7590  177.2840  146.5390 O   0  0  0  0  0  1  0  0  0  0  0  0
  186.2380  177.9110  143.4460 C   0  0  0  0  0  0  0  0  0  0  0  0
  188.7250  177.3690  140.6270 C   0  0  1  0  0  3  0  0  0  0  0  0
  184.0980  178.8900  145.0240 C   0  0  0  0  0  0  0  0  0  0  0  0
  185.4010  178.8930  142.8800 C   0  0  0  0  0  0  0  0  0  0  0  0
  190.3830  177.6530  142.5890 C   0  0  0  0  0  0  0  0  0  0  0  0
  187.3080  177.4100  142.6910 C   0  0  0  0  0  0  0  0  0  0  0  0
  190.0580  176.8850  144.8780 C   0  0  0  0  0  3  0  0  0  0  0  0
  185.6460  179.3450  141.6220 N   0  0  0  0  0  0  0  0  0  0  0  0
  192.0870  178.0490  144.2770 C   0  0  0  0  0  3  0  0  0  0  0  0
  191.6280  178.1720  142.9640 C   0  0  0  0  0  3  0  0  0  0  0  0
  189.5830  177.0020  143.5670 C   0  0  0  0  0  0  0  0  0  0  0  0
  188.5610  178.1480  136.3990 C   0  0  0  0  0  3  0  0  0  0  0  0
  188.6900  177.6500  139.1530 C   0  0  0  0  0  0  0  0  0  0  0  0
  188.1960  176.6710  138.2840 C   0  0  0  0  0  3  0  0  0  0  0  0
  188.1340  176.9180  136.9090 C   0  0  0  0  0  3  0  0  0  0  0  0
  189.0490  179.1320  137.2640 C   0  0  0  0  0  3  0  0  0  0  0  0
  189.1110  178.8860  138.6380 C   0  0  0  0  0  3  0  0  0  0  0  0
  1 15  1  0  0  0  0
  2 16  1  0  0  0  0
  3 21  1  0  0  0  0
  4 13  1  0  0  0  0
  6  2  2  0  0  0  0
  6 18  1  0  0  0  0
  7  9  2  0  0  0  0
  8 10  1  0  0  0  0
 11  7  1  0  0  0  0
 12 23  1  6  0  0  0
 12  1  1  0  0  0  0
 12  2  1  0  0  0  0
 13  9  1  0  0  0  0
 13  5  2  0  0  0  0
 14 11  1  0  0  0  0
 14  4  1  0  0  0  0
 15 20  2  0  0  0  0
 15 21  1  0  0  0  0
 16  3  1  0  0  0  0
 16 11  2  0  0  0  0
 17  8  1  0  0  0  0
 18 14  2  0  0  0  0
 19  8  2  0  0  0  0
 20 19  1  0  0  0  0
 21 17  2  0  0  0  0
 22 25  2  0  0  0  0
 22 26  1  0  0  0  0
 24 23  2  0  0  0  0
 25 24  1  0  0  0  0
 26 27  2  0  0  0  0
 27 23  1  0  0  0  0
M  END
>  <MODEL>
1

>  <REMARK>
 VINA RESULT:      -9.1      0.000      0.000
  Name = 
  1 active torsions:
  status: ('A' for Active; 'I' for Inactive)
    1  A    between atoms: C_9  and  C_15
                            x       y       z     vdW  Elec       q    Type
                         _______ _______ _______ _____ _____    ______ ____

>  <TORSDO>
F 1

$$$$
=
 OpenBabel10272401063D

 27 31  0  0  1  0  0  0  0  0999 V2000
  187.0500  178.1990  142.0350 N   0  0  0  0  0  2  0  0  0  0  0  0
  187.4410  177.5540  144.3610 C   0  0  0  0  0  0  0  0  0  0  0  0
  188.8300  175.9460  143.0400 C   0  0  0  0  0  2  0  0  0  0  0  0
  190.2870  177.6800  147.5670 C   0  0  0  0  0  2  0  0  0  0  0  0
  192.3970  176.7910  148.2390 O   0  0  0  0  0  0  0  0  0  0  0  0
  187.2580  178.3650  145.4900 C   0  0  0  0  0  3  0  0  0  0  0  0
  190.7410  176.0080  145.2190 N   0  0  0  0  0  0  0  0  0  0  0  0
  190.7020  177.3030  140.0600 C   0  0  0  0  0  0  0  0  0  0  0  0
  191.6470  176.0010  146.1470 C   0  0  0  0  0  3  0  0  0  0  0  0
  191.8940  177.0360  139.4000 O   0  0  0  0  0  1  0  0  0  0  0  0
  189.5460  176.7990  145.3050 C   0  0  0  0  0  0  0  0  0  0  0  0
  186.4700  177.5460  143.2050 C   0  0  1  0  0  3  0  0  0  0  0  0
  191.4970  176.8170  147.3590 C   0  0  0  0  0  0  0  0  0  0  0  0
  189.3100  177.6180  146.4270 C   0  0  0  0  0  0  0  0  0  0  0  0
  188.2870  177.8450  141.3930 C   0  0  0  0  0  0  0  0  0  0  0  0
  188.6000  176.7730  144.2700 C   0  0  0  0  0  0  0  0  0  0  0  0
  190.3430  176.5540  141.1820 C   0  0  0  0  0  3  0  0  0  0  0  0
  188.1810  178.3730  146.4870 N   0  0  0  0  0  0  0  0  0  0  0  0
  189.8630  178.3180  139.6030 C   0  0  0  0  0  3  0  0  0  0  0  0
  188.6650  178.5860  140.2670 C   0  0  0  0  0  3  0  0  0  0  0  0
  189.1470  176.8130  141.8590 C   0  0  0  0  0  0  0  0  0  0  0  0
  182.5600  179.1150  144.0790 C   0  0  0  0  0  3  0  0  0  0  0  0
  185.1160  178.1100  143.5240 C   0  0  0  0  0  0  0  0  0  0  0  0
  184.1970  178.3040  142.4880 C   0  0  0  0  0  3  0  0  0  0  0  0
  182.9220  178.8080  142.7640 C   0  0  0  0  0  3  0  0  0  0  0  0
  183.4730  178.9160  145.1190 C   0  0  0  0  0  3  0  0  0  0  0  0
  184.7470  178.4120  144.8440 C   0  0  0  0  0  3  0  0  0  0  0  0
  1 12  1  0  0  0  0
  2  6  1  0  0  0  0
  3 16  1  0  0  0  0
  6 18  2  0  0  0  0
  7 11  1  0  0  0  0
  7  9  2  0  0  0  0
  8 17  1  0  0  0  0
  9 13  1  0  0  0  0
 10  8  1  0  0  0  0
 11 14  2  0  0  0  0
 12 23  1  1  0  0  0
 12  2  1  0  0  0  0
 13  4  1  0  0  0  0
 13  5  2  0  0  0  0
 14 18  1  0  0  0  0
 14  4  1  0  0  0  0
 15 21  1  0  0  0  0
 15  1  1  0  0  0  0
 16  2  2  0  0  0  0
 16 11  1  0  0  0  0
 17 21  2  0  0  0  0
 19  8  2  0  0  0  0
 19 20  1  0  0  0  0
 20 15  2  0  0  0  0
 21  3  1  0  0  0  0
 22 26  1  0  0  0  0
 23 27  1  0  0  0  0
 24 25  1  0  0  0  0
 24 23  2  0  0  0  0
 25 22  2  0  0  0  0
 27 26  2  0  0  0  0
M  END
>  <MODEL>
2

>  <REMARK>
 VINA RESULT:      -9.0      2.720      5.922
  Name = 
  1 active torsions:
  status: ('A' for Active; 'I' for Inactive)
    1  A    between atoms: C_9  and  C_15
                            x       y       z     vdW  Elec       q    Type
                         _______ _______ _______ _____ _____    ______ ____

>  <TORSDO>
F 1

$$$$
=
 OpenBabel10272401063D

 27 31  0  0  1  0  0  0  0  0999 V2000
  185.9870  178.3880  141.7930 N   0  0  0  0  0  2  0  0  0  0  0  0
  185.6790  178.1100  144.2030 C   0  0  0  0  0  0  0  0  0  0  0  0
  187.4560  176.4480  143.6180 C   0  0  0  0  0  2  0  0  0  0  0  0
  187.4200  178.9120  148.0400 C   0  0  0  0  0  2  0  0  0  0  0  0
  189.2580  178.2980  149.4310 O   0  0  0  0  0  0  0  0  0  0  0  0
  185.1370  179.0540  145.0860 C   0  0  0  0  0  3  0  0  0  0  0  0
  188.6180  176.9680  146.2220 N   0  0  0  0  0  0  0  0  0  0  0  0
  190.0930  177.5180  141.1420 C   0  0  0  0  0  0  0  0  0  0  0  0
  189.2020  177.1650  147.3640 C   0  0  0  0  0  3  0  0  0  0  0  0
  191.4360  177.2570  140.9100 O   0  0  0  0  0  1  0  0  0  0  0  0
  187.4260  177.6660  145.8290 C   0  0  0  0  0  0  0  0  0  0  0  0
  185.1030  177.8620  142.8300 C   0  0  1  0  0  3  0  0  0  0  0  0
  188.6650  178.1280  148.3340 C   0  0  0  0  0  0  0  0  0  0  0  0
  186.8340  178.6120  146.6880 C   0  0  0  0  0  0  0  0  0  0  0  0
  187.3710  178.0460  141.6050 C   0  0  0  0  0  0  0  0  0  0  0  0
  186.8380  177.4180  144.5790 C   0  0  0  0  0  0  0  0  0  0  0  0
  189.4380  176.9080  142.2130 C   0  0  0  0  0  3  0  0  0  0  0  0
  185.7150  179.2760  146.2940 N   0  0  0  0  0  0  0  0  0  0  0  0
  189.3970  178.3880  140.3040 C   0  0  0  0  0  3  0  0  0  0  0  0
  188.0450  178.6500  140.5370 C   0  0  0  0  0  3  0  0  0  0  0  0
  188.0850  177.1630  142.4600 C   0  0  0  0  0  0  0  0  0  0  0  0
  181.0640  179.2240  142.2540 C   0  0  0  0  0  3  0  0  0  0  0  0
  183.6980  178.3550  142.6450 C   0  0  0  0  0  0  0  0  0  0  0  0
  183.1790  178.4660  141.3500 C   0  0  0  0  0  3  0  0  0  0  0  0
  181.8650  178.9030  141.1540 C   0  0  0  0  0  3  0  0  0  0  0  0
  181.5750  179.1080  143.5500 C   0  0  0  0  0  3  0  0  0  0  0  0
  182.8880  178.6710  143.7460 C   0  0  0  0  0  3  0  0  0  0  0  0
  1 12  1  0  0  0  0
  2 16  2  0  0  0  0
  2  6  1  0  0  0  0
  3 16  1  0  0  0  0
  4 13  1  0  0  0  0
  6 18  2  0  0  0  0
  7  9  2  0  0  0  0
  8 17  1  0  0  0  0
  9 13  1  0  0  0  0
 10  8  1  0  0  0  0
 11  7  1  0  0  0  0
 11 14  2  0  0  0  0
 12 23  1  1  0  0  0
 12  2  1  0  0  0  0
 13  5  2  0  0  0  0
 14  4  1  0  0  0  0
 15  1  1  0  0  0  0
 15 21  1  0  0  0  0
 16 11  1  0  0  0  0
 17 21  2  0  0  0  0
 18 14  1  0  0  0  0
 19 20  1  0  0  0  0
 19  8  2  0  0  0  0
 20 15  2  0  0  0  0
 21  3  1  0  0  0  0
 22 26  1  0  0  0  0
 23 27  1  0  0  0  0
 24 23  2  0  0  0  0
 25 24  1  0  0  0  0
 25 22  2  0  0  0  0
 26 27  2  0  0  0  0
M  END
>  <MODEL>
3

>  <REMARK>
 VINA RESULT:      -8.8      2.693      5.313
  Name = 
  1 active torsions:
  status: ('A' for Active; 'I' for Inactive)
    1  A    between atoms: C_9  and  C_15
                            x       y       z     vdW  Elec       q    Type
                         _______ _______ _______ _____ _____    ______ ____

>  <TORSDO>
F 1

$$$$
=
 OpenBabel10272401063D

 27 31  0  0  1  0  0  0  0  0999 V2000
  190.1540  176.9970  141.9330 N   0  0  0  0  0  2  0  0  0  0  0  0
  188.0610  177.9550  142.7580 C   0  0  0  0  0  0  0  0  0  0  0  0
  188.5100  179.2020  140.6360 C   0  0  0  0  0  2  0  0  0  0  0  0
  183.8170  178.0630  142.1520 C   0  0  0  0  0  2  0  0  0  0  0  0
  182.1590  178.8440  140.6250 O   0  0  0  0  0  0  0  0  0  0  0  0
  187.1650  177.3490  143.6490 C   0  0  0  0  0  3  0  0  0  0  0  0
  185.6400  179.3010  140.2400 N   0  0  0  0  0  0  0  0  0  0  0  0
  189.8330  177.2320  137.7040 C   0  0  0  0  0  0  0  0  0  0  0  0
  184.3680  179.3670  139.9890 C   0  0  0  0  0  3  0  0  0  0  0  0
  189.7390  177.2820  136.3200 O   0  0  0  0  0  1  0  0  0  0  0  0
  186.1700  178.6480  141.4030 C   0  0  0  0  0  0  0  0  0  0  0  0
  189.5580  177.8740  142.9360 C   0  0  1  0  0  3  0  0  0  0  0  0
  183.3850  178.7660  140.9000 C   0  0  0  0  0  0  0  0  0  0  0  0
  185.3080  178.0380  142.3360 C   0  0  0  0  0  0  0  0  0  0  0  0
  190.0280  177.1310  140.5060 C   0  0  0  0  0  0  0  0  0  0  0  0
  187.5550  178.6020  141.6230 C   0  0  0  0  0  0  0  0  0  0  0  0
  189.1610  178.1750  138.4830 C   0  0  0  0  0  3  0  0  0  0  0  0
  185.8270  177.4100  143.4240 N   0  0  0  0  0  0  0  0  0  0  0  0
  190.5990  176.2410  138.3170 C   0  0  0  0  0  3  0  0  0  0  0  0
  190.6930  176.1920  139.7090 C   0  0  0  0  0  3  0  0  0  0  0  0
  189.2440  178.1380  139.8790 C   0  0  0  0  0  0  0  0  0  0  0  0
  190.8930  176.8100  146.8850 C   0  0  0  0  0  3  0  0  0  0  0  0
  190.0020  177.4950  144.3190 C   0  0  0  0  0  0  0  0  0  0  0  0
  191.2070  176.8050  144.4830 C   0  0  0  0  0  3  0  0  0  0  0  0
  191.6520  176.4600  145.7640 C   0  0  0  0  0  3  0  0  0  0  0  0
  189.6910  177.5060  146.7270 C   0  0  0  0  0  3  0  0  0  0  0  0
  189.2470  177.8520  145.4480 C   0  0  0  0  0  3  0  0  0  0  0  0
  1 12  1  0  0  0  0
  2 12  1  0  0  0  0
  2  6  1  0  0  0  0
  3 16  1  0  0  0  0
  4 14  1  0  0  0  0
  5 13  2  0  0  0  0
  7 11  1  0  0  0  0
  8 19  2  0  0  0  0
  8 17  1  0  0  0  0
  9  7  2  0  0  0  0
  9 13  1  0  0  0  0
 10  8  1  0  0  0  0
 11 16  1  0  0  0  0
 11 14  2  0  0  0  0
 12 23  1  1  0  0  0
 13  4  1  0  0  0  0
 14 18  1  0  0  0  0
 15  1  1  0  0  0  0
 16  2  2  0  0  0  0
 17 21  2  0  0  0  0
 18  6  2  0  0  0  0
 19 20  1  0  0  0  0
 20 15  2  0  0  0  0
 21 15  1  0  0  0  0
 21  3  1  0  0  0  0
 23 24  2  0  0  0  0
 23 27  1  0  0  0  0
 24 25  1  0  0  0  0
 25 22  2  0  0  0  0
 26 22  1  0  0  0  0
 27 26  2  0  0  0  0
M  END
>  <MODEL>
4

>  <REMARK>
 VINA RESULT:      -8.4      2.710      5.671
  Name = 
  1 active torsions:
  status: ('A' for Active; 'I' for Inactive)
    1  A    between atoms: C_9  and  C_15
                            x       y       z     vdW  Elec       q    Type
                         _______ _______ _______ _____ _____    ______ ____

>  <TORSDO>
F 1

$$$$
=
 OpenBabel10272401063D

 27 31  0  0  1  0  0  0  0  0999 V2000
  187.8550  177.4460  145.7470 N   0  0  0  0  0  2  0  0  0  0  0  0
  188.1570  178.0140  143.3880 C   0  0  0  0  0  0  0  0  0  0  0  0
  190.3360  178.6360  144.4490 C   0  0  0  0  0  2  0  0  0  0  0  0
  190.0580  176.7980  139.7410 C   0  0  0  0  0  2  0  0  0  0  0  0
  192.2040  176.6110  138.7160 O   0  0  0  0  0  0  0  0  0  0  0  0
  187.4330  177.4890  142.3080 C   0  0  0  0  0  3  0  0  0  0  0  0
  191.6190  177.8410  141.9750 N   0  0  0  0  0  0  0  0  0  0  0  0
  191.7280  176.3010  147.0650 C   0  0  0  0  0  0  0  0  0  0  0  0
  192.2620  177.4870  140.9040 C   0  0  0  0  0  3  0  0  0  0  0  0
  192.9810  175.9040  147.5100 O   0  0  0  0  0  1  0  0  0  0  0  0
  190.1930  177.7350  142.0960 C   0  0  0  0  0  0  0  0  0  0  0  0
  187.5010  178.3930  144.6940 C   0  0  1  0  0  3  0  0  0  0  0  0
  191.5510  176.9490  139.7370 C   0  0  0  0  0  0  0  0  0  0  0  0
  189.4200  177.2290  141.0320 C   0  0  0  0  0  0  0  0  0  0  0  0
  189.1880  177.1050  146.1680 C   0  0  0  0  0  0  0  0  0  0  0  0
  189.5490  178.1290  143.2790 C   0  0  0  0  0  0  0  0  0  0  0  0
  191.6170  177.2200  146.0210 C   0  0  0  0  0  3  0  0  0  0  0  0
  188.0720  177.1200  141.1680 N   0  0  0  0  0  0  0  0  0  0  0  0
  190.5790  175.7830  147.6600 C   0  0  0  0  0  3  0  0  0  0  0  0
  189.3180  176.1820  147.2120 C   0  0  0  0  0  3  0  0  0  0  0  0
  190.3610  177.6290  145.5590 C   0  0  0  0  0  0  0  0  0  0  0  0
  183.2420  178.9750  144.5170 C   0  0  0  0  0  3  0  0  0  0  0  0
  186.0140  178.5810  144.6130 C   0  0  0  0  0  0  0  0  0  0  0  0
  185.2540  178.5170  145.7860 C   0  0  0  0  0  3  0  0  0  0  0  0
  183.8700  178.7110  145.7380 C   0  0  0  0  0  3  0  0  0  0  0  0
  183.9980  179.0470  143.3430 C   0  0  0  0  0  3  0  0  0  0  0  0
  185.3810  178.8540  143.3900 C   0  0  0  0  0  3  0  0  0  0  0  0
  1 15  1  0  0  0  0
  2 12  1  0  0  0  0
  3 21  1  0  0  0  0
  4 14  1  0  0  0  0
  5 13  2  0  0  0  0
  6  2  2  0  0  0  0
  7 11  1  0  0  0  0
  8 10  1  0  0  0  0
  8 19  1  0  0  0  0
  9  7  2  0  0  0  0
 11 16  2  0  0  0  0
 12 23  1  6  0  0  0
 12  1  1  0  0  0  0
 13  4  1  0  0  0  0
 13  9  1  0  0  0  0
 14 18  2  0  0  0  0
 14 11  1  0  0  0  0
 15 20  1  0  0  0  0
 16  2  1  0  0  0  0
 16  3  1  0  0  0  0
 17  8  2  0  0  0  0
 18  6  1  0  0  0  0
 20 19  2  0  0  0  0
 21 17  1  0  0  0  0
 21 15  2  0  0  0  0
 22 25  1  0  0  0  0
 23 24  1  0  0  0  0
 25 24  2  0  0  0  0
 26 27  1  0  0  0  0
 26 22  2  0  0  0  0
 27 23  2  0  0  0  0
M  END
>  <MODEL>
5

>  <REMARK>
 VINA RESULT:      -8.4      2.794      6.068
  Name = 
  1 active torsions:
  status: ('A' for Active; 'I' for Inactive)
    1  A    between atoms: C_9  and  C_15
                            x       y       z     vdW  Elec       q    Type
                         _______ _______ _______ _____ _____    ______ ____

>  <TORSDO>
F 1

$$$$
=
 OpenBabel10272401063D

 27 31  0  0  1  0  0  0  0  0999 V2000
  188.7050  177.6150  146.2690 N   0  0  0  0  0  2  0  0  0  0  0  0
  190.1770  176.8710  144.4640 C   0  0  0  0  0  0  0  0  0  0  0  0
  187.8940  176.1660  143.7210 C   0  0  0  0  0  2  0  0  0  0  0  0
  191.4400  177.7000  140.4500 C   0  0  0  0  0  2  0  0  0  0  0  0
  190.6650  177.6630  138.1950 O   0  0  0  0  0  0  0  0  0  0  0  0
  191.4520  177.3730  144.1720 C   0  0  0  0  0  3  0  0  0  0  0  0
  188.7560  176.6990  141.0050 N   0  0  0  0  0  0  0  0  0  0  0  0
  185.0460  178.5630  144.3300 C   0  0  0  0  0  0  0  0  0  0  0  0
  189.0680  176.9330  139.7680 C   0  0  0  0  0  3  0  0  0  0  0  0
  183.8490  178.8970  143.7130 O   0  0  0  0  0  1  0  0  0  0  0  0
  189.6700  176.9150  142.0910 C   0  0  0  0  0  0  0  0  0  0  0  0
  189.7070  176.6280  145.8790 C   0  0  1  0  0  3  0  0  0  0  0  0
  190.3970  177.4420  139.4040 C   0  0  0  0  0  0  0  0  0  0  0  0
  190.9680  177.4040  141.8460 C   0  0  0  0  0  0  0  0  0  0  0  0
  187.4690  177.8870  145.5840 C   0  0  0  0  0  0  0  0  0  0  0  0
  189.2790  176.6490  143.4120 C   0  0  0  0  0  0  0  0  0  0  0  0
  185.8710  177.5870  143.7700 C   0  0  0  0  0  3  0  0  0  0  0  0
  191.8160  177.6190  142.8870 N   0  0  0  0  0  0  0  0  0  0  0  0
  185.4260  179.2020  145.5100 C   0  0  0  0  0  3  0  0  0  0  0  0
  186.6300  178.8650  146.1300 C   0  0  0  0  0  3  0  0  0  0  0  0
  187.0820  177.2400  144.3790 C   0  0  0  0  0  0  0  0  0  0  0  0
  192.8170  176.3980  148.8420 C   0  0  0  0  0  3  0  0  0  0  0  0
  190.8080  176.5430  146.8950 C   0  0  0  0  0  0  0  0  0  0  0  0
  190.8930  177.5210  147.8920 C   0  0  0  0  0  3  0  0  0  0  0  0
  191.8970  177.4500  148.8630 C   0  0  0  0  0  3  0  0  0  0  0  0
  192.7320  175.4130  147.8530 C   0  0  0  0  0  3  0  0  0  0  0  0
  191.7280  175.4830  146.8830 C   0  0  0  0  0  3  0  0  0  0  0  0
  2 12  1  0  0  0  0
  3 21  1  0  0  0  0
  4 14  1  0  0  0  0
  5 13  2  0  0  0  0
  6  2  1  0  0  0  0
  7 11  1  0  0  0  0
  8 19  1  0  0  0  0
  9  7  2  0  0  0  0
 10  8  1  0  0  0  0
 11 16  1  0  0  0  0
 12  1  1  0  0  0  0
 12 23  1  1  0  0  0
 13  9  1  0  0  0  0
 13  4  1  0  0  0  0
 14 11  2  0  0  0  0
 14 18  1  0  0  0  0
 15 20  1  0  0  0  0
 15  1  1  0  0  0  0
 16  3  1  0  0  0  0
 16  2  2  0  0  0  0
 17  8  2  0  0  0  0
 17 21  1  0  0  0  0
 18  6  2  0  0  0  0
 19 20  2  0  0  0  0
 21 15  2  0  0  0  0
 22 25  1  0  0  0  0
 23 24  1  0  0  0  0
 24 25  2  0  0  0  0
 26 22  2  0  0  0  0
 27 23  2  0  0  0  0
 27 26  1  0  0  0  0
M  END
>  <MODEL>
6

>  <REMARK>
 VINA RESULT:      -8.1      2.620      7.454
  Name = 
  1 active torsions:
  status: ('A' for Active; 'I' for Inactive)
    1  A    between atoms: C_9  and  C_15
                            x       y       z     vdW  Elec       q    Type
                         _______ _______ _______ _____ _____    ______ ____

>  <TORSDO>
F 1

$$$$
=
 OpenBabel10272401063D

 27 31  0  0  1  0  0  0  0  0999 V2000
  190.5750  177.1730  142.1390 N   0  0  0  0  0  2  0  0  0  0  0  0
  188.2340  177.4440  141.4880 C   0  0  0  0  0  0  0  0  0  0  0  0
  188.1240  176.2150  143.6640 C   0  0  0  0  0  2  0  0  0  0  0  0
  184.6310  179.6190  142.3120 C   0  0  0  0  0  2  0  0  0  0  0  0
  182.9360  179.8830  143.9700 O   0  0  0  0  0  0  0  0  0  0  0  0
  187.7240  178.4040  140.6030 C   0  0  0  0  0  3  0  0  0  0  0  0
  185.6730  177.6630  144.2100 N   0  0  0  0  0  0  0  0  0  0  0  0
  190.5120  177.2750  146.3850 C   0  0  0  0  0  0  0  0  0  0  0  0
  184.5820  178.2890  144.5280 C   0  0  0  0  0  3  0  0  0  0  0  0
  190.5150  177.3250  147.7720 O   0  0  0  0  0  1  0  0  0  0  0  0
  186.3740  177.9000  142.9800 C   0  0  0  0  0  0  0  0  0  0  0  0
  189.5300  176.7140  141.2290 C   0  0  1  0  0  3  0  0  0  0  0  0
  183.9930  179.2910  143.6290 C   0  0  0  0  0  0  0  0  0  0  0  0
  185.8920  178.8440  142.0520 C   0  0  0  0  0  0  0  0  0  0  0  0
  190.5090  177.1710  143.5760 C   0  0  0  0  0  0  0  0  0  0  0  0
  187.5540  177.1990  142.6880 C   0  0  0  0  0  0  0  0  0  0  0  0
  189.3850  176.8070  145.7070 C   0  0  0  0  0  3  0  0  0  0  0  0
  186.5770  179.0690  140.8990 N   0  0  0  0  0  0  0  0  0  0  0  0
  191.6330  177.6900  145.6690 C   0  0  0  0  0  3  0  0  0  0  0  0
  191.6290  177.6390  144.2740 C   0  0  0  0  0  3  0  0  0  0  0  0
  189.3660  176.7510  144.3090 C   0  0  0  0  0  0  0  0  0  0  0  0
  190.9150  176.7910  137.1570 C   0  0  0  0  0  3  0  0  0  0  0  0
  189.9960  176.7570  139.8030 C   0  0  0  0  0  0  0  0  0  0  0  0
  191.3690  176.8080  139.5360 C   0  0  0  0  0  3  0  0  0  0  0  0
  191.8270  176.8270  138.2150 C   0  0  0  0  0  3  0  0  0  0  0  0
  189.5420  176.7330  137.4180 C   0  0  0  0  0  3  0  0  0  0  0  0
  189.0830  176.7130  138.7380 C   0  0  0  0  0  3  0  0  0  0  0  0
  1 15  1  0  0  0  0
  2 16  1  0  0  0  0
  3 21  1  0  0  0  0
  4 13  1  0  0  0  0
  6 18  1  0  0  0  0
  6  2  2  0  0  0  0
  7  9  2  0  0  0  0
  8 10  1  0  0  0  0
 11  7  1  0  0  0  0
 12 23  1  6  0  0  0
 12  2  1  0  0  0  0
 12  1  1  0  0  0  0
 13  5  2  0  0  0  0
 13  9  1  0  0  0  0
 14  4  1  0  0  0  0
 14 11  1  0  0  0  0
 15 20  2  0  0  0  0
 15 21  1  0  0  0  0
 16 11  2  0  0  0  0
 16  3  1  0  0  0  0
 17  8  1  0  0  0  0
 18 14  2  0  0  0  0
 19  8  2  0  0  0  0
 20 19  1  0  0  0  0
 21 17  2  0  0  0  0
 22 26  2  0  0  0  0
 22 25  1  0  0  0  0
 24 23  1  0  0  0  0
 25 24  2  0  0  0  0
 26 27  1  0  0  0  0
 27 23  2  0  0  0  0
M  END
>  <MODEL>
7

>  <REMARK>
 VINA RESULT:      -7.6      1.438      1.707
  Name = 
  1 active torsions:
  status: ('A' for Active; 'I' for Inactive)
    1  A    between atoms: C_9  and  C_15
                            x       y       z     vdW  Elec       q    Type
                         _______ _______ _______ _____ _____    ______ ____

>  <TORSDO>
F 1

$$$$
=
 OpenBabel10272401063D

 27 31  0  0  1  0  0  0  0  0999 V2000
  187.5440  177.8080  143.3820 N   0  0  0  0  0  2  0  0  0  0  0  0
  188.4950  177.9770  141.1350 C   0  0  0  0  0  0  0  0  0  0  0  0
  190.2780  178.9060  142.6240 C   0  0  0  0  0  2  0  0  0  0  0  0
  191.3620  176.2680  138.4420 C   0  0  0  0  0  2  0  0  0  0  0  0
  193.7120  176.0400  138.1020 O   0  0  0  0  0  0  0  0  0  0  0  0
  188.1110  177.2290  140.0130 C   0  0  0  0  0  3  0  0  0  0  0  0
  192.2170  177.7770  140.7890 N   0  0  0  0  0  0  0  0  0  0  0  0
  190.8980  177.1500  145.9040 C   0  0  0  0  0  0  0  0  0  0  0  0
  193.1390  177.2830  140.0220 C   0  0  0  0  0  3  0  0  0  0  0  0
  191.9790  176.9150  146.7430 O   0  0  0  0  0  1  0  0  0  0  0  0
  190.8160  177.6050  140.5290 C   0  0  0  0  0  0  0  0  0  0  0  0
  187.4920  178.5350  142.1170 C   0  0  1  0  0  3  0  0  0  0  0  0
  192.7930  176.5090  138.8230 C   0  0  0  0  0  0  0  0  0  0  0  0
  190.3810  176.8760  139.4050 C   0  0  0  0  0  0  0  0  0  0  0  0
  188.7080  177.6280  144.2090 C   0  0  0  0  0  0  0  0  0  0  0  0
  189.8590  178.1570  141.3950 C   0  0  0  0  0  0  0  0  0  0  0  0
  191.0780  177.8670  144.7200 C   0  0  0  0  0  3  0  0  0  0  0  0
  189.0500  176.7090  139.1820 N   0  0  0  0  0  0  0  0  0  0  0  0
  189.6330  176.6730  146.2440 C   0  0  0  0  0  3  0  0  0  0  0  0
  188.5470  176.9100  145.4000 C   0  0  0  0  0  3  0  0  0  0  0  0
  189.9990  178.1100  143.8630 C   0  0  0  0  0  0  0  0  0  0  0  0
  183.4440  178.7900  140.6820 C   0  0  0  0  0  3  0  0  0  0  0  0
  186.0870  178.6130  141.5960 C   0  0  0  0  0  0  0  0  0  0  0  0
  185.0290  178.2310  142.4270 C   0  0  0  0  0  3  0  0  0  0  0  0
  183.7090  178.3170  141.9710 C   0  0  0  0  0  3  0  0  0  0  0  0
  184.4980  179.1800  139.8500 C   0  0  0  0  0  3  0  0  0  0  0  0
  185.8160  179.0950  140.3050 C   0  0  0  0  0  3  0  0  0  0  0  0
  1 15  1  0  0  0  0
  2 16  1  0  0  0  0
  2 12  1  0  0  0  0
  3 21  1  0  0  0  0
  4 13  1  0  0  0  0
  4 14  1  0  0  0  0
  5 13  2  0  0  0  0
  6  2  2  0  0  0  0
  8 19  1  0  0  0  0
  8 10  1  0  0  0  0
  9  7  2  0  0  0  0
 11  7  1  0  0  0  0
 11 16  2  0  0  0  0
 12 23  1  6  0  0  0
 12  1  1  0  0  0  0
 13  9  1  0  0  0  0
 14 11  1  0  0  0  0
 15 20  1  0  0  0  0
 16  3  1  0  0  0  0
 17  8  2  0  0  0  0
 18 14  2  0  0  0  0
 18  6  1  0  0  0  0
 20 19  2  0  0  0  0
 21 15  2  0  0  0  0
 21 17  1  0  0  0  0
 22 25  1  0  0  0  0
 23 24  1  0  0  0  0
 25 24  2  0  0  0  0
 26 27  1  0  0  0  0
 26 22  2  0  0  0  0
 27 23  2  0  0  0  0
M  END
>  <MODEL>
8

>  <REMARK>
 VINA RESULT:      -7.4      2.648      5.745
  Name = 
  1 active torsions:
  status: ('A' for Active; 'I' for Inactive)
    1  A    between atoms: C_9  and  C_15
                            x       y       z     vdW  Elec       q    Type
                         _______ _______ _______ _____ _____    ______ ____

>  <TORSDO>
F 1

$$$$
=
 OpenBabel10272401063D

 27 31  0  0  1  0  0  0  0  0999 V2000
  184.5900  178.2850  140.9810 N   0  0  0  0  0  2  0  0  0  0  0  0
  186.5140  178.3550  142.4890 C   0  0  0  0  0  0  0  0  0  0  0  0
  184.8340  179.8600  143.5720 C   0  0  0  0  0  2  0  0  0  0  0  0
  188.0140  176.9890  146.2680 C   0  0  0  0  0  2  0  0  0  0  0  0
  187.7000  177.2550  148.6170 O   0  0  0  0  0  0  0  0  0  0  0  0
  187.5290  177.3930  142.5850 C   0  0  0  0  0  3  0  0  0  0  0  0
  185.8660  178.9590  146.1260 N   0  0  0  0  0  0  0  0  0  0  0  0
  181.2270  178.7580  143.5320 C   0  0  0  0  0  0  0  0  0  0  0  0
  186.2660  178.5870  147.3030 C   0  0  0  0  0  3  0  0  0  0  0  0
  180.1140  178.8910  144.3510 O   0  0  0  0  0  1  0  0  0  0  0  0
  186.4320  178.4400  144.9140 C   0  0  0  0  0  0  0  0  0  0  0  0
  185.9440  178.8000  141.1640 C   0  0  1  0  0  3  0  0  0  0  0  0
  187.3390  177.5980  147.4610 C   0  0  0  0  0  0  0  0  0  0  0  0
  187.4660  177.4840  144.9580 C   0  0  0  0  0  0  0  0  0  0  0  0
  183.4780  178.4890  141.8710 C   0  0  0  0  0  0  0  0  0  0  0  0
  185.9590  178.8740  143.6660 C   0  0  0  0  0  0  0  0  0  0  0  0
  182.4440  179.3270  143.9120 C   0  0  0  0  0  3  0  0  0  0  0  0
  187.9800  176.9900  143.8010 N   0  0  0  0  0  0  0  0  0  0  0  0
  181.1300  178.0570  142.3310 C   0  0  0  0  0  3  0  0  0  0  0  0
  182.2500  177.9240  141.5080 C   0  0  0  0  0  3  0  0  0  0  0  0
  183.5750  179.1990  143.0980 C   0  0  0  0  0  0  0  0  0  0  0  0
  188.3790  177.9400  137.7230 C   0  0  0  0  0  3  0  0  0  0  0  0
  186.8070  178.4860  139.9770 C   0  0  0  0  0  0  0  0  0  0  0  0
  186.2000  178.1890  138.7520 C   0  0  0  0  0  3  0  0  0  0  0  0
  186.9840  177.9140  137.6270 C   0  0  0  0  0  3  0  0  0  0  0  0
  188.9900  178.2440  138.9430 C   0  0  0  0  0  3  0  0  0  0  0  0
  188.2070  178.5190  140.0670 C   0  0  0  0  0  3  0  0  0  0  0  0
  1 12  1  0  0  0  0
  1 15  1  0  0  0  0
  2  6  2  0  0  0  0
  2 16  1  0  0  0  0
  3 16  1  0  0  0  0
  4 13  1  0  0  0  0
  6 18  1  0  0  0  0
  7  9  2  0  0  0  0
  8 17  1  0  0  0  0
  8 10  1  0  0  0  0
  9 13  1  0  0  0  0
 11 14  1  0  0  0  0
 11  7  1  0  0  0  0
 12 23  1  6  0  0  0
 12  2  1  0  0  0  0
 13  5  2  0  0  0  0
 14  4  1  0  0  0  0
 15 21  1  0  0  0  0
 16 11  2  0  0  0  0
 18 14  2  0  0  0  0
 19  8  2  0  0  0  0
 20 15  2  0  0  0  0
 20 19  1  0  0  0  0
 21  3  1  0  0  0  0
 21 17  2  0  0  0  0
 22 26  1  0  0  0  0
 23 27  1  0  0  0  0
 24 23  2  0  0  0  0
 25 22  2  0  0  0  0
 25 24  1  0  0  0  0
 26 27  2  0  0  0  0
M  END
>  <MODEL>
9

>  <REMARK>
 VINA RESULT:      -7.2      2.318      5.556
  Name = 
  1 active torsions:
  status: ('A' for Active; 'I' for Inactive)
    1  A    between atoms: C_9  and  C_15
                            x       y       z     vdW  Elec       q    Type
                         _______ _______ _______ _____ _____    ______ ____

>  <TORSDO>
F 1

$$$$
