=
 OpenBabel10272400243D

 31 36  0  0  1  0  0  0  0  0999 V2000
  185.2340  178.7300  145.5440 C   0  0  1  0  0  3  0  0  0  0  0  0
  188.2510  177.3500  143.5440 C   0  0  1  0  0  3  0  0  0  0  0  0
  189.3740  177.2940  144.5640 C   0  0  0  0  0  0  0  0  0  0  0  0
  189.4460  177.4510  147.0340 C   0  0  0  0  0  3  0  0  0  0  0  0
  187.0830  178.2820  143.9120 C   0  0  2  0  0  3  0  0  0  0  0  0
  184.2320  178.8290  144.3980 C   0  0  0  0  0  2  0  0  0  0  0  0
  189.3780  178.2100  145.7520 C   0  0  0  0  0  2  0  0  0  0  0  0
  187.8130  177.8120  141.0740 C   0  0  2  0  0  3  0  0  0  0  0  0
  184.5640  178.2370  146.7330 N   0  0  0  0  0  1  0  0  0  0  0  0
  190.4890  175.8250  142.9410 C   0  0  0  0  0  2  0  0  0  0  0  0
  190.4840  176.6850  147.3610 C   0  0  0  0  0  3  0  0  0  0  0  0
  186.7320  178.8050  141.4820 C   0  0  0  0  0  2  0  0  0  0  0  0
  188.8720  177.7020  142.1760 C   0  0  2  0  0  3  0  0  0  0  0  0
  186.3690  177.7800  145.1700 C   0  0  0  0  0  2  0  0  0  0  0  0
  191.6400  176.4170  146.4840 C   0  0  0  0  0  3  0  0  0  0  0  0
  186.0620  178.3460  142.7660 C   0  0  2  0  0  3  0  0  0  0  0  0
  184.9290  179.3010  143.1240 C   0  0  0  0  0  2  0  0  0  0  0  0
  189.9790  176.7000  141.7830 C   0  0  0  0  0  2  0  0  0  0  0  0
  190.4520  176.5430  144.2620 C   0  0  0  0  0  0  0  0  0  0  0  0
  191.6240  176.3640  145.1470 C   0  0  0  0  0  3  0  0  0  0  0  0
  188.5580  178.3830  139.5130 S   0  0  0  0  0  0  0  0  0  0  0  0
  182.5110  177.7240  136.4460 C   0  0  0  0  0  2  0  0  0  0  0  0
  184.7920  178.1100  138.1420 C   0  0  0  0  0  0  0  0  0  0  0  0
  186.1270  176.6260  136.7760 C   0  0  0  0  0  3  0  0  0  0  0  0
  187.2540  176.9810  137.5180 C   0  0  0  0  0  3  0  0  0  0  0  0
  182.2880  178.0510  137.9160 C   0  0  0  0  0  2  0  0  0  0  0  0
  187.1250  177.9060  138.5560 C   0  0  0  0  0  0  0  0  0  0  0  0
  183.4980  178.8040  138.4640 C   0  0  0  0  0  2  0  0  0  0  0  0
  184.8880  177.1990  137.0690 C   0  0  0  0  0  0  0  0  0  0  0  0
  185.9100  178.4470  138.8410 N   0  0  0  0  0  0  0  0  0  0  0  0
  183.6740  176.7460  136.3070 C   0  0  0  0  0  2  0  0  0  0  0  0
  1  9  1  1  0  0  0
  2  5  1  0  0  0  0
  2  3  1  1  0  0  0
  3  7  1  0  0  0  0
  4 11  2  0  0  0  0
  5 14  1  1  0  0  0
  6  1  1  0  0  0  0
  7  4  1  0  0  0  0
  8 21  1  6  0  0  0
  8 12  1  0  0  0  0
  8 13  1  0  0  0  0
 10 19  1  0  0  0  0
 13 18  1  6  0  0  0
 13  2  1  0  0  0  0
 14  1  1  0  0  0  0
 15 11  1  0  0  0  0
 16 12  1  6  0  0  0
 16 17  1  0  0  0  0
 16  5  1  0  0  0  0
 17  6  1  0  0  0  0
 18 10  1  0  0  0  0
 19  3  2  0  0  0  0
 19 20  1  0  0  0  0
 20 15  2  0  0  0  0
 22 26  1  0  0  0  0
 23 28  1  0  0  0  0
 23 30  1  0  0  0  0
 24 29  1  0  0  0  0
 24 25  2  0  0  0  0
 25 27  1  0  0  0  0
 26 28  1  0  0  0  0
 27 30  2  0  0  0  0
 27 21  1  0  0  0  0
 29 23  2  0  0  0  0
 31 22  1  0  0  0  0
 31 29  1  0  0  0  0
M  END
>  <MODEL>
1

>  <REMARK>
 VINA RESULT:     -11.6      0.000      0.000
  Name = 
  2 active torsions:
  status: ('A' for Active; 'I' for Inactive)
    1  A    between atoms: C_9  and  S_23
    2  A    between atoms: C_15  and  S_23
                            x       y       z     vdW  Elec       q    Type
                         _______ _______ _______ _____ _____    ______ ____

>  <TORSDO>
F 2

$$$$
=
 OpenBabel10272400243D

 31 36  0  0  1  0  0  0  0  0999 V2000
  185.2270  178.7280  145.3560 C   0  0  1  0  0  3  0  0  0  0  0  0
  188.3090  177.3570  143.4500 C   0  0  1  0  0  3  0  0  0  0  0  0
  189.3970  177.2980  144.5060 C   0  0  0  0  0  0  0  0  0  0  0  0
  189.3890  177.4460  146.9780 C   0  0  0  0  0  3  0  0  0  0  0  0
  187.1290  178.2880  143.7840 C   0  0  2  0  0  3  0  0  0  0  0  0
  184.2620  178.8320  144.1780 C   0  0  0  0  0  2  0  0  0  0  0  0
  189.3620  178.2090  145.6970 C   0  0  0  0  0  2  0  0  0  0  0  0
  187.9500  177.8280  140.9690 C   0  0  2  0  0  3  0  0  0  0  0  0
  184.5190  178.2310  146.5200 N   0  0  0  0  0  1  0  0  0  0  0  0
  190.5660  175.8360  142.9150 C   0  0  0  0  0  2  0  0  0  0  0  0
  190.4160  176.6790  147.3350 C   0  0  0  0  0  3  0  0  0  0  0  0
  186.8560  178.8200  141.3450 C   0  0  0  0  0  2  0  0  0  0  0  0
  188.9730  177.7150  142.1040 C   0  0  2  0  0  3  0  0  0  0  0  0
  186.3740  177.7810  145.0150 C   0  0  0  0  0  2  0  0  0  0  0  0
  191.6000  176.4150  146.4960 C   0  0  0  0  0  3  0  0  0  0  0  0
  186.1460  178.3550  142.6040 C   0  0  2  0  0  3  0  0  0  0  0  0
  185.0000  179.3080  142.9290 C   0  0  0  0  0  2  0  0  0  0  0  0
  190.0930  176.7150  141.7440 C   0  0  0  0  0  2  0  0  0  0  0  0
  190.4860  176.5490  144.2360 C   0  0  0  0  0  0  0  0  0  0  0  0
  191.6280  176.3670  145.1590 C   0  0  0  0  0  3  0  0  0  0  0  0
  188.7460  178.4050  139.4350 S   0  0  0  0  0  0  0  0  0  0  0  0
  185.2050  173.8660  135.7930 C   0  0  0  0  0  2  0  0  0  0  0  0
  187.0960  175.5610  137.1280 C   0  0  0  0  0  0  0  0  0  0  0  0
  185.4680  177.3420  137.2890 C   0  0  0  0  0  3  0  0  0  0  0  0
  186.3560  178.0610  138.0900 C   0  0  0  0  0  3  0  0  0  0  0  0
  186.6880  173.6810  135.5070 C   0  0  0  0  0  2  0  0  0  0  0  0
  187.5980  177.5050  138.4010 C   0  0  0  0  0  0  0  0  0  0  0  0
  187.5070  174.1810  136.6960 C   0  0  0  0  0  2  0  0  0  0  0  0
  185.8210  176.0780  136.8140 C   0  0  0  0  0  0  0  0  0  0  0  0
  187.9370  176.2790  137.9210 N   0  0  0  0  0  0  0  0  0  0  0  0
  184.8810  175.3540  135.8920 C   0  0  0  0  0  2  0  0  0  0  0  0
  1  9  1  1  0  0  0
  2  5  1  0  0  0  0
  2  3  1  1  0  0  0
  3  7  1  0  0  0  0
  4 11  2  0  0  0  0
  5 14  1  1  0  0  0
  6  1  1  0  0  0  0
  7  4  1  0  0  0  0
  8 21  1  6  0  0  0
  8 12  1  0  0  0  0
  8 13  1  0  0  0  0
 10 19  1  0  0  0  0
 13 18  1  6  0  0  0
 13  2  1  0  0  0  0
 14  1  1  0  0  0  0
 15 11  1  0  0  0  0
 16 12  1  6  0  0  0
 16 17  1  0  0  0  0
 16  5  1  0  0  0  0
 17  6  1  0  0  0  0
 18 10  1  0  0  0  0
 19  3  2  0  0  0  0
 19 20  1  0  0  0  0
 20 15  2  0  0  0  0
 22 31  1  0  0  0  0
 23 30  1  0  0  0  0
 24 25  2  0  0  0  0
 25 27  1  0  0  0  0
 26 22  1  0  0  0  0
 26 28  1  0  0  0  0
 27 21  1  0  0  0  0
 28 23  1  0  0  0  0
 29 23  2  0  0  0  0
 29 24  1  0  0  0  0
 30 27  2  0  0  0  0
 31 29  1  0  0  0  0
M  END
>  <MODEL>
2

>  <REMARK>
 VINA RESULT:     -11.4      1.216      2.125
  Name = 
  2 active torsions:
  status: ('A' for Active; 'I' for Inactive)
    1  A    between atoms: C_9  and  S_23
    2  A    between atoms: C_15  and  S_23
                            x       y       z     vdW  Elec       q    Type
                         _______ _______ _______ _____ _____    ______ ____

>  <TORSDO>
F 2

$$$$
=
 OpenBabel10272400243D

 31 36  0  0  1  0  0  0  0  0999 V2000
  185.6510  178.5500  143.5670 C   0  0  1  0  0  3  0  0  0  0  0  0
  189.2220  177.0730  143.2870 C   0  0  1  0  0  3  0  0  0  0  0  0
  189.7990  177.2390  144.6800 C   0  0  0  0  0  0  0  0  0  0  0  0
  188.8090  177.7700  146.8870 C   0  0  0  0  0  3  0  0  0  0  0  0
  188.0170  177.9770  142.9690 C   0  0  2  0  0  3  0  0  0  0  0  0
  185.2370  178.4150  142.1050 C   0  0  0  0  0  2  0  0  0  0  0  0
  189.3030  178.3220  145.5930 C   0  0  0  0  0  2  0  0  0  0  0  0
  189.8860  177.1300  140.8250 C   0  0  2  0  0  3  0  0  0  0  0  0
  184.5330  178.2020  144.4220 N   0  0  0  0  0  1  0  0  0  0  0  0
  191.4880  175.6150  143.9440 C   0  0  0  0  0  2  0  0  0  0  0  0
  189.6000  177.1270  147.7420 C   0  0  0  0  0  3  0  0  0  0  0  0
  188.7440  178.1060  140.5700 C   0  0  0  0  0  2  0  0  0  0  0  0
  190.3710  177.2530  142.2730 C   0  0  2  0  0  3  0  0  0  0  0  0
  186.8290  177.6270  143.8680 C   0  0  0  0  0  2  0  0  0  0  0  0
  191.0170  176.8020  147.4940 C   0  0  0  0  0  3  0  0  0  0  0  0
  187.5860  177.8040  141.5040 C   0  0  2  0  0  3  0  0  0  0  0  0
  186.4170  178.7320  141.1880 C   0  0  0  0  0  2  0  0  0  0  0  0
  191.5310  176.2730  142.5540 C   0  0  0  0  0  2  0  0  0  0  0  0
  190.8960  176.5190  144.9900 C   0  0  0  0  0  0  0  0  0  0  0  0
  191.5740  176.5470  146.3040 C   0  0  0  0  0  3  0  0  0  0  0  0
  191.2340  177.5050  139.6570 S   0  0  0  0  0  0  0  0  0  0  0  0
  187.8300  173.7130  135.1350 C   0  0  0  0  0  2  0  0  0  0  0  0
  189.5600  174.9140  137.0840 C   0  0  0  0  0  0  0  0  0  0  0  0
  189.0310  177.1290  136.2670 C   0  0  0  0  0  3  0  0  0  0  0  0
  189.7370  177.6760  137.3390 C   0  0  0  0  0  3  0  0  0  0  0  0
  189.0310  172.9250  135.6380 C   0  0  0  0  0  2  0  0  0  0  0  0
  190.3340  176.8240  138.2700 C   0  0  0  0  0  0  0  0  0  0  0  0
  189.4230  173.4180  137.0290 C   0  0  0  0  0  2  0  0  0  0  0  0
  188.9210  175.7430  136.1370 C   0  0  0  0  0  0  0  0  0  0  0  0
  190.2310  175.4760  138.1250 N   0  0  0  0  0  0  0  0  0  0  0  0
  188.2210  175.1750  134.9350 C   0  0  0  0  0  2  0  0  0  0  0  0
  1 14  1  0  0  0  0
  1  9  1  1  0  0  0
  2  3  1  1  0  0  0
  3 19  2  0  0  0  0
  3  7  1  0  0  0  0
  4 11  2  0  0  0  0
  5  2  1  0  0  0  0
  5 14  1  1  0  0  0
  6  1  1  0  0  0  0
  7  4  1  0  0  0  0
  8 21  1  6  0  0  0
  8 13  1  0  0  0  0
 10 19  1  0  0  0  0
 12  8  1  0  0  0  0
 13 18  1  1  0  0  0
 13  2  1  0  0  0  0
 15 11  1  0  0  0  0
 16 12  1  6  0  0  0
 16  5  1  0  0  0  0
 17 16  1  0  0  0  0
 17  6  1  0  0  0  0
 18 10  1  0  0  0  0
 19 20  1  0  0  0  0
 20 15  2  0  0  0  0
 22 26  1  0  0  0  0
 23 30  1  0  0  0  0
 24 25  2  0  0  0  0
 25 27  1  0  0  0  0
 26 28  1  0  0  0  0
 27 21  1  0  0  0  0
 28 23  1  0  0  0  0
 29 24  1  0  0  0  0
 29 23  2  0  0  0  0
 30 27  2  0  0  0  0
 31 22  1  0  0  0  0
 31 29  1  0  0  0  0
M  END
>  <MODEL>
3

>  <REMARK>
 VINA RESULT:     -10.2      2.643      3.526
  Name = 
  2 active torsions:
  status: ('A' for Active; 'I' for Inactive)
    1  A    between atoms: C_9  and  S_23
    2  A    between atoms: C_15  and  S_23
                            x       y       z     vdW  Elec       q    Type
                         _______ _______ _______ _____ _____    ______ ____

>  <TORSDO>
F 2

$$$$
=
 OpenBabel10272400243D

 31 36  0  0  1  0  0  0  0  0999 V2000
  188.2190  177.9190  139.5180 C   0  0  1  0  0  3  0  0  0  0  0  0
  185.5300  178.5930  142.2240 C   0  0  1  0  0  3  0  0  0  0  0  0
  186.1460  178.0430  143.4980 C   0  0  0  0  0  0  0  0  0  0  0  0
  188.4360  177.3410  144.1240 C   0  0  0  0  0  3  0  0  0  0  0  0
  186.1460  178.0540  140.9200 C   0  0  2  0  0  3  0  0  0  0  0  0
  187.4420  178.4150  138.3020 C   0  0  0  0  0  2  0  0  0  0  0  0
  187.1680  176.9460  143.4470 C   0  0  0  0  0  2  0  0  0  0  0  0
  183.2900  178.8520  141.0340 C   0  0  2  0  0  3  0  0  0  0  0  0
  189.6030  178.3400  139.4140 N   0  0  0  0  0  1  0  0  0  0  0  0
  184.4200  179.3600  144.6480 C   0  0  0  0  0  2  0  0  0  0  0  0
  188.5000  177.6210  145.4240 C   0  0  0  0  0  3  0  0  0  0  0  0
  183.9080  178.2200  139.7940 C   0  0  0  0  0  2  0  0  0  0  0  0
  184.0070  178.3550  142.2930 C   0  0  2  0  0  3  0  0  0  0  0  0
  187.6100  178.4850  140.7980 C   0  0  0  0  0  2  0  0  0  0  0  0
  187.3380  177.6630  146.3310 C   0  0  0  0  0  3  0  0  0  0  0  0
  185.3780  178.5900  139.7010 C   0  0  2  0  0  3  0  0  0  0  0  0
  185.9710  178.0220  138.4160 C   0  0  0  0  0  2  0  0  0  0  0  0
  183.3950  178.9820  143.5640 C   0  0  0  0  0  2  0  0  0  0  0  0
  185.6010  178.4310  144.6700 C   0  0  0  0  0  0  0  0  0  0  0  0
  186.0870  178.0060  146.0010 C   0  0  0  0  0  3  0  0  0  0  0  0
  181.5210  178.4140  141.0810 S   0  0  0  0  0  0  0  0  0  0  0  0
  180.9520  182.4570  135.6280 C   0  0  0  0  0  2  0  0  0  0  0  0
  181.0570  181.1560  138.1830 C   0  0  0  0  0  0  0  0  0  0  0  0
  180.6270  179.0040  137.1650 C   0  0  0  0  0  3  0  0  0  0  0  0
  180.8640  178.3910  138.3960 C   0  0  0  0  0  3  0  0  0  0  0  0
  180.5620  183.2440  136.8710 C   0  0  0  0  0  2  0  0  0  0  0  0
  181.2030  179.1800  139.4970 C   0  0  0  0  0  0  0  0  0  0  0  0
  181.2490  182.6440  138.0960 C   0  0  0  0  0  2  0  0  0  0  0  0
  180.7380  180.3900  137.0410 C   0  0  0  0  0  0  0  0  0  0  0  0
  181.2940  180.5300  139.3680 N   0  0  0  0  0  0  0  0  0  0  0  0
  180.4040  181.0360  135.7250 C   0  0  0  0  0  2  0  0  0  0  0  0
  1  9  1  6  0  0  0
  1 14  1  0  0  0  0
  2 13  1  0  0  0  0
  2  3  1  1  0  0  0
  3 19  2  0  0  0  0
  4 11  2  0  0  0  0
  5 14  1  6  0  0  0
  5  2  1  0  0  0  0
  6 17  1  0  0  0  0
  6  1  1  0  0  0  0
  7  3  1  0  0  0  0
  7  4  1  0  0  0  0
  8 21  1  1  0  0  0
  8 13  1  0  0  0  0
 10 19  1  0  0  0  0
 11 15  1  0  0  0  0
 12  8  1  0  0  0  0
 13 18  1  1  0  0  0
 16 17  1  6  0  0  0
 16 12  1  0  0  0  0
 16  5  1  0  0  0  0
 18 10  1  0  0  0  0
 19 20  1  0  0  0  0
 20 15  2  0  0  0  0
 22 31  1  0  0  0  0
 22 26  1  0  0  0  0
 23 30  1  0  0  0  0
 24 25  2  0  0  0  0
 25 27  1  0  0  0  0
 26 28  1  0  0  0  0
 27 21  1  0  0  0  0
 28 23  1  0  0  0  0
 29 24  1  0  0  0  0
 29 23  2  0  0  0  0
 30 27  2  0  0  0  0
 31 29  1  0  0  0  0
M  END
>  <MODEL>
4

>  <REMARK>
 VINA RESULT:     -10.0      2.816      5.343
  Name = 
  2 active torsions:
  status: ('A' for Active; 'I' for Inactive)
    1  A    between atoms: C_9  and  S_23
    2  A    between atoms: C_15  and  S_23
                            x       y       z     vdW  Elec       q    Type
                         _______ _______ _______ _____ _____    ______ ____

>  <TORSDO>
F 2

$$$$
=
 OpenBabel10272400243D

 31 36  0  0  1  0  0  0  0  0999 V2000
  190.4680  176.5600  145.7370 C   0  0  1  0  0  3  0  0  0  0  0  0
  187.9410  177.9610  143.1560 C   0  0  1  0  0  3  0  0  0  0  0  0
  186.6270  178.0040  143.9130 C   0  0  0  0  0  0  0  0  0  0  0  0
  186.0300  177.8180  146.3090 C   0  0  0  0  0  3  0  0  0  0  0  0
  189.0070  177.0250  143.7540 C   0  0  2  0  0  3  0  0  0  0  0  0
  191.6910  176.4740  144.8300 C   0  0  0  0  0  2  0  0  0  0  0  0
  186.3730  177.0740  145.0630 C   0  0  0  0  0  2  0  0  0  0  0  0
  188.8980  177.5290  140.8310 C   0  0  2  0  0  3  0  0  0  0  0  0
  190.8670  177.0390  147.0470 N   0  0  0  0  0  1  0  0  0  0  0  0
  185.8780  179.4910  142.1070 C   0  0  0  0  0  2  0  0  0  0  0  0
  184.9440  178.5790  146.4160 C   0  0  0  0  0  3  0  0  0  0  0  0
  189.8700  176.5310  141.4480 C   0  0  0  0  0  2  0  0  0  0  0  0
  187.6280  177.6240  141.6830 C   0  0  2  0  0  3  0  0  0  0  0  0
  189.4350  177.5120  145.1400 C   0  0  0  0  0  2  0  0  0  0  0  0
  184.0010  178.8560  145.3160 C   0  0  0  0  0  3  0  0  0  0  0  0
  190.2490  176.9760  142.8500 C   0  0  2  0  0  3  0  0  0  0  0  0
  191.2840  176.0170  143.4310 C   0  0  0  0  0  2  0  0  0  0  0  0
  186.6270  178.6300  141.0740 C   0  0  0  0  0  2  0  0  0  0  0  0
  185.6350  178.7580  143.3970 C   0  0  0  0  0  0  0  0  0  0  0  0
  184.3010  178.9250  144.0140 C   0  0  0  0  0  3  0  0  0  0  0  0
  188.5040  176.9760  139.1400 S   0  0  0  0  0  0  0  0  0  0  0  0
  194.4050  174.4520  136.8540 C   0  0  0  0  0  2  0  0  0  0  0  0
  191.7580  175.0460  137.7920 C   0  0  0  0  0  0  0  0  0  0  0  0
  192.5610  176.9870  138.9920 C   0  0  0  0  0  3  0  0  0  0  0  0
  191.2410  177.3390  139.2740 C   0  0  0  0  0  3  0  0  0  0  0  0
  193.4150  173.3100  137.0380 C   0  0  0  0  0  2  0  0  0  0  0  0
  190.2030  176.5360  138.7980 C   0  0  0  0  0  0  0  0  0  0  0  0
  191.9880  173.8420  136.9210 C   0  0  0  0  0  2  0  0  0  0  0  0
  192.8340  175.8470  138.2330 C   0  0  0  0  0  0  0  0  0  0  0  0
  190.4810  175.4200  138.0720 N   0  0  0  0  0  0  0  0  0  0  0  0
  194.2640  175.4450  138.0050 C   0  0  0  0  0  2  0  0  0  0  0  0
  1  9  1  1  0  0  0
  2  5  1  0  0  0  0
  2  3  1  1  0  0  0
  3  7  1  0  0  0  0
  4 11  2  0  0  0  0
  5 14  1  1  0  0  0
  6  1  1  0  0  0  0
  7  4  1  0  0  0  0
  8 21  1  6  0  0  0
  8 12  1  0  0  0  0
  8 13  1  0  0  0  0
 10 19  1  0  0  0  0
 13 18  1  6  0  0  0
 13  2  1  0  0  0  0
 14  1  1  0  0  0  0
 15 11  1  0  0  0  0
 16 12  1  6  0  0  0
 16 17  1  0  0  0  0
 16  5  1  0  0  0  0
 17  6  1  0  0  0  0
 18 10  1  0  0  0  0
 19  3  2  0  0  0  0
 19 20  1  0  0  0  0
 20 15  2  0  0  0  0
 22 26  1  0  0  0  0
 22 31  1  0  0  0  0
 23 30  2  0  0  0  0
 23 29  1  0  0  0  0
 24 25  1  0  0  0  0
 27 21  1  0  0  0  0
 27 25  2  0  0  0  0
 28 26  1  0  0  0  0
 28 23  1  0  0  0  0
 29 24  2  0  0  0  0
 30 27  1  0  0  0  0
 31 29  1  0  0  0  0
M  END
>  <MODEL>
5

>  <REMARK>
 VINA RESULT:     -10.0      3.238      6.380
  Name = 
  2 active torsions:
  status: ('A' for Active; 'I' for Inactive)
    1  A    between atoms: C_9  and  S_23
    2  A    between atoms: C_15  and  S_23
                            x       y       z     vdW  Elec       q    Type
                         _______ _______ _______ _____ _____    ______ ____

>  <TORSDO>
F 2

$$$$
=
 OpenBabel10272400243D

 31 36  0  0  1  0  0  0  0  0999 V2000
  182.3700  179.0650  141.5880 C   0  0  1  0  0  3  0  0  0  0  0  0
  185.9760  177.9890  142.5090 C   0  0  1  0  0  3  0  0  0  0  0  0
  186.0780  178.2810  143.9950 C   0  0  0  0  0  0  0  0  0  0  0  0
  184.4130  178.7930  145.7540 C   0  0  0  0  0  3  0  0  0  0  0  0
  184.8480  178.7360  141.7760 C   0  0  2  0  0  3  0  0  0  0  0  0
  182.4400  178.8200  140.0840 C   0  0  0  0  0  2  0  0  0  0  0  0
  185.2260  179.3400  144.6300 C   0  0  0  0  0  2  0  0  0  0  0  0
  187.3570  178.0120  140.3650 C   0  0  2  0  0  3  0  0  0  0  0  0
  181.0810  178.6310  142.0910 N   0  0  0  0  0  1  0  0  0  0  0  0
  188.0570  176.8260  143.9280 C   0  0  0  0  0  2  0  0  0  0  0  0
  184.9600  178.2820  146.8540 C   0  0  0  0  0  3  0  0  0  0  0  0
  186.2620  178.8410  139.7040 C   0  0  0  0  0  2  0  0  0  0  0  0
  187.3590  178.2520  141.8780 C   0  0  2  0  0  3  0  0  0  0  0  0
  183.4790  178.2950  142.3000 C   0  0  0  0  0  2  0  0  0  0  0  0
  186.4090  178.1080  147.0700 C   0  0  0  0  0  3  0  0  0  0  0  0
  184.9060  178.4520  140.2670 C   0  0  2  0  0  3  0  0  0  0  0  0
  183.8090  179.2260  139.5430 C   0  0  0  0  0  2  0  0  0  0  0  0
  188.4630  177.4230  142.5690 C   0  0  0  0  0  2  0  0  0  0  0  0
  187.0900  177.7030  144.6740 C   0  0  0  0  0  0  0  0  0  0  0  0
  187.3260  177.8650  146.1260 C   0  0  0  0  0  3  0  0  0  0  0  0
  188.9570  178.4840  139.6310 S   0  0  0  0  0  0  0  0  0  0  0  0
  186.7160  174.6150  134.4910 C   0  0  0  0  0  2  0  0  0  0  0  0
  187.7350  175.8140  136.8910 C   0  0  0  0  0  0  0  0  0  0  0  0
  188.4840  177.7600  135.6650 C   0  0  0  0  0  3  0  0  0  0  0  0
  188.8010  178.3810  136.8730 C   0  0  0  0  0  3  0  0  0  0  0  0
  187.1870  173.7120  135.6220 C   0  0  0  0  0  2  0  0  0  0  0  0
  188.5670  177.7020  138.0710 C   0  0  0  0  0  0  0  0  0  0  0  0
  187.0880  174.4580  136.9510 C   0  0  0  0  0  2  0  0  0  0  0  0
  187.9320  176.4770  135.6610 C   0  0  0  0  0  0  0  0  0  0  0  0
  188.0430  176.4480  138.0540 N   0  0  0  0  0  0  0  0  0  0  0  0
  187.6680  175.7990  134.3460 C   0  0  0  0  0  2  0  0  0  0  0  0
  1  9  1  1  0  0  0
  1 14  1  0  0  0  0
  2  3  1  1  0  0  0
  3  7  1  0  0  0  0
  3 19  2  0  0  0  0
  4 11  2  0  0  0  0
  5 14  1  1  0  0  0
  5  2  1  0  0  0  0
  6  1  1  0  0  0  0
  7  4  1  0  0  0  0
  8 21  1  6  0  0  0
  8 13  1  0  0  0  0
 10 19  1  0  0  0  0
 11 15  1  0  0  0  0
 12 16  1  0  0  0  0
 12  8  1  0  0  0  0
 13  2  1  0  0  0  0
 13 18  1  1  0  0  0
 16 17  1  6  0  0  0
 16  5  1  0  0  0  0
 17  6  1  0  0  0  0
 18 10  1  0  0  0  0
 19 20  1  0  0  0  0
 20 15  2  0  0  0  0
 22 26  1  0  0  0  0
 23 28  1  0  0  0  0
 23 30  1  0  0  0  0
 24 25  2  0  0  0  0
 25 27  1  0  0  0  0
 26 28  1  0  0  0  0
 27 21  1  0  0  0  0
 29 24  1  0  0  0  0
 29 23  2  0  0  0  0
 30 27  2  0  0  0  0
 31 22  1  0  0  0  0
 31 29  1  0  0  0  0
M  END
>  <MODEL>
6

>  <REMARK>
 VINA RESULT:      -9.7      2.448      4.007
  Name = 
  2 active torsions:
  status: ('A' for Active; 'I' for Inactive)
    1  A    between atoms: C_9  and  S_23
    2  A    between atoms: C_15  and  S_23
                            x       y       z     vdW  Elec       q    Type
                         _______ _______ _______ _____ _____    ______ ____

>  <TORSDO>
F 2

$$$$
=
 OpenBabel10272400243D

 31 36  0  0  1  0  0  0  0  0999 V2000
  185.1400  178.5670  143.2760 C   0  0  1  0  0  3  0  0  0  0  0  0
  188.7450  177.1730  143.0100 C   0  0  1  0  0  3  0  0  0  0  0  0
  189.2970  177.3110  144.4170 C   0  0  0  0  0  0  0  0  0  0  0  0
  188.2620  177.7560  146.6220 C   0  0  0  0  0  3  0  0  0  0  0  0
  187.5260  178.0610  142.7000 C   0  0  2  0  0  3  0  0  0  0  0  0
  184.7510  178.4660  141.8040 C   0  0  0  0  0  2  0  0  0  0  0  0
  188.7630  178.3560  145.3530 C   0  0  0  0  0  2  0  0  0  0  0  0
  189.4460  177.3170  140.5620 C   0  0  2  0  0  3  0  0  0  0  0  0
  184.0160  178.1710  144.1030 N   0  0  0  0  0  1  0  0  0  0  0  0
  191.0310  175.7440  143.6610 C   0  0  0  0  0  2  0  0  0  0  0  0
  189.0530  177.1050  147.4710 C   0  0  0  0  0  3  0  0  0  0  0  0
  188.2870  178.2760  140.3170 C   0  0  0  0  0  2  0  0  0  0  0  0
  189.9050  177.4070  142.0210 C   0  0  2  0  0  3  0  0  0  0  0  0
  186.3320  177.6600  143.5690 C   0  0  0  0  0  2  0  0  0  0  0  0
  190.4810  176.8160  147.2360 C   0  0  0  0  0  3  0  0  0  0  0  0
  187.1210  177.9220  141.2240 C   0  0  2  0  0  3  0  0  0  0  0  0
  185.9370  178.8340  140.9160 C   0  0  0  0  0  2  0  0  0  0  0  0
  191.0810  176.4430  142.2920 C   0  0  0  0  0  2  0  0  0  0  0  0
  190.4040  176.6050  144.7230 C   0  0  0  0  0  0  0  0  0  0  0  0
  191.0610  176.6090  146.0480 C   0  0  0  0  0  3  0  0  0  0  0  0
  190.8030  177.7530  139.4270 S   0  0  0  0  0  0  0  0  0  0  0  0
  188.3240  172.9830  135.2420 C   0  0  0  0  0  2  0  0  0  0  0  0
  188.9230  174.9690  137.2240 C   0  0  0  0  0  0  0  0  0  0  0  0
  191.2870  174.4720  137.0850 C   0  0  0  0  0  3  0  0  0  0  0  0
  191.5490  175.5640  137.9130 C   0  0  0  0  0  3  0  0  0  0  0  0
  187.2750  173.3140  136.2930 C   0  0  0  0  0  2  0  0  0  0  0  0
  190.4860  176.3440  138.3730 C   0  0  0  0  0  0  0  0  0  0  0  0
  187.4960  174.7320  136.8140 C   0  0  0  0  0  2  0  0  0  0  0  0
  189.9730  174.1730  136.7180 C   0  0  0  0  0  0  0  0  0  0  0  0
  189.2100  176.0340  138.0200 N   0  0  0  0  0  0  0  0  0  0  0  0
  189.7060  172.9490  135.8870 C   0  0  0  0  0  2  0  0  0  0  0  0
  1 14  1  0  0  0  0
  1  9  1  1  0  0  0
  2  3  1  1  0  0  0
  3 19  2  0  0  0  0
  3  7  1  0  0  0  0
  4 11  2  0  0  0  0
  5  2  1  0  0  0  0
  5 14  1  1  0  0  0
  6  1  1  0  0  0  0
  7  4  1  0  0  0  0
  8 21  1  6  0  0  0
  8 13  1  0  0  0  0
 10 19  1  0  0  0  0
 12  8  1  0  0  0  0
 13 18  1  6  0  0  0
 13  2  1  0  0  0  0
 15 11  1  0  0  0  0
 16 12  1  6  0  0  0
 16  5  1  0  0  0  0
 17 16  1  0  0  0  0
 17  6  1  0  0  0  0
 18 10  1  0  0  0  0
 19 20  1  0  0  0  0
 20 15  2  0  0  0  0
 22 31  1  0  0  0  0
 22 26  1  0  0  0  0
 23 30  1  0  0  0  0
 24 25  2  0  0  0  0
 25 27  1  0  0  0  0
 26 28  1  0  0  0  0
 27 21  1  0  0  0  0
 28 23  1  0  0  0  0
 29 24  1  0  0  0  0
 29 23  2  0  0  0  0
 30 27  2  0  0  0  0
 31 29  1  0  0  0  0
M  END
>  <MODEL>
7

>  <REMARK>
 VINA RESULT:      -9.5      2.452      3.584
  Name = 
  2 active torsions:
  status: ('A' for Active; 'I' for Inactive)
    1  A    between atoms: C_9  and  S_23
    2  A    between atoms: C_15  and  S_23
                            x       y       z     vdW  Elec       q    Type
                         _______ _______ _______ _____ _____    ______ ____

>  <TORSDO>
F 2

$$$$
=
 OpenBabel10272400243D

 31 36  0  0  1  0  0  0  0  0999 V2000
  190.7660  177.0790  143.9330 C   0  0  1  0  0  3  0  0  0  0  0  0
  187.3180  178.4130  142.7750 C   0  0  1  0  0  3  0  0  0  0  0  0
  186.4120  178.1730  143.9690 C   0  0  0  0  0  0  0  0  0  0  0  0
  186.8280  177.6080  146.3430 C   0  0  0  0  0  3  0  0  0  0  0  0
  188.6080  177.5720  142.7580 C   0  0  2  0  0  3  0  0  0  0  0  0
  191.5340  177.2830  142.6300 C   0  0  0  0  0  2  0  0  0  0  0  0
  186.7110  177.0810  144.9530 C   0  0  0  0  0  2  0  0  0  0  0  0
  187.3110  178.4130  140.2250 C   0  0  2  0  0  3  0  0  0  0  0  0
  191.6090  177.4450  145.0550 N   0  0  0  0  0  1  0  0  0  0  0  0
  184.8890  179.7490  142.8590 C   0  0  0  0  0  2  0  0  0  0  0  0
  185.8130  178.1870  146.9800 C   0  0  0  0  0  3  0  0  0  0  0  0
  188.5270  177.4970  140.2500 C   0  0  0  0  0  2  0  0  0  0  0  0
  186.4780  178.2200  141.4960 C   0  0  2  0  0  3  0  0  0  0  0  0
  189.5060  177.9410  143.9410 C   0  0  0  0  0  2  0  0  0  0  0  0
  184.4920  178.4600  146.3820 C   0  0  0  0  0  3  0  0  0  0  0  0
  189.3910  177.8140  141.4580 C   0  0  2  0  0  3  0  0  0  0  0  0
  190.6470  176.9490  141.4330 C   0  0  0  0  0  2  0  0  0  0  0  0
  185.2370  179.1390  141.4910 C   0  0  0  0  0  2  0  0  0  0  0  0
  185.2370  178.8350  144.0010 C   0  0  0  0  0  0  0  0  0  0  0  0
  184.2470  178.7320  145.0950 C   0  0  0  0  0  3  0  0  0  0  0  0
  186.3280  178.0240  138.7400 S   0  0  0  0  0  0  0  0  0  0  0  0
  191.1310  174.6000  135.3310 C   0  0  0  0  0  2  0  0  0  0  0  0
  189.0960  175.6440  137.0630 C   0  0  0  0  0  0  0  0  0  0  0  0
  189.7320  177.9170  136.5290 C   0  0  0  0  0  3  0  0  0  0  0  0
  188.6210  178.3770  137.2370 C   0  0  0  0  0  3  0  0  0  0  0  0
  190.6950  173.7770  136.5340 C   0  0  0  0  0  2  0  0  0  0  0  0
  187.7630  177.4540  137.8380 C   0  0  0  0  0  0  0  0  0  0  0  0
  189.2700  174.1570  136.9300 C   0  0  0  0  0  2  0  0  0  0  0  0
  189.9720  176.5450  136.4210 C   0  0  0  0  0  0  0  0  0  0  0  0
  188.0150  176.1220  137.7370 N   0  0  0  0  0  0  0  0  0  0  0  0
  191.2140  176.0740  135.7180 C   0  0  0  0  0  2  0  0  0  0  0  0
  1 14  1  0  0  0  0
  1  9  1  1  0  0  0
  2  3  1  1  0  0  0
  3 19  2  0  0  0  0
  3  7  1  0  0  0  0
  4 11  2  0  0  0  0
  5  2  1  0  0  0  0
  5 14  1  1  0  0  0
  6  1  1  0  0  0  0
  7  4  1  0  0  0  0
  8 21  1  6  0  0  0
  8 12  1  0  0  0  0
  8 13  1  0  0  0  0
 10 19  1  0  0  0  0
 13 18  1  1  0  0  0
 13  2  1  0  0  0  0
 15 11  1  0  0  0  0
 16 12  1  6  0  0  0
 16  5  1  0  0  0  0
 17 16  1  0  0  0  0
 17  6  1  0  0  0  0
 18 10  1  0  0  0  0
 19 20  1  0  0  0  0
 20 15  2  0  0  0  0
 22 31  1  0  0  0  0
 22 26  1  0  0  0  0
 23 30  1  0  0  0  0
 24 25  2  0  0  0  0
 25 27  1  0  0  0  0
 26 28  1  0  0  0  0
 27 21  1  0  0  0  0
 28 23  1  0  0  0  0
 29 24  1  0  0  0  0
 29 23  2  0  0  0  0
 30 27  2  0  0  0  0
 31 29  1  0  0  0  0
M  END
>  <MODEL>
8

>  <REMARK>
 VINA RESULT:      -9.5      2.686      5.352
  Name = 
  2 active torsions:
  status: ('A' for Active; 'I' for Inactive)
    1  A    between atoms: C_9  and  S_23
    2  A    between atoms: C_15  and  S_23
                            x       y       z     vdW  Elec       q    Type
                         _______ _______ _______ _____ _____    ______ ____

>  <TORSDO>
F 2

$$$$
=
 OpenBabel10272400243D

 31 36  0  0  1  0  0  0  0  0999 V2000
  182.6130  179.0680  141.2430 C   0  0  1  0  0  3  0  0  0  0  0  0
  186.1360  177.9420  142.3960 C   0  0  1  0  0  3  0  0  0  0  0  0
  186.1550  178.2570  143.8810 C   0  0  0  0  0  0  0  0  0  0  0  0
  184.3970  178.8280  145.5280 C   0  0  0  0  0  3  0  0  0  0  0  0
  185.0680  178.6980  141.5850 C   0  0  2  0  0  3  0  0  0  0  0  0
  182.7680  178.7970  139.7500 C   0  0  0  0  0  2  0  0  0  0  0  0
  185.2860  179.3410  144.4470 C   0  0  0  0  0  2  0  0  0  0  0  0
  187.6430  177.9060  140.3390 C   0  0  2  0  0  3  0  0  0  0  0  0
  181.2870  178.6650  141.6740 N   0  0  0  0  0  1  0  0  0  0  0  0
  188.1060  176.7660  143.9550 C   0  0  0  0  0  2  0  0  0  0  0  0
  184.8670  178.3240  146.6670 C   0  0  0  0  0  3  0  0  0  0  0  0
  186.6060  178.7430  139.6000 C   0  0  0  0  0  2  0  0  0  0  0  0
  187.5590  178.1710  141.8450 C   0  0  2  0  0  3  0  0  0  0  0  0
  183.6620  178.2890  142.0320 C   0  0  0  0  0  2  0  0  0  0  0  0
  186.2970  178.1280  146.9720 C   0  0  0  0  0  3  0  0  0  0  0  0
  185.2110  178.3880  140.0860 C   0  0  2  0  0  3  0  0  0  0  0  0
  184.1740  179.1700  139.2870 C   0  0  0  0  0  2  0  0  0  0  0  0
  188.6030  177.3330  142.6140 C   0  0  0  0  0  2  0  0  0  0  0  0
  187.1130  177.6720  144.6280 C   0  0  0  0  0  0  0  0  0  0  0  0
  187.2640  177.8540  146.0890 C   0  0  0  0  0  3  0  0  0  0  0  0
  189.2930  178.3370  139.6960 S   0  0  0  0  0  0  0  0  0  0  0  0
  190.5820  172.7930  135.9530 C   0  0  0  0  0  2  0  0  0  0  0  0
  190.5150  175.2420  137.4470 C   0  0  0  0  0  0  0  0  0  0  0  0
  188.1410  175.4830  137.0480 C   0  0  0  0  0  3  0  0  0  0  0  0
  188.1190  176.5660  137.9270 C   0  0  0  0  0  3  0  0  0  0  0  0
  191.8350  173.6540  136.0110 C   0  0  0  0  0  2  0  0  0  0  0  0
  189.3020  176.9580  138.5580 C   0  0  0  0  0  0  0  0  0  0  0  0
  191.8160  174.5070  137.2780 C   0  0  0  0  0  2  0  0  0  0  0  0
  189.3350  174.7980  136.8120 C   0  0  0  0  0  0  0  0  0  0  0  0
  190.4610  176.2930  138.3080 N   0  0  0  0  0  0  0  0  0  0  0  0
  189.3520  173.6830  135.8040 C   0  0  0  0  0  2  0  0  0  0  0  0
  1  9  1  1  0  0  0
  1 14  1  0  0  0  0
  2  3  1  1  0  0  0
  3  7  1  0  0  0  0
  3 19  2  0  0  0  0
  4 11  2  0  0  0  0
  5 14  1  1  0  0  0
  5  2  1  0  0  0  0
  6  1  1  0  0  0  0
  7  4  1  0  0  0  0
  8 21  1  6  0  0  0
  8 13  1  0  0  0  0
 10 19  1  0  0  0  0
 11 15  1  0  0  0  0
 12 16  1  0  0  0  0
 12  8  1  0  0  0  0
 13  2  1  0  0  0  0
 13 18  1  1  0  0  0
 16 17  1  6  0  0  0
 16  5  1  0  0  0  0
 17  6  1  0  0  0  0
 18 10  1  0  0  0  0
 19 20  1  0  0  0  0
 20 15  2  0  0  0  0
 22 26  1  0  0  0  0
 23 30  1  0  0  0  0
 24 25  2  0  0  0  0
 25 27  1  0  0  0  0
 26 28  1  0  0  0  0
 27 21  1  0  0  0  0
 28 23  1  0  0  0  0
 29 24  1  0  0  0  0
 29 23  2  0  0  0  0
 30 27  2  0  0  0  0
 31 22  1  0  0  0  0
 31 29  1  0  0  0  0
M  END
>  <MODEL>
9

>  <REMARK>
 VINA RESULT:      -9.3      2.762      4.956
  Name = 
  2 active torsions:
  status: ('A' for Active; 'I' for Inactive)
    1  A    between atoms: C_9  and  S_23
    2  A    between atoms: C_15  and  S_23
                            x       y       z     vdW  Elec       q    Type
                         _______ _______ _______ _____ _____    ______ ____

>  <TORSDO>
F 2

$$$$
