=
 OpenBabel10272400343D

 31 34  0  0  1  0  0  0  0  0999 V2000
  185.2160  178.4860  145.6920 C   0  0  0  0  0  0  0  0  0  0  0  0
  187.4030  178.2230  142.6570 C   0  0  0  0  0  0  0  0  0  0  0  0
  188.7910  178.0560  143.2910 C   0  0  1  0  0  3  0  0  0  0  0  0
  190.3270  176.6420  144.5020 C   0  0  0  0  0  2  0  0  0  0  0  0
  186.2550  178.3710  143.4870 C   0  0  0  0  0  0  0  0  0  0  0  0
  183.9620  178.6520  145.1060 C   0  0  0  0  0  3  0  0  0  0  0  0
  188.8550  176.9630  144.3440 C   0  0  0  0  0  2  0  0  0  0  0  0
  185.9550  178.5870  140.7040 C   0  0  0  0  0  0  0  0  0  0  0  0
  185.3440  178.4500  147.1720 C   0  0  0  0  0  1  0  0  0  0  0  0
  189.2760  177.3480  140.2420 C   0  0  0  0  0  2  0  0  0  0  0  0
  191.0210  177.1390  143.2440 C   0  0  2  0  0  3  0  0  0  0  0  0
  184.8390  178.6590  141.5300 C   0  0  0  0  0  3  0  0  0  0  0  0
  187.2360  178.3820  141.2470 C   0  0  0  0  0  0  0  0  0  0  0  0
  186.3510  178.3500  144.8910 C   0  0  0  0  0  3  0  0  0  0  0  0
  191.9240  178.1460  143.5830 O   0  0  0  0  0  1  0  0  0  0  0  0
  184.9780  178.5650  142.9080 C   0  0  0  0  0  0  0  0  0  0  0  0
  183.8430  178.6940  143.7150 C   0  0  0  0  0  3  0  0  0  0  0  0
  188.3250  178.4070  140.3680 O   0  0  0  0  0  0  0  0  0  0  0  0
  189.5180  176.7110  141.4630 O   0  0  0  0  0  0  0  0  0  0  0  0
  189.9360  177.7110  142.3490 C   0  0  1  0  0  3  0  0  0  0  0  0
  185.7520  178.7070  139.2270 C   0  0  0  0  0  2  0  0  0  0  0  0
  183.8080  176.9350  137.8940 C   0  0  0  0  0  1  0  0  0  0  0  0
  184.0500  180.3560  139.0210 O   0  0  0  0  0  0  0  0  0  0  0  0
  184.3500  179.1340  138.9230 C   0  0  0  0  0  0  0  0  0  0  0  0
  183.3560  178.1680  138.5280 N   0  0  0  0  0  0  0  0  0  0  0  0
  181.1980  178.9530  137.7820 C   0  0  0  0  0  2  0  0  0  0  0  0
  181.9400  178.3960  138.7340 C   0  0  0  0  0  0  0  0  0  0  0  0
  179.9820  177.3770  139.8950 C   0  0  0  0  0  1  0  0  0  0  0  0
  181.2760  178.1530  140.0630 C   0  0  2  0  0  3  0  0  0  0  0  0
  181.0340  179.4200  140.8220 C   0  0  0  0  0  3  0  0  0  0  0  0
  180.6170  179.3890  142.0860 C   0  0  0  0  0  2  0  0  0  0  0  0
  1  9  1  0  0  0  0
  2  3  1  0  0  0  0
  2  5  1  0  0  0  0
  3  7  1  1  0  0  0
  5 14  1  0  0  0  0
  6  1  1  0  0  0  0
  7  4  1  0  0  0  0
  8 13  1  0  0  0  0
  8 12  2  0  0  0  0
 10 18  1  0  0  0  0
 10 19  1  0  0  0  0
 11 15  1  1  0  0  0
 11  4  1  0  0  0  0
 12 16  1  0  0  0  0
 13  2  2  0  0  0  0
 14  1  2  0  0  0  0
 16  5  2  0  0  0  0
 16 17  1  0  0  0  0
 17  6  2  0  0  0  0
 18 13  1  0  0  0  0
 20 19  1  6  0  0  0
 20 11  1  0  0  0  0
 20  3  1  0  0  0  0
 21  8  1  0  0  0  0
 22 25  1  0  0  0  0
 24 23  2  0  0  0  0
 24 21  1  0  0  0  0
 25 27  1  0  0  0  0
 25 24  1  0  0  0  0
 26 27  2  0  0  0  0
 27 29  1  0  0  0  0
 29 28  1  6  0  0  0
 29 30  1  0  0  0  0
 30 31  2  0  0  0  0
M  END
>  <MODEL>
1

>  <REMARK>
 VINA RESULT:      -9.0      0.000      0.000
  Name = 
  5 active torsions:
  status: ('A' for Active; 'I' for Inactive)
    1  A    between atoms: C_1  and  C_24
    2  A    between atoms: C_9  and  C_23
    3  A    between atoms: C_15  and  C_23
    4  A    between atoms: C_19  and  N_22
    5  A    between atoms: C_19  and  C_24
                            x       y       z     vdW  Elec       q    Type
                         _______ _______ _______ _____ _____    ______ ____

>  <TORSDO>
F 5

$$$$
=
 OpenBabel10272400343D

 31 34  0  0  1  0  0  0  0  0999 V2000
  185.2400  178.4900  144.7480 C   0  0  0  0  0  0  0  0  0  0  0  0
  188.8020  177.6870  143.8920 C   0  0  0  0  0  0  0  0  0  0  0  0
  189.4490  177.6360  145.2830 C   0  0  1  0  0  3  0  0  0  0  0  0
  189.7020  176.4600  147.3760 C   0  0  0  0  0  2  0  0  0  0  0  0
  187.4150  177.9820  143.7640 C   0  0  0  0  0  0  0  0  0  0  0  0
  184.6660  178.5480  143.4780 C   0  0  0  0  0  3  0  0  0  0  0  0
  188.7090  176.7480  146.2690 C   0  0  0  0  0  2  0  0  0  0  0  0
  188.9640  177.6970  141.4390 C   0  0  0  0  0  0  0  0  0  0  0  0
  184.4010  178.7190  145.9530 C   0  0  0  0  0  1  0  0  0  0  0  0
  191.6620  176.3940  143.3870 C   0  0  0  0  0  2  0  0  0  0  0  0
  191.0850  176.7230  146.8020 C   0  0  2  0  0  3  0  0  0  0  0  0
  187.5940  177.9160  141.3390 C   0  0  0  0  0  3  0  0  0  0  0  0
  189.5810  177.5920  142.6980 C   0  0  0  0  0  0  0  0  0  0  0  0
  186.6010  178.2120  144.8880 C   0  0  0  0  0  3  0  0  0  0  0  0
  191.6800  177.7740  147.4990 O   0  0  0  0  0  1  0  0  0  0  0  0
  186.8220  178.0700  142.4810 C   0  0  0  0  0  0  0  0  0  0  0  0
  185.4570  178.3420  142.3460 C   0  0  0  0  0  3  0  0  0  0  0  0
  190.9750  177.4590  142.7290 O   0  0  0  0  0  0  0  0  0  0  0  0
  191.0050  175.9850  144.5530 O   0  0  0  0  0  0  0  0  0  0  0  0
  190.8820  177.1270  145.3530 C   0  0  1  0  0  3  0  0  0  0  0  0
  189.7530  177.5520  140.1770 C   0  0  0  0  0  2  0  0  0  0  0  0
  188.9420  175.9130  137.8630 C   0  0  0  0  0  1  0  0  0  0  0  0
  188.9000  179.3690  138.9030 O   0  0  0  0  0  0  0  0  0  0  0  0
  188.9950  178.1170  139.0160 C   0  0  0  0  0  0  0  0  0  0  0  0
  188.3820  177.2470  138.0450 N   0  0  0  0  0  0  0  0  0  0  0  0
  187.4160  178.4020  136.1570 C   0  0  0  0  0  2  0  0  0  0  0  0
  187.2440  177.6660  137.2510 C   0  0  0  0  0  0  0  0  0  0  0  0
  184.9240  177.1360  136.5040 C   0  0  0  0  0  1  0  0  0  0  0  0
  185.8260  177.4190  137.6920 C   0  0  2  0  0  3  0  0  0  0  0  0
  185.2770  178.5450  138.5120 C   0  0  0  0  0  3  0  0  0  0  0  0
  184.0120  178.5340  138.9250 C   0  0  0  0  0  2  0  0  0  0  0  0
  1 14  1  0  0  0  0
  1  9  1  0  0  0  0
  2  3  1  0  0  0  0
  3 20  1  0  0  0  0
  3  7  1  1  0  0  0
  5  2  1  0  0  0  0
  5 14  2  0  0  0  0
  6  1  2  0  0  0  0
  7  4  1  0  0  0  0
  8 13  1  0  0  0  0
 10 19  1  0  0  0  0
 11  4  1  0  0  0  0
 11 15  1  1  0  0  0
 12  8  2  0  0  0  0
 12 16  1  0  0  0  0
 13 18  1  0  0  0  0
 13  2  2  0  0  0  0
 16  5  1  0  0  0  0
 17 16  2  0  0  0  0
 17  6  1  0  0  0  0
 18 10  1  0  0  0  0
 20 19  1  6  0  0  0
 20 11  1  0  0  0  0
 21  8  1  0  0  0  0
 22 25  1  0  0  0  0
 23 24  2  0  0  0  0
 24 21  1  0  0  0  0
 25 24  1  0  0  0  0
 26 27  2  0  0  0  0
 27 29  1  0  0  0  0
 27 25  1  0  0  0  0
 29 28  1  6  0  0  0
 29 30  1  0  0  0  0
 30 31  2  0  0  0  0
M  END
>  <MODEL>
2

>  <REMARK>
 VINA RESULT:      -9.0      2.231      3.793
  Name = 
  5 active torsions:
  status: ('A' for Active; 'I' for Inactive)
    1  A    between atoms: C_1  and  C_24
    2  A    between atoms: C_9  and  C_23
    3  A    between atoms: C_15  and  C_23
    4  A    between atoms: C_19  and  N_22
    5  A    between atoms: C_19  and  C_24
                            x       y       z     vdW  Elec       q    Type
                         _______ _______ _______ _____ _____    ______ ____

>  <TORSDO>
F 5

$$$$
=
 OpenBabel10272400343D

 31 34  0  0  1  0  0  0  0  0999 V2000
  184.5980  178.8800  139.4340 C   0  0  0  0  0  0  0  0  0  0  0  0
  187.9690  177.4740  138.5850 C   0  0  0  0  0  0  0  0  0  0  0  0
  187.7640  177.0430  137.1260 C   0  0  1  0  0  3  0  0  0  0  0  0
  187.4740  177.7010  134.8210 C   0  0  0  0  0  2  0  0  0  0  0  0
  186.8950  178.0660  139.3080 C   0  0  0  0  0  0  0  0  0  0  0  0
  184.7910  179.2560  140.7640 C   0  0  0  0  0  3  0  0  0  0  0  0
  187.1730  178.1290  136.2430 C   0  0  0  0  0  2  0  0  0  0  0  0
  189.3040  177.5320  140.6480 C   0  0  0  0  0  0  0  0  0  0  0  0
  183.2840  179.1130  138.7810 C   0  0  0  0  0  1  0  0  0  0  0  0
  190.9020  176.8560  137.5230 C   0  0  0  0  0  2  0  0  0  0  0  0
  188.6240  176.7080  134.8980 C   0  0  2  0  0  3  0  0  0  0  0  0
  188.2660  178.1720  141.3150 C   0  0  0  0  0  3  0  0  0  0  0  0
  189.1700  177.1690  139.2960 C   0  0  0  0  0  0  0  0  0  0  0  0
  185.6390  178.2890  138.7160 C   0  0  0  0  0  3  0  0  0  0  0  0
  188.1910  175.4660  134.4350 O   0  0  0  0  0  1  0  0  0  0  0  0
  187.0670  178.4310  140.6660 C   0  0  0  0  0  0  0  0  0  0  0  0
  186.0230  179.0280  141.3790 C   0  0  0  0  0  3  0  0  0  0  0  0
  190.2190  176.4500  138.7100 O   0  0  0  0  0  0  0  0  0  0  0  0
  190.0470  177.4960  136.6180 O   0  0  0  0  0  0  0  0  0  0  0  0
  189.0040  176.5990  136.3630 C   0  0  1  0  0  3  0  0  0  0  0  0
  190.5700  177.2650  141.3980 C   0  0  0  0  0  2  0  0  0  0  0  0
  190.9430  178.9690  143.7760 C   0  0  0  0  0  1  0  0  0  0  0  0
  190.0740  175.5580  142.9770 O   0  0  0  0  0  0  0  0  0  0  0  0
  190.2690  176.7890  142.7850 C   0  0  0  0  0  0  0  0  0  0  0  0
  190.1990  177.7190  143.8830 N   0  0  0  0  0  0  0  0  0  0  0  0
  188.1040  177.2970  145.0070 C   0  0  0  0  0  2  0  0  0  0  0  0
  189.4240  177.4410  145.0750 C   0  0  0  0  0  0  0  0  0  0  0  0
  191.2170  176.4870  146.5240 C   0  0  0  0  0  1  0  0  0  0  0  0
  190.0400  177.4440  146.4490 C   0  0  2  0  0  3  0  0  0  0  0  0
  189.0440  177.1370  147.5230 C   0  0  0  0  0  3  0  0  0  0  0  0
  188.7790  178.0230  148.4810 C   0  0  0  0  0  2  0  0  0  0  0  0
  1  6  1  0  0  0  0
  2 13  2  0  0  0  0
  2  5  1  0  0  0  0
  3  7  1  6  0  0  0
  3  2  1  0  0  0  0
  4 11  1  0  0  0  0
  4  7  1  0  0  0  0
  5 16  2  0  0  0  0
  6 17  2  0  0  0  0
  8 12  2  0  0  0  0
  8 21  1  0  0  0  0
  9  1  1  0  0  0  0
 10 18  1  0  0  0  0
 11 15  1  1  0  0  0
 11 20  1  0  0  0  0
 13  8  1  0  0  0  0
 14  5  1  0  0  0  0
 14  1  2  0  0  0  0
 16 12  1  0  0  0  0
 16 17  1  0  0  0  0
 18 13  1  0  0  0  0
 19 10  1  0  0  0  0
 20 19  1  6  0  0  0
 20  3  1  0  0  0  0
 21 24  1  0  0  0  0
 22 25  1  0  0  0  0
 24 23  2  0  0  0  0
 24 25  1  0  0  0  0
 25 27  1  0  0  0  0
 26 27  2  0  0  0  0
 27 29  1  0  0  0  0
 29 28  1  6  0  0  0
 29 30  1  0  0  0  0
 30 31  2  0  0  0  0
M  END
>  <MODEL>
3

>  <REMARK>
 VINA RESULT:      -8.5      3.135      7.569
  Name = 
  5 active torsions:
  status: ('A' for Active; 'I' for Inactive)
    1  A    between atoms: C_1  and  C_24
    2  A    between atoms: C_9  and  C_23
    3  A    between atoms: C_15  and  C_23
    4  A    between atoms: C_19  and  N_22
    5  A    between atoms: C_19  and  C_24
                            x       y       z     vdW  Elec       q    Type
                         _______ _______ _______ _____ _____    ______ ____

>  <TORSDO>
F 5

$$$$
=
 OpenBabel10272400343D

 31 34  0  0  1  0  0  0  0  0999 V2000
  189.0380  177.1650  146.3730 C   0  0  0  0  0  0  0  0  0  0  0  0
  187.0820  178.0300  143.2920 C   0  0  0  0  0  0  0  0  0  0  0  0
  185.6500  178.0810  143.8420 C   0  0  1  0  0  3  0  0  0  0  0  0
  184.0180  179.2460  145.1870 C   0  0  0  0  0  2  0  0  0  0  0  0
  188.1660  177.7140  144.1610 C   0  0  0  0  0  0  0  0  0  0  0  0
  190.3340  177.1070  145.8600 C   0  0  0  0  0  3  0  0  0  0  0  0
  185.5000  178.9500  145.0790 C   0  0  0  0  0  2  0  0  0  0  0  0
  188.6740  178.0410  141.4190 C   0  0  0  0  0  0  0  0  0  0  0  0
  188.8000  176.9140  147.8180 C   0  0  0  0  0  1  0  0  0  0  0  0
  185.3890  179.3720  140.9600 C   0  0  0  0  0  2  0  0  0  0  0  0
  183.4230  179.0080  143.8070 C   0  0  2  0  0  3  0  0  0  0  0  0
  189.7260  177.8010  142.2970 C   0  0  0  0  0  3  0  0  0  0  0  0
  187.3550  178.1460  141.8950 C   0  0  0  0  0  0  0  0  0  0  0  0
  187.9660  177.4630  145.5310 C   0  0  0  0  0  3  0  0  0  0  0  0
  182.5050  177.9610  143.8760 O   0  0  0  0  0  1  0  0  0  0  0  0
  189.4840  177.6260  143.6520 C   0  0  0  0  0  0  0  0  0  0  0  0
  190.5560  177.3340  144.5010 C   0  0  0  0  0  3  0  0  0  0  0  0
  186.3340  178.3010  140.9490 O   0  0  0  0  0  0  0  0  0  0  0  0
  185.0510  179.7610  142.2610 O   0  0  0  0  0  0  0  0  0  0  0  0
  184.5760  178.6110  142.9020 C   0  0  1  0  0  3  0  0  0  0  0  0
  188.9880  178.2080  139.9660 C   0  0  0  0  0  2  0  0  0  0  0  0
  187.7290  176.8620  137.6640 C   0  0  0  0  0  1  0  0  0  0  0  0
  190.3780  176.2800  140.0450 O   0  0  0  0  0  0  0  0  0  0  0  0
  189.5160  176.9300  139.3930 C   0  0  0  0  0  0  0  0  0  0  0  0
  189.0530  176.4500  138.1160 N   0  0  0  0  0  0  0  0  0  0  0  0
  189.6200  174.2650  137.2590 C   0  0  0  0  0  2  0  0  0  0  0  0
  189.8570  175.5730  137.2890 C   0  0  0  0  0  0  0  0  0  0  0  0
  191.0160  175.6660  135.0820 C   0  0  0  0  0  1  0  0  0  0  0  0
  191.0700  176.0640  136.5460 C   0  0  2  0  0  3  0  0  0  0  0  0
  192.3500  175.5990  137.1690 C   0  0  0  0  0  3  0  0  0  0  0  0
  193.0830  176.4220  137.9160 C   0  0  0  0  0  2  0  0  0  0  0  0
  1  9  1  0  0  0  0
  2  3  1  0  0  0  0
  2  5  1  0  0  0  0
  3  7  1  1  0  0  0
  5 14  1  0  0  0  0
  6  1  1  0  0  0  0
  7  4  1  0  0  0  0
  8 13  1  0  0  0  0
  8 12  2  0  0  0  0
 10 19  1  0  0  0  0
 11 15  1  1  0  0  0
 11  4  1  0  0  0  0
 12 16  1  0  0  0  0
 13  2  2  0  0  0  0
 14  1  2  0  0  0  0
 16  5  2  0  0  0  0
 16 17  1  0  0  0  0
 17  6  2  0  0  0  0
 18 10  1  0  0  0  0
 18 13  1  0  0  0  0
 20 19  1  1  0  0  0
 20 11  1  0  0  0  0
 20  3  1  0  0  0  0
 21  8  1  0  0  0  0
 22 25  1  0  0  0  0
 24 21  1  0  0  0  0
 24 23  2  0  0  0  0
 25 24  1  0  0  0  0
 26 27  2  0  0  0  0
 27 25  1  0  0  0  0
 29 28  1  6  0  0  0
 29 30  1  0  0  0  0
 29 27  1  0  0  0  0
 30 31  2  0  0  0  0
M  END
>  <MODEL>
4

>  <REMARK>
 VINA RESULT:      -8.4      2.848      6.744
  Name = 
  5 active torsions:
  status: ('A' for Active; 'I' for Inactive)
    1  A    between atoms: C_1  and  C_24
    2  A    between atoms: C_9  and  C_23
    3  A    between atoms: C_15  and  C_23
    4  A    between atoms: C_19  and  N_22
    5  A    between atoms: C_19  and  C_24
                            x       y       z     vdW  Elec       q    Type
                         _______ _______ _______ _____ _____    ______ ____

>  <TORSDO>
F 5

$$$$
=
 OpenBabel10272400343D

 31 34  0  0  1  0  0  0  0  0999 V2000
  184.9550  178.4800  145.1310 C   0  0  0  0  0  0  0  0  0  0  0  0
  186.9550  178.2790  141.9650 C   0  0  0  0  0  0  0  0  0  0  0  0
  188.3680  178.0290  142.5100 C   0  0  1  0  0  3  0  0  0  0  0  0
  189.9120  176.5010  143.5650 C   0  0  0  0  0  2  0  0  0  0  0  0
  185.8630  178.4310  142.8660 C   0  0  0  0  0  0  0  0  0  0  0  0
  183.6770  178.7210  144.6260 C   0  0  0  0  0  3  0  0  0  0  0  0
  188.4470  176.8860  143.5070 C   0  0  0  0  0  2  0  0  0  0  0  0
  185.4160  178.7890  140.1180 C   0  0  0  0  0  0  0  0  0  0  0  0
  185.1640  178.3690  146.5980 C   0  0  0  0  0  1  0  0  0  0  0  0
  188.6530  177.4490  139.4080 C   0  0  0  0  0  2  0  0  0  0  0  0
  190.5530  177.0310  142.2920 C   0  0  2  0  0  3  0  0  0  0  0  0
  184.3520  178.8650  141.0100 C   0  0  0  0  0  3  0  0  0  0  0  0
  186.7160  178.5110  140.5760 C   0  0  0  0  0  0  0  0  0  0  0  0
  186.0360  178.3390  144.2590 C   0  0  0  0  0  3  0  0  0  0  0  0
  191.5140  177.9860  142.6230 O   0  0  0  0  0  1  0  0  0  0  0  0
  184.5640  178.7000  142.3710 C   0  0  0  0  0  0  0  0  0  0  0  0
  183.4830  178.8340  143.2480 C   0  0  0  0  0  3  0  0  0  0  0  0
  187.7550  178.5360  139.6370 O   0  0  0  0  0  0  0  0  0  0  0  0
  188.9370  176.7460  140.5840 O   0  0  0  0  0  0  0  0  0  0  0  0
  189.4440  177.6860  141.4890 C   0  0  1  0  0  3  0  0  0  0  0  0
  185.1360  178.9880  138.6620 C   0  0  0  0  0  2  0  0  0  0  0  0
  186.4890  178.1100  136.1930 C   0  0  0  0  0  1  0  0  0  0  0  0
  183.8170  177.0310  138.3670 O   0  0  0  0  0  0  0  0  0  0  0  0
  184.8360  177.6780  138.0020 C   0  0  0  0  0  0  0  0  0  0  0  0
  185.6970  177.1620  136.9690 N   0  0  0  0  0  0  0  0  0  0  0  0
  184.8900  175.1560  135.8950 C   0  0  0  0  0  2  0  0  0  0  0  0
  185.7860  175.7450  136.6810 C   0  0  0  0  0  0  0  0  0  0  0  0
  188.1660  174.9990  136.7320 C   0  0  0  0  0  1  0  0  0  0  0  0
  186.7910  174.8520  137.3580 C   0  0  2  0  0  3  0  0  0  0  0  0
  186.3670  173.4160  137.3640 C   0  0  0  0  0  3  0  0  0  0  0  0
  187.1980  172.4570  136.9590 C   0  0  0  0  0  2  0  0  0  0  0  0
  1  9  1  0  0  0  0
  2  3  1  0  0  0  0
  2  5  1  0  0  0  0
  3  7  1  1  0  0  0
  5 14  1  0  0  0  0
  6  1  1  0  0  0  0
  7  4  1  0  0  0  0
  8 13  1  0  0  0  0
  8 12  2  0  0  0  0
 10 18  1  0  0  0  0
 10 19  1  0  0  0  0
 11 15  1  1  0  0  0
 11  4  1  0  0  0  0
 12 16  1  0  0  0  0
 13  2  2  0  0  0  0
 14  1  2  0  0  0  0
 16  5  2  0  0  0  0
 16 17  1  0  0  0  0
 17  6  2  0  0  0  0
 18 13  1  0  0  0  0
 20 19  1  6  0  0  0
 20 11  1  0  0  0  0
 20  3  1  0  0  0  0
 21  8  1  0  0  0  0
 22 25  1  0  0  0  0
 24 23  2  0  0  0  0
 24 21  1  0  0  0  0
 25 24  1  0  0  0  0
 26 27  2  0  0  0  0
 27 25  1  0  0  0  0
 27 29  1  0  0  0  0
 29 28  1  6  0  0  0
 29 30  1  0  0  0  0
 31 30  2  0  0  0  0
M  END
>  <MODEL>
5

>  <REMARK>
 VINA RESULT:      -8.4      2.173      3.740
  Name = 
  5 active torsions:
  status: ('A' for Active; 'I' for Inactive)
    1  A    between atoms: C_1  and  C_24
    2  A    between atoms: C_9  and  C_23
    3  A    between atoms: C_15  and  C_23
    4  A    between atoms: C_19  and  N_22
    5  A    between atoms: C_19  and  C_24
                            x       y       z     vdW  Elec       q    Type
                         _______ _______ _______ _____ _____    ______ ____

>  <TORSDO>
F 5

$$$$
=
 OpenBabel10272400343D

 31 34  0  0  1  0  0  0  0  0999 V2000
  182.3750  178.7920  143.8600 C   0  0  0  0  0  0  0  0  0  0  0  0
  184.8170  178.3340  141.0510 C   0  0  0  0  0  0  0  0  0  0  0  0
  183.8770  178.0820  139.8640 C   0  0  1  0  0  3  0  0  0  0  0  0
  182.2710  178.9830  138.3020 C   0  0  0  0  0  2  0  0  0  0  0  0
  184.2780  178.5530  142.3510 C   0  0  0  0  0  0  0  0  0  0  0  0
  183.2390  179.0060  144.9350 C   0  0  0  0  0  3  0  0  0  0  0  0
  182.7760  179.1210  139.7240 C   0  0  0  0  0  2  0  0  0  0  0  0
  187.0650  178.3970  142.0450 C   0  0  0  0  0  0  0  0  0  0  0  0
  180.9050  178.8110  144.0760 C   0  0  0  0  0  1  0  0  0  0  0  0
  186.6920  178.5640  138.4940 C   0  0  0  0  0  2  0  0  0  0  0  0
  183.3660  178.2800  137.5150 C   0  0  2  0  0  3  0  0  0  0  0  0
  186.5170  178.6780  143.2920 C   0  0  0  0  0  3  0  0  0  0  0  0
  186.2350  178.2120  140.9250 C   0  0  0  0  0  0  0  0  0  0  0  0
  182.8900  178.5660  142.5830 C   0  0  0  0  0  3  0  0  0  0  0  0
  182.8890  177.0520  137.0590 O   0  0  0  0  0  1  0  0  0  0  0  0
  185.1410  178.7470  143.4560 C   0  0  0  0  0  0  0  0  0  0  0  0
  184.6200  178.9800  144.7330 C   0  0  0  0  0  3  0  0  0  0  0  0
  186.8450  177.8440  139.7190 O   0  0  0  0  0  0  0  0  0  0  0  0
  185.4130  179.1150  138.3640 O   0  0  0  0  0  0  0  0  0  0  0  0
  184.5140  178.0500  138.4820 C   0  0  1  0  0  3  0  0  0  0  0  0
  188.5530  178.3210  141.9250 C   0  0  0  0  0  2  0  0  0  0  0  0
  190.7220  179.2020  143.7190 C   0  0  0  0  0  1  0  0  0  0  0  0
  188.8390  176.2110  142.9850 O   0  0  0  0  0  0  0  0  0  0  0  0
  189.1220  177.4400  142.9940 C   0  0  0  0  0  0  0  0  0  0  0  0
  189.9760  177.9850  144.0190 N   0  0  0  0  0  0  0  0  0  0  0  0
  189.1240  177.4060  146.2020 C   0  0  0  0  0  2  0  0  0  0  0  0
  190.1140  177.3550  145.3160 C   0  0  0  0  0  0  0  0  0  0  0  0
  191.8720  175.6530  144.8300 C   0  0  0  0  0  1  0  0  0  0  0  0
  191.4120  176.7470  145.7770 C   0  0  2  0  0  3  0  0  0  0  0  0
  191.3360  176.2300  147.1790 C   0  0  0  0  0  3  0  0  0  0  0  0
  192.4180  175.7530  147.7910 C   0  0  0  0  0  2  0  0  0  0  0  0
  1  9  1  0  0  0  0
  1  6  1  0  0  0  0
  2  5  1  0  0  0  0
  3  7  1  6  0  0  0
  3  2  1  0  0  0  0
  4  7  1  0  0  0  0
  5 14  1  0  0  0  0
  5 16  2  0  0  0  0
  8 12  2  0  0  0  0
 10 18  1  0  0  0  0
 11 15  1  1  0  0  0
 11  4  1  0  0  0  0
 11 20  1  0  0  0  0
 12 16  1  0  0  0  0
 13  2  2  0  0  0  0
 13  8  1  0  0  0  0
 14  1  2  0  0  0  0
 16 17  1  0  0  0  0
 17  6  2  0  0  0  0
 18 13  1  0  0  0  0
 19 10  1  0  0  0  0
 20 19  1  1  0  0  0
 20  3  1  0  0  0  0
 21  8  1  0  0  0  0
 21 24  1  0  0  0  0
 22 25  1  0  0  0  0
 23 24  2  0  0  0  0
 24 25  1  0  0  0  0
 25 27  1  0  0  0  0
 27 29  1  0  0  0  0
 27 26  2  0  0  0  0
 29 28  1  6  0  0  0
 29 30  1  0  0  0  0
 30 31  2  0  0  0  0
M  END
>  <MODEL>
6

>  <REMARK>
 VINA RESULT:      -8.3      2.308      7.560
  Name = 
  5 active torsions:
  status: ('A' for Active; 'I' for Inactive)
    1  A    between atoms: C_1  and  C_24
    2  A    between atoms: C_9  and  C_23
    3  A    between atoms: C_15  and  C_23
    4  A    between atoms: C_19  and  N_22
    5  A    between atoms: C_19  and  C_24
                            x       y       z     vdW  Elec       q    Type
                         _______ _______ _______ _____ _____    ______ ____

>  <TORSDO>
F 5

$$$$
=
 OpenBabel10272400343D

 31 34  0  0  1  0  0  0  0  0999 V2000
  186.7390  177.9410  146.3940 C   0  0  0  0  0  0  0  0  0  0  0  0
  187.4260  178.1580  142.7140 C   0  0  0  0  0  0  0  0  0  0  0  0
  188.9180  177.8030  142.6580 C   0  0  1  0  0  3  0  0  0  0  0  0
  190.6240  176.1060  142.8610 C   0  0  0  0  0  2  0  0  0  0  0  0
  186.7520  178.2010  143.9680 C   0  0  0  0  0  0  0  0  0  0  0  0
  185.3860  178.2790  146.4350 C   0  0  0  0  0  3  0  0  0  0  0  0
  189.2720  176.5250  143.4010 C   0  0  0  0  0  2  0  0  0  0  0  0
  185.3610  178.9630  141.6510 C   0  0  0  0  0  0  0  0  0  0  0  0
  187.4600  177.6130  147.6520 C   0  0  0  0  0  1  0  0  0  0  0  0
  188.0090  177.6720  139.6260 C   0  0  0  0  0  2  0  0  0  0  0  0
  190.7940  176.8010  141.5200 C   0  0  2  0  0  3  0  0  0  0  0  0
  184.7050  178.9310  142.8760 C   0  0  0  0  0  3  0  0  0  0  0  0
  186.7150  178.5940  141.5540 C   0  0  0  0  0  0  0  0  0  0  0  0
  187.4140  177.9050  145.1730 C   0  0  0  0  0  3  0  0  0  0  0  0
  191.8760  177.6770  141.5890 O   0  0  0  0  0  1  0  0  0  0  0  0
  185.3860  178.5660  144.0290 C   0  0  0  0  0  0  0  0  0  0  0  0
  184.7110  178.5940  145.2540 C   0  0  0  0  0  3  0  0  0  0  0  0
  187.3380  178.7330  140.3080 O   0  0  0  0  0  0  0  0  0  0  0  0
  188.6500  176.8000  140.5130 O   0  0  0  0  0  0  0  0  0  0  0  0
  189.5200  177.5890  141.2760 C   0  0  1  0  0  3  0  0  0  0  0  0
  184.5840  179.3760  140.4410 C   0  0  0  0  0  2  0  0  0  0  0  0
  182.3950  179.8550  138.5250 C   0  0  0  0  0  1  0  0  0  0  0  0
  183.5550  177.2540  140.7430 O   0  0  0  0  0  0  0  0  0  0  0  0
  183.6010  178.3140  140.0600 C   0  0  0  0  0  0  0  0  0  0  0  0
  182.7250  178.4940  138.9310 N   0  0  0  0  0  0  0  0  0  0  0  0
  180.9160  176.9760  138.4290 C   0  0  0  0  0  2  0  0  0  0  0  0
  182.1660  177.3700  138.2070 C   0  0  0  0  0  0  0  0  0  0  0  0
  183.3930  175.2110  137.9620 C   0  0  0  0  0  1  0  0  0  0  0  0
  182.9980  176.5140  137.2900 C   0  0  2  0  0  3  0  0  0  0  0  0
  184.2100  177.2310  136.7820 C   0  0  0  0  0  3  0  0  0  0  0  0
  185.4310  176.7430  136.9920 C   0  0  0  0  0  2  0  0  0  0  0  0
  1  6  1  0  0  0  0
  1  9  1  0  0  0  0
  2  5  1  0  0  0  0
  3  2  1  0  0  0  0
  3  7  1  1  0  0  0
  4  7  1  0  0  0  0
  5 16  2  0  0  0  0
  5 14  1  0  0  0  0
  8 12  2  0  0  0  0
 10 18  1  0  0  0  0
 10 19  1  0  0  0  0
 11 15  1  1  0  0  0
 11  4  1  0  0  0  0
 12 16  1  0  0  0  0
 13  8  1  0  0  0  0
 13  2  2  0  0  0  0
 14  1  2  0  0  0  0
 16 17  1  0  0  0  0
 17  6  2  0  0  0  0
 18 13  1  0  0  0  0
 20 19  1  6  0  0  0
 20 11  1  0  0  0  0
 20  3  1  0  0  0  0
 21  8  1  0  0  0  0
 22 25  1  0  0  0  0
 24 21  1  0  0  0  0
 24 23  2  0  0  0  0
 25 24  1  0  0  0  0
 27 26  2  0  0  0  0
 27 25  1  0  0  0  0
 29 28  1  1  0  0  0
 29 27  1  0  0  0  0
 30 31  2  0  0  0  0
 30 29  1  0  0  0  0
M  END
>  <MODEL>
7

>  <REMARK>
 VINA RESULT:      -8.2      1.557      2.525
  Name = 
  5 active torsions:
  status: ('A' for Active; 'I' for Inactive)
    1  A    between atoms: C_1  and  C_24
    2  A    between atoms: C_9  and  C_23
    3  A    between atoms: C_15  and  C_23
    4  A    between atoms: C_19  and  N_22
    5  A    between atoms: C_19  and  C_24
                            x       y       z     vdW  Elec       q    Type
                         _______ _______ _______ _____ _____    ______ ____

>  <TORSDO>
F 5

$$$$
=
 OpenBabel10272400343D

 31 34  0  0  1  0  0  0  0  0999 V2000
  188.9840  177.0140  146.4220 C   0  0  0  0  0  0  0  0  0  0  0  0
  187.1060  178.0380  143.3420 C   0  0  0  0  0  0  0  0  0  0  0  0
  185.6620  178.0770  143.8600 C   0  0  1  0  0  3  0  0  0  0  0  0
  184.0090  179.1930  145.2210 C   0  0  0  0  0  2  0  0  0  0  0  0
  188.1670  177.6730  144.2190 C   0  0  0  0  0  0  0  0  0  0  0  0
  190.2910  176.9680  145.9370 C   0  0  0  0  0  3  0  0  0  0  0  0
  185.4910  178.8890  145.1330 C   0  0  0  0  0  2  0  0  0  0  0  0
  188.7410  178.1210  141.5070 C   0  0  0  0  0  0  0  0  0  0  0  0
  188.7110  176.6990  147.8490 C   0  0  0  0  0  1  0  0  0  0  0  0
  185.4770  179.5020  141.0370 C   0  0  0  0  0  2  0  0  0  0  0  0
  183.4440  179.0250  143.8190 C   0  0  2  0  0  3  0  0  0  0  0  0
  189.7700  177.8310  142.3960 C   0  0  0  0  0  3  0  0  0  0  0  0
  187.4120  178.2170  141.9570 C   0  0  0  0  0  0  0  0  0  0  0  0
  187.9330  177.3610  145.5710 C   0  0  0  0  0  3  0  0  0  0  0  0
  182.5160  177.9840  143.8190 O   0  0  0  0  0  1  0  0  0  0  0  0
  189.4950  177.5970  143.7360 C   0  0  0  0  0  0  0  0  0  0  0  0
  190.5460  177.2560  144.5950 C   0  0  0  0  0  3  0  0  0  0  0  0
  186.4140  178.4240  140.9970 O   0  0  0  0  0  0  0  0  0  0  0  0
  185.1130  179.8340  142.3460 O   0  0  0  0  0  0  0  0  0  0  0  0
  184.6140  178.6600  142.9230 C   0  0  1  0  0  3  0  0  0  0  0  0
  189.0890  178.3520  140.0710 C   0  0  0  0  0  2  0  0  0  0  0  0
  187.4470  177.4360  137.8000 C   0  0  0  0  0  1  0  0  0  0  0  0
  190.1070  176.2090  139.9090 O   0  0  0  0  0  0  0  0  0  0  0  0
  189.3340  177.0510  139.3740 C   0  0  0  0  0  0  0  0  0  0  0  0
  188.7020  176.7620  138.1120 N   0  0  0  0  0  0  0  0  0  0  0  0
  189.9650  176.2580  136.1170 C   0  0  0  0  0  2  0  0  0  0  0  0
  189.2720  175.8250  137.1660 C   0  0  0  0  0  0  0  0  0  0  0  0
  190.2210  173.5390  136.8510 C   0  0  0  0  0  1  0  0  0  0  0  0
  188.9950  174.3470  137.2370 C   0  0  2  0  0  3  0  0  0  0  0  0
  187.8180  173.9450  136.4050 C   0  0  0  0  0  3  0  0  0  0  0  0
  186.6430  173.6760  136.9690 C   0  0  0  0  0  2  0  0  0  0  0  0
  1  9  1  0  0  0  0
  2  3  1  0  0  0  0
  2  5  1  0  0  0  0
  3  7  1  1  0  0  0
  5 14  1  0  0  0  0
  6  1  1  0  0  0  0
  7  4  1  0  0  0  0
  8 13  1  0  0  0  0
  8 12  2  0  0  0  0
 10 19  1  0  0  0  0
 11 15  1  1  0  0  0
 11  4  1  0  0  0  0
 12 16  1  0  0  0  0
 13  2  2  0  0  0  0
 14  1  2  0  0  0  0
 16  5  2  0  0  0  0
 16 17  1  0  0  0  0
 17  6  2  0  0  0  0
 18 10  1  0  0  0  0
 18 13  1  0  0  0  0
 20 19  1  1  0  0  0
 20 11  1  0  0  0  0
 20  3  1  0  0  0  0
 21  8  1  0  0  0  0
 22 25  1  0  0  0  0
 24 23  2  0  0  0  0
 24 21  1  0  0  0  0
 25 24  1  0  0  0  0
 26 27  2  0  0  0  0
 27 29  1  0  0  0  0
 27 25  1  0  0  0  0
 29 28  1  6  0  0  0
 30 31  2  0  0  0  0
 30 29  1  0  0  0  0
M  END
>  <MODEL>
8

>  <REMARK>
 VINA RESULT:      -8.1      2.795      6.187
  Name = 
  5 active torsions:
  status: ('A' for Active; 'I' for Inactive)
    1  A    between atoms: C_1  and  C_24
    2  A    between atoms: C_9  and  C_23
    3  A    between atoms: C_15  and  C_23
    4  A    between atoms: C_19  and  N_22
    5  A    between atoms: C_19  and  C_24
                            x       y       z     vdW  Elec       q    Type
                         _______ _______ _______ _____ _____    ______ ____

>  <TORSDO>
F 5

$$$$
=
 OpenBabel10272400343D

 31 34  0  0  1  0  0  0  0  0999 V2000
  184.8380  178.5520  145.3200 C   0  0  0  0  0  0  0  0  0  0  0  0
  186.9350  178.3350  142.2180 C   0  0  0  0  0  0  0  0  0  0  0  0
  188.3330  178.1040  142.8070 C   0  0  1  0  0  3  0  0  0  0  0  0
  189.8570  176.6010  143.9250 C   0  0  0  0  0  2  0  0  0  0  0  0
  185.8150  178.4860  143.0840 C   0  0  0  0  0  0  0  0  0  0  0  0
  183.5740  178.7760  144.7740 C   0  0  0  0  0  3  0  0  0  0  0  0
  188.3920  176.9720  143.8190 C   0  0  0  0  0  2  0  0  0  0  0  0
  185.4480  178.8120  140.3190 C   0  0  0  0  0  0  0  0  0  0  0  0
  185.0040  178.4580  146.7930 C   0  0  0  0  0  1  0  0  0  0  0  0
  188.7160  177.4930  139.7230 C   0  0  0  0  0  2  0  0  0  0  0  0
  190.5320  177.1230  142.6660 C   0  0  2  0  0  3  0  0  0  0  0  0
  184.3570  178.8870  141.1780 C   0  0  0  0  0  3  0  0  0  0  0  0
  186.7360  178.5500  140.8190 C   0  0  0  0  0  0  0  0  0  0  0  0
  185.9470  178.4120  144.4830 C   0  0  0  0  0  3  0  0  0  0  0  0
  191.4740  178.0900  143.0160 O   0  0  0  0  0  1  0  0  0  0  0  0
  184.5290  178.7390  142.5470 C   0  0  0  0  0  0  0  0  0  0  0  0
  183.4200  178.8720  143.3900 C   0  0  0  0  0  3  0  0  0  0  0  0
  187.8020  178.5740  139.9120 O   0  0  0  0  0  0  0  0  0  0  0  0
  188.9710  176.8050  140.9140 O   0  0  0  0  0  0  0  0  0  0  0  0
  189.4420  177.7600  141.8230 C   0  0  1  0  0  3  0  0  0  0  0  0
  185.2090  178.9920  138.8540 C   0  0  0  0  0  2  0  0  0  0  0  0
  184.9140  176.4590  137.3740 C   0  0  0  0  0  1  0  0  0  0  0  0
  182.8570  179.1760  138.5630 O   0  0  0  0  0  0  0  0  0  0  0  0
  183.8750  178.4370  138.4670 C   0  0  0  0  0  0  0  0  0  0  0  0
  183.7500  177.0810  137.9950 N   0  0  0  0  0  0  0  0  0  0  0  0
  182.1600  175.7900  139.2720 C   0  0  0  0  0  2  0  0  0  0  0  0
  182.5120  176.3380  138.1140 C   0  0  0  0  0  0  0  0  0  0  0  0
  182.0120  174.6910  136.3090 C   0  0  0  0  0  1  0  0  0  0  0  0
  181.6460  176.0300  136.9220 C   0  0  2  0  0  3  0  0  0  0  0  0
  181.6910  177.1110  135.8870 C   0  0  0  0  0  3  0  0  0  0  0  0
  180.8320  178.1280  135.9250 C   0  0  0  0  0  2  0  0  0  0  0  0
  1  9  1  0  0  0  0
  2  3  1  0  0  0  0
  2  5  1  0  0  0  0
  3  7  1  1  0  0  0
  5 14  1  0  0  0  0
  6  1  1  0  0  0  0
  7  4  1  0  0  0  0
  8 13  1  0  0  0  0
  8 12  2  0  0  0  0
 10 18  1  0  0  0  0
 10 19  1  0  0  0  0
 11 15  1  1  0  0  0
 11  4  1  0  0  0  0
 12 16  1  0  0  0  0
 13  2  2  0  0  0  0
 14  1  2  0  0  0  0
 16  5  2  0  0  0  0
 16 17  1  0  0  0  0
 17  6  2  0  0  0  0
 18 13  1  0  0  0  0
 20 19  1  6  0  0  0
 20 11  1  0  0  0  0
 20  3  1  0  0  0  0
 21  8  1  0  0  0  0
 22 25  1  0  0  0  0
 24 23  2  0  0  0  0
 24 21  1  0  0  0  0
 25 27  1  0  0  0  0
 25 24  1  0  0  0  0
 27 26  2  0  0  0  0
 29 28  1  6  0  0  0
 29 27  1  0  0  0  0
 30 31  2  0  0  0  0
 30 29  1  0  0  0  0
M  END
>  <MODEL>
9

>  <REMARK>
 VINA RESULT:      -8.1      1.396      2.149
  Name = 
  5 active torsions:
  status: ('A' for Active; 'I' for Inactive)
    1  A    between atoms: C_1  and  C_24
    2  A    between atoms: C_9  and  C_23
    3  A    between atoms: C_15  and  C_23
    4  A    between atoms: C_19  and  N_22
    5  A    between atoms: C_19  and  C_24
                            x       y       z     vdW  Elec       q    Type
                         _______ _______ _______ _____ _____    ______ ____

>  <TORSDO>
F 5

$$$$
