=
 OpenBabel10262423563D

 34 38  0  0  1  0  0  0  0  0999 V2000
  190.8980  176.3410  136.6520 C   0  0  0  0  0  0  0  0  0  0  0  0
  193.0940  176.2610  137.7320 C   0  0  0  0  0  0  0  0  0  0  0  0
  190.8930  176.5550  139.1250 C   0  0  2  0  0  3  0  0  0  0  0  0
  190.9010  177.2510  141.3830 C   0  0  1  0  0  3  0  0  0  0  0  0
  193.0240  175.9520  135.3230 C   0  0  0  0  0  3  0  0  0  0  0  0
  193.7370  175.9740  136.4470 C   0  0  0  0  0  3  0  0  0  0  0  0
  191.6220  176.4430  137.7940 C   0  0  0  0  0  0  0  0  0  0  0  0
  191.5540  176.2670  135.2930 C   0  0  0  0  0  2  0  0  0  0  0  0
  189.5390  177.2490  138.9610 C   0  0  2  0  0  3  0  0  0  0  0  0
  189.4640  176.4190  136.6910 N   0  0  0  0  0  2  0  0  0  0  0  0
  193.8030  176.3080  138.7700 O   0  0  0  0  0  0  0  0  0  0  0  0
  189.7270  178.0180  141.2360 O   0  0  0  0  0  0  0  0  0  0  0  0
  188.8810  177.3280  140.3440 C   0  0  1  0  0  3  0  0  0  0  0  0
  191.6740  177.2600  140.1370 N   0  0  0  0  0  2  0  0  0  0  0  0
  188.7260  176.4570  137.9490 C   0  0  0  0  0  2  0  0  0  0  0  0
  185.7610  179.2210  141.3810 C   0  0  0  0  0  0  0  0  0  0  0  0
  185.0320  179.3160  140.1550 N   0  0  0  0  0  0  0  0  0  0  0  0
  187.5560  178.0190  140.2810 C   0  0  0  0  0  0  0  0  0  0  0  0
  185.4910  178.8240  139.0450 C   0  0  0  0  0  3  0  0  0  0  0  0
  187.0560  178.5390  141.4030 C   0  0  0  0  0  3  0  0  0  0  0  0
  186.8250  178.1210  138.9600 C   0  0  0  0  0  2  0  0  0  0  0  0
  185.2900  179.7170  142.4370 O   0  0  0  0  0  0  0  0  0  0  0  0
  191.7440  177.7960  142.5350 C   0  0  0  0  0  2  0  0  0  0  0  0
  191.7030  175.9550  144.0530 O   0  0  0  0  0  0  0  0  0  0  0  0
  190.6520  177.9010  144.8080 N   0  0  0  0  0  2  0  0  0  0  0  0
  191.3890  177.1560  143.8380 C   0  0  0  0  0  0  0  0  0  0  0  0
  190.1680  177.3120  146.0440 C   0  0  0  0  0  2  0  0  0  0  0  0
  188.9110  178.2270  148.4700 O   0  0  0  0  0  1  0  0  0  0  0  0
  188.6980  177.5340  146.1530 C   0  0  0  0  0  0  0  0  0  0  0  0
  188.1240  177.9980  147.3480 C   0  0  0  0  0  0  0  0  0  0  0  0
  185.9440  178.0190  146.2900 C   0  0  0  0  0  3  0  0  0  0  0  0
  186.5140  177.5660  145.0980 C   0  0  0  0  0  3  0  0  0  0  0  0
  187.8900  177.3260  145.0290 C   0  0  0  0  0  3  0  0  0  0  0  0
  186.7470  178.2360  147.4130 C   0  0  0  0  0  3  0  0  0  0  0  0
  1 10  1  0  0  0  0
  1  7  2  0  0  0  0
  2  7  1  0  0  0  0
  2 11  2  0  0  0  0
  3  7  1  6  0  0  0
  3 14  1  0  0  0  0
  4 23  1  1  0  0  0
  5  6  2  0  0  0  0
  6  2  1  0  0  0  0
  8  5  1  0  0  0  0
  8  1  1  0  0  0  0
  9 15  1  6  0  0  0
  9  3  1  0  0  0  0
  9 13  1  0  0  0  0
 10 15  1  0  0  0  0
 12  4  1  0  0  0  0
 13 18  1  6  0  0  0
 13 12  1  0  0  0  0
 14  4  1  0  0  0  0
 16 20  1  0  0  0  0
 16 22  2  0  0  0  0
 17 16  1  0  0  0  0
 18 20  2  0  0  0  0
 19 17  2  0  0  0  0
 21 19  1  0  0  0  0
 21 18  1  0  0  0  0
 23 26  1  0  0  0  0
 25 27  1  0  0  0  0
 26 24  2  0  0  0  0
 26 25  1  0  0  0  0
 27 29  1  0  0  0  0
 29 30  1  0  0  0  0
 30 34  2  0  0  0  0
 30 28  1  0  0  0  0
 31 34  1  0  0  0  0
 32 31  2  0  0  0  0
 33 32  1  0  0  0  0
 33 29  2  0  0  0  0
M  END
>  <MODEL>
1

>  <REMARK>
 VINA RESULT:     -10.1      0.000      0.000
  Name = 
  5 active torsions:
  status: ('A' for Active; 'I' for Inactive)
    1  A    between atoms: C_3  and  C_13
    2  A    between atoms: C_3  and  N_17
    3  A    between atoms: C_5  and  C_18
    4  A    between atoms: C_12  and  C_28
    5  A    between atoms: C_18  and  C_29
                            x       y       z     vdW  Elec       q    Type
                         _______ _______ _______ _____ _____    ______ ____

>  <TORSDO>
F 5

$$$$
=
 OpenBabel10262423563D

 34 38  0  0  1  0  0  0  0  0999 V2000
  182.9270  178.6290  140.6970 C   0  0  0  0  0  0  0  0  0  0  0  0
  181.4860  178.9320  142.6540 C   0  0  0  0  0  0  0  0  0  0  0  0
  184.0980  178.8810  142.8710 C   0  0  2  0  0  3  0  0  0  0  0  0
  185.1960  178.6190  144.9480 C   0  0  1  0  0  3  0  0  0  0  0  0
  180.4030  178.7850  140.4840 C   0  0  0  0  0  3  0  0  0  0  0  0
  180.2990  178.9810  141.7960 C   0  0  0  0  0  3  0  0  0  0  0  0
  182.8280  178.7490  142.0440 C   0  0  0  0  0  0  0  0  0  0  0  0
  181.7110  178.4550  139.8180 C   0  0  0  0  0  2  0  0  0  0  0  0
  185.2700  178.1540  142.2090 C   0  0  2  0  0  3  0  0  0  0  0  0
  184.2160  178.5450  140.0680 N   0  0  0  0  0  2  0  0  0  0  0  0
  181.3470  179.0880  143.8950 O   0  0  0  0  0  0  0  0  0  0  0  0
  186.2240  177.8260  144.3970 O   0  0  0  0  0  0  0  0  0  0  0  0
  186.5000  178.3290  143.1080 C   0  0  1  0  0  3  0  0  0  0  0  0
  183.9360  178.3860  144.2350 N   0  0  0  0  0  2  0  0  0  0  0  0
  185.4550  178.7350  140.8150 C   0  0  0  0  0  2  0  0  0  0  0  0
  189.4660  177.4830  140.8980 C   0  0  0  0  0  0  0  0  0  0  0  0
  189.9520  176.2710  141.4790 N   0  0  0  0  0  0  0  0  0  0  0  0
  187.6940  177.6240  142.5470 C   0  0  0  0  0  0  0  0  0  0  0  0
  189.3920  175.7390  142.5240 C   0  0  0  0  0  3  0  0  0  0  0  0
  188.2960  178.1460  141.4770 C   0  0  0  0  0  3  0  0  0  0  0  0
  188.1950  176.3570  143.2040 C   0  0  0  0  0  2  0  0  0  0  0  0
  190.0370  177.9750  139.8920 O   0  0  0  0  0  0  0  0  0  0  0  0
  185.0310  178.3080  146.4340 C   0  0  0  0  0  2  0  0  0  0  0  0
  186.4770  179.5050  147.9070 O   0  0  0  0  0  0  0  0  0  0  0  0
  187.3500  177.5180  147.0410 N   0  0  0  0  0  2  0  0  0  0  0  0
  186.3100  178.4860  147.1870 C   0  0  0  0  0  0  0  0  0  0  0  0
  188.6610  177.6830  147.6440 C   0  0  0  0  0  2  0  0  0  0  0  0
  190.8530  175.8130  147.6040 O   0  0  0  0  0  1  0  0  0  0  0  0
  189.6990  177.6840  146.5740 C   0  0  0  0  0  0  0  0  0  0  0  0
  190.7430  176.7450  146.5790 C   0  0  0  0  0  0  0  0  0  0  0  0
  191.5790  177.6680  144.5000 C   0  0  0  0  0  3  0  0  0  0  0  0
  190.5370  178.5970  144.4890 C   0  0  0  0  0  3  0  0  0  0  0  0
  189.5960  178.6040  145.5230 C   0  0  0  0  0  3  0  0  0  0  0  0
  191.6820  176.7420  145.5430 C   0  0  0  0  0  3  0  0  0  0  0  0
  1  7  2  0  0  0  0
  2 11  2  0  0  0  0
  3  7  1  6  0  0  0
  3 14  1  0  0  0  0
  4 23  1  1  0  0  0
  5  6  2  0  0  0  0
  6  2  1  0  0  0  0
  7  2  1  0  0  0  0
  8  5  1  0  0  0  0
  8  1  1  0  0  0  0
  9 15  1  6  0  0  0
  9  3  1  0  0  0  0
  9 13  1  0  0  0  0
 10  1  1  0  0  0  0
 10 15  1  0  0  0  0
 12  4  1  0  0  0  0
 13 18  1  6  0  0  0
 13 12  1  0  0  0  0
 14  4  1  0  0  0  0
 16 20  1  0  0  0  0
 16 17  1  0  0  0  0
 17 19  2  0  0  0  0
 18 21  1  0  0  0  0
 19 21  1  0  0  0  0
 20 18  2  0  0  0  0
 22 16  2  0  0  0  0
 23 26  1  0  0  0  0
 25 26  1  0  0  0  0
 25 27  1  0  0  0  0
 26 24  2  0  0  0  0
 29 30  1  0  0  0  0
 29 27  1  0  0  0  0
 30 28  1  0  0  0  0
 31 34  1  0  0  0  0
 32 31  2  0  0  0  0
 32 33  1  0  0  0  0
 33 29  2  0  0  0  0
 34 30  2  0  0  0  0
M  END
>  <MODEL>
2

>  <REMARK>
 VINA RESULT:      -9.9      3.120      7.345
  Name = 
  5 active torsions:
  status: ('A' for Active; 'I' for Inactive)
    1  A    between atoms: C_3  and  C_13
    2  A    between atoms: C_3  and  N_17
    3  A    between atoms: C_5  and  C_18
    4  A    between atoms: C_12  and  C_28
    5  A    between atoms: C_18  and  C_29
                            x       y       z     vdW  Elec       q    Type
                         _______ _______ _______ _____ _____    ______ ____

>  <TORSDO>
F 5

$$$$
=
 OpenBabel10262423563D

 34 38  0  0  1  0  0  0  0  0999 V2000
  187.0760  178.2980  138.1880 C   0  0  0  0  0  0  0  0  0  0  0  0
  186.4220  178.4410  140.5430 C   0  0  0  0  0  0  0  0  0  0  0  0
  188.8800  177.8660  139.8380 C   0  0  2  0  0  3  0  0  0  0  0  0
  190.4620  176.9760  141.3520 C   0  0  1  0  0  3  0  0  0  0  0  0
  184.7260  178.9560  138.8820 C   0  0  0  0  0  3  0  0  0  0  0  0
  185.0780  178.8870  140.1630 C   0  0  0  0  0  3  0  0  0  0  0  0
  187.4260  178.1480  139.4900 C   0  0  0  0  0  0  0  0  0  0  0  0
  185.6460  178.5390  137.7670 C   0  0  0  0  0  2  0  0  0  0  0  0
  189.5800  177.0930  138.7190 C   0  0  2  0  0  3  0  0  0  0  0  0
  188.0500  178.1120  137.1490 N   0  0  0  0  0  2  0  0  0  0  0  0
  186.7110  178.3550  141.7650 O   0  0  0  0  0  0  0  0  0  0  0  0
  191.0470  176.1420  140.3770 O   0  0  0  0  0  0  0  0  0  0  0  0
  191.0290  176.8450  139.1540 C   0  0  1  0  0  3  0  0  0  0  0  0
  189.0270  177.1340  141.0930 N   0  0  0  0  0  2  0  0  0  0  0  0
  189.4650  177.9100  137.4410 C   0  0  0  0  0  2  0  0  0  0  0  0
  193.7270  175.8090  136.6960 C   0  0  0  0  0  0  0  0  0  0  0  0
  193.2080  174.5910  136.1570 N   0  0  0  0  0  0  0  0  0  0  0  0
  191.7860  176.0680  138.1240 C   0  0  0  0  0  0  0  0  0  0  0  0
  192.0700  174.1000  136.5470 C   0  0  0  0  0  3  0  0  0  0  0  0
  192.9590  176.5420  137.7040 C   0  0  0  0  0  3  0  0  0  0  0  0
  191.2160  174.7690  137.5960 C   0  0  0  0  0  2  0  0  0  0  0  0
  194.8360  176.2520  136.3010 O   0  0  0  0  0  0  0  0  0  0  0  0
  190.6880  176.3950  142.7460 C   0  0  0  0  0  2  0  0  0  0  0  0
  190.6870  178.5540  143.7620 O   0  0  0  0  0  0  0  0  0  0  0  0
  189.5290  176.8950  144.9320 N   0  0  0  0  0  2  0  0  0  0  0  0
  190.2990  177.3570  143.8220 C   0  0  0  0  0  0  0  0  0  0  0  0
  189.2150  177.7400  146.0710 C   0  0  0  0  0  2  0  0  0  0  0  0
  187.8560  178.5240  148.4880 O   0  0  0  0  0  1  0  0  0  0  0  0
  187.7420  177.9600  146.1290 C   0  0  0  0  0  0  0  0  0  0  0  0
  187.1180  178.3600  147.3230 C   0  0  0  0  0  0  0  0  0  0  0  0
  184.9850  178.4460  146.1750 C   0  0  0  0  0  3  0  0  0  0  0  0
  185.6060  178.0570  144.9860 C   0  0  0  0  0  3  0  0  0  0  0  0
  186.9820  177.8170  144.9620 C   0  0  0  0  0  3  0  0  0  0  0  0
  185.7400  178.5980  147.3420 C   0  0  0  0  0  3  0  0  0  0  0  0
  1  7  2  0  0  0  0
  2 11  2  0  0  0  0
  3  7  1  6  0  0  0
  3 14  1  0  0  0  0
  4 23  1  1  0  0  0
  5  6  2  0  0  0  0
  6  2  1  0  0  0  0
  7  2  1  0  0  0  0
  8  1  1  0  0  0  0
  8  5  1  0  0  0  0
  9 15  1  6  0  0  0
  9 13  1  0  0  0  0
  9  3  1  0  0  0  0
 10 15  1  0  0  0  0
 10  1  1  0  0  0  0
 12  4  1  0  0  0  0
 13 18  1  6  0  0  0
 13 12  1  0  0  0  0
 14  4  1  0  0  0  0
 16 20  1  0  0  0  0
 17 19  2  0  0  0  0
 17 16  1  0  0  0  0
 19 21  1  0  0  0  0
 20 18  2  0  0  0  0
 21 18  1  0  0  0  0
 22 16  2  0  0  0  0
 23 26  1  0  0  0  0
 24 26  2  0  0  0  0
 25 27  1  0  0  0  0
 26 25  1  0  0  0  0
 27 29  1  0  0  0  0
 29 30  1  0  0  0  0
 30 34  2  0  0  0  0
 30 28  1  0  0  0  0
 31 34  1  0  0  0  0
 32 31  2  0  0  0  0
 33 32  1  0  0  0  0
 33 29  2  0  0  0  0
M  END
>  <MODEL>
3

>  <REMARK>
 VINA RESULT:      -9.9      1.636      5.377
  Name = 
  5 active torsions:
  status: ('A' for Active; 'I' for Inactive)
    1  A    between atoms: C_3  and  C_13
    2  A    between atoms: C_3  and  N_17
    3  A    between atoms: C_5  and  C_18
    4  A    between atoms: C_12  and  C_28
    5  A    between atoms: C_18  and  C_29
                            x       y       z     vdW  Elec       q    Type
                         _______ _______ _______ _____ _____    ______ ____

>  <TORSDO>
F 5

$$$$
=
 OpenBabel10262423563D

 34 38  0  0  1  0  0  0  0  0999 V2000
  189.1100  177.4270  146.1330 C   0  0  0  0  0  0  0  0  0  0  0  0
  186.9190  178.1080  146.9870 C   0  0  0  0  0  0  0  0  0  0  0  0
  187.2700  177.4740  144.4680 C   0  0  2  0  0  3  0  0  0  0  0  0
  185.6800  177.9840  142.7950 C   0  0  1  0  0  3  0  0  0  0  0  0
  188.7370  177.9420  148.5890 C   0  0  0  0  0  3  0  0  0  0  0  0
  187.4460  178.1610  148.3530 C   0  0  0  0  0  3  0  0  0  0  0  0
  187.8140  177.7230  145.8660 C   0  0  0  0  0  0  0  0  0  0  0  0
  189.7280  177.6860  147.4870 C   0  0  0  0  0  2  0  0  0  0  0  0
  188.3660  177.6200  143.4100 C   0  0  2  0  0  3  0  0  0  0  0  0
  189.9780  176.9610  145.0870 N   0  0  0  0  0  2  0  0  0  0  0  0
  185.7000  178.3530  146.7950 O   0  0  0  0  0  0  0  0  0  0  0  0
  186.6680  178.2640  141.8270 O   0  0  0  0  0  0  0  0  0  0  0  0
  187.7320  177.3630  142.0380 C   0  0  1  0  0  3  0  0  0  0  0  0
  186.1560  178.3560  144.1310 N   0  0  0  0  0  2  0  0  0  0  0  0
  189.4810  176.6440  143.7530 C   0  0  0  0  0  2  0  0  0  0  0  0
  189.3870  178.4750  138.8100 C   0  0  0  0  0  0  0  0  0  0  0  0
  190.6330  177.7750  138.8410 N   0  0  0  0  0  0  0  0  0  0  0  0
  188.7330  177.5110  140.9360 C   0  0  0  0  0  0  0  0  0  0  0  0
  190.9570  176.9950  139.8280 C   0  0  0  0  0  3  0  0  0  0  0  0
  188.4340  178.3070  139.9080 C   0  0  0  0  0  3  0  0  0  0  0  0
  190.0510  176.7730  141.0150 C   0  0  0  0  0  2  0  0  0  0  0  0
  189.1100  179.2280  137.8420 O   0  0  0  0  0  0  0  0  0  0  0  0
  184.3910  178.7340  142.4630 C   0  0  0  0  0  2  0  0  0  0  0  0
  184.4990  179.8150  140.3390 O   0  0  0  0  0  0  0  0  0  0  0  0
  183.4690  177.7180  140.3450 N   0  0  0  0  0  2  0  0  0  0  0  0
  184.1460  178.7960  140.9900 C   0  0  0  0  0  0  0  0  0  0  0  0
  183.0900  177.7600  138.9430 C   0  0  0  0  0  2  0  0  0  0  0  0
  182.7040  175.0310  138.0980 O   0  0  0  0  0  1  0  0  0  0  0  0
  184.1010  177.0170  138.1370 C   0  0  0  0  0  0  0  0  0  0  0  0
  183.8680  175.6930  137.7280 C   0  0  0  0  0  0  0  0  0  0  0  0
  185.9870  175.6870  136.5520 C   0  0  0  0  0  3  0  0  0  0  0  0
  186.2160  177.0060  136.9500 C   0  0  0  0  0  3  0  0  0  0  0  0
  185.2730  177.6710  137.7390 C   0  0  0  0  0  3  0  0  0  0  0  0
  184.8150  175.0320  136.9400 C   0  0  0  0  0  3  0  0  0  0  0  0
  1  8  1  0  0  0  0
  2  6  1  0  0  0  0
  3 14  1  6  0  0  0
  3  7  1  0  0  0  0
  4 23  1  6  0  0  0
  4 14  1  0  0  0  0
  6  5  2  0  0  0  0
  7  1  2  0  0  0  0
  7  2  1  0  0  0  0
  8  5  1  0  0  0  0
  9 15  1  1  0  0  0
  9  3  1  0  0  0  0
 10  1  1  0  0  0  0
 11  2  2  0  0  0  0
 12 13  1  0  0  0  0
 12  4  1  0  0  0  0
 13 18  1  6  0  0  0
 13  9  1  0  0  0  0
 15 10  1  0  0  0  0
 16 17  1  0  0  0  0
 16 20  1  0  0  0  0
 17 19  2  0  0  0  0
 18 21  1  0  0  0  0
 19 21  1  0  0  0  0
 20 18  2  0  0  0  0
 22 16  2  0  0  0  0
 24 26  2  0  0  0  0
 25 26  1  0  0  0  0
 26 23  1  0  0  0  0
 27 25  1  0  0  0  0
 29 27  1  0  0  0  0
 30 28  1  0  0  0  0
 30 29  2  0  0  0  0
 31 34  2  0  0  0  0
 31 32  1  0  0  0  0
 32 33  2  0  0  0  0
 33 29  1  0  0  0  0
 34 30  1  0  0  0  0
M  END
>  <MODEL>
4

>  <REMARK>
 VINA RESULT:      -9.7      2.668      8.513
  Name = 
  5 active torsions:
  status: ('A' for Active; 'I' for Inactive)
    1  A    between atoms: C_3  and  C_13
    2  A    between atoms: C_3  and  N_17
    3  A    between atoms: C_5  and  C_18
    4  A    between atoms: C_12  and  C_28
    5  A    between atoms: C_18  and  C_29
                            x       y       z     vdW  Elec       q    Type
                         _______ _______ _______ _____ _____    ______ ____

>  <TORSDO>
F 5

$$$$
=
 OpenBabel10262423563D

 34 38  0  0  1  0  0  0  0  0999 V2000
  190.6380  176.6110  144.9370 C   0  0  0  0  0  0  0  0  0  0  0  0
  188.8760  177.4940  146.3900 C   0  0  0  0  0  0  0  0  0  0  0  0
  188.4860  177.1460  143.8210 C   0  0  2  0  0  3  0  0  0  0  0  0
  186.6530  178.0990  142.6740 C   0  0  1  0  0  3  0  0  0  0  0  0
  190.9700  176.8540  147.4410 C   0  0  0  0  0  3  0  0  0  0  0  0
  189.7200  177.2910  147.5700 C   0  0  0  0  0  3  0  0  0  0  0  0
  189.3890  177.1280  145.0460 C   0  0  0  0  0  0  0  0  0  0  0  0
  191.6020  176.5970  146.1000 C   0  0  0  0  0  2  0  0  0  0  0  0
  189.3000  177.2630  142.5310 C   0  0  2  0  0  3  0  0  0  0  0  0
  191.1290  176.1600  143.6650 N   0  0  0  0  0  2  0  0  0  0  0  0
  187.7100  177.9410  146.5460 O   0  0  0  0  0  0  0  0  0  0  0  0
  187.4090  178.3520  141.5100 O   0  0  0  0  0  0  0  0  0  0  0  0
  188.3160  177.2830  141.3560 C   0  0  1  0  0  3  0  0  0  0  0  0
  187.4980  178.2200  143.8660 N   0  0  0  0  0  2  0  0  0  0  0  0
  190.2740  176.0960  142.4840 C   0  0  0  0  0  2  0  0  0  0  0  0
  189.3570  178.5920  137.9500 C   0  0  0  0  0  0  0  0  0  0  0  0
  190.3760  177.6680  137.5590 N   0  0  0  0  0  0  0  0  0  0  0  0
  189.0280  177.4220  140.0470 C   0  0  0  0  0  0  0  0  0  0  0  0
  190.7380  176.6830  138.3240 C   0  0  0  0  0  3  0  0  0  0  0  0
  188.6830  178.4250  139.2390 C   0  0  0  0  0  3  0  0  0  0  0  0
  190.1190  176.4400  139.6790 C   0  0  0  0  0  2  0  0  0  0  0  0
  189.0370  179.5390  137.1880 O   0  0  0  0  0  0  0  0  0  0  0  0
  185.4750  179.0680  142.7570 C   0  0  0  0  0  2  0  0  0  0  0  0
  183.5470  178.0380  141.8020 O   0  0  0  0  0  0  0  0  0  0  0  0
  184.6750  179.5380  140.4100 N   0  0  0  0  0  2  0  0  0  0  0  0
  184.4950  178.8520  141.6490 C   0  0  0  0  0  0  0  0  0  0  0  0
  183.8360  179.2900  139.2500 C   0  0  0  0  0  2  0  0  0  0  0  0
  182.3730  176.8160  139.0320 O   0  0  0  0  0  1  0  0  0  0  0  0
  184.3600  178.1090  138.5060 C   0  0  0  0  0  0  0  0  0  0  0  0
  183.6090  176.9260  138.4070 C   0  0  0  0  0  0  0  0  0  0  0  0
  185.3440  175.9440  137.0280 C   0  0  0  0  0  3  0  0  0  0  0  0
  186.0880  177.1230  137.1190 C   0  0  0  0  0  3  0  0  0  0  0  0
  185.5960  178.2040  137.8540 C   0  0  0  0  0  3  0  0  0  0  0  0
  184.1060  175.8460  137.6700 C   0  0  0  0  0  3  0  0  0  0  0  0
  1  7  2  0  0  0  0
  1  8  1  0  0  0  0
  2 11  2  0  0  0  0
  2  6  1  0  0  0  0
  3 14  1  1  0  0  0
  3  7  1  0  0  0  0
  4 23  1  1  0  0  0
  4 14  1  0  0  0  0
  5  6  2  0  0  0  0
  7  2  1  0  0  0  0
  8  5  1  0  0  0  0
  9 15  1  6  0  0  0
  9  3  1  0  0  0  0
 10  1  1  0  0  0  0
 12  4  1  0  0  0  0
 13 18  1  6  0  0  0
 13 12  1  0  0  0  0
 13  9  1  0  0  0  0
 15 10  1  0  0  0  0
 16 20  1  0  0  0  0
 17 16  1  0  0  0  0
 17 19  2  0  0  0  0
 19 21  1  0  0  0  0
 20 18  2  0  0  0  0
 21 18  1  0  0  0  0
 22 16  2  0  0  0  0
 25 26  1  0  0  0  0
 26 24  2  0  0  0  0
 26 23  1  0  0  0  0
 27 25  1  0  0  0  0
 29 27  1  0  0  0  0
 30 29  1  0  0  0  0
 30 28  1  0  0  0  0
 31 32  2  0  0  0  0
 31 34  1  0  0  0  0
 32 33  1  0  0  0  0
 33 29  2  0  0  0  0
 34 30  2  0  0  0  0
M  END
>  <MODEL>
5

>  <REMARK>
 VINA RESULT:      -9.6      2.403      7.710
  Name = 
  5 active torsions:
  status: ('A' for Active; 'I' for Inactive)
    1  A    between atoms: C_3  and  C_13
    2  A    between atoms: C_3  and  N_17
    3  A    between atoms: C_5  and  C_18
    4  A    between atoms: C_12  and  C_28
    5  A    between atoms: C_18  and  C_29
                            x       y       z     vdW  Elec       q    Type
                         _______ _______ _______ _____ _____    ______ ____

>  <TORSDO>
F 5

$$$$
=
 OpenBabel10262423563D

 34 38  0  0  1  0  0  0  0  0999 V2000
  185.5870  178.1780  143.5140 C   0  0  0  0  0  0  0  0  0  0  0  0
  185.8870  178.5980  141.1210 C   0  0  0  0  0  0  0  0  0  0  0  0
  187.7410  177.4140  142.5460 C   0  0  2  0  0  3  0  0  0  0  0  0
  189.9570  177.1380  141.7710 C   0  0  1  0  0  3  0  0  0  0  0  0
  183.7570  179.2280  142.1040 C   0  0  0  0  0  3  0  0  0  0  0  0
  184.5180  179.1100  141.0190 C   0  0  0  0  0  3  0  0  0  0  0  0
  186.4010  178.1250  142.4310 C   0  0  0  0  0  0  0  0  0  0  0  0
  184.2610  178.9000  143.4830 C   0  0  0  0  0  2  0  0  0  0  0  0
  188.2960  177.5000  143.9690 C   0  0  2  0  0  3  0  0  0  0  0  0
  186.0200  177.6430  144.7750 N   0  0  0  0  0  2  0  0  0  0  0  0
  186.5900  178.5320  140.0790 O   0  0  0  0  0  0  0  0  0  0  0  0
  190.5170  177.3510  143.0480 O   0  0  0  0  0  0  0  0  0  0  0  0
  189.6450  176.7710  143.9930 C   0  0  1  0  0  3  0  0  0  0  0  0
  188.7360  177.9330  141.6110 N   0  0  0  0  0  2  0  0  0  0  0  0
  187.2660  176.8950  144.9100 C   0  0  0  0  0  2  0  0  0  0  0  0
  190.2320  177.5760  147.6530 C   0  0  0  0  0  0  0  0  0  0  0  0
  191.4860  176.9410  147.9150 N   0  0  0  0  0  0  0  0  0  0  0  0
  190.2740  176.8280  145.3480 C   0  0  0  0  0  0  0  0  0  0  0  0
  192.1230  176.2780  146.9980 C   0  0  0  0  0  3  0  0  0  0  0  0
  189.6450  177.4980  146.3150 C   0  0  0  0  0  3  0  0  0  0  0  0
  191.5900  176.1220  145.5940 C   0  0  0  0  0  2  0  0  0  0  0  0
  189.6390  178.2030  148.5680 O   0  0  0  0  0  0  0  0  0  0  0  0
  190.9700  177.4970  140.6860 C   0  0  0  0  0  2  0  0  0  0  0  0
  190.8120  175.7920  139.0230 O   0  0  0  0  0  0  0  0  0  0  0  0
  189.9180  177.8650  138.4220 N   0  0  0  0  0  2  0  0  0  0  0  0
  190.5570  176.9830  139.3440 C   0  0  0  0  0  0  0  0  0  0  0  0
  189.5950  177.4730  137.0610 C   0  0  0  0  0  2  0  0  0  0  0  0
  187.4300  179.3520  136.7660 O   0  0  0  0  0  1  0  0  0  0  0  0
  188.1670  177.0500  136.9950 C   0  0  0  0  0  0  0  0  0  0  0  0
  187.1410  177.9950  136.8330 C   0  0  0  0  0  0  0  0  0  0  0  0
  185.5050  176.2070  136.7910 C   0  0  0  0  0  3  0  0  0  0  0  0
  186.5260  175.2650  136.9440 C   0  0  0  0  0  3  0  0  0  0  0  0
  187.8550  175.6860  137.0430 C   0  0  0  0  0  3  0  0  0  0  0  0
  185.8120  177.5690  136.7340 C   0  0  0  0  0  3  0  0  0  0  0  0
  1 10  1  0  0  0  0
  2  7  1  0  0  0  0
  3 14  1  6  0  0  0
  3  9  1  0  0  0  0
  4 23  1  6  0  0  0
  4 12  1  0  0  0  0
  5  8  1  0  0  0  0
  6  2  1  0  0  0  0
  6  5  2  0  0  0  0
  7  3  1  0  0  0  0
  7  1  2  0  0  0  0
  8  1  1  0  0  0  0
  9 13  1  0  0  0  0
  9 15  1  1  0  0  0
 10 15  1  0  0  0  0
 11  2  2  0  0  0  0
 12 13  1  0  0  0  0
 13 18  1  1  0  0  0
 14  4  1  0  0  0  0
 16 17  1  0  0  0  0
 16 22  2  0  0  0  0
 18 21  1  0  0  0  0
 18 20  2  0  0  0  0
 19 17  2  0  0  0  0
 20 16  1  0  0  0  0
 21 19  1  0  0  0  0
 24 26  2  0  0  0  0
 25 26  1  0  0  0  0
 26 23  1  0  0  0  0
 27 25  1  0  0  0  0
 28 30  1  0  0  0  0
 29 33  1  0  0  0  0
 29 27  1  0  0  0  0
 30 29  2  0  0  0  0
 31 32  1  0  0  0  0
 32 33  2  0  0  0  0
 34 31  2  0  0  0  0
 34 30  1  0  0  0  0
M  END
>  <MODEL>
6

>  <REMARK>
 VINA RESULT:      -9.6      2.291      8.024
  Name = 
  5 active torsions:
  status: ('A' for Active; 'I' for Inactive)
    1  A    between atoms: C_3  and  C_13
    2  A    between atoms: C_3  and  N_17
    3  A    between atoms: C_5  and  C_18
    4  A    between atoms: C_12  and  C_28
    5  A    between atoms: C_18  and  C_29
                            x       y       z     vdW  Elec       q    Type
                         _______ _______ _______ _____ _____    ______ ____

>  <TORSDO>
F 5

$$$$
=
 OpenBabel10262423563D

 34 38  0  0  1  0  0  0  0  0999 V2000
  187.1480  177.8890  137.7370 C   0  0  0  0  0  0  0  0  0  0  0  0
  186.7710  178.5090  140.0760 C   0  0  0  0  0  0  0  0  0  0  0  0
  189.1690  177.9460  139.1770 C   0  0  2  0  0  3  0  0  0  0  0  0
  190.9950  177.5130  140.6140 C   0  0  1  0  0  3  0  0  0  0  0  0
  184.8490  178.5370  138.5920 C   0  0  0  0  0  3  0  0  0  0  0  0
  185.3570  178.7750  139.7980 C   0  0  0  0  0  3  0  0  0  0  0  0
  187.6640  178.0530  138.9800 C   0  0  0  0  0  0  0  0  0  0  0  0
  185.6610  177.9420  137.4750 C   0  0  0  0  0  2  0  0  0  0  0  0
  189.7960  176.9900  138.1620 C   0  0  2  0  0  3  0  0  0  0  0  0
  188.0030  177.5400  136.6370 N   0  0  0  0  0  2  0  0  0  0  0  0
  187.2120  178.7130  141.2370 O   0  0  0  0  0  0  0  0  0  0  0  0
  191.5320  176.5220  139.7660 O   0  0  0  0  0  0  0  0  0  0  0  0
  191.3040  176.9350  138.4370 C   0  0  1  0  0  3  0  0  0  0  0  0
  189.5310  177.5200  140.5260 N   0  0  0  0  0  2  0  0  0  0  0  0
  189.4550  177.4950  136.7690 C   0  0  0  0  0  2  0  0  0  0  0  0
  192.1100  173.8540  136.3750 C   0  0  0  0  0  0  0  0  0  0  0  0
  193.3330  174.2200  135.7320 N   0  0  0  0  0  0  0  0  0  0  0  0
  191.9980  175.9980  137.5010 C   0  0  0  0  0  0  0  0  0  0  0  0
  193.8840  175.3810  135.9190 C   0  0  0  0  0  3  0  0  0  0  0  0
  191.4570  174.7980  137.2830 C   0  0  0  0  0  3  0  0  0  0  0  0
  193.2780  176.4300  136.8190 C   0  0  0  0  0  2  0  0  0  0  0  0
  191.5990  172.7240  136.1650 O   0  0  0  0  0  0  0  0  0  0  0  0
  191.4390  177.2700  142.0550 C   0  0  0  0  0  2  0  0  0  0  0  0
  190.2280  175.3840  142.8730 O   0  0  0  0  0  0  0  0  0  0  0  0
  189.4590  177.4650  143.6070 N   0  0  0  0  0  2  0  0  0  0  0  0
  190.3600  176.6360  142.8720 C   0  0  0  0  0  0  0  0  0  0  0  0
  188.3150  176.9300  144.3260 C   0  0  0  0  0  2  0  0  0  0  0  0
  186.0130  177.8330  145.8060 O   0  0  0  0  0  1  0  0  0  0  0  0
  188.3920  177.3490  145.7550 C   0  0  0  0  0  0  0  0  0  0  0  0
  187.2440  177.7660  146.4480 C   0  0  0  0  0  0  0  0  0  0  0  0
  188.5640  178.0470  148.4610 C   0  0  0  0  0  3  0  0  0  0  0  0
  189.7050  177.6240  147.7750 C   0  0  0  0  0  3  0  0  0  0  0  0
  189.6190  177.2730  146.4250 C   0  0  0  0  0  3  0  0  0  0  0  0
  187.3350  178.1170  147.7990 C   0  0  0  0  0  3  0  0  0  0  0  0
  1  7  2  0  0  0  0
  2 11  2  0  0  0  0
  3  7  1  1  0  0  0
  3 14  1  0  0  0  0
  4 23  1  1  0  0  0
  5  6  2  0  0  0  0
  6  2  1  0  0  0  0
  7  2  1  0  0  0  0
  8  1  1  0  0  0  0
  8  5  1  0  0  0  0
  9 15  1  6  0  0  0
  9 13  1  0  0  0  0
  9  3  1  0  0  0  0
 10 15  1  0  0  0  0
 10  1  1  0  0  0  0
 12  4  1  0  0  0  0
 13 18  1  6  0  0  0
 13 12  1  0  0  0  0
 14  4  1  0  0  0  0
 16 20  1  0  0  0  0
 17 19  2  0  0  0  0
 17 16  1  0  0  0  0
 19 21  1  0  0  0  0
 20 18  2  0  0  0  0
 21 18  1  0  0  0  0
 22 16  2  0  0  0  0
 23 26  1  0  0  0  0
 25 27  1  0  0  0  0
 26 24  2  0  0  0  0
 26 25  1  0  0  0  0
 27 29  1  0  0  0  0
 28 30  1  0  0  0  0
 29 33  2  0  0  0  0
 29 30  1  0  0  0  0
 30 34  2  0  0  0  0
 32 31  2  0  0  0  0
 33 32  1  0  0  0  0
 34 31  1  0  0  0  0
M  END
>  <MODEL>
7

>  <REMARK>
 VINA RESULT:      -9.5      1.905      5.482
  Name = 
  5 active torsions:
  status: ('A' for Active; 'I' for Inactive)
    1  A    between atoms: C_3  and  C_13
    2  A    between atoms: C_3  and  N_17
    3  A    between atoms: C_5  and  C_18
    4  A    between atoms: C_12  and  C_28
    5  A    between atoms: C_18  and  C_29
                            x       y       z     vdW  Elec       q    Type
                         _______ _______ _______ _____ _____    ______ ____

>  <TORSDO>
F 5

$$$$
=
 OpenBabel10262423563D

 34 38  0  0  1  0  0  0  0  0999 V2000
  190.0780  177.1700  137.5290 C   0  0  0  0  0  0  0  0  0  0  0  0
  187.9080  178.0870  136.8630 C   0  0  0  0  0  0  0  0  0  0  0  0
  188.7930  178.3120  139.3200 C   0  0  2  0  0  3  0  0  0  0  0  0
  187.3970  178.9390  141.1210 C   0  0  1  0  0  3  0  0  0  0  0  0
  189.2590  177.0490  135.1310 C   0  0  0  0  0  3  0  0  0  0  0  0
  188.1590  177.7190  135.4670 C   0  0  0  0  0  3  0  0  0  0  0  0
  188.9270  177.7850  137.8990 C   0  0  0  0  0  0  0  0  0  0  0  0
  190.2660  176.5870  136.1480 C   0  0  0  0  0  2  0  0  0  0  0  0
  189.6150  177.4770  140.3030 C   0  0  2  0  0  3  0  0  0  0  0  0
  191.1230  176.9480  138.4890 N   0  0  0  0  0  2  0  0  0  0  0  0
  186.8420  178.6910  137.1500 O   0  0  0  0  0  0  0  0  0  0  0  0
  188.0430  178.0740  142.0280 O   0  0  0  0  0  0  0  0  0  0  0  0
  189.4150  178.0690  141.7030 C   0  0  1  0  0  3  0  0  0  0  0  0
  187.4060  178.3620  139.7730 N   0  0  0  0  0  2  0  0  0  0  0  0
  191.0630  177.4970  139.8400 C   0  0  0  0  0  2  0  0  0  0  0  0
  191.4670  177.2340  144.7830 C   0  0  0  0  0  0  0  0  0  0  0  0
  191.6050  175.8140  144.6910 N   0  0  0  0  0  0  0  0  0  0  0  0
  190.1670  177.2940  142.7380 C   0  0  0  0  0  0  0  0  0  0  0  0
  191.0740  175.1360  143.7180 C   0  0  0  0  0  3  0  0  0  0  0  0
  190.7220  177.9580  143.7530 C   0  0  0  0  0  3  0  0  0  0  0  0
  190.2710  175.7890  142.6200 C   0  0  0  0  0  2  0  0  0  0  0  0
  191.9870  177.8570  145.7440 O   0  0  0  0  0  0  0  0  0  0  0  0
  185.9640  179.2050  141.5760 C   0  0  0  0  0  2  0  0  0  0  0  0
  184.4470  177.6660  142.5890 O   0  0  0  0  0  0  0  0  0  0  0  0
  186.3760  178.1320  143.8230 N   0  0  0  0  0  2  0  0  0  0  0  0
  185.5450  178.2770  142.6710 C   0  0  0  0  0  0  0  0  0  0  0  0
  185.9800  177.3430  144.9770 C   0  0  0  0  0  2  0  0  0  0  0  0
  185.2590  179.1560  147.0980 O   0  0  0  0  0  1  0  0  0  0  0  0
  186.8910  177.6490  146.1170 C   0  0  0  0  0  0  0  0  0  0  0  0
  186.4960  178.5250  147.1420 C   0  0  0  0  0  0  0  0  0  0  0  0
  188.5970  178.1300  148.2850 C   0  0  0  0  0  3  0  0  0  0  0  0
  188.9870  177.2520  147.2710 C   0  0  0  0  0  3  0  0  0  0  0  0
  188.1340  177.0100  146.1900 C   0  0  0  0  0  3  0  0  0  0  0  0
  187.3530  178.7640  148.2210 C   0  0  0  0  0  3  0  0  0  0  0  0
  1  7  2  0  0  0  0
  1 10  1  0  0  0  0
  2 11  2  0  0  0  0
  2  7  1  0  0  0  0
  3  7  1  6  0  0  0
  3 14  1  0  0  0  0
  3  9  1  0  0  0  0
  4 23  1  1  0  0  0
  4 12  1  0  0  0  0
  5  6  2  0  0  0  0
  5  8  1  0  0  0  0
  6  2  1  0  0  0  0
  8  1  1  0  0  0  0
  9 15  1  6  0  0  0
  9 13  1  0  0  0  0
 10 15  1  0  0  0  0
 13 12  1  0  0  0  0
 13 18  1  1  0  0  0
 14  4  1  0  0  0  0
 16 22  2  0  0  0  0
 17 16  1  0  0  0  0
 18 20  2  0  0  0  0
 19 17  2  0  0  0  0
 20 16  1  0  0  0  0
 21 18  1  0  0  0  0
 21 19  1  0  0  0  0
 23 26  1  0  0  0  0
 24 26  2  0  0  0  0
 25 27  1  0  0  0  0
 26 25  1  0  0  0  0
 27 29  1  0  0  0  0
 28 30  1  0  0  0  0
 29 33  2  0  0  0  0
 29 30  1  0  0  0  0
 30 34  2  0  0  0  0
 32 31  2  0  0  0  0
 33 32  1  0  0  0  0
 34 31  1  0  0  0  0
M  END
>  <MODEL>
8

>  <REMARK>
 VINA RESULT:      -9.5      2.227      4.690
  Name = 
  5 active torsions:
  status: ('A' for Active; 'I' for Inactive)
    1  A    between atoms: C_3  and  C_13
    2  A    between atoms: C_3  and  N_17
    3  A    between atoms: C_5  and  C_18
    4  A    between atoms: C_12  and  C_28
    5  A    between atoms: C_18  and  C_29
                            x       y       z     vdW  Elec       q    Type
                         _______ _______ _______ _____ _____    ______ ____

>  <TORSDO>
F 5

$$$$
=
 OpenBabel10262423563D

 34 38  0  0  1  0  0  0  0  0999 V2000
  189.5700  177.0360  146.3470 C   0  0  0  0  0  0  0  0  0  0  0  0
  191.3920  176.3130  144.8810 C   0  0  0  0  0  0  0  0  0  0  0  0
  189.3200  177.6180  143.9470 C   0  0  2  0  0  3  0  0  0  0  0  0
  188.8300  177.7390  141.6380 C   0  0  1  0  0  3  0  0  0  0  0  0
  191.6280  175.8650  147.2570 C   0  0  0  0  0  3  0  0  0  0  0  0
  192.1530  175.8260  146.0350 C   0  0  0  0  0  3  0  0  0  0  0  0
  190.0590  176.9330  145.0860 C   0  0  0  0  0  0  0  0  0  0  0  0
  190.2280  176.3500  147.5200 C   0  0  0  0  0  2  0  0  0  0  0  0
  187.8180  177.6980  144.2260 C   0  0  2  0  0  3  0  0  0  0  0  0
  188.3270  177.7140  146.5890 N   0  0  0  0  0  2  0  0  0  0  0  0
  191.9060  176.2300  143.7350 O   0  0  0  0  0  0  0  0  0  0  0  0
  187.4370  177.6740  141.8470 O   0  0  0  0  0  0  0  0  0  0  0  0
  187.1540  178.3890  143.0290 C   0  0  1  0  0  3  0  0  0  0  0  0
  189.5360  176.9610  142.6600 N   0  0  0  0  0  2  0  0  0  0  0  0
  187.6240  178.4420  145.5370 C   0  0  0  0  0  2  0  0  0  0  0  0
  183.7490  178.8800  144.6290 C   0  0  0  0  0  0  0  0  0  0  0  0
  182.8550  178.6570  143.5360 N   0  0  0  0  0  0  0  0  0  0  0  0
  185.6720  178.4870  143.2060 C   0  0  0  0  0  0  0  0  0  0  0  0
  183.2880  178.3760  142.3440 C   0  0  0  0  0  3  0  0  0  0  0  0
  185.1930  178.7780  144.4170 C   0  0  0  0  0  3  0  0  0  0  0  0
  184.7580  178.2690  142.0200 C   0  0  0  0  0  2  0  0  0  0  0  0
  183.2950  179.1580  145.7680 O   0  0  0  0  0  0  0  0  0  0  0  0
  189.1770  177.2220  140.2430 C   0  0  0  0  0  2  0  0  0  0  0  0
  188.8730  179.1660  138.8930 O   0  0  0  0  0  0  0  0  0  0  0  0
  187.3590  177.4290  138.5050 N   0  0  0  0  0  2  0  0  0  0  0  0
  188.4850  178.0000  139.1710 C   0  0  0  0  0  0  0  0  0  0  0  0
  186.5640  178.1680  137.5390 C   0  0  0  0  0  2  0  0  0  0  0  0
  184.8060  179.9220  139.0000 O   0  0  0  0  0  1  0  0  0  0  0  0
  185.1210  177.8630  137.7530 C   0  0  0  0  0  0  0  0  0  0  0  0
  184.2910  178.7520  138.4560 C   0  0  0  0  0  0  0  0  0  0  0  0
  182.3960  177.2940  138.0590 C   0  0  0  0  0  3  0  0  0  0  0  0
  183.2190  176.4120  137.3530 C   0  0  0  0  0  3  0  0  0  0  0  0
  184.5780  176.6980  137.1980 C   0  0  0  0  0  3  0  0  0  0  0  0
  182.9310  178.4620  138.6090 C   0  0  0  0  0  3  0  0  0  0  0  0
  1 10  1  0  0  0  0
  1  8  1  0  0  0  0
  2  7  1  0  0  0  0
  2  6  1  0  0  0  0
  3 14  1  6  0  0  0
  3  9  1  0  0  0  0
  3  7  1  0  0  0  0
  4 23  1  6  0  0  0
  4 12  1  0  0  0  0
  4 14  1  0  0  0  0
  5  8  1  0  0  0  0
  6  5  2  0  0  0  0
  7  1  2  0  0  0  0
  9 15  1  1  0  0  0
 11  2  2  0  0  0  0
 12 13  1  0  0  0  0
 13 18  1  1  0  0  0
 13  9  1  0  0  0  0
 15 10  1  0  0  0  0
 16 22  2  0  0  0  0
 17 16  1  0  0  0  0
 18 20  2  0  0  0  0
 19 17  2  0  0  0  0
 20 16  1  0  0  0  0
 21 19  1  0  0  0  0
 21 18  1  0  0  0  0
 24 26  2  0  0  0  0
 25 26  1  0  0  0  0
 26 23  1  0  0  0  0
 27 29  1  0  0  0  0
 27 25  1  0  0  0  0
 29 30  1  0  0  0  0
 30 34  2  0  0  0  0
 30 28  1  0  0  0  0
 31 34  1  0  0  0  0
 32 31  2  0  0  0  0
 33 32  1  0  0  0  0
 33 29  2  0  0  0  0
M  END
>  <MODEL>
9

>  <REMARK>
 VINA RESULT:      -9.4      3.079      7.296
  Name = 
  5 active torsions:
  status: ('A' for Active; 'I' for Inactive)
    1  A    between atoms: C_3  and  C_13
    2  A    between atoms: C_3  and  N_17
    3  A    between atoms: C_5  and  C_18
    4  A    between atoms: C_12  and  C_28
    5  A    between atoms: C_18  and  C_29
                            x       y       z     vdW  Elec       q    Type
                         _______ _______ _______ _____ _____    ______ ____

>  <TORSDO>
F 5

$$$$
