=
 OpenBabel10272415203D

 34 38  0  0  1  0  0  0  0  0999 V2000
  183.9400  178.3340  141.4770 C   0  0  0  0  0  0  0  0  0  0  0  0
  182.6670  177.1660  138.2200 C   0  0  0  0  0  3  0  0  0  0  0  0
  181.6030  178.0410  140.0390 N   0  0  0  0  0  2  0  0  0  0  0  0
  185.6390  179.9000  142.0130 F   0  0  0  0  0  0  0  0  0  0  0  0
  185.2050  178.6100  142.2660 C   0  0  1  0  0  3  0  0  0  0  0  0
  182.6430  178.8700  143.5490 C   0  0  0  0  0  0  0  0  0  0  0  0
  181.4760  179.1960  144.1560 F   0  0  0  0  0  0  0  0  0  0  0  0
  183.7410  178.7750  144.2950 C   0  0  0  0  0  3  0  0  0  0  0  0
  185.0090  178.4360  143.7100 N   0  0  0  0  0  0  0  0  0  0  0  0
  181.5260  178.4420  141.3300 C   0  0  0  0  0  0  0  0  0  0  0  0
  182.6940  178.5500  142.1000 C   0  0  0  0  0  0  0  0  0  0  0  0
  180.3940  178.6800  141.8290 O   0  0  0  0  0  0  0  0  0  0  0  0
  183.7640  176.4940  137.4700 C   0  0  0  0  0  2  0  0  0  0  0  0
  184.8690  177.4240  137.1170 C   0  0  0  0  0  0  0  0  0  0  0  0
  185.5550  178.0560  138.0610 C   0  0  0  0  0  3  0  0  0  0  0  0
  182.7750  177.7620  139.4140 C   0  0  0  0  0  0  0  0  0  0  0  0
  185.2070  178.1220  139.4910 C   0  0  0  0  0  3  0  0  0  0  0  0
  184.0030  178.0100  140.0960 C   0  0  0  0  0  0  0  0  0  0  0  0
  187.0820  177.8210  146.7820 C   0  0  0  0  0  3  0  0  0  0  0  0
  187.3690  177.7480  143.9970 C   0  0  0  0  0  3  0  0  0  0  0  0
  190.6280  176.7950  146.4770 C   0  0  0  0  0  0  0  0  0  0  0  0
  189.3940  177.1500  147.0410 C   0  0  0  0  0  3  0  0  0  0  0  0
  188.3090  177.4670  146.2210 C   0  0  0  0  0  0  0  0  0  0  0  0
  189.6820  177.0780  144.2530 C   0  0  0  0  0  3  0  0  0  0  0  0
  188.4540  177.4300  144.8170 C   0  0  0  0  0  0  0  0  0  0  0  0
  190.7640  176.7620  145.0800 C   0  0  0  0  0  3  0  0  0  0  0  0
  186.1280  178.1020  144.5550 C   0  0  0  0  0  0  0  0  0  0  0  0
  185.9990  178.1360  145.9560 C   0  0  0  0  0  3  0  0  0  0  0  0
  191.7680  176.4630  147.3470 C   0  0  0  0  0  0  0  0  0  0  0  0
  192.0700  177.2090  148.3160 O   0  0  0  0  0  1  0  0  0  0  0  0
  192.5230  175.3220  147.1060 O   0  0  0  0  0  0  0  0  0  0  0  0
  185.3730  177.4870  135.7130 C   0  0  2  0  0  3  0  0  0  0  0  0
  185.3520  176.1120  135.0700 C   0  0  0  0  0  1  0  0  0  0  0  0
  186.6710  177.9990  135.6890 O   0  0  0  0  0  1  0  0  0  0  0  0
  1 11  2  0  0  0  0
  1  5  1  0  0  0  0
  2 16  2  0  0  0  0
  3 10  1  0  0  0  0
  5  4  1  1  0  0  0
  5  9  1  0  0  0  0
  6  7  1  0  0  0  0
  6  8  2  0  0  0  0
  9  8  1  0  0  0  0
  9 27  1  0  0  0  0
 10 12  2  0  0  0  0
 10 11  1  0  0  0  0
 11  6  1  0  0  0  0
 13  2  1  0  0  0  0
 14 13  1  0  0  0  0
 14 15  2  0  0  0  0
 15 17  1  0  0  0  0
 16  3  1  0  0  0  0
 16 18  1  0  0  0  0
 17 18  2  0  0  0  0
 18  1  1  0  0  0  0
 20 27  2  0  0  0  0
 20 25  1  0  0  0  0
 21 22  1  0  0  0  0
 21 29  1  0  0  0  0
 23 19  1  0  0  0  0
 23 22  2  0  0  0  0
 24 25  2  0  0  0  0
 24 26  1  0  0  0  0
 25 23  1  0  0  0  0
 26 21  2  0  0  0  0
 27 28  1  0  0  0  0
 28 19  2  0  0  0  0
 29 30  1  0  0  0  0
 31 29  2  0  0  0  0
 32 33  1  1  0  0  0
 32 14  1  0  0  0  0
 34 32  1  0  0  0  0
M  END
>  <MODEL>
1

>  <REMARK>
 VINA RESULT:     -10.9      0.000      0.000
  Name = 
  3 active torsions:
  status: ('A' for Active; 'I' for Inactive)
    1  A    between atoms: C_3  and  C_25
    2  A    between atoms: C_7  and  C_11
    3  A    between atoms: N_18  and  C_30
                            x       y       z     vdW  Elec       q    Type
                         _______ _______ _______ _____ _____    ______ ____

>  <TORSDO>
F 3

$$$$
=
 OpenBabel10272415203D

 34 38  0  0  1  0  0  0  0  0999 V2000
  183.6230  178.2930  141.5580 C   0  0  0  0  0  0  0  0  0  0  0  0
  181.5430  177.1280  138.7470 C   0  0  0  0  0  3  0  0  0  0  0  0
  180.9940  178.0770  140.7470 N   0  0  0  0  0  2  0  0  0  0  0  0
  185.4600  179.7920  141.6180 F   0  0  0  0  0  0  0  0  0  0  0  0
  185.0530  178.5260  142.0040 C   0  0  1  0  0  3  0  0  0  0  0  0
  182.8990  178.9190  143.8700 C   0  0  0  0  0  0  0  0  0  0  0  0
  181.9300  179.3060  144.7360 F   0  0  0  0  0  0  0  0  0  0  0  0
  184.1420  178.7880  144.3260 C   0  0  0  0  0  3  0  0  0  0  0  0
  185.2130  178.3850  143.4560 N   0  0  0  0  0  0  0  0  0  0  0  0
  181.2530  178.5030  142.0060 C   0  0  0  0  0  0  0  0  0  0  0  0
  182.5780  178.5730  142.4620 C   0  0  0  0  0  0  0  0  0  0  0  0
  180.2890  178.7990  142.7620 O   0  0  0  0  0  0  0  0  0  0  0  0
  182.3950  176.3960  137.7680 C   0  0  0  0  0  2  0  0  0  0  0  0
  183.4130  177.2710  137.1300 C   0  0  0  0  0  0  0  0  0  0  0  0
  184.3340  177.8880  137.8590 C   0  0  0  0  0  3  0  0  0  0  0  0
  181.9650  177.7380  139.8610 C   0  0  0  0  0  0  0  0  0  0  0  0
  184.3520  177.9930  139.3290 C   0  0  0  0  0  3  0  0  0  0  0  0
  183.3310  177.9440  140.2140 C   0  0  0  0  0  0  0  0  0  0  0  0
  188.7920  177.2690  143.6950 C   0  0  0  0  0  3  0  0  0  0  0  0
  186.7000  178.0200  145.4000 C   0  0  0  0  0  3  0  0  0  0  0  0
  190.4310  176.9210  146.9980 C   0  0  0  0  0  0  0  0  0  0  0  0
  190.2300  176.9130  145.6100 C   0  0  0  0  0  3  0  0  0  0  0  0
  188.9920  177.2780  145.0750 C   0  0  0  0  0  0  0  0  0  0  0  0
  188.1360  177.6630  147.3170 C   0  0  0  0  0  3  0  0  0  0  0  0
  187.9380  177.6560  145.9350 C   0  0  0  0  0  0  0  0  0  0  0  0
  189.3780  177.2980  147.8460 C   0  0  0  0  0  3  0  0  0  0  0  0
  186.4920  178.0170  144.0100 C   0  0  0  0  0  0  0  0  0  0  0  0
  187.5510  177.6350  143.1660 C   0  0  0  0  0  3  0  0  0  0  0  0
  191.7370  176.5350  147.5560 C   0  0  0  0  0  0  0  0  0  0  0  0
  192.3570  175.5370  147.1000 O   0  0  0  0  0  0  0  0  0  0  0  0
  192.3010  177.2700  148.5930 O   0  0  0  0  0  1  0  0  0  0  0  0
  183.5570  177.2880  135.6440 C   0  0  2  0  0  3  0  0  0  0  0  0
  182.1980  177.3400  134.9700 C   0  0  0  0  0  1  0  0  0  0  0  0
  184.2540  176.1580  135.2140 O   0  0  0  0  0  1  0  0  0  0  0  0
  1  5  1  0  0  0  0
  1 11  2  0  0  0  0
  2 16  2  0  0  0  0
  3 10  1  0  0  0  0
  5  4  1  1  0  0  0
  5  9  1  0  0  0  0
  6  8  2  0  0  0  0
  6  7  1  0  0  0  0
  9 27  1  0  0  0  0
  9  8  1  0  0  0  0
 10 11  1  0  0  0  0
 10 12  2  0  0  0  0
 11  6  1  0  0  0  0
 13  2  1  0  0  0  0
 14 13  1  0  0  0  0
 14 15  2  0  0  0  0
 15 17  1  0  0  0  0
 16 18  1  0  0  0  0
 16  3  1  0  0  0  0
 17 18  2  0  0  0  0
 18  1  1  0  0  0  0
 19 23  1  0  0  0  0
 20 25  1  0  0  0  0
 21 29  1  0  0  0  0
 21 26  1  0  0  0  0
 22 21  2  0  0  0  0
 23 22  1  0  0  0  0
 23 25  2  0  0  0  0
 24 26  2  0  0  0  0
 25 24  1  0  0  0  0
 27 20  2  0  0  0  0
 28 19  2  0  0  0  0
 28 27  1  0  0  0  0
 29 31  1  0  0  0  0
 30 29  2  0  0  0  0
 32 33  1  6  0  0  0
 32 14  1  0  0  0  0
 34 32  1  0  0  0  0
M  END
>  <MODEL>
2

>  <REMARK>
 VINA RESULT:     -10.6      1.075      1.736
  Name = 
  3 active torsions:
  status: ('A' for Active; 'I' for Inactive)
    1  A    between atoms: C_3  and  C_25
    2  A    between atoms: C_7  and  C_11
    3  A    between atoms: N_18  and  C_30
                            x       y       z     vdW  Elec       q    Type
                         _______ _______ _______ _____ _____    ______ ____

>  <TORSDO>
F 3

$$$$
=
 OpenBabel10272415203D

 34 38  0  0  1  0  0  0  0  0999 V2000
  183.5190  178.0630  139.3620 C   0  0  0  0  0  0  0  0  0  0  0  0
  183.6480  176.4340  136.0580 C   0  0  0  0  0  3  0  0  0  0  0  0
  181.9110  177.3110  137.2490 N   0  0  0  0  0  2  0  0  0  0  0  0
  184.7400  179.8960  140.2430 F   0  0  0  0  0  0  0  0  0  0  0  0
  184.3730  178.5860  140.5000 C   0  0  1  0  0  3  0  0  0  0  0  0
  181.5080  178.5970  140.7520 C   0  0  0  0  0  0  0  0  0  0  0  0
  180.1730  178.8080  140.8590 F   0  0  0  0  0  0  0  0  0  0  0  0
  182.2600  178.7270  141.8430 C   0  0  0  0  0  3  0  0  0  0  0  0
  183.6810  178.5190  141.7920 N   0  0  0  0  0  0  0  0  0  0  0  0
  181.3280  177.8140  138.3630 C   0  0  0  0  0  0  0  0  0  0  0  0
  182.1160  178.1560  139.4720 C   0  0  0  0  0  0  0  0  0  0  0  0
  180.0740  177.9330  138.3950 O   0  0  0  0  0  0  0  0  0  0  0  0
  185.0050  175.8590  135.8400 C   0  0  0  0  0  2  0  0  0  0  0  0
  186.0640  176.9000  135.7760 C   0  0  0  0  0  0  0  0  0  0  0  0
  186.2910  177.7060  136.8050 C   0  0  0  0  0  3  0  0  0  0  0  0
  183.2530  177.1450  137.1210 C   0  0  0  0  0  0  0  0  0  0  0  0
  185.4380  177.8530  137.9980 C   0  0  0  0  0  3  0  0  0  0  0  0
  184.1140  177.6270  138.1500 C   0  0  0  0  0  0  0  0  0  0  0  0
  184.6020  178.7350  145.4280 C   0  0  0  0  0  3  0  0  0  0  0  0
  185.7650  177.9560  143.0020 C   0  0  0  0  0  3  0  0  0  0  0  0
  187.9730  177.7080  146.5720 C   0  0  0  0  0  0  0  0  0  0  0  0
  186.6520  178.1800  146.5920 C   0  0  0  0  0  3  0  0  0  0  0  0
  185.9160  178.2640  145.4080 C   0  0  0  0  0  0  0  0  0  0  0  0
  187.8170  177.4020  144.1630 C   0  0  0  0  0  3  0  0  0  0  0  0
  186.5020  177.8710  144.1850 C   0  0  0  0  0  0  0  0  0  0  0  0
  188.5480  177.3200  145.3520 C   0  0  0  0  0  3  0  0  0  0  0  0
  184.4400  178.4250  143.0150 C   0  0  0  0  0  0  0  0  0  0  0  0
  183.8700  178.8150  144.2400 C   0  0  0  0  0  3  0  0  0  0  0  0
  188.7440  177.6230  147.8230 C   0  0  0  0  0  0  0  0  0  0  0  0
  189.9430  177.2380  147.8080 O   0  0  0  0  0  0  0  0  0  0  0  0
  188.1540  177.9660  149.0340 O   0  0  0  0  0  1  0  0  0  0  0  0
  187.0380  176.9050  134.6440 C   0  0  2  0  0  3  0  0  0  0  0  0
  187.6400  175.5250  134.4430 C   0  0  0  0  0  1  0  0  0  0  0  0
  188.0530  177.8320  134.8850 O   0  0  0  0  0  1  0  0  0  0  0  0
  1 11  2  0  0  0  0
  1  5  1  0  0  0  0
  2 16  2  0  0  0  0
  3 10  1  0  0  0  0
  5  4  1  6  0  0  0
  5  9  1  0  0  0  0
  6  7  1  0  0  0  0
  6  8  2  0  0  0  0
  9  8  1  0  0  0  0
  9 27  1  0  0  0  0
 10 12  2  0  0  0  0
 10 11  1  0  0  0  0
 11  6  1  0  0  0  0
 13  2  1  0  0  0  0
 14 13  1  0  0  0  0
 14 15  2  0  0  0  0
 15 17  1  0  0  0  0
 16  3  1  0  0  0  0
 16 18  1  0  0  0  0
 17 18  2  0  0  0  0
 18  1  1  0  0  0  0
 20 27  2  0  0  0  0
 20 25  1  0  0  0  0
 21 22  1  0  0  0  0
 21 29  1  0  0  0  0
 23 19  1  0  0  0  0
 23 22  2  0  0  0  0
 24 25  2  0  0  0  0
 24 26  1  0  0  0  0
 25 23  1  0  0  0  0
 26 21  2  0  0  0  0
 27 28  1  0  0  0  0
 28 19  2  0  0  0  0
 29 31  1  0  0  0  0
 30 29  2  0  0  0  0
 32 33  1  1  0  0  0
 32 34  1  0  0  0  0
 32 14  1  0  0  0  0
M  END
>  <MODEL>
3

>  <REMARK>
 VINA RESULT:     -10.1      1.728      2.629
  Name = 
  3 active torsions:
  status: ('A' for Active; 'I' for Inactive)
    1  A    between atoms: C_3  and  C_25
    2  A    between atoms: C_7  and  C_11
    3  A    between atoms: N_18  and  C_30
                            x       y       z     vdW  Elec       q    Type
                         _______ _______ _______ _____ _____    ______ ____

>  <TORSDO>
F 3

$$$$
=
 OpenBabel10272415203D

 34 38  0  0  1  0  0  0  0  0999 V2000
  189.7630  176.3570  138.1580 C   0  0  0  0  0  0  0  0  0  0  0  0
  190.4970  173.8640  135.5430 C   0  0  0  0  0  3  0  0  0  0  0  0
  188.9750  175.5610  135.6360 N   0  0  0  0  0  2  0  0  0  0  0  0
  191.1790  177.8810  139.2970 F   0  0  0  0  0  0  0  0  0  0  0  0
  190.2280  176.8960  139.4970 C   0  0  1  0  0  3  0  0  0  0  0  0
  187.7940  177.8910  138.3310 C   0  0  0  0  0  0  0  0  0  0  0  0
  186.7510  178.5380  137.7550 F   0  0  0  0  0  0  0  0  0  0  0  0
  188.0290  178.0940  139.6250 C   0  0  0  0  0  3  0  0  0  0  0  0
  189.1210  177.4410  140.2920 N   0  0  0  0  0  0  0  0  0  0  0  0
  188.2680  176.5310  136.2630 C   0  0  0  0  0  0  0  0  0  0  0  0
  188.6140  176.9200  137.5650 C   0  0  0  0  0  0  0  0  0  0  0  0
  187.2820  177.0470  135.6710 O   0  0  0  0  0  0  0  0  0  0  0  0
  191.4490  172.8500  136.0770 C   0  0  0  0  0  2  0  0  0  0  0  0
  192.7770  173.4310  136.4100 C   0  0  0  0  0  0  0  0  0  0  0  0
  192.8910  174.3920  137.3180 C   0  0  0  0  0  3  0  0  0  0  0  0
  190.0510  174.9470  136.1910 C   0  0  0  0  0  0  0  0  0  0  0  0
  191.7830  175.1500  137.9250 C   0  0  0  0  0  3  0  0  0  0  0  0
  190.5470  175.4140  137.4440 C   0  0  0  0  0  0  0  0  0  0  0  0
  190.5720  177.4720  143.7580 C   0  0  0  0  0  3  0  0  0  0  0  0
  188.0580  177.5420  142.5240 C   0  0  0  0  0  3  0  0  0  0  0  0
  188.3510  177.6330  146.7170 C   0  0  0  0  0  0  0  0  0  0  0  0
  189.5110  177.5680  145.9320 C   0  0  0  0  0  3  0  0  0  0  0  0
  189.4180  177.5380  144.5390 C   0  0  0  0  0  0  0  0  0  0  0  0
  186.9950  177.6360  144.6980 C   0  0  0  0  0  3  0  0  0  0  0  0
  188.1500  177.5730  143.9170 C   0  0  0  0  0  0  0  0  0  0  0  0
  187.0950  177.6660  146.0920 C   0  0  0  0  0  3  0  0  0  0  0  0
  189.2160  177.4800  141.7300 C   0  0  0  0  0  0  0  0  0  0  0  0
  190.4720  177.4430  142.3630 C   0  0  0  0  0  3  0  0  0  0  0  0
  188.4560  177.6630  148.1850 C   0  0  0  0  0  0  0  0  0  0  0  0
  187.5570  177.1470  148.9010 O   0  0  0  0  0  1  0  0  0  0  0  0
  189.5500  178.2650  148.7970 O   0  0  0  0  0  0  0  0  0  0  0  0
  194.0230  172.7890  135.8970 C   0  0  2  0  0  3  0  0  0  0  0  0
  194.1210  171.3490  136.3680 C   0  0  0  0  0  1  0  0  0  0  0  0
  195.1440  173.5020  136.3230 O   0  0  0  0  0  1  0  0  0  0  0  0
  1  5  1  0  0  0  0
  2 13  1  0  0  0  0
  2 16  2  0  0  0  0
  3 16  1  0  0  0  0
  3 10  1  0  0  0  0
  5  4  1  6  0  0  0
  5  9  1  0  0  0  0
  6  8  2  0  0  0  0
  7  6  1  0  0  0  0
  8  9  1  0  0  0  0
  9 27  1  0  0  0  0
 10 11  1  0  0  0  0
 11  1  2  0  0  0  0
 11  6  1  0  0  0  0
 12 10  2  0  0  0  0
 13 14  1  0  0  0  0
 14 15  2  0  0  0  0
 15 17  1  0  0  0  0
 16 18  1  0  0  0  0
 18 17  2  0  0  0  0
 18  1  1  0  0  0  0
 19 23  1  0  0  0  0
 20 25  1  0  0  0  0
 21 29  1  0  0  0  0
 22 21  2  0  0  0  0
 23 22  1  0  0  0  0
 24 26  2  0  0  0  0
 25 23  2  0  0  0  0
 25 24  1  0  0  0  0
 26 21  1  0  0  0  0
 27 28  1  0  0  0  0
 27 20  2  0  0  0  0
 28 19  2  0  0  0  0
 29 31  2  0  0  0  0
 29 30  1  0  0  0  0
 32 34  1  0  0  0  0
 32 33  1  1  0  0  0
 32 14  1  0  0  0  0
M  END
>  <MODEL>
4

>  <REMARK>
 VINA RESULT:      -9.6      5.132      6.774
  Name = 
  3 active torsions:
  status: ('A' for Active; 'I' for Inactive)
    1  A    between atoms: C_3  and  C_25
    2  A    between atoms: C_7  and  C_11
    3  A    between atoms: N_18  and  C_30
                            x       y       z     vdW  Elec       q    Type
                         _______ _______ _______ _____ _____    ______ ____

>  <TORSDO>
F 3

$$$$
=
 OpenBabel10272415203D

 34 38  0  0  1  0  0  0  0  0999 V2000
  190.6030  176.5690  137.8670 C   0  0  0  0  0  0  0  0  0  0  0  0
  191.7530  174.1230  135.3610 C   0  0  0  0  0  3  0  0  0  0  0  0
  190.4490  175.9860  135.1740 N   0  0  0  0  0  2  0  0  0  0  0  0
  191.8080  177.8590  139.4510 F   0  0  0  0  0  0  0  0  0  0  0  0
  190.7400  176.9880  139.3170 C   0  0  1  0  0  3  0  0  0  0  0  0
  188.8320  178.3210  137.6270 C   0  0  0  0  0  0  0  0  0  0  0  0
  188.0590  179.1140  136.8460 F   0  0  0  0  0  0  0  0  0  0  0  0
  188.7270  178.4370  138.9490 C   0  0  0  0  0  3  0  0  0  0  0  0
  189.5230  177.6280  139.8300 N   0  0  0  0  0  0  0  0  0  0  0  0
  189.7040  177.0060  135.6620 C   0  0  0  0  0  0  0  0  0  0  0  0
  189.7230  177.2920  137.0350 C   0  0  0  0  0  0  0  0  0  0  0  0
  188.9760  177.6630  134.8710 O   0  0  0  0  0  0  0  0  0  0  0  0
  192.4130  172.9790  136.0500 C   0  0  0  0  0  2  0  0  0  0  0  0
  193.6540  173.3800  136.7650 C   0  0  0  0  0  0  0  0  0  0  0  0
  193.6170  174.2790  137.7400 C   0  0  0  0  0  3  0  0  0  0  0  0
  191.2640  175.2230  135.9470 C   0  0  0  0  0  0  0  0  0  0  0  0
  192.4720  175.1380  138.0870 C   0  0  0  0  0  3  0  0  0  0  0  0
  191.4470  175.5700  137.3180 C   0  0  0  0  0  0  0  0  0  0  0  0
  187.6050  177.6640  143.0600 C   0  0  0  0  0  3  0  0  0  0  0  0
  190.2590  177.4700  142.1870 C   0  0  0  0  0  3  0  0  0  0  0  0
  189.3820  177.3870  146.2980 C   0  0  0  0  0  0  0  0  0  0  0  0
  188.3470  177.5110  145.3600 C   0  0  0  0  0  3  0  0  0  0  0  0
  188.6340  177.5390  143.9940 C   0  0  0  0  0  0  0  0  0  0  0  0
  191.0040  177.3180  144.4870 C   0  0  0  0  0  3  0  0  0  0  0  0
  189.9730  177.4410  143.5540 C   0  0  0  0  0  0  0  0  0  0  0  0
  190.7090  177.2910  145.8530 C   0  0  0  0  0  3  0  0  0  0  0  0
  189.2270  177.5920  141.2410 C   0  0  0  0  0  0  0  0  0  0  0  0
  187.8990  177.6910  141.6940 C   0  0  0  0  0  3  0  0  0  0  0  0
  189.0730  177.3590  147.7370 C   0  0  0  0  0  0  0  0  0  0  0  0
  188.2240  176.5470  148.1920 O   0  0  0  0  0  0  0  0  0  0  0  0
  189.7150  178.2300  148.6090 O   0  0  0  0  0  1  0  0  0  0  0  0
  194.9180  172.6140  136.5530 C   0  0  2  0  0  3  0  0  0  0  0  0
  195.4650  172.0990  137.8720 C   0  0  0  0  0  1  0  0  0  0  0  0
  195.8710  173.4200  135.9290 O   0  0  0  0  0  1  0  0  0  0  0  0
  1  5  1  0  0  0  0
  2 16  2  0  0  0  0
  2 13  1  0  0  0  0
  3 10  1  0  0  0  0
  3 16  1  0  0  0  0
  5  4  1  6  0  0  0
  5  9  1  0  0  0  0
  6  8  2  0  0  0  0
  7  6  1  0  0  0  0
  8  9  1  0  0  0  0
  9 27  1  0  0  0  0
 10 11  1  0  0  0  0
 11  6  1  0  0  0  0
 11  1  2  0  0  0  0
 12 10  2  0  0  0  0
 13 14  1  0  0  0  0
 14 15  2  0  0  0  0
 15 17  1  0  0  0  0
 16 18  1  0  0  0  0
 18  1  1  0  0  0  0
 18 17  2  0  0  0  0
 19 23  1  0  0  0  0
 20 25  1  0  0  0  0
 21 29  1  0  0  0  0
 22 21  2  0  0  0  0
 23 22  1  0  0  0  0
 24 26  2  0  0  0  0
 25 23  2  0  0  0  0
 25 24  1  0  0  0  0
 26 21  1  0  0  0  0
 27 28  1  0  0  0  0
 27 20  2  0  0  0  0
 28 19  2  0  0  0  0
 29 30  2  0  0  0  0
 29 31  1  0  0  0  0
 32 14  1  0  0  0  0
 32 33  1  1  0  0  0
 34 32  1  0  0  0  0
M  END
>  <MODEL>
5

>  <REMARK>
 VINA RESULT:      -9.2      5.626      7.435
  Name = 
  3 active torsions:
  status: ('A' for Active; 'I' for Inactive)
    1  A    between atoms: C_3  and  C_25
    2  A    between atoms: C_7  and  C_11
    3  A    between atoms: N_18  and  C_30
                            x       y       z     vdW  Elec       q    Type
                         _______ _______ _______ _____ _____    ______ ____

>  <TORSDO>
F 3

$$$$
=
 OpenBabel10272415203D

 34 38  0  0  1  0  0  0  0  0999 V2000
  188.0480  177.3030  138.3090 C   0  0  0  0  0  0  0  0  0  0  0  0
  189.3730  175.2430  135.5540 C   0  0  0  0  0  3  0  0  0  0  0  0
  187.5150  176.5570  135.7060 N   0  0  0  0  0  2  0  0  0  0  0  0
  189.0680  179.0020  139.6120 F   0  0  0  0  0  0  0  0  0  0  0  0
  188.3500  177.8210  139.7010 C   0  0  1  0  0  3  0  0  0  0  0  0
  185.7870  178.3560  138.5100 C   0  0  0  0  0  0  0  0  0  0  0  0
  184.6420  178.8060  137.9400 F   0  0  0  0  0  0  0  0  0  0  0  0
  185.9400  178.5020  139.8250 C   0  0  0  0  0  3  0  0  0  0  0  0
  187.1320  178.0500  140.4870 N   0  0  0  0  0  0  0  0  0  0  0  0
  186.5980  177.2990  136.3710 C   0  0  0  0  0  0  0  0  0  0  0  0
  186.8180  177.6490  137.7110 C   0  0  0  0  0  0  0  0  0  0  0  0
  185.5380  177.6350  135.7770 O   0  0  0  0  0  0  0  0  0  0  0  0
  190.5110  174.4190  136.0520 C   0  0  0  0  0  2  0  0  0  0  0  0
  191.6700  175.2460  136.4810 C   0  0  0  0  0  0  0  0  0  0  0  0
  191.5490  176.1330  137.4590 C   0  0  0  0  0  3  0  0  0  0  0  0
  188.6850  176.1490  136.2590 C   0  0  0  0  0  0  0  0  0  0  0  0
  190.2880  176.5840  138.0730 C   0  0  0  0  0  3  0  0  0  0  0  0
  189.0360  176.6110  137.5620 C   0  0  0  0  0  0  0  0  0  0  0  0
  186.0400  178.0520  144.0820 C   0  0  0  0  0  3  0  0  0  0  0  0
  188.4070  177.8480  142.5980 C   0  0  0  0  0  3  0  0  0  0  0  0
  188.5340  177.7080  146.7980 C   0  0  0  0  0  0  0  0  0  0  0  0
  187.3070  177.8560  146.1360 C   0  0  0  0  0  3  0  0  0  0  0  0
  187.2610  177.9030  144.7410 C   0  0  0  0  0  0  0  0  0  0  0  0
  189.6770  177.6530  144.6510 C   0  0  0  0  0  3  0  0  0  0  0  0
  188.4540  177.8000  143.9930 C   0  0  0  0  0  0  0  0  0  0  0  0
  189.7160  177.6070  146.0480 C   0  0  0  0  0  3  0  0  0  0  0  0
  187.1810  177.9940  141.9270 C   0  0  0  0  0  0  0  0  0  0  0  0
  186.0010  178.0980  142.6850 C   0  0  0  0  0  3  0  0  0  0  0  0
  188.5760  177.6600  148.2690 C   0  0  0  0  0  0  0  0  0  0  0  0
  187.5820  177.2490  148.9230 O   0  0  0  0  0  0  0  0  0  0  0  0
  189.7160  178.0700  148.9510 O   0  0  0  0  0  1  0  0  0  0  0  0
  193.0390  174.9300  135.9740 C   0  0  2  0  0  3  0  0  0  0  0  0
  193.8520  176.1980  135.7880 C   0  0  0  0  0  1  0  0  0  0  0  0
  192.9580  174.2390  134.7640 O   0  0  0  0  0  1  0  0  0  0  0  0
  1  5  1  0  0  0  0
  2 13  1  0  0  0  0
  2 16  2  0  0  0  0
  3 16  1  0  0  0  0
  3 10  1  0  0  0  0
  5  4  1  6  0  0  0
  5  9  1  0  0  0  0
  6  8  2  0  0  0  0
  7  6  1  0  0  0  0
  8  9  1  0  0  0  0
  9 27  1  0  0  0  0
 10 11  1  0  0  0  0
 11  1  2  0  0  0  0
 11  6  1  0  0  0  0
 12 10  2  0  0  0  0
 13 14  1  0  0  0  0
 14 15  2  0  0  0  0
 15 17  1  0  0  0  0
 16 18  1  0  0  0  0
 18 17  2  0  0  0  0
 18  1  1  0  0  0  0
 19 23  1  0  0  0  0
 20 25  1  0  0  0  0
 21 29  1  0  0  0  0
 22 21  1  0  0  0  0
 23 22  2  0  0  0  0
 24 26  1  0  0  0  0
 25 24  2  0  0  0  0
 25 23  1  0  0  0  0
 26 21  2  0  0  0  0
 27 20  2  0  0  0  0
 27 28  1  0  0  0  0
 28 19  2  0  0  0  0
 29 30  2  0  0  0  0
 29 31  1  0  0  0  0
 32 33  1  6  0  0  0
 32 14  1  0  0  0  0
 34 32  1  0  0  0  0
M  END
>  <MODEL>
6

>  <REMARK>
 VINA RESULT:      -9.2      4.001      5.424
  Name = 
  3 active torsions:
  status: ('A' for Active; 'I' for Inactive)
    1  A    between atoms: C_3  and  C_25
    2  A    between atoms: C_7  and  C_11
    3  A    between atoms: N_18  and  C_30
                            x       y       z     vdW  Elec       q    Type
                         _______ _______ _______ _____ _____    ______ ____

>  <TORSDO>
F 3

$$$$
=
 OpenBabel10272415203D

 34 38  0  0  1  0  0  0  0  0999 V2000
  187.7180  177.6220  145.0650 C   0  0  0  0  0  0  0  0  0  0  0  0
  189.4720  178.1700  148.2620 C   0  0  0  0  0  3  0  0  0  0  0  0
  187.2920  178.4680  147.6580 N   0  0  0  0  0  2  0  0  0  0  0  0
  187.6010  175.7150  143.6610 F   0  0  0  0  0  0  0  0  0  0  0  0
  187.8790  177.0710  143.6630 C   0  0  1  0  0  3  0  0  0  0  0  0
  185.4300  178.3860  144.4000 C   0  0  0  0  0  0  0  0  0  0  0  0
  184.1890  178.8180  144.7350 F   0  0  0  0  0  0  0  0  0  0  0  0
  185.7130  178.2070  143.1120 C   0  0  0  0  0  3  0  0  0  0  0  0
  187.0090  177.7480  142.6950 N   0  0  0  0  0  0  0  0  0  0  0  0
  186.2760  178.5610  146.7680 C   0  0  0  0  0  0  0  0  0  0  0  0
  186.4780  178.1870  145.4320 C   0  0  0  0  0  0  0  0  0  0  0  0
  185.1660  179.0180  147.1540 O   0  0  0  0  0  0  0  0  0  0  0  0
  190.9390  178.0160  148.0560 C   0  0  0  0  0  2  0  0  0  0  0  0
  191.3200  176.6340  147.6620 C   0  0  0  0  0  0  0  0  0  0  0  0
  190.8470  176.0880  146.5490 C   0  0  0  0  0  3  0  0  0  0  0  0
  188.5210  177.9880  147.3370 C   0  0  0  0  0  0  0  0  0  0  0  0
  189.7630  176.6270  145.7090 C   0  0  0  0  0  3  0  0  0  0  0  0
  188.7360  177.4430  146.0370 C   0  0  0  0  0  0  0  0  0  0  0  0
  186.8710  178.4400  139.0040 C   0  0  0  0  0  3  0  0  0  0  0  0
  188.5800  177.2180  140.8570 C   0  0  0  0  0  3  0  0  0  0  0  0
  189.6240  177.3340  136.7870 C   0  0  0  0  0  0  0  0  0  0  0  0
  188.4200  177.9070  137.2210 C   0  0  0  0  0  3  0  0  0  0  0  0
  188.0700  177.8710  138.5720 C   0  0  0  0  0  0  0  0  0  0  0  0
  190.1300  176.6830  139.0750 C   0  0  0  0  0  3  0  0  0  0  0  0
  188.9310  177.2550  139.5060 C   0  0  0  0  0  0  0  0  0  0  0  0
  190.4750  176.7230  137.7210 C   0  0  0  0  0  3  0  0  0  0  0  0
  187.3760  177.7920  141.3010 C   0  0  0  0  0  0  0  0  0  0  0  0
  186.5270  178.4000  140.3590 C   0  0  0  0  0  3  0  0  0  0  0  0
  189.9880  177.3760  135.3610 C   0  0  0  0  0  0  0  0  0  0  0  0
  189.3350  178.0920  134.5560 O   0  0  0  0  0  0  0  0  0  0  0  0
  191.0560  176.6220  134.8880 O   0  0  0  0  0  1  0  0  0  0  0  0
  192.4140  175.9260  148.3910 C   0  0  2  0  0  3  0  0  0  0  0  0
  193.1230  176.8670  149.3480 C   0  0  0  0  0  1  0  0  0  0  0  0
  193.3320  175.3950  147.4830 O   0  0  0  0  0  1  0  0  0  0  0  0
  1 11  2  0  0  0  0
  1 18  1  0  0  0  0
  5  4  1  1  0  0  0
  5  1  1  0  0  0  0
  6  7  1  0  0  0  0
  6 11  1  0  0  0  0
  8  6  2  0  0  0  0
  9  8  1  0  0  0  0
  9  5  1  0  0  0  0
 10 12  2  0  0  0  0
 10  3  1  0  0  0  0
 11 10  1  0  0  0  0
 13  2  1  0  0  0  0
 14 13  1  0  0  0  0
 14 32  1  0  0  0  0
 15 14  2  0  0  0  0
 16  3  1  0  0  0  0
 16  2  2  0  0  0  0
 17 18  2  0  0  0  0
 17 15  1  0  0  0  0
 18 16  1  0  0  0  0
 19 28  1  0  0  0  0
 20 27  1  0  0  0  0
 21 22  2  0  0  0  0
 21 26  1  0  0  0  0
 22 23  1  0  0  0  0
 23 19  2  0  0  0  0
 23 25  1  0  0  0  0
 24 25  1  0  0  0  0
 25 20  2  0  0  0  0
 26 24  2  0  0  0  0
 27  9  1  0  0  0  0
 28 27  2  0  0  0  0
 29 21  1  0  0  0  0
 30 29  2  0  0  0  0
 31 29  1  0  0  0  0
 32 33  1  1  0  0  0
 34 32  1  0  0  0  0
M  END
>  <MODEL>
7

>  <REMARK>
 VINA RESULT:      -8.6      3.000      8.980
  Name = 
  3 active torsions:
  status: ('A' for Active; 'I' for Inactive)
    1  A    between atoms: C_3  and  C_25
    2  A    between atoms: C_7  and  C_11
    3  A    between atoms: N_18  and  C_30
                            x       y       z     vdW  Elec       q    Type
                         _______ _______ _______ _____ _____    ______ ____

>  <TORSDO>
F 3

$$$$
=
 OpenBabel10272415203D

 34 38  0  0  1  0  0  0  0  0999 V2000
  186.7420  178.2950  142.0680 C   0  0  0  0  0  0  0  0  0  0  0  0
  183.0600  178.1230  142.0260 C   0  0  0  0  0  3  0  0  0  0  0  0
  184.5600  178.0880  143.7450 N   0  0  0  0  0  2  0  0  0  0  0  0
  188.2380  179.8630  141.1070 F   0  0  0  0  0  0  0  0  0  0  0  0
  187.9650  178.5100  141.1990 C   0  0  1  0  0  3  0  0  0  0  0  0
  188.2960  177.8170  143.9700 C   0  0  0  0  0  0  0  0  0  0  0  0
  188.5240  177.6840  145.3000 F   0  0  0  0  0  0  0  0  0  0  0  0
  189.3220  177.6750  143.1340 C   0  0  0  0  0  3  0  0  0  0  0  0
  189.1460  177.8080  141.7150 N   0  0  0  0  0  0  0  0  0  0  0  0
  185.8010  177.9900  144.2780 C   0  0  0  0  0  0  0  0  0  0  0  0
  186.9270  178.0400  143.4430 C   0  0  0  0  0  0  0  0  0  0  0  0
  185.9200  177.8200  145.5210 O   0  0  0  0  0  0  0  0  0  0  0  0
  182.5860  177.9750  140.6210 C   0  0  0  0  0  2  0  0  0  0  0  0
  182.9060  179.1600  139.7820 C   0  0  0  0  0  0  0  0  0  0  0  0
  184.1620  179.5390  139.5890 C   0  0  0  0  0  3  0  0  0  0  0  0
  184.3310  178.2720  142.4190 C   0  0  0  0  0  0  0  0  0  0  0  0
  185.3430  179.0340  140.3120 C   0  0  0  0  0  3  0  0  0  0  0  0
  185.4370  178.4920  141.5470 C   0  0  0  0  0  0  0  0  0  0  0  0
  192.5790  177.2880  140.2800 C   0  0  0  0  0  3  0  0  0  0  0  0
  189.9090  176.7980  139.5880 C   0  0  0  0  0  3  0  0  0  0  0  0
  193.0030  175.6800  136.9700 C   0  0  0  0  0  0  0  0  0  0  0  0
  193.3040  176.2990  138.1920 C   0  0  0  0  0  3  0  0  0  0  0  0
  192.2790  176.6720  139.0640 C   0  0  0  0  0  0  0  0  0  0  0  0
  190.6320  175.8090  137.4990 C   0  0  0  0  0  3  0  0  0  0  0  0
  190.9330  176.4240  138.7160 C   0  0  0  0  0  0  0  0  0  0  0  0
  191.6630  175.4390  136.6300 C   0  0  0  0  0  3  0  0  0  0  0  0
  190.2030  177.4160  140.8160 C   0  0  0  0  0  0  0  0  0  0  0  0
  191.5480  177.6580  141.1490 C   0  0  0  0  0  3  0  0  0  0  0  0
  194.0880  175.2900  136.0540 C   0  0  0  0  0  0  0  0  0  0  0  0
  193.8660  174.4930  135.1040 O   0  0  0  0  0  0  0  0  0  0  0  0
  195.3690  175.7990  136.2300 O   0  0  0  0  0  1  0  0  0  0  0  0
  181.8370  179.8040  138.9620 C   0  0  2  0  0  3  0  0  0  0  0  0
  181.4870  178.9440  137.7600 C   0  0  0  0  0  1  0  0  0  0  0  0
  182.2520  181.0660  138.5340 O   0  0  0  0  0  1  0  0  0  0  0  0
  1 11  2  0  0  0  0
  2 16  2  0  0  0  0
  3 10  1  0  0  0  0
  5  4  1  1  0  0  0
  5  9  1  0  0  0  0
  5  1  1  0  0  0  0
  6  7  1  0  0  0  0
  8  6  2  0  0  0  0
  9  8  1  0  0  0  0
 10 12  2  0  0  0  0
 11  6  1  0  0  0  0
 11 10  1  0  0  0  0
 13  2  1  0  0  0  0
 14 13  1  0  0  0  0
 15 14  2  0  0  0  0
 15 17  1  0  0  0  0
 16  3  1  0  0  0  0
 17 18  2  0  0  0  0
 18  1  1  0  0  0  0
 18 16  1  0  0  0  0
 19 28  1  0  0  0  0
 20 27  1  0  0  0  0
 21 22  2  0  0  0  0
 22 23  1  0  0  0  0
 23 19  2  0  0  0  0
 24 25  1  0  0  0  0
 25 23  1  0  0  0  0
 25 20  2  0  0  0  0
 26 21  1  0  0  0  0
 26 24  2  0  0  0  0
 27 28  2  0  0  0  0
 27  9  1  0  0  0  0
 29 31  1  0  0  0  0
 29 21  1  0  0  0  0
 30 29  2  0  0  0  0
 32 33  1  6  0  0  0
 32 14  1  0  0  0  0
 34 32  1  0  0  0  0
M  END
>  <MODEL>
8

>  <REMARK>
 VINA RESULT:      -8.3      4.537      6.642
  Name = 
  3 active torsions:
  status: ('A' for Active; 'I' for Inactive)
    1  A    between atoms: C_3  and  C_25
    2  A    between atoms: C_7  and  C_11
    3  A    between atoms: N_18  and  C_30
                            x       y       z     vdW  Elec       q    Type
                         _______ _______ _______ _____ _____    ______ ____

>  <TORSDO>
F 3

$$$$
=
 OpenBabel10272415203D

 34 38  0  0  1  0  0  0  0  0999 V2000
  184.7350  178.6540  142.5900 C   0  0  0  0  0  0  0  0  0  0  0  0
  181.0630  178.4370  142.3330 C   0  0  0  0  0  3  0  0  0  0  0  0
  182.4470  178.6510  144.1340 N   0  0  0  0  0  2  0  0  0  0  0  0
  186.2870  180.0960  141.5240 F   0  0  0  0  0  0  0  0  0  0  0  0
  186.0110  178.7640  141.7790 C   0  0  1  0  0  3  0  0  0  0  0  0
  186.1620  178.4540  144.6350 C   0  0  0  0  0  0  0  0  0  0  0  0
  186.3020  178.5030  145.9830 F   0  0  0  0  0  0  0  0  0  0  0  0
  187.2410  178.2120  143.8940 C   0  0  0  0  0  3  0  0  0  0  0  0
  187.1570  178.1510  142.4610 N   0  0  0  0  0  0  0  0  0  0  0  0
  183.6510  178.6390  144.7540 C   0  0  0  0  0  0  0  0  0  0  0  0
  184.8290  178.5890  143.9950 C   0  0  0  0  0  0  0  0  0  0  0  0
  183.6890  178.6400  146.0140 O   0  0  0  0  0  0  0  0  0  0  0  0
  180.6820  178.0970  140.9340 C   0  0  0  0  0  2  0  0  0  0  0  0
  181.0540  179.1620  139.9650 C   0  0  0  0  0  0  0  0  0  0  0  0
  182.3200  179.5250  139.8040 C   0  0  0  0  0  3  0  0  0  0  0  0
  182.3050  178.6520  142.7840 C   0  0  0  0  0  0  0  0  0  0  0  0
  183.4510  179.1350  140.6630 C   0  0  0  0  0  3  0  0  0  0  0  0
  183.4660  178.7650  141.9630 C   0  0  0  0  0  0  0  0  0  0  0  0
  190.4200  176.5020  141.5930 C   0  0  0  0  0  3  0  0  0  0  0  0
  188.3260  177.8410  140.3010 C   0  0  0  0  0  3  0  0  0  0  0  0
  191.5930  176.4030  138.0810 C   0  0  0  0  0  0  0  0  0  0  0  0
  191.5480  176.2130  139.4700 C   0  0  0  0  0  3  0  0  0  0  0  0
  190.4640  176.6900  140.2110 C   0  0  0  0  0  0  0  0  0  0  0  0
  189.4530  177.5550  138.1770 C   0  0  0  0  0  3  0  0  0  0  0  0
  189.4090  177.3650  139.5600 C   0  0  0  0  0  0  0  0  0  0  0  0
  190.5410  177.0750  137.4410 C   0  0  0  0  0  3  0  0  0  0  0  0
  188.2720  177.6530  141.6930 C   0  0  0  0  0  0  0  0  0  0  0  0
  189.3320  176.9810  142.3290 C   0  0  0  0  0  3  0  0  0  0  0  0
  192.7390  175.8990  137.3060 C   0  0  0  0  0  0  0  0  0  0  0  0
  192.7660  174.7030  136.9090 O   0  0  0  0  0  0  0  0  0  0  0  0
  193.8040  176.7390  137.0040 O   0  0  0  0  0  1  0  0  0  0  0  0
  180.0400  179.6780  138.9980 C   0  0  2  0  0  3  0  0  0  0  0  0
  180.3690  179.2370  137.5830 C   0  0  0  0  0  1  0  0  0  0  0  0
  179.9820  181.0710  139.0570 O   0  0  0  0  0  1  0  0  0  0  0  0
  1 11  2  0  0  0  0
  2 16  2  0  0  0  0
  3 10  1  0  0  0  0
  5  4  1  1  0  0  0
  5  9  1  0  0  0  0
  5  1  1  0  0  0  0
  6  7  1  0  0  0  0
  8  6  2  0  0  0  0
  9  8  1  0  0  0  0
 10 12  2  0  0  0  0
 11  6  1  0  0  0  0
 11 10  1  0  0  0  0
 13  2  1  0  0  0  0
 14 13  1  0  0  0  0
 15 14  2  0  0  0  0
 15 17  1  0  0  0  0
 16  3  1  0  0  0  0
 17 18  2  0  0  0  0
 18  1  1  0  0  0  0
 18 16  1  0  0  0  0
 19 28  1  0  0  0  0
 20 27  1  0  0  0  0
 21 22  2  0  0  0  0
 22 23  1  0  0  0  0
 23 19  2  0  0  0  0
 24 25  1  0  0  0  0
 25 23  1  0  0  0  0
 25 20  2  0  0  0  0
 26 21  1  0  0  0  0
 26 24  2  0  0  0  0
 27 28  2  0  0  0  0
 27  9  1  0  0  0  0
 29 21  1  0  0  0  0
 30 29  2  0  0  0  0
 31 29  1  0  0  0  0
 32 33  1  6  0  0  0
 32 34  1  0  0  0  0
 32 14  1  0  0  0  0
M  END
>  <MODEL>
9

>  <REMARK>
 VINA RESULT:      -8.2      3.838      5.767
  Name = 
  3 active torsions:
  status: ('A' for Active; 'I' for Inactive)
    1  A    between atoms: C_3  and  C_25
    2  A    between atoms: C_7  and  C_11
    3  A    between atoms: N_18  and  C_30
                            x       y       z     vdW  Elec       q    Type
                         _______ _______ _______ _____ _____    ______ ____

>  <TORSDO>
F 3

$$$$
