=
 OpenBabel10272413093D

 32 36  0  0  1  0  0  0  0  0999 V2000
  186.4800  178.5270  140.3040 C   0  0  0  0  0  0  0  0  0  0  0  0
  188.9390  178.0350  140.2410 C   0  0  2  0  0  3  0  0  0  0  0  0
  185.4200  178.8570  139.6240 N   0  0  0  0  0  0  0  0  0  0  0  0
  187.5590  177.6830  139.6800 C   0  0  2  0  0  3  0  0  0  0  0  0
  189.8510  177.0290  139.8880 O   0  0  0  0  0  0  0  0  0  0  0  0
  188.9420  178.3940  141.7550 C   0  0  1  0  0  3  0  0  0  0  0  0
  189.7510  176.9840  137.4360 C   0  0  2  0  0  3  0  0  0  0  0  0
  187.6130  177.8240  138.1570 C   0  0  1  0  0  3  0  0  0  0  0  0
  188.3250  176.6750  137.6060 N   0  0  0  0  0  2  0  0  0  0  0  0
  186.2430  177.9320  137.5530 C   0  0  0  0  0  3  0  0  0  0  0  0
  187.6640  178.0620  142.3910 N   0  0  0  0  0  2  0  0  0  0  0  0
  190.4700  175.7480  136.9370 C   0  0  0  0  0  1  0  0  0  0  0  0
  186.6000  178.8600  141.7720 C   0  0  2  0  0  3  0  0  0  0  0  0
  190.4490  177.5030  138.7100 C   0  0  0  0  0  2  0  0  0  0  0  0
  185.2400  178.4700  138.2520 C   0  0  0  0  0  3  0  0  0  0  0  0
  184.4630  178.7080  144.8650 C   0  0  0  0  0  0  0  0  0  0  0  0
  181.0860  178.6200  143.9490 O   0  0  0  0  0  1  0  0  0  0  0  0
  184.5940  178.3470  146.1680 F   0  0  0  0  0  0  0  0  0  0  0  0
  182.7870  178.5280  142.3330 C   0  0  0  0  0  3  0  0  0  0  0  0
  185.3060  178.6670  142.5150 C   0  0  0  0  0  0  0  0  0  0  0  0
  183.3090  179.5800  144.5010 C   0  0  0  0  0  2  0  0  0  0  0  0
  184.1570  178.6970  141.8110 C   0  0  0  0  0  3  0  0  0  0  0  0
  185.3820  178.3240  143.9640 C   0  0  0  0  0  0  0  0  0  0  0  0
  186.5600  177.5370  144.4410 C   0  0  0  0  0  1  0  0  0  0  0  0
  182.3940  178.8780  143.5570 C   0  0  0  0  0  0  0  0  0  0  0  0
  191.5940  175.8600  144.8170 C   0  0  0  0  0  2  0  0  0  0  0  0
  191.8120  178.3580  144.3590 C   0  0  0  0  0  2  0  0  0  0  0  0
  190.5340  178.7880  143.6510 C   0  0  0  0  0  2  0  0  0  0  0  0
  190.1280  177.8160  142.5420 C   0  0  0  0  0  3  0  0  0  0  0  0
  189.7760  176.4490  143.1290 C   0  0  0  0  0  2  0  0  0  0  0  0
  191.4880  177.2800  145.3820 C   0  0  0  0  0  2  0  0  0  0  0  0
  191.0550  175.6690  143.3950 C   0  0  0  0  0  2  0  0  0  0  0  0
  1 13  1  0  0  0  0
  2  5  1  1  0  0  0
  2  6  1  0  0  0  0
  3  1  2  0  0  0  0
  4  2  1  0  0  0  0
  4  1  1  1  0  0  0
  6 11  1  0  0  0  0
  6 29  1  1  0  0  0
  7 12  1  1  0  0  0
  7  9  1  0  0  0  0
  7 14  1  0  0  0  0
  8 10  1  6  0  0  0
  8  4  1  0  0  0  0
  9  8  1  0  0  0  0
 10 15  2  0  0  0  0
 13 11  1  0  0  0  0
 13 20  1  1  0  0  0
 14  5  1  0  0  0  0
 15  3  1  0  0  0  0
 16 18  1  0  0  0  0
 19 25  2  0  0  0  0
 20 23  1  0  0  0  0
 21 16  1  0  0  0  0
 22 19  1  0  0  0  0
 22 20  2  0  0  0  0
 23 24  1  0  0  0  0
 23 16  2  0  0  0  0
 25 17  1  0  0  0  0
 25 21  1  0  0  0  0
 26 31  1  0  0  0  0
 27 31  1  0  0  0  0
 28 27  1  0  0  0  0
 29 30  1  0  0  0  0
 29 28  1  0  0  0  0
 30 32  1  0  0  0  0
 32 26  1  0  0  0  0
M  END
>  <MODEL>
1

>  <REMARK>
 VINA RESULT:     -10.7      0.000      0.000
  Name = 
  2 active torsions:
  status: ('A' for Active; 'I' for Inactive)
    1  A    between atoms: C_10  and  C_17
    2  A    between atoms: C_16  and  C_27
                            x       y       z     vdW  Elec       q    Type
                         _______ _______ _______ _____ _____    ______ ____

>  <TORSDO>
F 2

$$$$
=
 OpenBabel10272413093D

 32 36  0  0  1  0  0  0  0  0999 V2000
  187.9490  178.0630  139.7700 C   0  0  0  0  0  0  0  0  0  0  0  0
  188.6070  177.3680  137.4510 C   0  0  2  0  0  3  0  0  0  0  0  0
  187.1020  178.7240  140.5070 N   0  0  0  0  0  0  0  0  0  0  0  0
  187.4950  177.3860  138.5030 C   0  0  2  0  0  3  0  0  0  0  0  0
  188.2660  176.4620  136.4360 O   0  0  0  0  0  0  0  0  0  0  0  0
  190.0360  177.1630  138.0330 C   0  0  1  0  0  3  0  0  0  0  0  0
  186.1150  177.3020  135.6030 C   0  0  2  0  0  3  0  0  0  0  0  0
  186.2640  178.0540  137.8850 C   0  0  1  0  0  3  0  0  0  0  0  0
  185.6280  177.1070  136.9750 N   0  0  0  0  0  2  0  0  0  0  0  0
  185.2890  178.5140  138.9300 C   0  0  0  0  0  3  0  0  0  0  0  0
  189.9920  176.7640  139.4430 N   0  0  0  0  0  2  0  0  0  0  0  0
  185.4940  176.2550  134.7020 C   0  0  0  0  0  1  0  0  0  0  0  0
  189.3700  177.8390  140.2250 C   0  0  2  0  0  3  0  0  0  0  0  0
  187.6500  177.2570  135.4560 C   0  0  0  0  0  2  0  0  0  0  0  0
  185.7210  178.8710  140.1420 C   0  0  0  0  0  3  0  0  0  0  0  0
  190.9150  178.1010  143.6450 C   0  0  0  0  0  0  0  0  0  0  0  0
  188.7390  176.7290  146.0190 O   0  0  0  0  0  1  0  0  0  0  0  0
  192.1520  178.2470  144.1880 F   0  0  0  0  0  0  0  0  0  0  0  0
  188.2660  176.6090  143.7220 C   0  0  0  0  0  3  0  0  0  0  0  0
  189.4640  177.5320  141.6950 C   0  0  0  0  0  0  0  0  0  0  0  0
  189.7400  178.4250  144.5040 C   0  0  0  0  0  2  0  0  0  0  0  0
  188.3900  176.9890  142.3020 C   0  0  0  0  0  3  0  0  0  0  0  0
  190.7820  177.7270  142.3620 C   0  0  0  0  0  0  0  0  0  0  0  0
  192.0210  177.5250  141.5490 C   0  0  0  0  0  1  0  0  0  0  0  0
  188.9000  177.2130  144.7270 C   0  0  0  0  0  0  0  0  0  0  0  0
  192.4670  173.3400  136.5140 C   0  0  0  0  0  2  0  0  0  0  0  0
  193.3380  175.7350  136.5930 C   0  0  0  0  0  2  0  0  0  0  0  0
  192.3990  176.5140  137.5050 C   0  0  0  0  0  2  0  0  0  0  0  0
  190.9270  176.2210  137.2100 C   0  0  0  0  0  3  0  0  0  0  0  0
  190.6000  174.7580  137.5150 C   0  0  0  0  0  2  0  0  0  0  0  0
  193.4870  174.3130  137.1140 C   0  0  0  0  0  2  0  0  0  0  0  0
  191.0450  173.8870  136.3500 C   0  0  0  0  0  2  0  0  0  0  0  0
  1 13  1  0  0  0  0
  1  3  2  0  0  0  0
  2  5  1  6  0  0  0
  2  6  1  0  0  0  0
  2  4  1  0  0  0  0
  4  1  1  1  0  0  0
  6 29  1  6  0  0  0
  6 11  1  0  0  0  0
  7 12  1  6  0  0  0
  7  9  1  0  0  0  0
  8  4  1  0  0  0  0
  8 10  1  1  0  0  0
  9  8  1  0  0  0  0
 10 15  2  0  0  0  0
 11 13  1  0  0  0  0
 13 20  1  1  0  0  0
 14  7  1  0  0  0  0
 14  5  1  0  0  0  0
 15  3  1  0  0  0  0
 16 18  1  0  0  0  0
 16 21  1  0  0  0  0
 19 25  2  0  0  0  0
 20 22  2  0  0  0  0
 20 23  1  0  0  0  0
 21 25  1  0  0  0  0
 22 19  1  0  0  0  0
 23 16  2  0  0  0  0
 24 23  1  0  0  0  0
 25 17  1  0  0  0  0
 26 31  1  0  0  0  0
 27 31  1  0  0  0  0
 27 28  1  0  0  0  0
 29 28  1  0  0  0  0
 29 30  1  0  0  0  0
 32 26  1  0  0  0  0
 32 30  1  0  0  0  0
M  END
>  <MODEL>
2

>  <REMARK>
 VINA RESULT:      -9.8      3.034      5.464
  Name = 
  2 active torsions:
  status: ('A' for Active; 'I' for Inactive)
    1  A    between atoms: C_10  and  C_17
    2  A    between atoms: C_16  and  C_27
                            x       y       z     vdW  Elec       q    Type
                         _______ _______ _______ _____ _____    ______ ____

>  <TORSDO>
F 2

$$$$
=
 OpenBabel10272413093D

 32 36  0  0  1  0  0  0  0  0999 V2000
  189.1190  177.0090  142.3070 C   0  0  0  0  0  0  0  0  0  0  0  0
  187.1320  177.7430  140.9640 C   0  0  2  0  0  3  0  0  0  0  0  0
  190.2970  176.4520  142.2900 N   0  0  0  0  0  0  0  0  0  0  0  0
  188.6490  177.8410  141.1430 C   0  0  2  0  0  3  0  0  0  0  0  0
  186.7030  178.7640  140.1020 O   0  0  0  0  0  0  0  0  0  0  0  0
  186.3330  177.6590  142.2970 C   0  0  1  0  0  3  0  0  0  0  0  0
  187.9810  178.3660  138.0440 C   0  0  2  0  0  3  0  0  0  0  0  0
  189.3120  177.4400  139.8240 C   0  0  1  0  0  3  0  0  0  0  0  0
  189.1760  178.5440  138.8790 N   0  0  0  0  0  2  0  0  0  0  0  0
  190.7590  177.0820  140.0070 C   0  0  0  0  0  3  0  0  0  0  0  0
  187.1820  177.9580  143.4540 N   0  0  0  0  0  2  0  0  0  0  0  0
  187.8290  179.5650  137.1320 C   0  0  0  0  0  1  0  0  0  0  0  0
  188.2480  176.9530  143.5380 C   0  0  2  0  0  3  0  0  0  0  0  0
  186.6740  178.1570  138.8360 C   0  0  0  0  0  2  0  0  0  0  0  0
  191.1830  176.5700  141.1660 C   0  0  0  0  0  3  0  0  0  0  0  0
  188.6740  177.0000  147.2760 C   0  0  0  0  0  0  0  0  0  0  0  0
  192.0790  177.1860  148.0620 O   0  0  0  0  0  1  0  0  0  0  0  0
  187.9330  177.2980  148.3750 F   0  0  0  0  0  0  0  0  0  0  0  0
  191.3350  177.3240  145.8400 C   0  0  0  0  0  3  0  0  0  0  0  0
  189.0330  177.1340  144.8090 C   0  0  0  0  0  0  0  0  0  0  0  0
  189.8940  176.1650  147.4700 C   0  0  0  0  0  2  0  0  0  0  0  0
  190.3780  177.1560  144.7290 C   0  0  0  0  0  3  0  0  0  0  0  0
  188.2730  177.4090  146.0620 C   0  0  0  0  0  0  0  0  0  0  0  0
  186.9810  178.1540  145.9530 C   0  0  0  0  0  1  0  0  0  0  0  0
  191.1190  176.9250  147.0920 C   0  0  0  0  0  0  0  0  0  0  0  0
  182.0410  179.4060  143.4610 C   0  0  0  0  0  2  0  0  0  0  0  0
  182.8430  178.8500  141.1050 C   0  0  0  0  0  2  0  0  0  0  0  0
  184.0720  177.9630  141.2580 C   0  0  0  0  0  2  0  0  0  0  0  0
  185.0420  178.4900  142.3170 C   0  0  0  0  0  3  0  0  0  0  0  0
  184.3950  178.4560  143.7020 C   0  0  0  0  0  2  0  0  0  0  0  0
  181.8500  178.5360  142.2140 C   0  0  0  0  0  2  0  0  0  0  0  0
  183.4940  179.6710  143.8690 C   0  0  0  0  0  2  0  0  0  0  0  0
  1 13  1  0  0  0  0
  2  5  1  1  0  0  0
  2  4  1  0  0  0  0
  2  6  1  0  0  0  0
  3  1  2  0  0  0  0
  4  1  1  1  0  0  0
  6 29  1  6  0  0  0
  6 11  1  0  0  0  0
  7 12  1  1  0  0  0
  7 14  1  0  0  0  0
  7  9  1  0  0  0  0
  8 10  1  1  0  0  0
  8  4  1  0  0  0  0
  9  8  1  0  0  0  0
 10 15  2  0  0  0  0
 11 13  1  0  0  0  0
 13 20  1  1  0  0  0
 14  5  1  0  0  0  0
 15  3  1  0  0  0  0
 16 21  1  0  0  0  0
 16 18  1  0  0  0  0
 19 25  2  0  0  0  0
 20 23  1  0  0  0  0
 22 20  2  0  0  0  0
 22 19  1  0  0  0  0
 23 16  2  0  0  0  0
 24 23  1  0  0  0  0
 25 21  1  0  0  0  0
 25 17  1  0  0  0  0
 26 32  1  0  0  0  0
 27 28  1  0  0  0  0
 27 31  1  0  0  0  0
 28 29  1  0  0  0  0
 29 30  1  0  0  0  0
 30 32  1  0  0  0  0
 31 26  1  0  0  0  0
M  END
>  <MODEL>
3

>  <REMARK>
 VINA RESULT:      -9.7      2.388      6.157
  Name = 
  2 active torsions:
  status: ('A' for Active; 'I' for Inactive)
    1  A    between atoms: C_10  and  C_17
    2  A    between atoms: C_16  and  C_27
                            x       y       z     vdW  Elec       q    Type
                         _______ _______ _______ _____ _____    ______ ____

>  <TORSDO>
F 2

$$$$
=
 OpenBabel10272413093D

 32 36  0  0  1  0  0  0  0  0999 V2000
  186.4010  178.4940  140.1870 C   0  0  0  0  0  0  0  0  0  0  0  0
  188.7700  177.9330  140.7920 C   0  0  2  0  0  3  0  0  0  0  0  0
  185.5860  178.9120  139.2620 N   0  0  0  0  0  0  0  0  0  0  0  0
  187.6100  177.6710  139.8280 C   0  0  2  0  0  3  0  0  0  0  0  0
  189.7390  176.9320  140.6300 O   0  0  0  0  0  0  0  0  0  0  0  0
  188.3360  178.1630  142.2690 C   0  0  1  0  0  3  0  0  0  0  0  0
  190.3540  177.0940  138.2590 C   0  0  2  0  0  3  0  0  0  0  0  0
  188.1040  177.9380  138.4040 C   0  0  1  0  0  3  0  0  0  0  0  0
  188.9390  176.8180  137.9820 N   0  0  0  0  0  2  0  0  0  0  0  0
  186.9690  178.1380  137.4430 C   0  0  0  0  0  3  0  0  0  0  0  0
  186.9260  177.8190  142.4760 N   0  0  0  0  0  2  0  0  0  0  0  0
  191.1800  175.8820  137.8800 C   0  0  0  0  0  1  0  0  0  0  0  0
  186.0920  178.7000  141.6500 C   0  0  2  0  0  3  0  0  0  0  0  0
  190.6560  177.4830  139.7210 C   0  0  0  0  0  2  0  0  0  0  0  0
  185.8100  178.6470  137.8680 C   0  0  0  0  0  3  0  0  0  0  0  0
  183.0080  179.0300  143.7800 C   0  0  0  0  0  0  0  0  0  0  0  0
  180.2010  178.0560  141.9310 O   0  0  0  0  0  1  0  0  0  0  0  0
  182.6920  179.0840  145.1000 F   0  0  0  0  0  0  0  0  0  0  0  0
  182.3690  177.8310  141.0600 C   0  0  0  0  0  3  0  0  0  0  0  0
  184.6370  178.4850  141.9680 C   0  0  0  0  0  0  0  0  0  0  0  0
  181.9970  179.5320  142.8050 C   0  0  0  0  0  2  0  0  0  0  0  0
  183.8180  178.0990  140.9710 C   0  0  0  0  0  3  0  0  0  0  0  0
  184.2150  178.5870  143.3950 C   0  0  0  0  0  0  0  0  0  0  0  0
  185.2020  178.2020  144.4500 C   0  0  0  0  0  1  0  0  0  0  0  0
  181.5380  178.4320  141.9100 C   0  0  0  0  0  0  0  0  0  0  0  0
  190.5940  177.0570  146.3310 C   0  0  0  0  0  2  0  0  0  0  0  0
  191.6570  177.2030  144.0190 C   0  0  0  0  0  2  0  0  0  0  0  0
  190.6810  177.9660  143.1340 C   0  0  0  0  0  2  0  0  0  0  0  0
  189.2390  177.4850  143.3090 C   0  0  0  0  0  3  0  0  0  0  0  0
  188.7460  177.7730  144.7280 C   0  0  0  0  0  2  0  0  0  0  0  0
  191.6100  177.7670  145.4310 C   0  0  0  0  0  2  0  0  0  0  0  0
  189.2600  176.6950  145.6710 C   0  0  0  0  0  2  0  0  0  0  0  0
  1 13  1  0  0  0  0
  2  5  1  1  0  0  0
  2  6  1  0  0  0  0
  3  1  2  0  0  0  0
  4  1  1  1  0  0  0
  4  2  1  0  0  0  0
  6 11  1  0  0  0  0
  6 29  1  1  0  0  0
  7 12  1  1  0  0  0
  7 14  1  0  0  0  0
  8 10  1  6  0  0  0
  8  4  1  0  0  0  0
  9  7  1  0  0  0  0
  9  8  1  0  0  0  0
 10 15  2  0  0  0  0
 13 20  1  6  0  0  0
 13 11  1  0  0  0  0
 14  5  1  0  0  0  0
 15  3  1  0  0  0  0
 16 18  1  0  0  0  0
 19 25  2  0  0  0  0
 20 23  1  0  0  0  0
 21 16  1  0  0  0  0
 22 19  1  0  0  0  0
 22 20  2  0  0  0  0
 23 16  2  0  0  0  0
 23 24  1  0  0  0  0
 25 17  1  0  0  0  0
 25 21  1  0  0  0  0
 27 31  1  0  0  0  0
 28 29  1  0  0  0  0
 28 27  1  0  0  0  0
 29 30  1  0  0  0  0
 30 32  1  0  0  0  0
 31 26  1  0  0  0  0
 32 26  1  0  0  0  0
M  END
>  <MODEL>
4

>  <REMARK>
 VINA RESULT:      -9.6      1.159      1.396
  Name = 
  2 active torsions:
  status: ('A' for Active; 'I' for Inactive)
    1  A    between atoms: C_10  and  C_17
    2  A    between atoms: C_16  and  C_27
                            x       y       z     vdW  Elec       q    Type
                         _______ _______ _______ _____ _____    ______ ____

>  <TORSDO>
F 2

$$$$
=
 OpenBabel10272413093D

 32 36  0  0  1  0  0  0  0  0999 V2000
  189.3390  178.0070  142.2000 C   0  0  0  0  0  0  0  0  0  0  0  0
  187.5640  178.2400  143.9580 C   0  0  2  0  0  3  0  0  0  0  0  0
  190.6140  178.0350  141.9320 N   0  0  0  0  0  0  0  0  0  0  0  0
  188.8490  177.5210  143.5380 C   0  0  2  0  0  3  0  0  0  0  0  0
  186.9740  177.5450  145.0230 O   0  0  0  0  0  0  0  0  0  0  0  0
  186.5920  178.5510  142.7830 C   0  0  1  0  0  3  0  0  0  0  0  0
  188.7190  177.5280  146.7490 C   0  0  2  0  0  3  0  0  0  0  0  0
  189.8850  177.7060  144.6500 C   0  0  1  0  0  3  0  0  0  0  0  0
  189.5420  176.8220  145.7590 N   0  0  0  0  0  2  0  0  0  0  0  0
  191.2800  177.4310  144.1710 C   0  0  0  0  0  3  0  0  0  0  0  0
  186.9870  177.8520  141.5560 N   0  0  0  0  0  2  0  0  0  0  0  0
  188.3190  176.5610  147.8440 C   0  0  0  0  0  1  0  0  0  0  0  0
  188.3120  178.3270  141.1420 C   0  0  2  0  0  3  0  0  0  0  0  0
  187.4550  178.1960  146.1700 C   0  0  0  0  0  2  0  0  0  0  0  0
  191.6070  177.6440  142.8940 C   0  0  0  0  0  3  0  0  0  0  0  0
  188.2860  178.2480  137.3800 C   0  0  0  0  0  0  0  0  0  0  0  0
  190.6360  175.9170  136.2440 O   0  0  0  0  0  1  0  0  0  0  0  0
  187.4440  178.5810  136.3670 F   0  0  0  0  0  0  0  0  0  0  0  0
  190.1760  176.1630  138.5330 C   0  0  0  0  0  3  0  0  0  0  0  0
  188.6720  177.7550  139.7970 C   0  0  0  0  0  0  0  0  0  0  0  0
  189.7320  178.0840  137.0530 C   0  0  0  0  0  2  0  0  0  0  0  0
  189.6670  176.8490  139.7360 C   0  0  0  0  0  3  0  0  0  0  0  0
  187.8180  178.1290  138.6330 C   0  0  0  0  0  0  0  0  0  0  0  0
  186.3720  178.4130  138.8820 C   0  0  0  0  0  1  0  0  0  0  0  0
  190.1740  176.6840  137.3070 C   0  0  0  0  0  0  0  0  0  0  0  0
  181.8200  178.7880  142.7750 C   0  0  0  0  0  2  0  0  0  0  0  0
  183.3150  178.7880  144.8390 C   0  0  0  0  0  2  0  0  0  0  0  0
  184.7250  179.1100  144.3600 C   0  0  0  0  0  2  0  0  0  0  0  0
  185.1090  178.3180  143.1090 C   0  0  0  0  0  3  0  0  0  0  0  0
  184.2240  178.7180  141.9280 C   0  0  0  0  0  2  0  0  0  0  0  0
  182.3060  179.5620  144.0040 C   0  0  0  0  0  2  0  0  0  0  0  0
  182.8910  177.9890  142.0260 C   0  0  0  0  0  2  0  0  0  0  0  0
  2  5  1  1  0  0  0
  3  1  2  0  0  0  0
  3 15  1  0  0  0  0
  4  1  1  6  0  0  0
  4  2  1  0  0  0  0
  4  8  1  0  0  0  0
  5 14  1  0  0  0  0
  6 29  1  1  0  0  0
  6  2  1  0  0  0  0
  7 12  1  1  0  0  0
  8 10  1  6  0  0  0
  8  9  1  0  0  0  0
  9  7  1  0  0  0  0
 11  6  1  0  0  0  0
 13 20  1  6  0  0  0
 13 11  1  0  0  0  0
 13  1  1  0  0  0  0
 14  7  1  0  0  0  0
 15 10  2  0  0  0  0
 16 23  2  0  0  0  0
 17 25  1  0  0  0  0
 18 16  1  0  0  0  0
 19 22  1  0  0  0  0
 21 25  1  0  0  0  0
 21 16  1  0  0  0  0
 22 20  2  0  0  0  0
 23 24  1  0  0  0  0
 23 20  1  0  0  0  0
 25 19  2  0  0  0  0
 26 31  1  0  0  0  0
 28 27  1  0  0  0  0
 29 28  1  0  0  0  0
 30 32  1  0  0  0  0
 30 29  1  0  0  0  0
 31 27  1  0  0  0  0
 32 26  1  0  0  0  0
M  END
>  <MODEL>
5

>  <REMARK>
 VINA RESULT:      -9.2      2.714      7.556
  Name = 
  2 active torsions:
  status: ('A' for Active; 'I' for Inactive)
    1  A    between atoms: C_10  and  C_17
    2  A    between atoms: C_16  and  C_27
                            x       y       z     vdW  Elec       q    Type
                         _______ _______ _______ _____ _____    ______ ____

>  <TORSDO>
F 2

$$$$
=
 OpenBabel10272413093D

 32 36  0  0  1  0  0  0  0  0999 V2000
  190.0430  177.6310  140.0800 C   0  0  0  0  0  0  0  0  0  0  0  0
  189.1710  177.9890  142.4050 C   0  0  2  0  0  3  0  0  0  0  0  0
  191.0860  177.6280  139.2980 N   0  0  0  0  0  0  0  0  0  0  0  0
  190.1690  177.2300  141.5250 C   0  0  2  0  0  3  0  0  0  0  0  0
  189.0940  177.3640  143.6580 O   0  0  0  0  0  0  0  0  0  0  0  0
  187.7910  178.2420  141.7330 C   0  0  1  0  0  3  0  0  0  0  0  0
  191.4040  177.4260  144.4850 C   0  0  2  0  0  3  0  0  0  0  0  0
  191.5740  177.4670  142.0840 C   0  0  1  0  0  3  0  0  0  0  0  0
  191.7420  176.6530  143.2840 N   0  0  0  0  0  2  0  0  0  0  0  0
  192.6420  177.1470  141.0780 C   0  0  0  0  0  3  0  0  0  0  0  0
  187.6420  177.4690  140.4970 N   0  0  0  0  0  2  0  0  0  0  0  0
  191.5160  176.5290  145.7010 C   0  0  0  0  0  1  0  0  0  0  0  0
  188.6620  177.9020  139.5360 C   0  0  2  0  0  3  0  0  0  0  0  0
  190.0050  178.0750  144.4550 C   0  0  0  0  0  2  0  0  0  0  0  0
  192.3960  177.2810  139.7730 C   0  0  0  0  0  3  0  0  0  0  0  0
  189.3420  177.3370  135.8790 C   0  0  0  0  0  0  0  0  0  0  0  0
  187.6380  174.4760  134.8010 O   0  0  0  0  0  1  0  0  0  0  0  0
  189.7540  178.0580  134.8030 F   0  0  0  0  0  0  0  0  0  0  0  0
  187.3500  175.3180  136.9740 C   0  0  0  0  0  3  0  0  0  0  0  0
  188.4290  177.2480  138.2000 C   0  0  0  0  0  0  0  0  0  0  0  0
  189.4500  175.8520  135.7980 C   0  0  0  0  0  2  0  0  0  0  0  0
  187.7000  176.1150  138.1650 C   0  0  0  0  0  3  0  0  0  0  0  0
  188.9080  177.9640  136.9840 C   0  0  0  0  0  0  0  0  0  0  0  0
  188.9330  179.4580  137.0090 C   0  0  0  0  0  1  0  0  0  0  0  0
  188.1020  175.2200  135.8790 C   0  0  0  0  0  0  0  0  0  0  0  0
  183.6770  178.8800  144.0790 C   0  0  0  0  0  2  0  0  0  0  0  0
  185.8780  178.1000  145.1010 C   0  0  0  0  0  2  0  0  0  0  0  0
  186.9720  178.4340  144.0950 C   0  0  0  0  0  2  0  0  0  0  0  0
  186.5860  178.0470  142.6660 C   0  0  0  0  0  3  0  0  0  0  0  0
  185.3910  178.8740  142.1910 C   0  0  0  0  0  2  0  0  0  0  0  0
  184.8090  179.1820  145.0660 C   0  0  0  0  0  2  0  0  0  0  0  0
  184.1070  178.2690  142.7410 C   0  0  0  0  0  2  0  0  0  0  0  0
  2  5  1  1  0  0  0
  3 15  1  0  0  0  0
  3  1  2  0  0  0  0
  4  1  1  6  0  0  0
  4  8  1  0  0  0  0
  4  2  1  0  0  0  0
  5 14  1  0  0  0  0
  6  2  1  0  0  0  0
  6 29  1  1  0  0  0
  7 12  1  1  0  0  0
  8 10  1  6  0  0  0
  8  9  1  0  0  0  0
  9  7  1  0  0  0  0
 11  6  1  0  0  0  0
 13 20  1  6  0  0  0
 13  1  1  0  0  0  0
 13 11  1  0  0  0  0
 14  7  1  0  0  0  0
 15 10  2  0  0  0  0
 16 23  2  0  0  0  0
 17 25  1  0  0  0  0
 18 16  1  0  0  0  0
 19 22  1  0  0  0  0
 21 25  1  0  0  0  0
 21 16  1  0  0  0  0
 22 20  2  0  0  0  0
 23 24  1  0  0  0  0
 23 20  1  0  0  0  0
 25 19  2  0  0  0  0
 26 31  1  0  0  0  0
 28 27  1  0  0  0  0
 29 28  1  0  0  0  0
 30 29  1  0  0  0  0
 30 32  1  0  0  0  0
 31 27  1  0  0  0  0
 32 26  1  0  0  0  0
M  END
>  <MODEL>
6

>  <REMARK>
 VINA RESULT:      -9.1      3.122      7.053
  Name = 
  2 active torsions:
  status: ('A' for Active; 'I' for Inactive)
    1  A    between atoms: C_10  and  C_17
    2  A    between atoms: C_16  and  C_27
                            x       y       z     vdW  Elec       q    Type
                         _______ _______ _______ _____ _____    ______ ____

>  <TORSDO>
F 2

$$$$
=
 OpenBabel10272413093D

 32 36  0  0  1  0  0  0  0  0999 V2000
  182.8930  178.6820  141.4510 C   0  0  0  0  0  0  0  0  0  0  0  0
  185.1330  178.2360  142.4880 C   0  0  2  0  0  3  0  0  0  0  0  0
  181.5990  178.6420  141.5980 N   0  0  0  0  0  0  0  0  0  0  0  0
  183.7900  178.9580  142.6280 C   0  0  2  0  0  3  0  0  0  0  0  0
  186.0400  178.7680  143.4150 O   0  0  0  0  0  0  0  0  0  0  0  0
  185.6760  178.1720  141.0310 C   0  0  1  0  0  3  0  0  0  0  0  0
  184.9370  178.4150  145.5800 C   0  0  2  0  0  3  0  0  0  0  0  0
  183.1610  178.5410  143.9600 C   0  0  1  0  0  3  0  0  0  0  0  0
  183.8500  179.2410  145.0400 N   0  0  0  0  0  2  0  0  0  0  0  0
  181.6890  178.8300  144.0020 C   0  0  0  0  0  3  0  0  0  0  0  0
  184.9180  179.0490  140.1330 N   0  0  0  0  0  2  0  0  0  0  0  0
  185.6770  179.2020  146.6430 C   0  0  0  0  0  1  0  0  0  0  0  0
  183.5250  178.5910  140.0830 C   0  0  2  0  0  3  0  0  0  0  0  0
  185.9430  177.9120  144.5240 C   0  0  0  0  0  2  0  0  0  0  0  0
  180.9690  178.8200  142.8770 C   0  0  0  0  0  3  0  0  0  0  0  0
  181.2120  178.9260  137.1340 C   0  0  0  0  0  0  0  0  0  0  0  0
  180.3190  182.2850  136.7250 O   0  0  0  0  0  1  0  0  0  0  0  0
  180.8950  178.2280  136.0130 F   0  0  0  0  0  0  0  0  0  0  0  0
  181.9030  181.6350  138.3310 C   0  0  0  0  0  3  0  0  0  0  0  0
  182.7610  179.3650  139.0420 C   0  0  0  0  0  0  0  0  0  0  0  0
  180.2460  179.9620  137.6000 C   0  0  0  0  0  2  0  0  0  0  0  0
  182.6070  180.6910  139.2210 C   0  0  0  0  0  3  0  0  0  0  0  0
  182.3350  178.6390  137.8110 C   0  0  0  0  0  0  0  0  0  0  0  0
  183.1910  177.5140  137.3250 C   0  0  0  0  0  1  0  0  0  0  0  0
  180.8650  181.3170  137.5580 C   0  0  0  0  0  0  0  0  0  0  0  0
  190.2310  177.9850  139.5980 C   0  0  0  0  0  2  0  0  0  0  0  0
  189.4170  177.9250  142.0140 C   0  0  0  0  0  2  0  0  0  0  0  0
  187.9300  177.5990  141.9680 C   0  0  0  0  0  2  0  0  0  0  0  0
  187.1880  178.4130  140.9060 C   0  0  0  0  0  3  0  0  0  0  0  0
  187.6840  178.0480  139.5070 C   0  0  0  0  0  2  0  0  0  0  0  0
  190.1350  177.1800  140.8980 C   0  0  0  0  0  2  0  0  0  0  0  0
  188.9820  178.7880  139.2210 C   0  0  0  0  0  2  0  0  0  0  0  0
  1  3  2  0  0  0  0
  2  4  1  0  0  0  0
  2  5  1  1  0  0  0
  3 15  1  0  0  0  0
  4  1  1  6  0  0  0
  4  8  1  0  0  0  0
  5 14  1  0  0  0  0
  6 29  1  1  0  0  0
  6  2  1  0  0  0  0
  7 12  1  1  0  0  0
  8 10  1  6  0  0  0
  8  9  1  0  0  0  0
  9  7  1  0  0  0  0
 11  6  1  0  0  0  0
 13 20  1  6  0  0  0
 13 11  1  0  0  0  0
 13  1  1  0  0  0  0
 14  7  1  0  0  0  0
 15 10  2  0  0  0  0
 16 21  1  0  0  0  0
 16 23  2  0  0  0  0
 17 25  1  0  0  0  0
 18 16  1  0  0  0  0
 19 22  1  0  0  0  0
 20 22  2  0  0  0  0
 23 20  1  0  0  0  0
 24 23  1  0  0  0  0
 25 21  1  0  0  0  0
 25 19  2  0  0  0  0
 26 31  1  0  0  0  0
 28 27  1  0  0  0  0
 29 28  1  0  0  0  0
 30 29  1  0  0  0  0
 31 27  1  0  0  0  0
 32 30  1  0  0  0  0
 32 26  1  0  0  0  0
M  END
>  <MODEL>
7

>  <REMARK>
 VINA RESULT:      -9.0      3.555      6.426
  Name = 
  2 active torsions:
  status: ('A' for Active; 'I' for Inactive)
    1  A    between atoms: C_10  and  C_17
    2  A    between atoms: C_16  and  C_27
                            x       y       z     vdW  Elec       q    Type
                         _______ _______ _______ _____ _____    ______ ____

>  <TORSDO>
F 2

$$$$
=
 OpenBabel10272413093D

 32 36  0  0  1  0  0  0  0  0999 V2000
  185.7680  178.6850  142.0260 C   0  0  0  0  0  0  0  0  0  0  0  0
  185.1010  178.4960  139.6150 C   0  0  2  0  0  3  0  0  0  0  0  0
  185.4340  179.0930  143.2180 N   0  0  0  0  0  0  0  0  0  0  0  0
  184.7200  178.1890  141.0660 C   0  0  2  0  0  3  0  0  0  0  0  0
  184.2850  177.7470  138.7560 O   0  0  0  0  0  0  0  0  0  0  0  0
  186.6230  178.3750  139.3140 C   0  0  1  0  0  3  0  0  0  0  0  0
  182.0080  178.4400  139.3590 C   0  0  2  0  0  3  0  0  0  0  0  0
  183.3390  178.7920  141.3350 C   0  0  1  0  0  3  0  0  0  0  0  0
  182.3300  177.9470  140.7050 N   0  0  0  0  0  2  0  0  0  0  0  0
  183.0630  178.9340  142.8030 C   0  0  0  0  0  3  0  0  0  0  0  0
  187.3420  177.7330  140.4180 N   0  0  0  0  0  2  0  0  0  0  0  0
  181.0180  177.4970  138.7090 C   0  0  0  0  0  1  0  0  0  0  0  0
  187.2160  178.5660  141.6190 C   0  0  2  0  0  3  0  0  0  0  0  0
  183.2300  178.6160  138.4340 C   0  0  0  0  0  2  0  0  0  0  0  0
  184.0690  179.1260  143.6610 C   0  0  0  0  0  3  0  0  0  0  0  0
  190.4740  178.0810  143.4390 C   0  0  0  0  0  0  0  0  0  0  0  0
  189.8600  176.6440  146.5700 O   0  0  0  0  0  1  0  0  0  0  0  0
  191.7950  177.9780  143.1390 F   0  0  0  0  0  0  0  0  0  0  0  0
  188.1300  176.9510  145.0140 C   0  0  0  0  0  3  0  0  0  0  0  0
  188.0830  178.0210  142.7230 C   0  0  0  0  0  0  0  0  0  0  0  0
  190.1080  178.4140  144.8460 C   0  0  0  0  0  2  0  0  0  0  0  0
  187.4790  177.5320  143.8240 C   0  0  0  0  0  3  0  0  0  0  0  0
  189.5500  177.9360  142.4750 C   0  0  0  0  0  0  0  0  0  0  0  0
  190.0160  177.7060  141.0730 C   0  0  0  0  0  1  0  0  0  0  0  0
  189.3330  177.3010  145.4660 C   0  0  0  0  0  0  0  0  0  0  0  0
  188.9160  176.1900  135.7370 C   0  0  0  0  0  2  0  0  0  0  0  0
  187.3670  178.2030  135.5150 C   0  0  0  0  0  2  0  0  0  0  0  0
  187.2050  178.7890  136.9110 C   0  0  0  0  0  2  0  0  0  0  0  0
  186.9520  177.7130  137.9680 C   0  0  0  0  0  3  0  0  0  0  0  0
  188.1660  176.7920  138.0980 C   0  0  0  0  0  2  0  0  0  0  0  0
  188.7810  177.6660  135.3500 C   0  0  0  0  0  2  0  0  0  0  0  0
  188.1380  175.7570  136.9830 C   0  0  0  0  0  2  0  0  0  0  0  0
  1  3  2  0  0  0  0
  2  5  1  6  0  0  0
  2  4  1  0  0  0  0
  3 15  1  0  0  0  0
  4  8  1  0  0  0  0
  4  1  1  1  0  0  0
  6 29  1  6  0  0  0
  6  2  1  0  0  0  0
  6 11  1  0  0  0  0
  7 12  1  6  0  0  0
  7  9  1  0  0  0  0
  8 10  1  1  0  0  0
  9  8  1  0  0  0  0
 10 15  2  0  0  0  0
 11 13  1  0  0  0  0
 13  1  1  0  0  0  0
 13 20  1  1  0  0  0
 14  5  1  0  0  0  0
 14  7  1  0  0  0  0
 16 21  1  0  0  0  0
 18 16  1  0  0  0  0
 19 25  2  0  0  0  0
 20 22  2  0  0  0  0
 21 25  1  0  0  0  0
 22 19  1  0  0  0  0
 23 20  1  0  0  0  0
 23 16  2  0  0  0  0
 24 23  1  0  0  0  0
 25 17  1  0  0  0  0
 26 32  1  0  0  0  0
 27 28  1  0  0  0  0
 28 29  1  0  0  0  0
 29 30  1  0  0  0  0
 31 27  1  0  0  0  0
 31 26  1  0  0  0  0
 32 30  1  0  0  0  0
M  END
>  <MODEL>
8

>  <REMARK>
 VINA RESULT:      -9.0      2.732      6.394
  Name = 
  2 active torsions:
  status: ('A' for Active; 'I' for Inactive)
    1  A    between atoms: C_10  and  C_17
    2  A    between atoms: C_16  and  C_27
                            x       y       z     vdW  Elec       q    Type
                         _______ _______ _______ _____ _____    ______ ____

>  <TORSDO>
F 2

$$$$
=
 OpenBabel10272413093D

 32 36  0  0  1  0  0  0  0  0999 V2000
  184.5760  178.8370  143.1290 C   0  0  0  0  0  0  0  0  0  0  0  0
  184.7210  178.6620  140.6310 C   0  0  2  0  0  3  0  0  0  0  0  0
  183.8540  179.1900  144.1540 N   0  0  0  0  0  0  0  0  0  0  0  0
  183.9260  178.2920  141.8850 C   0  0  2  0  0  3  0  0  0  0  0  0
  184.2770  177.8780  139.5560 O   0  0  0  0  0  0  0  0  0  0  0  0
  186.2650  178.6580  140.8270 C   0  0  1  0  0  3  0  0  0  0  0  0
  181.8810  178.3910  139.4090 C   0  0  2  0  0  3  0  0  0  0  0  0
  182.4890  178.7880  141.7040 C   0  0  1  0  0  3  0  0  0  0  0  0
  181.7980  177.8890  140.7860 N   0  0  0  0  0  2  0  0  0  0  0  0
  181.7540  178.8730  143.0100 C   0  0  0  0  0  3  0  0  0  0  0  0
  186.6450  178.0410  142.1010 N   0  0  0  0  0  2  0  0  0  0  0  0
  181.2210  177.3970  138.4760 C   0  0  0  0  0  1  0  0  0  0  0  0
  186.0840  178.8320  143.2020 C   0  0  2  0  0  3  0  0  0  0  0  0
  183.3150  178.6780  138.9180 C   0  0  0  0  0  2  0  0  0  0  0  0
  182.4200  179.1140  144.1420 C   0  0  0  0  0  3  0  0  0  0  0  0
  188.6660  177.2920  145.4640 C   0  0  0  0  0  0  0  0  0  0  0  0
  187.6530  177.6320  148.7960 O   0  0  0  0  0  1  0  0  0  0  0  0
  189.6680  176.3780  145.3800 F   0  0  0  0  0  0  0  0  0  0  0  0
  186.2530  178.2830  147.0270 C   0  0  0  0  0  3  0  0  0  0  0  0
  186.5970  178.3230  144.5220 C   0  0  0  0  0  0  0  0  0  0  0  0
  188.6840  178.2350  146.6190 C   0  0  0  0  0  2  0  0  0  0  0  0
  185.9300  178.6700  145.6400 C   0  0  0  0  0  3  0  0  0  0  0  0
  187.7340  177.3590  144.5000 C   0  0  0  0  0  0  0  0  0  0  0  0
  187.8560  176.4400  143.3270 C   0  0  0  0  0  1  0  0  0  0  0  0
  187.4830  178.0380  147.4790 C   0  0  0  0  0  0  0  0  0  0  0  0
  189.7320  177.5950  137.7160 C   0  0  0  0  0  2  0  0  0  0  0  0
  187.3090  178.1310  137.1320 C   0  0  0  0  0  2  0  0  0  0  0  0
  186.6970  178.7910  138.3610 C   0  0  0  0  0  2  0  0  0  0  0  0
  187.0520  178.0540  139.6540 C   0  0  0  0  0  3  0  0  0  0  0  0
  188.5570  178.1240  139.9150 C   0  0  0  0  0  2  0  0  0  0  0  0
  188.7670  178.5490  137.0050 C   0  0  0  0  0  2  0  0  0  0  0  0
  189.2650  177.0700  139.0770 C   0  0  0  0  0  2  0  0  0  0  0  0
  1 13  1  0  0  0  0
  1  3  2  0  0  0  0
  2  5  1  6  0  0  0
  2  6  1  0  0  0  0
  2  4  1  0  0  0  0
  4  1  1  1  0  0  0
  6 29  1  6  0  0  0
  6 11  1  0  0  0  0
  7 12  1  6  0  0  0
  7  9  1  0  0  0  0
  8  4  1  0  0  0  0
  8 10  1  1  0  0  0
  9  8  1  0  0  0  0
 10 15  2  0  0  0  0
 11 13  1  0  0  0  0
 13 20  1  1  0  0  0
 14  7  1  0  0  0  0
 14  5  1  0  0  0  0
 15  3  1  0  0  0  0
 16 21  1  0  0  0  0
 18 16  1  0  0  0  0
 19 25  2  0  0  0  0
 20 22  2  0  0  0  0
 21 25  1  0  0  0  0
 22 19  1  0  0  0  0
 23 20  1  0  0  0  0
 23 16  2  0  0  0  0
 24 23  1  0  0  0  0
 25 17  1  0  0  0  0
 26 32  1  0  0  0  0
 27 28  1  0  0  0  0
 28 29  1  0  0  0  0
 29 30  1  0  0  0  0
 31 27  1  0  0  0  0
 31 26  1  0  0  0  0
 32 30  1  0  0  0  0
M  END
>  <MODEL>
9

>  <REMARK>
 VINA RESULT:      -8.9      2.798      5.822
  Name = 
  2 active torsions:
  status: ('A' for Active; 'I' for Inactive)
    1  A    between atoms: C_10  and  C_17
    2  A    between atoms: C_16  and  C_27
                            x       y       z     vdW  Elec       q    Type
                         _______ _______ _______ _____ _____    ______ ____

>  <TORSDO>
F 2

$$$$
