=
 OpenBabel10272413313D

 32 36  0  0  1  0  0  0  0  0999 V2000
  189.1620  177.5450  136.3910 C   0  0  1  0  0  3  0  0  0  0  0  0
  189.0030  177.4760  141.4200 C   0  0  0  0  0  0  0  0  0  0  0  0
  184.4850  179.1800  142.5070 C   0  0  0  0  0  2  0  0  0  0  0  0
  184.4550  178.1650  143.5550 N   0  0  0  0  0  2  0  0  0  0  0  0
  189.7610  177.2750  139.0520 C   0  0  1  0  0  3  0  0  0  0  0  0
  187.5860  178.3620  139.4970 C   0  0  0  0  0  2  0  0  0  0  0  0
  188.7400  178.7410  137.2670 C   0  0  0  0  0  2  0  0  0  0  0  0
  185.3890  178.7180  141.3720 C   0  0  0  0  0  2  0  0  0  0  0  0
  187.7890  178.0490  140.9670 C   0  0  0  0  0  0  0  0  0  0  0  0
  186.7280  178.2400  141.8760 C   0  0  0  0  0  0  0  0  0  0  0  0
  188.1160  177.3410  143.6760 C   0  0  0  0  0  0  0  0  0  0  0  0
  190.3770  176.7700  136.9540 C   0  0  0  0  0  2  0  0  0  0  0  0
  188.9160  178.5070  138.7720 C   0  0  2  0  0  3  0  0  0  0  0  0
  190.8580  177.2690  138.1830 O   0  0  0  0  0  0  0  0  0  0  0  0
  185.7620  178.1120  144.2180 C   0  0  1  0  0  3  0  0  0  0  0  0
  186.8910  177.8820  143.2360 C   0  0  0  0  0  0  0  0  0  0  0  0
  190.1910  177.2960  140.5100 C   0  0  0  0  0  2  0  0  0  0  0  0
  185.9870  179.3310  144.9810 N   0  0  0  0  0  1  0  0  0  0  0  0
  189.1500  177.1370  142.7620 C   0  0  0  0  0  3  0  0  0  0  0  0
  188.0000  176.5780  136.2070 C   0  0  0  0  0  2  0  0  0  0  0  0
  187.1630  176.9440  134.9930 C   0  0  2  0  0  3  0  0  0  0  0  0
  187.7200  178.0350  134.3460 F   0  0  0  0  0  0  0  0  0  0  0  0
  185.5140  176.7520  136.8430 C   0  0  0  0  0  1  0  0  0  0  0  0
  185.7560  177.2840  135.4440 C   0  0  0  0  0  2  0  0  0  0  0  0
  188.3210  176.9460  145.1160 C   0  0  0  0  0  2  0  0  0  0  0  0
  191.7410  177.9050  145.2680 O   0  0  0  0  0  1  0  0  0  0  0  0
  190.7810  176.9970  145.7110 C   0  0  1  0  0  3  0  0  0  0  0  0
  189.2970  177.7970  147.3640 C   0  0  2  0  0  3  0  0  0  0  0  0
  190.0040  176.7420  147.9520 O   0  0  0  0  0  0  0  0  0  0  0  0
  191.1210  176.5480  147.1210 C   0  0  0  0  0  2  0  0  0  0  0  0
  187.8590  177.8470  147.8570 C   0  0  0  0  0  1  0  0  0  0  0  0
  189.4550  177.6920  145.8540 C   0  0  2  0  0  3  0  0  0  0  0  0
  1 20  1  1  0  0  0
  1 12  1  0  0  0  0
  1  7  1  0  0  0  0
  2 19  1  0  0  0  0
  3  4  1  0  0  0  0
  4 15  1  0  0  0  0
  5 17  1  1  0  0  0
  6  9  1  0  0  0  0
  8 10  1  0  0  0  0
  8  3  1  0  0  0  0
  9  2  2  0  0  0  0
  9 10  1  0  0  0  0
 10 16  2  0  0  0  0
 11 25  1  0  0  0  0
 12 14  1  0  0  0  0
 13  7  1  6  0  0  0
 13  5  1  0  0  0  0
 13  6  1  0  0  0  0
 14  5  1  0  0  0  0
 15 18  1  6  0  0  0
 16 11  1  0  0  0  0
 16 15  1  0  0  0  0
 17  2  1  0  0  0  0
 19 11  2  0  0  0  0
 21 22  1  1  0  0  0
 21 24  1  0  0  0  0
 21 20  1  0  0  0  0
 24 23  1  0  0  0  0
 27 26  1  1  0  0  0
 27 32  1  0  0  0  0
 27 30  1  0  0  0  0
 28 31  1  6  0  0  0
 28 29  1  0  0  0  0
 30 29  1  0  0  0  0
 32 25  1  1  0  0  0
 32 28  1  0  0  0  0
M  END
>  <MODEL>
1

>  <REMARK>
 VINA RESULT:      -8.8      0.000      0.000
  Name = 
  5 active torsions:
  status: ('A' for Active; 'I' for Inactive)
    1  A    between atoms: C_1  and  C_20
    2  A    between atoms: C_1  and  C_24
    3  A    between atoms: C_2  and  C_24
    4  A    between atoms: C_16  and  C_27
    5  A    between atoms: C_27  and  C_32
                            x       y       z     vdW  Elec       q    Type
                         _______ _______ _______ _____ _____    ______ ____

>  <TORSDO>
F 5

$$$$
=
 OpenBabel10272413313D

 32 36  0  0  1  0  0  0  0  0999 V2000
  184.4630  179.0710  145.1690 C   0  0  1  0  0  3  0  0  0  0  0  0
  184.3440  178.3730  140.1870 C   0  0  0  0  0  0  0  0  0  0  0  0
  189.1070  178.4600  138.8430 C   0  0  0  0  0  2  0  0  0  0  0  0
  188.7740  177.3710  137.9310 N   0  0  0  0  0  2  0  0  0  0  0  0
  183.6800  178.6910  142.5700 C   0  0  1  0  0  3  0  0  0  0  0  0
  186.0570  178.9950  141.9670 C   0  0  0  0  0  2  0  0  0  0  0  0
  185.1860  179.9680  144.1450 C   0  0  0  0  0  2  0  0  0  0  0  0
  188.1630  178.4350  140.0380 C   0  0  0  0  0  2  0  0  0  0  0  0
  185.6970  178.5910  140.5510 C   0  0  0  0  0  0  0  0  0  0  0  0
  186.7180  178.3380  139.6130 C   0  0  0  0  0  0  0  0  0  0  0  0
  185.0350  177.7090  137.9560 C   0  0  0  0  0  0  0  0  0  0  0  0
  183.0440  178.6490  144.7220 C   0  0  0  0  0  2  0  0  0  0  0  0
  184.8730  179.6260  142.6840 C   0  0  2  0  0  3  0  0  0  0  0  0
  182.6770  179.1250  143.4450 O   0  0  0  0  0  0  0  0  0  0  0  0
  187.4830  177.6480  137.2950 C   0  0  1  0  0  3  0  0  0  0  0  0
  186.3870  177.8920  138.3110 C   0  0  0  0  0  0  0  0  0  0  0  0
  183.2040  178.6750  141.1260 C   0  0  0  0  0  2  0  0  0  0  0  0
  187.6030  178.7790  136.3870 N   0  0  0  0  0  1  0  0  0  0  0  0
  184.0350  177.9420  138.9000 C   0  0  0  0  0  3  0  0  0  0  0  0
  185.2830  177.8200  145.4600 C   0  0  0  0  0  2  0  0  0  0  0  0
  186.2400  178.0440  146.6180 C   0  0  2  0  0  3  0  0  0  0  0  0
  186.0340  179.3000  147.1660 F   0  0  0  0  0  0  0  0  0  0  0  0
  187.6980  177.1780  144.8010 C   0  0  0  0  0  1  0  0  0  0  0  0
  187.6650  177.9370  146.1130 C   0  0  0  0  0  2  0  0  0  0  0  0
  184.6490  177.2320  136.5800 C   0  0  0  0  0  2  0  0  0  0  0  0
  184.4220  173.8720  137.7190 O   0  0  0  0  0  1  0  0  0  0  0  0
  184.8930  174.7160  136.7150 C   0  0  1  0  0  3  0  0  0  0  0  0
  183.2690  175.5210  135.2030 C   0  0  2  0  0  3  0  0  0  0  0  0
  184.1640  174.7580  134.4440 O   0  0  0  0  0  0  0  0  0  0  0  0
  184.8680  173.9850  135.3850 C   0  0  0  0  0  2  0  0  0  0  0  0
  182.7520  176.7160  134.4180 C   0  0  0  0  0  1  0  0  0  0  0  0
  183.9380  175.8620  136.5260 C   0  0  2  0  0  3  0  0  0  0  0  0
  1 20  1  6  0  0  0
  2  9  1  0  0  0  0
  2 17  1  0  0  0  0
  3  8  1  0  0  0  0
  4  3  1  0  0  0  0
  5 17  1  6  0  0  0
  5 13  1  0  0  0  0
  5 14  1  0  0  0  0
  7  1  1  0  0  0  0
  9  6  1  0  0  0  0
 10  8  1  0  0  0  0
 10  9  2  0  0  0  0
 11 16  2  0  0  0  0
 11 19  1  0  0  0  0
 12  1  1  0  0  0  0
 13  6  1  1  0  0  0
 13  7  1  0  0  0  0
 14 12  1  0  0  0  0
 15 18  1  6  0  0  0
 15  4  1  0  0  0  0
 15 16  1  0  0  0  0
 16 10  1  0  0  0  0
 19  2  2  0  0  0  0
 20 21  1  0  0  0  0
 21 22  1  6  0  0  0
 23 24  1  0  0  0  0
 24 21  1  0  0  0  0
 25 11  1  0  0  0  0
 27 26  1  1  0  0  0
 28 31  1  6  0  0  0
 28 32  1  0  0  0  0
 29 28  1  0  0  0  0
 29 30  1  0  0  0  0
 30 27  1  0  0  0  0
 32 25  1  6  0  0  0
 32 27  1  0  0  0  0
M  END
>  <MODEL>
2

>  <REMARK>
 VINA RESULT:      -7.4      4.300      9.240
  Name = 
  5 active torsions:
  status: ('A' for Active; 'I' for Inactive)
    1  A    between atoms: C_1  and  C_20
    2  A    between atoms: C_1  and  C_24
    3  A    between atoms: C_2  and  C_24
    4  A    between atoms: C_16  and  C_27
    5  A    between atoms: C_27  and  C_32
                            x       y       z     vdW  Elec       q    Type
                         _______ _______ _______ _____ _____    ______ ____

>  <TORSDO>
F 5

$$$$
=
 OpenBabel10272413313D

 32 36  0  0  1  0  0  0  0  0999 V2000
  191.4650  176.8760  143.0810 C   0  0  1  0  0  3  0  0  0  0  0  0
  187.0560  178.1160  140.9970 C   0  0  0  0  0  0  0  0  0  0  0  0
  183.9470  178.4070  144.8380 C   0  0  0  0  0  2  0  0  0  0  0  0
  183.3780  179.5740  144.1700 N   0  0  0  0  0  2  0  0  0  0  0  0
  189.4510  177.5040  141.3310 C   0  0  1  0  0  3  0  0  0  0  0  0
  187.9290  177.3830  143.2750 C   0  0  0  0  0  2  0  0  0  0  0  0
  190.1390  176.1340  143.3380 C   0  0  0  0  0  2  0  0  0  0  0  0
  185.4100  178.2540  144.4440 C   0  0  0  0  0  2  0  0  0  0  0  0
  186.8290  177.9240  142.3830 C   0  0  0  0  0  0  0  0  0  0  0  0
  185.6030  178.3280  142.9500 C   0  0  0  0  0  0  0  0  0  0  0  0
  184.8310  179.0560  140.7480 C   0  0  0  0  0  0  0  0  0  0  0  0
  191.6670  177.2770  141.6000 C   0  0  0  0  0  2  0  0  0  0  0  0
  188.9720  176.6200  142.4720 C   0  0  2  0  0  3  0  0  0  0  0  0
  190.5900  176.9280  140.7580 O   0  0  0  0  0  0  0  0  0  0  0  0
  183.2730  179.3080  142.7330 C   0  0  1  0  0  3  0  0  0  0  0  0
  184.6000  178.8990  142.1290 C   0  0  0  0  0  0  0  0  0  0  0  0
  188.3230  177.6570  140.3230 C   0  0  0  0  0  2  0  0  0  0  0  0
  182.2620  178.2910  142.4830 N   0  0  0  0  0  1  0  0  0  0  0  0
  186.0570  178.6720  140.2030 C   0  0  0  0  0  3  0  0  0  0  0  0
  191.5590  178.1240  143.9480 C   0  0  0  0  0  2  0  0  0  0  0  0
  191.5300  177.7730  145.4260 C   0  0  2  0  0  3  0  0  0  0  0  0
  191.9590  176.4690  145.6110 F   0  0  0  0  0  0  0  0  0  0  0  0
  189.8610  176.9300  147.0640 C   0  0  0  0  0  1  0  0  0  0  0  0
  190.1130  177.9210  145.9440 C   0  0  0  0  0  2  0  0  0  0  0  0
  183.7870  179.6630  139.8470 C   0  0  0  0  0  2  0  0  0  0  0  0
  182.5920  176.3370  139.4640 O   0  0  0  0  0  1  0  0  0  0  0  0
  183.2080  177.4170  138.8340 C   0  0  1  0  0  3  0  0  0  0  0  0
  181.7890  179.2130  138.2540 C   0  0  2  0  0  3  0  0  0  0  0  0
  182.3030  178.7180  137.0500 O   0  0  0  0  0  0  0  0  0  0  0  0
  182.8080  177.4450  137.3690 C   0  0  0  0  0  2  0  0  0  0  0  0
  181.6130  180.7230  138.2050 C   0  0  0  0  0  1  0  0  0  0  0  0
  182.6650  178.7050  139.3900 C   0  0  2  0  0  3  0  0  0  0  0  0
  1  7  1  0  0  0  0
  1 20  1  1  0  0  0
  2  9  1  0  0  0  0
  4  3  1  0  0  0  0
  5 17  1  6  0  0  0
  5 13  1  0  0  0  0
  8  3  1  0  0  0  0
  9 10  2  0  0  0  0
  9  6  1  0  0  0  0
 10  8  1  0  0  0  0
 11 16  2  0  0  0  0
 12  1  1  0  0  0  0
 13  6  1  1  0  0  0
 13  7  1  0  0  0  0
 14  5  1  0  0  0  0
 14 12  1  0  0  0  0
 15 18  1  1  0  0  0
 15  4  1  0  0  0  0
 16 15  1  0  0  0  0
 16 10  1  0  0  0  0
 17  2  1  0  0  0  0
 19 11  1  0  0  0  0
 19  2  2  0  0  0  0
 20 21  1  0  0  0  0
 21 22  1  6  0  0  0
 21 24  1  0  0  0  0
 24 23  1  0  0  0  0
 25 11  1  0  0  0  0
 27 32  1  0  0  0  0
 27 26  1  1  0  0  0
 28 31  1  6  0  0  0
 28 32  1  0  0  0  0
 29 30  1  0  0  0  0
 29 28  1  0  0  0  0
 30 27  1  0  0  0  0
 32 25  1  6  0  0  0
M  END
>  <MODEL>
3

>  <REMARK>
 VINA RESULT:      -7.3      3.657      7.662
  Name = 
  5 active torsions:
  status: ('A' for Active; 'I' for Inactive)
    1  A    between atoms: C_1  and  C_20
    2  A    between atoms: C_1  and  C_24
    3  A    between atoms: C_2  and  C_24
    4  A    between atoms: C_16  and  C_27
    5  A    between atoms: C_27  and  C_32
                            x       y       z     vdW  Elec       q    Type
                         _______ _______ _______ _____ _____    ______ ____

>  <TORSDO>
F 5

$$$$
=
 OpenBabel10272413313D

 32 36  0  0  1  0  0  0  0  0999 V2000
  189.2950  177.2720  147.3890 C   0  0  1  0  0  3  0  0  0  0  0  0
  189.0570  177.4980  142.3680 C   0  0  0  0  0  0  0  0  0  0  0  0
  184.3380  178.6670  141.4370 C   0  0  0  0  0  2  0  0  0  0  0  0
  184.8570  179.5380  140.3870 N   0  0  0  0  0  2  0  0  0  0  0  0
  189.8640  177.1980  144.7090 C   0  0  1  0  0  3  0  0  0  0  0  0
  187.4440  177.5390  144.3400 C   0  0  0  0  0  2  0  0  0  0  0  0
  188.2460  176.5390  146.5320 C   0  0  0  0  0  2  0  0  0  0  0  0
  185.3780  178.5180  142.5400 C   0  0  0  0  0  2  0  0  0  0  0  0
  187.7450  177.7060  142.8630 C   0  0  0  0  0  0  0  0  0  0  0  0
  186.7370  178.1630  141.9910 C   0  0  0  0  0  0  0  0  0  0  0  0
  188.3360  178.1480  140.1420 C   0  0  0  0  0  0  0  0  0  0  0  0
  190.7180  177.2320  146.7840 C   0  0  0  0  0  2  0  0  0  0  0  0
  188.4780  176.6560  145.0210 C   0  0  2  0  0  3  0  0  0  0  0  0
  190.7970  176.5690  145.5410 O   0  0  0  0  0  0  0  0  0  0  0  0
  185.9440  178.8530  139.6810 C   0  0  1  0  0  3  0  0  0  0  0  0
  187.0340  178.3880  140.6240 C   0  0  0  0  0  0  0  0  0  0  0  0
  190.1640  176.9600  143.2380 C   0  0  0  0  0  2  0  0  0  0  0  0
  185.4170  177.7330  138.9150 N   0  0  0  0  0  1  0  0  0  0  0  0
  189.3310  177.7170  141.0210 C   0  0  0  0  0  3  0  0  0  0  0  0
  188.8910  178.7240  147.6080 C   0  0  0  0  0  2  0  0  0  0  0  0
  187.5040  178.8240  148.2210 C   0  0  2  0  0  3  0  0  0  0  0  0
  187.0950  177.5810  148.6730 F   0  0  0  0  0  0  0  0  0  0  0  0
  185.3260  178.4140  147.0960 C   0  0  0  0  0  1  0  0  0  0  0  0
  186.5330  179.3280  147.1720 C   0  0  0  0  0  2  0  0  0  0  0  0
  188.6860  178.3800  138.6950 C   0  0  0  0  0  2  0  0  0  0  0  0
  190.1070  175.1890  138.0360 O   0  0  0  0  0  1  0  0  0  0  0  0
  190.1310  176.5460  137.7180 C   0  0  1  0  0  3  0  0  0  0  0  0
  188.3650  177.3130  136.3520 C   0  0  2  0  0  3  0  0  0  0  0  0
  189.5410  177.5190  135.6220 O   0  0  0  0  0  0  0  0  0  0  0  0
  190.5060  176.7180  136.2570 C   0  0  0  0  0  2  0  0  0  0  0  0
  187.3500  178.4160  136.0960 C   0  0  0  0  0  1  0  0  0  0  0  0
  188.7420  177.1130  137.8130 C   0  0  2  0  0  3  0  0  0  0  0  0
  1 20  1  6  0  0  0
  2  9  1  0  0  0  0
  2 17  1  0  0  0  0
  3  8  1  0  0  0  0
  4  3  1  0  0  0  0
  5 17  1  6  0  0  0
  5 13  1  0  0  0  0
  5 14  1  0  0  0  0
  7  1  1  0  0  0  0
  9  6  1  0  0  0  0
 10  8  1  0  0  0  0
 10  9  2  0  0  0  0
 11 16  2  0  0  0  0
 11 19  1  0  0  0  0
 12  1  1  0  0  0  0
 13  6  1  1  0  0  0
 13  7  1  0  0  0  0
 14 12  1  0  0  0  0
 15 18  1  1  0  0  0
 15  4  1  0  0  0  0
 15 16  1  0  0  0  0
 16 10  1  0  0  0  0
 19  2  2  0  0  0  0
 20 21  1  0  0  0  0
 21 22  1  6  0  0  0
 23 24  1  0  0  0  0
 24 21  1  0  0  0  0
 25 11  1  0  0  0  0
 27 32  1  0  0  0  0
 27 26  1  6  0  0  0
 28 31  1  1  0  0  0
 28 32  1  0  0  0  0
 29 30  1  0  0  0  0
 29 28  1  0  0  0  0
 30 27  1  0  0  0  0
 32 25  1  1  0  0  0
M  END
>  <MODEL>
4

>  <REMARK>
 VINA RESULT:      -7.1      3.033      8.125
  Name = 
  5 active torsions:
  status: ('A' for Active; 'I' for Inactive)
    1  A    between atoms: C_1  and  C_20
    2  A    between atoms: C_1  and  C_24
    3  A    between atoms: C_2  and  C_24
    4  A    between atoms: C_16  and  C_27
    5  A    between atoms: C_27  and  C_32
                            x       y       z     vdW  Elec       q    Type
                         _______ _______ _______ _____ _____    ______ ____

>  <TORSDO>
F 5

$$$$
=
 OpenBabel10272413313D

 32 36  0  0  1  0  0  0  0  0999 V2000
  187.2700  177.6370  146.5570 C   0  0  1  0  0  3  0  0  0  0  0  0
  189.2740  177.1020  141.9730 C   0  0  0  0  0  0  0  0  0  0  0  0
  185.6080  178.3710  138.8990 C   0  0  0  0  0  2  0  0  0  0  0  0
  186.6320  179.0400  138.1020 N   0  0  0  0  0  2  0  0  0  0  0  0
  188.9380  177.1210  144.4440 C   0  0  1  0  0  3  0  0  0  0  0  0
  186.9810  177.5340  142.9930 C   0  0  0  0  0  2  0  0  0  0  0  0
  186.6210  176.8390  145.4090 C   0  0  0  0  0  2  0  0  0  0  0  0
  186.0370  178.3370  140.3590 C   0  0  0  0  0  2  0  0  0  0  0  0
  187.9120  177.4550  141.8000 C   0  0  0  0  0  0  0  0  0  0  0  0
  187.4480  177.8270  140.5220 C   0  0  0  0  0  0  0  0  0  0  0  0
  189.6790  177.4400  139.6030 C   0  0  0  0  0  0  0  0  0  0  0  0
  188.7990  177.4270  146.6630 C   0  0  0  0  0  2  0  0  0  0  0  0
  187.5020  176.7100  144.1610 C   0  0  2  0  0  3  0  0  0  0  0  0
  189.3330  176.5770  145.6710 O   0  0  0  0  0  0  0  0  0  0  0  0
  187.8290  178.1960  138.0410 C   0  0  1  0  0  3  0  0  0  0  0  0
  188.3350  177.8230  139.4190 C   0  0  0  0  0  0  0  0  0  0  0  0
  189.8200  176.6430  143.3010 C   0  0  0  0  0  2  0  0  0  0  0  0
  187.5610  177.0020  137.2520 N   0  0  0  0  0  1  0  0  0  0  0  0
  190.1320  177.0940  140.8760 C   0  0  0  0  0  3  0  0  0  0  0  0
  186.9850  179.1250  146.4060 C   0  0  0  0  0  2  0  0  0  0  0  0
  185.4910  179.3990  146.3590 C   0  0  2  0  0  3  0  0  0  0  0  0
  184.8090  178.4240  147.0680 F   0  0  0  0  0  0  0  0  0  0  0  0
  183.5330  179.1600  144.8460 C   0  0  0  0  0  1  0  0  0  0  0  0
  185.0300  179.3950  144.9150 C   0  0  0  0  0  2  0  0  0  0  0  0
  190.6500  177.4270  138.4500 C   0  0  0  0  0  2  0  0  0  0  0  0
  194.0200  176.5440  139.1580 O   0  0  0  0  0  1  0  0  0  0  0  0
  193.1050  176.8820  138.1620 C   0  0  1  0  0  3  0  0  0  0  0  0
  191.5860  175.1840  137.5440 C   0  0  2  0  0  3  0  0  0  0  0  0
  192.3440  175.4650  136.4010 O   0  0  0  0  0  0  0  0  0  0  0  0
  193.4680  176.1630  136.8750 C   0  0  0  0  0  2  0  0  0  0  0  0
  190.1490  174.8390  137.1880 C   0  0  0  0  0  1  0  0  0  0  0  0
  191.7470  176.3420  138.5180 C   0  0  2  0  0  3  0  0  0  0  0  0
  1 20  1  6  0  0  0
  1 12  1  0  0  0  0
  2 17  1  0  0  0  0
  3  8  1  0  0  0  0
  4  3  1  0  0  0  0
  5 17  1  6  0  0  0
  5 14  1  0  0  0  0
  7  1  1  0  0  0  0
  8 10  1  0  0  0  0
  9  2  1  0  0  0  0
  9  6  1  0  0  0  0
 10  9  2  0  0  0  0
 11 19  1  0  0  0  0
 13  6  1  6  0  0  0
 13  5  1  0  0  0  0
 13  7  1  0  0  0  0
 14 12  1  0  0  0  0
 15 18  1  6  0  0  0
 15  4  1  0  0  0  0
 15 16  1  0  0  0  0
 16 11  2  0  0  0  0
 16 10  1  0  0  0  0
 19  2  2  0  0  0  0
 21 20  1  0  0  0  0
 21 22  1  1  0  0  0
 23 24  1  0  0  0  0
 24 21  1  0  0  0  0
 25 11  1  0  0  0  0
 27 32  1  0  0  0  0
 27 26  1  1  0  0  0
 28 31  1  6  0  0  0
 28 32  1  0  0  0  0
 29 30  1  0  0  0  0
 29 28  1  0  0  0  0
 30 27  1  0  0  0  0
 32 25  1  6  0  0  0
M  END
>  <MODEL>
5

>  <REMARK>
 VINA RESULT:      -7.1      3.330      7.753
  Name = 
  5 active torsions:
  status: ('A' for Active; 'I' for Inactive)
    1  A    between atoms: C_1  and  C_20
    2  A    between atoms: C_1  and  C_24
    3  A    between atoms: C_2  and  C_24
    4  A    between atoms: C_16  and  C_27
    5  A    between atoms: C_27  and  C_32
                            x       y       z     vdW  Elec       q    Type
                         _______ _______ _______ _____ _____    ______ ____

>  <TORSDO>
F 5

$$$$
=
 OpenBabel10272413313D

 32 36  0  0  1  0  0  0  0  0999 V2000
  185.3270  178.7200  146.1010 C   0  0  1  0  0  3  0  0  0  0  0  0
  184.4270  178.5160  141.1550 C   0  0  0  0  0  0  0  0  0  0  0  0
  188.9340  178.4850  139.1100 C   0  0  0  0  0  2  0  0  0  0  0  0
  188.3980  177.5080  138.1660 N   0  0  0  0  0  2  0  0  0  0  0  0
  184.1440  178.6360  143.6300 C   0  0  1  0  0  3  0  0  0  0  0  0
  186.4210  178.8720  142.6990 C   0  0  0  0  0  2  0  0  0  0  0  0
  185.9480  179.6730  145.0620 C   0  0  0  0  0  2  0  0  0  0  0  0
  188.1770  178.3930  140.4270 C   0  0  0  0  0  2  0  0  0  0  0  0
  185.8300  178.6280  141.3250 C   0  0  0  0  0  0  0  0  0  0  0  0
  186.6820  178.4140  140.2230 C   0  0  0  0  0  0  0  0  0  0  0  0
  184.7350  178.0370  138.7940 C   0  0  0  0  0  0  0  0  0  0  0  0
  183.8320  178.4180  145.8410 C   0  0  0  0  0  2  0  0  0  0  0  0
  185.4010  179.4920  143.6410 C   0  0  2  0  0  3  0  0  0  0  0  0
  183.3130  179.0350  144.6830 O   0  0  0  0  0  0  0  0  0  0  0  0
  187.0480  177.9120  137.7630 C   0  0  1  0  0  3  0  0  0  0  0  0
  186.1340  178.1140  138.9520 C   0  0  0  0  0  0  0  0  0  0  0  0
  183.4610  178.7850  142.2800 C   0  0  0  0  0  2  0  0  0  0  0  0
  187.1070  179.1190  136.9510 N   0  0  0  0  0  1  0  0  0  0  0  0
  183.9020  178.2290  139.8980 C   0  0  0  0  0  3  0  0  0  0  0  0
  186.0950  177.4060  146.1520 C   0  0  0  0  0  2  0  0  0  0  0  0
  187.5910  177.6360  146.0220 C   0  0  2  0  0  3  0  0  0  0  0  0
  188.0740  176.9890  144.8970 F   0  0  0  0  0  0  0  0  0  0  0  0
  188.1050  178.0550  148.4180 C   0  0  0  0  0  1  0  0  0  0  0  0
  188.2860  177.0970  147.2570 C   0  0  0  0  0  2  0  0  0  0  0  0
  184.1190  177.7170  137.4570 C   0  0  0  0  0  2  0  0  0  0  0  0
  182.0200  175.3830  139.1270 O   0  0  0  0  0  1  0  0  0  0  0  0
  182.9540  175.5660  138.1080 C   0  0  1  0  0  3  0  0  0  0  0  0
  182.1510  176.6320  136.1600 C   0  0  2  0  0  3  0  0  0  0  0  0
  182.5510  175.3500  135.7660 O   0  0  0  0  0  0  0  0  0  0  0  0
  182.6460  174.6170  136.9630 C   0  0  0  0  0  2  0  0  0  0  0  0
  182.4280  177.6590  135.0740 C   0  0  0  0  0  1  0  0  0  0  0  0
  182.7870  176.9350  137.5090 C   0  0  2  0  0  3  0  0  0  0  0  0
  1 20  1  6  0  0  0
  2  9  1  0  0  0  0
  2 17  1  0  0  0  0
  3  8  1  0  0  0  0
  4  3  1  0  0  0  0
  5 17  1  6  0  0  0
  5 13  1  0  0  0  0
  5 14  1  0  0  0  0
  7  1  1  0  0  0  0
  9  6  1  0  0  0  0
 10  8  1  0  0  0  0
 10  9  2  0  0  0  0
 11 16  2  0  0  0  0
 11 19  1  0  0  0  0
 12  1  1  0  0  0  0
 13  6  1  6  0  0  0
 13  7  1  0  0  0  0
 14 12  1  0  0  0  0
 15 18  1  1  0  0  0
 15  4  1  0  0  0  0
 15 16  1  0  0  0  0
 16 10  1  0  0  0  0
 19  2  2  0  0  0  0
 21 22  1  6  0  0  0
 21 20  1  0  0  0  0
 21 24  1  0  0  0  0
 24 23  1  0  0  0  0
 25 11  1  0  0  0  0
 27 26  1  1  0  0  0
 28 31  1  6  0  0  0
 28 32  1  0  0  0  0
 29 28  1  0  0  0  0
 29 30  1  0  0  0  0
 30 27  1  0  0  0  0
 32 25  1  6  0  0  0
 32 27  1  0  0  0  0
M  END
>  <MODEL>
6

>  <REMARK>
 VINA RESULT:      -7.0      4.090      9.202
  Name = 
  5 active torsions:
  status: ('A' for Active; 'I' for Inactive)
    1  A    between atoms: C_1  and  C_20
    2  A    between atoms: C_1  and  C_24
    3  A    between atoms: C_2  and  C_24
    4  A    between atoms: C_16  and  C_27
    5  A    between atoms: C_27  and  C_32
                            x       y       z     vdW  Elec       q    Type
                         _______ _______ _______ _____ _____    ______ ____

>  <TORSDO>
F 5

$$$$
=
 OpenBabel10272413313D

 32 36  0  0  1  0  0  0  0  0999 V2000
  190.9510  177.5600  144.8090 C   0  0  1  0  0  3  0  0  0  0  0  0
  188.7180  177.6740  140.3010 C   0  0  0  0  0  0  0  0  0  0  0  0
  192.1940  176.0150  137.1920 C   0  0  0  0  0  2  0  0  0  0  0  0
  191.1180  175.2920  136.5210 N   0  0  0  0  0  2  0  0  0  0  0  0
  189.1830  177.8970  142.7420 C   0  0  1  0  0  3  0  0  0  0  0  0
  191.0540  177.2950  141.2430 C   0  0  0  0  0  2  0  0  0  0  0  0
  191.5520  178.2220  143.5540 C   0  0  0  0  0  2  0  0  0  0  0  0
  191.8430  176.2070  138.6620 C   0  0  0  0  0  2  0  0  0  0  0  0
  190.0620  177.2740  140.0970 C   0  0  0  0  0  0  0  0  0  0  0  0
  190.4530  176.7630  138.8430 C   0  0  0  0  0  0  0  0  0  0  0  0
  188.1830  177.1060  138.0020 C   0  0  0  0  0  0  0  0  0  0  0  0
  189.4330  177.8160  144.9700 C   0  0  0  0  0  2  0  0  0  0  0  0
  190.6100  178.2440  142.3460 C   0  0  2  0  0  3  0  0  0  0  0  0
  188.8630  178.5730  143.9250 O   0  0  0  0  0  0  0  0  0  0  0  0
  189.9350  176.1530  136.4350 C   0  0  1  0  0  3  0  0  0  0  0  0
  189.5090  176.6760  137.7910 C   0  0  0  0  0  0  0  0  0  0  0  0
  188.2520  178.2770  141.6010 C   0  0  0  0  0  2  0  0  0  0  0  0
  190.1820  177.2540  135.5150 N   0  0  0  0  0  1  0  0  0  0  0  0
  187.8040  177.5890  139.2550 C   0  0  0  0  0  3  0  0  0  0  0  0
  191.2010  176.0580  144.7970 C   0  0  0  0  0  2  0  0  0  0  0  0
  192.2180  175.6590  145.8530 C   0  0  2  0  0  3  0  0  0  0  0  0
  192.4730  174.3000  145.7750 F   0  0  0  0  0  0  0  0  0  0  0  0
  192.7350  175.7870  148.2810 C   0  0  0  0  0  1  0  0  0  0  0  0
  191.6670  175.9950  147.2250 C   0  0  0  0  0  2  0  0  0  0  0  0
  187.1530  177.0240  136.9050 C   0  0  0  0  0  2  0  0  0  0  0  0
  186.5170  173.6130  136.1330 O   0  0  0  0  0  1  0  0  0  0  0  0
  186.3060  174.9370  135.7510 C   0  0  1  0  0  3  0  0  0  0  0  0
  184.7190  176.1340  137.0250 C   0  0  2  0  0  3  0  0  0  0  0  0
  184.2150  176.0840  135.7200 O   0  0  0  0  0  0  0  0  0  0  0  0
  184.9460  175.0630  135.0880 C   0  0  0  0  0  2  0  0  0  0  0  0
  184.3750  177.4490  137.7060 C   0  0  0  0  0  1  0  0  0  0  0  0
  186.2050  175.8070  136.9730 C   0  0  2  0  0  3  0  0  0  0  0  0
  1 20  1  6  0  0  0
  1 12  1  0  0  0  0
  2 17  1  0  0  0  0
  3  8  1  0  0  0  0
  4  3  1  0  0  0  0
  5 17  1  6  0  0  0
  5 14  1  0  0  0  0
  7  1  1  0  0  0  0
  8 10  1  0  0  0  0
  9  2  1  0  0  0  0
  9  6  1  0  0  0  0
 10  9  2  0  0  0  0
 11 19  1  0  0  0  0
 13  6  1  6  0  0  0
 13  5  1  0  0  0  0
 13  7  1  0  0  0  0
 14 12  1  0  0  0  0
 15 18  1  6  0  0  0
 15  4  1  0  0  0  0
 15 16  1  0  0  0  0
 16 11  2  0  0  0  0
 16 10  1  0  0  0  0
 19  2  2  0  0  0  0
 20 21  1  0  0  0  0
 21 22  1  1  0  0  0
 21 24  1  0  0  0  0
 24 23  1  0  0  0  0
 25 11  1  0  0  0  0
 27 26  1  1  0  0  0
 27 32  1  0  0  0  0
 28 31  1  6  0  0  0
 29 28  1  0  0  0  0
 30 29  1  0  0  0  0
 30 27  1  0  0  0  0
 32 25  1  6  0  0  0
 32 28  1  0  0  0  0
M  END
>  <MODEL>
7

>  <REMARK>
 VINA RESULT:      -6.8      4.094      9.066
  Name = 
  5 active torsions:
  status: ('A' for Active; 'I' for Inactive)
    1  A    between atoms: C_1  and  C_20
    2  A    between atoms: C_1  and  C_24
    3  A    between atoms: C_2  and  C_24
    4  A    between atoms: C_16  and  C_27
    5  A    between atoms: C_27  and  C_32
                            x       y       z     vdW  Elec       q    Type
                         _______ _______ _______ _____ _____    ______ ____

>  <TORSDO>
F 5

$$$$
=
 OpenBabel10272413313D

 32 36  0  0  1  0  0  0  0  0999 V2000
  191.7310  174.9170  136.6530 C   0  0  1  0  0  3  0  0  0  0  0  0
  188.8400  177.7710  139.6220 C   0  0  0  0  0  0  0  0  0  0  0  0
  184.4930  177.9480  137.2620 C   0  0  0  0  0  2  0  0  0  0  0  0
  183.8770  177.8270  138.5800 N   0  0  0  0  0  2  0  0  0  0  0  0
  190.7690  176.5140  138.6620 C   0  0  1  0  0  3  0  0  0  0  0  0
  188.7240  176.7450  137.2940 C   0  0  0  0  0  2  0  0  0  0  0  0
  190.9170  176.1330  136.1700 C   0  0  0  0  0  2  0  0  0  0  0  0
  185.8640  177.2850  137.2740 C   0  0  0  0  0  2  0  0  0  0  0  0
  188.0820  177.4620  138.4650 C   0  0  0  0  0  0  0  0  0  0  0  0
  186.7000  177.7380  138.4450 C   0  0  0  0  0  0  0  0  0  0  0  0
  186.8590  178.6720  140.6990 C   0  0  0  0  0  0  0  0  0  0  0  0
  192.4260  175.1460  138.0160 C   0  0  0  0  0  2  0  0  0  0  0  0
  190.2350  176.9170  137.2960 C   0  0  2  0  0  3  0  0  0  0  0  0
  192.1620  176.4070  138.5920 O   0  0  0  0  0  0  0  0  0  0  0  0
  184.6050  178.6660  139.5360 C   0  0  1  0  0  3  0  0  0  0  0  0
  186.0840  178.3440  139.5680 C   0  0  0  0  0  0  0  0  0  0  0  0
  190.3300  177.5490  139.6860 C   0  0  0  0  0  2  0  0  0  0  0  0
  184.3940  180.0740  139.2300 N   0  0  0  0  0  1  0  0  0  0  0  0
  188.2220  178.3730  140.7150 C   0  0  0  0  0  3  0  0  0  0  0  0
  190.8450  173.6820  136.7510 C   0  0  0  0  0  2  0  0  0  0  0  0
  190.1290  173.4110  135.4380 C   0  0  2  0  0  3  0  0  0  0  0  0
  188.7600  173.3880  135.6420 F   0  0  0  0  0  0  0  0  0  0  0  0
  192.0460  172.1420  134.4910 C   0  0  0  0  0  1  0  0  0  0  0  0
  190.5850  172.0720  134.8910 C   0  0  0  0  0  2  0  0  0  0  0  0
  186.2350  179.3130  141.9110 C   0  0  0  0  0  2  0  0  0  0  0  0
  182.8890  178.4510  142.7470 O   0  0  0  0  0  1  0  0  0  0  0  0
  184.0230  179.1650  143.1320 C   0  0  1  0  0  3  0  0  0  0  0  0
  185.7900  177.8800  144.0270 C   0  0  2  0  0  3  0  0  0  0  0  0
  185.3760  178.7410  145.0500 O   0  0  0  0  0  0  0  0  0  0  0  0
  184.1090  179.1990  144.6480 C   0  0  0  0  0  2  0  0  0  0  0  0
  187.2920  177.6480  144.0680 C   0  0  0  0  0  1  0  0  0  0  0  0
  185.2580  178.4200  142.7070 C   0  0  2  0  0  3  0  0  0  0  0  0
  1 20  1  1  0  0  0
  1 12  1  0  0  0  0
  2 17  1  0  0  0  0
  2 19  1  0  0  0  0
  3  8  1  0  0  0  0
  3  4  1  0  0  0  0
  4 15  1  0  0  0  0
  5 17  1  1  0  0  0
  6 13  1  0  0  0  0
  6  9  1  0  0  0  0
  7  1  1  0  0  0  0
  8 10  1  0  0  0  0
  9  2  2  0  0  0  0
 10  9  1  0  0  0  0
 10 16  2  0  0  0  0
 11 19  2  0  0  0  0
 11 25  1  0  0  0  0
 12 14  1  0  0  0  0
 13  7  1  6  0  0  0
 13  5  1  0  0  0  0
 14  5  1  0  0  0  0
 15 18  1  6  0  0  0
 15 16  1  0  0  0  0
 16 11  1  0  0  0  0
 21 22  1  1  0  0  0
 21 20  1  0  0  0  0
 23 24  1  0  0  0  0
 24 21  1  0  0  0  0
 27 26  1  1  0  0  0
 27 30  1  0  0  0  0
 28 31  1  6  0  0  0
 28 29  1  0  0  0  0
 30 29  1  0  0  0  0
 32 25  1  1  0  0  0
 32 27  1  0  0  0  0
 32 28  1  0  0  0  0
M  END
>  <MODEL>
8

>  <REMARK>
 VINA RESULT:      -6.6      3.127      4.842
  Name = 
  5 active torsions:
  status: ('A' for Active; 'I' for Inactive)
    1  A    between atoms: C_1  and  C_20
    2  A    between atoms: C_1  and  C_24
    3  A    between atoms: C_2  and  C_24
    4  A    between atoms: C_16  and  C_27
    5  A    between atoms: C_27  and  C_32
                            x       y       z     vdW  Elec       q    Type
                         _______ _______ _______ _____ _____    ______ ____

>  <TORSDO>
F 5

$$$$
=
 OpenBabel10272413313D

 32 36  0  0  1  0  0  0  0  0999 V2000
  189.4610  177.1400  146.1380 C   0  0  1  0  0  3  0  0  0  0  0  0
  188.7320  177.3760  141.1650 C   0  0  0  0  0  0  0  0  0  0  0  0
  184.0530  178.9220  140.7030 C   0  0  0  0  0  2  0  0  0  0  0  0
  184.5310  179.7450  139.5970 N   0  0  0  0  0  2  0  0  0  0  0  0
  189.7460  177.0160  143.4150 C   0  0  1  0  0  3  0  0  0  0  0  0
  187.3370  177.5510  143.2880 C   0  0  0  0  0  2  0  0  0  0  0  0
  188.2740  176.4930  145.3980 C   0  0  0  0  0  2  0  0  0  0  0  0
  185.1840  178.6910  141.6970 C   0  0  0  0  0  2  0  0  0  0  0  0
  187.4980  177.6900  141.7880 C   0  0  0  0  0  0  0  0  0  0  0  0
  186.4470  178.2260  141.0160 C   0  0  0  0  0  0  0  0  0  0  0  0
  187.8440  178.0780  139.0160 C   0  0  0  0  0  0  0  0  0  0  0  0
  190.8070  176.9850  145.3920 C   0  0  0  0  0  2  0  0  0  0  0  0
  188.3600  176.5880  143.8710 C   0  0  2  0  0  3  0  0  0  0  0  0
  190.7050  176.3150  144.1540 O   0  0  0  0  0  0  0  0  0  0  0  0
  185.4820  178.9730  138.7920 C   0  0  1  0  0  3  0  0  0  0  0  0
  186.6210  178.4240  139.6250 C   0  0  0  0  0  0  0  0  0  0  0  0
  189.8750  176.7520  141.9230 C   0  0  0  0  0  2  0  0  0  0  0  0
  184.7920  177.8980  138.0940 N   0  0  0  0  0  1  0  0  0  0  0  0
  188.8850  177.5690  139.7940 C   0  0  0  0  0  3  0  0  0  0  0  0
  189.1990  178.6210  146.3820 C   0  0  0  0  0  2  0  0  0  0  0  0
  188.6910  178.8660  147.7930 C   0  0  2  0  0  3  0  0  0  0  0  0
  189.5920  178.3600  148.7150 F   0  0  0  0  0  0  0  0  0  0  0  0
  186.2800  178.9280  147.1890 C   0  0  0  0  0  1  0  0  0  0  0  0
  187.3490  178.1820  147.9640 C   0  0  0  0  0  2  0  0  0  0  0  0
  188.0630  178.2780  137.5390 C   0  0  0  0  0  2  0  0  0  0  0  0
  186.4810  175.1180  137.1490 O   0  0  0  0  0  1  0  0  0  0  0  0
  187.6730  175.7790  137.4430 C   0  0  1  0  0  3  0  0  0  0  0  0
  188.8050  176.7230  135.5990 C   0  0  2  0  0  3  0  0  0  0  0  0
  189.6640  175.7550  136.1290 O   0  0  0  0  0  0  0  0  0  0  0  0
  188.8460  174.9530  136.9450 C   0  0  0  0  0  2  0  0  0  0  0  0
  189.5770  177.9200  135.0650 C   0  0  0  0  0  1  0  0  0  0  0  0
  187.7540  177.0540  136.6490 C   0  0  2  0  0  3  0  0  0  0  0  0
  1 20  1  6  0  0  0
  2  9  1  0  0  0  0
  2 17  1  0  0  0  0
  3  8  1  0  0  0  0
  4  3  1  0  0  0  0
  5 17  1  6  0  0  0
  5 13  1  0  0  0  0
  5 14  1  0  0  0  0
  7  1  1  0  0  0  0
  9  6  1  0  0  0  0
 10  8  1  0  0  0  0
 10  9  2  0  0  0  0
 11 16  2  0  0  0  0
 11 19  1  0  0  0  0
 12  1  1  0  0  0  0
 13  6  1  1  0  0  0
 13  7  1  0  0  0  0
 14 12  1  0  0  0  0
 15 18  1  1  0  0  0
 15  4  1  0  0  0  0
 15 16  1  0  0  0  0
 16 10  1  0  0  0  0
 19  2  2  0  0  0  0
 20 21  1  0  0  0  0
 21 24  1  0  0  0  0
 21 22  1  1  0  0  0
 23 24  1  0  0  0  0
 25 11  1  0  0  0  0
 27 26  1  6  0  0  0
 28 31  1  1  0  0  0
 28 29  1  0  0  0  0
 28 32  1  0  0  0  0
 29 30  1  0  0  0  0
 30 27  1  0  0  0  0
 32 27  1  0  0  0  0
 32 25  1  1  0  0  0
M  END
>  <MODEL>
9

>  <REMARK>
 VINA RESULT:      -6.3      3.211      8.176
  Name = 
  5 active torsions:
  status: ('A' for Active; 'I' for Inactive)
    1  A    between atoms: C_1  and  C_20
    2  A    between atoms: C_1  and  C_24
    3  A    between atoms: C_2  and  C_24
    4  A    between atoms: C_16  and  C_27
    5  A    between atoms: C_27  and  C_32
                            x       y       z     vdW  Elec       q    Type
                         _______ _______ _______ _____ _____    ______ ____

>  <TORSDO>
F 5

$$$$
