=
 OpenBabel10272400423D

 25 28  0  0  1  0  0  0  0  0999 V2000
  186.3690  178.9340  142.1600 C   0  0  2  0  0  3  0  0  0  0  0  0
  185.6130  178.8620  143.4350 C   0  0  0  0  0  0  0  0  0  0  0  0
  184.0240  179.0730  141.7890 N   0  0  0  0  0  0  0  0  0  0  0  0
  183.3670  178.8510  144.2210 C   0  0  0  0  0  0  0  0  0  0  0  0
  181.7540  178.9190  143.9610 S   0  0  0  0  0  0  0  0  0  0  0  0
  186.0900  178.7240  144.6960 N   0  0  0  0  0  0  0  0  0  0  0  0
  185.1880  179.0980  141.2090 C   0  0  0  0  0  0  0  0  0  0  0  0
  183.8530  178.7140  145.4890 N   0  0  0  0  0  2  0  0  0  0  0  0
  185.2000  178.6570  145.7300 C   0  0  0  0  0  0  0  0  0  0  0  0
  184.2790  178.9240  143.1750 C   0  0  0  0  0  0  0  0  0  0  0  0
  187.1650  177.6320  141.9550 C   0  0  2  0  0  3  0  0  0  0  0  0
  190.3150  176.2480  141.2820 O   0  0  0  0  0  1  0  0  0  0  0  0
  187.4190  176.9060  143.2580 C   0  0  0  0  0  2  0  0  0  0  0  0
  188.7310  176.1820  143.0570 C   0  0  0  0  0  2  0  0  0  0  0  0
  189.5250  177.0490  142.1030 C   0  0  2  0  0  3  0  0  0  0  0  0
  188.5140  177.8100  141.2670 C   0  0  0  0  0  2  0  0  0  0  0  0
  185.2990  179.2950  139.8340 O   0  0  0  0  0  0  0  0  0  0  0  0
  184.4750  180.1240  139.1820 O   0  0  0  0  0  1  0  0  0  0  0  0
  185.6950  178.4770  147.1220 C   0  0  0  0  0  2  0  0  0  0  0  0
  187.2060  178.5990  147.1510 C   0  0  2  0  0  3  0  0  0  0  0  0
  187.7950  177.2900  147.4260 C   0  0  2  0  0  3  0  0  0  0  0  0
  187.6930  178.2900  148.5010 N   0  0  0  0  0  2  0  0  0  0  0  0
  189.2030  177.2310  146.9200 C   0  0  0  0  0  0  0  0  0  0  0  0
  189.6380  178.0990  145.7870 C   0  0  0  0  0  1  0  0  0  0  0  0
  189.9950  176.4410  147.4080 O   0  0  0  0  0  0  0  0  0  0  0  0
  1  7  1  6  0  0  0
  1  2  1  0  0  0  0
  2  6  1  0  0  0  0
  3 10  1  0  0  0  0
  4  8  1  0  0  0  0
  5  4  2  0  0  0  0
  6  9  2  0  0  0  0
  7  3  2  0  0  0  0
  8  9  1  0  0  0  0
  9 19  1  0  0  0  0
 10  2  2  0  0  0  0
 10  4  1  0  0  0  0
 11 16  1  1  0  0  0
 11  1  1  0  0  0  0
 11 13  1  0  0  0  0
 14 13  1  0  0  0  0
 15 12  1  6  0  0  0
 15 14  1  0  0  0  0
 16 15  1  0  0  0  0
 17  7  1  0  0  0  0
 18 17  1  0  0  0  0
 20 19  1  1  0  0  0
 20 21  1  0  0  0  0
 20 22  1  0  0  0  0
 21 23  1  6  0  0  0
 21 22  1  0  0  0  0
 23 25  2  0  0  0  0
 24 23  1  0  0  0  0
M  END
>  <MODEL>
1

>  <REMARK>
 VINA RESULT:      -8.2      0.000      0.000
  Name = 
  5 active torsions:
  status: ('A' for Active; 'I' for Inactive)
    1  A    between atoms: C_1  and  C_5
    2  A    between atoms: C_2  and  C_21
    3  A    between atoms: O_4  and  C_18
    4  A    between atoms: C_6  and  C_15
    5  A    between atoms: C_6  and  C_23
                            x       y       z     vdW  Elec       q    Type
                         _______ _______ _______ _____ _____    ______ ____

>  <TORSDO>
F 5

$$$$
=
 OpenBabel10272400423D

 25 28  0  0  1  0  0  0  0  0999 V2000
  189.6370  178.3180  144.3000 C   0  0  2  0  0  3  0  0  0  0  0  0
  189.1610  178.1430  142.9040 C   0  0  0  0  0  0  0  0  0  0  0  0
  191.3210  177.3610  142.9200 N   0  0  0  0  0  0  0  0  0  0  0  0
  189.9190  177.2930  140.8150 C   0  0  0  0  0  0  0  0  0  0  0  0
  191.0690  176.6090  139.8750 S   0  0  0  0  0  0  0  0  0  0  0  0
  187.9480  178.4430  142.3800 N   0  0  0  0  0  0  0  0  0  0  0  0
  191.0560  177.7890  144.1180 C   0  0  0  0  0  0  0  0  0  0  0  0
  188.6960  177.5980  140.2920 N   0  0  0  0  0  2  0  0  0  0  0  0
  187.7190  178.1740  141.0610 C   0  0  0  0  0  0  0  0  0  0  0  0
  190.1460  177.5750  142.1580 C   0  0  0  0  0  0  0  0  0  0  0  0
  188.7690  177.4760  145.2520 C   0  0  2  0  0  3  0  0  0  0  0  0
  187.6200  177.1060  148.5440 O   0  0  0  0  0  1  0  0  0  0  0  0
  187.2910  177.7200  145.0460 C   0  0  0  0  0  2  0  0  0  0  0  0
  186.6600  177.4970  146.4010 C   0  0  0  0  0  2  0  0  0  0  0  0
  187.7160  177.9040  147.4070 C   0  0  2  0  0  3  0  0  0  0  0  0
  189.0590  177.6880  146.7350 C   0  0  0  0  0  2  0  0  0  0  0  0
  192.0310  177.7770  145.1140 O   0  0  0  0  0  0  0  0  0  0  0  0
  192.0830  176.7980  146.0250 O   0  0  0  0  0  1  0  0  0  0  0  0
  186.3860  178.4650  140.4660 C   0  0  0  0  0  2  0  0  0  0  0  0
  185.5700  179.3120  141.4220 C   0  0  2  0  0  3  0  0  0  0  0  0
  184.5650  178.4760  142.0750 C   0  0  2  0  0  3  0  0  0  0  0  0
  184.1770  179.3590  140.9620 N   0  0  0  0  0  2  0  0  0  0  0  0
  184.1400  179.0860  143.3760 C   0  0  0  0  0  0  0  0  0  0  0  0
  182.8320  178.7190  143.9930 C   0  0  0  0  0  1  0  0  0  0  0  0
  184.8470  179.9190  143.9200 O   0  0  0  0  0  0  0  0  0  0  0  0
  1  2  1  6  0  0  0
  1 11  1  0  0  0  0
  3  7  2  0  0  0  0
  4 10  1  0  0  0  0
  5  4  2  0  0  0  0
  6  2  1  0  0  0  0
  7  1  1  0  0  0  0
  7 17  1  0  0  0  0
  8  4  1  0  0  0  0
  8  9  1  0  0  0  0
  9  6  2  0  0  0  0
 10  2  2  0  0  0  0
 10  3  1  0  0  0  0
 11 13  1  1  0  0  0
 11 16  1  0  0  0  0
 13 14  1  0  0  0  0
 14 15  1  0  0  0  0
 15 12  1  1  0  0  0
 16 15  1  0  0  0  0
 17 18  1  0  0  0  0
 19  9  1  0  0  0  0
 20 19  1  6  0  0  0
 20 21  1  0  0  0  0
 21 23  1  1  0  0  0
 22 20  1  0  0  0  0
 22 21  1  0  0  0  0
 23 25  2  0  0  0  0
 23 24  1  0  0  0  0
M  END
>  <MODEL>
2

>  <REMARK>
 VINA RESULT:      -7.9      3.271      6.651
  Name = 
  5 active torsions:
  status: ('A' for Active; 'I' for Inactive)
    1  A    between atoms: C_1  and  C_5
    2  A    between atoms: C_2  and  C_21
    3  A    between atoms: O_4  and  C_18
    4  A    between atoms: C_6  and  C_15
    5  A    between atoms: C_6  and  C_23
                            x       y       z     vdW  Elec       q    Type
                         _______ _______ _______ _____ _____    ______ ____

>  <TORSDO>
F 5

$$$$
=
 OpenBabel10272400423D

 25 28  0  0  1  0  0  0  0  0999 V2000
  188.3180  178.3080  145.1560 C   0  0  2  0  0  3  0  0  0  0  0  0
  189.1090  177.6900  144.0610 C   0  0  0  0  0  0  0  0  0  0  0  0
  189.9690  176.8220  146.0060 N   0  0  0  0  0  0  0  0  0  0  0  0
  190.8690  176.1190  143.7490 C   0  0  0  0  0  0  0  0  0  0  0  0
  191.9840  175.0770  144.3350 S   0  0  0  0  0  0  0  0  0  0  0  0
  188.9850  177.8680  142.7230 N   0  0  0  0  0  0  0  0  0  0  0  0
  189.0290  177.6570  146.3380 C   0  0  0  0  0  0  0  0  0  0  0  0
  190.7410  176.3030  142.4030 N   0  0  0  0  0  2  0  0  0  0  0  0
  189.8150  177.1730  141.8900 C   0  0  0  0  0  0  0  0  0  0  0  0
  190.0240  176.8350  144.5910 C   0  0  0  0  0  0  0  0  0  0  0  0
  186.8390  177.9090  145.0140 C   0  0  2  0  0  3  0  0  0  0  0  0
  183.5170  178.8990  145.5440 O   0  0  0  0  0  1  0  0  0  0  0  0
  186.3560  177.9960  143.5830 C   0  0  0  0  0  2  0  0  0  0  0  0
  184.8870  178.3340  143.6810 C   0  0  0  0  0  2  0  0  0  0  0  0
  184.7480  179.1570  144.9440 C   0  0  2  0  0  3  0  0  0  0  0  0
  185.8730  178.7260  145.8660 C   0  0  0  0  0  2  0  0  0  0  0  0
  188.7510  177.9280  147.6760 O   0  0  0  0  0  0  0  0  0  0  0  0
  188.0350  177.0800  148.4240 O   0  0  0  0  0  1  0  0  0  0  0  0
  189.6820  177.3260  140.4160 C   0  0  0  0  0  2  0  0  0  0  0  0
  188.5130  178.2380  140.0970 C   0  0  2  0  0  3  0  0  0  0  0  0
  187.8340  177.7550  138.8970 C   0  0  2  0  0  3  0  0  0  0  0  0
  188.7530  178.9030  138.8100 N   0  0  0  0  0  2  0  0  0  0  0  0
  186.4170  178.2390  138.8660 C   0  0  0  0  0  0  0  0  0  0  0  0
  185.5890  178.0820  137.6340 C   0  0  0  0  0  1  0  0  0  0  0  0
  185.9420  178.8020  139.8390 O   0  0  0  0  0  0  0  0  0  0  0  0
  1  2  1  6  0  0  0
  1  7  1  0  0  0  0
  2 10  2  0  0  0  0
  3  7  2  0  0  0  0
  4  5  2  0  0  0  0
  4 10  1  0  0  0  0
  6  2  1  0  0  0  0
  7 17  1  0  0  0  0
  8  4  1  0  0  0  0
  9  8  1  0  0  0  0
  9  6  2  0  0  0  0
 10  3  1  0  0  0  0
 11 13  1  6  0  0  0
 11  1  1  0  0  0  0
 11 16  1  0  0  0  0
 13 14  1  0  0  0  0
 14 15  1  0  0  0  0
 15 12  1  1  0  0  0
 15 16  1  0  0  0  0
 17 18  1  0  0  0  0
 19  9  1  0  0  0  0
 20 19  1  6  0  0  0
 21 23  1  1  0  0  0
 21 20  1  0  0  0  0
 22 21  1  0  0  0  0
 22 20  1  0  0  0  0
 23 25  2  0  0  0  0
 24 23  1  0  0  0  0
M  END
>  <MODEL>
3

>  <REMARK>
 VINA RESULT:      -7.9      3.519      7.303
  Name = 
  5 active torsions:
  status: ('A' for Active; 'I' for Inactive)
    1  A    between atoms: C_1  and  C_5
    2  A    between atoms: C_2  and  C_21
    3  A    between atoms: O_4  and  C_18
    4  A    between atoms: C_6  and  C_15
    5  A    between atoms: C_6  and  C_23
                            x       y       z     vdW  Elec       q    Type
                         _______ _______ _______ _____ _____    ______ ____

>  <TORSDO>
F 5

$$$$
=
 OpenBabel10272400423D

 25 28  0  0  1  0  0  0  0  0999 V2000
  189.4930  178.2030  142.7590 C   0  0  2  0  0  3  0  0  0  0  0  0
  189.0010  177.9970  141.3730 C   0  0  0  0  0  0  0  0  0  0  0  0
  191.1470  177.1760  141.3930 N   0  0  0  0  0  0  0  0  0  0  0  0
  189.7250  177.0740  139.3030 C   0  0  0  0  0  0  0  0  0  0  0  0
  190.8540  176.3430  138.3740 S   0  0  0  0  0  0  0  0  0  0  0  0
  187.7890  178.3040  140.8510 N   0  0  0  0  0  0  0  0  0  0  0  0
  190.9000  177.6430  142.5810 C   0  0  0  0  0  0  0  0  0  0  0  0
  188.5030  177.3860  138.7820 N   0  0  0  0  0  2  0  0  0  0  0  0
  187.5430  178.0020  139.5420 C   0  0  0  0  0  0  0  0  0  0  0  0
  189.9690  177.3900  140.6350 C   0  0  0  0  0  0  0  0  0  0  0  0
  188.6180  177.4060  143.7430 C   0  0  2  0  0  3  0  0  0  0  0  0
  187.4130  177.2070  147.0300 O   0  0  0  0  0  1  0  0  0  0  0  0
  187.1410  177.6160  143.4960 C   0  0  0  0  0  2  0  0  0  0  0  0
  186.4880  177.4620  144.8500 C   0  0  0  0  0  2  0  0  0  0  0  0
  187.5200  177.9410  145.8500 C   0  0  2  0  0  3  0  0  0  0  0  0
  188.8770  177.7060  145.2160 C   0  0  0  0  0  2  0  0  0  0  0  0
  191.8830  177.6430  143.5690 O   0  0  0  0  0  0  0  0  0  0  0  0
  192.0730  178.7040  144.3620 O   0  0  0  0  0  1  0  0  0  0  0  0
  186.2110  178.3000  138.9500 C   0  0  0  0  0  2  0  0  0  0  0  0
  185.3060  178.9120  140.0010 C   0  0  2  0  0  3  0  0  0  0  0  0
  183.9210  178.5360  139.7290 C   0  0  2  0  0  3  0  0  0  0  0  0
  184.4040  179.8790  139.3630 N   0  0  0  0  0  2  0  0  0  0  0  0
  183.1000  178.6170  140.9790 C   0  0  0  0  0  0  0  0  0  0  0  0
  183.7540  178.5710  142.3190 C   0  0  0  0  0  1  0  0  0  0  0  0
  181.8830  178.6800  140.9070 O   0  0  0  0  0  0  0  0  0  0  0  0
  1  2  1  6  0  0  0
  1 11  1  0  0  0  0
  3  7  2  0  0  0  0
  4 10  1  0  0  0  0
  5  4  2  0  0  0  0
  6  2  1  0  0  0  0
  7  1  1  0  0  0  0
  7 17  1  0  0  0  0
  8  4  1  0  0  0  0
  8  9  1  0  0  0  0
  9  6  2  0  0  0  0
 10  2  2  0  0  0  0
 10  3  1  0  0  0  0
 11 13  1  6  0  0  0
 11 16  1  0  0  0  0
 13 14  1  0  0  0  0
 14 15  1  0  0  0  0
 15 12  1  1  0  0  0
 16 15  1  0  0  0  0
 17 18  1  0  0  0  0
 19  9  1  0  0  0  0
 20 19  1  6  0  0  0
 21 20  1  0  0  0  0
 21 23  1  1  0  0  0
 22 21  1  0  0  0  0
 22 20  1  0  0  0  0
 23 24  1  0  0  0  0
 25 23  2  0  0  0  0
M  END
>  <MODEL>
4

>  <REMARK>
 VINA RESULT:      -7.8      3.594      7.062
  Name = 
  5 active torsions:
  status: ('A' for Active; 'I' for Inactive)
    1  A    between atoms: C_1  and  C_5
    2  A    between atoms: C_2  and  C_21
    3  A    between atoms: O_4  and  C_18
    4  A    between atoms: C_6  and  C_15
    5  A    between atoms: C_6  and  C_23
                            x       y       z     vdW  Elec       q    Type
                         _______ _______ _______ _____ _____    ______ ____

>  <TORSDO>
F 5

$$$$
=
 OpenBabel10272400423D

 25 28  0  0  1  0  0  0  0  0999 V2000
  188.5380  178.3580  146.0840 C   0  0  2  0  0  3  0  0  0  0  0  0
  189.7210  177.6410  145.5460 C   0  0  0  0  0  0  0  0  0  0  0  0
  189.7620  177.2780  147.8140 N   0  0  0  0  0  0  0  0  0  0  0  0
  191.5130  176.2660  146.2950 C   0  0  0  0  0  0  0  0  0  0  0  0
  192.3360  175.5020  147.4830 S   0  0  0  0  0  0  0  0  0  0  0  0
  190.1360  177.5400  144.2600 N   0  0  0  0  0  0  0  0  0  0  0  0
  188.7390  178.0400  147.5620 C   0  0  0  0  0  0  0  0  0  0  0  0
  191.9270  176.1680  144.9990 N   0  0  0  0  0  2  0  0  0  0  0  0
  191.2540  176.8020  143.9880 C   0  0  0  0  0  0  0  0  0  0  0  0
  190.3780  177.0230  146.5640 C   0  0  0  0  0  0  0  0  0  0  0  0
  187.2530  177.7620  145.4820 C   0  0  2  0  0  3  0  0  0  0  0  0
  183.9150  178.3830  144.6080 O   0  0  0  0  0  1  0  0  0  0  0  0
  187.3400  177.6130  143.9790 C   0  0  0  0  0  2  0  0  0  0  0  0
  185.9220  177.7740  143.4830 C   0  0  0  0  0  2  0  0  0  0  0  0
  185.2590  178.7190  144.4620 C   0  0  2  0  0  3  0  0  0  0  0  0
  185.9820  178.5480  145.7840 C   0  0  0  0  0  2  0  0  0  0  0  0
  187.9400  178.5310  148.5940 O   0  0  0  0  0  0  0  0  0  0  0  0
  187.5540  177.7460  149.6070 O   0  0  0  0  0  1  0  0  0  0  0  0
  191.7160  176.6490  142.5820 C   0  0  0  0  0  2  0  0  0  0  0  0
  190.9620  177.6110  141.6850 C   0  0  2  0  0  3  0  0  0  0  0  0
  190.1550  176.8550  140.7300 C   0  0  2  0  0  3  0  0  0  0  0  0
  191.4300  177.4550  140.3020 N   0  0  0  0  0  2  0  0  0  0  0  0
  189.0130  177.6860  140.2340 C   0  0  0  0  0  0  0  0  0  0  0  0
  188.4460  177.4600  138.8720 C   0  0  0  0  0  1  0  0  0  0  0  0
  188.5640  178.5850  140.9280 O   0  0  0  0  0  0  0  0  0  0  0  0
  1  2  1  6  0  0  0
  1  7  1  0  0  0  0
  2 10  2  0  0  0  0
  4 10  1  0  0  0  0
  4  5  2  0  0  0  0
  6  2  1  0  0  0  0
  7  3  2  0  0  0  0
  7 17  1  0  0  0  0
  8  4  1  0  0  0  0
  9  6  2  0  0  0  0
  9  8  1  0  0  0  0
 10  3  1  0  0  0  0
 11 13  1  6  0  0  0
 11 16  1  0  0  0  0
 11  1  1  0  0  0  0
 14 13  1  0  0  0  0
 14 15  1  0  0  0  0
 15 12  1  1  0  0  0
 15 16  1  0  0  0  0
 17 18  1  0  0  0  0
 19  9  1  0  0  0  0
 20 19  1  1  0  0  0
 21 23  1  6  0  0  0
 21 20  1  0  0  0  0
 22 21  1  0  0  0  0
 22 20  1  0  0  0  0
 23 25  2  0  0  0  0
 24 23  1  0  0  0  0
M  END
>  <MODEL>
5

>  <REMARK>
 VINA RESULT:      -7.8      3.705      7.189
  Name = 
  5 active torsions:
  status: ('A' for Active; 'I' for Inactive)
    1  A    between atoms: C_1  and  C_5
    2  A    between atoms: C_2  and  C_21
    3  A    between atoms: O_4  and  C_18
    4  A    between atoms: C_6  and  C_15
    5  A    between atoms: C_6  and  C_23
                            x       y       z     vdW  Elec       q    Type
                         _______ _______ _______ _____ _____    ______ ____

>  <TORSDO>
F 5

$$$$
=
 OpenBabel10272400423D

 25 28  0  0  1  0  0  0  0  0999 V2000
  187.9720  178.6120  141.1950 C   0  0  2  0  0  3  0  0  0  0  0  0
  186.6030  178.6550  141.7670 C   0  0  0  0  0  0  0  0  0  0  0  0
  186.3140  178.5090  139.4930 N   0  0  0  0  0  0  0  0  0  0  0  0
  184.3310  178.5710  141.0630 C   0  0  0  0  0  0  0  0  0  0  0  0
  183.1940  178.4720  139.8930 S   0  0  0  0  0  0  0  0  0  0  0  0
  186.2320  178.7300  143.0690 N   0  0  0  0  0  0  0  0  0  0  0  0
  187.5940  178.5480  139.7190 C   0  0  0  0  0  0  0  0  0  0  0  0
  183.9630  178.6490  142.3750 N   0  0  0  0  0  2  0  0  0  0  0  0
  184.8990  178.7350  143.3710 C   0  0  0  0  0  0  0  0  0  0  0  0
  185.6890  178.5730  140.7630 C   0  0  0  0  0  0  0  0  0  0  0  0
  188.7100  177.3630  141.7100 C   0  0  2  0  0  3  0  0  0  0  0  0
  191.5610  176.1690  143.3650 O   0  0  0  0  0  1  0  0  0  0  0  0
  188.0730  176.7960  142.9590 C   0  0  0  0  0  2  0  0  0  0  0  0
  189.2080  176.1620  143.7290 C   0  0  0  0  0  2  0  0  0  0  0  0
  190.4320  176.9860  143.3900 C   0  0  2  0  0  3  0  0  0  0  0  0
  190.1890  177.5740  142.0140 C   0  0  0  0  0  2  0  0  0  0  0  0
  188.5060  178.5620  138.6660 O   0  0  0  0  0  0  0  0  0  0  0  0
  188.2180  179.1610  137.5040 O   0  0  0  0  0  1  0  0  0  0  0  0
  184.4630  178.7880  144.7930 C   0  0  0  0  0  2  0  0  0  0  0  0
  185.6480  179.1080  145.6830 C   0  0  2  0  0  3  0  0  0  0  0  0
  186.0330  177.9120  146.4290 C   0  0  2  0  0  3  0  0  0  0  0  0
  185.2500  178.9700  147.0900 N   0  0  0  0  0  2  0  0  0  0  0  0
  187.4650  178.0000  146.8570 C   0  0  0  0  0  0  0  0  0  0  0  0
  187.8590  177.6640  148.2570 C   0  0  0  0  0  1  0  0  0  0  0  0
  188.3160  178.3870  146.0720 O   0  0  0  0  0  0  0  0  0  0  0  0
  1  7  1  6  0  0  0
  1 11  1  0  0  0  0
  1  2  1  0  0  0  0
  2  6  1  0  0  0  0
  3  7  2  0  0  0  0
  3 10  1  0  0  0  0
  4  8  1  0  0  0  0
  5  4  2  0  0  0  0
  6  9  2  0  0  0  0
  8  9  1  0  0  0  0
  9 19  1  0  0  0  0
 10  4  1  0  0  0  0
 10  2  2  0  0  0  0
 11 16  1  1  0  0  0
 11 13  1  0  0  0  0
 13 14  1  0  0  0  0
 15 12  1  6  0  0  0
 15 14  1  0  0  0  0
 16 15  1  0  0  0  0
 17  7  1  0  0  0  0
 18 17  1  0  0  0  0
 20 19  1  6  0  0  0
 20 21  1  0  0  0  0
 20 22  1  0  0  0  0
 21 23  1  1  0  0  0
 21 22  1  0  0  0  0
 23 24  1  0  0  0  0
 25 23  2  0  0  0  0
M  END
>  <MODEL>
6

>  <REMARK>
 VINA RESULT:      -7.7      1.987      2.638
  Name = 
  5 active torsions:
  status: ('A' for Active; 'I' for Inactive)
    1  A    between atoms: C_1  and  C_5
    2  A    between atoms: C_2  and  C_21
    3  A    between atoms: O_4  and  C_18
    4  A    between atoms: C_6  and  C_15
    5  A    between atoms: C_6  and  C_23
                            x       y       z     vdW  Elec       q    Type
                         _______ _______ _______ _____ _____    ______ ____

>  <TORSDO>
F 5

$$$$
=
 OpenBabel10272400423D

 25 28  0  0  1  0  0  0  0  0999 V2000
  189.7710  178.0130  139.9280 C   0  0  2  0  0  3  0  0  0  0  0  0
  189.2980  177.9020  141.3310 C   0  0  0  0  0  0  0  0  0  0  0  0
  187.4320  178.4130  140.0920 N   0  0  0  0  0  0  0  0  0  0  0  0
  187.2830  178.0410  142.5900 C   0  0  0  0  0  0  0  0  0  0  0  0
  185.6710  178.2890  142.6950 S   0  0  0  0  0  0  0  0  0  0  0  0
  190.0130  177.6060  142.4440 N   0  0  0  0  0  0  0  0  0  0  0  0
  188.4420  178.3750  139.2740 C   0  0  0  0  0  0  0  0  0  0  0  0
  188.0080  177.7440  143.7070 N   0  0  0  0  0  2  0  0  0  0  0  0
  189.3600  177.5350  143.6430 C   0  0  0  0  0  0  0  0  0  0  0  0
  187.9560  178.1170  141.3750 C   0  0  0  0  0  0  0  0  0  0  0  0
  190.3510  176.6630  139.4690 C   0  0  2  0  0  3  0  0  0  0  0  0
  190.2660  174.1720  137.0030 O   0  0  0  0  0  1  0  0  0  0  0  0
  191.7470  176.8020  138.9040 C   0  0  0  0  0  2  0  0  0  0  0  0
  191.8680  175.7030  137.8730 C   0  0  0  0  0  2  0  0  0  0  0  0
  190.4690  175.5120  137.3260 C   0  0  2  0  0  3  0  0  0  0  0  0
  189.5130  175.9290  138.4270 C   0  0  0  0  0  2  0  0  0  0  0  0
  188.2810  178.6820  137.9240 O   0  0  0  0  0  0  0  0  0  0  0  0
  188.9810  179.6650  137.3460 O   0  0  0  0  0  1  0  0  0  0  0  0
  190.1140  177.1840  144.8760 C   0  0  0  0  0  2  0  0  0  0  0  0
  189.1470  176.9140  146.0120 C   0  0  2  0  0  3  0  0  0  0  0  0
  189.3540  177.8980  147.0720 C   0  0  2  0  0  3  0  0  0  0  0  0
  189.9010  176.5380  147.2140 N   0  0  0  0  0  2  0  0  0  0  0  0
  188.1190  178.0370  147.9080 C   0  0  0  0  0  0  0  0  0  0  0  0
  186.7750  178.1200  147.2660 C   0  0  0  0  0  1  0  0  0  0  0  0
  188.2100  178.1240  149.1220 O   0  0  0  0  0  0  0  0  0  0  0  0
  1  7  1  6  0  0  0
  1  2  1  0  0  0  0
  2 10  2  0  0  0  0
  2  6  1  0  0  0  0
  3 10  1  0  0  0  0
  4  5  2  0  0  0  0
  4  8  1  0  0  0  0
  6  9  2  0  0  0  0
  7  3  2  0  0  0  0
  9  8  1  0  0  0  0
  9 19  1  0  0  0  0
 10  4  1  0  0  0  0
 11 16  1  6  0  0  0
 11  1  1  0  0  0  0
 13 11  1  0  0  0  0
 14 13  1  0  0  0  0
 15 12  1  1  0  0  0
 15 14  1  0  0  0  0
 15 16  1  0  0  0  0
 17  7  1  0  0  0  0
 18 17  1  0  0  0  0
 20 19  1  6  0  0  0
 20 21  1  0  0  0  0
 20 22  1  0  0  0  0
 21 22  1  0  0  0  0
 21 23  1  1  0  0  0
 23 25  2  0  0  0  0
 24 23  1  0  0  0  0
M  END
>  <MODEL>
7

>  <REMARK>
 VINA RESULT:      -7.7      3.070      4.216
  Name = 
  5 active torsions:
  status: ('A' for Active; 'I' for Inactive)
    1  A    between atoms: C_1  and  C_5
    2  A    between atoms: C_2  and  C_21
    3  A    between atoms: O_4  and  C_18
    4  A    between atoms: C_6  and  C_15
    5  A    between atoms: C_6  and  C_23
                            x       y       z     vdW  Elec       q    Type
                         _______ _______ _______ _____ _____    ______ ____

>  <TORSDO>
F 5

$$$$
=
 OpenBabel10272400423D

 25 28  0  0  1  0  0  0  0  0999 V2000
  189.6770  178.0540  139.4430 C   0  0  2  0  0  3  0  0  0  0  0  0
  188.6200  178.0630  140.4860 C   0  0  0  0  0  0  0  0  0  0  0  0
  187.5740  178.7090  138.5450 N   0  0  0  0  0  0  0  0  0  0  0  0
  186.2870  178.4770  140.7100 C   0  0  0  0  0  0  0  0  0  0  0  0
  184.8380  178.9000  140.0840 S   0  0  0  0  0  0  0  0  0  0  0  0
  188.7250  177.7470  141.8000 N   0  0  0  0  0  0  0  0  0  0  0  0
  188.8310  178.5240  138.2650 C   0  0  0  0  0  0  0  0  0  0  0  0
  186.3990  178.1600  142.0330 N   0  0  0  0  0  2  0  0  0  0  0  0
  187.6040  177.8050  142.5790 C   0  0  0  0  0  0  0  0  0  0  0  0
  187.4340  178.4220  139.9250 C   0  0  0  0  0  0  0  0  0  0  0  0
  190.2380  176.6290  139.2860 C   0  0  2  0  0  3  0  0  0  0  0  0
  190.2400  173.7260  137.3200 O   0  0  0  0  0  1  0  0  0  0  0  0
  191.6760  176.6290  138.8160 C   0  0  0  0  0  2  0  0  0  0  0  0
  191.8300  175.3550  138.0170 C   0  0  0  0  0  2  0  0  0  0  0  0
  190.4680  175.0980  137.4060 C   0  0  2  0  0  3  0  0  0  0  0  0
  189.4520  175.7350  138.3340 C   0  0  0  0  0  2  0  0  0  0  0  0
  189.3240  178.7800  136.9870 O   0  0  0  0  0  0  0  0  0  0  0  0
  188.7950  178.1940  135.9070 O   0  0  0  0  0  1  0  0  0  0  0  0
  187.6840  177.4360  144.0180 C   0  0  0  0  0  2  0  0  0  0  0  0
  188.9340  178.0320  144.6340 C   0  0  2  0  0  3  0  0  0  0  0  0
  189.7840  176.9580  145.1440 C   0  0  2  0  0  3  0  0  0  0  0  0
  188.9530  177.7420  146.0730 N   0  0  0  0  0  2  0  0  0  0  0  0
  191.2080  177.4130  145.2320 C   0  0  0  0  0  0  0  0  0  0  0  0
  191.7760  178.3290  144.2000 C   0  0  0  0  0  1  0  0  0  0  0  0
  191.9270  177.0020  146.1290 O   0  0  0  0  0  0  0  0  0  0  0  0
  1  7  1  6  0  0  0
  1  2  1  0  0  0  0
  2  6  1  0  0  0  0
  3 10  1  0  0  0  0
  4  8  1  0  0  0  0
  5  4  2  0  0  0  0
  6  9  2  0  0  0  0
  7  3  2  0  0  0  0
  8  9  1  0  0  0  0
  9 19  1  0  0  0  0
 10  2  2  0  0  0  0
 10  4  1  0  0  0  0
 11 16  1  6  0  0  0
 11  1  1  0  0  0  0
 13 11  1  0  0  0  0
 14 13  1  0  0  0  0
 15 12  1  1  0  0  0
 15 14  1  0  0  0  0
 15 16  1  0  0  0  0
 17  7  1  0  0  0  0
 18 17  1  0  0  0  0
 20 19  1  6  0  0  0
 20 21  1  0  0  0  0
 20 22  1  0  0  0  0
 21 23  1  1  0  0  0
 21 22  1  0  0  0  0
 23 25  2  0  0  0  0
 24 23  1  0  0  0  0
M  END
>  <MODEL>
8

>  <REMARK>
 VINA RESULT:      -7.6      3.370      4.351
  Name = 
  5 active torsions:
  status: ('A' for Active; 'I' for Inactive)
    1  A    between atoms: C_1  and  C_5
    2  A    between atoms: C_2  and  C_21
    3  A    between atoms: O_4  and  C_18
    4  A    between atoms: C_6  and  C_15
    5  A    between atoms: C_6  and  C_23
                            x       y       z     vdW  Elec       q    Type
                         _______ _______ _______ _____ _____    ______ ____

>  <TORSDO>
F 5

$$$$
=
 OpenBabel10272400423D

 25 28  0  0  1  0  0  0  0  0999 V2000
  188.0010  176.9130  144.6310 C   0  0  2  0  0  3  0  0  0  0  0  0
  187.9500  177.3080  143.2010 C   0  0  0  0  0  0  0  0  0  0  0  0
  186.0280  178.1460  144.1380 N   0  0  0  0  0  0  0  0  0  0  0  0
  186.5680  178.5270  141.6960 C   0  0  0  0  0  0  0  0  0  0  0  0
  185.2240  179.3980  141.3660 S   0  0  0  0  0  0  0  0  0  0  0  0
  188.8560  177.0630  142.2230 N   0  0  0  0  0  0  0  0  0  0  0  0
  186.6690  177.5110  145.0740 C   0  0  0  0  0  0  0  0  0  0  0  0
  187.4820  178.2760  140.7150 N   0  0  0  0  0  2  0  0  0  0  0  0
  188.6130  177.5460  140.9680 C   0  0  0  0  0  0  0  0  0  0  0  0
  186.8190  178.0270  142.9690 C   0  0  0  0  0  0  0  0  0  0  0  0
  189.2300  177.5510  145.3020 C   0  0  2  0  0  3  0  0  0  0  0  0
  191.5600  177.2880  147.9100 O   0  0  0  0  0  1  0  0  0  0  0  0
  190.4970  177.3300  144.5050 C   0  0  0  0  0  2  0  0  0  0  0  0
  191.6070  177.2880  145.5290 C   0  0  0  0  0  2  0  0  0  0  0  0
  190.9760  176.7160  146.7810 C   0  0  2  0  0  3  0  0  0  0  0  0
  189.5030  177.0720  146.7240 C   0  0  0  0  0  2  0  0  0  0  0  0
  186.1300  177.3840  146.3520 O   0  0  0  0  0  0  0  0  0  0  0  0
  185.4200  178.3730  146.9090 O   0  0  0  0  0  1  0  0  0  0  0  0
  189.6040  177.3170  139.8820 C   0  0  0  0  0  2  0  0  0  0  0  0
  189.2320  178.1390  138.6640 C   0  0  2  0  0  3  0  0  0  0  0  0
  188.5590  177.2850  137.6890 C   0  0  2  0  0  3  0  0  0  0  0  0
  189.9740  177.6430  137.4980 N   0  0  0  0  0  2  0  0  0  0  0  0
  187.7010  178.1060  136.7750 C   0  0  0  0  0  0  0  0  0  0  0  0
  187.4540  177.6670  135.3710 C   0  0  0  0  0  1  0  0  0  0  0  0
  187.2310  179.1630  137.1650 O   0  0  0  0  0  0  0  0  0  0  0  0
  1  2  1  6  0  0  0
  1  7  1  0  0  0  0
  1 11  1  0  0  0  0
  3  7  2  0  0  0  0
  4 10  1  0  0  0  0
  5  4  2  0  0  0  0
  6  2  1  0  0  0  0
  7 17  1  0  0  0  0
  8  9  1  0  0  0  0
  8  4  1  0  0  0  0
  9  6  2  0  0  0  0
 10  2  2  0  0  0  0
 10  3  1  0  0  0  0
 11 13  1  6  0  0  0
 11 16  1  0  0  0  0
 13 14  1  0  0  0  0
 14 15  1  0  0  0  0
 15 12  1  1  0  0  0
 16 15  1  0  0  0  0
 17 18  1  0  0  0  0
 19  9  1  0  0  0  0
 20 19  1  1  0  0  0
 21 23  1  6  0  0  0
 21 20  1  0  0  0  0
 22 21  1  0  0  0  0
 22 20  1  0  0  0  0
 23 25  2  0  0  0  0
 24 23  1  0  0  0  0
M  END
>  <MODEL>
9

>  <REMARK>
 VINA RESULT:      -7.6      3.243      6.764
  Name = 
  5 active torsions:
  status: ('A' for Active; 'I' for Inactive)
    1  A    between atoms: C_1  and  C_5
    2  A    between atoms: C_2  and  C_21
    3  A    between atoms: O_4  and  C_18
    4  A    between atoms: C_6  and  C_15
    5  A    between atoms: C_6  and  C_23
                            x       y       z     vdW  Elec       q    Type
                         _______ _______ _______ _____ _____    ______ ____

>  <TORSDO>
F 5

$$$$
