=
 OpenBabel10272415003D

 37 40  0  0  1  0  0  0  0  0999 V2000
  188.3970  178.2350  138.8150 C   0  0  0  0  0  2  0  0  0  0  0  0
  190.9040  175.4640  135.9020 C   0  0  1  0  0  3  0  0  0  0  0  0
  187.9870  177.7290  140.2030 C   0  0  1  0  0  3  0  0  0  0  0  0
  192.4550  176.1360  139.4030 C   0  0  0  0  0  2  0  0  0  0  0  0
  191.2150  176.2330  137.1640 C   0  0  2  0  0  3  0  0  0  0  0  0
  189.4460  175.7670  135.5790 C   0  0  1  0  0  3  0  0  0  0  0  0
  192.3110  175.5510  137.9940 C   0  0  1  0  0  3  0  0  0  0  0  0
  188.8850  178.1960  141.1890 O   0  0  0  0  0  0  0  0  0  0  0  0
  188.7940  175.9670  136.9430 C   0  0  2  0  0  3  0  0  0  0  0  0
  193.1390  176.0760  134.8440 C   0  0  0  0  0  3  0  0  0  0  0  0
  190.1480  177.5900  140.9940 C   0  0  2  0  0  3  0  0  0  0  0  0
  192.2370  177.6510  139.4660 C   0  0  0  0  0  2  0  0  0  0  0  0
  191.8580  175.6820  134.7500 C   0  0  0  0  0  3  0  0  0  0  0  0
  189.9090  176.3450  137.9350 C   0  0  2  0  0  3  0  0  0  0  0  0
  193.6810  175.5230  137.2960 C   0  0  2  0  0  3  0  0  0  0  0  0
  190.7590  178.0400  139.6550 C   0  0  1  0  0  3  0  0  0  0  0  0
  189.8200  177.7870  138.4580 C   0  0  2  0  0  3  0  0  0  0  0  0
  193.8490  176.4850  136.1080 C   0  0  0  0  0  2  0  0  0  0  0  0
  193.2960  173.1810  136.8280 O   0  0  0  0  0  1  0  0  0  0  0  0
  194.3000  174.1110  137.1380 C   0  0  2  0  0  0  0  0  0  0  0  0
  195.7520  174.7100  138.9600 O   0  0  0  0  0  1  0  0  0  0  0  0
  194.9540  173.6840  138.4490 C   0  0  0  0  0  2  0  0  0  0  0  0
  195.3000  174.1140  136.1340 O   0  0  0  0  0  0  0  0  0  0  0  0
  195.9300  171.9920  135.6080 F   0  0  0  0  0  0  0  0  0  0  0  0
  195.0940  173.0350  135.2590 C   0  0  0  0  0  2  0  0  0  0  0  0
  190.0620  176.1940  141.0970 O   0  0  0  0  0  0  0  0  0  0  0  0
  190.1930  175.9290  142.4610 C   0  0  0  0  0  1  0  0  0  0  0  0
  185.9540  178.7870  139.3650 N   0  0  0  0  0  1  0  0  0  0  0  0
  186.5910  178.2230  140.5420 C   0  0  0  0  0  2  0  0  0  0  0  0
  188.0250  174.7040  137.3680 C   0  0  2  0  0  3  0  0  0  0  0  0
  188.7670  173.4580  136.9360 C   0  0  0  0  0  1  0  0  0  0  0  0
  186.5890  174.6410  136.8480 C   0  0  0  0  0  2  0  0  0  0  0  0
  185.8340  175.9290  137.1380 C   0  0  0  0  0  2  0  0  0  0  0  0
  184.6450  176.0670  136.2070 C   0  0  0  0  0  1  0  0  0  0  0  0
  189.2860  177.0480  134.7610 C   0  0  0  0  0  2  0  0  0  0  0  0
  187.8390  177.2320  134.3460 C   0  0  0  0  0  2  0  0  0  0  0  0
  187.2580  178.4290  135.0690 C   0  0  0  0  0  1  0  0  0  0  0  0
  1  3  1  0  0  0  0
  2 13  1  6  0  0  0
  2  5  1  0  0  0  0
  3 29  1  1  0  0  0
  3  8  1  0  0  0  0
  4 12  1  0  0  0  0
  5 14  1  0  0  0  0
  5  7  1  0  0  0  0
  6  2  1  0  0  0  0
  6  9  1  0  0  0  0
  7  4  1  0  0  0  0
  9 30  1  0  0  0  0
  9 14  1  0  0  0  0
 10 18  1  0  0  0  0
 11 26  1  0  0  0  0
 11  8  1  0  0  0  0
 12 16  1  0  0  0  0
 13 10  2  0  0  0  0
 14 17  1  0  0  0  0
 15  7  1  0  0  0  0
 16 11  1  0  0  0  0
 17  1  1  0  0  0  0
 17 16  1  0  0  0  0
 18 15  1  0  0  0  0
 19 20  1  0  0  0  0
 20 15  1  0  0  0  0
 20 22  1  0  0  0  0
 22 21  1  0  0  0  0
 23 20  1  0  0  0  0
 25 24  1  0  0  0  0
 25 23  1  0  0  0  0
 26 27  1  0  0  0  0
 28 29  1  0  0  0  0
 31 30  1  0  0  0  0
 32 33  1  0  0  0  0
 32 30  1  0  0  0  0
 34 33  1  0  0  0  0
 35  6  1  0  0  0  0
 36 35  1  0  0  0  0
 36 37  1  0  0  0  0
M  END
>  <MODEL>
1

>  <REMARK>
 VINA RESULT:      -3.8      0.000      0.000
  Name = 
  11 active torsions:
  status: ('A' for Active; 'I' for Inactive)
    1  A    between atoms: C_3  and  C_32
    2  A    between atoms: C_5  and  C_23
    3  A    between atoms: C_8  and  O_18
    4  A    between atoms: C_8  and  C_19
    5  A    between atoms: C_8  and  C_31
    6  A    between atoms: C_9  and  C_13
    7  A    between atoms: C_9  and  C_16
    8  A    between atoms: O_11  and  C_26
    9  A    between atoms: O_18  and  C_35
   10  A    between atoms: C_20  and  C_21
   11  A    between atoms: C_21  and  C_32
                            x       y       z     vdW  Elec       q    Type
                         _______ _______ _______ _____ _____    ______ ____

>  <TORSDO>
F 11

$$$$
=
 OpenBabel10272415003D

 37 40  0  0  1  0  0  0  0  0999 V2000
  184.9290  179.5430  142.6500 C   0  0  0  0  0  2  0  0  0  0  0  0
  185.6490  178.1900  138.1660 C   0  0  1  0  0  3  0  0  0  0  0  0
  184.9770  178.5140  143.7860 C   0  0  1  0  0  3  0  0  0  0  0  0
  188.4730  177.3400  140.6990 C   0  0  0  0  0  2  0  0  0  0  0  0
  186.5350  178.3660  139.3770 C   0  0  2  0  0  3  0  0  0  0  0  0
  184.2530  178.6180  138.6070 C   0  0  1  0  0  3  0  0  0  0  0  0
  187.7180  177.3900  139.3660 C   0  0  1  0  0  3  0  0  0  0  0  0
  186.2420  178.5220  144.4140 O   0  0  0  0  0  0  0  0  0  0  0  0
  184.1970  178.2450  140.0850 C   0  0  2  0  0  3  0  0  0  0  0  0
  187.4070  179.1580  136.5980 C   0  0  0  0  0  3  0  0  0  0  0  0
  187.2150  178.0360  143.5090 C   0  0  2  0  0  3  0  0  0  0  0  0
  188.5690  178.6970  141.4040 C   0  0  0  0  0  2  0  0  0  0  0  0
  186.1330  178.8530  136.8970 C   0  0  0  0  0  3  0  0  0  0  0  0
  185.6470  178.1660  140.5950 C   0  0  2  0  0  3  0  0  0  0  0  0
  188.7060  177.6360  138.2130 C   0  0  2  0  0  3  0  0  0  0  0  0
  187.3600  178.9900  142.3110 C   0  0  1  0  0  3  0  0  0  0  0  0
  186.0160  179.2660  141.6030 C   0  0  2  0  0  3  0  0  0  0  0  0
  188.5930  179.0010  137.5120 C   0  0  0  0  0  2  0  0  0  0  0  0
  189.1780  176.8290  135.9820 O   0  0  0  0  0  1  0  0  0  0  0  0
  188.9600  176.4080  137.3030 C   0  0  2  0  0  0  0  0  0  0  0  0
  187.0650  175.5550  136.0910 O   0  0  0  0  0  1  0  0  0  0  0  0
  187.7360  175.4950  137.3140 C   0  0  0  0  0  2  0  0  0  0  0  0
  190.0660  175.6580  137.7740 O   0  0  0  0  0  0  0  0  0  0  0  0
  191.5050  176.3940  139.3760 F   0  0  0  0  0  0  0  0  0  0  0  0
  191.1390  176.5220  138.0500 C   0  0  0  0  0  2  0  0  0  0  0  0
  186.9250  176.7230  143.1110 O   0  0  0  0  0  0  0  0  0  0  0  0
  187.9200  175.9430  143.7020 C   0  0  0  0  0  1  0  0  0  0  0  0
  184.4780  178.7730  146.1610 N   0  0  0  0  0  1  0  0  0  0  0  0
  183.9170  178.8420  144.8240 C   0  0  0  0  0  2  0  0  0  0  0  0
  183.4260  176.9280  140.2830 C   0  0  2  0  0  3  0  0  0  0  0  0
  183.3530  176.1520  138.9860 C   0  0  0  0  0  1  0  0  0  0  0  0
  182.0150  177.1070  140.8430 C   0  0  0  0  0  2  0  0  0  0  0  0
  181.8770  178.4210  141.5970 C   0  0  0  0  0  2  0  0  0  0  0  0
  180.4550  178.9390  141.5030 C   0  0  0  0  0  1  0  0  0  0  0  0
  184.0350  180.1240  138.4670 C   0  0  0  0  0  2  0  0  0  0  0  0
  182.5990  180.4820  138.7960 C   0  0  0  0  0  2  0  0  0  0  0  0
  181.6660  179.6790  137.9130 C   0  0  0  0  0  1  0  0  0  0  0  0
  1  3  1  0  0  0  0
  2 13  1  6  0  0  0
  2  6  1  0  0  0  0
  2  5  1  0  0  0  0
  3  8  1  0  0  0  0
  3 29  1  1  0  0  0
  4 12  1  0  0  0  0
  5 14  1  0  0  0  0
  6  9  1  0  0  0  0
  7  5  1  0  0  0  0
  7  4  1  0  0  0  0
  9 30  1  0  0  0  0
  9 14  1  0  0  0  0
 10 13  2  0  0  0  0
 10 18  1  0  0  0  0
 11  8  1  0  0  0  0
 12 16  1  0  0  0  0
 14 17  1  0  0  0  0
 15  7  1  0  0  0  0
 16 11  1  0  0  0  0
 17 16  1  0  0  0  0
 17  1  1  0  0  0  0
 18 15  1  0  0  0  0
 19 20  1  0  0  0  0
 20 22  1  0  0  0  0
 20 23  1  0  0  0  0
 20 15  1  0  0  0  0
 21 22  1  0  0  0  0
 23 25  1  0  0  0  0
 25 24  1  0  0  0  0
 26 11  1  0  0  0  0
 26 27  1  0  0  0  0
 29 28  1  0  0  0  0
 30 32  1  0  0  0  0
 31 30  1  0  0  0  0
 32 33  1  0  0  0  0
 34 33  1  0  0  0  0
 35  6  1  0  0  0  0
 35 36  1  0  0  0  0
 37 36  1  0  0  0  0
M  END
>  <MODEL>
2

>  <REMARK>
 VINA RESULT:      -3.6      3.612      5.969
  Name = 
  11 active torsions:
  status: ('A' for Active; 'I' for Inactive)
    1  A    between atoms: C_3  and  C_32
    2  A    between atoms: C_5  and  C_23
    3  A    between atoms: C_8  and  O_18
    4  A    between atoms: C_8  and  C_19
    5  A    between atoms: C_8  and  C_31
    6  A    between atoms: C_9  and  C_13
    7  A    between atoms: C_9  and  C_16
    8  A    between atoms: O_11  and  C_26
    9  A    between atoms: O_18  and  C_35
   10  A    between atoms: C_20  and  C_21
   11  A    between atoms: C_21  and  C_32
                            x       y       z     vdW  Elec       q    Type
                         _______ _______ _______ _____ _____    ______ ____

>  <TORSDO>
F 11

$$$$
=
 OpenBabel10272415003D

 37 40  0  0  1  0  0  0  0  0999 V2000
  181.4520  179.3390  138.9050 C   0  0  0  0  0  2  0  0  0  0  0  0
  183.8980  176.6740  135.8450 C   0  0  1  0  0  3  0  0  0  0  0  0
  181.3720  178.9450  140.3840 C   0  0  1  0  0  3  0  0  0  0  0  0
  185.8580  177.9980  138.9300 C   0  0  0  0  0  2  0  0  0  0  0  0
  184.2700  177.6280  136.9550 C   0  0  2  0  0  3  0  0  0  0  0  0
  182.3750  176.7010  135.7670 C   0  0  1  0  0  3  0  0  0  0  0  0
  185.5900  177.2320  137.6290 C   0  0  1  0  0  3  0  0  0  0  0  0
  182.3220  179.6620  141.1440 O   0  0  0  0  0  0  0  0  0  0  0  0
  181.9320  176.9560  137.2030 C   0  0  2  0  0  3  0  0  0  0  0  0
  185.7830  177.5030  134.3460 C   0  0  0  0  0  3  0  0  0  0  0  0
  183.6240  179.2470  140.7770 C   0  0  2  0  0  3  0  0  0  0  0  0
  185.3880  179.4550  138.8950 C   0  0  0  0  0  2  0  0  0  0  0  0
  184.5950  176.9020  134.5230 C   0  0  0  0  0  3  0  0  0  0  0  0
  183.1090  177.6220  137.9380 C   0  0  2  0  0  3  0  0  0  0  0  0
  186.8110  177.3390  136.6980 C   0  0  2  0  0  3  0  0  0  0  0  0
  183.9170  179.6240  139.3140 C   0  0  1  0  0  3  0  0  0  0  0  0
  182.8530  179.0840  138.3360 C   0  0  2  0  0  3  0  0  0  0  0  0
  186.6070  178.1670  135.4170 C   0  0  0  0  0  2  0  0  0  0  0  0
  188.3130  175.7670  137.7570 O   0  0  0  0  0  1  0  0  0  0  0  0
  187.6350  176.0350  136.5570 C   0  0  2  0  0  0  0  0  0  0  0  0
  189.6210  177.1640  135.8020 O   0  0  0  0  0  1  0  0  0  0  0  0
  188.6750  176.1990  135.4510 C   0  0  0  0  0  2  0  0  0  0  0  0
  186.7960  174.9490  136.2070 O   0  0  0  0  0  0  0  0  0  0  0  0
  186.6910  173.0650  137.4800 F   0  0  0  0  0  0  0  0  0  0  0  0
  187.4330  173.7380  136.5280 C   0  0  0  0  0  2  0  0  0  0  0  0
  183.8040  177.8770  141.0190 O   0  0  0  0  0  0  0  0  0  0  0  0
  184.4670  177.8160  142.2460 C   0  0  0  0  0  1  0  0  0  0  0  0
  180.0770  180.0340  142.1430 N   0  0  0  0  0  1  0  0  0  0  0  0
  179.9860  179.2480  140.9260 C   0  0  0  0  0  2  0  0  0  0  0  0
  181.4790  175.6470  137.8730 C   0  0  2  0  0  3  0  0  0  0  0  0
  182.3640  175.3200  139.0560 C   0  0  0  0  0  1  0  0  0  0  0  0
  181.4340  174.4450  136.9290 C   0  0  0  0  0  2  0  0  0  0  0  0
  182.4130  173.3630  137.3580 C   0  0  0  0  0  2  0  0  0  0  0  0
  183.4340  173.1090  136.2660 C   0  0  0  0  0  1  0  0  0  0  0  0
  181.8590  177.8330  134.8800 C   0  0  0  0  0  2  0  0  0  0  0  0
  180.5770  178.4070  135.4500 C   0  0  0  0  0  2  0  0  0  0  0  0
  180.5050  179.8870  135.1360 C   0  0  0  0  0  1  0  0  0  0  0  0
  1  3  1  0  0  0  0
  2 13  1  6  0  0  0
  2  5  1  0  0  0  0
  3 29  1  1  0  0  0
  3  8  1  0  0  0  0
  5  7  1  0  0  0  0
  5 14  1  0  0  0  0
  6  2  1  0  0  0  0
  6  9  1  0  0  0  0
  7  4  1  0  0  0  0
  9 30  1  0  0  0  0
  9 14  1  0  0  0  0
 10 13  2  0  0  0  0
 10 18  1  0  0  0  0
 11 26  1  0  0  0  0
 11  8  1  0  0  0  0
 12  4  1  0  0  0  0
 12 16  1  0  0  0  0
 14 17  1  0  0  0  0
 15  7  1  0  0  0  0
 16 11  1  0  0  0  0
 17  1  1  0  0  0  0
 17 16  1  0  0  0  0
 18 15  1  0  0  0  0
 20 15  1  0  0  0  0
 20 19  1  0  0  0  0
 22 21  1  0  0  0  0
 22 20  1  0  0  0  0
 23 25  1  0  0  0  0
 23 20  1  0  0  0  0
 25 24  1  0  0  0  0
 26 27  1  0  0  0  0
 29 28  1  0  0  0  0
 30 31  1  0  0  0  0
 32 33  1  0  0  0  0
 32 30  1  0  0  0  0
 34 33  1  0  0  0  0
 35 36  1  0  0  0  0
 35  6  1  0  0  0  0
 37 36  1  0  0  0  0
M  END
>  <MODEL>
3

>  <REMARK>
 VINA RESULT:      -3.4      4.510      6.942
  Name = 
  11 active torsions:
  status: ('A' for Active; 'I' for Inactive)
    1  A    between atoms: C_3  and  C_32
    2  A    between atoms: C_5  and  C_23
    3  A    between atoms: C_8  and  O_18
    4  A    between atoms: C_8  and  C_19
    5  A    between atoms: C_8  and  C_31
    6  A    between atoms: C_9  and  C_13
    7  A    between atoms: C_9  and  C_16
    8  A    between atoms: O_11  and  C_26
    9  A    between atoms: O_18  and  C_35
   10  A    between atoms: C_20  and  C_21
   11  A    between atoms: C_21  and  C_32
                            x       y       z     vdW  Elec       q    Type
                         _______ _______ _______ _____ _____    ______ ____

>  <TORSDO>
F 11

$$$$
=
 OpenBabel10272415003D

 37 40  0  0  1  0  0  0  0  0999 V2000
  184.3390  177.1210  135.9140 C   0  0  0  0  0  2  0  0  0  0  0  0
  188.4890  176.2650  138.0340 C   0  0  1  0  0  3  0  0  0  0  0  0
  183.0290  176.6490  136.5560 C   0  0  1  0  0  3  0  0  0  0  0  0
  185.8490  178.2050  140.1280 C   0  0  0  0  0  2  0  0  0  0  0  0
  187.3360  177.2040  138.2980 C   0  0  2  0  0  3  0  0  0  0  0  0
  188.1330  175.5200  136.7520 C   0  0  1  0  0  3  0  0  0  0  0  0
  187.1650  177.4930  139.7950 C   0  0  1  0  0  3  0  0  0  0  0  0
  182.4170  177.7010  137.2740 O   0  0  0  0  0  0  0  0  0  0  0  0
  186.6110  175.4240  136.7860 C   0  0  2  0  0  3  0  0  0  0  0  0
  190.2170  178.0280  138.6600 C   0  0  0  0  0  3  0  0  0  0  0  0
  183.2170  178.0270  138.3940 C   0  0  2  0  0  3  0  0  0  0  0  0
  185.4130  179.2210  139.0680 C   0  0  0  0  0  2  0  0  0  0  0  0
  189.8610  176.8970  138.0280 C   0  0  0  0  0  3  0  0  0  0  0  0
  186.0990  176.5480  137.7040 C   0  0  2  0  0  3  0  0  0  0  0  0
  188.3470  178.2630  140.4100 C   0  0  2  0  0  3  0  0  0  0  0  0
  184.5750  178.5920  137.9400 C   0  0  1  0  0  3  0  0  0  0  0  0
  185.3170  177.6500  136.9710 C   0  0  2  0  0  3  0  0  0  0  0  0
  189.2920  178.9510  139.4100 C   0  0  0  0  0  2  0  0  0  0  0  0
  189.1000  176.1880  141.4000 O   0  0  0  0  0  1  0  0  0  0  0  0
  189.0100  177.5700  141.6270 C   0  0  2  0  0  0  0  0  0  0  0  0
  187.1980  176.7840  143.0010 O   0  0  0  0  0  1  0  0  0  0  0  0
  188.1570  177.7910  142.8740 C   0  0  0  0  0  2  0  0  0  0  0  0
  190.2930  178.1180  141.8760 O   0  0  0  0  0  0  0  0  0  0  0  0
  191.5020  179.2640  143.4260 F   0  0  0  0  0  0  0  0  0  0  0  0
  190.4150  178.4310  143.2400 C   0  0  0  0  0  2  0  0  0  0  0  0
  183.3590  176.9270  139.2530 O   0  0  0  0  0  0  0  0  0  0  0  0
  182.3460  177.0800  140.1990 C   0  0  0  0  0  1  0  0  0  0  0  0
  180.8110  175.7530  136.0720 N   0  0  0  0  0  1  0  0  0  0  0  0
  182.0690  176.1720  135.4800 C   0  0  0  0  0  2  0  0  0  0  0  0
  186.1650  174.0280  137.2530 C   0  0  2  0  0  3  0  0  0  0  0  0
  187.0160  172.9540  136.6090 C   0  0  0  0  0  1  0  0  0  0  0  0
  184.6890  173.7230  136.9960 C   0  0  0  0  0  2  0  0  0  0  0  0
  184.4190  172.2260  137.0030 C   0  0  0  0  0  2  0  0  0  0  0  0
  183.0210  171.9370  136.4930 C   0  0  0  0  0  1  0  0  0  0  0  0
  188.5540  176.2860  135.4990 C   0  0  0  0  0  2  0  0  0  0  0  0
  189.5510  175.4750  134.6950 C   0  0  0  0  0  2  0  0  0  0  0  0
  190.8150  176.2850  134.4980 C   0  0  0  0  0  1  0  0  0  0  0  0
  1  3  1  0  0  0  0
  1 17  1  0  0  0  0
  2 13  1  6  0  0  0
  2  5  1  0  0  0  0
  3 29  1  6  0  0  0
  3  8  1  0  0  0  0
  5  7  1  0  0  0  0
  6  9  1  0  0  0  0
  6  2  1  0  0  0  0
  7  4  1  0  0  0  0
  7 15  1  0  0  0  0
  8 11  1  0  0  0  0
  9 30  1  0  0  0  0
  9 14  1  0  0  0  0
 10 18  1  0  0  0  0
 11 26  1  0  0  0  0
 12  4  1  0  0  0  0
 13 10  2  0  0  0  0
 14  5  1  0  0  0  0
 15 20  1  0  0  0  0
 16 11  1  0  0  0  0
 16 12  1  0  0  0  0
 17 14  1  0  0  0  0
 17 16  1  0  0  0  0
 18 15  1  0  0  0  0
 19 20  1  0  0  0  0
 20 23  1  0  0  0  0
 20 22  1  0  0  0  0
 22 21  1  0  0  0  0
 23 25  1  0  0  0  0
 25 24  1  0  0  0  0
 26 27  1  0  0  0  0
 29 28  1  0  0  0  0
 31 30  1  0  0  0  0
 32 33  1  0  0  0  0
 32 30  1  0  0  0  0
 34 33  1  0  0  0  0
 35  6  1  0  0  0  0
 36 35  1  0  0  0  0
 37 36  1  0  0  0  0
M  END
>  <MODEL>
4

>  <REMARK>
 VINA RESULT:      -2.7      3.803      6.246
  Name = 
  11 active torsions:
  status: ('A' for Active; 'I' for Inactive)
    1  A    between atoms: C_3  and  C_32
    2  A    between atoms: C_5  and  C_23
    3  A    between atoms: C_8  and  O_18
    4  A    between atoms: C_8  and  C_19
    5  A    between atoms: C_8  and  C_31
    6  A    between atoms: C_9  and  C_13
    7  A    between atoms: C_9  and  C_16
    8  A    between atoms: O_11  and  C_26
    9  A    between atoms: O_18  and  C_35
   10  A    between atoms: C_20  and  C_21
   11  A    between atoms: C_21  and  C_32
                            x       y       z     vdW  Elec       q    Type
                         _______ _______ _______ _____ _____    ______ ____

>  <TORSDO>
F 11

$$$$
=
 OpenBabel10272415003D

 37 40  0  0  1  0  0  0  0  0999 V2000
  189.6500  175.6610  135.0870 C   0  0  0  0  0  2  0  0  0  0  0  0
  185.6680  176.9470  137.3100 C   0  0  1  0  0  3  0  0  0  0  0  0
  190.3890  174.3820  135.4990 C   0  0  1  0  0  3  0  0  0  0  0  0
  185.6840  173.4030  135.7120 C   0  0  0  0  0  2  0  0  0  0  0  0
  186.0280  175.8680  136.3160 C   0  0  2  0  0  3  0  0  0  0  0  0
  186.9420  177.7560  137.5240 C   0  0  1  0  0  3  0  0  0  0  0  0
  185.1680  174.6110  136.5010 C   0  0  1  0  0  3  0  0  0  0  0  0
  190.0470  173.3110  134.6440 O   0  0  0  0  0  0  0  0  0  0  0  0
  188.0650  176.7380  137.3520 C   0  0  2  0  0  3  0  0  0  0  0  0
  183.4290  177.3970  136.1820 C   0  0  0  0  0  3  0  0  0  0  0  0
  188.6890  172.9690  134.8460 C   0  0  2  0  0  3  0  0  0  0  0  0
  186.2770  173.7670  134.3470 C   0  0  0  0  0  2  0  0  0  0  0  0
  184.4520  177.7760  136.9650 C   0  0  0  0  0  3  0  0  0  0  0  0
  187.5070  175.5750  136.5130 C   0  0  2  0  0  3  0  0  0  0  0  0
  183.6770  174.8370  136.1960 C   0  0  2  0  0  3  0  0  0  0  0  0
  187.7720  174.1280  134.4170 C   0  0  1  0  0  3  0  0  0  0  0  0
  188.1300  175.4580  135.1120 C   0  0  2  0  0  3  0  0  0  0  0  0
  183.3400  176.1110  135.4030 C   0  0  0  0  0  2  0  0  0  0  0  0
  182.4900  173.0790  137.3590 O   0  0  0  0  0  1  0  0  0  0  0  0
  182.7140  174.4650  137.3510 C   0  0  2  0  0  0  0  0  0  0  0  0
  180.4470  174.2910  136.5690 O   0  0  0  0  0  1  0  0  0  0  0  0
  181.3710  175.1620  137.1490 C   0  0  0  0  0  2  0  0  0  0  0  0
  183.2410  174.8900  138.5960 O   0  0  0  0  0  0  0  0  0  0  0  0
  183.0170  176.7390  139.9040 F   0  0  0  0  0  0  0  0  0  0  0  0
  182.3270  175.7540  139.2240 C   0  0  0  0  0  2  0  0  0  0  0  0
  188.4590  172.5710  136.1710 O   0  0  0  0  0  0  0  0  0  0  0  0
  188.2390  171.1950  136.0970 C   0  0  0  0  0  1  0  0  0  0  0  0
  192.5470  174.0270  136.5810 N   0  0  0  0  0  1  0  0  0  0  0  0
  191.8890  174.6060  135.4230 C   0  0  0  0  0  2  0  0  0  0  0  0
  188.5970  176.2800  138.7210 C   0  0  2  0  0  3  0  0  0  0  0  0
  188.2360  177.2830  139.7950 C   0  0  0  0  0  1  0  0  0  0  0  0
  190.1040  176.0260  138.7540 C   0  0  0  0  0  2  0  0  0  0  0  0
  190.7690  176.7640  139.9060 C   0  0  0  0  0  2  0  0  0  0  0  0
  192.1290  177.2860  139.4860 C   0  0  0  0  0  1  0  0  0  0  0  0
  187.1110  178.8610  136.4820 C   0  0  0  0  0  2  0  0  0  0  0  0
  188.5790  179.0660  136.1640 C   0  0  0  0  0  2  0  0  0  0  0  0
  189.2990  179.5560  137.4030 C   0  0  0  0  0  1  0  0  0  0  0  0
  1 17  1  0  0  0  0
  1  3  1  0  0  0  0
  2 13  1  6  0  0  0
  2  6  1  0  0  0  0
  3 29  1  6  0  0  0
  4  7  1  0  0  0  0
  5  7  1  0  0  0  0
  5 14  1  0  0  0  0
  5  2  1  0  0  0  0
  8 11  1  0  0  0  0
  8  3  1  0  0  0  0
  9  6  1  0  0  0  0
  9 30  1  0  0  0  0
 10 13  2  0  0  0  0
 11 26  1  0  0  0  0
 12 16  1  0  0  0  0
 12  4  1  0  0  0  0
 14  9  1  0  0  0  0
 15  7  1  0  0  0  0
 15 20  1  0  0  0  0
 16 11  1  0  0  0  0
 16 17  1  0  0  0  0
 17 14  1  0  0  0  0
 18 10  1  0  0  0  0
 18 15  1  0  0  0  0
 20 19  1  0  0  0  0
 20 23  1  0  0  0  0
 21 22  1  0  0  0  0
 22 20  1  0  0  0  0
 23 25  1  0  0  0  0
 25 24  1  0  0  0  0
 27 26  1  0  0  0  0
 29 28  1  0  0  0  0
 30 32  1  0  0  0  0
 30 31  1  0  0  0  0
 32 33  1  0  0  0  0
 34 33  1  0  0  0  0
 35  6  1  0  0  0  0
 36 35  1  0  0  0  0
 36 37  1  0  0  0  0
M  END
>  <MODEL>
5

>  <REMARK>
 VINA RESULT:      -2.6      4.243      8.329
  Name = 
  11 active torsions:
  status: ('A' for Active; 'I' for Inactive)
    1  A    between atoms: C_3  and  C_32
    2  A    between atoms: C_5  and  C_23
    3  A    between atoms: C_8  and  O_18
    4  A    between atoms: C_8  and  C_19
    5  A    between atoms: C_8  and  C_31
    6  A    between atoms: C_9  and  C_13
    7  A    between atoms: C_9  and  C_16
    8  A    between atoms: O_11  and  C_26
    9  A    between atoms: O_18  and  C_35
   10  A    between atoms: C_20  and  C_21
   11  A    between atoms: C_21  and  C_32
                            x       y       z     vdW  Elec       q    Type
                         _______ _______ _______ _____ _____    ______ ____

>  <TORSDO>
F 11

$$$$
=
 OpenBabel10272415003D

 37 40  0  0  1  0  0  0  0  0999 V2000
  192.8070  176.5100  134.9010 C   0  0  0  0  0  2  0  0  0  0  0  0
  188.3100  175.6760  136.1380 C   0  0  1  0  0  3  0  0  0  0  0  0
  193.9580  176.0040  135.7780 C   0  0  1  0  0  3  0  0  0  0  0  0
  190.6020  172.5580  135.7610 C   0  0  0  0  0  2  0  0  0  0  0  0
  189.4330  174.8300  135.5860 C   0  0  2  0  0  3  0  0  0  0  0  0
  188.8620  177.0940  136.2260 C   0  0  1  0  0  3  0  0  0  0  0  0
  189.3400  173.3750  136.0630 C   0  0  1  0  0  3  0  0  0  0  0  0
  194.4710  174.7870  135.2760 O   0  0  0  0  0  0  0  0  0  0  0  0
  190.3470  176.9000  136.5130 C   0  0  2  0  0  3  0  0  0  0  0  0
  186.5700  174.5180  134.6810 C   0  0  0  0  0  3  0  0  0  0  0  0
  193.4950  173.7740  135.4220 C   0  0  2  0  0  3  0  0  0  0  0  0
  191.2640  172.9170  134.4280 C   0  0  0  0  0  2  0  0  0  0  0  0
  186.9880  175.5640  135.4130 C   0  0  0  0  0  3  0  0  0  0  0  0
  190.7290  175.4890  136.0300 C   0  0  2  0  0  3  0  0  0  0  0  0
  188.0990  172.6340  135.5360 C   0  0  2  0  0  3  0  0  0  0  0  0
  192.2670  174.0790  134.5470 C   0  0  1  0  0  3  0  0  0  0  0  0
  191.6750  175.4770  134.8190 C   0  0  2  0  0  3  0  0  0  0  0  0
  187.3800  173.2930  134.3460 C   0  0  0  0  0  2  0  0  0  0  0  0
  187.8620  170.9390  137.2450 O   0  0  0  0  0  1  0  0  0  0  0  0
  187.1990  172.0140  136.6330 C   0  0  2  0  0  0  0  0  0  0  0  0
  186.1220  170.2260  135.4390 O   0  0  0  0  0  1  0  0  0  0  0  0
  185.9120  171.4840  136.0070 C   0  0  0  0  0  2  0  0  0  0  0  0
  186.8430  172.9900  137.5970 O   0  0  0  0  0  0  0  0  0  0  0  0
  184.9820  174.2990  137.5320 F   0  0  0  0  0  0  0  0  0  0  0  0
  185.4460  173.0150  137.7490 C   0  0  0  0  0  2  0  0  0  0  0  0
  193.1550  173.5890  136.7700 O   0  0  0  0  0  0  0  0  0  0  0  0
  194.3200  173.1080  137.3690 C   0  0  0  0  0  1  0  0  0  0  0  0
  196.3540  176.3960  135.5310 N   0  0  0  0  0  1  0  0  0  0  0  0
  195.0770  177.0310  135.8050 C   0  0  0  0  0  2  0  0  0  0  0  0
  190.6430  177.1160  138.0080 C   0  0  2  0  0  3  0  0  0  0  0  0
  190.5790  175.8040  138.7590 C   0  0  0  0  0  1  0  0  0  0  0  0
  189.7250  178.1320  138.6870 C   0  0  0  0  0  2  0  0  0  0  0  0
  188.9170  177.4920  139.8050 C   0  0  0  0  0  2  0  0  0  0  0  0
  187.9850  178.5100  140.4350 C   0  0  0  0  0  1  0  0  0  0  0  0
  188.7070  177.8600  134.9130 C   0  0  0  0  0  2  0  0  0  0  0  0
  187.5250  178.8080  134.9910 C   0  0  0  0  0  2  0  0  0  0  0  0
  187.1040  178.9670  136.4370 C   0  0  0  0  0  1  0  0  0  0  0  0
  1  3  1  0  0  0  0
  2 13  1  6  0  0  0
  2  6  1  0  0  0  0
  3 29  1  6  0  0  0
  4  7  1  0  0  0  0
  5 14  1  0  0  0  0
  5  7  1  0  0  0  0
  5  2  1  0  0  0  0
  6  9  1  0  0  0  0
  8 11  1  0  0  0  0
  8  3  1  0  0  0  0
  9 30  1  0  0  0  0
 10 13  2  0  0  0  0
 11 26  1  0  0  0  0
 12 16  1  0  0  0  0
 12  4  1  0  0  0  0
 14  9  1  0  0  0  0
 15  7  1  0  0  0  0
 15 20  1  0  0  0  0
 16 17  1  0  0  0  0
 16 11  1  0  0  0  0
 17  1  1  0  0  0  0
 17 14  1  0  0  0  0
 18 10  1  0  0  0  0
 18 15  1  0  0  0  0
 20 19  1  0  0  0  0
 20 23  1  0  0  0  0
 21 22  1  0  0  0  0
 22 20  1  0  0  0  0
 23 25  1  0  0  0  0
 24 25  1  0  0  0  0
 26 27  1  0  0  0  0
 28 29  1  0  0  0  0
 30 32  1  0  0  0  0
 30 31  1  0  0  0  0
 32 33  1  0  0  0  0
 33 34  1  0  0  0  0
 35 36  1  0  0  0  0
 35  6  1  0  0  0  0
 36 37  1  0  0  0  0
M  END
>  <MODEL>
6

>  <REMARK>
 VINA RESULT:      -2.4      3.552      6.611
  Name = 
  11 active torsions:
  status: ('A' for Active; 'I' for Inactive)
    1  A    between atoms: C_3  and  C_32
    2  A    between atoms: C_5  and  C_23
    3  A    between atoms: C_8  and  O_18
    4  A    between atoms: C_8  and  C_19
    5  A    between atoms: C_8  and  C_31
    6  A    between atoms: C_9  and  C_13
    7  A    between atoms: C_9  and  C_16
    8  A    between atoms: O_11  and  C_26
    9  A    between atoms: O_18  and  C_35
   10  A    between atoms: C_20  and  C_21
   11  A    between atoms: C_21  and  C_32
                            x       y       z     vdW  Elec       q    Type
                         _______ _______ _______ _____ _____    ______ ____

>  <TORSDO>
F 11

$$$$
=
 OpenBabel10272415003D

 37 40  0  0  1  0  0  0  0  0999 V2000
  189.7180  179.1030  141.9210 C   0  0  0  0  0  2  0  0  0  0  0  0
  185.1050  178.2020  141.3180 C   0  0  1  0  0  3  0  0  0  0  0  0
  190.7540  177.9860  141.7500 C   0  0  1  0  0  3  0  0  0  0  0  0
  187.4360  177.3450  138.3270 C   0  0  0  0  0  2  0  0  0  0  0  0
  186.2900  178.3370  140.3910 C   0  0  2  0  0  3  0  0  0  0  0  0
  185.6380  178.4850  142.7180 C   0  0  1  0  0  3  0  0  0  0  0  0
  186.1440  177.4540  139.1440 C   0  0  1  0  0  3  0  0  0  0  0  0
  191.3290  178.0320  140.4600 O   0  0  0  0  0  0  0  0  0  0  0  0
  187.0770  177.9820  142.6790 C   0  0  2  0  0  3  0  0  0  0  0  0
  183.5610  179.4290  139.7060 C   0  0  0  0  0  3  0  0  0  0  0  0
  190.3460  177.6990  139.4990 C   0  0  2  0  0  3  0  0  0  0  0  0
  188.2560  178.6380  138.2940 C   0  0  0  0  0  2  0  0  0  0  0  0
  183.8830  179.0060  140.9400 C   0  0  0  0  0  3  0  0  0  0  0  0
  187.5200  177.9660  141.2050 C   0  0  2  0  0  3  0  0  0  0  0  0
  184.9800  177.8710  138.2300 C   0  0  2  0  0  3  0  0  0  0  0  0
  189.2330  178.7620  139.4770 C   0  0  1  0  0  3  0  0  0  0  0  0
  188.6080  178.9980  140.8670 C   0  0  2  0  0  3  0  0  0  0  0  0
  184.4100  179.2800  138.4700 C   0  0  0  0  0  2  0  0  0  0  0  0
  184.5820  175.6950  137.2530 O   0  0  0  0  0  1  0  0  0  0  0  0
  183.9540  176.7490  137.9330 C   0  0  2  0  0  0  0  0  0  0  0  0
  183.2330  177.2890  135.7030 O   0  0  0  0  0  1  0  0  0  0  0  0
  182.8390  177.2920  137.0430 C   0  0  0  0  0  2  0  0  0  0  0  0
  183.3630  176.2840  139.1340 O   0  0  0  0  0  0  0  0  0  0  0  0
  181.3440  176.8660  140.0100 F   0  0  0  0  0  0  0  0  0  0  0  0
  181.9690  176.2000  138.9720 C   0  0  0  0  0  2  0  0  0  0  0  0
  189.8430  176.4080  139.7150 O   0  0  0  0  0  0  0  0  0  0  0  0
  190.4770  175.6140  138.7590 C   0  0  0  0  0  1  0  0  0  0  0  0
  191.5270  179.1980  143.7220 N   0  0  0  0  0  1  0  0  0  0  0  0
  191.8580  178.1430  142.7810 C   0  0  0  0  0  2  0  0  0  0  0  0
  187.1870  176.6000  143.3470 C   0  0  2  0  0  3  0  0  0  0  0  0
  186.3220  176.5370  144.5870 C   0  0  0  0  0  1  0  0  0  0  0  0
  188.6150  176.1900  143.7070 C   0  0  0  0  0  2  0  0  0  0  0  0
  189.1060  176.9150  144.9510 C   0  0  0  0  0  2  0  0  0  0  0  0
  190.4640  176.3860  145.3710 C   0  0  0  0  0  1  0  0  0  0  0  0
  185.6430  179.9780  143.0460 C   0  0  0  0  0  2  0  0  0  0  0  0
  184.8720  180.2380  144.3260 C   0  0  0  0  0  2  0  0  0  0  0  0
  183.8310  179.1550  144.5150 C   0  0  0  0  0  1  0  0  0  0  0  0
  2 13  1  6  0  0  0
  2  6  1  0  0  0  0
  3  1  1  0  0  0  0
  3 29  1  1  0  0  0
  4  7  1  0  0  0  0
  5 14  1  0  0  0  0
  5  2  1  0  0  0  0
  6 35  1  0  0  0  0
  7  5  1  0  0  0  0
  8  3  1  0  0  0  0
  9  6  1  0  0  0  0
  9 30  1  0  0  0  0
 10 13  2  0  0  0  0
 11 26  1  0  0  0  0
 11  8  1  0  0  0  0
 12  4  1  0  0  0  0
 12 16  1  0  0  0  0
 14  9  1  0  0  0  0
 15 18  1  0  0  0  0
 15  7  1  0  0  0  0
 16 11  1  0  0  0  0
 16 17  1  0  0  0  0
 17 14  1  0  0  0  0
 17  1  1  0  0  0  0
 18 10  1  0  0  0  0
 19 20  1  0  0  0  0
 20 15  1  0  0  0  0
 20 23  1  0  0  0  0
 21 22  1  0  0  0  0
 22 20  1  0  0  0  0
 25 23  1  0  0  0  0
 25 24  1  0  0  0  0
 27 26  1  0  0  0  0
 29 28  1  0  0  0  0
 30 32  1  0  0  0  0
 30 31  1  0  0  0  0
 32 33  1  0  0  0  0
 33 34  1  0  0  0  0
 35 36  1  0  0  0  0
 36 37  1  0  0  0  0
M  END
>  <MODEL>
7

>  <REMARK>
 VINA RESULT:      -2.3      4.394      8.550
  Name = 
  11 active torsions:
  status: ('A' for Active; 'I' for Inactive)
    1  A    between atoms: C_3  and  C_32
    2  A    between atoms: C_5  and  C_23
    3  A    between atoms: C_8  and  O_18
    4  A    between atoms: C_8  and  C_19
    5  A    between atoms: C_8  and  C_31
    6  A    between atoms: C_9  and  C_13
    7  A    between atoms: C_9  and  C_16
    8  A    between atoms: O_11  and  C_26
    9  A    between atoms: O_18  and  C_35
   10  A    between atoms: C_20  and  C_21
   11  A    between atoms: C_21  and  C_32
                            x       y       z     vdW  Elec       q    Type
                         _______ _______ _______ _____ _____    ______ ____

>  <TORSDO>
F 11

$$$$
=
 OpenBabel10272415003D

 37 40  0  0  1  0  0  0  0  0999 V2000
  189.5020  175.7340  138.2360 C   0  0  0  0  0  2  0  0  0  0  0  0
  185.1840  174.8220  136.5110 C   0  0  1  0  0  3  0  0  0  0  0  0
  190.3230  176.9080  137.6880 C   0  0  1  0  0  3  0  0  0  0  0  0
  185.7560  178.3970  137.9300 C   0  0  0  0  0  2  0  0  0  0  0  0
  185.7650  175.8890  137.4090 C   0  0  2  0  0  3  0  0  0  0  0  0
  186.3330  173.8690  136.2010 C   0  0  1  0  0  3  0  0  0  0  0  0
  185.0290  177.2270  137.2570 C   0  0  1  0  0  3  0  0  0  0  0  0
  190.1940  178.0400  138.5230 O   0  0  0  0  0  0  0  0  0  0  0  0
  187.5700  174.7610  136.2050 C   0  0  2  0  0  3  0  0  0  0  0  0
  183.0490  174.6650  137.8900 C   0  0  0  0  0  3  0  0  0  0  0  0
  188.8670  178.5240  138.4500 C   0  0  2  0  0  3  0  0  0  0  0  0
  186.4540  178.0180  139.2390 C   0  0  0  0  0  2  0  0  0  0  0  0
  183.9330  174.1460  137.0210 C   0  0  0  0  0  3  0  0  0  0  0  0
  187.2360  176.0090  137.0430 C   0  0  2  0  0  3  0  0  0  0  0  0
  183.5660  177.1790  137.7290 C   0  0  2  0  0  3  0  0  0  0  0  0
  187.8850  177.4900  139.0280 C   0  0  1  0  0  3  0  0  0  0  0  0
  188.0190  176.1050  138.3620 C   0  0  2  0  0  3  0  0  0  0  0  0
  183.1850  175.9790  138.6130 C   0  0  0  0  0  2  0  0  0  0  0  0
  181.4380  176.7280  136.6700 O   0  0  0  0  0  1  0  0  0  0  0  0
  182.5260  177.6150  136.6660 C   0  0  2  0  0  0  0  0  0  0  0  0
  182.3440  178.2210  134.3460 O   0  0  0  0  0  1  0  0  0  0  0  0
  183.1620  177.5810  135.2790 C   0  0  0  0  0  2  0  0  0  0  0  0
  182.0880  178.9400  136.9110 O   0  0  0  0  0  0  0  0  0  0  0  0
  183.1960  180.0370  138.5690 F   0  0  0  0  0  0  0  0  0  0  0  0
  182.1300  179.2030  138.2910 C   0  0  0  0  0  2  0  0  0  0  0  0
  188.5350  178.8980  137.1400 O   0  0  0  0  0  0  0  0  0  0  0  0
  188.9720  180.2180  137.0250 C   0  0  0  0  0  1  0  0  0  0  0  0
  192.4600  176.8320  138.8650 N   0  0  0  0  0  1  0  0  0  0  0  0
  191.7910  176.5210  137.6150 C   0  0  0  0  0  2  0  0  0  0  0  0
  187.9940  175.1090  134.7670 C   0  0  2  0  0  3  0  0  0  0  0  0
  189.3040  174.4360  134.4200 C   0  0  0  0  0  1  0  0  0  0  0  0
  188.1080  176.6080  134.4930 C   0  0  0  0  0  2  0  0  0  0  0  0
  186.7390  177.2550  134.3510 C   0  0  0  0  0  2  0  0  0  0  0  0
  186.8620  178.7660  134.3830 C   0  0  0  0  0  1  0  0  0  0  0  0
  186.4970  172.7900  137.2700 C   0  0  0  0  0  2  0  0  0  0  0  0
  187.6670  171.8860  136.9320 C   0  0  0  0  0  2  0  0  0  0  0  0
  187.4580  171.2880  135.5560 C   0  0  0  0  0  1  0  0  0  0  0  0
  1 17  1  0  0  0  0
  2 13  1  1  0  0  0
  2  5  1  0  0  0  0
  3 29  1  1  0  0  0
  3  1  1  0  0  0  0
  3  8  1  0  0  0  0
  4 12  1  0  0  0  0
  6  9  1  0  0  0  0
  6  2  1  0  0  0  0
  6 35  1  0  0  0  0
  7  5  1  0  0  0  0
  7 15  1  0  0  0  0
  7  4  1  0  0  0  0
  9 14  1  0  0  0  0
 10 18  1  0  0  0  0
 11  8  1  0  0  0  0
 11 16  1  0  0  0  0
 13 10  2  0  0  0  0
 14  5  1  0  0  0  0
 14 17  1  0  0  0  0
 15 18  1  0  0  0  0
 16 12  1  0  0  0  0
 17 16  1  0  0  0  0
 20 19  1  0  0  0  0
 20 23  1  0  0  0  0
 20 15  1  0  0  0  0
 21 22  1  0  0  0  0
 22 20  1  0  0  0  0
 23 25  1  0  0  0  0
 25 24  1  0  0  0  0
 26 11  1  0  0  0  0
 27 26  1  0  0  0  0
 29 28  1  0  0  0  0
 30  9  1  0  0  0  0
 31 30  1  0  0  0  0
 32 30  1  0  0  0  0
 33 34  1  0  0  0  0
 33 32  1  0  0  0  0
 36 35  1  0  0  0  0
 37 36  1  0  0  0  0
M  END
>  <MODEL>
8

>  <REMARK>
 VINA RESULT:      -2.1      4.202      7.978
  Name = 
  11 active torsions:
  status: ('A' for Active; 'I' for Inactive)
    1  A    between atoms: C_3  and  C_32
    2  A    between atoms: C_5  and  C_23
    3  A    between atoms: C_8  and  O_18
    4  A    between atoms: C_8  and  C_19
    5  A    between atoms: C_8  and  C_31
    6  A    between atoms: C_9  and  C_13
    7  A    between atoms: C_9  and  C_16
    8  A    between atoms: O_11  and  C_26
    9  A    between atoms: O_18  and  C_35
   10  A    between atoms: C_20  and  C_21
   11  A    between atoms: C_21  and  C_32
                            x       y       z     vdW  Elec       q    Type
                         _______ _______ _______ _____ _____    ______ ____

>  <TORSDO>
F 11

$$$$
=
 OpenBabel10272415003D

 37 40  0  0  1  0  0  0  0  0999 V2000
  188.8180  175.6340  137.7090 C   0  0  0  0  0  2  0  0  0  0  0  0
  184.0870  175.8600  137.5910 C   0  0  1  0  0  3  0  0  0  0  0  0
  189.6630  176.7230  137.0360 C   0  0  1  0  0  3  0  0  0  0  0  0
  185.9240  178.9360  139.1000 C   0  0  0  0  0  2  0  0  0  0  0  0
  185.1680  176.6140  138.3300 C   0  0  2  0  0  3  0  0  0  0  0  0
  184.8080  174.7930  136.7760 C   0  0  1  0  0  3  0  0  0  0  0  0
  184.7610  178.0660  138.6120 C   0  0  1  0  0  3  0  0  0  0  0  0
  190.0900  177.6800  137.9830 O   0  0  0  0  0  0  0  0  0  0  0  0
  186.1500  175.4300  136.4290 C   0  0  2  0  0  3  0  0  0  0  0  0
  182.5580  175.8300  139.6280 C   0  0  0  0  0  3  0  0  0  0  0  0
  188.9680  178.4000  138.4580 C   0  0  2  0  0  3  0  0  0  0  0  0
  186.9080  178.1950  140.0110 C   0  0  0  0  0  2  0  0  0  0  0  0
  182.9540  175.3360  138.4430 C   0  0  0  0  0  3  0  0  0  0  0  0
  186.4180  176.5340  137.4670 C   0  0  2  0  0  3  0  0  0  0  0  0
  183.5700  178.1940  139.5780 C   0  0  2  0  0  3  0  0  0  0  0  0
  188.0190  177.4690  139.2330 C   0  0  1  0  0  3  0  0  0  0  0  0
  187.5930  176.2340  138.4100 C   0  0  2  0  0  3  0  0  0  0  0  0
  183.2330  176.9350  140.3960 C   0  0  0  0  0  2  0  0  0  0  0  0
  182.6680  180.3750  139.0520 O   0  0  0  0  0  1  0  0  0  0  0  0
  182.3710  179.0040  139.0260 C   0  0  2  0  0  0  0  0  0  0  0  0
  181.2120  179.5310  141.0660 O   0  0  0  0  0  1  0  0  0  0  0  0
  181.1420  178.7670  139.9000 C   0  0  0  0  0  2  0  0  0  0  0  0
  182.0530  178.5900  137.7080 O   0  0  0  0  0  0  0  0  0  0  0  0
  180.9540  179.8050  136.1290 F   0  0  0  0  0  0  0  0  0  0  0  0
  180.8140  179.1350  137.3290 C   0  0  0  0  0  2  0  0  0  0  0  0
  188.3180  179.0700  137.4110 O   0  0  0  0  0  0  0  0  0  0  0  0
  189.2170  180.0580  137.0070 C   0  0  0  0  0  1  0  0  0  0  0  0
  191.6470  175.3400  137.3640 N   0  0  0  0  0  1  0  0  0  0  0  0
  190.8870  176.1000  136.3870 C   0  0  0  0  0  2  0  0  0  0  0  0
  186.1400  175.9630  134.9850 C   0  0  2  0  0  3  0  0  0  0  0  0
  186.8990  177.2690  134.8940 C   0  0  0  0  0  1  0  0  0  0  0  0
  184.7420  176.1510  134.3960 C   0  0  0  0  0  2  0  0  0  0  0  0
  184.2700  177.5910  134.5270 C   0  0  0  0  0  2  0  0  0  0  0  0
  182.7610  177.6680  134.3990 C   0  0  0  0  0  1  0  0  0  0  0  0
  185.0580  173.5180  137.5800 C   0  0  0  0  0  2  0  0  0  0  0  0
  185.4890  172.3910  136.6610 C   0  0  0  0  0  2  0  0  0  0  0  0
  184.3340  172.0090  135.7580 C   0  0  0  0  0  1  0  0  0  0  0  0
  1 17  1  0  0  0  0
  2  5  1  0  0  0  0
  2 13  1  1  0  0  0
  3 29  1  1  0  0  0
  3  1  1  0  0  0  0
  3  8  1  0  0  0  0
  4 12  1  0  0  0  0
  5  7  1  0  0  0  0
  6 35  1  0  0  0  0
  6  2  1  0  0  0  0
  7  4  1  0  0  0  0
  7 15  1  0  0  0  0
  8 11  1  0  0  0  0
  9  6  1  0  0  0  0
  9 14  1  0  0  0  0
 10 18  1  0  0  0  0
 11 16  1  0  0  0  0
 13 10  2  0  0  0  0
 14  5  1  0  0  0  0
 14 17  1  0  0  0  0
 15 18  1  0  0  0  0
 16 12  1  0  0  0  0
 17 16  1  0  0  0  0
 20 19  1  0  0  0  0
 20 15  1  0  0  0  0
 20 22  1  0  0  0  0
 22 21  1  0  0  0  0
 23 20  1  0  0  0  0
 24 25  1  0  0  0  0
 25 23  1  0  0  0  0
 26 11  1  0  0  0  0
 27 26  1  0  0  0  0
 29 28  1  0  0  0  0
 30  9  1  0  0  0  0
 31 30  1  0  0  0  0
 32 33  1  0  0  0  0
 32 30  1  0  0  0  0
 34 33  1  0  0  0  0
 36 35  1  0  0  0  0
 37 36  1  0  0  0  0
M  END
>  <MODEL>
9

>  <REMARK>
 VINA RESULT:      -2.1      4.450      8.515
  Name = 
  11 active torsions:
  status: ('A' for Active; 'I' for Inactive)
    1  A    between atoms: C_3  and  C_32
    2  A    between atoms: C_5  and  C_23
    3  A    between atoms: C_8  and  O_18
    4  A    between atoms: C_8  and  C_19
    5  A    between atoms: C_8  and  C_31
    6  A    between atoms: C_9  and  C_13
    7  A    between atoms: C_9  and  C_16
    8  A    between atoms: O_11  and  C_26
    9  A    between atoms: O_18  and  C_35
   10  A    between atoms: C_20  and  C_21
   11  A    between atoms: C_21  and  C_32
                            x       y       z     vdW  Elec       q    Type
                         _______ _______ _______ _____ _____    ______ ____

>  <TORSDO>
F 11

$$$$
