=
 OpenBabel10272400553D

 25 28  0  0  1  0  0  0  0  0999 V2000
  186.9930  177.7260  143.2210 C   0  0  0  0  0  0  0  0  0  0  0  0
  188.1740  177.3420  142.5760 C   0  0  0  0  0  0  0  0  0  0  0  0
  186.1840  178.8850  141.2670 C   0  0  0  0  0  3  0  0  0  0  0  0
  186.4780  177.3860  144.5740 C   0  0  2  0  0  3  0  0  0  0  0  0
  190.4640  177.1650  143.5910 C   0  0  2  0  0  3  0  0  0  0  0  0
  185.2900  178.6150  146.8940 C   0  0  0  0  0  3  0  0  0  0  0  0
  187.3700  178.5430  140.6030 C   0  0  0  0  0  3  0  0  0  0  0  0
  185.1770  178.1440  144.5450 C   0  0  0  0  0  0  0  0  0  0  0  0
  184.5220  178.5190  145.8000 C   0  0  0  0  0  3  0  0  0  0  0  0
  189.5980  177.4860  140.4960 N   0  0  0  0  0  0  0  0  0  0  0  0
  189.7140  177.8600  139.0940 C   0  0  0  0  0  1  0  0  0  0  0  0
  189.1390  176.4550  143.3050 C   0  0  0  0  0  2  0  0  0  0  0  0
  186.7580  178.3950  146.8170 C   0  0  0  0  0  3  0  0  0  0  0  0
  186.0200  178.4490  142.5750 C   0  0  0  0  0  0  0  0  0  0  0  0
  184.9180  178.7330  143.4200 N   0  0  0  0  0  0  0  0  0  0  0  0
  190.7820  176.8750  141.0910 C   0  0  0  0  0  2  0  0  0  0  0  0
  187.3280  177.8790  145.7170 C   0  0  0  0  0  3  0  0  0  0  0  0
  191.2080  177.6430  142.3370 C   0  0  0  0  0  2  0  0  0  0  0  0
  188.3810  177.7750  141.2320 C   0  0  0  0  0  0  0  0  0  0  0  0
  191.3640  176.3160  144.4920 C   0  0  0  0  0  2  0  0  0  0  0  0
  190.5040  177.6210  146.2950 O   0  0  0  0  0  0  0  0  0  0  0  0
  191.2970  176.7100  145.9380 C   0  0  0  0  0  0  0  0  0  0  0  0
  192.1320  176.0340  146.9390 C   0  0  0  0  0  0  0  0  0  0  0  0
  192.3750  176.6390  148.1670 O   0  0  0  0  0  1  0  0  0  0  0  0
  192.6230  174.8990  146.6990 O   0  0  0  0  0  0  0  0  0  0  0  0
  1  4  1  0  0  0  0
  2  1  1  0  0  0  0
  2 12  1  0  0  0  0
  3 14  1  0  0  0  0
  4 17  1  1  0  0  0
  5 20  1  6  0  0  0
  7 19  1  0  0  0  0
  7  3  2  0  0  0  0
  8  4  1  0  0  0  0
  8  9  1  0  0  0  0
  9  6  2  0  0  0  0
 10 16  1  0  0  0  0
 10 19  1  0  0  0  0
 11 10  1  0  0  0  0
 12  5  1  0  0  0  0
 13  6  1  0  0  0  0
 14  1  2  0  0  0  0
 14 15  1  0  0  0  0
 15  8  2  0  0  0  0
 16 18  1  0  0  0  0
 17 13  2  0  0  0  0
 18  5  1  0  0  0  0
 19  2  2  0  0  0  0
 20 22  1  0  0  0  0
 22 21  2  0  0  0  0
 22 23  1  0  0  0  0
 23 24  1  0  0  0  0
 25 23  2  0  0  0  0
M  END
>  <MODEL>
1

>  <REMARK>
 VINA RESULT:      -9.9      0.000      0.000
  Name = 
  3 active torsions:
  status: ('A' for Active; 'I' for Inactive)
    1  A    between atoms: C_2  and  C_25
    2  A    between atoms: C_6  and  C_15
    3  A    between atoms: C_15  and  C_25
                            x       y       z     vdW  Elec       q    Type
                         _______ _______ _______ _____ _____    ______ ____

>  <TORSDO>
F 3

$$$$
=
 OpenBabel10272400553D

 25 28  0  0  1  0  0  0  0  0999 V2000
  188.9480  177.0850  143.8220 C   0  0  0  0  0  0  0  0  0  0  0  0
  187.9630  177.2940  144.7930 C   0  0  0  0  0  0  0  0  0  0  0  0
  190.7220  177.2110  145.4500 C   0  0  0  0  0  3  0  0  0  0  0  0
  188.8240  176.7850  142.3700 C   0  0  2  0  0  3  0  0  0  0  0  0
  185.8330  178.5980  144.5310 C   0  0  2  0  0  3  0  0  0  0  0  0
  189.8990  177.5820  139.8190 C   0  0  0  0  0  3  0  0  0  0  0  0
  189.7620  177.4540  146.4420 C   0  0  0  0  0  3  0  0  0  0  0  0
  190.2830  176.6850  142.0100 C   0  0  0  0  0  0  0  0  0  0  0  0
  190.7060  176.8730  140.6200 C   0  0  0  0  0  3  0  0  0  0  0  0
  187.4420  177.7910  147.2140 N   0  0  0  0  0  0  0  0  0  0  0  0
  187.9080  177.8910  148.5890 C   0  0  0  0  0  1  0  0  0  0  0  0
  186.5220  177.2390  144.3830 C   0  0  0  0  0  2  0  0  0  0  0  0
  188.6480  178.1900  140.3410 C   0  0  0  0  0  3  0  0  0  0  0  0
  190.2800  177.0170  144.1490 C   0  0  0  0  0  0  0  0  0  0  0  0
  191.0980  176.8070  143.0100 N   0  0  0  0  0  0  0  0  0  0  0  0
  186.0230  178.0550  147.0020 C   0  0  0  0  0  2  0  0  0  0  0  0
  188.1710  177.8710  141.5540 C   0  0  0  0  0  3  0  0  0  0  0  0
  185.8350  179.1530  145.9610 C   0  0  0  0  0  2  0  0  0  0  0  0
  188.3780  177.5020  146.1430 C   0  0  0  0  0  0  0  0  0  0  0  0
  184.4220  178.5720  143.9380 C   0  0  0  0  0  2  0  0  0  0  0  0
  185.3040  179.6260  141.9870 O   0  0  0  0  0  0  0  0  0  0  0  0
  184.3860  178.9170  142.4780 C   0  0  0  0  0  0  0  0  0  0  0  0
  183.3020  178.4250  141.6180 C   0  0  0  0  0  0  0  0  0  0  0  0
  181.9840  178.7730  141.8900 O   0  0  0  0  0  1  0  0  0  0  0  0
  183.5590  177.6970  140.6230 O   0  0  0  0  0  0  0  0  0  0  0  0
  1 14  2  0  0  0  0
  1  2  1  0  0  0  0
  2 19  2  0  0  0  0
  3  7  2  0  0  0  0
  4 17  1  6  0  0  0
  4  1  1  0  0  0  0
  5 20  1  1  0  0  0
  5 18  1  0  0  0  0
  6 13  1  0  0  0  0
  6  9  2  0  0  0  0
  8  4  1  0  0  0  0
  8 15  2  0  0  0  0
  9  8  1  0  0  0  0
 10 11  1  0  0  0  0
 12  5  1  0  0  0  0
 12  2  1  0  0  0  0
 13 17  2  0  0  0  0
 14  3  1  0  0  0  0
 15 14  1  0  0  0  0
 16 10  1  0  0  0  0
 18 16  1  0  0  0  0
 19  7  1  0  0  0  0
 19 10  1  0  0  0  0
 21 22  2  0  0  0  0
 22 20  1  0  0  0  0
 23 24  1  0  0  0  0
 23 22  1  0  0  0  0
 25 23  2  0  0  0  0
M  END
>  <MODEL>
2

>  <REMARK>
 VINA RESULT:      -9.9      3.496      7.121
  Name = 
  3 active torsions:
  status: ('A' for Active; 'I' for Inactive)
    1  A    between atoms: C_2  and  C_25
    2  A    between atoms: C_6  and  C_15
    3  A    between atoms: C_15  and  C_25
                            x       y       z     vdW  Elec       q    Type
                         _______ _______ _______ _____ _____    ______ ____

>  <TORSDO>
F 3

$$$$
=
 OpenBabel10272400553D

 25 28  0  0  1  0  0  0  0  0999 V2000
  186.5780  178.0380  144.9100 C   0  0  0  0  0  0  0  0  0  0  0  0
  186.6810  177.9370  143.5180 C   0  0  0  0  0  0  0  0  0  0  0  0
  184.5980  179.4070  144.7650 C   0  0  0  0  0  3  0  0  0  0  0  0
  187.3800  177.3960  145.9860 C   0  0  2  0  0  3  0  0  0  0  0  0
  188.7890  177.8910  142.1550 C   0  0  2  0  0  3  0  0  0  0  0  0
  188.7160  178.0220  148.4600 C   0  0  0  0  0  3  0  0  0  0  0  0
  184.6910  179.3510  143.3680 C   0  0  0  0  0  3  0  0  0  0  0  0
  186.6820  177.9660  147.1920 C   0  0  0  0  0  0  0  0  0  0  0  0
  187.3770  178.0200  148.4800 C   0  0  0  0  0  3  0  0  0  0  0  0
  185.7740  178.6380  141.2680 N   0  0  0  0  0  0  0  0  0  0  0  0
  184.7120  179.2690  140.4990 C   0  0  0  0  0  1  0  0  0  0  0  0
  187.7570  177.0720  142.9340 C   0  0  0  0  0  2  0  0  0  0  0  0
  189.4600  178.0170  147.1740 C   0  0  0  0  0  3  0  0  0  0  0  0
  185.5520  178.7270  145.5090 C   0  0  0  0  0  0  0  0  0  0  0  0
  185.6510  178.7050  146.9230 N   0  0  0  0  0  0  0  0  0  0  0  0
  186.8850  178.0960  140.4920 C   0  0  0  0  0  2  0  0  0  0  0  0
  188.8350  177.7870  146.0080 C   0  0  0  0  0  3  0  0  0  0  0  0
  188.2070  178.6800  140.9750 C   0  0  0  0  0  2  0  0  0  0  0  0
  185.7200  178.6260  142.7170 C   0  0  0  0  0  0  0  0  0  0  0  0
  189.9750  177.0240  141.7250 C   0  0  0  0  0  2  0  0  0  0  0  0
  190.3070  174.9990  142.9440 O   0  0  0  0  0  0  0  0  0  0  0  0
  190.5670  176.2280  142.8500 C   0  0  0  0  0  0  0  0  0  0  0  0
  191.4560  176.8640  143.8310 C   0  0  0  0  0  0  0  0  0  0  0  0
  191.8060  176.1880  144.9950 O   0  0  0  0  0  1  0  0  0  0  0  0
  191.9170  178.0160  143.6210 O   0  0  0  0  0  0  0  0  0  0  0  0
  1 14  1  0  0  0  0
  1  4  1  0  0  0  0
  2  1  2  0  0  0  0
  3 14  2  0  0  0  0
  4 17  1  6  0  0  0
  4  8  1  0  0  0  0
  5 20  1  6  0  0  0
  5 12  1  0  0  0  0
  6  9  2  0  0  0  0
  7  3  1  0  0  0  0
  8  9  1  0  0  0  0
 10 19  1  0  0  0  0
 11 10  1  0  0  0  0
 12  2  1  0  0  0  0
 13  6  1  0  0  0  0
 14 15  1  0  0  0  0
 15  8  2  0  0  0  0
 16 18  1  0  0  0  0
 16 10  1  0  0  0  0
 17 13  2  0  0  0  0
 18  5  1  0  0  0  0
 19  7  2  0  0  0  0
 19  2  1  0  0  0  0
 20 22  1  0  0  0  0
 22 21  2  0  0  0  0
 22 23  1  0  0  0  0
 23 24  1  0  0  0  0
 25 23  2  0  0  0  0
M  END
>  <MODEL>
3

>  <REMARK>
 VINA RESULT:      -9.8      1.857      3.364
  Name = 
  3 active torsions:
  status: ('A' for Active; 'I' for Inactive)
    1  A    between atoms: C_2  and  C_25
    2  A    between atoms: C_6  and  C_15
    3  A    between atoms: C_15  and  C_25
                            x       y       z     vdW  Elec       q    Type
                         _______ _______ _______ _____ _____    ______ ____

>  <TORSDO>
F 3

$$$$
=
 OpenBabel10272400553D

 25 28  0  0  1  0  0  0  0  0999 V2000
  187.4880  177.5320  145.2960 C   0  0  0  0  0  0  0  0  0  0  0  0
  186.5170  177.7740  144.3180 C   0  0  0  0  0  0  0  0  0  0  0  0
  186.1060  178.4580  147.0420 C   0  0  0  0  0  3  0  0  0  0  0  0
  188.8020  176.8400  145.2010 C   0  0  2  0  0  3  0  0  0  0  0  0
  186.9090  178.4780  141.9400 C   0  0  2  0  0  3  0  0  0  0  0  0
  191.5560  177.1470  145.9900 C   0  0  0  0  0  3  0  0  0  0  0  0
  185.1260  178.7430  146.0810 C   0  0  0  0  0  3  0  0  0  0  0  0
  189.2530  176.9630  146.6330 C   0  0  0  0  0  0  0  0  0  0  0  0
  190.6770  176.8630  146.9610 C   0  0  0  0  0  3  0  0  0  0  0  0
  184.2620  178.7690  143.7690 N   0  0  0  0  0  0  0  0  0  0  0  0
  183.0020  179.3250  144.2400 C   0  0  0  0  0  1  0  0  0  0  0  0
  186.7720  177.3080  142.9170 C   0  0  0  0  0  2  0  0  0  0  0  0
  191.0950  177.5900  144.6490 C   0  0  0  0  0  3  0  0  0  0  0  0
  187.2730  177.8380  146.6170 C   0  0  0  0  0  0  0  0  0  0  0  0
  188.3910  177.5150  147.4280 N   0  0  0  0  0  0  0  0  0  0  0  0
  184.4070  178.6590  142.3210 C   0  0  0  0  0  2  0  0  0  0  0  0
  189.8030  177.5080  144.2940 C   0  0  0  0  0  3  0  0  0  0  0  0
  185.6690  179.3780  141.8570 C   0  0  0  0  0  2  0  0  0  0  0  0
  185.3040  178.4140  144.7140 C   0  0  0  0  0  0  0  0  0  0  0  0
  187.3500  177.9960  140.5550 C   0  0  0  0  0  2  0  0  0  0  0  0
  189.6140  178.0000  141.3080 O   0  0  0  0  0  0  0  0  0  0  0  0
  188.8290  178.1130  140.3310 C   0  0  0  0  0  0  0  0  0  0  0  0
  189.3660  178.3430  138.9830 C   0  0  0  0  0  0  0  0  0  0  0  0
  190.3080  177.4690  138.4510 O   0  0  0  0  0  1  0  0  0  0  0  0
  188.9710  179.3210  138.2970 O   0  0  0  0  0  0  0  0  0  0  0  0
  1 14  1  0  0  0  0
  2 19  1  0  0  0  0
  2  1  2  0  0  0  0
  4 17  1  6  0  0  0
  4  1  1  0  0  0  0
  4  8  1  0  0  0  0
  5 20  1  6  0  0  0
  5 12  1  0  0  0  0
  6  9  2  0  0  0  0
  7  3  1  0  0  0  0
  8  9  1  0  0  0  0
  8 15  2  0  0  0  0
 10 11  1  0  0  0  0
 10 19  1  0  0  0  0
 12  2  1  0  0  0  0
 13  6  1  0  0  0  0
 14  3  2  0  0  0  0
 14 15  1  0  0  0  0
 16 10  1  0  0  0  0
 17 13  2  0  0  0  0
 18  5  1  0  0  0  0
 18 16  1  0  0  0  0
 19  7  2  0  0  0  0
 22 20  1  0  0  0  0
 22 21  2  0  0  0  0
 23 22  1  0  0  0  0
 24 23  1  0  0  0  0
 25 23  2  0  0  0  0
M  END
>  <MODEL>
4

>  <REMARK>
 VINA RESULT:      -9.6      2.925      5.968
  Name = 
  3 active torsions:
  status: ('A' for Active; 'I' for Inactive)
    1  A    between atoms: C_2  and  C_25
    2  A    between atoms: C_6  and  C_15
    3  A    between atoms: C_15  and  C_25
                            x       y       z     vdW  Elec       q    Type
                         _______ _______ _______ _____ _____    ______ ____

>  <TORSDO>
F 3

$$$$
=
 OpenBabel10272400553D

 25 28  0  0  1  0  0  0  0  0999 V2000
  187.3300  177.7030  143.2050 C   0  0  0  0  0  0  0  0  0  0  0  0
  188.6480  177.2670  143.0310 C   0  0  0  0  0  0  0  0  0  0  0  0
  187.2960  178.7870  141.0520 C   0  0  0  0  0  3  0  0  0  0  0  0
  186.3620  177.4330  144.3030 C   0  0  2  0  0  3  0  0  0  0  0  0
  190.4300  177.0930  144.7910 C   0  0  2  0  0  3  0  0  0  0  0  0
  184.4790  178.7880  146.0120 C   0  0  0  0  0  3  0  0  0  0  0  0
  188.6270  178.3940  140.8590 C   0  0  0  0  0  3  0  0  0  0  0  0
  185.1800  178.2140  143.7920 C   0  0  0  0  0  0  0  0  0  0  0  0
  184.1400  178.6570  144.7230 C   0  0  0  0  0  3  0  0  0  0  0  0
  190.7140  177.2900  141.5790 N   0  0  0  0  0  0  0  0  0  0  0  0
  191.3270  177.5990  140.2960 C   0  0  0  0  0  1  0  0  0  0  0  0
  189.2660  176.3960  144.0830 C   0  0  0  0  0  2  0  0  0  0  0  0
  185.8730  178.5370  146.4630 C   0  0  0  0  0  3  0  0  0  0  0  0
  186.6700  178.4130  142.2330 C   0  0  0  0  0  0  0  0  0  0  0  0
  185.3520  178.7560  142.6270 N   0  0  0  0  0  0  0  0  0  0  0  0
  191.5940  176.6850  142.5740 C   0  0  0  0  0  2  0  0  0  0  0  0
  186.7750  177.9610  145.6530 C   0  0  0  0  0  3  0  0  0  0  0  0
  191.5820  177.5000  143.8620 C   0  0  0  0  0  2  0  0  0  0  0  0
  189.3280  177.6350  141.8300 C   0  0  0  0  0  0  0  0  0  0  0  0
  190.9290  176.2690  145.9800 C   0  0  0  0  0  2  0  0  0  0  0  0
  191.7950  177.2880  147.9560 O   0  0  0  0  0  0  0  0  0  0  0  0
  190.7710  176.9710  147.2970 C   0  0  0  0  0  0  0  0  0  0  0  0
  189.4360  177.3040  147.8130 C   0  0  0  0  0  0  0  0  0  0  0  0
  189.1630  178.5930  148.2560 O   0  0  0  0  0  1  0  0  0  0  0  0
  188.5290  176.4310  147.8460 O   0  0  0  0  0  0  0  0  0  0  0  0
  1  4  1  0  0  0  0
  2  1  1  0  0  0  0
  2 12  1  0  0  0  0
  3 14  1  0  0  0  0
  4 17  1  1  0  0  0
  5 20  1  1  0  0  0
  6 13  1  0  0  0  0
  7  3  2  0  0  0  0
  7 19  1  0  0  0  0
  8  4  1  0  0  0  0
  8  9  1  0  0  0  0
  9  6  2  0  0  0  0
 10 19  1  0  0  0  0
 10 16  1  0  0  0  0
 11 10  1  0  0  0  0
 12  5  1  0  0  0  0
 14 15  1  0  0  0  0
 14  1  2  0  0  0  0
 15  8  2  0  0  0  0
 16 18  1  0  0  0  0
 17 13  2  0  0  0  0
 18  5  1  0  0  0  0
 19  2  2  0  0  0  0
 20 22  1  0  0  0  0
 22 23  1  0  0  0  0
 22 21  2  0  0  0  0
 23 25  2  0  0  0  0
 23 24  1  0  0  0  0
M  END
>  <MODEL>
5

>  <REMARK>
 VINA RESULT:      -9.6      1.273      1.769
  Name = 
  3 active torsions:
  status: ('A' for Active; 'I' for Inactive)
    1  A    between atoms: C_2  and  C_25
    2  A    between atoms: C_6  and  C_15
    3  A    between atoms: C_15  and  C_25
                            x       y       z     vdW  Elec       q    Type
                         _______ _______ _______ _____ _____    ______ ____

>  <TORSDO>
F 3

$$$$
=
 OpenBabel10272400553D

 25 28  0  0  1  0  0  0  0  0999 V2000
  187.3940  178.1370  145.5410 C   0  0  0  0  0  0  0  0  0  0  0  0
  188.7500  177.8620  145.3310 C   0  0  0  0  0  0  0  0  0  0  0  0
  187.4640  177.2800  147.7940 C   0  0  0  0  0  3  0  0  0  0  0  0
  186.4020  178.8210  144.6680 C   0  0  2  0  0  3  0  0  0  0  0  0
  189.8220  177.0710  143.2040 C   0  0  2  0  0  3  0  0  0  0  0  0
  183.7070  178.5350  143.6890 C   0  0  0  0  0  3  0  0  0  0  0  0
  188.8160  176.9620  147.6050 C   0  0  0  0  0  3  0  0  0  0  0  0
  185.1910  178.7490  145.5610 C   0  0  0  0  0  0  0  0  0  0  0  0
  183.8500  178.8560  144.9820 C   0  0  0  0  0  3  0  0  0  0  0  0
  190.8760  176.8550  146.2500 N   0  0  0  0  0  0  0  0  0  0  0  0
  191.6050  176.3200  147.3900 C   0  0  0  0  0  1  0  0  0  0  0  0
  189.3790  178.2760  144.0360 C   0  0  0  0  0  2  0  0  0  0  0  0
  184.8620  178.0440  142.8930 C   0  0  0  0  0  3  0  0  0  0  0  0
  186.7830  177.8800  146.7430 C   0  0  0  0  0  0  0  0  0  0  0  0
  185.4090  178.2290  146.7280 N   0  0  0  0  0  0  0  0  0  0  0  0
  191.6140  176.9110  144.9920 C   0  0  0  0  0  2  0  0  0  0  0  0
  186.1160  178.1170  143.3660 C   0  0  0  0  0  3  0  0  0  0  0  0
  190.8550  176.1720  143.8960 C   0  0  0  0  0  2  0  0  0  0  0  0
  189.4840  177.2400  146.3870 C   0  0  0  0  0  0  0  0  0  0  0  0
  190.2910  177.5000  141.8110 C   0  0  0  0  0  2  0  0  0  0  0  0
  188.0040  177.2890  141.1630 O   0  0  0  0  0  0  0  0  0  0  0  0
  189.1810  177.5580  140.8040 C   0  0  0  0  0  0  0  0  0  0  0  0
  189.4510  177.9410  139.4110 C   0  0  0  0  0  0  0  0  0  0  0  0
  188.9760  179.1500  138.9170 O   0  0  0  0  0  1  0  0  0  0  0  0
  190.1230  177.1840  138.6610 O   0  0  0  0  0  0  0  0  0  0  0  0
  1 14  1  0  0  0  0
  2  1  2  0  0  0  0
  2 19  1  0  0  0  0
  4 17  1  6  0  0  0
  4  1  1  0  0  0  0
  4  8  1  0  0  0  0
  5 20  1  6  0  0  0
  5 18  1  0  0  0  0
  5 12  1  0  0  0  0
  6  9  2  0  0  0  0
  7  3  1  0  0  0  0
  8 15  2  0  0  0  0
  9  8  1  0  0  0  0
 10 19  1  0  0  0  0
 10 11  1  0  0  0  0
 12  2  1  0  0  0  0
 13 17  2  0  0  0  0
 13  6  1  0  0  0  0
 14  3  2  0  0  0  0
 15 14  1  0  0  0  0
 16 10  1  0  0  0  0
 18 16  1  0  0  0  0
 19  7  2  0  0  0  0
 22 21  2  0  0  0  0
 22 20  1  0  0  0  0
 23 22  1  0  0  0  0
 24 23  1  0  0  0  0
 25 23  2  0  0  0  0
M  END
>  <MODEL>
6

>  <REMARK>
 VINA RESULT:      -9.4      3.052      5.184
  Name = 
  3 active torsions:
  status: ('A' for Active; 'I' for Inactive)
    1  A    between atoms: C_2  and  C_25
    2  A    between atoms: C_6  and  C_15
    3  A    between atoms: C_15  and  C_25
                            x       y       z     vdW  Elec       q    Type
                         _______ _______ _______ _____ _____    ______ ____

>  <TORSDO>
F 3

$$$$
=
 OpenBabel10272400553D

 25 28  0  0  1  0  0  0  0  0999 V2000
  189.5910  177.0200  142.9560 C   0  0  0  0  0  0  0  0  0  0  0  0
  189.3760  176.8520  144.3290 C   0  0  0  0  0  0  0  0  0  0  0  0
  191.9780  177.1930  143.2480 C   0  0  0  0  0  3  0  0  0  0  0  0
  188.6340  176.9720  141.8170 C   0  0  2  0  0  3  0  0  0  0  0  0
  187.4550  177.7380  145.6810 C   0  0  2  0  0  3  0  0  0  0  0  0
  187.9220  178.4160  139.4280 C   0  0  0  0  0  3  0  0  0  0  0  0
  191.7950  177.0580  144.6300 C   0  0  0  0  0  3  0  0  0  0  0  0
  189.5870  177.2280  140.6800 C   0  0  0  0  0  0  0  0  0  0  0  0
  189.0820  177.7450  139.4060 C   0  0  0  0  0  3  0  0  0  0  0  0
  190.3890  176.7870  146.6410 N   0  0  0  0  0  0  0  0  0  0  0  0
  191.5810  176.7240  147.4730 C   0  0  0  0  0  1  0  0  0  0  0  0
  187.9820  176.5910  144.8150 C   0  0  0  0  0  2  0  0  0  0  0  0
  187.2070  178.6610  140.7070 C   0  0  0  0  0  3  0  0  0  0  0  0
  190.8530  177.1560  142.4350 C   0  0  0  0  0  0  0  0  0  0  0  0
  190.8330  177.3220  141.0270 N   0  0  0  0  0  0  0  0  0  0  0  0
  189.1160  176.8020  147.3540 C   0  0  0  0  0  2  0  0  0  0  0  0
  187.5700  178.0390  141.8400 C   0  0  0  0  0  3  0  0  0  0  0  0
  188.2870  178.0130  146.9400 C   0  0  0  0  0  2  0  0  0  0  0  0
  190.5080  176.8870  145.1990 C   0  0  0  0  0  0  0  0  0  0  0  0
  185.9730  177.5440  146.0150 C   0  0  0  0  0  2  0  0  0  0  0  0
  185.2590  179.6130  146.9660 O   0  0  0  0  0  0  0  0  0  0  0  0
  185.1880  178.8220  145.9880 C   0  0  0  0  0  0  0  0  0  0  0  0
  184.3530  179.1650  144.8290 C   0  0  0  0  0  0  0  0  0  0  0  0
  183.0210  178.7680  144.7890 O   0  0  0  0  0  1  0  0  0  0  0  0
  184.8320  179.8280  143.8720 O   0  0  0  0  0  0  0  0  0  0  0  0
  1  2  1  0  0  0  0
  2 12  1  0  0  0  0
  2 19  2  0  0  0  0
  3  7  2  0  0  0  0
  4 17  1  1  0  0  0
  4  1  1  0  0  0  0
  5 20  1  1  0  0  0
  5 18  1  0  0  0  0
  6 13  1  0  0  0  0
  7 19  1  0  0  0  0
  8 15  2  0  0  0  0
  8  4  1  0  0  0  0
  9  6  2  0  0  0  0
  9  8  1  0  0  0  0
 10 16  1  0  0  0  0
 10 11  1  0  0  0  0
 12  5  1  0  0  0  0
 13 17  2  0  0  0  0
 14  1  2  0  0  0  0
 14  3  1  0  0  0  0
 15 14  1  0  0  0  0
 18 16  1  0  0  0  0
 19 10  1  0  0  0  0
 22 20  1  0  0  0  0
 22 21  2  0  0  0  0
 23 22  1  0  0  0  0
 24 23  1  0  0  0  0
 25 23  2  0  0  0  0
M  END
>  <MODEL>
7

>  <REMARK>
 VINA RESULT:      -8.8      3.084      6.279
  Name = 
  3 active torsions:
  status: ('A' for Active; 'I' for Inactive)
    1  A    between atoms: C_2  and  C_25
    2  A    between atoms: C_6  and  C_15
    3  A    between atoms: C_15  and  C_25
                            x       y       z     vdW  Elec       q    Type
                         _______ _______ _______ _____ _____    ______ ____

>  <TORSDO>
F 3

$$$$
=
 OpenBabel10272400553D

 25 28  0  0  1  0  0  0  0  0999 V2000
  186.7000  178.3510  143.4540 C   0  0  0  0  0  0  0  0  0  0  0  0
  187.9900  178.1690  142.9430 C   0  0  0  0  0  0  0  0  0  0  0  0
  187.2830  177.3420  145.5640 C   0  0  0  0  0  3  0  0  0  0  0  0
  185.5180  179.0380  142.8660 C   0  0  2  0  0  3  0  0  0  0  0  0
  188.6140  177.5910  140.5800 C   0  0  2  0  0  3  0  0  0  0  0  0
  182.6890  178.6700  142.4540 C   0  0  0  0  0  3  0  0  0  0  0  0
  188.5750  177.1160  145.0720 C   0  0  0  0  0  3  0  0  0  0  0  0
  184.5290  178.8350  143.9840 C   0  0  0  0  0  0  0  0  0  0  0  0
  183.0920  178.9070  143.7100 C   0  0  0  0  0  3  0  0  0  0  0  0
  190.3010  177.2210  143.3100 N   0  0  0  0  0  0  0  0  0  0  0  0
  191.2780  176.6490  144.2250 C   0  0  0  0  0  1  0  0  0  0  0  0
  188.3100  178.7080  141.5820 C   0  0  0  0  0  2  0  0  0  0  0  0
  183.6660  178.3030  141.3970 C   0  0  0  0  0  3  0  0  0  0  0  0
  186.3700  177.9760  144.7320 C   0  0  0  0  0  0  0  0  0  0  0  0
  185.0110  178.2470  145.0340 N   0  0  0  0  0  0  0  0  0  0  0  0
  190.7510  177.4070  141.9350 C   0  0  0  0  0  2  0  0  0  0  0  0
  184.9890  178.4130  141.6000 C   0  0  0  0  0  3  0  0  0  0  0  0
  189.8070  176.7060  140.9650 C   0  0  0  0  0  2  0  0  0  0  0  0
  188.9560  177.5170  143.7670 C   0  0  0  0  0  0  0  0  0  0  0  0
  188.7570  178.1440  139.1600 C   0  0  0  0  0  2  0  0  0  0  0  0
  188.1090  176.2270  137.8960 O   0  0  0  0  0  0  0  0  0  0  0  0
  187.8910  177.4390  138.1590 C   0  0  0  0  0  0  0  0  0  0  0  0
  186.7830  178.1420  137.4980 C   0  0  0  0  0  0  0  0  0  0  0  0
  186.6620  178.1050  136.1140 O   0  0  0  0  0  0  0  0  0  0  0  0
  185.9310  178.7720  138.1790 O   0  0  0  0  0  1  0  0  0  0  0  0
  1 14  1  0  0  0  0
  2  1  2  0  0  0  0
  2 19  1  0  0  0  0
  4 17  1  6  0  0  0
  4  1  1  0  0  0  0
  4  8  1  0  0  0  0
  5 20  1  6  0  0  0
  5 18  1  0  0  0  0
  5 12  1  0  0  0  0
  6  9  2  0  0  0  0
  7  3  1  0  0  0  0
  8 15  2  0  0  0  0
  9  8  1  0  0  0  0
 10 19  1  0  0  0  0
 10 11  1  0  0  0  0
 12  2  1  0  0  0  0
 13 17  2  0  0  0  0
 13  6  1  0  0  0  0
 14 15  1  0  0  0  0
 14  3  2  0  0  0  0
 16 10  1  0  0  0  0
 18 16  1  0  0  0  0
 19  7  2  0  0  0  0
 21 22  2  0  0  0  0
 22 20  1  0  0  0  0
 23 22  1  0  0  0  0
 23 25  1  0  0  0  0
 24 23  2  0  0  0  0
M  END
>  <MODEL>
8

>  <REMARK>
 VINA RESULT:      -8.3      3.744      5.844
  Name = 
  3 active torsions:
  status: ('A' for Active; 'I' for Inactive)
    1  A    between atoms: C_2  and  C_25
    2  A    between atoms: C_6  and  C_15
    3  A    between atoms: C_15  and  C_25
                            x       y       z     vdW  Elec       q    Type
                         _______ _______ _______ _____ _____    ______ ____

>  <TORSDO>
F 3

$$$$
=
 OpenBabel10272400553D

 25 28  0  0  1  0  0  0  0  0999 V2000
  189.7230  177.6860  144.2420 C   0  0  0  0  0  0  0  0  0  0  0  0
  189.5180  177.9830  142.8900 C   0  0  0  0  0  0  0  0  0  0  0  0
  191.5470  176.1900  143.7430 C   0  0  0  0  0  3  0  0  0  0  0  0
  189.0750  178.2420  145.4610 C   0  0  2  0  0  3  0  0  0  0  0  0
  187.3200  178.3860  141.7450 C   0  0  2  0  0  3  0  0  0  0  0  0
  187.8890  177.4010  147.9490 C   0  0  0  0  0  3  0  0  0  0  0  0
  191.3470  176.4410  142.3790 C   0  0  0  0  0  3  0  0  0  0  0  0
  189.8110  177.4590  146.5160 C   0  0  0  0  0  0  0  0  0  0  0  0
  189.2200  177.2900  147.8450 C   0  0  0  0  0  3  0  0  0  0  0  0
  190.1700  177.5180  140.4950 N   0  0  0  0  0  0  0  0  0  0  0  0
  191.1030  176.9100  139.5580 C   0  0  0  0  0  1  0  0  0  0  0  0
  188.4850  179.0040  142.5240 C   0  0  0  0  0  2  0  0  0  0  0  0
  187.0480  177.6410  146.7480 C   0  0  0  0  0  3  0  0  0  0  0  0
  190.7240  176.8410  144.6530 C   0  0  0  0  0  0  0  0  0  0  0  0
  190.7420  176.6800  146.0610 N   0  0  0  0  0  0  0  0  0  0  0  0
  189.0570  178.2500  139.9010 C   0  0  0  0  0  2  0  0  0  0  0  0
  187.5960  177.9740  145.5680 C   0  0  0  0  0  3  0  0  0  0  0  0
  187.7280  177.7180  140.4260 C   0  0  0  0  0  2  0  0  0  0  0  0
  190.3420  177.3300  141.9240 C   0  0  0  0  0  0  0  0  0  0  0  0
  186.1910  179.3990  141.5400 C   0  0  0  0  0  2  0  0  0  0  0  0
  184.2510  178.0180  141.6910 O   0  0  0  0  0  0  0  0  0  0  0  0
  184.9430  178.7880  140.9740 C   0  0  0  0  0  0  0  0  0  0  0  0
  184.5140  179.0930  139.6030 C   0  0  0  0  0  0  0  0  0  0  0  0
  184.2150  178.0610  138.7210 O   0  0  0  0  0  0  0  0  0  0  0  0
  184.4030  180.2880  139.2210 O   0  0  0  0  0  1  0  0  0  0  0  0
  1 14  1  0  0  0  0
  1  4  1  0  0  0  0
  2  1  2  0  0  0  0
  3 14  2  0  0  0  0
  4 17  1  6  0  0  0
  4  8  1  0  0  0  0
  5 20  1  6  0  0  0
  5 12  1  0  0  0  0
  7  3  1  0  0  0  0
  8  9  1  0  0  0  0
  9  6  2  0  0  0  0
 10 19  1  0  0  0  0
 11 10  1  0  0  0  0
 12  2  1  0  0  0  0
 13  6  1  0  0  0  0
 14 15  1  0  0  0  0
 15  8  2  0  0  0  0
 16 18  1  0  0  0  0
 16 10  1  0  0  0  0
 17 13  2  0  0  0  0
 18  5  1  0  0  0  0
 19  7  2  0  0  0  0
 19  2  1  0  0  0  0
 22 20  1  0  0  0  0
 22 21  2  0  0  0  0
 23 22  1  0  0  0  0
 24 23  2  0  0  0  0
 25 23  1  0  0  0  0
M  END
>  <MODEL>
9

>  <REMARK>
 VINA RESULT:      -8.2      3.807      5.937
  Name = 
  3 active torsions:
  status: ('A' for Active; 'I' for Inactive)
    1  A    between atoms: C_2  and  C_25
    2  A    between atoms: C_6  and  C_15
    3  A    between atoms: C_15  and  C_25
                            x       y       z     vdW  Elec       q    Type
                         _______ _______ _______ _____ _____    ______ ____

>  <TORSDO>
F 3

$$$$
