=
 OpenBabel10272402053D

 32 36  0  0  1  0  0  0  0  0999 V2000
  191.5200  176.2580  139.5920 C   0  0  2  0  0  3  0  0  0  0  0  0
  190.0190  175.8860  137.5000 C   0  0  1  0  0  3  0  0  0  0  0  0
  191.1540  175.3640  138.3980 C   0  0  1  0  0  3  0  0  0  0  0  0
  189.0530  174.7430  137.1860 C   0  0  2  0  0  3  0  0  0  0  0  0
  186.6540  178.2750  135.5150 C   0  0  0  0  0  2  0  0  0  0  0  0
  189.2650  177.0830  138.1150 C   0  0  2  0  0  3  0  0  0  0  0  0
  185.9300  176.2650  136.2290 C   0  0  0  0  0  2  0  0  0  0  0  0
  187.1930  175.9800  137.0600 C   0  0  1  0  0  3  0  0  0  0  0  0
  189.7430  173.4700  136.6740 C   0  0  0  0  0  2  0  0  0  0  0  0
  192.2690  174.5760  137.6710 C   0  0  1  0  0  3  0  0  0  0  0  0
  188.0710  175.1900  136.2940 O   0  0  0  0  0  0  0  0  0  0  0  0
  192.0700  174.5300  136.1470 C   0  0  0  0  0  2  0  0  0  0  0  0
  193.5310  175.1020  137.9510 O   0  0  0  0  0  1  0  0  0  0  0  0
  189.1970  176.9890  139.5730 N   0  0  0  0  0  0  0  0  0  0  0  0
  191.3250  172.4610  135.1960 O   0  0  0  0  0  1  0  0  0  0  0  0
  190.2320  176.6480  140.2880 C   0  0  0  0  0  0  0  0  0  0  0  0
  187.8740  177.3010  137.5050 C   0  0  2  0  0  3  0  0  0  0  0  0
  190.8680  173.6970  135.6540 C   0  0  1  0  0  3  0  0  0  0  0  0
  185.6090  177.6370  136.2090 O   0  0  0  0  0  0  0  0  0  0  0  0
  187.9300  178.3240  136.3680 C   0  0  0  0  0  2  0  0  0  0  0  0
  189.0360  178.2550  143.3440 C   0  0  0  0  0  2  0  0  0  0  0  0
  189.5970  177.8720  144.7110 C   0  0  0  0  0  2  0  0  0  0  0  0
  191.1610  176.0220  143.9770 C   0  0  0  0  0  2  0  0  0  0  0  0
  190.1200  176.5920  141.7630 C   0  0  0  0  0  0  0  0  0  0  0  0
  191.0490  177.4010  144.6240 C   0  0  2  0  0  3  0  0  0  0  0  0
  191.1520  176.1290  142.4850 C   0  0  0  0  0  3  0  0  0  0  0  0
  188.8390  177.0610  142.4060 C   0  0  1  0  0  3  0  0  0  0  0  0
  188.1320  175.9670  143.0550 N   0  0  0  0  0  1  0  0  0  0  0  0
  191.9330  176.0820  146.4380 C   0  0  0  0  0  1  0  0  0  0  0  0
  191.7020  177.4340  145.9350 N   0  0  0  0  0  2  0  0  0  0  0  0
  192.2810  177.5010  139.1380 C   0  0  0  0  0  2  0  0  0  0  0  0
  193.4920  177.7410  140.0190 C   0  0  0  0  0  1  0  0  0  0  0  0
  1 31  1  6  0  0  0
  1 16  1  0  0  0  0
  2  6  1  0  0  0  0
  2  3  1  0  0  0  0
  3  1  1  0  0  0  0
  4  2  1  0  0  0  0
  5 19  1  0  0  0  0
  5 20  1  0  0  0  0
  6 14  1  0  0  0  0
  7  8  1  0  0  0  0
  8 17  1  0  0  0  0
  9  4  1  0  0  0  0
 10 13  1  0  0  0  0
 10  3  1  0  0  0  0
 11  8  1  0  0  0  0
 11  4  1  0  0  0  0
 12 10  1  0  0  0  0
 14 16  2  0  0  0  0
 15 18  1  0  0  0  0
 16 24  1  0  0  0  0
 17  6  1  0  0  0  0
 18 12  1  0  0  0  0
 18  9  1  0  0  0  0
 19  7  1  0  0  0  0
 20 17  1  0  0  0  0
 21 22  1  0  0  0  0
 23 25  1  0  0  0  0
 24 27  1  0  0  0  0
 24 26  2  0  0  0  0
 25 22  1  0  0  0  0
 25 30  1  0  0  0  0
 26 23  1  0  0  0  0
 27 28  1  0  0  0  0
 27 21  1  0  0  0  0
 30 29  1  0  0  0  0
 31 32  1  0  0  0  0
M  END
>  <MODEL>
1

>  <REMARK>
 VINA RESULT:      -6.5      0.000      0.000
  Name = 
  3 active torsions:
  status: ('A' for Active; 'I' for Inactive)
    1  A    between atoms: C_1  and  C_4
    2  A    between atoms: C_16  and  C_27
    3  A    between atoms: C_19  and  N_26
                            x       y       z     vdW  Elec       q    Type
                         _______ _______ _______ _____ _____    ______ ____

>  <TORSDO>
F 3

$$$$
=
 OpenBabel10272402053D

 32 36  0  0  1  0  0  0  0  0999 V2000
  185.0490  176.8380  137.4700 C   0  0  2  0  0  3  0  0  0  0  0  0
  182.5840  177.3690  138.1100 C   0  0  1  0  0  3  0  0  0  0  0  0
  183.6800  176.3060  137.9210 C   0  0  1  0  0  3  0  0  0  0  0  0
  181.8400  177.1040  139.4190 C   0  0  2  0  0  3  0  0  0  0  0  0
  180.0990  181.2070  138.3480 C   0  0  0  0  0  2  0  0  0  0  0  0
  183.1290  178.8110  138.0760 C   0  0  2  0  0  3  0  0  0  0  0  0
  180.2680  180.2080  140.3590 C   0  0  0  0  0  2  0  0  0  0  0  0
  181.3730  179.2360  139.9080 C   0  0  1  0  0  3  0  0  0  0  0  0
  181.3630  175.6530  139.5800 C   0  0  0  0  0  2  0  0  0  0  0  0
  183.1940  174.9310  137.4060 C   0  0  1  0  0  3  0  0  0  0  0  0
  180.7810  178.0110  139.5500 O   0  0  0  0  0  0  0  0  0  0  0  0
  181.6880  174.9090  137.0980 C   0  0  0  0  0  2  0  0  0  0  0  0
  183.8990  174.5340  136.2690 O   0  0  0  0  0  1  0  0  0  0  0  0
  184.4750  178.8960  138.6400 N   0  0  0  0  0  0  0  0  0  0  0  0
  180.2660  173.7510  138.6390 O   0  0  0  0  0  1  0  0  0  0  0  0
  185.3980  178.0210  138.3500 C   0  0  0  0  0  0  0  0  0  0  0  0
  182.1860  179.8310  138.7280 C   0  0  2  0  0  3  0  0  0  0  0  0
  180.7530  175.0180  138.3210 C   0  0  1  0  0  3  0  0  0  0  0  0
  180.3610  181.4540  139.7080 O   0  0  0  0  0  0  0  0  0  0  0  0
  181.2780  180.4830  137.6830 C   0  0  0  0  0  2  0  0  0  0  0  0
  188.8630  176.8620  138.3850 C   0  0  0  0  0  2  0  0  0  0  0  0
  189.7860  177.1640  139.5630 C   0  0  0  0  0  2  0  0  0  0  0  0
  188.1980  178.5740  140.9410 C   0  0  0  0  0  2  0  0  0  0  0  0
  186.7530  178.1640  138.9270 C   0  0  0  0  0  0  0  0  0  0  0  0
  189.0170  177.2860  140.8790 C   0  0  2  0  0  3  0  0  0  0  0  0
  186.8870  178.4090  140.2400 C   0  0  0  0  0  3  0  0  0  0  0  0
  187.9430  178.0280  138.0120 C   0  0  1  0  0  3  0  0  0  0  0  0
  188.6730  179.2820  137.8910 N   0  0  0  0  0  1  0  0  0  0  0  0
  189.4200  176.1460  142.9650 C   0  0  0  0  0  1  0  0  0  0  0  0
  189.9090  177.1600  142.0340 N   0  0  0  0  0  2  0  0  0  0  0  0
  185.0220  177.2530  136.0000 C   0  0  0  0  0  2  0  0  0  0  0  0
  186.2480  176.7340  135.2740 C   0  0  0  0  0  1  0  0  0  0  0  0
  1 31  1  6  0  0  0
  1  3  1  0  0  0  0
  1 16  1  0  0  0  0
  2  4  1  0  0  0  0
  3  2  1  0  0  0  0
  4 11  1  0  0  0  0
  4  9  1  0  0  0  0
  5 19  1  0  0  0  0
  6  2  1  0  0  0  0
  6 14  1  0  0  0  0
  6 17  1  0  0  0  0
  8  7  1  0  0  0  0
 10  3  1  0  0  0  0
 11  8  1  0  0  0  0
 12 10  1  0  0  0  0
 12 18  1  0  0  0  0
 13 10  1  0  0  0  0
 16 14  2  0  0  0  0
 16 24  1  0  0  0  0
 17  8  1  0  0  0  0
 18 15  1  0  0  0  0
 18  9  1  0  0  0  0
 19  7  1  0  0  0  0
 20  5  1  0  0  0  0
 20 17  1  0  0  0  0
 21 22  1  0  0  0  0
 22 25  1  0  0  0  0
 24 26  2  0  0  0  0
 25 23  1  0  0  0  0
 25 30  1  0  0  0  0
 26 23  1  0  0  0  0
 27 21  1  0  0  0  0
 27 24  1  0  0  0  0
 28 27  1  0  0  0  0
 30 29  1  0  0  0  0
 32 31  1  0  0  0  0
M  END
>  <MODEL>
2

>  <REMARK>
 VINA RESULT:      -6.5      4.449      7.317
  Name = 
  3 active torsions:
  status: ('A' for Active; 'I' for Inactive)
    1  A    between atoms: C_1  and  C_4
    2  A    between atoms: C_16  and  C_27
    3  A    between atoms: C_19  and  N_26
                            x       y       z     vdW  Elec       q    Type
                         _______ _______ _______ _____ _____    ______ ____

>  <TORSDO>
F 3

$$$$
=
 OpenBabel10272402053D

 32 36  0  0  1  0  0  0  0  0999 V2000
  188.2280  177.7930  139.1440 C   0  0  2  0  0  3  0  0  0  0  0  0
  188.3410  178.0550  141.7300 C   0  0  1  0  0  3  0  0  0  0  0  0
  187.4740  177.8170  140.4820 C   0  0  1  0  0  3  0  0  0  0  0  0
  187.9350  177.0700  142.8260 C   0  0  2  0  0  3  0  0  0  0  0  0
  191.7210  178.8310  144.7190 C   0  0  0  0  0  2  0  0  0  0  0  0
  189.8530  177.9570  141.4420 C   0  0  2  0  0  3  0  0  0  0  0  0
  190.7260  176.8470  145.0960 C   0  0  0  0  0  2  0  0  0  0  0  0
  189.9550  176.8540  143.7640 C   0  0  1  0  0  3  0  0  0  0  0  0
  186.4230  177.0270  143.0940 C   0  0  0  0  0  2  0  0  0  0  0  0
  186.0480  178.4130  140.5370 C   0  0  1  0  0  3  0  0  0  0  0  0
  188.6560  177.3450  143.9950 O   0  0  0  0  0  0  0  0  0  0  0  0
  185.7880  179.2160  141.8220 C   0  0  0  0  0  2  0  0  0  0  0  0
  185.7910  179.2250  139.4310 O   0  0  0  0  0  1  0  0  0  0  0  0
  190.1440  176.9700  140.4030 N   0  0  0  0  0  0  0  0  0  0  0  0
  184.3860  178.2110  143.4840 O   0  0  0  0  0  1  0  0  0  0  0  0
  189.4360  176.8930  139.3110 C   0  0  0  0  0  0  0  0  0  0  0  0
  190.6940  177.7070  142.7010 C   0  0  2  0  0  3  0  0  0  0  0  0
  185.7210  178.3930  143.1250 C   0  0  1  0  0  3  0  0  0  0  0  0
  191.9820  177.4740  144.9830 O   0  0  0  0  0  0  0  0  0  0  0  0
  191.2100  179.0240  143.2850 C   0  0  0  0  0  2  0  0  0  0  0  0
  191.2660  176.1630  136.2330 C   0  0  0  0  0  2  0  0  0  0  0  0
  190.9060  174.9600  135.3660 C   0  0  0  0  0  2  0  0  0  0  0  0
  189.0790  173.9770  136.8160 C   0  0  0  0  0  2  0  0  0  0  0  0
  189.7860  175.8930  138.2780 C   0  0  0  0  0  0  0  0  0  0  0  0
  189.4230  174.6030  135.4660 C   0  0  2  0  0  3  0  0  0  0  0  0
  188.8500  175.0310  137.8520 C   0  0  0  0  0  3  0  0  0  0  0  0
  191.1940  175.8790  137.7370 C   0  0  1  0  0  3  0  0  0  0  0  0
  191.8950  174.6550  138.0960 N   0  0  0  0  0  1  0  0  0  0  0  0
  188.7410  172.3840  134.8120 C   0  0  0  0  0  1  0  0  0  0  0  0
  189.0020  173.7460  134.3540 N   0  0  0  0  0  2  0  0  0  0  0  0
  188.6610  179.1980  138.7290 C   0  0  0  0  0  2  0  0  0  0  0  0
  188.9820  179.2440  137.2480 C   0  0  0  0  0  1  0  0  0  0  0  0
  1 31  1  1  0  0  0
  1 16  1  0  0  0  0
  1  3  1  0  0  0  0
  2  4  1  0  0  0  0
  3 10  1  0  0  0  0
  3  2  1  0  0  0  0
  4  9  1  0  0  0  0
  4 11  1  0  0  0  0
  5 19  1  0  0  0  0
  6  2  1  0  0  0  0
  6 17  1  0  0  0  0
  8 11  1  0  0  0  0
  8  7  1  0  0  0  0
  9 18  1  0  0  0  0
 10 12  1  0  0  0  0
 12 18  1  0  0  0  0
 13 10  1  0  0  0  0
 14  6  1  0  0  0  0
 16 14  2  0  0  0  0
 17 20  1  0  0  0  0
 17  8  1  0  0  0  0
 18 15  1  0  0  0  0
 19  7  1  0  0  0  0
 20  5  1  0  0  0  0
 21 27  1  0  0  0  0
 22 25  1  0  0  0  0
 22 21  1  0  0  0  0
 23 26  1  0  0  0  0
 24 16  1  0  0  0  0
 25 23  1  0  0  0  0
 26 24  2  0  0  0  0
 27 28  1  0  0  0  0
 27 24  1  0  0  0  0
 30 29  1  0  0  0  0
 30 25  1  0  0  0  0
 32 31  1  0  0  0  0
M  END
>  <MODEL>
3

>  <REMARK>
 VINA RESULT:      -5.9      3.255      7.894
  Name = 
  3 active torsions:
  status: ('A' for Active; 'I' for Inactive)
    1  A    between atoms: C_1  and  C_4
    2  A    between atoms: C_16  and  C_27
    3  A    between atoms: C_19  and  N_26
                            x       y       z     vdW  Elec       q    Type
                         _______ _______ _______ _____ _____    ______ ____

>  <TORSDO>
F 3

$$$$
=
 OpenBabel10272402053D

 32 36  0  0  1  0  0  0  0  0999 V2000
  186.1710  176.7890  136.4670 C   0  0  2  0  0  3  0  0  0  0  0  0
  183.6740  176.3170  137.0260 C   0  0  1  0  0  3  0  0  0  0  0  0
  185.0390  175.7570  136.5890 C   0  0  1  0  0  3  0  0  0  0  0  0
  183.0720  175.4080  138.0970 C   0  0  2  0  0  3  0  0  0  0  0  0
  180.1410  178.9260  138.3200 C   0  0  0  0  0  2  0  0  0  0  0  0
  183.7520  177.7730  137.5290 C   0  0  2  0  0  3  0  0  0  0  0  0
  180.6450  177.3850  139.8830 C   0  0  0  0  0  2  0  0  0  0  0  0
  181.9850  177.0000  139.2320 C   0  0  1  0  0  3  0  0  0  0  0  0
  183.0640  173.9200  137.7160 C   0  0  0  0  0  2  0  0  0  0  0  0
  184.9860  174.5700  135.5990 C   0  0  1  0  0  3  0  0  0  0  0  0
  181.7890  175.8600  138.4300 O   0  0  0  0  0  0  0  0  0  0  0  0
  183.5530  174.2170  135.1690 C   0  0  0  0  0  2  0  0  0  0  0  0
  185.7570  174.8180  134.4630 O   0  0  0  0  0  1  0  0  0  0  0  0
  185.0190  178.0460  138.2070 N   0  0  0  0  0  0  0  0  0  0  0  0
  182.5830  172.2320  136.0960 O   0  0  0  0  0  1  0  0  0  0  0  0
  186.1580  177.6380  137.7220 C   0  0  0  0  0  0  0  0  0  0  0  0
  182.5550  178.1780  138.3990 C   0  0  2  0  0  3  0  0  0  0  0  0
  182.6530  173.6140  136.2680 C   0  0  1  0  0  3  0  0  0  0  0  0
  180.3410  178.7480  139.7010 O   0  0  0  0  0  0  0  0  0  0  0  0
  181.4710  178.8580  137.5580 C   0  0  0  0  0  2  0  0  0  0  0  0
  189.7740  177.1550  137.9480 C   0  0  0  0  0  2  0  0  0  0  0  0
  190.5360  177.4780  139.2310 C   0  0  0  0  0  2  0  0  0  0  0  0
  188.6100  178.3840  140.6020 C   0  0  0  0  0  2  0  0  0  0  0  0
  187.4160  177.9610  138.4330 C   0  0  0  0  0  0  0  0  0  0  0  0
  189.6700  177.2910  140.4770 C   0  0  2  0  0  3  0  0  0  0  0  0
  187.4080  178.0630  139.7710 C   0  0  0  0  0  3  0  0  0  0  0  0
  188.6700  178.1650  137.6200 C   0  0  1  0  0  3  0  0  0  0  0  0
  189.1440  179.5390  137.7020 N   0  0  0  0  0  1  0  0  0  0  0  0
  189.9680  176.1670  142.5890 C   0  0  0  0  0  1  0  0  0  0  0  0
  190.4870  177.1940  141.6890 N   0  0  0  0  0  2  0  0  0  0  0  0
  185.9910  177.6620  135.2280 C   0  0  0  0  0  2  0  0  0  0  0  0
  187.2970  177.7910  134.4690 C   0  0  0  0  0  1  0  0  0  0  0  0
  1 31  1  6  0  0  0
  1  3  1  0  0  0  0
  1 16  1  0  0  0  0
  2  6  1  0  0  0  0
  2  4  1  0  0  0  0
  3  2  1  0  0  0  0
  4 11  1  0  0  0  0
  5 19  1  0  0  0  0
  6 14  1  0  0  0  0
  6 17  1  0  0  0  0
  8  7  1  0  0  0  0
  9  4  1  0  0  0  0
 10  3  1  0  0  0  0
 11  8  1  0  0  0  0
 12 10  1  0  0  0  0
 12 18  1  0  0  0  0
 13 10  1  0  0  0  0
 15 18  1  0  0  0  0
 16 14  2  0  0  0  0
 16 24  1  0  0  0  0
 17  8  1  0  0  0  0
 18  9  1  0  0  0  0
 19  7  1  0  0  0  0
 20  5  1  0  0  0  0
 20 17  1  0  0  0  0
 21 22  1  0  0  0  0
 22 25  1  0  0  0  0
 24 26  2  0  0  0  0
 25 23  1  0  0  0  0
 25 30  1  0  0  0  0
 26 23  1  0  0  0  0
 27 28  1  0  0  0  0
 27 21  1  0  0  0  0
 27 24  1  0  0  0  0
 30 29  1  0  0  0  0
 32 31  1  0  0  0  0
M  END
>  <MODEL>
4

>  <REMARK>
 VINA RESULT:      -5.9      3.576      6.353
  Name = 
  3 active torsions:
  status: ('A' for Active; 'I' for Inactive)
    1  A    between atoms: C_1  and  C_4
    2  A    between atoms: C_16  and  C_27
    3  A    between atoms: C_19  and  N_26
                            x       y       z     vdW  Elec       q    Type
                         _______ _______ _______ _____ _____    ______ ____

>  <TORSDO>
F 3

$$$$
=
 OpenBabel10272402053D

 32 36  0  0  1  0  0  0  0  0999 V2000
  190.9960  176.6110  137.6550 C   0  0  2  0  0  3  0  0  0  0  0  0
  188.9080  175.6180  136.4630 C   0  0  1  0  0  3  0  0  0  0  0  0
  189.8050  176.8430  136.7130 C   0  0  1  0  0  3  0  0  0  0  0  0
  188.5980  175.5120  134.9690 C   0  0  2  0  0  3  0  0  0  0  0  0
  186.9220  171.4930  136.4000 C   0  0  0  0  0  2  0  0  0  0  0  0
  189.5210  174.3030  136.9860 C   0  0  2  0  0  3  0  0  0  0  0  0
  187.6420  172.0930  134.3530 C   0  0  0  0  0  2  0  0  0  0  0  0
  188.4720  173.2810  134.8700 C   0  0  1  0  0  3  0  0  0  0  0  0
  188.0880  176.8210  134.3460 C   0  0  0  0  0  2  0  0  0  0  0  0
  189.0780  178.2080  136.7330 C   0  0  1  0  0  3  0  0  0  0  0  0
  187.7070  174.4560  134.7480 O   0  0  0  0  0  0  0  0  0  0  0  0
  187.5550  178.0750  136.5730 C   0  0  0  0  0  2  0  0  0  0  0  0
  189.3550  178.9170  137.9030 O   0  0  0  0  0  1  0  0  0  0  0  0
  190.9790  174.3030  136.8750 N   0  0  0  0  0  0  0  0  0  0  0  0
  186.6110  178.6940  134.4600 O   0  0  0  0  0  1  0  0  0  0  0  0
  191.6930  175.3400  137.2120 C   0  0  0  0  0  0  0  0  0  0  0  0
  188.9120  173.0520  136.3400 C   0  0  2  0  0  3  0  0  0  0  0  0
  187.0660  177.5960  135.1900 C   0  0  1  0  0  3  0  0  0  0  0  0
  187.6190  171.0250  135.2710 O   0  0  0  0  0  0  0  0  0  0  0  0
  187.7720  172.4940  137.1950 C   0  0  0  0  0  2  0  0  0  0  0  0
  194.6020  174.8100  135.0640 C   0  0  0  0  0  2  0  0  0  0  0  0
  195.9700  174.4760  135.6540 C   0  0  0  0  0  2  0  0  0  0  0  0
  195.3700  174.6100  138.1100 C   0  0  0  0  0  2  0  0  0  0  0  0
  193.1680  175.2820  137.1050 C   0  0  0  0  0  0  0  0  0  0  0  0
  195.8560  173.7120  136.9730 C   0  0  2  0  0  3  0  0  0  0  0  0
  193.8790  174.7280  138.0990 C   0  0  0  0  0  3  0  0  0  0  0  0
  193.8240  175.8520  135.8730 C   0  0  1  0  0  3  0  0  0  0  0  0
  194.6380  177.0180  136.1880 N   0  0  0  0  0  1  0  0  0  0  0  0
  196.9330  171.5960  137.3950 C   0  0  0  0  0  1  0  0  0  0  0  0
  197.1140  173.0440  137.3170 N   0  0  0  0  0  2  0  0  0  0  0  0
  190.5370  176.4910  139.1060 C   0  0  0  0  0  2  0  0  0  0  0  0
  191.4440  177.2900  140.0220 C   0  0  0  0  0  1  0  0  0  0  0  0
  1 31  1  1  0  0  0
  2  3  1  0  0  0  0
  2  6  1  0  0  0  0
  3 10  1  0  0  0  0
  3  1  1  0  0  0  0
  4  2  1  0  0  0  0
  5 20  1  0  0  0  0
  7  8  1  0  0  0  0
  7 19  1  0  0  0  0
  8 17  1  0  0  0  0
  9  4  1  0  0  0  0
  9 18  1  0  0  0  0
 10 13  1  0  0  0  0
 11  8  1  0  0  0  0
 11  4  1  0  0  0  0
 12 10  1  0  0  0  0
 14  6  1  0  0  0  0
 14 16  2  0  0  0  0
 15 18  1  0  0  0  0
 16  1  1  0  0  0  0
 17  6  1  0  0  0  0
 17 20  1  0  0  0  0
 18 12  1  0  0  0  0
 19  5  1  0  0  0  0
 21 22  1  0  0  0  0
 21 27  1  0  0  0  0
 22 25  1  0  0  0  0
 24 16  1  0  0  0  0
 24 26  2  0  0  0  0
 25 30  1  0  0  0  0
 25 23  1  0  0  0  0
 26 23  1  0  0  0  0
 27 28  1  0  0  0  0
 27 24  1  0  0  0  0
 30 29  1  0  0  0  0
 31 32  1  0  0  0  0
M  END
>  <MODEL>
5

>  <REMARK>
 VINA RESULT:      -5.6      3.528      6.434
  Name = 
  3 active torsions:
  status: ('A' for Active; 'I' for Inactive)
    1  A    between atoms: C_1  and  C_4
    2  A    between atoms: C_16  and  C_27
    3  A    between atoms: C_19  and  N_26
                            x       y       z     vdW  Elec       q    Type
                         _______ _______ _______ _____ _____    ______ ____

>  <TORSDO>
F 3

$$$$
=
 OpenBabel10272402053D

 32 36  0  0  1  0  0  0  0  0999 V2000
  187.2780  177.6600  137.9420 C   0  0  2  0  0  3  0  0  0  0  0  0
  184.6820  177.5230  137.8590 C   0  0  1  0  0  3  0  0  0  0  0  0
  186.0320  176.8510  137.5540 C   0  0  1  0  0  3  0  0  0  0  0  0
  183.7400  176.5030  138.5000 C   0  0  2  0  0  3  0  0  0  0  0  0
  181.2890  180.3280  139.1210 C   0  0  0  0  0  2  0  0  0  0  0  0
  184.8170  178.7740  138.7500 C   0  0  2  0  0  3  0  0  0  0  0  0
  181.2240  178.3880  140.2630 C   0  0  0  0  0  2  0  0  0  0  0  0
  182.6220  177.9390  139.8010 C   0  0  1  0  0  3  0  0  0  0  0  0
  183.6390  175.1790  137.7280 C   0  0  0  0  0  2  0  0  0  0  0  0
  186.0660  175.9700  136.2840 C   0  0  1  0  0  3  0  0  0  0  0  0
  182.4800  177.0830  138.6930 O   0  0  0  0  0  0  0  0  0  0  0  0
  184.7400  175.9940  135.5060 C   0  0  0  0  0  2  0  0  0  0  0  0
  187.1040  176.3450  135.4300 O   0  0  0  0  0  1  0  0  0  0  0  0
  185.9150  178.6420  139.7070 N   0  0  0  0  0  0  0  0  0  0  0  0
  183.3460  174.0510  135.6430 O   0  0  0  0  0  1  0  0  0  0  0  0
  187.0780  178.1670  139.3570 C   0  0  0  0  0  0  0  0  0  0  0  0
  183.5090  179.1630  139.4520 C   0  0  2  0  0  3  0  0  0  0  0  0
  183.5420  175.3140  136.2010 C   0  0  1  0  0  3  0  0  0  0  0  0
  181.1400  179.7860  140.4110 O   0  0  0  0  0  0  0  0  0  0  0  0
  182.7420  180.2100  138.6400 C   0  0  0  0  0  2  0  0  0  0  0  0
  189.5730  176.0660  141.0040 C   0  0  0  0  0  2  0  0  0  0  0  0
  190.2000  176.4780  142.3330 C   0  0  0  0  0  2  0  0  0  0  0  0
  189.0780  178.7310  142.6030 C   0  0  0  0  0  2  0  0  0  0  0  0
  188.1650  178.0760  140.3570 C   0  0  0  0  0  0  0  0  0  0  0  0
  189.2500  177.3260  143.1790 C   0  0  2  0  0  3  0  0  0  0  0  0
  188.0510  178.7410  141.5160 C   0  0  0  0  0  3  0  0  0  0  0  0
  189.3720  177.2320  140.0330 C   0  0  1  0  0  3  0  0  0  0  0  0
  190.5740  178.0430  139.8980 N   0  0  0  0  0  1  0  0  0  0  0  0
  191.1200  177.2030  144.6960 C   0  0  0  0  0  1  0  0  0  0  0  0
  189.6730  177.3680  144.5810 N   0  0  0  0  0  2  0  0  0  0  0  0
  187.4990  178.8280  136.9830 C   0  0  0  0  0  2  0  0  0  0  0  0
  188.9680  179.1980  136.9190 C   0  0  0  0  0  1  0  0  0  0  0  0
  1 31  1  6  0  0  0
  1 16  1  0  0  0  0
  2  4  1  0  0  0  0
  2  6  1  0  0  0  0
  3  2  1  0  0  0  0
  3  1  1  0  0  0  0
  4 11  1  0  0  0  0
  5 19  1  0  0  0  0
  6 17  1  0  0  0  0
  6 14  1  0  0  0  0
  7 19  1  0  0  0  0
  8  7  1  0  0  0  0
  9  4  1  0  0  0  0
 10  3  1  0  0  0  0
 11  8  1  0  0  0  0
 12 18  1  0  0  0  0
 12 10  1  0  0  0  0
 13 10  1  0  0  0  0
 15 18  1  0  0  0  0
 16 14  2  0  0  0  0
 16 24  1  0  0  0  0
 17  8  1  0  0  0  0
 18  9  1  0  0  0  0
 20  5  1  0  0  0  0
 20 17  1  0  0  0  0
 21 22  1  0  0  0  0
 22 25  1  0  0  0  0
 23 25  1  0  0  0  0
 24 26  2  0  0  0  0
 25 30  1  0  0  0  0
 26 23  1  0  0  0  0
 27 24  1  0  0  0  0
 27 21  1  0  0  0  0
 28 27  1  0  0  0  0
 30 29  1  0  0  0  0
 32 31  1  0  0  0  0
M  END
>  <MODEL>
6

>  <REMARK>
 VINA RESULT:      -5.6      3.271      5.319
  Name = 
  3 active torsions:
  status: ('A' for Active; 'I' for Inactive)
    1  A    between atoms: C_1  and  C_4
    2  A    between atoms: C_16  and  C_27
    3  A    between atoms: C_19  and  N_26
                            x       y       z     vdW  Elec       q    Type
                         _______ _______ _______ _____ _____    ______ ____

>  <TORSDO>
F 3

$$$$
=
 OpenBabel10272402053D

 32 36  0  0  1  0  0  0  0  0999 V2000
  182.9890  176.1580  137.4900 C   0  0  2  0  0  3  0  0  0  0  0  0
  185.5810  176.1010  137.2730 C   0  0  1  0  0  3  0  0  0  0  0  0
  184.2260  175.5020  136.8590 C   0  0  1  0  0  3  0  0  0  0  0  0
  186.4580  176.2790  136.0330 C   0  0  2  0  0  3  0  0  0  0  0  0
  188.9980  178.5280  139.1170 C   0  0  0  0  0  2  0  0  0  0  0  0
  185.4430  177.4320  138.0390 C   0  0  2  0  0  3  0  0  0  0  0  0
  188.9460  178.7460  136.8770 C   0  0  0  0  0  2  0  0  0  0  0  0
  187.5580  178.0970  136.7330 C   0  0  1  0  0  3  0  0  0  0  0  0
  186.5520  175.0240  135.1530 C   0  0  0  0  0  2  0  0  0  0  0  0
  184.2240  173.9770  136.5960 C   0  0  1  0  0  3  0  0  0  0  0  0
  187.7250  176.7360  136.4160 O   0  0  0  0  0  0  0  0  0  0  0  0
  185.5850  173.3220  136.8810 C   0  0  0  0  0  2  0  0  0  0  0  0
  183.2390  173.3320  137.3460 O   0  0  0  0  0  1  0  0  0  0  0  0
  184.2980  178.2110  137.5710 N   0  0  0  0  0  0  0  0  0  0  0  0
  186.9070  172.6670  134.9940 O   0  0  0  0  0  1  0  0  0  0  0  0
  183.1380  177.6590  137.3440 C   0  0  0  0  0  0  0  0  0  0  0  0
  186.7280  178.2710  138.0320 C   0  0  2  0  0  3  0  0  0  0  0  0
  186.7260  173.7000  135.9130 C   0  0  1  0  0  3  0  0  0  0  0  0
  189.0690  179.4720  138.0770 O   0  0  0  0  0  0  0  0  0  0  0  0
  187.5660  177.9990  139.2840 C   0  0  0  0  0  2  0  0  0  0  0  0
  181.4550  179.3200  134.5590 C   0  0  0  0  0  2  0  0  0  0  0  0
  180.4470  180.4410  134.7990 C   0  0  0  0  0  2  0  0  0  0  0  0
  180.4480  180.4190  137.3300 C   0  0  0  0  0  2  0  0  0  0  0  0
  182.0020  178.4950  136.8960 C   0  0  0  0  0  0  0  0  0  0  0  0
  180.7560  181.2290  136.0720 C   0  0  2  0  0  3  0  0  0  0  0  0
  181.5820  179.5060  137.6710 C   0  0  0  0  0  3  0  0  0  0  0  0
  181.3530  178.1760  135.5720 C   0  0  1  0  0  3  0  0  0  0  0  0
  179.9820  177.7180  135.7430 N   0  0  0  0  0  1  0  0  0  0  0  0
  180.7720  183.4820  136.9290 C   0  0  0  0  0  1  0  0  0  0  0  0
  180.0680  182.5220  136.0830 N   0  0  0  0  0  2  0  0  0  0  0  0
  182.8510  175.7750  138.9620 C   0  0  0  0  0  2  0  0  0  0  0  0
  181.3990  175.8230  139.3950 C   0  0  0  0  0  1  0  0  0  0  0  0
  1 31  1  1  0  0  0
  2  6  1  0  0  0  0
  3  2  1  0  0  0  0
  3  1  1  0  0  0  0
  4 11  1  0  0  0  0
  4  2  1  0  0  0  0
  5 20  1  0  0  0  0
  7 19  1  0  0  0  0
  8  7  1  0  0  0  0
  8 17  1  0  0  0  0
  9 18  1  0  0  0  0
  9  4  1  0  0  0  0
 10  3  1  0  0  0  0
 10 12  1  0  0  0  0
 10 13  1  0  0  0  0
 11  8  1  0  0  0  0
 14  6  1  0  0  0  0
 15 18  1  0  0  0  0
 16  1  1  0  0  0  0
 16 14  2  0  0  0  0
 17  6  1  0  0  0  0
 17 20  1  0  0  0  0
 18 12  1  0  0  0  0
 19  5  1  0  0  0  0
 21 22  1  0  0  0  0
 21 27  1  0  0  0  0
 22 25  1  0  0  0  0
 23 26  1  0  0  0  0
 24 16  1  0  0  0  0
 24 26  2  0  0  0  0
 25 30  1  0  0  0  0
 25 23  1  0  0  0  0
 27 28  1  0  0  0  0
 27 24  1  0  0  0  0
 30 29  1  0  0  0  0
 31 32  1  0  0  0  0
M  END
>  <MODEL>
7

>  <REMARK>
 VINA RESULT:      -5.6      4.789      8.871
  Name = 
  3 active torsions:
  status: ('A' for Active; 'I' for Inactive)
    1  A    between atoms: C_1  and  C_4
    2  A    between atoms: C_16  and  C_27
    3  A    between atoms: C_19  and  N_26
                            x       y       z     vdW  Elec       q    Type
                         _______ _______ _______ _____ _____    ______ ____

>  <TORSDO>
F 3

$$$$
=
 OpenBabel10272402053D

 32 36  0  0  1  0  0  0  0  0999 V2000
  186.8610  176.4110  136.6550 C   0  0  2  0  0  3  0  0  0  0  0  0
  189.4340  176.4580  137.0360 C   0  0  1  0  0  3  0  0  0  0  0  0
  188.0270  176.6400  137.6290 C   0  0  1  0  0  3  0  0  0  0  0  0
  190.2900  175.6380  138.0030 C   0  0  2  0  0  3  0  0  0  0  0  0
  193.0760  175.7130  134.3620 C   0  0  0  0  0  2  0  0  0  0  0  0
  189.4210  175.8090  135.6370 C   0  0  2  0  0  3  0  0  0  0  0  0
  192.9840  174.2380  136.0610 C   0  0  0  0  0  2  0  0  0  0  0  0
  191.5470  174.6160  136.4600 C   0  0  1  0  0  3  0  0  0  0  0  0
  190.2640  176.1570  139.4480 C   0  0  0  0  0  2  0  0  0  0  0  0
  187.8990  177.7300  138.7190 C   0  0  1  0  0  3  0  0  0  0  0  0
  191.5990  175.5500  137.5110 O   0  0  0  0  0  0  0  0  0  0  0  0
  189.2120  178.4950  138.9540 C   0  0  0  0  0  2  0  0  0  0  0  0
  186.8870  178.6420  138.4140 O   0  0  0  0  0  1  0  0  0  0  0  0
  188.3270  174.8480  135.4960 N   0  0  0  0  0  0  0  0  0  0  0  0
  190.4310  178.0020  140.9560 O   0  0  0  0  0  1  0  0  0  0  0  0
  187.1230  175.1110  135.9210 C   0  0  0  0  0  0  0  0  0  0  0  0
  190.7660  175.1850  135.2460 C   0  0  2  0  0  3  0  0  0  0  0  0
  190.3540  177.6830  139.6010 C   0  0  1  0  0  3  0  0  0  0  0  0
  193.1930  174.3460  134.6720 O   0  0  0  0  0  0  0  0  0  0  0  0
  191.6120  176.1700  134.4360 C   0  0  0  0  0  2  0  0  0  0  0  0
  184.7640  172.7980  137.4840 C   0  0  0  0  0  2  0  0  0  0  0  0
  184.1140  171.6720  136.6850 C   0  0  0  0  0  2  0  0  0  0  0  0
  185.0960  172.2000  134.4130 C   0  0  0  0  0  2  0  0  0  0  0  0
  186.0450  174.1150  135.7320 C   0  0  0  0  0  0  0  0  0  0  0  0
  185.0110  171.1820  135.5480 C   0  0  2  0  0  3  0  0  0  0  0  0
  186.1190  173.2500  134.7100 C   0  0  0  0  0  3  0  0  0  0  0  0
  184.8910  174.1100  136.7040 C   0  0  1  0  0  3  0  0  0  0  0  0
  183.6420  174.4840  136.0570 N   0  0  0  0  0  1  0  0  0  0  0  0
  183.4800  169.3450  135.8580 C   0  0  0  0  0  1  0  0  0  0  0  0
  184.5870  169.8670  135.0610 N   0  0  0  0  0  2  0  0  0  0  0  0
  186.7320  177.5670  135.6660 C   0  0  0  0  0  2  0  0  0  0  0  0
  185.5960  177.3150  134.6940 C   0  0  0  0  0  1  0  0  0  0  0  0
  1 31  1  6  0  0  0
  1  3  1  0  0  0  0
  2  3  1  0  0  0  0
  2  4  1  0  0  0  0
  3 10  1  0  0  0  0
  4  9  1  0  0  0  0
  5 20  1  0  0  0  0
  5 19  1  0  0  0  0
  6  2  1  0  0  0  0
  7  8  1  0  0  0  0
  8 11  1  0  0  0  0
  9 18  1  0  0  0  0
 10 12  1  0  0  0  0
 11  4  1  0  0  0  0
 12 18  1  0  0  0  0
 13 10  1  0  0  0  0
 14  6  1  0  0  0  0
 14 16  2  0  0  0  0
 16  1  1  0  0  0  0
 17  6  1  0  0  0  0
 17  8  1  0  0  0  0
 18 15  1  0  0  0  0
 19  7  1  0  0  0  0
 20 17  1  0  0  0  0
 22 21  1  0  0  0  0
 23 26  1  0  0  0  0
 23 25  1  0  0  0  0
 24 16  1  0  0  0  0
 24 27  1  0  0  0  0
 25 22  1  0  0  0  0
 26 24  2  0  0  0  0
 27 21  1  0  0  0  0
 28 27  1  0  0  0  0
 30 25  1  0  0  0  0
 30 29  1  0  0  0  0
 32 31  1  0  0  0  0
M  END
>  <MODEL>
8

>  <REMARK>
 VINA RESULT:      -5.5      3.728      7.850
  Name = 
  3 active torsions:
  status: ('A' for Active; 'I' for Inactive)
    1  A    between atoms: C_1  and  C_4
    2  A    between atoms: C_16  and  C_27
    3  A    between atoms: C_19  and  N_26
                            x       y       z     vdW  Elec       q    Type
                         _______ _______ _______ _____ _____    ______ ____

>  <TORSDO>
F 3

$$$$
=
 OpenBabel10272402053D

 32 36  0  0  1  0  0  0  0  0999 V2000
  185.6720  176.7960  137.2700 C   0  0  2  0  0  3  0  0  0  0  0  0
  184.7950  174.5140  136.3820 C   0  0  1  0  0  3  0  0  0  0  0  0
  185.9540  175.3090  137.0080 C   0  0  1  0  0  3  0  0  0  0  0  0
  184.6420  173.1790  137.1120 C   0  0  2  0  0  3  0  0  0  0  0  0
  180.8440  173.1030  134.5460 C   0  0  0  0  0  2  0  0  0  0  0  0
  183.4610  175.2890  136.3820 C   0  0  2  0  0  3  0  0  0  0  0  0
  181.2850  172.0330  136.4780 C   0  0  0  0  0  2  0  0  0  0  0  0
  182.4260  172.9860  136.8760 C   0  0  1  0  0  3  0  0  0  0  0  0
  185.9560  172.3960  137.2550 C   0  0  0  0  0  2  0  0  0  0  0  0
  187.3720  174.8710  136.5740 C   0  0  1  0  0  3  0  0  0  0  0  0
  183.6510  172.4120  136.4870 O   0  0  0  0  0  0  0  0  0  0  0  0
  187.3550  173.7540  135.5180 C   0  0  0  0  0  2  0  0  0  0  0  0
  188.1120  175.9500  136.0860 O   0  0  0  0  0  1  0  0  0  0  0  0
  183.3380  176.1570  137.5520 N   0  0  0  0  0  0  0  0  0  0  0  0
  187.9450  171.5480  136.2410 O   0  0  0  0  0  1  0  0  0  0  0  0
  184.3300  176.8960  137.9660 C   0  0  0  0  0  0  0  0  0  0  0  0
  182.2330  174.3820  136.2280 C   0  0  2  0  0  3  0  0  0  0  0  0
  186.8510  172.3800  136.0060 C   0  0  1  0  0  3  0  0  0  0  0  0
  180.2680  172.6960  135.7630 O   0  0  0  0  0  0  0  0  0  0  0  0
  181.8110  174.2760  134.7610 C   0  0  0  0  0  2  0  0  0  0  0  0
  185.9090  178.7880  140.6640 C   0  0  0  0  0  2  0  0  0  0  0  0
  185.1150  179.2280  141.8920 C   0  0  0  0  0  2  0  0  0  0  0  0
  182.8360  178.3690  141.2000 C   0  0  0  0  0  2  0  0  0  0  0  0
  184.1480  177.7770  139.1410 C   0  0  0  0  0  0  0  0  0  0  0  0
  183.9740  178.2620  142.2140 C   0  0  2  0  0  3  0  0  0  0  0  0
  183.1260  177.5510  139.9810 C   0  0  0  0  0  3  0  0  0  0  0  0
  185.1260  178.9050  139.3530 C   0  0  1  0  0  3  0  0  0  0  0  0
  184.4840  180.2050  139.2140 N   0  0  0  0  0  1  0  0  0  0  0  0
  184.3210  179.3990  144.3110 C   0  0  0  0  0  1  0  0  0  0  0  0
  183.4900  178.4420  143.5850 N   0  0  0  0  0  2  0  0  0  0  0  0
  185.6600  177.5940  135.9680 C   0  0  0  0  0  2  0  0  0  0  0  0
  186.7590  178.6390  135.9700 C   0  0  0  0  0  1  0  0  0  0  0  0
  1 31  1  6  0  0  0
  1 16  1  0  0  0  0
  2  6  1  0  0  0  0
  2  3  1  0  0  0  0
  2  4  1  0  0  0  0
  3  1  1  0  0  0  0
  4  9  1  0  0  0  0
  5 20  1  0  0  0  0
  5 19  1  0  0  0  0
  6 14  1  0  0  0  0
  7  8  1  0  0  0  0
 10  3  1  0  0  0  0
 11  8  1  0  0  0  0
 11  4  1  0  0  0  0
 12 18  1  0  0  0  0
 12 10  1  0  0  0  0
 13 10  1  0  0  0  0
 14 16  2  0  0  0  0
 16 24  1  0  0  0  0
 17  6  1  0  0  0  0
 17  8  1  0  0  0  0
 18 15  1  0  0  0  0
 18  9  1  0  0  0  0
 19  7  1  0  0  0  0
 20 17  1  0  0  0  0
 21 22  1  0  0  0  0
 22 25  1  0  0  0  0
 23 25  1  0  0  0  0
 24 27  1  0  0  0  0
 24 26  2  0  0  0  0
 25 30  1  0  0  0  0
 26 23  1  0  0  0  0
 27 21  1  0  0  0  0
 28 27  1  0  0  0  0
 30 29  1  0  0  0  0
 31 32  1  0  0  0  0
M  END
>  <MODEL>
9

>  <REMARK>
 VINA RESULT:      -5.4      4.819      6.424
  Name = 
  3 active torsions:
  status: ('A' for Active; 'I' for Inactive)
    1  A    between atoms: C_1  and  C_4
    2  A    between atoms: C_16  and  C_27
    3  A    between atoms: C_19  and  N_26
                            x       y       z     vdW  Elec       q    Type
                         _______ _______ _______ _____ _____    ______ ____

>  <TORSDO>
F 3

$$$$
