=
 OpenBabel10272401503D

 28 31  0  0  1  0  0  0  0  0999 V2000
  187.8830  177.5400  145.3290 C   0  0  0  0  0  0  0  0  0  0  0  0
  191.5430  176.5800  147.3770 C   0  0  0  0  0  1  0  0  0  0  0  0
  190.2460  177.0200  142.3600 C   0  0  2  0  0  3  0  0  0  0  0  0
  190.2870  177.0850  145.2380 C   0  0  0  0  0  0  0  0  0  0  0  0
  189.0350  177.6080  143.0810 C   0  0  0  0  0  2  0  0  0  0  0  0
  189.1150  177.0720  147.3650 C   0  0  0  0  0  3  0  0  0  0  0  0
  191.5540  176.8270  144.4570 C   0  0  0  0  0  2  0  0  0  0  0  0
  190.2940  176.9210  146.6370 C   0  0  0  0  0  0  0  0  0  0  0  0
  191.5270  177.4430  143.0650 C   0  0  0  0  0  2  0  0  0  0  0  0
  187.9210  177.3810  146.7190 C   0  0  0  0  0  3  0  0  0  0  0  0
  189.0670  177.3820  144.5740 C   0  0  0  0  0  0  0  0  0  0  0  0
  189.1650  177.9670  140.3710 C   0  0  0  0  0  3  0  0  0  0  0  0
  191.5750  176.8140  138.8680 C   0  0  0  0  0  3  0  0  0  0  0  0
  189.3000  177.3490  137.9940 C   0  0  0  0  0  0  0  0  0  0  0  0
  190.2580  177.4080  140.9110 C   0  0  0  0  0  0  0  0  0  0  0  0
  192.6830  177.2030  140.8460 F   0  0  0  0  0  0  0  0  0  0  0  0
  190.4450  176.6700  137.9300 C   0  0  0  0  0  3  0  0  0  0  0  0
  191.5150  177.1830  140.1550 C   0  0  0  0  0  0  0  0  0  0  0  0
  188.2440  177.0770  136.9850 C   0  0  0  0  0  1  0  0  0  0  0  0
  189.0950  178.4610  138.9670 C   0  0  0  0  0  2  0  0  0  0  0  0
  186.5950  177.8940  144.6960 C   0  0  0  0  0  0  0  0  0  0  0  0
  186.4510  177.7170  143.3130 C   0  0  0  0  0  3  0  0  0  0  0  0
  184.3210  178.7580  144.7930 C   0  0  0  0  0  0  0  0  0  0  0  0
  185.2560  178.0540  142.6740 C   0  0  0  0  0  3  0  0  0  0  0  0
  185.6340  178.6250  147.1910 Cl  0  0  0  0  0  0  0  0  0  0  0  0
  185.5190  178.4220  145.4430 C   0  0  0  0  0  0  0  0  0  0  0  0
  183.2480  179.2730  145.5100 O   0  0  0  0  0  1  0  0  0  0  0  0
  184.1940  178.5740  143.4140 C   0  0  0  0  0  3  0  0  0  0  0  0
  1 10  1  0  0  0  0
  3 15  1  6  0  0  0
  3  9  1  0  0  0  0
  3  5  1  0  0  0  0
  4  8  2  0  0  0  0
  5 11  1  0  0  0  0
  7  4  1  0  0  0  0
  8  6  1  0  0  0  0
  8  2  1  0  0  0  0
  9  7  1  0  0  0  0
 10  6  2  0  0  0  0
 11  4  1  0  0  0  0
 11  1  2  0  0  0  0
 12 15  2  0  0  0  0
 13 18  2  0  0  0  0
 14 20  1  0  0  0  0
 17 14  2  0  0  0  0
 17 13  1  0  0  0  0
 18 16  1  0  0  0  0
 18 15  1  0  0  0  0
 19 14  1  0  0  0  0
 20 12  1  0  0  0  0
 21  1  1  0  0  0  0
 21 26  1  0  0  0  0
 22 21  2  0  0  0  0
 23 26  2  0  0  0  0
 23 27  1  0  0  0  0
 24 22  1  0  0  0  0
 24 28  2  0  0  0  0
 26 25  1  0  0  0  0
 28 23  1  0  0  0  0
M  END
>  <MODEL>
1

>  <REMARK>
 VINA RESULT:     -12.3      0.000      0.000
  Name = 
  2 active torsions:
  status: ('A' for Active; 'I' for Inactive)
    1  A    between atoms: C_1  and  C_2
    2  A    between atoms: C_10  and  C_13
                            x       y       z     vdW  Elec       q    Type
                         _______ _______ _______ _____ _____    ______ ____

>  <TORSDO>
F 2

$$$$
=
 OpenBabel10272401503D

 28 31  0  0  1  0  0  0  0  0999 V2000
  187.7990  177.6580  145.3510 C   0  0  0  0  0  0  0  0  0  0  0  0
  183.6920  178.9150  145.0960 C   0  0  0  0  0  1  0  0  0  0  0  0
  187.5400  178.4940  141.6220 C   0  0  2  0  0  3  0  0  0  0  0  0
  185.8930  178.3510  143.9790 C   0  0  0  0  0  0  0  0  0  0  0  0
  188.0990  177.7680  142.8430 C   0  0  0  0  0  2  0  0  0  0  0  0
  185.6730  178.1860  146.3920 C   0  0  0  0  0  3  0  0  0  0  0  0
  185.2990  178.7550  142.6500 C   0  0  0  0  0  2  0  0  0  0  0  0
  185.1160  178.4740  145.1470 C   0  0  0  0  0  0  0  0  0  0  0  0
  186.0590  178.1790  141.4630 C   0  0  0  0  0  2  0  0  0  0  0  0
  187.0010  177.7800  146.4930 C   0  0  0  0  0  3  0  0  0  0  0  0
  187.2530  177.9540  144.0810 C   0  0  0  0  0  0  0  0  0  0  0  0
  187.7220  178.2580  139.1870 C   0  0  0  0  0  3  0  0  0  0  0  0
  190.3570  176.8220  139.8130 C   0  0  0  0  0  3  0  0  0  0  0  0
  188.9060  176.6130  137.7930 C   0  0  0  0  0  0  0  0  0  0  0  0
  188.3150  178.1510  140.3840 C   0  0  0  0  0  0  0  0  0  0  0  0
  190.4010  178.2250  141.6360 F   0  0  0  0  0  0  0  0  0  0  0  0
  189.8210  176.1220  138.6280 C   0  0  0  0  0  3  0  0  0  0  0  0
  189.7320  177.7450  140.5580 C   0  0  0  0  0  0  0  0  0  0  0  0
  188.4500  175.7770  136.6530 C   0  0  0  0  0  1  0  0  0  0  0  0
  188.4200  178.0190  137.8910 C   0  0  0  0  0  2  0  0  0  0  0  0
  189.1940  177.1960  145.5120 C   0  0  0  0  0  0  0  0  0  0  0  0
  189.8460  176.6220  144.4120 C   0  0  0  0  0  3  0  0  0  0  0  0
  191.1950  176.8340  146.8510 C   0  0  0  0  0  0  0  0  0  0  0  0
  191.1590  176.1600  144.5270 C   0  0  0  0  0  3  0  0  0  0  0  0
  189.1140  178.0530  148.1460 Cl  0  0  0  0  0  0  0  0  0  0  0  0
  189.8750  177.3020  146.7450 C   0  0  0  0  0  0  0  0  0  0  0  0
  191.8840  176.9340  148.0530 O   0  0  0  0  0  1  0  0  0  0  0  0
  191.8300  176.2660  145.7450 C   0  0  0  0  0  3  0  0  0  0  0  0
  1 21  1  0  0  0  0
  1 10  1  0  0  0  0
  2  8  1  0  0  0  0
  3 15  1  6  0  0  0
  3  5  1  0  0  0  0
  4 11  1  0  0  0  0
  4  8  2  0  0  0  0
  5 11  1  0  0  0  0
  6 10  2  0  0  0  0
  7  4  1  0  0  0  0
  8  6  1  0  0  0  0
  9  3  1  0  0  0  0
  9  7  1  0  0  0  0
 11  1  2  0  0  0  0
 12 15  2  0  0  0  0
 13 18  2  0  0  0  0
 14 20  1  0  0  0  0
 14 17  2  0  0  0  0
 15 18  1  0  0  0  0
 17 13  1  0  0  0  0
 18 16  1  0  0  0  0
 19 14  1  0  0  0  0
 20 12  1  0  0  0  0
 21 26  1  0  0  0  0
 22 24  1  0  0  0  0
 22 21  2  0  0  0  0
 23 27  1  0  0  0  0
 24 28  2  0  0  0  0
 26 23  2  0  0  0  0
 26 25  1  0  0  0  0
 28 23  1  0  0  0  0
M  END
>  <MODEL>
2

>  <REMARK>
 VINA RESULT:     -11.8      2.205      4.519
  Name = 
  2 active torsions:
  status: ('A' for Active; 'I' for Inactive)
    1  A    between atoms: C_1  and  C_2
    2  A    between atoms: C_10  and  C_13
                            x       y       z     vdW  Elec       q    Type
                         _______ _______ _______ _____ _____    ______ ____

>  <TORSDO>
F 2

$$$$
=
 OpenBabel10272401503D

 28 31  0  0  1  0  0  0  0  0999 V2000
  188.8160  177.4930  144.7690 C   0  0  0  0  0  0  0  0  0  0  0  0
  187.8170  177.6470  148.9520 C   0  0  0  0  0  1  0  0  0  0  0  0
  185.3030  179.0130  144.6090 C   0  0  2  0  0  3  0  0  0  0  0  0
  187.1650  177.9380  146.5230 C   0  0  0  0  0  0  0  0  0  0  0  0
  186.4930  178.2160  144.0810 C   0  0  0  0  0  2  0  0  0  0  0  0
  189.4070  177.2050  147.1040 C   0  0  0  0  0  3  0  0  0  0  0  0
  185.8140  178.4470  146.9680 C   0  0  0  0  0  2  0  0  0  0  0  0
  188.1270  177.5980  147.4940 C   0  0  0  0  0  0  0  0  0  0  0  0
  184.7600  178.3610  145.8730 C   0  0  0  0  0  2  0  0  0  0  0  0
  189.7480  177.1520  145.7550 C   0  0  0  0  0  3  0  0  0  0  0  0
  187.5150  177.9010  145.1470 C   0  0  0  0  0  0  0  0  0  0  0  0
  182.9560  179.2460  143.9350 C   0  0  0  0  0  3  0  0  0  0  0  0
  184.0160  178.7310  141.1060 C   0  0  0  0  0  3  0  0  0  0  0  0
  181.7180  178.3570  142.0040 C   0  0  0  0  0  0  0  0  0  0  0  0
  184.2400  179.1620  143.5610 C   0  0  0  0  0  0  0  0  0  0  0  0
  185.9190  179.7520  141.9000 F   0  0  0  0  0  0  0  0  0  0  0  0
  182.6880  178.0870  141.1310 C   0  0  0  0  0  3  0  0  0  0  0  0
  184.6830  179.2490  142.1480 C   0  0  0  0  0  0  0  0  0  0  0  0
  180.4390  177.6070  141.9140 C   0  0  0  0  0  1  0  0  0  0  0  0
  181.8280  179.4730  142.9870 C   0  0  0  0  0  2  0  0  0  0  0  0
  189.2200  177.3930  143.3510 C   0  0  0  0  0  0  0  0  0  0  0  0
  188.2480  177.0730  142.3930 C   0  0  0  0  0  3  0  0  0  0  0  0
  190.8960  177.4670  141.5860 C   0  0  0  0  0  0  0  0  0  0  0  0
  188.5930  176.9540  141.0450 C   0  0  0  0  0  3  0  0  0  0  0  0
  191.8090  178.0330  144.1040 Cl  0  0  0  0  0  0  0  0  0  0  0  0
  190.5580  177.5900  142.9440 C   0  0  0  0  0  0  0  0  0  0  0  0
  192.2040  177.6630  141.1640 O   0  0  0  0  0  1  0  0  0  0  0  0
  189.9150  177.1500  140.6440 C   0  0  0  0  0  3  0  0  0  0  0  0
  1 11  2  0  0  0  0
  1 10  1  0  0  0  0
  3 15  1  6  0  0  0
  3  9  1  0  0  0  0
  4  7  1  0  0  0  0
  4  8  2  0  0  0  0
  5  3  1  0  0  0  0
  5 11  1  0  0  0  0
  6  8  1  0  0  0  0
  8  2  1  0  0  0  0
  9  7  1  0  0  0  0
 10  6  2  0  0  0  0
 11  4  1  0  0  0  0
 13 17  1  0  0  0  0
 13 18  2  0  0  0  0
 14 20  1  0  0  0  0
 15 12  2  0  0  0  0
 16 18  1  0  0  0  0
 17 14  2  0  0  0  0
 18 15  1  0  0  0  0
 19 14  1  0  0  0  0
 20 12  1  0  0  0  0
 21  1  1  0  0  0  0
 22 21  2  0  0  0  0
 23 26  2  0  0  0  0
 24 22  1  0  0  0  0
 26 21  1  0  0  0  0
 26 25  1  0  0  0  0
 27 23  1  0  0  0  0
 28 24  2  0  0  0  0
 28 23  1  0  0  0  0
M  END
>  <MODEL>
3

>  <REMARK>
 VINA RESULT:     -11.7      3.101      6.169
  Name = 
  2 active torsions:
  status: ('A' for Active; 'I' for Inactive)
    1  A    between atoms: C_1  and  C_2
    2  A    between atoms: C_10  and  C_13
                            x       y       z     vdW  Elec       q    Type
                         _______ _______ _______ _____ _____    ______ ____

>  <TORSDO>
F 2

$$$$
=
 OpenBabel10272401503D

 28 31  0  0  1  0  0  0  0  0999 V2000
  185.8140  178.2430  144.8510 C   0  0  0  0  0  0  0  0  0  0  0  0
  182.0330  179.1940  143.0300 C   0  0  0  0  0  1  0  0  0  0  0  0
  186.8860  178.7660  141.2110 C   0  0  2  0  0  3  0  0  0  0  0  0
  184.5070  178.6950  142.8300 C   0  0  0  0  0  0  0  0  0  0  0  0
  186.9930  178.1770  142.6160 C   0  0  0  0  0  2  0  0  0  0  0  0
  183.4380  178.7050  145.0110 C   0  0  0  0  0  3  0  0  0  0  0  0
  184.4180  178.9540  141.3440 C   0  0  0  0  0  2  0  0  0  0  0  0
  183.3570  178.8570  143.6280 C   0  0  0  0  0  0  0  0  0  0  0  0
  185.5740  178.3400  140.5670 C   0  0  0  0  0  2  0  0  0  0  0  0
  184.6530  178.3990  145.6170 C   0  0  0  0  0  3  0  0  0  0  0  0
  185.7510  178.4010  143.4470 C   0  0  0  0  0  0  0  0  0  0  0  0
  187.9460  178.3650  139.0350 C   0  0  0  0  0  3  0  0  0  0  0  0
  190.2150  177.1370  140.6890 C   0  0  0  0  0  3  0  0  0  0  0  0
  189.6020  176.6970  138.3110 C   0  0  0  0  0  0  0  0  0  0  0  0
  188.0670  178.3810  140.3690 C   0  0  0  0  0  0  0  0  0  0  0  0
  189.5550  178.6680  142.2750 F   0  0  0  0  0  0  0  0  0  0  0  0
  190.1660  176.3230  139.4590 C   0  0  0  0  0  3  0  0  0  0  0  0
  189.3360  178.0730  141.0750 C   0  0  0  0  0  0  0  0  0  0  0  0
  189.6150  175.7550  137.1620 C   0  0  0  0  0  1  0  0  0  0  0  0
  189.0730  178.0760  138.1030 C   0  0  0  0  0  2  0  0  0  0  0  0
  187.0720  177.8910  145.5410 C   0  0  0  0  0  0  0  0  0  0  0  0
  188.0480  177.1670  144.8410 C   0  0  0  0  0  3  0  0  0  0  0  0
  188.5120  177.8750  147.5050 C   0  0  0  0  0  0  0  0  0  0  0  0
  189.2430  176.8030  145.4620 C   0  0  0  0  0  3  0  0  0  0  0  0
  186.1300  179.1910  147.8000 Cl  0  0  0  0  0  0  0  0  0  0  0  0
  187.3060  178.2470  146.8880 C   0  0  0  0  0  0  0  0  0  0  0  0
  188.7650  178.2210  148.8260 O   0  0  0  0  0  1  0  0  0  0  0  0
  189.4730  177.1560  146.7920 C   0  0  0  0  0  3  0  0  0  0  0  0
  1 21  1  0  0  0  0
  1 10  1  0  0  0  0
  2  8  1  0  0  0  0
  3 15  1  6  0  0  0
  3  5  1  0  0  0  0
  4 11  1  0  0  0  0
  4  8  2  0  0  0  0
  5 11  1  0  0  0  0
  6 10  2  0  0  0  0
  7  4  1  0  0  0  0
  8  6  1  0  0  0  0
  9  3  1  0  0  0  0
  9  7  1  0  0  0  0
 11  1  2  0  0  0  0
 12 15  2  0  0  0  0
 13 18  2  0  0  0  0
 14 17  2  0  0  0  0
 15 18  1  0  0  0  0
 17 13  1  0  0  0  0
 18 16  1  0  0  0  0
 19 14  1  0  0  0  0
 20 14  1  0  0  0  0
 20 12  1  0  0  0  0
 21 26  1  0  0  0  0
 22 24  1  0  0  0  0
 22 21  2  0  0  0  0
 23 27  1  0  0  0  0
 24 28  2  0  0  0  0
 26 23  2  0  0  0  0
 26 25  1  0  0  0  0
 28 23  1  0  0  0  0
M  END
>  <MODEL>
4

>  <REMARK>
 VINA RESULT:     -11.2      1.921      4.662
  Name = 
  2 active torsions:
  status: ('A' for Active; 'I' for Inactive)
    1  A    between atoms: C_1  and  C_2
    2  A    between atoms: C_10  and  C_13
                            x       y       z     vdW  Elec       q    Type
                         _______ _______ _______ _____ _____    ______ ____

>  <TORSDO>
F 2

$$$$
=
 OpenBabel10272401503D

 28 31  0  0  1  0  0  0  0  0999 V2000
  184.9810  178.5110  141.4200 C   0  0  0  0  0  0  0  0  0  0  0  0
  181.3690  178.9280  143.7200 C   0  0  0  0  0  1  0  0  0  0  0  0
  186.3130  177.8900  144.9570 C   0  0  2  0  0  3  0  0  0  0  0  0
  183.8790  178.6210  143.6040 C   0  0  0  0  0  0  0  0  0  0  0  0
  186.4090  178.3290  143.4980 C   0  0  0  0  0  2  0  0  0  0  0  0
  182.5800  178.8240  141.5620 C   0  0  0  0  0  3  0  0  0  0  0  0
  183.9130  178.4940  145.1090 C   0  0  0  0  0  2  0  0  0  0  0  0
  182.6410  178.7880  142.9540 C   0  0  0  0  0  0  0  0  0  0  0  0
  185.2950  178.7510  145.6930 C   0  0  0  0  0  2  0  0  0  0  0  0
  183.7390  178.6880  140.8020 C   0  0  0  0  0  3  0  0  0  0  0  0
  185.0600  178.4650  142.8310 C   0  0  0  0  0  0  0  0  0  0  0  0
  188.7620  178.0140  144.8740 C   0  0  0  0  0  3  0  0  0  0  0  0
  188.6120  177.2880  147.8480 C   0  0  0  0  0  3  0  0  0  0  0  0
  190.4960  176.9390  146.2480 C   0  0  0  0  0  0  0  0  0  0  0  0
  187.6560  177.9270  145.6250 C   0  0  0  0  0  0  0  0  0  0  0  0
  186.6080  178.4140  147.7680 F   0  0  0  0  0  0  0  0  0  0  0  0
  189.8340  176.6190  147.3600 C   0  0  0  0  0  3  0  0  0  0  0  0
  187.6790  177.9060  147.1090 C   0  0  0  0  0  0  0  0  0  0  0  0
  191.7030  176.1570  145.8780 C   0  0  0  0  0  1  0  0  0  0  0  0
  190.1380  178.1360  145.4340 C   0  0  0  0  0  2  0  0  0  0  0  0
  186.1830  178.4000  140.5670 C   0  0  0  0  0  0  0  0  0  0  0  0
  187.4470  178.4980  141.1660 C   0  0  0  0  0  3  0  0  0  0  0  0
  187.2610  178.1360  138.4000 C   0  0  0  0  0  0  0  0  0  0  0  0
  188.6070  178.4140  140.3930 C   0  0  0  0  0  3  0  0  0  0  0  0
  184.5260  178.0500  138.3740 Cl  0  0  0  0  0  0  0  0  0  0  0  0
  186.0890  178.2200  139.1690 C   0  0  0  0  0  0  0  0  0  0  0  0
  187.1910  177.9520  137.0250 O   0  0  0  0  0  1  0  0  0  0  0  0
  188.5130  178.2340  139.0130 C   0  0  0  0  0  3  0  0  0  0  0  0
  1 11  1  0  0  0  0
  3 15  1  1  0  0  0
  3  9  1  0  0  0  0
  4  7  1  0  0  0  0
  5  3  1  0  0  0  0
  6  8  2  0  0  0  0
  7  9  1  0  0  0  0
  8  4  1  0  0  0  0
  8  2  1  0  0  0  0
 10  1  2  0  0  0  0
 10  6  1  0  0  0  0
 11  5  1  0  0  0  0
 11  4  2  0  0  0  0
 12 20  1  0  0  0  0
 12 15  2  0  0  0  0
 14 17  2  0  0  0  0
 15 18  1  0  0  0  0
 17 13  1  0  0  0  0
 18 16  1  0  0  0  0
 18 13  2  0  0  0  0
 19 14  1  0  0  0  0
 20 14  1  0  0  0  0
 21 22  1  0  0  0  0
 21  1  1  0  0  0  0
 23 28  2  0  0  0  0
 23 26  1  0  0  0  0
 24 22  2  0  0  0  0
 25 26  1  0  0  0  0
 26 21  2  0  0  0  0
 27 23  1  0  0  0  0
 28 24  1  0  0  0  0
M  END
>  <MODEL>
5

>  <REMARK>
 VINA RESULT:     -11.1      3.405      7.275
  Name = 
  2 active torsions:
  status: ('A' for Active; 'I' for Inactive)
    1  A    between atoms: C_1  and  C_2
    2  A    between atoms: C_10  and  C_13
                            x       y       z     vdW  Elec       q    Type
                         _______ _______ _______ _____ _____    ______ ____

>  <TORSDO>
F 2

$$$$
=
 OpenBabel10272401503D

 28 31  0  0  1  0  0  0  0  0999 V2000
  188.2940  177.8520  143.7070 C   0  0  0  0  0  0  0  0  0  0  0  0
  187.4850  178.1430  147.9230 C   0  0  0  0  0  1  0  0  0  0  0  0
  184.5540  178.6790  143.6600 C   0  0  2  0  0  3  0  0  0  0  0  0
  186.6740  178.1180  145.5250 C   0  0  0  0  0  0  0  0  0  0  0  0
  185.8460  178.0760  143.1150 C   0  0  0  0  0  2  0  0  0  0  0  0
  189.0390  177.8610  146.0150 C   0  0  0  0  0  3  0  0  0  0  0  0
  185.2740  178.4020  146.0160 C   0  0  0  0  0  2  0  0  0  0  0  0
  187.7290  178.0380  146.4550 C   0  0  0  0  0  0  0  0  0  0  0  0
  184.2040  178.0370  144.9960 C   0  0  0  0  0  2  0  0  0  0  0  0
  189.3190  177.7670  144.6550 C   0  0  0  0  0  3  0  0  0  0  0  0
  186.9590  178.0400  144.1360 C   0  0  0  0  0  0  0  0  0  0  0  0
  183.7020  178.1370  141.4240 C   0  0  0  0  0  3  0  0  0  0  0  0
  181.1020  179.4220  142.4190 C   0  0  0  0  0  3  0  0  0  0  0  0
  181.9110  179.1480  140.0740 C   0  0  0  0  0  0  0  0  0  0  0  0
  183.4330  178.5460  142.6720 C   0  0  0  0  0  0  0  0  0  0  0  0
  181.7960  178.6490  144.4720 F   0  0  0  0  0  0  0  0  0  0  0  0
  181.1710  179.7760  140.9880 C   0  0  0  0  0  3  0  0  0  0  0  0
  182.0600  178.8400  143.1550 C   0  0  0  0  0  0  0  0  0  0  0  0
  181.8900  179.6360  138.6710 C   0  0  0  0  0  1  0  0  0  0  0  0
  182.6580  177.8960  140.3880 C   0  0  0  0  0  2  0  0  0  0  0  0
  188.6420  177.7180  142.2770 C   0  0  0  0  0  0  0  0  0  0  0  0
  187.9750  178.5210  141.3410 C   0  0  0  0  0  3  0  0  0  0  0  0
  189.8960  176.6920  140.4600 C   0  0  0  0  0  0  0  0  0  0  0  0
  188.2640  178.4140  139.9800 C   0  0  0  0  0  3  0  0  0  0  0  0
  190.5080  175.7900  142.9710 Cl  0  0  0  0  0  0  0  0  0  0  0  0
  189.6120  176.7920  141.8310 C   0  0  0  0  0  0  0  0  0  0  0  0
  190.8500  175.7920  140.0010 O   0  0  0  0  0  1  0  0  0  0  0  0
  189.2230  177.5000  139.5410 C   0  0  0  0  0  3  0  0  0  0  0  0
  1 11  2  0  0  0  0
  1 10  1  0  0  0  0
  3 15  1  6  0  0  0
  3  9  1  0  0  0  0
  4  7  1  0  0  0  0
  4  8  2  0  0  0  0
  5  3  1  0  0  0  0
  5 11  1  0  0  0  0
  6  8  1  0  0  0  0
  8  2  1  0  0  0  0
  9  7  1  0  0  0  0
 10  6  2  0  0  0  0
 11  4  1  0  0  0  0
 12 15  2  0  0  0  0
 13 18  2  0  0  0  0
 14 20  1  0  0  0  0
 14 17  2  0  0  0  0
 15 18  1  0  0  0  0
 17 13  1  0  0  0  0
 18 16  1  0  0  0  0
 19 14  1  0  0  0  0
 20 12  1  0  0  0  0
 21  1  1  0  0  0  0
 22 21  2  0  0  0  0
 23 26  2  0  0  0  0
 24 22  1  0  0  0  0
 26 21  1  0  0  0  0
 26 25  1  0  0  0  0
 27 23  1  0  0  0  0
 28 24  2  0  0  0  0
 28 23  1  0  0  0  0
M  END
>  <MODEL>
6

>  <REMARK>
 VINA RESULT:     -11.0      3.754      6.615
  Name = 
  2 active torsions:
  status: ('A' for Active; 'I' for Inactive)
    1  A    between atoms: C_1  and  C_2
    2  A    between atoms: C_10  and  C_13
                            x       y       z     vdW  Elec       q    Type
                         _______ _______ _______ _____ _____    ______ ____

>  <TORSDO>
F 2

$$$$
=
 OpenBabel10272401503D

 28 31  0  0  1  0  0  0  0  0999 V2000
  185.7620  178.0920  144.2030 C   0  0  0  0  0  0  0  0  0  0  0  0
  188.6520  177.5820  147.3500 C   0  0  0  0  0  1  0  0  0  0  0  0
  188.9240  177.3880  142.1600 C   0  0  2  0  0  3  0  0  0  0  0  0
  188.0910  177.7720  144.8880 C   0  0  0  0  0  0  0  0  0  0  0  0
  187.5390  177.9800  142.4090 C   0  0  0  0  0  2  0  0  0  0  0  0
  186.3310  177.9260  146.5550 C   0  0  0  0  0  3  0  0  0  0  0  0
  189.5410  177.5050  144.5580 C   0  0  0  0  0  2  0  0  0  0  0  0
  187.6780  177.7640  146.2350 C   0  0  0  0  0  0  0  0  0  0  0  0
  189.9220  177.9610  143.1570 C   0  0  0  0  0  2  0  0  0  0  0  0
  185.3820  178.0900  145.5500 C   0  0  0  0  0  3  0  0  0  0  0  0
  187.1230  177.9220  143.8600 C   0  0  0  0  0  0  0  0  0  0  0  0
  188.6050  178.3590  139.9290 C   0  0  0  0  0  3  0  0  0  0  0  0
  190.9160  176.5190  139.1130 C   0  0  0  0  0  3  0  0  0  0  0  0
  189.1150  177.4900  137.6850 C   0  0  0  0  0  0  0  0  0  0  0  0
  189.3650  177.6130  140.7430 C   0  0  0  0  0  0  0  0  0  0  0  0
  191.6050  176.8310  141.2860 F   0  0  0  0  0  0  0  0  0  0  0  0
  190.0310  176.5550  137.9320 C   0  0  0  0  0  3  0  0  0  0  0  0
  190.6610  177.0200  140.3300 C   0  0  0  0  0  0  0  0  0  0  0  0
  188.2830  177.3780  136.4590 C   0  0  0  0  0  1  0  0  0  0  0  0
  188.9850  178.7110  138.5320 C   0  0  0  0  0  2  0  0  0  0  0  0
  184.7180  178.2980  143.1770 C   0  0  0  0  0  0  0  0  0  0  0  0
  185.0340  178.0480  141.8340 C   0  0  0  0  0  3  0  0  0  0  0  0
  182.4730  178.9510  142.4990 C   0  0  0  0  0  0  0  0  0  0  0  0
  184.0810  178.2450  140.8330 C   0  0  0  0  0  3  0  0  0  0  0  0
  182.9660  179.0450  145.1900 Cl  0  0  0  0  0  0  0  0  0  0  0  0
  183.4250  178.7560  143.5130 C   0  0  0  0  0  0  0  0  0  0  0  0
  181.1940  179.3950  142.8080 O   0  0  0  0  0  1  0  0  0  0  0  0
  182.8040  178.6960  141.1660 C   0  0  0  0  0  3  0  0  0  0  0  0
  1 10  1  0  0  0  0
  3 15  1  6  0  0  0
  3  5  1  0  0  0  0
  3  9  1  0  0  0  0
  4  8  2  0  0  0  0
  5 11  1  0  0  0  0
  7  4  1  0  0  0  0
  8  6  1  0  0  0  0
  8  2  1  0  0  0  0
  9  7  1  0  0  0  0
 10  6  2  0  0  0  0
 11  1  2  0  0  0  0
 11  4  1  0  0  0  0
 12 15  2  0  0  0  0
 13 18  2  0  0  0  0
 14 17  2  0  0  0  0
 14 20  1  0  0  0  0
 17 13  1  0  0  0  0
 18 15  1  0  0  0  0
 18 16  1  0  0  0  0
 19 14  1  0  0  0  0
 20 12  1  0  0  0  0
 21 26  1  0  0  0  0
 21  1  1  0  0  0  0
 22 21  2  0  0  0  0
 23 27  1  0  0  0  0
 23 26  2  0  0  0  0
 24 28  2  0  0  0  0
 24 22  1  0  0  0  0
 26 25  1  0  0  0  0
 28 23  1  0  0  0  0
M  END
>  <MODEL>
7

>  <REMARK>
 VINA RESULT:     -11.0      1.442      2.154
  Name = 
  2 active torsions:
  status: ('A' for Active; 'I' for Inactive)
    1  A    between atoms: C_1  and  C_2
    2  A    between atoms: C_10  and  C_13
                            x       y       z     vdW  Elec       q    Type
                         _______ _______ _______ _____ _____    ______ ____

>  <TORSDO>
F 2

$$$$
=
 OpenBabel10272401503D

 28 31  0  0  1  0  0  0  0  0999 V2000
  182.6990  178.3230  140.7900 C   0  0  0  0  0  0  0  0  0  0  0  0
  180.1370  179.4750  144.0490 C   0  0  0  0  0  1  0  0  0  0  0  0
  185.1290  178.0510  143.7390 C   0  0  2  0  0  3  0  0  0  0  0  0
  182.4280  178.8640  143.1630 C   0  0  0  0  0  0  0  0  0  0  0  0
  184.7420  178.2670  142.2780 C   0  0  0  0  0  2  0  0  0  0  0  0
  180.5190  178.9310  141.6630 C   0  0  0  0  0  3  0  0  0  0  0  0
  182.9720  178.9450  144.5700 C   0  0  0  0  0  2  0  0  0  0  0  0
  181.0550  179.0820  142.9410 C   0  0  0  0  0  0  0  0  0  0  0  0
  184.4840  179.1180  144.6110 C   0  0  0  0  0  2  0  0  0  0  0  0
  181.3330  178.5560  140.5970 C   0  0  0  0  0  3  0  0  0  0  0  0
  183.2580  178.4660  142.0810 C   0  0  0  0  0  0  0  0  0  0  0  0
  187.4040  177.9630  142.8230 C   0  0  0  0  0  3  0  0  0  0  0  0
  188.2450  177.4690  145.7290 C   0  0  0  0  0  3  0  0  0  0  0  0
  189.4430  176.8490  143.6300 C   0  0  0  0  0  0  0  0  0  0  0  0
  186.6190  178.0230  143.9080 C   0  0  0  0  0  0  0  0  0  0  0  0
  186.3980  178.7500  146.2210 F   0  0  0  0  0  0  0  0  0  0  0  0
  189.1870  176.6670  144.9250 C   0  0  0  0  0  3  0  0  0  0  0  0
  187.1500  178.1080  145.2920 C   0  0  0  0  0  0  0  0  0  0  0  0
  190.4060  175.9440  142.9520 C   0  0  0  0  0  1  0  0  0  0  0  0
  188.8930  178.0100  142.8720 C   0  0  0  0  0  2  0  0  0  0  0  0
  183.5240  177.9550  139.6200 C   0  0  0  0  0  0  0  0  0  0  0  0
  184.5170  178.8460  139.1870 C   0  0  0  0  0  3  0  0  0  0  0  0
  184.1220  176.4480  137.8030 C   0  0  0  0  0  0  0  0  0  0  0  0
  185.3060  178.5420  138.0760 C   0  0  0  0  0  3  0  0  0  0  0  0
  182.1170  175.5740  139.4480 Cl  0  0  0  0  0  0  0  0  0  0  0  0
  183.3230  176.7450  138.9190 C   0  0  0  0  0  0  0  0  0  0  0  0
  183.9460  175.2610  137.1050 O   0  0  0  0  0  1  0  0  0  0  0  0
  185.1080  177.3460  137.3860 C   0  0  0  0  0  3  0  0  0  0  0  0
  1 11  1  0  0  0  0
  3 15  1  6  0  0  0
  3  9  1  0  0  0  0
  4  7  1  0  0  0  0
  5  3  1  0  0  0  0
  6  8  2  0  0  0  0
  7  9  1  0  0  0  0
  8  4  1  0  0  0  0
  8  2  1  0  0  0  0
 10  1  2  0  0  0  0
 10  6  1  0  0  0  0
 11  5  1  0  0  0  0
 11  4  2  0  0  0  0
 12 20  1  0  0  0  0
 12 15  2  0  0  0  0
 14 17  2  0  0  0  0
 15 18  1  0  0  0  0
 17 13  1  0  0  0  0
 18 13  2  0  0  0  0
 18 16  1  0  0  0  0
 19 14  1  0  0  0  0
 20 14  1  0  0  0  0
 21  1  1  0  0  0  0
 22 21  1  0  0  0  0
 23 26  1  0  0  0  0
 24 22  2  0  0  0  0
 26 25  1  0  0  0  0
 26 21  2  0  0  0  0
 27 23  1  0  0  0  0
 28 23  2  0  0  0  0
 28 24  1  0  0  0  0
M  END
>  <MODEL>
8

>  <REMARK>
 VINA RESULT:     -10.9      3.830      7.375
  Name = 
  2 active torsions:
  status: ('A' for Active; 'I' for Inactive)
    1  A    between atoms: C_1  and  C_2
    2  A    between atoms: C_10  and  C_13
                            x       y       z     vdW  Elec       q    Type
                         _______ _______ _______ _____ _____    ______ ____

>  <TORSDO>
F 2

$$$$
=
 OpenBabel10272401503D

 28 31  0  0  1  0  0  0  0  0999 V2000
  187.9600  177.7050  145.6980 C   0  0  0  0  0  0  0  0  0  0  0  0
  183.8790  179.0380  145.4100 C   0  0  0  0  0  1  0  0  0  0  0  0
  187.6160  178.1320  141.9070 C   0  0  2  0  0  3  0  0  0  0  0  0
  186.0330  178.2940  144.3070 C   0  0  0  0  0  0  0  0  0  0  0  0
  188.1910  177.5300  143.1870 C   0  0  0  0  0  2  0  0  0  0  0  0
  185.8780  178.4020  146.7280 C   0  0  0  0  0  3  0  0  0  0  0  0
  185.4120  178.5660  142.9570 C   0  0  0  0  0  2  0  0  0  0  0  0
  185.2930  178.5670  145.4740 C   0  0  0  0  0  0  0  0  0  0  0  0
  186.1230  177.8420  141.8220 C   0  0  0  0  0  2  0  0  0  0  0  0
  187.1980  177.9740  146.8400 C   0  0  0  0  0  3  0  0  0  0  0  0
  187.3850  177.8740  144.4180 C   0  0  0  0  0  0  0  0  0  0  0  0
  189.3690  176.7810  140.8490 C   0  0  0  0  0  3  0  0  0  0  0  0
  188.6480  178.3500  138.3170 C   0  0  0  0  0  3  0  0  0  0  0  0
  190.7900  177.2030  138.8860 C   0  0  0  0  0  0  0  0  0  0  0  0
  188.3470  177.6340  140.6960 C   0  0  0  0  0  0  0  0  0  0  0  0
  186.5480  178.4160  139.2540 F   0  0  0  0  0  0  0  0  0  0  0  0
  190.1040  178.1320  138.2200 C   0  0  0  0  0  3  0  0  0  0  0  0
  187.8600  178.0910  139.3700 C   0  0  0  0  0  0  0  0  0  0  0  0
  192.2610  177.1200  138.6980 C   0  0  0  0  0  1  0  0  0  0  0  0
  190.1120  176.1640  139.7140 C   0  0  0  0  0  2  0  0  0  0  0  0
  189.3480  177.2260  145.8740 C   0  0  0  0  0  0  0  0  0  0  0  0
  190.0080  176.6520  144.7780 C   0  0  0  0  0  3  0  0  0  0  0  0
  191.3260  176.8300  147.2360 C   0  0  0  0  0  0  0  0  0  0  0  0
  191.3130  176.1740  144.9060 C   0  0  0  0  0  3  0  0  0  0  0  0
  189.2430  178.0640  148.5130 Cl  0  0  0  0  0  0  0  0  0  0  0  0
  190.0130  177.3140  147.1160 C   0  0  0  0  0  0  0  0  0  0  0  0
  192.0010  176.9120  148.4470 O   0  0  0  0  0  1  0  0  0  0  0  0
  191.9690  176.2620  146.1340 C   0  0  0  0  0  3  0  0  0  0  0  0
  1 21  1  0  0  0  0
  1 10  1  0  0  0  0
  2  8  1  0  0  0  0
  3 15  1  6  0  0  0
  3  5  1  0  0  0  0
  4 11  1  0  0  0  0
  4  8  2  0  0  0  0
  5 11  1  0  0  0  0
  6 10  2  0  0  0  0
  7  4  1  0  0  0  0
  8  6  1  0  0  0  0
  9  3  1  0  0  0  0
  9  7  1  0  0  0  0
 11  1  2  0  0  0  0
 13 18  2  0  0  0  0
 14 20  1  0  0  0  0
 15 12  2  0  0  0  0
 16 18  1  0  0  0  0
 17 13  1  0  0  0  0
 17 14  2  0  0  0  0
 18 15  1  0  0  0  0
 19 14  1  0  0  0  0
 20 12  1  0  0  0  0
 21 26  1  0  0  0  0
 22 24  1  0  0  0  0
 22 21  2  0  0  0  0
 23 27  1  0  0  0  0
 24 28  2  0  0  0  0
 26 23  2  0  0  0  0
 26 25  1  0  0  0  0
 28 23  1  0  0  0  0
M  END
>  <MODEL>
9

>  <REMARK>
 VINA RESULT:     -10.5      2.522      4.837
  Name = 
  2 active torsions:
  status: ('A' for Active; 'I' for Inactive)
    1  A    between atoms: C_1  and  C_2
    2  A    between atoms: C_10  and  C_13
                            x       y       z     vdW  Elec       q    Type
                         _______ _______ _______ _____ _____    ______ ____

>  <TORSDO>
F 2

$$$$
