=
 OpenBabel10272414063D

 43 48  0  0  1  0  0  0  0  0999 V2000
  191.6830  176.2450  147.2650 C   0  0  0  0  0  0  0  0  0  0  0  0
  187.2870  177.8070  145.3180 C   0  0  0  0  0  0  0  0  0  0  0  0
  187.6840  178.0230  142.5200 C   0  0  0  0  0  0  0  0  0  0  0  0
  189.4100  176.9700  146.9670 C   0  0  0  0  0  0  0  0  0  0  0  0
  191.9730  176.3330  145.9650 C   0  0  0  0  0  3  0  0  0  0  0  0
  192.7260  175.7950  148.2220 C   0  0  0  0  0  1  0  0  0  0  0  0
  189.6080  177.0940  145.5730 C   0  0  0  0  0  0  0  0  0  0  0  0
  190.3730  176.5780  147.7470 N   0  0  0  0  0  0  0  0  0  0  0  0
  190.9510  176.7840  144.9580 C   0  0  0  0  0  2  0  0  0  0  0  0
  188.7300  177.6280  143.3670 O   0  0  0  0  0  0  0  0  0  0  0  0
  188.5460  177.5080  144.7540 C   0  0  0  0  0  0  0  0  0  0  0  0
  187.1100  177.6860  146.7060 C   0  0  0  0  0  3  0  0  0  0  0  0
  186.2770  178.2020  144.5110 C   0  0  0  0  0  0  0  0  0  0  0  0
  186.4890  178.3070  143.0530 C   0  0  0  0  0  3  0  0  0  0  0  0
  188.1630  177.2690  147.5210 C   0  0  0  0  0  3  0  0  0  0  0  0
  187.9060  178.1130  141.1010 N   0  0  0  0  0  0  0  0  0  0  0  0
  186.7980  178.3990  140.1930 C   0  0  0  0  0  1  0  0  0  0  0  0
  189.2680  178.1290  140.5690 C   0  0  2  0  0  3  0  0  0  0  0  0
  189.4350  177.0490  139.5120 C   0  0  2  0  0  3  0  0  0  0  0  0
  189.9840  176.8320  140.9010 C   0  0  0  0  0  2  0  0  0  0  0  0
  190.5610  177.4500  138.5780 C   0  0  0  0  0  2  0  0  0  0  0  0
  191.3850  176.2310  138.1970 C   0  0  2  0  0  3  0  0  0  0  0  0
  192.5640  175.2380  136.0230 S   0  0  0  0  0  0  0  0  0  0  0  0
  192.7990  176.5570  138.2070 N   0  0  0  0  0  2  0  0  0  0  0  0
  191.0260  175.7890  136.7990 C   0  0  1  0  0  3  0  0  0  0  0  0
  193.4530  175.5180  137.5260 N   0  0  0  0  0  2  0  0  0  0  0  0
  188.6930  174.8800  136.3070 N   0  0  0  0  0  0  0  0  0  0  0  0
  190.0150  174.6820  136.8340 C   0  0  0  0  0  0  0  0  0  0  0  0
  187.6790  173.8530  136.4840 C   0  0  0  0  0  1  0  0  0  0  0  0
  190.3280  173.5730  137.3470 O   0  0  0  0  0  0  0  0  0  0  0  0
  188.2870  176.1440  135.7040 C   0  0  0  0  0  2  0  0  0  0  0  0
  187.2980  176.8840  136.5980 C   0  0  0  0  0  2  0  0  0  0  0  0
  187.9320  179.1560  136.9960 O   0  0  0  0  0  1  0  0  0  0  0  0
  187.1510  178.3380  136.1760 C   0  0  0  0  0  2  0  0  0  0  0  0
  184.9290  178.5770  145.0540 C   0  0  0  0  0  2  0  0  0  0  0  0
  181.6590  179.1020  143.2090 C   0  0  0  0  0  3  0  0  0  0  0  0
  182.0060  178.7220  141.9070 C   0  0  0  0  0  0  0  0  0  0  0  0
  184.2730  178.2730  142.6520 C   0  0  0  0  0  3  0  0  0  0  0  0
  182.6140  179.0640  144.2300 C   0  0  0  0  0  3  0  0  0  0  0  0
  183.9230  178.6540  143.9530 C   0  0  0  0  0  0  0  0  0  0  0  0
  183.3190  178.3100  141.6320 C   0  0  0  0  0  3  0  0  0  0  0  0
  180.5910  177.6330  140.3350 O   0  0  0  0  0  1  0  0  0  0  0  0
  181.0410  178.7590  140.9030 O   0  0  0  0  0  0  0  0  0  0  0  0
  1  8  1  0  0  0  0
  1  6  1  0  0  0  0
  2 12  1  0  0  0  0
  3 14  2  0  0  0  0
  3 10  1  0  0  0  0
  4 15  1  0  0  0  0
  4  8  2  0  0  0  0
  5  1  2  0  0  0  0
  7  4  1  0  0  0  0
  9  7  1  0  0  0  0
  9  5  1  0  0  0  0
 10 11  1  0  0  0  0
 11  2  1  0  0  0  0
 11  7  2  0  0  0  0
 12 15  2  0  0  0  0
 13 35  1  0  0  0  0
 13  2  2  0  0  0  0
 14 13  1  0  0  0  0
 16  3  1  0  0  0  0
 17 16  1  0  0  0  0
 18 20  1  0  0  0  0
 18 16  1  1  0  0  0
 19 21  1  6  0  0  0
 19 18  1  0  0  0  0
 19 20  1  0  0  0  0
 22 24  1  0  0  0  0
 22 21  1  6  0  0  0
 23 25  1  0  0  0  0
 23 26  1  0  0  0  0
 25 28  1  1  0  0  0
 25 22  1  0  0  0  0
 26 24  1  0  0  0  0
 27 29  1  0  0  0  0
 27 28  1  0  0  0  0
 28 30  2  0  0  0  0
 31 27  1  0  0  0  0
 31 32  1  0  0  0  0
 34 32  1  0  0  0  0
 34 33  1  0  0  0  0
 36 39  1  0  0  0  0
 37 36  2  0  0  0  0
 38 40  1  0  0  0  0
 40 39  2  0  0  0  0
 40 35  1  0  0  0  0
 41 37  1  0  0  0  0
 41 38  2  0  0  0  0
 42 43  1  0  0  0  0
 43 37  1  0  0  0  0
M  END
>  <MODEL>
1

>  <REMARK>
 VINA RESULT:     -10.1      0.000      0.000
  Name = 
  11 active torsions:
  status: ('A' for Active; 'I' for Inactive)
    1  A    between atoms: C_1  and  C_34
    2  A    between atoms: C_1  and  C_35
    3  A    between atoms: N_2  and  C_6
    4  A    between atoms: N_2  and  C_13
    5  A    between atoms: C_3  and  C_4
    6  A    between atoms: C_3  and  C_12
    7  A    between atoms: N_11  and  C_36
    8  A    between atoms: C_14  and  C_22
    9  A    between atoms: C_19  and  O_37
   10  A    between atoms: C_29  and  C_31
   11  A    between atoms: C_29  and  C_36
                            x       y       z     vdW  Elec       q    Type
                         _______ _______ _______ _____ _____    ______ ____

>  <TORSDO>
F 11

$$$$
=
 OpenBabel10272414063D

 43 48  0  0  1  0  0  0  0  0999 V2000
  191.3540  176.3540  146.9030 C   0  0  0  0  0  0  0  0  0  0  0  0
  186.9330  178.0210  145.1050 C   0  0  0  0  0  0  0  0  0  0  0  0
  187.2350  178.2070  142.2930 C   0  0  0  0  0  0  0  0  0  0  0  0
  189.0920  177.1380  146.6820 C   0  0  0  0  0  0  0  0  0  0  0  0
  191.5990  176.4260  145.5930 C   0  0  0  0  0  3  0  0  0  0  0  0
  192.4200  175.8830  147.8260 C   0  0  0  0  0  1  0  0  0  0  0  0
  189.2430  177.2470  145.2810 C   0  0  0  0  0  0  0  0  0  0  0  0
  190.0730  176.7250  147.4300 N   0  0  0  0  0  0  0  0  0  0  0  0
  190.5540  176.8970  144.6210 C   0  0  0  0  0  2  0  0  0  0  0  0
  188.3000  177.7910  143.1050 O   0  0  0  0  0  0  0  0  0  0  0  0
  188.1630  177.6850  144.4980 C   0  0  0  0  0  0  0  0  0  0  0  0
  186.8050  177.9150  146.4990 C   0  0  0  0  0  3  0  0  0  0  0  0
  185.9060  178.4380  144.3330 C   0  0  0  0  0  0  0  0  0  0  0  0
  186.0670  178.5270  142.8660 C   0  0  0  0  0  3  0  0  0  0  0  0
  187.8750  177.4740  147.2790 C   0  0  0  0  0  3  0  0  0  0  0  0
  187.4070  178.2820  140.8660 N   0  0  0  0  0  0  0  0  0  0  0  0
  186.2750  178.5910  139.9960 C   0  0  0  0  0  1  0  0  0  0  0  0
  188.7480  178.2580  140.2850 C   0  0  2  0  0  3  0  0  0  0  0  0
  188.9300  177.0170  139.4260 C   0  0  2  0  0  3  0  0  0  0  0  0
  189.5340  177.0690  140.8090 C   0  0  0  0  0  2  0  0  0  0  0  0
  190.0050  177.2910  138.3930 C   0  0  0  0  0  2  0  0  0  0  0  0
  189.8570  176.3410  137.2160 C   0  0  2  0  0  3  0  0  0  0  0  0
  190.1640  173.7410  136.7190 S   0  0  0  0  0  0  0  0  0  0  0  0
  188.5710  175.6700  137.2710 N   0  0  0  0  0  2  0  0  0  0  0  0
  190.9290  175.2810  137.2770 C   0  0  1  0  0  3  0  0  0  0  0  0
  188.6470  174.5860  136.3820 N   0  0  0  0  0  2  0  0  0  0  0  0
  193.4410  175.4400  136.8530 N   0  0  0  0  0  0  0  0  0  0  0  0
  192.0920  175.6500  136.4050 C   0  0  0  0  0  0  0  0  0  0  0  0
  194.5550  175.9400  136.0650 C   0  0  0  0  0  1  0  0  0  0  0  0
  191.8790  176.1660  135.2730 O   0  0  0  0  0  0  0  0  0  0  0  0
  193.7360  174.8460  138.1530 C   0  0  0  0  0  2  0  0  0  0  0  0
  194.9220  173.8930  138.0620 C   0  0  0  0  0  2  0  0  0  0  0  0
  195.6130  175.3780  139.8060 O   0  0  0  0  0  1  0  0  0  0  0  0
  195.9910  174.2420  139.0870 C   0  0  0  0  0  2  0  0  0  0  0  0
  184.5890  178.8540  144.9210 C   0  0  0  0  0  2  0  0  0  0  0  0
  182.8210  178.6010  141.5780 C   0  0  0  0  0  3  0  0  0  0  0  0
  181.4770  178.6730  141.9630 C   0  0  0  0  0  0  0  0  0  0  0  0
  182.1630  178.8350  144.2870 C   0  0  0  0  0  3  0  0  0  0  0  0
  183.8320  178.6500  142.5420 C   0  0  0  0  0  3  0  0  0  0  0  0
  183.5050  178.7620  143.8970 C   0  0  0  0  0  0  0  0  0  0  0  0
  181.1520  178.7880  143.3230 C   0  0  0  0  0  3  0  0  0  0  0  0
  180.5550  177.7720  139.9630 O   0  0  0  0  0  1  0  0  0  0  0  0
  180.4810  178.6300  140.9890 O   0  0  0  0  0  0  0  0  0  0  0  0
  1  8  1  0  0  0  0
  1  6  1  0  0  0  0
  2 12  1  0  0  0  0
  3 14  2  0  0  0  0
  3 10  1  0  0  0  0
  4 15  1  0  0  0  0
  4  8  2  0  0  0  0
  5  1  2  0  0  0  0
  7  4  1  0  0  0  0
  9  7  1  0  0  0  0
  9  5  1  0  0  0  0
 10 11  1  0  0  0  0
 11  2  1  0  0  0  0
 11  7  2  0  0  0  0
 12 15  2  0  0  0  0
 13 35  1  0  0  0  0
 13  2  2  0  0  0  0
 14 13  1  0  0  0  0
 16  3  1  0  0  0  0
 17 16  1  0  0  0  0
 18 20  1  0  0  0  0
 18 16  1  1  0  0  0
 19 21  1  6  0  0  0
 19 18  1  0  0  0  0
 19 20  1  0  0  0  0
 22 24  1  0  0  0  0
 22 25  1  0  0  0  0
 22 21  1  1  0  0  0
 23 25  1  0  0  0  0
 25 28  1  6  0  0  0
 26 23  1  0  0  0  0
 26 24  1  0  0  0  0
 27 31  1  0  0  0  0
 28 27  1  0  0  0  0
 29 27  1  0  0  0  0
 30 28  2  0  0  0  0
 32 31  1  0  0  0  0
 32 34  1  0  0  0  0
 34 33  1  0  0  0  0
 36 37  2  0  0  0  0
 36 39  1  0  0  0  0
 37 41  1  0  0  0  0
 39 40  2  0  0  0  0
 40 38  1  0  0  0  0
 40 35  1  0  0  0  0
 41 38  2  0  0  0  0
 42 43  1  0  0  0  0
 43 37  1  0  0  0  0
M  END
>  <MODEL>
2

>  <REMARK>
 VINA RESULT:      -9.8      1.788      3.316
  Name = 
  11 active torsions:
  status: ('A' for Active; 'I' for Inactive)
    1  A    between atoms: C_1  and  C_34
    2  A    between atoms: C_1  and  C_35
    3  A    between atoms: N_2  and  C_6
    4  A    between atoms: N_2  and  C_13
    5  A    between atoms: C_3  and  C_4
    6  A    between atoms: C_3  and  C_12
    7  A    between atoms: N_11  and  C_36
    8  A    between atoms: C_14  and  C_22
    9  A    between atoms: C_19  and  O_37
   10  A    between atoms: C_29  and  C_31
   11  A    between atoms: C_29  and  C_36
                            x       y       z     vdW  Elec       q    Type
                         _______ _______ _______ _____ _____    ______ ____

>  <TORSDO>
F 11

$$$$
=
 OpenBabel10272414063D

 43 48  0  0  1  0  0  0  0  0999 V2000
  191.1340  176.6630  146.7660 C   0  0  0  0  0  0  0  0  0  0  0  0
  187.2770  177.7590  143.6890 C   0  0  0  0  0  0  0  0  0  0  0  0
  188.3610  177.9190  141.0750 C   0  0  0  0  0  0  0  0  0  0  0  0
  188.9640  177.1700  145.8640 C   0  0  0  0  0  0  0  0  0  0  0  0
  191.7410  176.7350  145.5800 C   0  0  0  0  0  3  0  0  0  0  0  0
  191.9290  176.3400  147.9800 C   0  0  0  0  0  1  0  0  0  0  0  0
  189.5040  177.2660  144.5610 C   0  0  0  0  0  0  0  0  0  0  0  0
  189.7230  176.8920  146.8820 N   0  0  0  0  0  0  0  0  0  0  0  0
  190.9800  177.0600  144.3240 C   0  0  0  0  0  2  0  0  0  0  0  0
  189.1820  177.6480  142.1800 O   0  0  0  0  0  0  0  0  0  0  0  0
  188.6590  177.5570  143.4790 C   0  0  0  0  0  0  0  0  0  0  0  0
  186.7600  177.6670  144.9910 C   0  0  0  0  0  3  0  0  0  0  0  0
  186.4800  178.0350  142.6330 C   0  0  0  0  0  0  0  0  0  0  0  0
  187.0500  178.1110  141.2710 C   0  0  0  0  0  3  0  0  0  0  0  0
  187.5980  177.3730  146.0670 C   0  0  0  0  0  3  0  0  0  0  0  0
  188.9320  177.9840  139.7560 N   0  0  0  0  0  0  0  0  0  0  0  0
  190.3160  177.5750  139.5230 C   0  0  0  0  0  1  0  0  0  0  0  0
  188.0810  178.2570  138.5980 C   0  0  2  0  0  3  0  0  0  0  0  0
  187.7610  176.9660  137.8610 C   0  0  2  0  0  3  0  0  0  0  0  0
  188.8070  177.9050  137.3110 C   0  0  0  0  0  2  0  0  0  0  0  0
  186.4630  177.1490  137.0990 C   0  0  0  0  0  2  0  0  0  0  0  0
  185.9230  175.8010  136.6520 C   0  0  2  0  0  3  0  0  0  0  0  0
  186.0810  173.2510  137.4130 S   0  0  0  0  0  0  0  0  0  0  0  0
  184.7530  175.4420  137.4330 N   0  0  0  0  0  2  0  0  0  0  0  0
  186.9670  174.7340  136.8740 C   0  0  1  0  0  3  0  0  0  0  0  0
  184.5290  174.0740  137.2120 N   0  0  0  0  0  2  0  0  0  0  0  0
  189.0730  173.9460  135.6660 N   0  0  0  0  0  0  0  0  0  0  0  0
  187.7360  174.4710  135.6140 C   0  0  0  0  0  0  0  0  0  0  0  0
  189.8600  173.8400  134.4490 C   0  0  0  0  0  1  0  0  0  0  0  0
  187.2060  174.7310  134.4980 O   0  0  0  0  0  0  0  0  0  0  0  0
  189.7250  173.6300  136.9320 C   0  0  0  0  0  2  0  0  0  0  0  0
  190.6940  174.7340  137.3390 C   0  0  0  0  0  2  0  0  0  0  0  0
  193.0060  175.3070  137.5550 O   0  0  0  0  0  1  0  0  0  0  0  0
  192.1320  174.2420  137.3230 C   0  0  0  0  0  2  0  0  0  0  0  0
  185.0130  178.3050  142.7950 C   0  0  0  0  0  2  0  0  0  0  0  0
  182.7310  177.5920  139.8530 C   0  0  0  0  0  3  0  0  0  0  0  0
  183.1520  178.5560  138.9300 C   0  0  0  0  0  0  0  0  0  0  0  0
  184.7720  179.3780  140.5410 C   0  0  0  0  0  3  0  0  0  0  0  0
  183.3300  177.5180  141.1140 C   0  0  0  0  0  3  0  0  0  0  0  0
  184.3480  178.4130  141.4620 C   0  0  0  0  0  0  0  0  0  0  0  0
  184.1740  179.4520  139.2800 C   0  0  0  0  0  3  0  0  0  0  0  0
  182.2710  177.4950  136.9910 O   0  0  0  0  0  1  0  0  0  0  0  0
  182.5490  178.6130  137.6750 O   0  0  0  0  0  0  0  0  0  0  0  0
  1  8  1  0  0  0  0
  1  6  1  0  0  0  0
  2 12  1  0  0  0  0
  3 14  2  0  0  0  0
  3 10  1  0  0  0  0
  4 15  1  0  0  0  0
  4  8  2  0  0  0  0
  5  1  2  0  0  0  0
  7  4  1  0  0  0  0
  9  7  1  0  0  0  0
  9  5  1  0  0  0  0
 10 11  1  0  0  0  0
 11  2  1  0  0  0  0
 11  7  2  0  0  0  0
 12 15  2  0  0  0  0
 13 35  1  0  0  0  0
 13  2  2  0  0  0  0
 14 13  1  0  0  0  0
 16  3  1  0  0  0  0
 17 16  1  0  0  0  0
 18 16  1  1  0  0  0
 19 21  1  6  0  0  0
 19 18  1  0  0  0  0
 20 19  1  0  0  0  0
 20 18  1  0  0  0  0
 22 25  1  0  0  0  0
 22 21  1  1  0  0  0
 22 24  1  0  0  0  0
 25 28  1  6  0  0  0
 25 23  1  0  0  0  0
 26 23  1  0  0  0  0
 26 24  1  0  0  0  0
 27 31  1  0  0  0  0
 28 27  1  0  0  0  0
 29 27  1  0  0  0  0
 30 28  2  0  0  0  0
 31 32  1  0  0  0  0
 34 32  1  0  0  0  0
 34 33  1  0  0  0  0
 36 39  1  0  0  0  0
 37 41  1  0  0  0  0
 37 36  2  0  0  0  0
 38 40  1  0  0  0  0
 39 40  2  0  0  0  0
 40 35  1  0  0  0  0
 41 38  2  0  0  0  0
 42 43  1  0  0  0  0
 43 37  1  0  0  0  0
M  END
>  <MODEL>
3

>  <REMARK>
 VINA RESULT:      -9.7      2.278      3.646
  Name = 
  11 active torsions:
  status: ('A' for Active; 'I' for Inactive)
    1  A    between atoms: C_1  and  C_34
    2  A    between atoms: C_1  and  C_35
    3  A    between atoms: N_2  and  C_6
    4  A    between atoms: N_2  and  C_13
    5  A    between atoms: C_3  and  C_4
    6  A    between atoms: C_3  and  C_12
    7  A    between atoms: N_11  and  C_36
    8  A    between atoms: C_14  and  C_22
    9  A    between atoms: C_19  and  O_37
   10  A    between atoms: C_29  and  C_31
   11  A    between atoms: C_29  and  C_36
                            x       y       z     vdW  Elec       q    Type
                         _______ _______ _______ _____ _____    ______ ____

>  <TORSDO>
F 11

$$$$
=
 OpenBabel10272414063D

 43 48  0  0  1  0  0  0  0  0999 V2000
  191.3340  176.3080  146.9250 C   0  0  0  0  0  0  0  0  0  0  0  0
  186.9130  177.9920  145.1440 C   0  0  0  0  0  0  0  0  0  0  0  0
  187.2020  178.1700  142.3310 C   0  0  0  0  0  0  0  0  0  0  0  0
  189.0740  177.1030  146.7130 C   0  0  0  0  0  0  0  0  0  0  0  0
  191.5730  176.3760  145.6140 C   0  0  0  0  0  3  0  0  0  0  0  0
  192.4020  175.8340  147.8440 C   0  0  0  0  0  1  0  0  0  0  0  0
  189.2200  177.2080  145.3110 C   0  0  0  0  0  0  0  0  0  0  0  0
  190.0570  176.6870  147.4570 N   0  0  0  0  0  0  0  0  0  0  0  0
  190.5260  176.8500  144.6450 C   0  0  0  0  0  2  0  0  0  0  0  0
  188.2690  177.7500  143.1380 O   0  0  0  0  0  0  0  0  0  0  0  0
  188.1380  177.6480  144.5320 C   0  0  0  0  0  0  0  0  0  0  0  0
  186.7900  177.8890  146.5390 C   0  0  0  0  0  3  0  0  0  0  0  0
  185.8840  178.4120  144.3750 C   0  0  0  0  0  0  0  0  0  0  0  0
  186.0390  178.4970  142.9080 C   0  0  0  0  0  3  0  0  0  0  0  0
  187.8620  177.4460  147.3140 C   0  0  0  0  0  3  0  0  0  0  0  0
  187.3680  178.2410  140.9030 N   0  0  0  0  0  0  0  0  0  0  0  0
  186.2340  178.5560  140.0370 C   0  0  0  0  0  1  0  0  0  0  0  0
  188.7060  178.2070  140.3150 C   0  0  2  0  0  3  0  0  0  0  0  0
  188.8100  177.0780  139.3020 C   0  0  2  0  0  3  0  0  0  0  0  0
  189.4120  176.9110  140.6760 C   0  0  0  0  0  2  0  0  0  0  0  0
  189.9030  177.4150  138.3060 C   0  0  0  0  0  2  0  0  0  0  0  0
  189.4380  177.1070  136.8930 C   0  0  2  0  0  3  0  0  0  0  0  0
  187.1340  176.7700  135.5940 S   0  0  0  0  0  0  0  0  0  0  0  0
  189.0710  178.3320  136.2050 N   0  0  0  0  0  2  0  0  0  0  0  0
  188.2140  176.2240  136.9380 C   0  0  1  0  0  3  0  0  0  0  0  0
  188.3420  177.9500  135.0680 N   0  0  0  0  0  2  0  0  0  0  0  0
  187.6170  173.7430  136.9560 N   0  0  0  0  0  0  0  0  0  0  0  0
  188.5920  174.7820  136.7720 C   0  0  0  0  0  0  0  0  0  0  0  0
  188.0290  172.3490  136.9420 C   0  0  0  0  0  1  0  0  0  0  0  0
  189.7830  174.4830  136.4840 O   0  0  0  0  0  0  0  0  0  0  0  0
  186.2280  174.0420  137.2890 C   0  0  0  0  0  2  0  0  0  0  0  0
  185.3780  172.7760  137.2760 C   0  0  0  0  0  2  0  0  0  0  0  0
  182.9940  172.7420  137.0840 O   0  0  0  0  0  1  0  0  0  0  0  0
  184.1740  172.9280  136.3600 C   0  0  0  0  0  2  0  0  0  0  0  0
  184.5710  178.8350  144.9690 C   0  0  0  0  0  2  0  0  0  0  0  0
  182.7870  178.6920  141.6270 C   0  0  0  0  0  3  0  0  0  0  0  0
  181.4450  178.6840  142.0250 C   0  0  0  0  0  0  0  0  0  0  0  0
  182.1430  178.7450  144.3500 C   0  0  0  0  0  3  0  0  0  0  0  0
  183.8040  178.7310  142.5870 C   0  0  0  0  0  3  0  0  0  0  0  0
  183.4840  178.7530  143.9480 C   0  0  0  0  0  0  0  0  0  0  0  0
  181.1270  178.7080  143.3910 C   0  0  0  0  0  3  0  0  0  0  0  0
  180.7370  178.4470  139.7650 O   0  0  0  0  0  1  0  0  0  0  0  0
  180.4440  178.6520  141.0560 O   0  0  0  0  0  0  0  0  0  0  0  0
  1  8  1  0  0  0  0
  1  6  1  0  0  0  0
  2 12  1  0  0  0  0
  3 14  2  0  0  0  0
  3 10  1  0  0  0  0
  4 15  1  0  0  0  0
  4  8  2  0  0  0  0
  5  1  2  0  0  0  0
  7  4  1  0  0  0  0
  9  7  1  0  0  0  0
  9  5  1  0  0  0  0
 10 11  1  0  0  0  0
 11  2  1  0  0  0  0
 11  7  2  0  0  0  0
 12 15  2  0  0  0  0
 13 35  1  0  0  0  0
 13  2  2  0  0  0  0
 14 13  1  0  0  0  0
 16  3  1  0  0  0  0
 17 16  1  0  0  0  0
 18 20  1  0  0  0  0
 18 16  1  1  0  0  0
 19 21  1  6  0  0  0
 19 18  1  0  0  0  0
 19 20  1  0  0  0  0
 22 25  1  0  0  0  0
 22 21  1  1  0  0  0
 23 25  1  0  0  0  0
 24 22  1  0  0  0  0
 25 28  1  6  0  0  0
 26 23  1  0  0  0  0
 26 24  1  0  0  0  0
 27 31  1  0  0  0  0
 28 27  1  0  0  0  0
 29 27  1  0  0  0  0
 30 28  2  0  0  0  0
 32 31  1  0  0  0  0
 34 33  1  0  0  0  0
 34 32  1  0  0  0  0
 36 37  2  0  0  0  0
 36 39  1  0  0  0  0
 37 41  1  0  0  0  0
 39 40  2  0  0  0  0
 40 38  1  0  0  0  0
 40 35  1  0  0  0  0
 41 38  2  0  0  0  0
 42 43  1  0  0  0  0
 43 37  1  0  0  0  0
M  END
>  <MODEL>
4

>  <REMARK>
 VINA RESULT:      -9.2      1.822      2.564
  Name = 
  11 active torsions:
  status: ('A' for Active; 'I' for Inactive)
    1  A    between atoms: C_1  and  C_34
    2  A    between atoms: C_1  and  C_35
    3  A    between atoms: N_2  and  C_6
    4  A    between atoms: N_2  and  C_13
    5  A    between atoms: C_3  and  C_4
    6  A    between atoms: C_3  and  C_12
    7  A    between atoms: N_11  and  C_36
    8  A    between atoms: C_14  and  C_22
    9  A    between atoms: C_19  and  O_37
   10  A    between atoms: C_29  and  C_31
   11  A    between atoms: C_29  and  C_36
                            x       y       z     vdW  Elec       q    Type
                         _______ _______ _______ _____ _____    ______ ____

>  <TORSDO>
F 11

$$$$
=
 OpenBabel10272414063D

 43 48  0  0  1  0  0  0  0  0999 V2000
  191.0920  176.6860  146.5950 C   0  0  0  0  0  0  0  0  0  0  0  0
  189.4250  177.7510  141.9430 C   0  0  0  0  0  0  0  0  0  0  0  0
  186.6530  178.2850  142.1920 C   0  0  0  0  0  0  0  0  0  0  0  0
  190.9260  177.0840  144.2300 C   0  0  0  0  0  0  0  0  0  0  0  0
  189.7930  176.9010  146.8110 C   0  0  0  0  0  3  0  0  0  0  0  0
  191.9800  176.3440  147.7370 C   0  0  0  0  0  1  0  0  0  0  0  0
  189.5400  177.3360  144.3470 C   0  0  0  0  0  0  0  0  0  0  0  0
  191.6400  176.7820  145.2740 N   0  0  0  0  0  0  0  0  0  0  0  0
  188.8540  177.2480  145.6890 C   0  0  0  0  0  3  0  0  0  0  0  0
  187.4200  177.9310  143.3100 O   0  0  0  0  0  0  0  0  0  0  0  0
  188.7960  177.6720  143.2050 C   0  0  0  0  0  0  0  0  0  0  0  0
  190.8010  177.4900  141.8450 C   0  0  0  0  0  2  0  0  0  0  0  0
  188.6910  178.0780  140.8570 C   0  0  0  0  0  0  0  0  0  0  0  0
  187.2470  178.3620  140.9940 C   0  0  0  0  0  3  0  0  0  0  0  0
  191.5430  177.1620  142.9800 C   0  0  0  0  0  3  0  0  0  0  0  0
  185.2490  178.5640  142.3440 N   0  0  0  0  0  0  0  0  0  0  0  0
  184.7870  179.5390  143.3290 C   0  0  0  0  0  1  0  0  0  0  0  0
  184.2860  178.0380  141.3780 C   0  0  2  0  0  3  0  0  0  0  0  0
  183.8550  179.1300  140.4120 C   0  0  2  0  0  3  0  0  0  0  0  0
  182.9400  178.7240  141.5420 C   0  0  0  0  0  2  0  0  0  0  0  0
  183.3860  178.4840  139.1220 C   0  0  0  0  0  2  0  0  0  0  0  0
  182.7090  179.5150  138.2350 C   0  0  2  0  0  3  0  0  0  0  0  0
  180.3330  180.7050  138.0380 S   0  0  0  0  0  0  0  0  0  0  0  0
  182.7560  180.8250  138.8590 N   0  0  0  0  0  2  0  0  0  0  0  0
  181.2570  179.1510  138.0450 C   0  0  1  0  0  3  0  0  0  0  0  0
  181.8350  181.6290  138.1710 N   0  0  0  0  0  2  0  0  0  0  0  0
  180.7880  176.9920  136.7660 N   0  0  0  0  0  0  0  0  0  0  0  0
  181.0600  178.4030  136.7600 C   0  0  0  0  0  0  0  0  0  0  0  0
  180.7500  176.2540  135.5150 C   0  0  0  0  0  1  0  0  0  0  0  0
  181.1520  179.0210  135.6630 O   0  0  0  0  0  0  0  0  0  0  0  0
  180.6720  176.2370  138.0090 C   0  0  0  0  0  2  0  0  0  0  0  0
  181.4240  174.9150  137.9180 C   0  0  0  0  0  2  0  0  0  0  0  0
  183.7530  174.4930  137.5720 O   0  0  0  0  0  1  0  0  0  0  0  0
  182.8350  175.0420  138.4710 C   0  0  0  0  0  2  0  0  0  0  0  0
  189.2910  178.1350  139.4820 C   0  0  0  0  0  2  0  0  0  0  0  0
  187.4620  175.7970  137.1250 C   0  0  0  0  0  3  0  0  0  0  0  0
  186.5650  176.6720  136.5000 C   0  0  0  0  0  0  0  0  0  0  0  0
  187.4280  178.5010  137.8430 C   0  0  0  0  0  3  0  0  0  0  0  0
  188.3410  176.2730  138.1030 C   0  0  0  0  0  3  0  0  0  0  0  0
  188.3230  177.6230  138.4660 C   0  0  0  0  0  0  0  0  0  0  0  0
  186.5500  178.0260  136.8650 C   0  0  0  0  0  3  0  0  0  0  0  0
  184.5480  176.8070  135.2450 O   0  0  0  0  0  1  0  0  0  0  0  0
  185.7000  176.1830  135.5230 O   0  0  0  0  0  0  0  0  0  0  0  0
  1  5  1  0  0  0  0
  1  6  1  0  0  0  0
  2 11  1  0  0  0  0
  3 16  1  0  0  0  0
  3 10  1  0  0  0  0
  4  7  1  0  0  0  0
  4  8  1  0  0  0  0
  7  9  1  0  0  0  0
  8  1  2  0  0  0  0
  9  5  2  0  0  0  0
 11 10  1  0  0  0  0
 11  7  2  0  0  0  0
 12  2  1  0  0  0  0
 12 15  1  0  0  0  0
 13 14  1  0  0  0  0
 13  2  2  0  0  0  0
 14  3  2  0  0  0  0
 15  4  2  0  0  0  0
 16 17  1  0  0  0  0
 18 20  1  0  0  0  0
 18 16  1  1  0  0  0
 19 21  1  6  0  0  0
 19 18  1  0  0  0  0
 19 20  1  0  0  0  0
 22 24  1  0  0  0  0
 22 21  1  1  0  0  0
 23 25  1  0  0  0  0
 23 26  1  0  0  0  0
 25 28  1  6  0  0  0
 25 22  1  0  0  0  0
 26 24  1  0  0  0  0
 27 31  1  0  0  0  0
 28 27  1  0  0  0  0
 29 27  1  0  0  0  0
 30 28  2  0  0  0  0
 32 31  1  0  0  0  0
 32 34  1  0  0  0  0
 33 34  1  0  0  0  0
 35 13  1  0  0  0  0
 36 39  1  0  0  0  0
 37 41  1  0  0  0  0
 37 36  2  0  0  0  0
 38 40  1  0  0  0  0
 39 40  2  0  0  0  0
 40 35  1  0  0  0  0
 41 38  2  0  0  0  0
 42 43  1  0  0  0  0
 43 37  1  0  0  0  0
M  END
>  <MODEL>
5

>  <REMARK>
 VINA RESULT:      -9.1      3.945      6.821
  Name = 
  11 active torsions:
  status: ('A' for Active; 'I' for Inactive)
    1  A    between atoms: C_1  and  C_34
    2  A    between atoms: C_1  and  C_35
    3  A    between atoms: N_2  and  C_6
    4  A    between atoms: N_2  and  C_13
    5  A    between atoms: C_3  and  C_4
    6  A    between atoms: C_3  and  C_12
    7  A    between atoms: N_11  and  C_36
    8  A    between atoms: C_14  and  C_22
    9  A    between atoms: C_19  and  O_37
   10  A    between atoms: C_29  and  C_31
   11  A    between atoms: C_29  and  C_36
                            x       y       z     vdW  Elec       q    Type
                         _______ _______ _______ _____ _____    ______ ____

>  <TORSDO>
F 11

$$$$
=
 OpenBabel10272414063D

 43 48  0  0  1  0  0  0  0  0999 V2000
  188.1280  177.4820  146.3580 C   0  0  0  0  0  0  0  0  0  0  0  0
  185.7500  178.4950  142.0140 C   0  0  0  0  0  0  0  0  0  0  0  0
  187.6350  178.0420  139.9470 C   0  0  0  0  0  0  0  0  0  0  0  0
  186.5000  178.0950  144.6970 C   0  0  0  0  0  0  0  0  0  0  0  0
  189.0900  177.2620  145.4590 C   0  0  0  0  0  3  0  0  0  0  0  0
  188.4120  177.2830  147.8030 C   0  0  0  0  0  1  0  0  0  0  0  0
  187.4420  177.8850  143.6650 C   0  0  0  0  0  0  0  0  0  0  0  0
  186.8230  177.9080  145.9430 N   0  0  0  0  0  0  0  0  0  0  0  0
  188.8510  177.4500  143.9870 C   0  0  0  0  0  2  0  0  0  0  0  0
  187.9880  177.8710  141.2930 O   0  0  0  0  0  0  0  0  0  0  0  0
  187.0630  178.0820  142.3280 C   0  0  0  0  0  0  0  0  0  0  0  0
  184.8300  178.7060  143.0530 C   0  0  0  0  0  3  0  0  0  0  0  0
  185.4040  178.6770  140.7200 C   0  0  0  0  0  0  0  0  0  0  0  0
  186.3900  178.4340  139.6460 C   0  0  0  0  0  3  0  0  0  0  0  0
  185.2040  178.5050  144.3830 C   0  0  0  0  0  3  0  0  0  0  0  0
  188.6060  177.7950  138.9140 N   0  0  0  0  0  0  0  0  0  0  0  0
  188.2250  177.8610  137.5050 C   0  0  0  0  0  1  0  0  0  0  0  0
  190.0250  177.6800  139.2490 C   0  0  2  0  0  3  0  0  0  0  0  0
  190.5760  176.3470  138.7670 C   0  0  2  0  0  3  0  0  0  0  0  0
  190.2490  176.5420  140.2290 C   0  0  0  0  0  2  0  0  0  0  0  0
  192.0720  176.4850  138.5590 C   0  0  0  0  0  2  0  0  0  0  0  0
  192.4310  176.1730  137.1160 C   0  0  2  0  0  3  0  0  0  0  0  0
  192.5670  174.0380  135.5260 S   0  0  0  0  0  0  0  0  0  0  0  0
  191.2290  176.0780  136.3080 N   0  0  0  0  0  2  0  0  0  0  0  0
  193.1380  174.8410  137.0430 C   0  0  1  0  0  3  0  0  0  0  0  0
  191.6050  175.4610  135.1040 N   0  0  0  0  0  2  0  0  0  0  0  0
  195.4980  174.0320  137.5800 N   0  0  0  0  0  0  0  0  0  0  0  0
  194.6260  175.0290  137.0240 C   0  0  0  0  0  0  0  0  0  0  0  0
  196.9230  174.2940  137.6930 C   0  0  0  0  0  1  0  0  0  0  0  0
  195.1110  176.0830  136.5280 O   0  0  0  0  0  0  0  0  0  0  0  0
  194.9820  172.7970  138.1630 C   0  0  0  0  0  2  0  0  0  0  0  0
  195.0660  171.6460  137.1670 C   0  0  0  0  0  2  0  0  0  0  0  0
  194.9820  169.8890  138.7880 O   0  0  0  0  0  1  0  0  0  0  0  0
  195.7680  170.4410  137.7730 C   0  0  0  0  0  2  0  0  0  0  0  0
  184.0390  179.1590  140.3240 C   0  0  0  0  0  2  0  0  0  0  0  0
  182.3890  175.9360  139.2010 C   0  0  0  0  0  3  0  0  0  0  0  0
  182.1380  176.2040  137.8510 C   0  0  0  0  0  0  0  0  0  0  0  0
  183.1030  178.4150  138.1190 C   0  0  0  0  0  3  0  0  0  0  0  0
  182.9980  176.9030  140.0070 C   0  0  0  0  0  3  0  0  0  0  0  0
  183.3520  178.1440  139.4690 C   0  0  0  0  0  0  0  0  0  0  0  0
  182.4950  177.4490  137.3130 C   0  0  0  0  0  3  0  0  0  0  0  0
  182.2320  174.1750  136.6100 O   0  0  0  0  0  1  0  0  0  0  0  0
  181.5360  175.2270  137.0590 O   0  0  0  0  0  0  0  0  0  0  0  0
  1  6  1  0  0  0  0
  2 11  1  0  0  0  0
  2 12  1  0  0  0  0
  3 10  1  0  0  0  0
  4  8  2  0  0  0  0
  5  1  2  0  0  0  0
  7  9  1  0  0  0  0
  7  4  1  0  0  0  0
  8  1  1  0  0  0  0
  9  5  1  0  0  0  0
 10 11  1  0  0  0  0
 11  7  2  0  0  0  0
 12 15  2  0  0  0  0
 13  2  2  0  0  0  0
 14  3  2  0  0  0  0
 14 13  1  0  0  0  0
 15  4  1  0  0  0  0
 16  3  1  0  0  0  0
 17 16  1  0  0  0  0
 18 16  1  6  0  0  0
 18 20  1  0  0  0  0
 19 21  1  1  0  0  0
 19 18  1  0  0  0  0
 19 20  1  0  0  0  0
 22 21  1  1  0  0  0
 23 25  1  0  0  0  0
 24 22  1  0  0  0  0
 25 28  1  6  0  0  0
 25 22  1  0  0  0  0
 26 23  1  0  0  0  0
 26 24  1  0  0  0  0
 27 29  1  0  0  0  0
 27 31  1  0  0  0  0
 28 27  1  0  0  0  0
 30 28  2  0  0  0  0
 32 34  1  0  0  0  0
 32 31  1  0  0  0  0
 34 33  1  0  0  0  0
 35 13  1  0  0  0  0
 36 39  1  0  0  0  0
 37 36  2  0  0  0  0
 38 40  1  0  0  0  0
 40 39  2  0  0  0  0
 40 35  1  0  0  0  0
 41 37  1  0  0  0  0
 41 38  2  0  0  0  0
 42 43  1  0  0  0  0
 43 37  1  0  0  0  0
M  END
>  <MODEL>
6

>  <REMARK>
 VINA RESULT:      -9.1      3.142      4.991
  Name = 
  11 active torsions:
  status: ('A' for Active; 'I' for Inactive)
    1  A    between atoms: C_1  and  C_34
    2  A    between atoms: C_1  and  C_35
    3  A    between atoms: N_2  and  C_6
    4  A    between atoms: N_2  and  C_13
    5  A    between atoms: C_3  and  C_4
    6  A    between atoms: C_3  and  C_12
    7  A    between atoms: N_11  and  C_36
    8  A    between atoms: C_14  and  C_22
    9  A    between atoms: C_19  and  O_37
   10  A    between atoms: C_29  and  C_31
   11  A    between atoms: C_29  and  C_36
                            x       y       z     vdW  Elec       q    Type
                         _______ _______ _______ _____ _____    ______ ____

>  <TORSDO>
F 11

$$$$
=
 OpenBabel10272414063D

 43 48  0  0  1  0  0  0  0  0999 V2000
  189.0280  177.9640  139.3510 C   0  0  0  0  0  0  0  0  0  0  0  0
  183.9890  178.3590  139.3660 C   0  0  0  0  0  0  0  0  0  0  0  0
  183.2360  178.8610  142.0510 C   0  0  0  0  0  0  0  0  0  0  0  0
  186.7100  178.0370  138.7180 C   0  0  0  0  0  0  0  0  0  0  0  0
  188.7730  178.1780  140.6430 C   0  0  0  0  0  3  0  0  0  0  0  0
  190.4340  177.7980  138.8970 C   0  0  0  0  0  1  0  0  0  0  0  0
  186.3290  178.2730  140.0590 C   0  0  0  0  0  0  0  0  0  0  0  0
  187.9610  177.8940  138.3950 N   0  0  0  0  0  0  0  0  0  0  0  0
  187.3680  178.3500  141.1500 C   0  0  0  0  0  3  0  0  0  0  0  0
  184.5820  178.6760  141.7040 O   0  0  0  0  0  0  0  0  0  0  0  0
  184.9710  178.4360  140.3770 C   0  0  0  0  0  0  0  0  0  0  0  0
  184.3860  178.1160  138.0410 C   0  0  0  0  0  2  0  0  0  0  0  0
  182.6880  178.5210  139.6930 C   0  0  0  0  0  0  0  0  0  0  0  0
  182.3020  178.7890  141.0940 C   0  0  0  0  0  3  0  0  0  0  0  0
  185.7350  177.9600  137.7220 C   0  0  0  0  0  3  0  0  0  0  0  0
  182.8780  179.1280  143.4190 N   0  0  0  0  0  0  0  0  0  0  0  0
  181.5450  178.7950  143.9170 C   0  0  0  0  0  1  0  0  0  0  0  0
  183.9000  179.5380  144.3810 C   0  0  2  0  0  3  0  0  0  0  0  0
  184.7940  178.3600  144.7360 C   0  0  2  0  0  3  0  0  0  0  0  0
  183.7170  178.8020  145.6970 C   0  0  0  0  0  2  0  0  0  0  0  0
  186.1370  178.8910  145.2000 C   0  0  0  0  0  2  0  0  0  0  0  0
  186.9050  177.8030  145.9330 C   0  0  2  0  0  3  0  0  0  0  0  0
  189.3280  177.4560  146.9870 S   0  0  0  0  0  0  0  0  0  0  0  0
  186.8620  178.0350  147.3660 N   0  0  0  0  0  2  0  0  0  0  0  0
  188.3530  177.8260  145.5090 C   0  0  1  0  0  3  0  0  0  0  0  0
  187.8530  177.2190  147.9330 N   0  0  0  0  0  2  0  0  0  0  0  0
  189.9480  176.4140  144.1040 N   0  0  0  0  0  0  0  0  0  0  0  0
  188.6080  176.8160  144.4310 C   0  0  0  0  0  0  0  0  0  0  0  0
  190.1910  175.5530  142.9580 C   0  0  0  0  0  1  0  0  0  0  0  0
  187.6330  176.3310  143.7930 O   0  0  0  0  0  0  0  0  0  0  0  0
  191.1060  176.9480  144.8150 C   0  0  0  0  0  2  0  0  0  0  0  0
  191.9790  177.7840  143.8860 C   0  0  0  0  0  2  0  0  0  0  0  0
  190.4640  179.6130  143.6030 O   0  0  0  0  0  1  0  0  0  0  0  0
  191.7300  179.2710  144.0830 C   0  0  0  0  0  2  0  0  0  0  0  0
  181.5930  178.4050  138.6720 C   0  0  0  0  0  2  0  0  0  0  0  0
  181.3170  182.1530  138.1740 C   0  0  0  0  0  3  0  0  0  0  0  0
  180.7320  182.2250  136.9040 C   0  0  0  0  0  0  0  0  0  0  0  0
  180.7330  179.8010  136.7740 C   0  0  0  0  0  3  0  0  0  0  0  0
  181.6060  180.9090  138.7430 C   0  0  0  0  0  3  0  0  0  0  0  0
  181.3190  179.7320  138.0440 C   0  0  0  0  0  0  0  0  0  0  0  0
  180.4430  181.0440  136.2050 C   0  0  0  0  0  3  0  0  0  0  0  0
  181.1090  183.9250  135.2810 O   0  0  0  0  0  1  0  0  0  0  0  0
  180.4440  183.4730  136.3530 O   0  0  0  0  0  0  0  0  0  0  0  0
  1  5  1  0  0  0  0
  2 13  2  0  0  0  0
  2 11  1  0  0  0  0
  3 16  1  0  0  0  0
  4  7  1  0  0  0  0
  5  9  2  0  0  0  0
  6  1  1  0  0  0  0
  7 11  2  0  0  0  0
  7  9  1  0  0  0  0
  8  4  1  0  0  0  0
  8  1  2  0  0  0  0
 10  3  1  0  0  0  0
 11 10  1  0  0  0  0
 12  2  1  0  0  0  0
 13 14  1  0  0  0  0
 14  3  2  0  0  0  0
 15 12  1  0  0  0  0
 15  4  2  0  0  0  0
 16 17  1  0  0  0  0
 18 16  1  6  0  0  0
 18 19  1  0  0  0  0
 18 20  1  0  0  0  0
 19 21  1  1  0  0  0
 19 20  1  0  0  0  0
 22 21  1  6  0  0  0
 22 24  1  0  0  0  0
 23 26  1  0  0  0  0
 24 26  1  0  0  0  0
 25 28  1  6  0  0  0
 25 22  1  0  0  0  0
 25 23  1  0  0  0  0
 27 28  1  0  0  0  0
 27 31  1  0  0  0  0
 29 27  1  0  0  0  0
 30 28  2  0  0  0  0
 32 34  1  0  0  0  0
 32 31  1  0  0  0  0
 33 34  1  0  0  0  0
 35 13  1  0  0  0  0
 36 39  1  0  0  0  0
 37 36  2  0  0  0  0
 38 40  1  0  0  0  0
 40 35  1  0  0  0  0
 40 39  2  0  0  0  0
 41 38  2  0  0  0  0
 41 37  1  0  0  0  0
 42 43  1  0  0  0  0
 43 37  1  0  0  0  0
M  END
>  <MODEL>
7

>  <REMARK>
 VINA RESULT:      -9.0      3.638      7.826
  Name = 
  11 active torsions:
  status: ('A' for Active; 'I' for Inactive)
    1  A    between atoms: C_1  and  C_34
    2  A    between atoms: C_1  and  C_35
    3  A    between atoms: N_2  and  C_6
    4  A    between atoms: N_2  and  C_13
    5  A    between atoms: C_3  and  C_4
    6  A    between atoms: C_3  and  C_12
    7  A    between atoms: N_11  and  C_36
    8  A    between atoms: C_14  and  C_22
    9  A    between atoms: C_19  and  O_37
   10  A    between atoms: C_29  and  C_31
   11  A    between atoms: C_29  and  C_36
                            x       y       z     vdW  Elec       q    Type
                         _______ _______ _______ _____ _____    ______ ____

>  <TORSDO>
F 11

$$$$
=
 OpenBabel10272414063D

 43 48  0  0  1  0  0  0  0  0999 V2000
  190.9840  176.5520  146.6120 C   0  0  0  0  0  0  0  0  0  0  0  0
  187.3160  178.0330  143.4640 C   0  0  0  0  0  0  0  0  0  0  0  0
  188.4370  177.9990  140.8610 C   0  0  0  0  0  0  0  0  0  0  0  0
  188.9000  177.2960  145.6720 C   0  0  0  0  0  0  0  0  0  0  0  0
  191.6050  176.5230  145.4320 C   0  0  0  0  0  3  0  0  0  0  0  0
  191.7230  176.1650  147.8420 C   0  0  0  0  0  1  0  0  0  0  0  0
  189.4590  177.2960  144.3740 C   0  0  0  0  0  0  0  0  0  0  0  0
  189.6100  176.9530  146.7060 N   0  0  0  0  0  0  0  0  0  0  0  0
  190.9010  176.9070  144.1600 C   0  0  0  0  0  2  0  0  0  0  0  0
  189.2090  177.6570  141.9810 O   0  0  0  0  0  0  0  0  0  0  0  0
  188.6650  177.6600  143.2750 C   0  0  0  0  0  0  0  0  0  0  0  0
  186.7800  178.0350  144.7610 C   0  0  0  0  0  3  0  0  0  0  0  0
  186.5690  178.3780  142.3920 C   0  0  0  0  0  0  0  0  0  0  0  0
  187.1570  178.3520  141.0370 C   0  0  0  0  0  3  0  0  0  0  0  0
  187.5660  177.6670  145.8540 C   0  0  0  0  0  3  0  0  0  0  0  0
  189.0240  177.9630  139.5470 N   0  0  0  0  0  0  0  0  0  0  0  0
  188.2650  178.4110  138.3820 C   0  0  0  0  0  1  0  0  0  0  0  0
  190.4490  177.6770  139.3860 C   0  0  2  0  0  3  0  0  0  0  0  0
  190.6480  176.2710  138.8430 C   0  0  2  0  0  3  0  0  0  0  0  0
  190.8730  176.5490  140.3100 C   0  0  0  0  0  2  0  0  0  0  0  0
  191.9840  176.2090  138.1280 C   0  0  0  0  0  2  0  0  0  0  0  0
  191.8930  175.2810  136.9280 C   0  0  2  0  0  3  0  0  0  0  0  0
  192.7790  172.8700  136.2160 S   0  0  0  0  0  0  0  0  0  0  0  0
  190.8540  174.2880  137.1370 N   0  0  0  0  0  2  0  0  0  0  0  0
  193.1990  174.5460  136.7500 C   0  0  1  0  0  3  0  0  0  0  0  0
  191.0600  173.2860  136.1760 N   0  0  0  0  0  2  0  0  0  0  0  0
  195.4910  175.2570  135.8830 N   0  0  0  0  0  0  0  0  0  0  0  0
  194.0620  175.2330  135.7350 C   0  0  0  0  0  0  0  0  0  0  0  0
  196.3030  176.0530  134.9770 C   0  0  0  0  0  1  0  0  0  0  0  0
  193.5230  175.8090  134.7510 O   0  0  0  0  0  0  0  0  0  0  0  0
  196.1590  174.6040  137.0030 C   0  0  0  0  0  2  0  0  0  0  0  0
  196.6400  173.2100  136.6160 C   0  0  0  0  0  2  0  0  0  0  0  0
  195.5700  172.7850  138.7130 O   0  0  0  0  0  1  0  0  0  0  0  0
  196.3630  172.2030  137.7210 C   0  0  0  0  0  2  0  0  0  0  0  0
  185.1430  178.8260  142.5310 C   0  0  0  0  0  2  0  0  0  0  0  0
  182.6790  177.4200  140.0170 C   0  0  0  0  0  3  0  0  0  0  0  0
  183.0410  178.1080  138.8520 C   0  0  0  0  0  0  0  0  0  0  0  0
  184.7610  179.2880  140.0950 C   0  0  0  0  0  3  0  0  0  0  0  0
  183.3570  177.6630  141.2150 C   0  0  0  0  0  3  0  0  0  0  0  0
  184.3950  178.5990  141.2580 C   0  0  0  0  0  0  0  0  0  0  0  0
  184.0840  179.0460  138.8970 C   0  0  0  0  0  3  0  0  0  0  0  0
  183.0220  177.6630  136.5140 O   0  0  0  0  0  1  0  0  0  0  0  0
  182.3600  177.8500  137.6640 O   0  0  0  0  0  0  0  0  0  0  0  0
  1  8  1  0  0  0  0
  1  6  1  0  0  0  0
  2 12  1  0  0  0  0
  3 14  2  0  0  0  0
  3 10  1  0  0  0  0
  4 15  1  0  0  0  0
  4  8  2  0  0  0  0
  5  1  2  0  0  0  0
  7  4  1  0  0  0  0
  9  7  1  0  0  0  0
  9  5  1  0  0  0  0
 10 11  1  0  0  0  0
 11  2  1  0  0  0  0
 11  7  2  0  0  0  0
 12 15  2  0  0  0  0
 13 35  1  0  0  0  0
 13  2  2  0  0  0  0
 14 13  1  0  0  0  0
 16  3  1  0  0  0  0
 17 16  1  0  0  0  0
 18 16  1  1  0  0  0
 18 20  1  0  0  0  0
 19 21  1  6  0  0  0
 19 18  1  0  0  0  0
 19 20  1  0  0  0  0
 22 24  1  0  0  0  0
 22 21  1  1  0  0  0
 23 25  1  0  0  0  0
 25 28  1  6  0  0  0
 25 22  1  0  0  0  0
 26 23  1  0  0  0  0
 26 24  1  0  0  0  0
 27 31  1  0  0  0  0
 28 27  1  0  0  0  0
 29 27  1  0  0  0  0
 30 28  2  0  0  0  0
 32 31  1  0  0  0  0
 32 34  1  0  0  0  0
 34 33  1  0  0  0  0
 36 39  1  0  0  0  0
 37 41  1  0  0  0  0
 37 36  2  0  0  0  0
 38 40  1  0  0  0  0
 39 40  2  0  0  0  0
 40 35  1  0  0  0  0
 41 38  2  0  0  0  0
 42 43  1  0  0  0  0
 43 37  1  0  0  0  0
M  END
>  <MODEL>
8

>  <REMARK>
 VINA RESULT:      -9.0      2.719      4.191
  Name = 
  11 active torsions:
  status: ('A' for Active; 'I' for Inactive)
    1  A    between atoms: C_1  and  C_34
    2  A    between atoms: C_1  and  C_35
    3  A    between atoms: N_2  and  C_6
    4  A    between atoms: N_2  and  C_13
    5  A    between atoms: C_3  and  C_4
    6  A    between atoms: C_3  and  C_12
    7  A    between atoms: N_11  and  C_36
    8  A    between atoms: C_14  and  C_22
    9  A    between atoms: C_19  and  O_37
   10  A    between atoms: C_29  and  C_31
   11  A    between atoms: C_29  and  C_36
                            x       y       z     vdW  Elec       q    Type
                         _______ _______ _______ _____ _____    ______ ____

>  <TORSDO>
F 11

$$$$
=
 OpenBabel10272414063D

 43 48  0  0  1  0  0  0  0  0999 V2000
  190.8380  176.8320  146.2810 C   0  0  0  0  0  0  0  0  0  0  0  0
  189.6800  177.7190  141.4410 C   0  0  0  0  0  0  0  0  0  0  0  0
  186.9290  178.3960  141.3910 C   0  0  0  0  0  0  0  0  0  0  0  0
  190.9190  177.1080  143.8940 C   0  0  0  0  0  0  0  0  0  0  0  0
  189.5380  177.1190  146.3580 C   0  0  0  0  0  3  0  0  0  0  0  0
  191.5950  176.5110  147.5200 C   0  0  0  0  0  1  0  0  0  0  0  0
  189.5440  177.4310  143.8630 C   0  0  0  0  0  0  0  0  0  0  0  0
  191.5150  176.8300  145.0160 N   0  0  0  0  0  0  0  0  0  0  0  0
  188.7300  177.4480  145.1330 C   0  0  0  0  0  3  0  0  0  0  0  0
  187.5660  178.0670  142.5950 O   0  0  0  0  0  0  0  0  0  0  0  0
  188.9300  177.7390  142.6380 C   0  0  0  0  0  0  0  0  0  0  0  0
  191.0440  177.3880  141.4910 C   0  0  0  0  0  2  0  0  0  0  0  0
  189.0710  178.0210  140.2740 C   0  0  0  0  0  0  0  0  0  0  0  0
  187.6370  178.3790  140.2540 C   0  0  0  0  0  3  0  0  0  0  0  0
  191.6560  177.0880  142.7090 C   0  0  0  0  0  3  0  0  0  0  0  0
  185.5330  178.7490  141.3910 N   0  0  0  0  0  0  0  0  0  0  0  0
  184.7780  178.7930  142.6400 C   0  0  0  0  0  1  0  0  0  0  0  0
  184.9060  179.2700  140.1770 C   0  0  2  0  0  3  0  0  0  0  0  0
  183.9410  178.2460  139.6000 C   0  0  2  0  0  3  0  0  0  0  0  0
  185.3020  178.4320  138.9730 C   0  0  0  0  0  2  0  0  0  0  0  0
  182.8980  178.9720  138.7720 C   0  0  0  0  0  2  0  0  0  0  0  0
  181.5880  178.2010  138.7860 C   0  0  2  0  0  3  0  0  0  0  0  0
  180.7160  175.7910  139.5160 S   0  0  0  0  0  0  0  0  0  0  0  0
  180.9770  178.2710  140.1010 N   0  0  0  0  0  2  0  0  0  0  0  0
  181.8490  176.7470  138.4790 C   0  0  1  0  0  3  0  0  0  0  0  0
  179.9850  177.2780  140.1340 N   0  0  0  0  0  2  0  0  0  0  0  0
  182.3580  175.4260  136.3560 N   0  0  0  0  0  0  0  0  0  0  0  0
  181.6180  176.4590  137.0260 C   0  0  0  0  0  0  0  0  0  0  0  0
  182.2360  175.2600  134.9160 C   0  0  0  0  0  1  0  0  0  0  0  0
  180.7770  177.1470  136.3840 O   0  0  0  0  0  0  0  0  0  0  0  0
  183.3400  174.6050  137.0570 C   0  0  0  0  0  2  0  0  0  0  0  0
  183.7220  173.3840  136.2300 C   0  0  0  0  0  2  0  0  0  0  0  0
  185.1310  173.1380  138.1470 O   0  0  0  0  0  1  0  0  0  0  0  0
  184.7390  172.5180  136.9580 C   0  0  0  0  0  2  0  0  0  0  0  0
  189.8010  177.9740  138.9630 C   0  0  0  0  0  2  0  0  0  0  0  0
  187.6380  178.1340  135.8540 C   0  0  0  0  0  3  0  0  0  0  0  0
  187.0750  176.8530  135.8360 C   0  0  0  0  0  0  0  0  0  0  0  0
  188.3140  176.2900  137.8470 C   0  0  0  0  0  3  0  0  0  0  0  0
  188.5330  178.4940  136.8660 C   0  0  0  0  0  3  0  0  0  0  0  0
  188.8750  177.5720  137.8610 C   0  0  0  0  0  0  0  0  0  0  0  0
  187.4190  175.9310  136.8350 C   0  0  0  0  0  3  0  0  0  0  0  0
  184.9890  177.1160  134.7210 O   0  0  0  0  0  1  0  0  0  0  0  0
  186.1800  176.5120  134.8230 O   0  0  0  0  0  0  0  0  0  0  0  0
  1  5  1  0  0  0  0
  1  6  1  0  0  0  0
  2 12  1  0  0  0  0
  2 11  1  0  0  0  0
  3 16  1  0  0  0  0
  3 10  1  0  0  0  0
  4  8  1  0  0  0  0
  7  4  1  0  0  0  0
  7  9  1  0  0  0  0
  8  1  2  0  0  0  0
  9  5  2  0  0  0  0
 10 11  1  0  0  0  0
 11  7  2  0  0  0  0
 12 15  1  0  0  0  0
 13  2  2  0  0  0  0
 14 13  1  0  0  0  0
 14  3  2  0  0  0  0
 15  4  2  0  0  0  0
 16 17  1  0  0  0  0
 18 16  1  1  0  0  0
 19 21  1  6  0  0  0
 19 18  1  0  0  0  0
 20 19  1  0  0  0  0
 20 18  1  0  0  0  0
 22 21  1  1  0  0  0
 22 24  1  0  0  0  0
 23 26  1  0  0  0  0
 24 26  1  0  0  0  0
 25 28  1  6  0  0  0
 25 22  1  0  0  0  0
 25 23  1  0  0  0  0
 27 28  1  0  0  0  0
 27 31  1  0  0  0  0
 29 27  1  0  0  0  0
 30 28  2  0  0  0  0
 32 34  1  0  0  0  0
 32 31  1  0  0  0  0
 34 33  1  0  0  0  0
 35 13  1  0  0  0  0
 36 39  1  0  0  0  0
 37 36  2  0  0  0  0
 37 41  1  0  0  0  0
 38 40  1  0  0  0  0
 39 40  2  0  0  0  0
 40 35  1  0  0  0  0
 41 38  2  0  0  0  0
 42 43  1  0  0  0  0
 43 37  1  0  0  0  0
M  END
>  <MODEL>
9

>  <REMARK>
 VINA RESULT:      -8.9      3.677      6.804
  Name = 
  11 active torsions:
  status: ('A' for Active; 'I' for Inactive)
    1  A    between atoms: C_1  and  C_34
    2  A    between atoms: C_1  and  C_35
    3  A    between atoms: N_2  and  C_6
    4  A    between atoms: N_2  and  C_13
    5  A    between atoms: C_3  and  C_4
    6  A    between atoms: C_3  and  C_12
    7  A    between atoms: N_11  and  C_36
    8  A    between atoms: C_14  and  C_22
    9  A    between atoms: C_19  and  O_37
   10  A    between atoms: C_29  and  C_31
   11  A    between atoms: C_29  and  C_36
                            x       y       z     vdW  Elec       q    Type
                         _______ _______ _______ _____ _____    ______ ____

>  <TORSDO>
F 11

$$$$
