=
 OpenBabel10272413153D

 32 36  0  0  1  0  0  0  0  0999 V2000
  190.1800  177.4990  140.6590 O   0  0  0  0  0  0  0  0  0  0  0  0
  188.9830  177.2410  142.6990 C   0  0  0  0  0  0  0  0  0  0  0  0
  190.1910  177.6750  139.2420 C   0  0  2  0  0  3  0  0  0  0  0  0
  188.9950  177.5710  141.4020 C   0  0  0  0  0  0  0  0  0  0  0  0
  187.6820  177.2020  143.4680 C   0  0  1  0  0  3  0  0  0  0  0  0
  191.5200  176.6540  146.8010 C   0  0  0  0  0  3  0  0  0  0  0  0
  190.2170  176.8780  143.4150 C   0  0  0  0  0  2  0  0  0  0  0  0
  189.1910  177.3100  146.9090 C   0  0  0  0  0  3  0  0  0  0  0  0
  189.0880  177.2110  145.5180 C   0  0  0  0  0  0  0  0  0  0  0  0
  187.7950  178.0650  140.7790 N   0  0  0  0  0  0  0  0  0  0  0  0
  187.9010  177.4430  144.9390 C   0  0  0  0  0  2  0  0  0  0  0  0
  186.6330  178.3630  141.5650 C   0  0  0  0  0  3  0  0  0  0  0  0
  187.7500  178.2980  139.3400 C   0  0  0  0  0  2  0  0  0  0  0  0
  190.2360  176.8620  144.7550 C   0  0  0  0  0  0  0  0  0  0  0  0
  186.5840  178.0460  142.8620 C   0  0  0  0  0  0  0  0  0  0  0  0
  189.1270  178.6870  138.8030 C   0  0  0  0  0  2  0  0  0  0  0  0
  190.4010  177.0290  147.5500 C   0  0  0  0  0  3  0  0  0  0  0  0
  191.4380  176.5760  145.4080 C   0  0  0  0  0  3  0  0  0  0  0  0
  189.0150  176.2110  137.5390 N   0  0  0  0  0  2  0  0  0  0  0  0
  190.0200  176.3610  138.5440 C   0  0  0  0  0  0  0  0  0  0  0  0
  190.7890  175.4040  138.8280 O   0  0  0  0  0  0  0  0  0  0  0  0
  189.2870  175.0120  135.3490 C   0  0  2  0  0  0  0  0  0  0  0  0
  186.0400  173.7850  134.8850 O   0  0  0  0  0  0  0  0  0  0  0  0
  189.5490  176.4290  134.8490 C   0  0  0  0  0  1  0  0  0  0  0  0
  187.2960  174.6300  136.7650 C   0  0  0  0  0  2  0  0  0  0  0  0
  188.2380  174.4470  134.5840 O   0  0  0  0  0  0  0  0  0  0  0  0
  188.7880  174.9630  136.8200 C   0  0  2  0  0  3  0  0  0  0  0  0
  187.1130  174.2450  135.3530 C   0  0  0  0  0  0  0  0  0  0  0  0
  190.5600  174.1910  135.1870 C   0  0  0  0  0  2  0  0  0  0  0  0
  190.7110  173.2930  136.2460 O   0  0  0  0  0  1  0  0  0  0  0  0
  185.3240  178.3100  143.6140 C   0  0  0  0  0  2  0  0  0  0  0  0
  184.1980  178.3450  142.6960 N   0  0  0  0  0  1  0  0  0  0  0  0
  1  4  1  0  0  0  0
  2  7  1  0  0  0  0
  2  5  1  0  0  0  0
  3 20  1  6  0  0  0
  3  1  1  0  0  0  0
  4  2  2  0  0  0  0
  5 11  1  1  0  0  0
  6 17  1  0  0  0  0
  7 14  1  0  0  0  0
  8 17  2  0  0  0  0
  9  8  1  0  0  0  0
 10  4  1  0  0  0  0
 10 12  1  0  0  0  0
 11  9  1  0  0  0  0
 12 15  2  0  0  0  0
 13 10  1  0  0  0  0
 14 18  1  0  0  0  0
 14  9  2  0  0  0  0
 15  5  1  0  0  0  0
 15 31  1  0  0  0  0
 16  3  1  0  0  0  0
 16 13  1  0  0  0  0
 18  6  2  0  0  0  0
 19 20  1  0  0  0  0
 20 21  2  0  0  0  0
 22 24  1  6  0  0  0
 22 27  1  0  0  0  0
 23 28  2  0  0  0  0
 25 27  1  0  0  0  0
 26 22  1  0  0  0  0
 26 28  1  0  0  0  0
 27 19  1  6  0  0  0
 28 25  1  0  0  0  0
 29 22  1  0  0  0  0
 29 30  1  0  0  0  0
 32 31  1  0  0  0  0
M  END
>  <MODEL>
1

>  <REMARK>
 VINA RESULT:      -9.5      0.000      0.000
  Name = 
  4 active torsions:
  status: ('A' for Active; 'I' for Inactive)
    1  A    between atoms: C_3  and  C_22
    2  A    between atoms: C_4  and  C_24
    3  A    between atoms: C_13  and  C_29
    4  A    between atoms: N_16  and  C_20
                            x       y       z     vdW  Elec       q    Type
                         _______ _______ _______ _____ _____    ______ ____

>  <TORSDO>
F 4

$$$$
=
 OpenBabel10272413153D

 32 36  0  0  1  0  0  0  0  0999 V2000
  189.8410  177.9760  141.5690 O   0  0  0  0  0  0  0  0  0  0  0  0
  188.0850  177.7340  143.1560 C   0  0  0  0  0  0  0  0  0  0  0  0
  190.2880  178.0310  140.2140 C   0  0  2  0  0  3  0  0  0  0  0  0
  188.4800  177.9520  141.8960 C   0  0  0  0  0  0  0  0  0  0  0  0
  186.6170  177.5870  143.4850 C   0  0  1  0  0  3  0  0  0  0  0  0
  189.2170  177.8390  147.8800 C   0  0  0  0  0  3  0  0  0  0  0  0
  189.0540  177.6010  144.2560 C   0  0  0  0  0  2  0  0  0  0  0  0
  186.9230  178.1850  147.1840 C   0  0  0  0  0  3  0  0  0  0  0  0
  187.2820  177.9570  145.8510 C   0  0  0  0  0  0  0  0  0  0  0  0
  187.5000  178.2270  140.8770 N   0  0  0  0  0  0  0  0  0  0  0  0
  186.3270  177.9790  144.9110 C   0  0  0  0  0  2  0  0  0  0  0  0
  186.1240  178.4330  141.2240 C   0  0  0  0  0  3  0  0  0  0  0  0
  187.8960  178.3300  139.4770 C   0  0  0  0  0  2  0  0  0  0  0  0
  188.6430  177.7000  145.5280 C   0  0  0  0  0  0  0  0  0  0  0  0
  185.6930  178.2220  142.4710 C   0  0  0  0  0  0  0  0  0  0  0  0
  189.3270  178.8520  139.3480 C   0  0  0  0  0  2  0  0  0  0  0  0
  187.8860  178.1240  148.1950 C   0  0  0  0  0  3  0  0  0  0  0  0
  189.5950  177.6330  146.5500 C   0  0  0  0  0  3  0  0  0  0  0  0
  191.2760  176.4570  138.4910 N   0  0  0  0  0  2  0  0  0  0  0  0
  190.4830  176.6530  139.6640 C   0  0  0  0  0  0  0  0  0  0  0  0
  189.9690  175.6690  140.2600 O   0  0  0  0  0  0  0  0  0  0  0  0
  192.8000  175.0900  137.0360 C   0  0  2  0  0  0  0  0  0  0  0  0
  190.4810  173.7100  134.8030 O   0  0  0  0  0  0  0  0  0  0  0  0
  193.3430  176.4680  136.6750 C   0  0  0  0  0  1  0  0  0  0  0  0
  190.3510  174.7550  136.9750 C   0  0  0  0  0  2  0  0  0  0  0  0
  192.4220  174.4250  135.8440 O   0  0  0  0  0  0  0  0  0  0  0  0
  191.5080  175.1460  137.8960 C   0  0  2  0  0  3  0  0  0  0  0  0
  191.0570  174.2470  135.7840 C   0  0  0  0  0  0  0  0  0  0  0  0
  193.8900  174.3060  137.7550 C   0  0  0  0  0  2  0  0  0  0  0  0
  194.7630  175.1670  138.4240 O   0  0  0  0  0  1  0  0  0  0  0  0
  184.2380  178.3790  142.7600 C   0  0  0  0  0  2  0  0  0  0  0  0
  183.4840  178.3670  141.5180 N   0  0  0  0  0  1  0  0  0  0  0  0
  1  4  1  0  0  0  0
  2  5  1  0  0  0  0
  2  7  1  0  0  0  0
  3 20  1  6  0  0  0
  3  1  1  0  0  0  0
  4  2  2  0  0  0  0
  5 11  1  1  0  0  0
  6 17  1  0  0  0  0
  7 14  1  0  0  0  0
  8 17  2  0  0  0  0
  9  8  1  0  0  0  0
 10 12  1  0  0  0  0
 10  4  1  0  0  0  0
 11  9  1  0  0  0  0
 12 15  2  0  0  0  0
 13 10  1  0  0  0  0
 14  9  2  0  0  0  0
 14 18  1  0  0  0  0
 15 31  1  0  0  0  0
 15  5  1  0  0  0  0
 16 13  1  0  0  0  0
 16  3  1  0  0  0  0
 18  6  2  0  0  0  0
 19 20  1  0  0  0  0
 20 21  2  0  0  0  0
 22 24  1  6  0  0  0
 22 29  1  0  0  0  0
 22 27  1  0  0  0  0
 23 28  2  0  0  0  0
 25 27  1  0  0  0  0
 26 22  1  0  0  0  0
 27 19  1  6  0  0  0
 28 26  1  0  0  0  0
 28 25  1  0  0  0  0
 29 30  1  0  0  0  0
 32 31  1  0  0  0  0
M  END
>  <MODEL>
2

>  <REMARK>
 VINA RESULT:      -8.8      1.849      2.563
  Name = 
  4 active torsions:
  status: ('A' for Active; 'I' for Inactive)
    1  A    between atoms: C_3  and  C_22
    2  A    between atoms: C_4  and  C_24
    3  A    between atoms: C_13  and  C_29
    4  A    between atoms: N_16  and  C_20
                            x       y       z     vdW  Elec       q    Type
                         _______ _______ _______ _____ _____    ______ ____

>  <TORSDO>
F 4

$$$$
=
 OpenBabel10272413153D

 32 36  0  0  1  0  0  0  0  0999 V2000
  190.1300  177.5810  140.5360 O   0  0  0  0  0  0  0  0  0  0  0  0
  188.9830  177.2510  142.5940 C   0  0  0  0  0  0  0  0  0  0  0  0
  190.1070  177.8040  139.1260 C   0  0  2  0  0  3  0  0  0  0  0  0
  188.9630  177.6230  141.3090 C   0  0  0  0  0  0  0  0  0  0  0  0
  187.7010  177.1810  143.3910 C   0  0  1  0  0  3  0  0  0  0  0  0
  191.6180  176.5380  146.6140 C   0  0  0  0  0  3  0  0  0  0  0  0
  190.2350  176.8690  143.2680 C   0  0  0  0  0  2  0  0  0  0  0  0
  189.2900  177.1810  146.7980 C   0  0  0  0  0  3  0  0  0  0  0  0
  189.1550  177.1280  145.4070 C   0  0  0  0  0  0  0  0  0  0  0  0
  187.7470  178.1330  140.7310 N   0  0  0  0  0  0  0  0  0  0  0  0
  187.9530  177.3740  144.8640 C   0  0  0  0  0  2  0  0  0  0  0  0
  186.6030  178.4010  141.5530 C   0  0  0  0  0  3  0  0  0  0  0  0
  187.6670  178.4130  139.3010 C   0  0  0  0  0  2  0  0  0  0  0  0
  190.2850  176.8090  144.6060 C   0  0  0  0  0  0  0  0  0  0  0  0
  186.5860  178.0400  142.8400 C   0  0  0  0  0  0  0  0  0  0  0  0
  189.0300  178.8250  138.7450 C   0  0  0  0  0  2  0  0  0  0  0  0
  190.5160  176.8840  147.4000 C   0  0  0  0  0  3  0  0  0  0  0  0
  191.5040  176.5060  145.2210 C   0  0  0  0  0  3  0  0  0  0  0  0
  189.1750  176.4850  137.1720 N   0  0  0  0  0  2  0  0  0  0  0  0
  189.9240  176.5140  138.3890 C   0  0  0  0  0  0  0  0  0  0  0  0
  190.4620  175.4650  138.8330 O   0  0  0  0  0  0  0  0  0  0  0  0
  187.4620  175.0550  136.0200 C   0  0  2  0  0  0  0  0  0  0  0  0
  188.2320  171.9200  137.3780 O   0  0  0  0  0  0  0  0  0  0  0  0
  186.5030  175.9210  136.8300 C   0  0  0  0  0  1  0  0  0  0  0  0
  189.3810  174.0340  137.1980 C   0  0  0  0  0  2  0  0  0  0  0  0
  187.1970  173.6930  136.3090 O   0  0  0  0  0  0  0  0  0  0  0  0
  188.9530  175.2670  136.4010 C   0  0  2  0  0  3  0  0  0  0  0  0
  188.2490  173.1140  136.9830 C   0  0  0  0  0  0  0  0  0  0  0  0
  187.2420  175.3320  134.5390 C   0  0  0  0  0  2  0  0  0  0  0  0
  186.6970  176.6040  134.3460 O   0  0  0  0  0  1  0  0  0  0  0  0
  185.3420  178.2740  143.6300 C   0  0  0  0  0  2  0  0  0  0  0  0
  184.2260  178.5190  142.7340 N   0  0  0  0  0  1  0  0  0  0  0  0
  1  4  1  0  0  0  0
  2  7  1  0  0  0  0
  2  5  1  0  0  0  0
  3 20  1  6  0  0  0
  3  1  1  0  0  0  0
  4  2  2  0  0  0  0
  5 11  1  1  0  0  0
  6 17  1  0  0  0  0
  7 14  1  0  0  0  0
  8 17  2  0  0  0  0
  9  8  1  0  0  0  0
 10  4  1  0  0  0  0
 10 12  1  0  0  0  0
 11  9  1  0  0  0  0
 12 15  2  0  0  0  0
 13 10  1  0  0  0  0
 14 18  1  0  0  0  0
 14  9  2  0  0  0  0
 15  5  1  0  0  0  0
 15 31  1  0  0  0  0
 16  3  1  0  0  0  0
 16 13  1  0  0  0  0
 18  6  2  0  0  0  0
 19 20  1  0  0  0  0
 20 21  2  0  0  0  0
 22 26  1  0  0  0  0
 22 27  1  0  0  0  0
 22 24  1  1  0  0  0
 26 28  1  0  0  0  0
 27 19  1  1  0  0  0
 27 25  1  0  0  0  0
 28 25  1  0  0  0  0
 28 23  2  0  0  0  0
 29 22  1  0  0  0  0
 30 29  1  0  0  0  0
 32 31  1  0  0  0  0
M  END
>  <MODEL>
3

>  <REMARK>
 VINA RESULT:      -8.5      0.986      1.687
  Name = 
  4 active torsions:
  status: ('A' for Active; 'I' for Inactive)
    1  A    between atoms: C_3  and  C_22
    2  A    between atoms: C_4  and  C_24
    3  A    between atoms: C_13  and  C_29
    4  A    between atoms: N_16  and  C_20
                            x       y       z     vdW  Elec       q    Type
                         _______ _______ _______ _____ _____    ______ ____

>  <TORSDO>
F 4

$$$$
=
 OpenBabel10272413153D

 32 36  0  0  1  0  0  0  0  0999 V2000
  185.4220  178.4360  140.8160 O   0  0  0  0  0  0  0  0  0  0  0  0
  186.4720  177.9100  142.8850 C   0  0  0  0  0  0  0  0  0  0  0  0
  184.2390  178.6490  140.0450 C   0  0  2  0  0  3  0  0  0  0  0  0
  185.3770  178.2710  142.2060 C   0  0  0  0  0  0  0  0  0  0  0  0
  186.3930  177.6130  144.3650 C   0  0  1  0  0  3  0  0  0  0  0  0
  191.3240  177.6840  143.0160 C   0  0  0  0  0  3  0  0  0  0  0  0
  187.7770  177.7580  142.2210 C   0  0  0  0  0  2  0  0  0  0  0  0
  190.0730  177.9010  145.0780 C   0  0  0  0  0  3  0  0  0  0  0  0
  188.8700  177.8230  144.3690 C   0  0  0  0  0  0  0  0  0  0  0  0
  184.1570  178.5550  142.9150 N   0  0  0  0  0  0  0  0  0  0  0  0
  187.7140  177.8500  145.0490 C   0  0  0  0  0  2  0  0  0  0  0  0
  184.1420  178.6150  144.3480 C   0  0  0  0  0  3  0  0  0  0  0  0
  182.9200  178.8140  142.1870 C   0  0  0  0  0  2  0  0  0  0  0  0
  188.9000  177.7100  142.9510 C   0  0  0  0  0  0  0  0  0  0  0  0
  185.2150  178.2580  145.0590 C   0  0  0  0  0  0  0  0  0  0  0  0
  183.2050  179.4620  140.8320 C   0  0  0  0  0  2  0  0  0  0  0  0
  191.2960  177.8290  144.4050 C   0  0  0  0  0  3  0  0  0  0  0  0
  190.1300  177.6300  142.2910 C   0  0  0  0  0  3  0  0  0  0  0  0
  184.0540  176.8150  138.3050 N   0  0  0  0  0  2  0  0  0  0  0  0
  183.6710  177.3460  139.5760 C   0  0  0  0  0  0  0  0  0  0  0  0
  182.8810  176.7100  140.3230 O   0  0  0  0  0  0  0  0  0  0  0  0
  184.5830  174.7870  136.9220 C   0  0  2  0  0  0  0  0  0  0  0  0
  181.8190  174.7440  134.7710 O   0  0  0  0  0  0  0  0  0  0  0  0
  185.7600  175.6520  136.4860 C   0  0  0  0  0  1  0  0  0  0  0  0
  182.3250  175.7940  136.8840 C   0  0  0  0  0  2  0  0  0  0  0  0
  183.8750  174.3700  135.7680 O   0  0  0  0  0  0  0  0  0  0  0  0
  183.5410  175.5550  137.7800 C   0  0  2  0  0  3  0  0  0  0  0  0
  182.6210  174.9380  135.7200 C   0  0  0  0  0  0  0  0  0  0  0  0
  185.1160  173.5780  137.6790 C   0  0  0  0  0  2  0  0  0  0  0  0
  184.3390  172.4460  137.4190 O   0  0  0  0  0  1  0  0  0  0  0  0
  185.1210  178.2680  146.5480 C   0  0  0  0  0  2  0  0  0  0  0  0
  185.5700  179.5500  147.0630 N   0  0  0  0  0  1  0  0  0  0  0  0
  1  4  1  0  0  0  0
  2  5  1  0  0  0  0
  3 20  1  1  0  0  0
  3  1  1  0  0  0  0
  3 16  1  0  0  0  0
  4  2  2  0  0  0  0
  4 10  1  0  0  0  0
  5 11  1  1  0  0  0
  5 15  1  0  0  0  0
  6 17  1  0  0  0  0
  7  2  1  0  0  0  0
  7 14  1  0  0  0  0
  9 11  1  0  0  0  0
  9  8  1  0  0  0  0
 10 12  1  0  0  0  0
 12 15  2  0  0  0  0
 13 10  1  0  0  0  0
 14  9  2  0  0  0  0
 15 31  1  0  0  0  0
 16 13  1  0  0  0  0
 17  8  2  0  0  0  0
 18 14  1  0  0  0  0
 18  6  2  0  0  0  0
 19 20  1  0  0  0  0
 20 21  2  0  0  0  0
 22 24  1  6  0  0  0
 22 29  1  0  0  0  0
 22 27  1  0  0  0  0
 23 28  2  0  0  0  0
 25 27  1  0  0  0  0
 26 22  1  0  0  0  0
 27 19  1  6  0  0  0
 28 26  1  0  0  0  0
 28 25  1  0  0  0  0
 30 29  1  0  0  0  0
 31 32  1  0  0  0  0
M  END
>  <MODEL>
4

>  <REMARK>
 VINA RESULT:      -7.8      3.244      4.527
  Name = 
  4 active torsions:
  status: ('A' for Active; 'I' for Inactive)
    1  A    between atoms: C_3  and  C_22
    2  A    between atoms: C_4  and  C_24
    3  A    between atoms: C_13  and  C_29
    4  A    between atoms: N_16  and  C_20
                            x       y       z     vdW  Elec       q    Type
                         _______ _______ _______ _____ _____    ______ ____

>  <TORSDO>
F 4

$$$$
=
 OpenBabel10272413153D

 32 36  0  0  1  0  0  0  0  0999 V2000
  186.5180  178.5510  139.8050 O   0  0  0  0  0  0  0  0  0  0  0  0
  186.9690  178.0300  142.0810 C   0  0  0  0  0  0  0  0  0  0  0  0
  185.5870  178.7870  138.7480 C   0  0  2  0  0  3  0  0  0  0  0  0
  186.1040  178.4130  141.1350 C   0  0  0  0  0  0  0  0  0  0  0  0
  186.4940  177.7640  143.4910 C   0  0  1  0  0  3  0  0  0  0  0  0
  191.6060  177.6480  143.4840 C   0  0  0  0  0  3  0  0  0  0  0  0
  188.3970  177.8230  141.7850 C   0  0  0  0  0  2  0  0  0  0  0  0
  189.8670  177.9450  145.1430 C   0  0  0  0  0  3  0  0  0  0  0  0
  188.8900  177.8940  144.1430 C   0  0  0  0  0  0  0  0  0  0  0  0
  184.7520  178.7510  141.4970 N   0  0  0  0  0  0  0  0  0  0  0  0
  187.5990  177.9710  144.4960 C   0  0  0  0  0  2  0  0  0  0  0  0
  184.3650  178.8380  142.8740 C   0  0  0  0  0  3  0  0  0  0  0  0
  183.7600  179.0360  140.4670 C   0  0  0  0  0  2  0  0  0  0  0  0
  189.2860  177.7520  142.7850 C   0  0  0  0  0  0  0  0  0  0  0  0
  185.2010  178.4610  143.8460 C   0  0  0  0  0  0  0  0  0  0  0  0
  184.4140  179.6480  139.2280 C   0  0  0  0  0  2  0  0  0  0  0  0
  191.2200  177.8210  144.8160 C   0  0  0  0  0  3  0  0  0  0  0  0
  190.6420  177.6200  142.4720 C   0  0  0  0  0  3  0  0  0  0  0  0
  183.7320  177.1390  138.2320 N   0  0  0  0  0  2  0  0  0  0  0  0
  185.1150  177.4950  138.1590 C   0  0  0  0  0  0  0  0  0  0  0  0
  185.9380  176.7430  137.5730 O   0  0  0  0  0  0  0  0  0  0  0  0
  182.5180  176.0880  136.3010 C   0  0  2  0  0  0  0  0  0  0  0  0
  180.0280  174.3100  138.0050 O   0  0  0  0  0  0  0  0  0  0  0  0
  182.2040  177.5450  135.9800 C   0  0  0  0  0  1  0  0  0  0  0  0
  182.1420  175.3010  138.6150 C   0  0  0  0  0  2  0  0  0  0  0  0
  181.3000  175.3700  136.3870 O   0  0  0  0  0  0  0  0  0  0  0  0
  183.1990  175.8970  137.6840 C   0  0  2  0  0  3  0  0  0  0  0  0
  181.0650  174.9400  137.6740 C   0  0  0  0  0  0  0  0  0  0  0  0
  183.3900  175.5180  135.1900 C   0  0  0  0  0  2  0  0  0  0  0  0
  184.3050  174.5940  135.7010 O   0  0  0  0  0  1  0  0  0  0  0  0
  184.7200  178.5020  145.2570 C   0  0  0  0  0  2  0  0  0  0  0  0
  183.4280  179.1630  145.3200 N   0  0  0  0  0  1  0  0  0  0  0  0
  1  4  1  0  0  0  0
  2  5  1  0  0  0  0
  3 20  1  1  0  0  0
  3 16  1  0  0  0  0
  3  1  1  0  0  0  0
  4 10  1  0  0  0  0
  4  2  2  0  0  0  0
  5 15  1  0  0  0  0
  5 11  1  1  0  0  0
  6 17  1  0  0  0  0
  7  2  1  0  0  0  0
  7 14  1  0  0  0  0
  9 11  1  0  0  0  0
  9  8  1  0  0  0  0
 10 12  1  0  0  0  0
 12 15  2  0  0  0  0
 13 10  1  0  0  0  0
 14  9  2  0  0  0  0
 15 31  1  0  0  0  0
 16 13  1  0  0  0  0
 17  8  2  0  0  0  0
 18 14  1  0  0  0  0
 18  6  2  0  0  0  0
 20 19  1  0  0  0  0
 21 20  2  0  0  0  0
 22 24  1  6  0  0  0
 22 26  1  0  0  0  0
 22 27  1  0  0  0  0
 26 28  1  0  0  0  0
 27 19  1  1  0  0  0
 27 25  1  0  0  0  0
 28 23  2  0  0  0  0
 28 25  1  0  0  0  0
 29 30  1  0  0  0  0
 29 22  1  0  0  0  0
 31 32  1  0  0  0  0
M  END
>  <MODEL>
5

>  <REMARK>
 VINA RESULT:      -7.8      3.414      4.553
  Name = 
  4 active torsions:
  status: ('A' for Active; 'I' for Inactive)
    1  A    between atoms: C_3  and  C_22
    2  A    between atoms: C_4  and  C_24
    3  A    between atoms: C_13  and  C_29
    4  A    between atoms: N_16  and  C_20
                            x       y       z     vdW  Elec       q    Type
                         _______ _______ _______ _____ _____    ______ ____

>  <TORSDO>
F 4

$$$$
=
 OpenBabel10272413153D

 32 36  0  0  1  0  0  0  0  0999 V2000
  187.0480  178.8350  139.5800 O   0  0  0  0  0  0  0  0  0  0  0  0
  185.2330  177.8760  138.3790 C   0  0  0  0  0  0  0  0  0  0  0  0
  188.3860  178.7600  140.0720 C   0  0  2  0  0  3  0  0  0  0  0  0
  186.5320  177.8790  138.6960 C   0  0  0  0  0  0  0  0  0  0  0  0
  184.6560  176.7720  137.5230 C   0  0  1  0  0  3  0  0  0  0  0  0
  181.0770  180.3780  138.0970 C   0  0  0  0  0  3  0  0  0  0  0  0
  184.3150  178.9180  138.8690 C   0  0  0  0  0  2  0  0  0  0  0  0
  181.4960  178.5620  136.5500 C   0  0  0  0  0  3  0  0  0  0  0  0
  182.7000  178.2730  137.2000 C   0  0  0  0  0  0  0  0  0  0  0  0
  187.4230  176.9330  138.0760 N   0  0  0  0  0  0  0  0  0  0  0  0
  183.4330  177.2340  136.7730 C   0  0  0  0  0  2  0  0  0  0  0  0
  186.9670  176.0980  137.0030 C   0  0  0  0  0  3  0  0  0  0  0  0
  188.8110  176.8290  138.5090 C   0  0  0  0  0  2  0  0  0  0  0  0
  183.1140  179.0780  138.2970 C   0  0  0  0  0  0  0  0  0  0  0  0
  185.6760  176.0660  136.6610 C   0  0  0  0  0  0  0  0  0  0  0  0
  189.3310  178.1740  139.0180 C   0  0  0  0  0  2  0  0  0  0  0  0
  180.6850  179.6090  136.9980 C   0  0  0  0  0  3  0  0  0  0  0  0
  182.2890  180.1160  138.7410 C   0  0  0  0  0  3  0  0  0  0  0  0
  189.7000  177.6560  141.9380 N   0  0  0  0  0  2  0  0  0  0  0  0
  188.4380  177.9810  141.3500 C   0  0  0  0  0  0  0  0  0  0  0  0
  187.3640  177.6440  141.9140 O   0  0  0  0  0  0  0  0  0  0  0  0
  190.5430  177.6970  144.3040 C   0  0  2  0  0  0  0  0  0  0  0  0
  192.3600  174.7040  144.3840 O   0  0  0  0  0  0  0  0  0  0  0  0
  191.2900  178.9240  143.7920 C   0  0  0  0  0  1  0  0  0  0  0  0
  190.6490  175.6270  142.9550 C   0  0  0  0  0  2  0  0  0  0  0  0
  191.4810  176.7930  144.8590 O   0  0  0  0  0  0  0  0  0  0  0  0
  189.8290  176.8990  143.1780 C   0  0  2  0  0  3  0  0  0  0  0  0
  191.5680  175.6410  144.1080 C   0  0  0  0  0  0  0  0  0  0  0  0
  189.5430  178.1380  145.3650 C   0  0  0  0  0  2  0  0  0  0  0  0
  188.2940  177.5540  145.1440 O   0  0  0  0  0  1  0  0  0  0  0  0
  185.2450  175.1220  135.5880 C   0  0  0  0  0  2  0  0  0  0  0  0
  185.8740  173.8280  135.7860 N   0  0  0  0  0  1  0  0  0  0  0  0
  1  3  1  0  0  0  0
  2  4  2  0  0  0  0
  2  7  1  0  0  0  0
  3 20  1  1  0  0  0
  4  1  1  0  0  0  0
  5 11  1  6  0  0  0
  5  2  1  0  0  0  0
  6 18  1  0  0  0  0
  8 17  1  0  0  0  0
  8  9  2  0  0  0  0
  9 14  1  0  0  0  0
 10 13  1  0  0  0  0
 10  4  1  0  0  0  0
 11  9  1  0  0  0  0
 12 10  1  0  0  0  0
 13 16  1  0  0  0  0
 14 18  2  0  0  0  0
 14  7  1  0  0  0  0
 15 12  2  0  0  0  0
 15  5  1  0  0  0  0
 16  3  1  0  0  0  0
 17  6  2  0  0  0  0
 20 21  2  0  0  0  0
 20 19  1  0  0  0  0
 22 24  1  6  0  0  0
 22 26  1  0  0  0  0
 22 29  1  0  0  0  0
 25 27  1  0  0  0  0
 25 28  1  0  0  0  0
 27 19  1  6  0  0  0
 27 22  1  0  0  0  0
 28 23  2  0  0  0  0
 28 26  1  0  0  0  0
 30 29  1  0  0  0  0
 31 32  1  0  0  0  0
 31 15  1  0  0  0  0
M  END
>  <MODEL>
6

>  <REMARK>
 VINA RESULT:      -7.6      3.694      8.517
  Name = 
  4 active torsions:
  status: ('A' for Active; 'I' for Inactive)
    1  A    between atoms: C_3  and  C_22
    2  A    between atoms: C_4  and  C_24
    3  A    between atoms: C_13  and  C_29
    4  A    between atoms: N_16  and  C_20
                            x       y       z     vdW  Elec       q    Type
                         _______ _______ _______ _____ _____    ______ ____

>  <TORSDO>
F 4

$$$$
=
 OpenBabel10272413153D

 32 36  0  0  1  0  0  0  0  0999 V2000
  184.9680  178.7170  140.2480 O   0  0  0  0  0  0  0  0  0  0  0  0
  184.1670  178.3940  142.4650 C   0  0  0  0  0  0  0  0  0  0  0  0
  184.7190  178.8730  138.8510 C   0  0  2  0  0  3  0  0  0  0  0  0
  183.9280  178.7050  141.1860 C   0  0  0  0  0  0  0  0  0  0  0  0
  183.0270  178.2620  143.4480 C   0  0  1  0  0  3  0  0  0  0  0  0
  187.4160  178.0640  146.0630 C   0  0  0  0  0  3  0  0  0  0  0  0
  185.5320  178.1380  142.9550 C   0  0  0  0  0  2  0  0  0  0  0  0
  185.0960  178.5350  146.5750 C   0  0  0  0  0  3  0  0  0  0  0  0
  184.7620  178.4110  145.2230 C   0  0  0  0  0  0  0  0  0  0  0  0
  182.6020  179.0950  140.7810 N   0  0  0  0  0  0  0  0  0  0  0  0
  183.4770  178.5400  144.8590 C   0  0  0  0  0  2  0  0  0  0  0  0
  181.5750  179.3110  141.7570 C   0  0  0  0  0  3  0  0  0  0  0  0
  182.2900  179.3030  139.3720 C   0  0  0  0  0  2  0  0  0  0  0  0
  185.7840  178.1420  144.2710 C   0  0  0  0  0  0  0  0  0  0  0  0
  181.7770  179.0080  143.0430 C   0  0  0  0  0  0  0  0  0  0  0  0
  183.5180  179.7920  138.6030 C   0  0  0  0  0  2  0  0  0  0  0  0
  186.4180  178.3610  146.9950 C   0  0  0  0  0  3  0  0  0  0  0  0
  187.1010  177.9610  144.7060 C   0  0  0  0  0  3  0  0  0  0  0  0
  183.2200  177.0270  137.9740 N   0  0  0  0  0  2  0  0  0  0  0  0
  184.5350  177.5410  138.1930 C   0  0  0  0  0  0  0  0  0  0  0  0
  185.5460  176.8970  137.8070 O   0  0  0  0  0  0  0  0  0  0  0  0
  182.4540  175.8690  135.8810 C   0  0  2  0  0  0  0  0  0  0  0  0
  180.0600  173.6800  137.2020 O   0  0  0  0  0  0  0  0  0  0  0  0
  181.9650  177.2720  135.5380 C   0  0  0  0  0  1  0  0  0  0  0  0
  181.8940  174.9590  138.1110 C   0  0  0  0  0  2  0  0  0  0  0  0
  181.3610  174.9730  135.7890 O   0  0  0  0  0  0  0  0  0  0  0  0
  182.9630  175.7370  137.3430 C   0  0  2  0  0  3  0  0  0  0  0  0
  181.0230  174.4710  137.0260 C   0  0  0  0  0  0  0  0  0  0  0  0
  183.5450  175.4740  134.8950 C   0  0  0  0  0  2  0  0  0  0  0  0
  184.6600  174.9630  135.5650 O   0  0  0  0  0  1  0  0  0  0  0  0
  180.6480  179.1830  144.0030 C   0  0  0  0  0  2  0  0  0  0  0  0
  179.9850  177.9100  144.2230 N   0  0  0  0  0  1  0  0  0  0  0  0
  1  4  1  0  0  0  0
  2  7  1  0  0  0  0
  2  5  1  0  0  0  0
  3 20  1  1  0  0  0
  3  1  1  0  0  0  0
  4  2  2  0  0  0  0
  5 11  1  1  0  0  0
  6 17  1  0  0  0  0
  7 14  1  0  0  0  0
  8 17  2  0  0  0  0
  9  8  1  0  0  0  0
 10  4  1  0  0  0  0
 10 12  1  0  0  0  0
 11  9  1  0  0  0  0
 12 15  2  0  0  0  0
 13 10  1  0  0  0  0
 14 18  1  0  0  0  0
 14  9  2  0  0  0  0
 15  5  1  0  0  0  0
 15 31  1  0  0  0  0
 16  3  1  0  0  0  0
 16 13  1  0  0  0  0
 18  6  2  0  0  0  0
 19 20  1  0  0  0  0
 21 20  2  0  0  0  0
 22 24  1  6  0  0  0
 22 27  1  0  0  0  0
 26 22  1  0  0  0  0
 26 28  1  0  0  0  0
 27 19  1  1  0  0  0
 27 25  1  0  0  0  0
 28 23  2  0  0  0  0
 28 25  1  0  0  0  0
 29 30  1  0  0  0  0
 29 22  1  0  0  0  0
 31 32  1  0  0  0  0
M  END
>  <MODEL>
7

>  <REMARK>
 VINA RESULT:      -7.4      4.230      5.515
  Name = 
  4 active torsions:
  status: ('A' for Active; 'I' for Inactive)
    1  A    between atoms: C_3  and  C_22
    2  A    between atoms: C_4  and  C_24
    3  A    between atoms: C_13  and  C_29
    4  A    between atoms: N_16  and  C_20
                            x       y       z     vdW  Elec       q    Type
                         _______ _______ _______ _____ _____    ______ ____

>  <TORSDO>
F 4

$$$$
=
 OpenBabel10272413153D

 32 36  0  0  1  0  0  0  0  0999 V2000
  188.7640  178.4020  140.4800 O   0  0  0  0  0  0  0  0  0  0  0  0
  186.4490  178.2340  140.9980 C   0  0  0  0  0  0  0  0  0  0  0  0
  189.8310  178.3300  139.5340 C   0  0  2  0  0  3  0  0  0  0  0  0
  187.4230  178.3310  140.0860 C   0  0  0  0  0  0  0  0  0  0  0  0
  185.0130  178.0350  140.5690 C   0  0  1  0  0  3  0  0  0  0  0  0
  185.0600  178.9410  145.6010 C   0  0  0  0  0  3  0  0  0  0  0  0
  186.7350  178.2850  142.4420 C   0  0  0  0  0  2  0  0  0  0  0  0
  183.4260  179.0650  143.8170 C   0  0  0  0  0  3  0  0  0  0  0  0
  184.4040  178.7100  142.8820 C   0  0  0  0  0  0  0  0  0  0  0  0
  187.0870  178.4290  138.6890 N   0  0  0  0  0  0  0  0  0  0  0  0
  184.0490  178.5670  141.5970 C   0  0  0  0  0  2  0  0  0  0  0  0
  185.7230  178.5890  138.2760 C   0  0  0  0  0  3  0  0  0  0  0  0
  188.1320  178.3960  137.6720 C   0  0  0  0  0  2  0  0  0  0  0  0
  185.7420  178.5020  143.3150 C   0  0  0  0  0  0  0  0  0  0  0  0
  184.7250  178.4940  139.1580 C   0  0  0  0  0  0  0  0  0  0  0  0
  189.4370  178.9870  138.2060 C   0  0  0  0  0  2  0  0  0  0  0  0
  183.7510  179.1780  145.1720 C   0  0  0  0  0  3  0  0  0  0  0  0
  186.0530  178.6100  144.6750 C   0  0  0  0  0  3  0  0  0  0  0  0
  190.5470  176.4270  138.0190 N   0  0  0  0  0  2  0  0  0  0  0  0
  190.2700  176.9130  139.3350 C   0  0  0  0  0  0  0  0  0  0  0  0
  190.4220  176.1650  140.3380 O   0  0  0  0  0  0  0  0  0  0  0  0
  192.2520  174.9890  136.8660 C   0  0  2  0  0  0  0  0  0  0  0  0
  190.1560  172.7700  135.1480 O   0  0  0  0  0  0  0  0  0  0  0  0
  192.5680  176.3010  136.1560 C   0  0  0  0  0  1  0  0  0  0  0  0
  189.8860  174.2860  137.0060 C   0  0  0  0  0  2  0  0  0  0  0  0
  191.9710  174.0010  135.8900 O   0  0  0  0  0  0  0  0  0  0  0  0
  190.9760  175.0600  137.7490 C   0  0  2  0  0  3  0  0  0  0  0  0
  190.6510  173.6120  135.9410 C   0  0  0  0  0  0  0  0  0  0  0  0
  193.4590  174.5780  137.6990 C   0  0  0  0  0  2  0  0  0  0  0  0
  194.3090  175.6670  137.9140 O   0  0  0  0  0  1  0  0  0  0  0  0
  183.3210  178.5930  138.6610 C   0  0  0  0  0  2  0  0  0  0  0  0
  182.8820  179.9770  138.6950 N   0  0  0  0  0  1  0  0  0  0  0  0
  2  7  1  0  0  0  0
  3 20  1  6  0  0  0
  3  1  1  0  0  0  0
  4  1  1  0  0  0  0
  4  2  2  0  0  0  0
  5  2  1  0  0  0  0
  5 11  1  1  0  0  0
  7 14  1  0  0  0  0
  8 17  2  0  0  0  0
  9 14  2  0  0  0  0
  9  8  1  0  0  0  0
 10  4  1  0  0  0  0
 11  9  1  0  0  0  0
 12 10  1  0  0  0  0
 12 15  2  0  0  0  0
 13 16  1  0  0  0  0
 13 10  1  0  0  0  0
 14 18  1  0  0  0  0
 15  5  1  0  0  0  0
 16  3  1  0  0  0  0
 17  6  1  0  0  0  0
 18  6  2  0  0  0  0
 19 20  1  0  0  0  0
 20 21  2  0  0  0  0
 22 24  1  6  0  0  0
 22 29  1  0  0  0  0
 22 27  1  0  0  0  0
 23 28  2  0  0  0  0
 25 27  1  0  0  0  0
 26 28  1  0  0  0  0
 26 22  1  0  0  0  0
 27 19  1  6  0  0  0
 28 25  1  0  0  0  0
 29 30  1  0  0  0  0
 31 32  1  0  0  0  0
 31 15  1  0  0  0  0
M  END
>  <MODEL>
8

>  <REMARK>
 VINA RESULT:      -7.1      2.957      4.057
  Name = 
  4 active torsions:
  status: ('A' for Active; 'I' for Inactive)
    1  A    between atoms: C_3  and  C_22
    2  A    between atoms: C_4  and  C_24
    3  A    between atoms: C_13  and  C_29
    4  A    between atoms: N_16  and  C_20
                            x       y       z     vdW  Elec       q    Type
                         _______ _______ _______ _____ _____    ______ ____

>  <TORSDO>
F 4

$$$$
=
 OpenBabel10272413153D

 32 36  0  0  1  0  0  0  0  0999 V2000
  186.2920  178.7020  139.6880 O   0  0  0  0  0  0  0  0  0  0  0  0
  186.8550  178.0780  141.9130 C   0  0  0  0  0  0  0  0  0  0  0  0
  185.3100  178.9840  138.6900 C   0  0  2  0  0  3  0  0  0  0  0  0
  185.9440  178.5020  141.0290 C   0  0  0  0  0  0  0  0  0  0  0  0
  186.4500  177.7460  143.3310 C   0  0  1  0  0  3  0  0  0  0  0  0
  191.5550  177.6470  143.0680 C   0  0  0  0  0  3  0  0  0  0  0  0
  188.2660  177.8900  141.5380 C   0  0  0  0  0  2  0  0  0  0  0  0
  189.8990  177.8620  144.8220 C   0  0  0  0  0  3  0  0  0  0  0  0
  188.8740  177.8530  143.8700 C   0  0  0  0  0  0  0  0  0  0  0  0
  184.6110  178.8180  141.4710 N   0  0  0  0  0  0  0  0  0  0  0  0
  187.6020  177.9100  144.2890 C   0  0  0  0  0  2  0  0  0  0  0  0
  184.2910  178.8410  142.8690 C   0  0  0  0  0  3  0  0  0  0  0  0
  183.5690  179.1470  140.5060 C   0  0  0  0  0  2  0  0  0  0  0  0
  189.2030  177.7750  142.4890 C   0  0  0  0  0  0  0  0  0  0  0  0
  185.1740  178.4210  143.7800 C   0  0  0  0  0  0  0  0  0  0  0  0
  184.1610  179.8180  139.2660 C   0  0  0  0  0  2  0  0  0  0  0  0
  191.2340  177.7570  144.4230 C   0  0  0  0  0  3  0  0  0  0  0  0
  190.5430  177.6620  142.1040 C   0  0  0  0  0  3  0  0  0  0  0  0
  183.4590  177.6320  137.6070 N   0  0  0  0  0  2  0  0  0  0  0  0
  184.8110  177.7180  138.0650 C   0  0  0  0  0  0  0  0  0  0  0  0
  185.5980  176.7460  137.9200 O   0  0  0  0  0  0  0  0  0  0  0  0
  182.1970  175.5000  138.0140 C   0  0  2  0  0  0  0  0  0  0  0  0
  184.2740  173.2060  136.3730 O   0  0  0  0  0  0  0  0  0  0  0  0
  182.5540  175.8130  139.4630 C   0  0  0  0  0  1  0  0  0  0  0  0
  184.0000  175.6030  136.3250 C   0  0  0  0  0  2  0  0  0  0  0  0
  182.6600  174.1970  137.7040 O   0  0  0  0  0  0  0  0  0  0  0  0
  182.9020  176.4330  136.9920 C   0  0  2  0  0  3  0  0  0  0  0  0
  183.6790  174.2370  136.7790 C   0  0  0  0  0  0  0  0  0  0  0  0
  180.6840  175.5740  137.8540 C   0  0  0  0  0  2  0  0  0  0  0  0
  180.0680  175.8580  139.0760 O   0  0  0  0  0  1  0  0  0  0  0  0
  184.7630  178.3960  145.2140 C   0  0  0  0  0  2  0  0  0  0  0  0
  183.5420  179.1630  145.3910 N   0  0  0  0  0  1  0  0  0  0  0  0
  1  4  1  0  0  0  0
  2  5  1  0  0  0  0
  3 20  1  1  0  0  0
  3 16  1  0  0  0  0
  3  1  1  0  0  0  0
  4 10  1  0  0  0  0
  4  2  2  0  0  0  0
  5 15  1  0  0  0  0
  5 11  1  1  0  0  0
  6 17  1  0  0  0  0
  7  2  1  0  0  0  0
  7 14  1  0  0  0  0
  9 11  1  0  0  0  0
  9  8  1  0  0  0  0
 10 12  1  0  0  0  0
 12 15  2  0  0  0  0
 13 10  1  0  0  0  0
 14  9  2  0  0  0  0
 15 31  1  0  0  0  0
 16 13  1  0  0  0  0
 17  8  2  0  0  0  0
 18 14  1  0  0  0  0
 18  6  2  0  0  0  0
 19 20  1  0  0  0  0
 21 20  2  0  0  0  0
 22 24  1  1  0  0  0
 23 28  2  0  0  0  0
 25 28  1  0  0  0  0
 25 27  1  0  0  0  0
 26 22  1  0  0  0  0
 27 19  1  1  0  0  0
 27 22  1  0  0  0  0
 28 26  1  0  0  0  0
 29 22  1  0  0  0  0
 29 30  1  0  0  0  0
 31 32  1  0  0  0  0
M  END
>  <MODEL>
9

>  <REMARK>
 VINA RESULT:      -7.0      3.472      4.895
  Name = 
  4 active torsions:
  status: ('A' for Active; 'I' for Inactive)
    1  A    between atoms: C_3  and  C_22
    2  A    between atoms: C_4  and  C_24
    3  A    between atoms: C_13  and  C_29
    4  A    between atoms: N_16  and  C_20
                            x       y       z     vdW  Elec       q    Type
                         _______ _______ _______ _____ _____    ______ ____

>  <TORSDO>
F 4

$$$$
