=
 OpenBabel10272401593D

 28 31  0  0  1  0  0  0  0  0999 V2000
  190.5790  177.0200  143.9430 C   0  0  2  0  0  3  0  0  0  0  0  0
  185.6280  178.1190  143.0720 C   0  0  0  0  0  3  0  0  0  0  0  0
  188.8640  178.1660  148.4160 C   0  0  0  0  0  1  0  0  0  0  0  0
  184.6980  178.5040  145.2600 C   0  0  0  0  0  0  0  0  0  0  0  0
  187.0540  177.9440  145.0130 C   0  0  0  0  0  0  0  0  0  0  0  0
  183.2950  178.8200  143.2630 C   0  0  0  0  0  0  0  0  0  0  0  0
  185.8100  178.2360  144.4640 C   0  0  0  0  0  0  0  0  0  0  0  0
  186.0540  178.0510  147.2370 C   0  0  0  0  0  3  0  0  0  0  0  0
  183.4670  178.8920  144.6800 C   0  0  0  0  0  3  0  0  0  0  0  0
  189.5560  177.3340  146.1910 C   0  0  0  0  0  0  0  0  0  0  0  0
  188.1550  177.6580  144.2950 C   0  0  0  0  0  3  0  0  0  0  0  0
  184.8430  178.4710  146.6770 C   0  0  0  0  0  3  0  0  0  0  0  0
  191.7080  175.9730  145.9840 C   0  0  0  0  0  2  0  0  0  0  0  0
  188.4760  177.6830  146.9920 C   0  0  0  0  0  0  0  0  0  0  0  0
  190.9720  177.0480  146.6970 C   0  0  0  0  0  2  0  0  0  0  0  0
  182.0870  179.0460  142.6330 O   0  0  0  0  0  1  0  0  0  0  0  0
  184.4060  178.3770  142.4860 C   0  0  0  0  0  3  0  0  0  0  0  0
  187.1640  177.9190  146.4520 C   0  0  0  0  0  0  0  0  0  0  0  0
  191.7800  176.2900  144.5660 C   0  0  0  0  0  2  0  0  0  0  0  0
  189.3770  177.2910  144.8140 C   0  0  0  0  0  0  0  0  0  0  0  0
  190.3960  176.4920  142.5140 C   0  0  0  0  0  2  0  0  0  0  0  0
  191.1770  177.3150  141.4550 C   0  0  0  0  0  2  0  0  0  0  0  0
  190.8020  176.5010  140.2400 C   0  0  0  0  0  2  0  0  0  0  0  0
  187.8270  178.4920  140.3730 C   0  0  0  0  0  1  0  0  0  0  0  0
  189.9300  177.2690  139.1940 N   0  0  0  0  0  0  0  0  0  0  0  0
  188.7890  179.2040  138.3280 O   0  0  0  0  0  0  0  0  0  0  0  0
  188.9090  178.3540  139.2600 C   0  0  0  0  0  0  0  0  0  0  0  0
  190.4650  177.0360  137.9670 C   0  0  0  0  0  1  0  0  0  0  0  0
  1 21  1  6  0  0  0
  1 19  1  0  0  0  0
  1 20  1  0  0  0  0
  2  7  1  0  0  0  0
  4 12  1  0  0  0  0
  5 18  1  0  0  0  0
  6  9  2  0  0  0  0
  7  5  1  0  0  0  0
  7  4  2  0  0  0  0
  9  4  1  0  0  0  0
 10 15  1  0  0  0  0
 10 14  1  0  0  0  0
 11 20  1  0  0  0  0
 11  5  2  0  0  0  0
 12  8  2  0  0  0  0
 13 15  1  0  0  0  0
 14  3  1  0  0  0  0
 16  6  1  0  0  0  0
 17  2  2  0  0  0  0
 17  6  1  0  0  0  0
 18 14  2  0  0  0  0
 18  8  1  0  0  0  0
 19 13  1  0  0  0  0
 20 10  2  0  0  0  0
 22 21  1  0  0  0  0
 23 22  1  0  0  0  0
 25 27  1  0  0  0  0
 25 23  1  0  0  0  0
 26 27  2  0  0  0  0
 27 24  1  0  0  0  0
 28 25  1  0  0  0  0
M  END
>  <MODEL>
1

>  <REMARK>
 VINA RESULT:     -11.8      0.000      0.000
  Name = 
  4 active torsions:
  status: ('A' for Active; 'I' for Inactive)
    1  A    between atoms: C_1  and  C_2
    2  A    between atoms: C_2  and  C_7
    3  A    between atoms: N_6  and  C_28
    4  A    between atoms: C_7  and  C_28
                            x       y       z     vdW  Elec       q    Type
                         _______ _______ _______ _____ _____    ______ ____

>  <TORSDO>
F 4

$$$$
=
 OpenBabel10272401593D

 28 31  0  0  1  0  0  0  0  0999 V2000
  190.6200  176.9090  144.0470 C   0  0  2  0  0  3  0  0  0  0  0  0
  185.6920  178.0570  143.1100 C   0  0  0  0  0  3  0  0  0  0  0  0
  188.8970  178.2270  148.4710 C   0  0  0  0  0  1  0  0  0  0  0  0
  184.7560  178.5270  145.2790 C   0  0  0  0  0  0  0  0  0  0  0  0
  187.1040  177.9230  145.0650 C   0  0  0  0  0  0  0  0  0  0  0  0
  183.3700  178.8010  143.2640 C   0  0  0  0  0  0  0  0  0  0  0  0
  185.8680  178.2170  144.4990 C   0  0  0  0  0  0  0  0  0  0  0  0
  186.0920  178.1180  147.2780 C   0  0  0  0  0  3  0  0  0  0  0  0
  183.5340  178.9160  144.6790 C   0  0  0  0  0  3  0  0  0  0  0  0
  189.5890  177.3120  146.2780 C   0  0  0  0  0  0  0  0  0  0  0  0
  188.2040  177.5970  144.3640 C   0  0  0  0  0  3  0  0  0  0  0  0
  184.8910  178.5380  146.6970 C   0  0  0  0  0  3  0  0  0  0  0  0
  191.7200  175.9120  146.1290 C   0  0  0  0  0  2  0  0  0  0  0  0
  188.5090  177.7040  147.0600 C   0  0  0  0  0  0  0  0  0  0  0  0
  190.9970  177.0200  146.8020 C   0  0  0  0  0  2  0  0  0  0  0  0
  182.1690  179.0250  142.6190 O   0  0  0  0  0  1  0  0  0  0  0  0
  184.4780  178.3160  142.5080 C   0  0  0  0  0  3  0  0  0  0  0  0
  187.2050  177.9420  146.5040 C   0  0  0  0  0  0  0  0  0  0  0  0
  191.8060  176.1810  144.7010 C   0  0  0  0  0  2  0  0  0  0  0  0
  189.4170  177.2270  144.9020 C   0  0  0  0  0  0  0  0  0  0  0  0
  190.4370  176.3390  142.6350 C   0  0  0  0  0  2  0  0  0  0  0  0
  190.8590  177.3290  141.5180 C   0  0  0  0  0  2  0  0  0  0  0  0
  189.9710  176.7960  140.4190 C   0  0  0  0  0  2  0  0  0  0  0  0
  189.4230  177.9760  137.0820 C   0  0  0  0  0  1  0  0  0  0  0  0
  189.0500  177.8720  139.7570 N   0  0  0  0  0  0  0  0  0  0  0  0
  187.4220  178.6440  138.1610 O   0  0  0  0  0  0  0  0  0  0  0  0
  188.5670  178.1450  138.3730 C   0  0  0  0  0  0  0  0  0  0  0  0
  188.3660  178.4930  140.7540 C   0  0  0  0  0  1  0  0  0  0  0  0
  1 21  1  6  0  0  0
  1 19  1  0  0  0  0
  1 20  1  0  0  0  0
  2  7  1  0  0  0  0
  4 12  1  0  0  0  0
  5 18  1  0  0  0  0
  6  9  2  0  0  0  0
  7  5  1  0  0  0  0
  7  4  2  0  0  0  0
  9  4  1  0  0  0  0
 10 15  1  0  0  0  0
 10 14  1  0  0  0  0
 11 20  1  0  0  0  0
 11  5  2  0  0  0  0
 12  8  2  0  0  0  0
 13 15  1  0  0  0  0
 14  3  1  0  0  0  0
 16  6  1  0  0  0  0
 17  2  2  0  0  0  0
 17  6  1  0  0  0  0
 18 14  2  0  0  0  0
 18  8  1  0  0  0  0
 19 13  1  0  0  0  0
 20 10  2  0  0  0  0
 22 21  1  0  0  0  0
 23 22  1  0  0  0  0
 24 27  1  0  0  0  0
 25 23  1  0  0  0  0
 25 28  1  0  0  0  0
 26 27  2  0  0  0  0
 27 25  1  0  0  0  0
M  END
>  <MODEL>
2

>  <REMARK>
 VINA RESULT:     -11.6      0.566      1.097
  Name = 
  4 active torsions:
  status: ('A' for Active; 'I' for Inactive)
    1  A    between atoms: C_1  and  C_2
    2  A    between atoms: C_2  and  C_7
    3  A    between atoms: N_6  and  C_28
    4  A    between atoms: C_7  and  C_28
                            x       y       z     vdW  Elec       q    Type
                         _______ _______ _______ _____ _____    ______ ____

>  <TORSDO>
F 4

$$$$
=
 OpenBabel10272401593D

 28 31  0  0  1  0  0  0  0  0999 V2000
  190.5970  176.8780  143.9490 C   0  0  2  0  0  3  0  0  0  0  0  0
  185.6670  178.0450  143.0440 C   0  0  0  0  0  3  0  0  0  0  0  0
  188.9180  178.2390  148.3760 C   0  0  0  0  0  1  0  0  0  0  0  0
  184.7520  178.5370  145.2170 C   0  0  0  0  0  0  0  0  0  0  0  0
  187.0950  177.9180  144.9880 C   0  0  0  0  0  0  0  0  0  0  0  0
  183.3500  178.8030  143.2120 C   0  0  0  0  0  0  0  0  0  0  0  0
  185.8550  178.2140  144.4310 C   0  0  0  0  0  0  0  0  0  0  0  0
  186.1030  178.1360  147.2080 C   0  0  0  0  0  3  0  0  0  0  0  0
  183.5270  178.9280  144.6240 C   0  0  0  0  0  3  0  0  0  0  0  0
  189.5860  177.3030  146.1850 C   0  0  0  0  0  0  0  0  0  0  0  0
  188.1870  177.5810  144.2800 C   0  0  0  0  0  3  0  0  0  0  0  0
  184.8990  178.5580  146.6340 C   0  0  0  0  0  3  0  0  0  0  0  0
  191.7090  175.8910  146.0290 C   0  0  0  0  0  2  0  0  0  0  0  0
  188.5160  177.7070  146.9730 C   0  0  0  0  0  0  0  0  0  0  0  0
  190.9980  177.0080  146.7000 C   0  0  0  0  0  2  0  0  0  0  0  0
  182.1450  179.0280  142.5760 O   0  0  0  0  0  1  0  0  0  0  0  0
  184.4490  178.3060  142.4510 C   0  0  0  0  0  3  0  0  0  0  0  0
  187.2080  177.9480  146.4260 C   0  0  0  0  0  0  0  0  0  0  0  0
  191.7840  176.1490  144.5990 C   0  0  0  0  0  2  0  0  0  0  0  0
  189.4030  177.2090  144.8110 C   0  0  0  0  0  0  0  0  0  0  0  0
  190.3980  176.2980  142.5430 C   0  0  0  0  0  2  0  0  0  0  0  0
  190.9120  177.2350  141.4180 C   0  0  0  0  0  2  0  0  0  0  0  0
  189.6670  177.2390  140.5640 C   0  0  0  0  0  2  0  0  0  0  0  0
  191.9430  176.0850  138.0510 C   0  0  0  0  0  1  0  0  0  0  0  0
  189.9210  177.5700  139.0570 N   0  0  0  0  0  0  0  0  0  0  0  0
  190.2030  177.0090  136.7340 O   0  0  0  0  0  0  0  0  0  0  0  0
  190.6140  176.8880  137.9260 C   0  0  0  0  0  0  0  0  0  0  0  0
  189.0740  178.5740  138.7110 C   0  0  0  0  0  1  0  0  0  0  0  0
  1 21  1  6  0  0  0
  1 19  1  0  0  0  0
  1 20  1  0  0  0  0
  2  7  1  0  0  0  0
  4 12  1  0  0  0  0
  5 18  1  0  0  0  0
  6  9  2  0  0  0  0
  7  5  1  0  0  0  0
  7  4  2  0  0  0  0
  9  4  1  0  0  0  0
 10 15  1  0  0  0  0
 10 14  1  0  0  0  0
 11 20  1  0  0  0  0
 11  5  2  0  0  0  0
 12  8  2  0  0  0  0
 13 15  1  0  0  0  0
 14  3  1  0  0  0  0
 16  6  1  0  0  0  0
 17  2  2  0  0  0  0
 17  6  1  0  0  0  0
 18 14  2  0  0  0  0
 18  8  1  0  0  0  0
 19 13  1  0  0  0  0
 20 10  2  0  0  0  0
 22 21  1  0  0  0  0
 23 22  1  0  0  0  0
 25 23  1  0  0  0  0
 26 27  2  0  0  0  0
 27 24  1  0  0  0  0
 27 25  1  0  0  0  0
 28 25  1  0  0  0  0
M  END
>  <MODEL>
3

>  <REMARK>
 VINA RESULT:     -11.4      0.766      1.356
  Name = 
  4 active torsions:
  status: ('A' for Active; 'I' for Inactive)
    1  A    between atoms: C_1  and  C_2
    2  A    between atoms: C_2  and  C_7
    3  A    between atoms: N_6  and  C_28
    4  A    between atoms: C_7  and  C_28
                            x       y       z     vdW  Elec       q    Type
                         _______ _______ _______ _____ _____    ______ ____

>  <TORSDO>
F 4

$$$$
=
 OpenBabel10272401593D

 28 31  0  0  1  0  0  0  0  0999 V2000
  187.0490  178.0520  146.6040 C   0  0  2  0  0  3  0  0  0  0  0  0
  187.9520  178.2600  141.5420 C   0  0  0  0  0  3  0  0  0  0  0  0
  191.6080  176.2310  146.1850 C   0  0  0  0  0  1  0  0  0  0  0  0
  190.2430  177.5540  141.3050 C   0  0  0  0  0  0  0  0  0  0  0  0
  189.2140  177.6520  143.5100 C   0  0  0  0  0  0  0  0  0  0  0  0
  188.8990  178.0370  139.3010 C   0  0  0  0  0  0  0  0  0  0  0  0
  189.1380  177.7700  142.1260 C   0  0  0  0  0  0  0  0  0  0  0  0
  191.6070  177.2160  143.2990 C   0  0  0  0  0  3  0  0  0  0  0  0
  190.1180  177.5860  139.8960 C   0  0  0  0  0  3  0  0  0  0  0  0
  189.4410  177.4190  146.3220 C   0  0  0  0  0  0  0  0  0  0  0  0
  188.1880  177.8680  144.3500 C   0  0  0  0  0  3  0  0  0  0  0  0
  191.4880  177.2080  141.9050 C   0  0  0  0  0  3  0  0  0  0  0  0
  188.6490  178.3080  148.5820 C   0  0  0  0  0  2  0  0  0  0  0  0
  190.5270  177.1180  145.5090 C   0  0  0  0  0  0  0  0  0  0  0  0
  189.4130  177.2700  147.8460 C   0  0  0  0  0  2  0  0  0  0  0  0
  188.7450  178.2300  137.9420 O   0  0  0  0  0  1  0  0  0  0  0  0
  187.8380  178.4130  140.1760 C   0  0  0  0  0  3  0  0  0  0  0  0
  190.4910  177.3010  144.0830 C   0  0  0  0  0  0  0  0  0  0  0  0
  187.2770  178.3390  148.0970 C   0  0  0  0  0  2  0  0  0  0  0  0
  188.2570  177.8330  145.7260 C   0  0  0  0  0  0  0  0  0  0  0  0
  185.8940  178.9390  146.1240 C   0  0  0  0  0  2  0  0  0  0  0  0
  184.6600  178.1280  145.6450 C   0  0  0  0  0  2  0  0  0  0  0  0
  183.9880  179.2210  144.8490 C   0  0  0  0  0  2  0  0  0  0  0  0
  180.6320  178.6790  143.7210 C   0  0  0  0  0  1  0  0  0  0  0  0
  183.3270  178.7330  143.5190 N   0  0  0  0  0  0  0  0  0  0  0  0
  181.7960  178.9070  141.6690 O   0  0  0  0  0  0  0  0  0  0  0  0
  181.9630  178.8160  142.9220 C   0  0  0  0  0  0  0  0  0  0  0  0
  184.3290  178.4130  142.6580 C   0  0  0  0  0  1  0  0  0  0  0  0
  1 21  1  6  0  0  0
  1 19  1  0  0  0  0
  2  7  1  0  0  0  0
  4 12  2  0  0  0  0
  4  7  1  0  0  0  0
  5 18  1  0  0  0  0
  5 11  1  0  0  0  0
  6  9  2  0  0  0  0
  6 17  1  0  0  0  0
  7  5  2  0  0  0  0
  8 18  2  0  0  0  0
  9  4  1  0  0  0  0
 10 15  1  0  0  0  0
 11 20  2  0  0  0  0
 12  8  1  0  0  0  0
 14  3  1  0  0  0  0
 14 10  2  0  0  0  0
 15 13  1  0  0  0  0
 16  6  1  0  0  0  0
 17  2  2  0  0  0  0
 18 14  1  0  0  0  0
 19 13  1  0  0  0  0
 20 10  1  0  0  0  0
 20  1  1  0  0  0  0
 22 21  1  0  0  0  0
 23 22  1  0  0  0  0
 25 23  1  0  0  0  0
 26 27  2  0  0  0  0
 27 25  1  0  0  0  0
 27 24  1  0  0  0  0
 28 25  1  0  0  0  0
M  END
>  <MODEL>
4

>  <REMARK>
 VINA RESULT:     -10.7      1.859      5.996
  Name = 
  4 active torsions:
  status: ('A' for Active; 'I' for Inactive)
    1  A    between atoms: C_1  and  C_2
    2  A    between atoms: C_2  and  C_7
    3  A    between atoms: N_6  and  C_28
    4  A    between atoms: C_7  and  C_28
                            x       y       z     vdW  Elec       q    Type
                         _______ _______ _______ _____ _____    ______ ____

>  <TORSDO>
F 4

$$$$
=
 OpenBabel10272401593D

 28 31  0  0  1  0  0  0  0  0999 V2000
  186.9730  177.9320  146.2750 C   0  0  2  0  0  3  0  0  0  0  0  0
  188.4850  177.9480  141.3560 C   0  0  0  0  0  3  0  0  0  0  0  0
  191.6050  176.2720  146.5030 C   0  0  0  0  0  1  0  0  0  0  0  0
  190.8090  177.3220  141.4340 C   0  0  0  0  0  0  0  0  0  0  0  0
  189.5140  177.4790  143.4900 C   0  0  0  0  0  0  0  0  0  0  0  0
  189.7070  177.6620  139.2600 C   0  0  0  0  0  0  0  0  0  0  0  0
  189.6050  177.5310  142.1020 C   0  0  0  0  0  0  0  0  0  0  0  0
  191.9280  177.1270  143.5930 C   0  0  0  0  0  3  0  0  0  0  0  0
  190.8580  177.2860  140.0200 C   0  0  0  0  0  3  0  0  0  0  0  0
  189.4010  177.3800  146.3170 C   0  0  0  0  0  0  0  0  0  0  0  0
  188.3860  177.6920  144.1870 C   0  0  0  0  0  3  0  0  0  0  0  0
  191.9820  177.0520  142.1970 C   0  0  0  0  0  3  0  0  0  0  0  0
  188.3070  178.3380  148.4170 C   0  0  0  0  0  2  0  0  0  0  0  0
  190.5870  177.0860  145.6570 C   0  0  0  0  0  0  0  0  0  0  0  0
  189.1900  177.2990  147.8310 C   0  0  0  0  0  2  0  0  0  0  0  0
  189.7150  177.7880  137.8840 O   0  0  0  0  0  1  0  0  0  0  0  0
  188.5340  178.0360  139.9800 C   0  0  0  0  0  3  0  0  0  0  0  0
  190.7220  177.2040  144.2300 C   0  0  0  0  0  0  0  0  0  0  0  0
  187.0060  178.2950  147.7690 C   0  0  0  0  0  2  0  0  0  0  0  0
  188.2860  177.7220  145.5620 C   0  0  0  0  0  0  0  0  0  0  0  0
  185.8560  178.7510  145.6140 C   0  0  0  0  0  2  0  0  0  0  0  0
  184.4770  178.0420  145.6490 C   0  0  0  0  0  2  0  0  0  0  0  0
  183.6500  179.1640  145.0690 C   0  0  0  0  0  2  0  0  0  0  0  0
  185.3660  179.1640  141.9250 C   0  0  0  0  0  1  0  0  0  0  0  0
  183.2360  178.9540  143.5760 N   0  0  0  0  0  0  0  0  0  0  0  0
  183.4090  177.9340  141.4030 O   0  0  0  0  0  0  0  0  0  0  0  0
  183.9580  178.6220  142.3140 C   0  0  0  0  0  0  0  0  0  0  0  0
  181.8870  178.7890  143.5460 C   0  0  0  0  0  1  0  0  0  0  0  0
  1 21  1  6  0  0  0
  1 19  1  0  0  0  0
  2  7  1  0  0  0  0
  4  7  2  0  0  0  0
  4 12  1  0  0  0  0
  5 11  2  0  0  0  0
  5 18  1  0  0  0  0
  6 17  1  0  0  0  0
  6  9  2  0  0  0  0
  7  5  1  0  0  0  0
  8 18  1  0  0  0  0
  9  4  1  0  0  0  0
 10 15  1  0  0  0  0
 11 20  1  0  0  0  0
 12  8  2  0  0  0  0
 14 10  1  0  0  0  0
 14  3  1  0  0  0  0
 15 13  1  0  0  0  0
 16  6  1  0  0  0  0
 17  2  2  0  0  0  0
 18 14  2  0  0  0  0
 19 13  1  0  0  0  0
 20  1  1  0  0  0  0
 20 10  2  0  0  0  0
 21 22  1  0  0  0  0
 23 22  1  0  0  0  0
 24 27  1  0  0  0  0
 25 23  1  0  0  0  0
 26 27  2  0  0  0  0
 27 25  1  0  0  0  0
 28 25  1  0  0  0  0
M  END
>  <MODEL>
5

>  <REMARK>
 VINA RESULT:     -10.6      1.877      6.039
  Name = 
  4 active torsions:
  status: ('A' for Active; 'I' for Inactive)
    1  A    between atoms: C_1  and  C_2
    2  A    between atoms: C_2  and  C_7
    3  A    between atoms: N_6  and  C_28
    4  A    between atoms: C_7  and  C_28
                            x       y       z     vdW  Elec       q    Type
                         _______ _______ _______ _____ _____    ______ ____

>  <TORSDO>
F 4

$$$$
=
 OpenBabel10272401593D

 28 31  0  0  1  0  0  0  0  0999 V2000
  185.4870  178.0070  144.9810 C   0  0  2  0  0  3  0  0  0  0  0  0
  188.5240  177.6620  140.8410 C   0  0  0  0  0  3  0  0  0  0  0  0
  189.8970  176.9230  146.8910 C   0  0  0  0  0  1  0  0  0  0  0  0
  190.7330  177.3190  141.7360 C   0  0  0  0  0  0  0  0  0  0  0  0
  188.8280  177.5480  143.2340 C   0  0  0  0  0  0  0  0  0  0  0  0
  190.3840  177.2920  139.3010 C   0  0  0  0  0  0  0  0  0  0  0  0
  189.3650  177.4600  141.9540 C   0  0  0  0  0  0  0  0  0  0  0  0
  191.0930  177.4880  144.1430 C   0  0  0  0  0  3  0  0  0  0  0  0
  191.2460  177.1350  140.4300 C   0  0  0  0  0  3  0  0  0  0  0  0
  187.8000  177.7450  145.8650 C   0  0  0  0  0  0  0  0  0  0  0  0
  187.5200  177.7050  143.5030 C   0  0  0  0  0  3  0  0  0  0  0  0
  191.6070  177.2690  142.8610 C   0  0  0  0  0  3  0  0  0  0  0  0
  186.0110  178.7930  147.3570 C   0  0  0  0  0  2  0  0  0  0  0  0
  189.1560  177.5180  145.6620 C   0  0  0  0  0  0  0  0  0  0  0  0
  187.1110  177.8040  147.2310 C   0  0  0  0  0  2  0  0  0  0  0  0
  190.8340  177.2680  137.9950 O   0  0  0  0  0  1  0  0  0  0  0  0
  189.0160  177.6050  139.5530 C   0  0  0  0  0  3  0  0  0  0  0  0
  189.7420  177.4950  144.3490 C   0  0  0  0  0  0  0  0  0  0  0  0
  185.0020  178.5310  146.3430 C   0  0  0  0  0  2  0  0  0  0  0  0
  186.9740  177.8720  144.7560 C   0  0  0  0  0  0  0  0  0  0  0  0
  184.5930  178.6170  143.8940 C   0  0  0  0  0  2  0  0  0  0  0  0
  183.4810  179.5370  144.4640 C   0  0  0  0  0  2  0  0  0  0  0  0
  182.2890  178.7150  144.0370 C   0  0  0  0  0  2  0  0  0  0  0  0
  183.1750  178.4130  140.5800 C   0  0  0  0  0  1  0  0  0  0  0  0
  181.6500  179.1620  142.6830 N   0  0  0  0  0  0  0  0  0  0  0  0
  180.8410  178.8000  140.4450 O   0  0  0  0  0  0  0  0  0  0  0  0
  181.8160  178.7700  141.2540 C   0  0  0  0  0  0  0  0  0  0  0  0
  180.5250  179.8670  142.9750 C   0  0  0  0  0  1  0  0  0  0  0  0
  1 21  1  6  0  0  0
  1 19  1  0  0  0  0
  2  7  1  0  0  0  0
  4  7  2  0  0  0  0
  4 12  1  0  0  0  0
  5 11  2  0  0  0  0
  5 18  1  0  0  0  0
  6 17  1  0  0  0  0
  6  9  2  0  0  0  0
  7  5  1  0  0  0  0
  8 18  1  0  0  0  0
  9  4  1  0  0  0  0
 10 15  1  0  0  0  0
 11 20  1  0  0  0  0
 12  8  2  0  0  0  0
 14 10  1  0  0  0  0
 14  3  1  0  0  0  0
 15 13  1  0  0  0  0
 16  6  1  0  0  0  0
 17  2  2  0  0  0  0
 18 14  2  0  0  0  0
 19 13  1  0  0  0  0
 20  1  1  0  0  0  0
 20 10  2  0  0  0  0
 21 22  1  0  0  0  0
 23 22  1  0  0  0  0
 24 27  1  0  0  0  0
 25 28  1  0  0  0  0
 25 23  1  0  0  0  0
 26 27  2  0  0  0  0
 27 25  1  0  0  0  0
M  END
>  <MODEL>
6

>  <REMARK>
 VINA RESULT:     -10.3      2.232      6.554
  Name = 
  4 active torsions:
  status: ('A' for Active; 'I' for Inactive)
    1  A    between atoms: C_1  and  C_2
    2  A    between atoms: C_2  and  C_7
    3  A    between atoms: N_6  and  C_28
    4  A    between atoms: C_7  and  C_28
                            x       y       z     vdW  Elec       q    Type
                         _______ _______ _______ _____ _____    ______ ____

>  <TORSDO>
F 4

$$$$
=
 OpenBabel10272401593D

 28 31  0  0  1  0  0  0  0  0999 V2000
  189.6800  177.4060  142.0870 C   0  0  2  0  0  3  0  0  0  0  0  0
  184.6650  178.4580  142.5550 C   0  0  0  0  0  3  0  0  0  0  0  0
  189.0650  177.8760  146.9530 C   0  0  0  0  0  1  0  0  0  0  0  0
  184.2750  178.5110  144.9320 C   0  0  0  0  0  0  0  0  0  0  0  0
  186.5070  178.0640  144.0670 C   0  0  0  0  0  0  0  0  0  0  0  0
  182.4430  179.0530  143.3810 C   0  0  0  0  0  0  0  0  0  0  0  0
  185.1690  178.3890  143.8700 C   0  0  0  0  0  0  0  0  0  0  0  0
  186.0570  177.8350  146.4560 C   0  0  0  0  0  3  0  0  0  0  0  0
  182.9430  178.9360  144.7140 C   0  0  0  0  0  3  0  0  0  0  0  0
  189.2140  177.3770  144.5330 C   0  0  0  0  0  0  0  0  0  0  0  0
  187.4070  177.9140  143.0800 C   0  0  0  0  0  3  0  0  0  0  0  0
  184.7490  178.2900  146.2570 C   0  0  0  0  0  3  0  0  0  0  0  0
  191.2550  176.1260  143.6430 C   0  0  0  0  0  2  0  0  0  0  0  0
  188.3530  177.5800  145.6040 C   0  0  0  0  0  0  0  0  0  0  0  0
  190.7090  177.0690  144.6510 C   0  0  0  0  0  2  0  0  0  0  0  0
  181.1210  179.3250  143.0880 O   0  0  0  0  0  1  0  0  0  0  0  0
  183.3400  178.7560  142.3120 C   0  0  0  0  0  3  0  0  0  0  0  0
  186.9510  177.8460  145.4230 C   0  0  0  0  0  0  0  0  0  0  0  0
  190.9930  176.6360  142.3050 C   0  0  0  0  0  2  0  0  0  0  0  0
  188.7170  177.5170  143.2440 C   0  0  0  0  0  0  0  0  0  0  0  0
  189.1660  177.0730  140.6810 C   0  0  0  0  0  2  0  0  0  0  0  0
  189.0530  178.3180  139.7620 C   0  0  0  0  0  2  0  0  0  0  0  0
  188.5500  177.6180  138.5220 C   0  0  0  0  0  2  0  0  0  0  0  0
  191.9320  176.4480  138.3860 C   0  0  0  0  0  1  0  0  0  0  0  0
  189.6230  177.4480  137.3990 N   0  0  0  0  0  0  0  0  0  0  0  0
  191.2530  176.2140  136.1280 O   0  0  0  0  0  0  0  0  0  0  0  0
  190.8880  176.6720  137.2520 C   0  0  0  0  0  0  0  0  0  0  0  0
  189.0860  177.9250  136.2450 C   0  0  0  0  0  1  0  0  0  0  0  0
  1 21  1  6  0  0  0
  1 19  1  0  0  0  0
  1 20  1  0  0  0  0
  2  7  1  0  0  0  0
  4 12  1  0  0  0  0
  5 18  1  0  0  0  0
  6  9  2  0  0  0  0
  7  5  1  0  0  0  0
  7  4  2  0  0  0  0
  9  4  1  0  0  0  0
 10 15  1  0  0  0  0
 10 14  1  0  0  0  0
 11 20  1  0  0  0  0
 11  5  2  0  0  0  0
 12  8  2  0  0  0  0
 13 15  1  0  0  0  0
 14  3  1  0  0  0  0
 16  6  1  0  0  0  0
 17  2  2  0  0  0  0
 17  6  1  0  0  0  0
 18 14  2  0  0  0  0
 18  8  1  0  0  0  0
 19 13  1  0  0  0  0
 20 10  2  0  0  0  0
 22 21  1  0  0  0  0
 23 22  1  0  0  0  0
 25 23  1  0  0  0  0
 26 27  2  0  0  0  0
 27 25  1  0  0  0  0
 27 24  1  0  0  0  0
 28 25  1  0  0  0  0
M  END
>  <MODEL>
7

>  <REMARK>
 VINA RESULT:     -10.2      1.370      2.146
  Name = 
  4 active torsions:
  status: ('A' for Active; 'I' for Inactive)
    1  A    between atoms: C_1  and  C_2
    2  A    between atoms: C_2  and  C_7
    3  A    between atoms: N_6  and  C_28
    4  A    between atoms: C_7  and  C_28
                            x       y       z     vdW  Elec       q    Type
                         _______ _______ _______ _____ _____    ______ ____

>  <TORSDO>
F 4

$$$$
=
 OpenBabel10272401593D

 28 31  0  0  1  0  0  0  0  0999 V2000
  186.6870  178.0120  141.4830 C   0  0  2  0  0  3  0  0  0  0  0  0
  190.3160  176.9980  144.9870 C   0  0  0  0  0  3  0  0  0  0  0  0
  184.2580  178.3190  145.7580 C   0  0  0  0  0  1  0  0  0  0  0  0
  189.2200  177.3220  147.1070 C   0  0  0  0  0  0  0  0  0  0  0  0
  187.9900  177.6470  145.0310 C   0  0  0  0  0  0  0  0  0  0  0  0
  191.5450  176.5210  147.0440 C   0  0  0  0  0  0  0  0  0  0  0  0
  189.1440  177.2810  145.7170 C   0  0  0  0  0  0  0  0  0  0  0  0
  186.9640  178.2500  147.1630 C   0  0  0  0  0  3  0  0  0  0  0  0
  190.3700  176.8540  147.7860 C   0  0  0  0  0  3  0  0  0  0  0  0
  185.6190  178.4260  143.6940 C   0  0  0  0  0  0  0  0  0  0  0  0
  187.8670  177.6460  143.6930 C   0  0  0  0  0  3  0  0  0  0  0  0
  188.0810  177.7570  147.8450 C   0  0  0  0  0  3  0  0  0  0  0  0
  184.6410  179.5390  141.6130 C   0  0  0  0  0  2  0  0  0  0  0  0
  185.6550  178.3890  145.0820 C   0  0  0  0  0  0  0  0  0  0  0  0
  184.3850  178.7640  142.8530 C   0  0  0  0  0  2  0  0  0  0  0  0
  192.7490  176.1920  147.6380 O   0  0  0  0  0  1  0  0  0  0  0  0
  191.4890  176.6520  145.6250 C   0  0  0  0  0  3  0  0  0  0  0  0
  186.8570  178.0830  145.8110 C   0  0  0  0  0  0  0  0  0  0  0  0
  185.5870  178.8200  140.7740 C   0  0  0  0  0  2  0  0  0  0  0  0
  186.7640  178.0770  142.9890 C   0  0  0  0  0  0  0  0  0  0  0  0
  187.9640  178.1100  140.6380 C   0  0  0  0  0  2  0  0  0  0  0  0
  187.6930  178.0360  139.1120 C   0  0  0  0  0  2  0  0  0  0  0  0
  188.9920  178.6430  138.6390 C   0  0  0  0  0  2  0  0  0  0  0  0
  191.7650  177.2750  140.4450 C   0  0  0  0  0  1  0  0  0  0  0  0
  190.1150  177.6010  138.3300 N   0  0  0  0  0  0  0  0  0  0  0  0
  191.4230  175.6300  138.7740 O   0  0  0  0  0  0  0  0  0  0  0  0
  191.0550  176.7830  139.1490 C   0  0  0  0  0  0  0  0  0  0  0  0
  189.9620  177.2070  137.0380 C   0  0  0  0  0  1  0  0  0  0  0  0
  1 21  1  6  0  0  0
  1 20  1  0  0  0  0
  2 17  2  0  0  0  0
  2  7  1  0  0  0  0
  4  9  1  0  0  0  0
  4 12  1  0  0  0  0
  5  7  1  0  0  0  0
  5 18  1  0  0  0  0
  6 16  1  0  0  0  0
  6  9  2  0  0  0  0
  7  4  2  0  0  0  0
  8 12  2  0  0  0  0
 10 14  1  0  0  0  0
 11  5  2  0  0  0  0
 13 15  1  0  0  0  0
 14  3  1  0  0  0  0
 14 18  2  0  0  0  0
 15 10  1  0  0  0  0
 17  6  1  0  0  0  0
 18  8  1  0  0  0  0
 19  1  1  0  0  0  0
 19 13  1  0  0  0  0
 20 11  1  0  0  0  0
 20 10  2  0  0  0  0
 22 21  1  0  0  0  0
 23 22  1  0  0  0  0
 25 23  1  0  0  0  0
 25 27  1  0  0  0  0
 26 27  2  0  0  0  0
 27 24  1  0  0  0  0
 28 25  1  0  0  0  0
M  END
>  <MODEL>
8

>  <REMARK>
 VINA RESULT:     -10.1      2.400      5.428
  Name = 
  4 active torsions:
  status: ('A' for Active; 'I' for Inactive)
    1  A    between atoms: C_1  and  C_2
    2  A    between atoms: C_2  and  C_7
    3  A    between atoms: N_6  and  C_28
    4  A    between atoms: C_7  and  C_28
                            x       y       z     vdW  Elec       q    Type
                         _______ _______ _______ _____ _____    ______ ____

>  <TORSDO>
F 4

$$$$
=
 OpenBabel10272401593D

 28 31  0  0  1  0  0  0  0  0999 V2000
  189.3150  177.4570  144.4930 C   0  0  2  0  0  3  0  0  0  0  0  0
  184.9510  178.0600  141.8340 C   0  0  0  0  0  3  0  0  0  0  0  0
  186.1570  179.1700  147.8630 C   0  0  0  0  0  1  0  0  0  0  0  0
  183.3230  178.7190  143.4820 C   0  0  0  0  0  0  0  0  0  0  0  0
  185.6270  178.2920  144.1410 C   0  0  0  0  0  0  0  0  0  0  0  0
  182.6860  178.6190  141.1070 C   0  0  0  0  0  0  0  0  0  0  0  0
  184.6430  178.4070  143.1650 C   0  0  0  0  0  0  0  0  0  0  0  0
  183.9230  178.6770  145.8470 C   0  0  0  0  0  3  0  0  0  0  0  0
  182.3610  178.9250  142.4650 C   0  0  0  0  0  3  0  0  0  0  0  0
  187.5790  178.0490  146.1780 C   0  0  0  0  0  0  0  0  0  0  0  0
  186.9100  177.9740  143.8950 C   0  0  0  0  0  3  0  0  0  0  0  0
  182.9730  178.9190  144.8490 C   0  0  0  0  0  3  0  0  0  0  0  0
  189.6870  176.8250  146.9420 C   0  0  0  0  0  2  0  0  0  0  0  0
  186.2860  178.4440  146.4960 C   0  0  0  0  0  0  0  0  0  0  0  0
  188.7390  177.9440  147.1720 C   0  0  0  0  0  2  0  0  0  0  0  0
  181.7650  178.6590  140.0790 O   0  0  0  0  0  1  0  0  0  0  0  0
  184.0020  178.1380  140.8360 C   0  0  0  0  0  3  0  0  0  0  0  0
  185.2360  178.5000  145.5150 C   0  0  0  0  0  0  0  0  0  0  0  0
  190.2380  176.9200  145.5990 C   0  0  0  0  0  2  0  0  0  0  0  0
  187.8840  177.7780  144.8500 C   0  0  0  0  0  0  0  0  0  0  0  0
  189.6390  176.7010  143.1990 C   0  0  0  0  0  2  0  0  0  0  0  0
  190.1800  177.6210  142.0730 C   0  0  0  0  0  2  0  0  0  0  0  0
  190.4810  176.5500  141.0530 C   0  0  0  0  0  2  0  0  0  0  0  0
  187.6560  178.0470  139.4410 C   0  0  0  0  0  1  0  0  0  0  0  0
  190.1170  176.9390  139.5840 N   0  0  0  0  0  0  0  0  0  0  0  0
  189.3770  178.4510  137.8630 O   0  0  0  0  0  0  0  0  0  0  0  0
  189.1180  177.8450  138.9450 C   0  0  0  0  0  0  0  0  0  0  0  0
  191.1430  176.5370  138.7880 C   0  0  0  0  0  1  0  0  0  0  0  0
  1 21  1  6  0  0  0
  1 20  1  0  0  0  0
  1 19  1  0  0  0  0
  2  7  1  0  0  0  0
  4 12  1  0  0  0  0
  5 18  1  0  0  0  0
  6  9  2  0  0  0  0
  7  4  2  0  0  0  0
  7  5  1  0  0  0  0
  9  4  1  0  0  0  0
 10 14  1  0  0  0  0
 10 15  1  0  0  0  0
 11  5  2  0  0  0  0
 11 20  1  0  0  0  0
 12  8  2  0  0  0  0
 13 15  1  0  0  0  0
 14  3  1  0  0  0  0
 16  6  1  0  0  0  0
 17  6  1  0  0  0  0
 17  2  2  0  0  0  0
 18  8  1  0  0  0  0
 18 14  2  0  0  0  0
 19 13  1  0  0  0  0
 20 10  2  0  0  0  0
 22 21  1  0  0  0  0
 23 22  1  0  0  0  0
 25 23  1  0  0  0  0
 26 27  2  0  0  0  0
 27 24  1  0  0  0  0
 27 25  1  0  0  0  0
 28 25  1  0  0  0  0
M  END
>  <MODEL>
9

>  <REMARK>
 VINA RESULT:     -10.0      1.092      1.900
  Name = 
  4 active torsions:
  status: ('A' for Active; 'I' for Inactive)
    1  A    between atoms: C_1  and  C_2
    2  A    between atoms: C_2  and  C_7
    3  A    between atoms: N_6  and  C_28
    4  A    between atoms: C_7  and  C_28
                            x       y       z     vdW  Elec       q    Type
                         _______ _______ _______ _____ _____    ______ ____

>  <TORSDO>
F 4

$$$$
