=
 OpenBabel10272402023D

 28 29  0  0  1  0  0  0  0  0999 V2000
  186.2280  178.1390  145.3060 C   0  0  0  0  0  2  0  0  0  0  0  0
  185.1520  180.2900  143.6940 C   0  0  0  0  0  1  0  0  0  0  0  0
  184.8380  178.8510  143.2790 C   0  0  1  0  0  0  0  0  0  0  0  0
  188.8380  177.9760  146.3720 C   0  0  0  0  0  2  0  0  0  0  0  0
  186.1550  179.2060  141.1680 C   0  0  0  0  0  2  0  0  0  0  0  0
  187.2620  178.3330  141.6960 C   0  0  0  0  0  0  0  0  0  0  0  0
  184.7890  178.8320  141.7350 C   0  0  1  0  0  3  0  0  0  0  0  0
  189.4870  177.5530  144.0040 C   0  0  0  0  0  2  0  0  0  0  0  0
  187.2190  177.8040  142.9530 C   0  0  0  0  0  0  0  0  0  0  0  0
  187.7810  177.2490  146.9600 O   0  0  0  0  0  0  0  0  0  0  0  0
  188.2890  176.8360  143.3970 C   0  0  0  0  0  2  0  0  0  0  0  0
  189.6970  177.1180  145.4470 C   0  0  0  0  0  2  0  0  0  0  0  0
  186.8500  176.9080  145.9590 C   0  0  0  0  0  2  0  0  0  0  0  0
  185.9540  177.8980  143.8150 C   0  0  1  0  0  3  0  0  0  0  0  0
  183.2160  177.4510  140.6310 O   0  0  0  0  0  0  0  0  0  0  0  0
  184.3230  177.5360  141.1380 C   0  0  0  0  0  3  0  0  0  0  0  0
  183.5650  178.5530  143.8270 O   0  0  0  0  0  0  0  0  0  0  0  0
  182.7980  179.6220  143.7110 O   0  0  0  0  0  1  0  0  0  0  0  0
  188.3990  178.0990  140.7250 C   0  0  1  0  0  3  0  0  0  0  0  0
  190.2680  176.9070  140.6550 C   0  0  0  0  0  1  0  0  0  0  0  0
  188.8880  176.7920  140.8400 O   0  0  0  0  0  0  0  0  0  0  0  0
  188.0190  178.4280  139.2750 C   0  0  2  0  0  3  0  0  0  0  0  0
  187.9240  177.1980  138.4800 C   0  0  0  0  0  0  0  0  0  0  0  0
  187.8450  176.1880  137.8270 C   0  0  0  0  0  0  0  0  0  0  0  0
  187.7480  174.9630  137.0340 C   0  0  0  0  0  1  0  0  0  0  0  0
  188.9800  179.2690  138.7050 O   0  0  0  0  0  0  0  0  0  0  0  0
  188.8670  179.0650  137.3280 C   0  0  0  0  0  2  0  0  0  0  0  0
  187.8010  179.8140  136.8330 O   0  0  0  0  0  1  0  0  0  0  0  0
  1 13  1  0  0  0  0
  3  2  1  1  0  0  0
  3 14  1  0  0  0  0
  3 17  1  0  0  0  0
  4 10  1  0  0  0  0
  5  6  1  0  0  0  0
  5  7  1  0  0  0  0
  6  9  2  0  0  0  0
  7 16  1  1  0  0  0
  7  3  1  0  0  0  0
  8 12  1  0  0  0  0
  9 11  1  0  0  0  0
  9 14  1  0  0  0  0
 11  8  1  0  0  0  0
 12  4  1  0  0  0  0
 13 10  1  0  0  0  0
 14  1  1  1  0  0  0
 15 16  2  0  0  0  0
 18 17  1  0  0  0  0
 19 21  1  6  0  0  0
 19  6  1  0  0  0  0
 20 21  1  0  0  0  0
 22 23  1  6  0  0  0
 22 19  1  0  0  0  0
 24 23  3  0  0  0  0
 25 24  1  0  0  0  0
 26 22  1  0  0  0  0
 27 26  1  0  0  0  0
 28 27  1  0  0  0  0
M  END
>  <MODEL>
1

>  <REMARK>
 VINA RESULT:      -6.4      0.000      0.000
  Name = 
  8 active torsions:
  status: ('A' for Active; 'I' for Inactive)
    1  A    between atoms: C_3  and  O_7
    2  A    between atoms: C_9  and  C_12
    3  A    between atoms: C_9  and  C_13
    4  A    between atoms: C_9  and  O_14
    5  A    between atoms: C_10  and  C_13
    6  A    between atoms: C_11  and  C_22
    7  A    between atoms: C_13  and  O_24
    8  A    between atoms: O_14  and  C_18
                            x       y       z     vdW  Elec       q    Type
                         _______ _______ _______ _____ _____    ______ ____

>  <TORSDO>
F 8

$$$$
=
 OpenBabel10272402023D

 28 29  0  0  1  0  0  0  0  0999 V2000
  185.8550  178.1440  143.3720 C   0  0  0  0  0  2  0  0  0  0  0  0
  187.8190  176.0340  143.6430 C   0  0  0  0  0  1  0  0  0  0  0  0
  188.3200  177.4770  143.5370 C   0  0  1  0  0  0  0  0  0  0  0  0
  183.5600  178.1070  141.7280 C   0  0  0  0  0  2  0  0  0  0  0  0
  189.4070  176.9040  141.3450 C   0  0  0  0  0  2  0  0  0  0  0  0
  188.3600  177.6910  140.6050 C   0  0  0  0  0  0  0  0  0  0  0  0
  189.6520  177.4310  142.7550 C   0  0  1  0  0  3  0  0  0  0  0  0
  185.2100  178.3610  139.8800 C   0  0  0  0  0  2  0  0  0  0  0  0
  187.3130  178.2780  141.2540 C   0  0  0  0  0  0  0  0  0  0  0  0
  183.6160  178.9570  142.8540 O   0  0  0  0  0  0  0  0  0  0  0  0
  186.3540  179.1600  140.4900 C   0  0  0  0  0  2  0  0  0  0  0  0
  183.8720  178.8380  140.4250 C   0  0  0  0  0  2  0  0  0  0  0  0
  184.9550  179.3380  143.0690 C   0  0  0  0  0  2  0  0  0  0  0  0
  187.2590  178.3420  142.7850 C   0  0  1  0  0  3  0  0  0  0  0  0
  191.3060  178.9660  143.4680 O   0  0  0  0  0  0  0  0  0  0  0  0
  190.3880  178.7370  142.6960 C   0  0  0  0  0  3  0  0  0  0  0  0
  188.5310  177.9180  144.8680 O   0  0  0  0  0  0  0  0  0  0  0  0
  189.1320  176.9510  145.5390 O   0  0  0  0  0  1  0  0  0  0  0  0
  188.5720  177.7740  139.1080 C   0  0  1  0  0  3  0  0  0  0  0  0
  188.9530  179.3570  137.6030 C   0  0  0  0  0  1  0  0  0  0  0  0
  189.4520  178.8140  138.7880 O   0  0  0  0  0  0  0  0  0  0  0  0
  189.0330  176.4430  138.5000 C   0  0  2  0  0  3  0  0  0  0  0  0
  190.4980  176.4030  138.4100 C   0  0  0  0  0  0  0  0  0  0  0  0
  191.7000  176.3710  138.3370 C   0  0  0  0  0  0  0  0  0  0  0  0
  193.1600  176.3320  138.2500 C   0  0  0  0  0  1  0  0  0  0  0  0
  188.4910  176.2840  137.2210 O   0  0  0  0  0  0  0  0  0  0  0  0
  187.1160  176.1500  137.4260 C   0  0  0  0  0  2  0  0  0  0  0  0
  186.4300  176.9110  136.4810 O   0  0  0  0  0  1  0  0  0  0  0  0
  3  2  1  1  0  0  0
  3 17  1  0  0  0  0
  4 10  1  0  0  0  0
  5  7  1  0  0  0  0
  6  9  2  0  0  0  0
  6  5  1  0  0  0  0
  7 16  1  6  0  0  0
  7  3  1  0  0  0  0
  8 12  1  0  0  0  0
  8 11  1  0  0  0  0
  9 14  1  0  0  0  0
 10 13  1  0  0  0  0
 11  9  1  0  0  0  0
 12  4  1  0  0  0  0
 13  1  1  0  0  0  0
 14  1  1  1  0  0  0
 14  3  1  0  0  0  0
 16 15  2  0  0  0  0
 17 18  1  0  0  0  0
 19 21  1  1  0  0  0
 19  6  1  0  0  0  0
 20 21  1  0  0  0  0
 22 23  1  6  0  0  0
 22 19  1  0  0  0  0
 24 23  3  0  0  0  0
 25 24  1  0  0  0  0
 26 27  1  0  0  0  0
 26 22  1  0  0  0  0
 28 27  1  0  0  0  0
M  END
>  <MODEL>
2

>  <REMARK>
 VINA RESULT:      -6.3      1.868      4.745
  Name = 
  8 active torsions:
  status: ('A' for Active; 'I' for Inactive)
    1  A    between atoms: C_3  and  O_7
    2  A    between atoms: C_9  and  C_12
    3  A    between atoms: C_9  and  C_13
    4  A    between atoms: C_9  and  O_14
    5  A    between atoms: C_10  and  C_13
    6  A    between atoms: C_11  and  C_22
    7  A    between atoms: C_13  and  O_24
    8  A    between atoms: O_14  and  C_18
                            x       y       z     vdW  Elec       q    Type
                         _______ _______ _______ _____ _____    ______ ____

>  <TORSDO>
F 8

$$$$
=
 OpenBabel10272402023D

 28 29  0  0  1  0  0  0  0  0999 V2000
  190.8320  173.8010  135.8390 C   0  0  0  0  0  2  0  0  0  0  0  0
  188.1620  173.2870  136.8330 C   0  0  0  0  0  1  0  0  0  0  0  0
  188.3470  174.4130  135.8130 C   0  0  1  0  0  0  0  0  0  0  0  0
  193.2110  173.8740  137.3590 C   0  0  0  0  0  2  0  0  0  0  0  0
  187.6500  176.0730  137.5670 C   0  0  0  0  0  2  0  0  0  0  0  0
  189.0690  176.5610  137.6870 C   0  0  0  0  0  0  0  0  0  0  0  0
  187.3340  175.5200  136.1810 C   0  0  1  0  0  3  0  0  0  0  0  0
  192.2850  176.0270  138.2050 C   0  0  0  0  0  2  0  0  0  0  0  0
  190.0870  175.9830  136.9870 C   0  0  0  0  0  0  0  0  0  0  0  0
  193.2590  173.6170  135.9720 O   0  0  0  0  0  0  0  0  0  0  0  0
  191.4720  176.5820  137.0430 C   0  0  0  0  0  2  0  0  0  0  0  0
  193.5370  175.3260  137.6990 C   0  0  0  0  0  2  0  0  0  0  0  0
  192.1910  174.2910  135.3470 C   0  0  0  0  0  2  0  0  0  0  0  0
  189.8130  174.9480  135.8890 C   0  0  1  0  0  3  0  0  0  0  0  0
  186.4700  177.5680  135.3690 O   0  0  0  0  0  0  0  0  0  0  0  0
  187.2450  176.6420  135.1880 C   0  0  0  0  0  3  0  0  0  0  0  0
  188.0420  173.8510  134.5480 O   0  0  0  0  0  0  0  0  0  0  0  0
  186.9260  173.1520  134.6580 O   0  0  0  0  0  1  0  0  0  0  0  0
  189.2580  177.7280  138.6330 C   0  0  1  0  0  3  0  0  0  0  0  0
  188.9560  179.4140  137.2250 C   0  0  0  0  0  1  0  0  0  0  0  0
  188.3760  178.7690  138.3190 O   0  0  0  0  0  0  0  0  0  0  0  0
  189.1410  177.3210  140.1070 C   0  0  2  0  0  3  0  0  0  0  0  0
  187.9980  177.9980  140.7350 C   0  0  0  0  0  0  0  0  0  0  0  0
  187.0610  178.5520  141.2500 C   0  0  0  0  0  0  0  0  0  0  0  0
  185.9230  179.2240  141.8770 C   0  0  0  0  0  1  0  0  0  0  0  0
  190.3090  177.6620  140.7950 O   0  0  0  0  0  0  0  0  0  0  0  0
  190.3920  176.7440  141.8450 C   0  0  0  0  0  2  0  0  0  0  0  0
  191.4760  177.0660  142.6590 O   0  0  0  0  0  1  0  0  0  0  0  0
  3 14  1  0  0  0  0
  3  7  1  0  0  0  0
  3  2  1  1  0  0  0
  4 12  1  0  0  0  0
  5  6  1  0  0  0  0
  6 19  1  0  0  0  0
  7 16  1  6  0  0  0
  7  5  1  0  0  0  0
  9 11  1  0  0  0  0
  9  6  2  0  0  0  0
 10  4  1  0  0  0  0
 11  8  1  0  0  0  0
 12  8  1  0  0  0  0
 13  1  1  0  0  0  0
 13 10  1  0  0  0  0
 14  1  1  1  0  0  0
 14  9  1  0  0  0  0
 16 15  2  0  0  0  0
 17 18  1  0  0  0  0
 17  3  1  0  0  0  0
 19 21  1  6  0  0  0
 19 22  1  0  0  0  0
 20 21  1  0  0  0  0
 22 23  1  1  0  0  0
 22 26  1  0  0  0  0
 23 24  3  0  0  0  0
 24 25  1  0  0  0  0
 26 27  1  0  0  0  0
 27 28  1  0  0  0  0
M  END
>  <MODEL>
3

>  <REMARK>
 VINA RESULT:      -6.2      3.318      7.802
  Name = 
  8 active torsions:
  status: ('A' for Active; 'I' for Inactive)
    1  A    between atoms: C_3  and  O_7
    2  A    between atoms: C_9  and  C_12
    3  A    between atoms: C_9  and  C_13
    4  A    between atoms: C_9  and  O_14
    5  A    between atoms: C_10  and  C_13
    6  A    between atoms: C_11  and  C_22
    7  A    between atoms: C_13  and  O_24
    8  A    between atoms: O_14  and  C_18
                            x       y       z     vdW  Elec       q    Type
                         _______ _______ _______ _____ _____    ______ ____

>  <TORSDO>
F 8

$$$$
=
 OpenBabel10272402023D

 28 29  0  0  1  0  0  0  0  0999 V2000
  186.0210  175.5410  136.0550 C   0  0  0  0  0  2  0  0  0  0  0  0
  184.0220  174.2870  137.7320 C   0  0  0  0  0  1  0  0  0  0  0  0
  183.5800  175.4310  136.8160 C   0  0  1  0  0  0  0  0  0  0  0  0
  188.6440  176.2620  136.8110 C   0  0  0  0  0  2  0  0  0  0  0  0
  183.0460  176.8100  138.8480 C   0  0  0  0  0  2  0  0  0  0  0  0
  184.2510  177.6750  138.5950 C   0  0  0  0  0  0  0  0  0  0  0  0
  182.4750  176.2060  137.5690 C   0  0  1  0  0  3  0  0  0  0  0  0
  187.4900  178.0590  138.0950 C   0  0  0  0  0  2  0  0  0  0  0  0
  185.1180  177.4140  137.5740 C   0  0  0  0  0  0  0  0  0  0  0  0
  188.3290  176.0430  135.4530 O   0  0  0  0  0  0  0  0  0  0  0  0
  186.2440  178.3760  137.2800 C   0  0  0  0  0  2  0  0  0  0  0  0
  188.6640  177.7430  137.1780 C   0  0  0  0  0  2  0  0  0  0  0  0
  186.9820  176.3970  135.2360 C   0  0  0  0  0  2  0  0  0  0  0  0
  184.8020  176.3550  136.5110 C   0  0  1  0  0  3  0  0  0  0  0  0
  180.9070  177.9490  137.2530 O   0  0  0  0  0  0  0  0  0  0  0  0
  181.7920  177.2680  136.7590 C   0  0  0  0  0  3  0  0  0  0  0  0
  183.0600  174.8200  135.6480 O   0  0  0  0  0  0  0  0  0  0  0  0
  182.9110  173.5280  135.8820 O   0  0  0  0  0  1  0  0  0  0  0  0
  184.4070  178.8370  139.5510 C   0  0  1  0  0  3  0  0  0  0  0  0
  182.9980  180.3780  138.8010 C   0  0  0  0  0  1  0  0  0  0  0  0
  183.1680  179.4330  139.8150 O   0  0  0  0  0  0  0  0  0  0  0  0
  185.1270  178.4450  140.8480 C   0  0  2  0  0  3  0  0  0  0  0  0
  184.2270  178.5980  141.9980 C   0  0  0  0  0  0  0  0  0  0  0  0
  183.4880  178.7220  142.9420 C   0  0  0  0  0  0  0  0  0  0  0  0
  182.5910  178.8720  144.0880 C   0  0  0  0  0  1  0  0  0  0  0  0
  186.2520  179.2530  141.0370 O   0  0  0  0  0  0  0  0  0  0  0  0
  187.1230  178.4840  141.8120 C   0  0  0  0  0  2  0  0  0  0  0  0
  188.4400  178.7760  141.4590 O   0  0  0  0  0  1  0  0  0  0  0  0
  3  7  1  0  0  0  0
  3  2  1  1  0  0  0
  4 12  1  0  0  0  0
  6  5  1  0  0  0  0
  6 19  1  0  0  0  0
  7 16  1  6  0  0  0
  7  5  1  0  0  0  0
  9  6  2  0  0  0  0
 10  4  1  0  0  0  0
 11  9  1  0  0  0  0
 11  8  1  0  0  0  0
 12  8  1  0  0  0  0
 13 10  1  0  0  0  0
 13  1  1  0  0  0  0
 14  1  1  1  0  0  0
 14  3  1  0  0  0  0
 14  9  1  0  0  0  0
 16 15  2  0  0  0  0
 17 18  1  0  0  0  0
 17  3  1  0  0  0  0
 19 21  1  1  0  0  0
 19 22  1  0  0  0  0
 20 21  1  0  0  0  0
 22 26  1  0  0  0  0
 22 23  1  1  0  0  0
 23 24  3  0  0  0  0
 24 25  1  0  0  0  0
 26 27  1  0  0  0  0
 28 27  1  0  0  0  0
M  END
>  <MODEL>
4

>  <REMARK>
 VINA RESULT:      -6.2      3.176      7.240
  Name = 
  8 active torsions:
  status: ('A' for Active; 'I' for Inactive)
    1  A    between atoms: C_3  and  O_7
    2  A    between atoms: C_9  and  C_12
    3  A    between atoms: C_9  and  C_13
    4  A    between atoms: C_9  and  O_14
    5  A    between atoms: C_10  and  C_13
    6  A    between atoms: C_11  and  C_22
    7  A    between atoms: C_13  and  O_24
    8  A    between atoms: O_14  and  C_18
                            x       y       z     vdW  Elec       q    Type
                         _______ _______ _______ _____ _____    ______ ____

>  <TORSDO>
F 8

$$$$
=
 OpenBabel10272402023D

 28 29  0  0  1  0  0  0  0  0999 V2000
  189.1950  176.6970  140.2080 C   0  0  0  0  0  2  0  0  0  0  0  0
  187.6760  175.7580  137.9300 C   0  0  0  0  0  1  0  0  0  0  0  0
  188.2450  177.1780  137.8810 C   0  0  1  0  0  0  0  0  0  0  0  0
  188.5510  176.3260  142.9320 C   0  0  0  0  0  2  0  0  0  0  0  0
  185.9010  178.0830  137.8650 C   0  0  0  0  0  2  0  0  0  0  0  0
  186.0590  178.5550  139.2850 C   0  0  0  0  0  0  0  0  0  0  0  0
  187.2250  178.0420  137.1080 C   0  0  1  0  0  3  0  0  0  0  0  0
  186.7690  178.0020  142.4610 C   0  0  0  0  0  2  0  0  0  0  0  0
  187.1920  178.3020  140.0020 C   0  0  0  0  0  0  0  0  0  0  0  0
  189.8840  176.5760  142.5430 O   0  0  0  0  0  0  0  0  0  0  0  0
  187.3580  178.8980  141.3790 C   0  0  0  0  0  2  0  0  0  0  0  0
  187.8450  177.5770  143.4490 C   0  0  0  0  0  2  0  0  0  0  0  0
  189.8770  177.3830  141.3890 C   0  0  0  0  0  2  0  0  0  0  0  0
  188.4410  177.7110  139.3360 C   0  0  1  0  0  3  0  0  0  0  0  0
  188.7150  179.8700  137.3030 O   0  0  0  0  0  0  0  0  0  0  0  0
  187.6870  179.4370  136.8050 C   0  0  0  0  0  3  0  0  0  0  0  0
  189.4680  177.0860  137.1710 O   0  0  0  0  0  0  0  0  0  0  0  0
  189.3810  176.0830  136.3140 O   0  0  0  0  0  1  0  0  0  0  0  0
  184.8730  179.3200  139.8330 C   0  0  1  0  0  3  0  0  0  0  0  0
  183.0560  180.1270  138.8500 C   0  0  0  0  0  1  0  0  0  0  0  0
  184.4420  180.2870  138.9180 O   0  0  0  0  0  0  0  0  0  0  0  0
  183.7210  178.4010  140.2600 C   0  0  2  0  0  3  0  0  0  0  0  0
  183.4650  178.5390  141.7000 C   0  0  0  0  0  0  0  0  0  0  0  0
  183.2550  178.6510  142.8810 C   0  0  0  0  0  0  0  0  0  0  0  0
  182.9990  178.7870  144.3150 C   0  0  0  0  0  1  0  0  0  0  0  0
  184.0370  177.0690  139.9780 O   0  0  0  0  0  0  0  0  0  0  0  0
  182.8310  176.4880  139.5790 C   0  0  0  0  0  2  0  0  0  0  0  0
  182.7100  176.5730  138.1930 O   0  0  0  0  0  1  0  0  0  0  0  0
  1 13  1  0  0  0  0
  3  2  1  1  0  0  0
  3 14  1  0  0  0  0
  4 12  1  0  0  0  0
  5  6  1  0  0  0  0
  6 19  1  0  0  0  0
  6  9  2  0  0  0  0
  7 16  1  1  0  0  0
  7  5  1  0  0  0  0
  7  3  1  0  0  0  0
  8 12  1  0  0  0  0
  9 11  1  0  0  0  0
 10  4  1  0  0  0  0
 11  8  1  0  0  0  0
 13 10  1  0  0  0  0
 14  9  1  0  0  0  0
 14  1  1  1  0  0  0
 16 15  2  0  0  0  0
 17  3  1  0  0  0  0
 18 17  1  0  0  0  0
 19 21  1  6  0  0  0
 19 22  1  0  0  0  0
 20 21  1  0  0  0  0
 22 23  1  1  0  0  0
 23 24  3  0  0  0  0
 24 25  1  0  0  0  0
 26 22  1  0  0  0  0
 27 26  1  0  0  0  0
 28 27  1  0  0  0  0
M  END
>  <MODEL>
5

>  <REMARK>
 VINA RESULT:      -6.1      2.181      6.035
  Name = 
  8 active torsions:
  status: ('A' for Active; 'I' for Inactive)
    1  A    between atoms: C_3  and  O_7
    2  A    between atoms: C_9  and  C_12
    3  A    between atoms: C_9  and  C_13
    4  A    between atoms: C_9  and  O_14
    5  A    between atoms: C_10  and  C_13
    6  A    between atoms: C_11  and  C_22
    7  A    between atoms: C_13  and  O_24
    8  A    between atoms: O_14  and  C_18
                            x       y       z     vdW  Elec       q    Type
                         _______ _______ _______ _____ _____    ______ ____

>  <TORSDO>
F 8

$$$$
=
 OpenBabel10272402023D

 28 29  0  0  1  0  0  0  0  0999 V2000
  186.0470  178.9700  141.1350 C   0  0  0  0  0  2  0  0  0  0  0  0
  188.6350  179.8880  140.2150 C   0  0  0  0  0  1  0  0  0  0  0  0
  188.2440  178.4340  139.9360 C   0  0  1  0  0  0  0  0  0  0  0  0
  184.8570  179.5160  143.6360 C   0  0  0  0  0  2  0  0  0  0  0  0
  190.1100  177.6780  141.4400 C   0  0  0  0  0  2  0  0  0  0  0  0
  189.1140  177.2690  142.4920 C   0  0  0  0  0  0  0  0  0  0  0  0
  189.5400  177.5980  140.0280 C   0  0  1  0  0  3  0  0  0  0  0  0
  186.5780  177.9330  144.4970 C   0  0  0  0  0  2  0  0  0  0  0  0
  187.7760  177.4850  142.3340 C   0  0  0  0  0  0  0  0  0  0  0  0
  184.0570  179.1640  142.5280 O   0  0  0  0  0  0  0  0  0  0  0  0
  186.8020  176.9490  143.3560 C   0  0  0  0  0  2  0  0  0  0  0  0
  185.1130  178.3390  144.5740 C   0  0  0  0  0  2  0  0  0  0  0  0
  184.7930  178.3020  141.6920 C   0  0  0  0  0  2  0  0  0  0  0  0
  187.1980  177.9630  140.9960 C   0  0  1  0  0  3  0  0  0  0  0  0
  190.1900  175.6540  138.8460 O   0  0  0  0  0  0  0  0  0  0  0  0
  189.3900  176.1640  139.6140 C   0  0  0  0  0  3  0  0  0  0  0  0
  187.7230  178.4140  138.6180 O   0  0  0  0  0  0  0  0  0  0  0  0
  188.4950  179.1630  137.8510 O   0  0  0  0  0  1  0  0  0  0  0  0
  189.7190  176.6080  143.7120 C   0  0  1  0  0  3  0  0  0  0  0  0
  191.6290  175.7030  144.3830 C   0  0  0  0  0  1  0  0  0  0  0  0
  190.7010  175.6830  143.3400 O   0  0  0  0  0  0  0  0  0  0  0  0
  190.2610  177.6210  144.7280 C   0  0  2  0  0  3  0  0  0  0  0  0
  189.5420  177.5010  146.0030 C   0  0  0  0  0  0  0  0  0  0  0  0
  188.9510  177.4040  147.0480 C   0  0  0  0  0  0  0  0  0  0  0  0
  188.2330  177.2860  148.3170 C   0  0  0  0  0  1  0  0  0  0  0  0
  190.1100  178.9220  144.2380 O   0  0  0  0  0  0  0  0  0  0  0  0
  191.3400  179.5410  144.4710 C   0  0  0  0  0  2  0  0  0  0  0  0
  192.3570  178.7880  143.8870 O   0  0  0  0  0  1  0  0  0  0  0  0
  1 13  1  0  0  0  0
  3  7  1  0  0  0  0
  3  2  1  1  0  0  0
  3 14  1  0  0  0  0
  4 12  1  0  0  0  0
  5  6  1  0  0  0  0
  6 19  1  0  0  0  0
  7 16  1  1  0  0  0
  7  5  1  0  0  0  0
  8 12  1  0  0  0  0
  9  6  2  0  0  0  0
  9 11  1  0  0  0  0
 10  4  1  0  0  0  0
 11  8  1  0  0  0  0
 13 10  1  0  0  0  0
 14  1  1  1  0  0  0
 14  9  1  0  0  0  0
 15 16  2  0  0  0  0
 17  3  1  0  0  0  0
 18 17  1  0  0  0  0
 19 21  1  6  0  0  0
 19 22  1  0  0  0  0
 21 20  1  0  0  0  0
 22 23  1  1  0  0  0
 23 24  3  0  0  0  0
 24 25  1  0  0  0  0
 26 27  1  0  0  0  0
 26 22  1  0  0  0  0
 28 27  1  0  0  0  0
M  END
>  <MODEL>
6

>  <REMARK>
 VINA RESULT:      -5.8      1.919      5.859
  Name = 
  8 active torsions:
  status: ('A' for Active; 'I' for Inactive)
    1  A    between atoms: C_3  and  O_7
    2  A    between atoms: C_9  and  C_12
    3  A    between atoms: C_9  and  C_13
    4  A    between atoms: C_9  and  O_14
    5  A    between atoms: C_10  and  C_13
    6  A    between atoms: C_11  and  C_22
    7  A    between atoms: C_13  and  O_24
    8  A    between atoms: O_14  and  C_18
                            x       y       z     vdW  Elec       q    Type
                         _______ _______ _______ _____ _____    ______ ____

>  <TORSDO>
F 8

$$$$
=
 OpenBabel10272402023D

 28 29  0  0  1  0  0  0  0  0999 V2000
  186.4330  178.4230  142.5430 C   0  0  0  0  0  2  0  0  0  0  0  0
  189.0340  179.4860  141.8440 C   0  0  0  0  0  1  0  0  0  0  0  0
  188.8850  177.9670  141.9690 C   0  0  1  0  0  0  0  0  0  0  0  0
  184.6720  179.4340  144.5040 C   0  0  0  0  0  2  0  0  0  0  0  0
  190.4540  178.0070  143.9330 C   0  0  0  0  0  2  0  0  0  0  0  0
  189.3070  177.7430  144.8710 C   0  0  0  0  0  0  0  0  0  0  0  0
  190.2180  177.4330  142.5400 C   0  0  1  0  0  3  0  0  0  0  0  0
  186.3350  178.4880  146.0990 C   0  0  0  0  0  2  0  0  0  0  0  0
  188.0200  177.6660  144.4250 C   0  0  0  0  0  0  0  0  0  0  0  0
  184.1790  178.6480  143.4410 O   0  0  0  0  0  0  0  0  0  0  0  0
  186.9160  177.2780  145.3790 C   0  0  0  0  0  2  0  0  0  0  0  0
  184.8520  178.6340  145.7910 C   0  0  0  0  0  2  0  0  0  0  0  0
  185.1740  177.7290  143.0550 C   0  0  0  0  0  2  0  0  0  0  0  0
  187.6960  177.6380  142.9260 C   0  0  1  0  0  3  0  0  0  0  0  0
  189.3670  175.2520  142.8810 O   0  0  0  0  0  0  0  0  0  0  0  0
  190.3300  175.9370  142.5740 C   0  0  0  0  0  3  0  0  0  0  0  0
  188.6700  177.4850  140.6540 O   0  0  0  0  0  0  0  0  0  0  0  0
  188.6200  178.5170  139.8320 O   0  0  0  0  0  1  0  0  0  0  0  0
  189.7040  177.5710  146.3210 C   0  0  1  0  0  3  0  0  0  0  0  0
  188.6130  177.0170  148.1710 C   0  0  0  0  0  1  0  0  0  0  0  0
  188.9790  176.5310  146.9140 O   0  0  0  0  0  0  0  0  0  0  0  0
  191.2140  177.3740  146.5040 C   0  0  2  0  0  3  0  0  0  0  0  0
  191.6370  176.0940  145.9210 C   0  0  0  0  0  0  0  0  0  0  0  0
  191.9850  175.0450  145.4430 C   0  0  0  0  0  0  0  0  0  0  0  0
  192.4080  173.7690  144.8650 C   0  0  0  0  0  1  0  0  0  0  0  0
  191.5410  177.3880  147.8630 O   0  0  0  0  0  0  0  0  0  0  0  0
  192.3310  176.2520  148.0560 C   0  0  0  0  0  2  0  0  0  0  0  0
  193.3380  176.5370  148.9760 O   0  0  0  0  0  1  0  0  0  0  0  0
  1 13  1  0  0  0  0
  3  2  1  6  0  0  0
  3  7  1  0  0  0  0
  3 14  1  0  0  0  0
  4 12  1  0  0  0  0
  5  6  1  0  0  0  0
  6 19  1  0  0  0  0
  7 16  1  1  0  0  0
  7  5  1  0  0  0  0
  9  6  2  0  0  0  0
  9 11  1  0  0  0  0
 10  4  1  0  0  0  0
 11  8  1  0  0  0  0
 12  8  1  0  0  0  0
 13 10  1  0  0  0  0
 14  1  1  1  0  0  0
 14  9  1  0  0  0  0
 16 15  2  0  0  0  0
 17  3  1  0  0  0  0
 18 17  1  0  0  0  0
 19 22  1  0  0  0  0
 19 21  1  6  0  0  0
 21 20  1  0  0  0  0
 22 23  1  1  0  0  0
 22 26  1  0  0  0  0
 24 23  3  0  0  0  0
 25 24  1  0  0  0  0
 26 27  1  0  0  0  0
 27 28  1  0  0  0  0
M  END
>  <MODEL>
7

>  <REMARK>
 VINA RESULT:      -5.7      2.352      6.693
  Name = 
  8 active torsions:
  status: ('A' for Active; 'I' for Inactive)
    1  A    between atoms: C_3  and  O_7
    2  A    between atoms: C_9  and  C_12
    3  A    between atoms: C_9  and  C_13
    4  A    between atoms: C_9  and  O_14
    5  A    between atoms: C_10  and  C_13
    6  A    between atoms: C_11  and  C_22
    7  A    between atoms: C_13  and  O_24
    8  A    between atoms: O_14  and  C_18
                            x       y       z     vdW  Elec       q    Type
                         _______ _______ _______ _____ _____    ______ ____

>  <TORSDO>
F 8

$$$$
=
 OpenBabel10272402023D

 28 29  0  0  1  0  0  0  0  0999 V2000
  191.0000  176.6930  144.6700 C   0  0  0  0  0  2  0  0  0  0  0  0
  189.5300  175.2090  142.6660 C   0  0  0  0  0  1  0  0  0  0  0  0
  189.6800  176.7200  142.4780 C   0  0  1  0  0  0  0  0  0  0  0  0
  190.8180  176.3790  147.4700 C   0  0  0  0  0  2  0  0  0  0  0  0
  187.1930  176.9680  142.7470 C   0  0  0  0  0  2  0  0  0  0  0  0
  187.3880  177.5750  144.1110 C   0  0  0  0  0  0  0  0  0  0  0  0
  188.3760  177.2200  141.8170 C   0  0  1  0  0  3  0  0  0  0  0  0
  188.6030  177.4810  147.1780 C   0  0  0  0  0  2  0  0  0  0  0  0
  188.6260  177.6890  144.6740 C   0  0  0  0  0  0  0  0  0  0  0  0
  191.9750  176.9420  146.8900 O   0  0  0  0  0  0  0  0  0  0  0  0
  188.7890  178.4130  145.9880 C   0  0  0  0  0  2  0  0  0  0  0  0
  189.8660  177.4350  148.0260 C   0  0  0  0  0  2  0  0  0  0  0  0
  191.6080  177.6260  145.7140 C   0  0  0  0  0  2  0  0  0  0  0  0
  189.8980  177.3990  143.8680 C   0  0  1  0  0  3  0  0  0  0  0  0
  188.2640  178.9620  140.2190 O   0  0  0  0  0  0  0  0  0  0  0  0
  188.4000  178.6590  141.3940 C   0  0  0  0  0  3  0  0  0  0  0  0
  190.7860  176.9000  141.6100 O   0  0  0  0  0  0  0  0  0  0  0  0
  190.5660  176.2140  140.5030 O   0  0  0  0  0  1  0  0  0  0  0  0
  186.1140  178.0380  144.7840 C   0  0  1  0  0  3  0  0  0  0  0  0
  185.1390  178.2630  146.7630 C   0  0  0  0  0  1  0  0  0  0  0  0
  186.3620  178.4180  146.1080 O   0  0  0  0  0  0  0  0  0  0  0  0
  185.4050  179.1540  144.0060 C   0  0  2  0  0  3  0  0  0  0  0  0
  183.9500  178.9530  144.0370 C   0  0  0  0  0  0  0  0  0  0  0  0
  182.7570  178.7880  144.0630 C   0  0  0  0  0  0  0  0  0  0  0  0
  181.3080  178.5900  144.0960 C   0  0  0  0  0  1  0  0  0  0  0  0
  185.8370  179.1640  142.6770 O   0  0  0  0  0  0  0  0  0  0  0  0
  184.6650  179.1630  141.9150 C   0  0  0  0  0  2  0  0  0  0  0  0
  184.9620  179.5380  140.6060 O   0  0  0  0  0  1  0  0  0  0  0  0
  1 13  1  0  0  0  0
  3  2  1  1  0  0  0
  3 14  1  0  0  0  0
  4 12  1  0  0  0  0
  5  6  1  0  0  0  0
  6  9  2  0  0  0  0
  6 19  1  0  0  0  0
  7 16  1  1  0  0  0
  7  3  1  0  0  0  0
  7  5  1  0  0  0  0
  8 12  1  0  0  0  0
  9 11  1  0  0  0  0
 10  4  1  0  0  0  0
 11  8  1  0  0  0  0
 13 10  1  0  0  0  0
 14  1  1  1  0  0  0
 14  9  1  0  0  0  0
 15 16  2  0  0  0  0
 17  3  1  0  0  0  0
 18 17  1  0  0  0  0
 19 21  1  1  0  0  0
 21 20  1  0  0  0  0
 22 23  1  6  0  0  0
 22 19  1  0  0  0  0
 23 24  3  0  0  0  0
 24 25  1  0  0  0  0
 26 22  1  0  0  0  0
 27 26  1  0  0  0  0
 28 27  1  0  0  0  0
M  END
>  <MODEL>
8

>  <REMARK>
 VINA RESULT:      -5.6      2.312      5.609
  Name = 
  8 active torsions:
  status: ('A' for Active; 'I' for Inactive)
    1  A    between atoms: C_3  and  O_7
    2  A    between atoms: C_9  and  C_12
    3  A    between atoms: C_9  and  C_13
    4  A    between atoms: C_9  and  O_14
    5  A    between atoms: C_10  and  C_13
    6  A    between atoms: C_11  and  C_22
    7  A    between atoms: C_13  and  O_24
    8  A    between atoms: O_14  and  C_18
                            x       y       z     vdW  Elec       q    Type
                         _______ _______ _______ _____ _____    ______ ____

>  <TORSDO>
F 8

$$$$
=
 OpenBabel10272402023D

 28 29  0  0  1  0  0  0  0  0999 V2000
  186.7070  174.6560  135.7650 C   0  0  0  0  0  2  0  0  0  0  0  0
  185.1690  173.1920  137.7330 C   0  0  0  0  0  1  0  0  0  0  0  0
  184.4290  173.7750  136.5270 C   0  0  1  0  0  0  0  0  0  0  0  0
  188.7420  176.5440  136.2810 C   0  0  0  0  0  2  0  0  0  0  0  0
  183.1720  175.3030  138.0780 C   0  0  0  0  0  2  0  0  0  0  0  0
  183.9700  176.4810  137.5860 C   0  0  0  0  0  0  0  0  0  0  0  0
  183.0320  174.2070  137.0270 C   0  0  1  0  0  3  0  0  0  0  0  0
  186.8440  177.9920  136.9950 C   0  0  0  0  0  2  0  0  0  0  0  0
  184.9830  176.3330  136.6840 C   0  0  0  0  0  0  0  0  0  0  0  0
  188.6950  175.8690  135.0430 O   0  0  0  0  0  0  0  0  0  0  0  0
  185.6750  177.5530  136.1250 C   0  0  0  0  0  2  0  0  0  0  0  0
  188.1450  177.9470  136.2080 C   0  0  0  0  0  2  0  0  0  0  0  0
  187.3510  175.5790  134.7340 C   0  0  0  0  0  2  0  0  0  0  0  0
  185.2250  174.9980  135.9690 C   0  0  1  0  0  3  0  0  0  0  0  0
  181.3620  173.8410  135.3910 O   0  0  0  0  0  0  0  0  0  0  0  0
  182.0890  174.6490  135.9460 C   0  0  0  0  0  3  0  0  0  0  0  0
  184.3240  172.7230  135.5840 O   0  0  0  0  0  0  0  0  0  0  0  0
  184.3320  171.5740  136.2360 O   0  0  0  0  0  1  0  0  0  0  0  0
  183.5530  177.8140  138.1690 C   0  0  1  0  0  3  0  0  0  0  0  0
  181.9440  178.4400  136.7770 C   0  0  0  0  0  1  0  0  0  0  0  0
  182.1670  177.9830  138.0780 O   0  0  0  0  0  0  0  0  0  0  0  0
  184.0490  178.0130  139.6070 C   0  0  2  0  0  3  0  0  0  0  0  0
  182.9150  178.2590  140.5080 C   0  0  0  0  0  0  0  0  0  0  0  0
  181.9860  178.4620  141.2480 C   0  0  0  0  0  0  0  0  0  0  0  0
  180.8580  178.7100  142.1450 C   0  0  0  0  0  1  0  0  0  0  0  0
  184.9260  179.1000  139.6680 O   0  0  0  0  0  0  0  0  0  0  0  0
  185.7110  178.8680  140.7990 C   0  0  0  0  0  2  0  0  0  0  0  0
  187.0510  178.7850  140.4250 O   0  0  0  0  0  1  0  0  0  0  0  0
  3  7  1  0  0  0  0
  3  2  1  1  0  0  0
  6  5  1  0  0  0  0
  6 19  1  0  0  0  0
  7 16  1  6  0  0  0
  7  5  1  0  0  0  0
  9  6  2  0  0  0  0
 10  4  1  0  0  0  0
 11  9  1  0  0  0  0
 11  8  1  0  0  0  0
 12  4  1  0  0  0  0
 12  8  1  0  0  0  0
 13 10  1  0  0  0  0
 13  1  1  0  0  0  0
 14  1  1  1  0  0  0
 14  3  1  0  0  0  0
 14  9  1  0  0  0  0
 15 16  2  0  0  0  0
 17 18  1  0  0  0  0
 17  3  1  0  0  0  0
 19 21  1  1  0  0  0
 19 22  1  0  0  0  0
 20 21  1  0  0  0  0
 22 26  1  0  0  0  0
 22 23  1  1  0  0  0
 23 24  3  0  0  0  0
 24 25  1  0  0  0  0
 26 27  1  0  0  0  0
 28 27  1  0  0  0  0
M  END
>  <MODEL>
9

>  <REMARK>
 VINA RESULT:      -5.6      3.802      7.997
  Name = 
  8 active torsions:
  status: ('A' for Active; 'I' for Inactive)
    1  A    between atoms: C_3  and  O_7
    2  A    between atoms: C_9  and  C_12
    3  A    between atoms: C_9  and  C_13
    4  A    between atoms: C_9  and  O_14
    5  A    between atoms: C_10  and  C_13
    6  A    between atoms: C_11  and  C_22
    7  A    between atoms: C_13  and  O_24
    8  A    between atoms: O_14  and  C_18
                            x       y       z     vdW  Elec       q    Type
                         _______ _______ _______ _____ _____    ______ ____

>  <TORSDO>
F 8

$$$$
