=
 OpenBabel10272400513D

 25 28  0  0  1  0  0  0  0  0999 V2000
  186.9790  177.7160  145.8820 C   0  0  0  0  0  0  0  0  0  0  0  0
  188.2940  177.2890  145.6660 C   0  0  0  0  0  0  0  0  0  0  0  0
  187.4750  178.4410  148.1330 C   0  0  0  0  0  3  0  0  0  0  0  0
  185.8000  177.6730  144.9650 C   0  0  1  0  0  3  0  0  0  0  0  0
  183.8570  179.4640  143.8950 C   0  0  0  0  0  3  0  0  0  0  0  0
  188.7950  178.0050  147.9560 C   0  0  0  0  0  3  0  0  0  0  0  0
  184.7600  178.3250  145.7720 N   0  0  0  0  0  0  0  0  0  0  0  0
  183.6990  179.0510  145.1520 C   0  0  0  0  0  3  0  0  0  0  0  0
  185.1380  179.2060  143.2050 C   0  0  0  0  0  3  0  0  0  0  0  0
  186.5870  178.2670  147.0780 C   0  0  0  0  0  0  0  0  0  0  0  0
  185.2270  178.6590  147.0500 N   0  0  0  0  0  2  0  0  0  0  0  0
  186.0410  178.4290  143.7320 N   0  0  0  0  0  0  0  0  0  0  0  0
  189.2170  177.4220  146.7420 C   0  0  0  0  0  0  0  0  0  0  0  0
  190.5460  176.9060  146.6780 N   0  0  0  0  0  0  0  0  0  0  0  0
  191.6920  176.2020  147.3240 C   0  0  0  0  0  2  0  0  0  0  0  0
  191.8400  176.5770  146.0070 C   0  0  0  0  0  2  0  0  0  0  0  0
  188.6450  176.7600  144.3790 N   0  0  0  0  0  2  0  0  0  0  0  0
  189.3800  177.4880  143.3600 C   0  0  0  0  0  2  0  0  0  0  0  0
  189.8520  176.5310  142.2790 C   0  0  0  0  0  2  0  0  0  0  0  0
  190.3010  177.2810  141.1180 N   0  0  0  0  0  2  0  0  0  0  0  0
  189.3230  177.0770  140.0600 C   0  0  2  0  0  3  0  0  0  0  0  0
  189.9590  176.6040  138.9110 O   0  0  0  0  0  1  0  0  0  0  0  0
  188.6240  178.3590  139.7600 C   0  0  0  0  0  0  0  0  0  0  0  0
  189.0370  179.1330  138.6850 O   0  0  0  0  0  0  0  0  0  0  0  0
  187.6590  178.7420  140.4720 O   0  0  0  0  0  1  0  0  0  0  0  0
  1 10  1  0  0  0  0
  2  1  2  0  0  0  0
  2 13  1  0  0  0  0
  4 12  1  6  0  0  0
  4  7  1  0  0  0  0
  4  1  1  0  0  0  0
  5  8  2  0  0  0  0
  6  3  1  0  0  0  0
  7 11  1  0  0  0  0
  8  7  1  0  0  0  0
  9 12  2  0  0  0  0
  9  5  1  0  0  0  0
 10  3  2  0  0  0  0
 11 10  1  0  0  0  0
 13  6  2  0  0  0  0
 14 13  1  0  0  0  0
 14 15  1  0  0  0  0
 16 14  1  0  0  0  0
 16 15  1  0  0  0  0
 17  2  1  0  0  0  0
 18 17  1  0  0  0  0
 19 18  1  0  0  0  0
 20 19  1  0  0  0  0
 21 22  1  6  0  0  0
 21 20  1  0  0  0  0
 23 21  1  0  0  0  0
 23 25  1  0  0  0  0
 24 23  2  0  0  0  0
M  END
>  <MODEL>
1

>  <REMARK>
 VINA RESULT:      -8.3      0.000      0.000
  Name = 
  7 active torsions:
  status: ('A' for Active; 'I' for Inactive)
    1  A    between atoms: C_2  and  C_21
    2  A    between atoms: C_3  and  N_16
    3  A    between atoms: C_6  and  N_15
    4  A    between atoms: C_6  and  C_23
    5  A    between atoms: N_13  and  C_24
    6  A    between atoms: N_15  and  C_21
    7  A    between atoms: N_16  and  C_23
                            x       y       z     vdW  Elec       q    Type
                         _______ _______ _______ _____ _____    ______ ____

>  <TORSDO>
F 7

$$$$
=
 OpenBabel10272400513D

 25 28  0  0  1  0  0  0  0  0999 V2000
  186.9990  177.7100  145.8770 C   0  0  0  0  0  0  0  0  0  0  0  0
  188.3060  177.2640  145.6510 C   0  0  0  0  0  0  0  0  0  0  0  0
  187.5360  178.4790  148.1030 C   0  0  0  0  0  3  0  0  0  0  0  0
  185.8060  177.6590  144.9790 C   0  0  1  0  0  3  0  0  0  0  0  0
  183.8660  179.4470  143.8970 C   0  0  0  0  0  3  0  0  0  0  0  0
  188.8490  178.0250  147.9180 C   0  0  0  0  0  3  0  0  0  0  0  0
  184.7850  178.3400  145.7860 N   0  0  0  0  0  0  0  0  0  0  0  0
  183.7220  179.0630  145.1660 C   0  0  0  0  0  3  0  0  0  0  0  0
  185.1340  179.1600  143.1950 C   0  0  0  0  0  3  0  0  0  0  0  0
  186.6310  178.2920  147.0660 C   0  0  0  0  0  0  0  0  0  0  0  0
  185.2750  178.6970  147.0490 N   0  0  0  0  0  2  0  0  0  0  0  0
  186.0360  178.3850  143.7250 N   0  0  0  0  0  0  0  0  0  0  0  0
  189.2460  177.4110  146.7110 C   0  0  0  0  0  0  0  0  0  0  0  0
  190.5690  176.8800  146.6390 N   0  0  0  0  0  0  0  0  0  0  0  0
  191.7480  176.2510  147.3030 C   0  0  0  0  0  2  0  0  0  0  0  0
  191.8220  176.4590  145.9440 C   0  0  0  0  0  2  0  0  0  0  0  0
  188.6320  176.7030  144.3720 N   0  0  0  0  0  2  0  0  0  0  0  0
  189.3460  177.4060  143.3200 C   0  0  0  0  0  2  0  0  0  0  0  0
  188.7670  177.0370  141.9660 C   0  0  0  0  0  2  0  0  0  0  0  0
  189.4970  177.7240  140.9130 N   0  0  0  0  0  2  0  0  0  0  0  0
  190.6020  176.8660  140.5140 C   0  0  2  0  0  3  0  0  0  0  0  0
  191.8150  177.5210  140.7350 O   0  0  0  0  0  1  0  0  0  0  0  0
  190.4750  176.5110  139.0720 C   0  0  0  0  0  0  0  0  0  0  0  0
  189.9540  177.4370  138.1790 O   0  0  0  0  0  0  0  0  0  0  0  0
  190.8380  175.3790  138.6580 O   0  0  0  0  0  1  0  0  0  0  0  0
  1 10  1  0  0  0  0
  2  1  2  0  0  0  0
  2 13  1  0  0  0  0
  4 12  1  6  0  0  0
  4  7  1  0  0  0  0
  4  1  1  0  0  0  0
  5  8  2  0  0  0  0
  6  3  1  0  0  0  0
  7 11  1  0  0  0  0
  8  7  1  0  0  0  0
  9 12  2  0  0  0  0
  9  5  1  0  0  0  0
 10  3  2  0  0  0  0
 11 10  1  0  0  0  0
 13  6  2  0  0  0  0
 14 13  1  0  0  0  0
 14 15  1  0  0  0  0
 16 14  1  0  0  0  0
 16 15  1  0  0  0  0
 17  2  1  0  0  0  0
 18 17  1  0  0  0  0
 19 18  1  0  0  0  0
 20 19  1  0  0  0  0
 21 22  1  6  0  0  0
 21 20  1  0  0  0  0
 23 21  1  0  0  0  0
 24 23  2  0  0  0  0
 25 23  1  0  0  0  0
M  END
>  <MODEL>
2

>  <REMARK>
 VINA RESULT:      -8.1      1.067      1.385
  Name = 
  7 active torsions:
  status: ('A' for Active; 'I' for Inactive)
    1  A    between atoms: C_2  and  C_21
    2  A    between atoms: C_3  and  N_16
    3  A    between atoms: C_6  and  N_15
    4  A    between atoms: C_6  and  C_23
    5  A    between atoms: N_13  and  C_24
    6  A    between atoms: N_15  and  C_21
    7  A    between atoms: N_16  and  C_23
                            x       y       z     vdW  Elec       q    Type
                         _______ _______ _______ _____ _____    ______ ____

>  <TORSDO>
F 7

$$$$
=
 OpenBabel10272400513D

 25 28  0  0  1  0  0  0  0  0999 V2000
  188.2210  177.6800  144.5190 C   0  0  0  0  0  0  0  0  0  0  0  0
  186.9760  177.8370  143.9010 C   0  0  0  0  0  0  0  0  0  0  0  0
  187.2770  177.9590  146.7250 C   0  0  0  0  0  3  0  0  0  0  0  0
  189.5650  177.4390  143.9100 C   0  0  1  0  0  3  0  0  0  0  0  0
  191.7040  175.5660  144.1220 C   0  0  0  0  0  3  0  0  0  0  0  0
  186.0180  178.1410  146.1360 C   0  0  0  0  0  3  0  0  0  0  0  0
  190.4210  177.3110  145.0960 N   0  0  0  0  0  0  0  0  0  0  0  0
  191.5940  176.4980  145.0680 C   0  0  0  0  0  3  0  0  0  0  0  0
  190.5910  175.3690  143.1700 C   0  0  0  0  0  3  0  0  0  0  0  0
  188.3620  177.7460  145.8840 C   0  0  0  0  0  0  0  0  0  0  0  0
  189.7020  177.5200  146.2800 N   0  0  0  0  0  2  0  0  0  0  0  0
  189.5910  176.2020  143.1210 N   0  0  0  0  0  0  0  0  0  0  0  0
  185.8520  178.0920  144.7360 C   0  0  0  0  0  0  0  0  0  0  0  0
  184.5600  178.3930  144.2090 N   0  0  0  0  0  0  0  0  0  0  0  0
  183.1390  178.7950  144.4200 C   0  0  0  0  0  2  0  0  0  0  0  0
  183.5580  178.6110  143.1220 C   0  0  0  0  0  2  0  0  0  0  0  0
  186.8950  177.7170  142.4730 N   0  0  0  0  0  2  0  0  0  0  0  0
  187.1790  178.7910  141.5370 C   0  0  0  0  0  2  0  0  0  0  0  0
  188.3150  178.3860  140.6150 C   0  0  0  0  0  2  0  0  0  0  0  0
  187.9150  178.5710  139.2300 N   0  0  0  0  0  2  0  0  0  0  0  0
  189.1290  178.7080  138.4380 C   0  0  2  0  0  3  0  0  0  0  0  0
  188.9040  179.5840  137.3740 O   0  0  0  0  0  1  0  0  0  0  0  0
  189.5490  177.3760  137.9170 C   0  0  0  0  0  0  0  0  0  0  0  0
  188.5870  176.4370  137.5720 O   0  0  0  0  0  0  0  0  0  0  0  0
  190.7700  177.0980  137.7840 O   0  0  0  0  0  1  0  0  0  0  0  0
  1 10  1  0  0  0  0
  2  1  2  0  0  0  0
  2 13  1  0  0  0  0
  4 12  1  1  0  0  0
  4  1  1  0  0  0  0
  4  7  1  0  0  0  0
  5  8  2  0  0  0  0
  6  3  1  0  0  0  0
  7 11  1  0  0  0  0
  8  7  1  0  0  0  0
  9  5  1  0  0  0  0
 10 11  1  0  0  0  0
 10  3  2  0  0  0  0
 12  9  2  0  0  0  0
 13  6  2  0  0  0  0
 14 15  1  0  0  0  0
 14 13  1  0  0  0  0
 16 14  1  0  0  0  0
 16 15  1  0  0  0  0
 17  2  1  0  0  0  0
 18 17  1  0  0  0  0
 19 18  1  0  0  0  0
 20 19  1  0  0  0  0
 21 22  1  6  0  0  0
 21 20  1  0  0  0  0
 23 21  1  0  0  0  0
 24 23  2  0  0  0  0
 25 23  1  0  0  0  0
M  END
>  <MODEL>
3

>  <REMARK>
 VINA RESULT:      -7.6      1.636      4.992
  Name = 
  7 active torsions:
  status: ('A' for Active; 'I' for Inactive)
    1  A    between atoms: C_2  and  C_21
    2  A    between atoms: C_3  and  N_16
    3  A    between atoms: C_6  and  N_15
    4  A    between atoms: C_6  and  C_23
    5  A    between atoms: N_13  and  C_24
    6  A    between atoms: N_15  and  C_21
    7  A    between atoms: N_16  and  C_23
                            x       y       z     vdW  Elec       q    Type
                         _______ _______ _______ _____ _____    ______ ____

>  <TORSDO>
F 7

$$$$
=
 OpenBabel10272400513D

 25 28  0  0  1  0  0  0  0  0999 V2000
  188.7400  177.7100  145.0300 C   0  0  0  0  0  0  0  0  0  0  0  0
  188.0580  177.9290  143.8280 C   0  0  0  0  0  0  0  0  0  0  0  0
  186.6830  177.5000  146.2800 C   0  0  0  0  0  3  0  0  0  0  0  0
  190.2100  177.6570  145.2960 C   0  0  1  0  0  3  0  0  0  0  0  0
  192.1090  175.8790  146.4630 C   0  0  0  0  0  3  0  0  0  0  0  0
  185.9690  177.7370  145.0970 C   0  0  0  0  0  3  0  0  0  0  0  0
  190.2510  177.3340  146.7290 N   0  0  0  0  0  0  0  0  0  0  0  0
  191.3410  176.5970  147.2830 C   0  0  0  0  0  3  0  0  0  0  0  0
  191.7770  175.8240  145.0250 C   0  0  0  0  0  3  0  0  0  0  0  0
  188.0710  177.5090  146.2130 C   0  0  0  0  0  0  0  0  0  0  0  0
  188.9660  177.2700  147.2840 N   0  0  0  0  0  2  0  0  0  0  0  0
  190.8670  176.6040  144.5140 N   0  0  0  0  0  0  0  0  0  0  0  0
  186.6350  177.9610  143.8740 C   0  0  0  0  0  0  0  0  0  0  0  0
  185.8420  178.3010  142.7370 N   0  0  0  0  0  0  0  0  0  0  0  0
  184.5650  178.1930  141.9720 C   0  0  0  0  0  2  0  0  0  0  0  0
  185.5440  179.0120  141.4570 C   0  0  0  0  0  2  0  0  0  0  0  0
  188.8190  178.0920  142.6230 N   0  0  0  0  0  2  0  0  0  0  0  0
  188.8650  177.1260  141.5390 C   0  0  0  0  0  2  0  0  0  0  0  0
  189.5720  177.7290  140.3390 C   0  0  0  0  0  2  0  0  0  0  0  0
  188.7070  178.7050  139.6960 N   0  0  0  0  0  2  0  0  0  0  0  0
  188.6570  178.3790  138.2780 C   0  0  2  0  0  3  0  0  0  0  0  0
  188.9760  179.5070  137.5210 O   0  0  0  0  0  1  0  0  0  0  0  0
  187.2940  177.8950  137.9170 C   0  0  0  0  0  0  0  0  0  0  0  0
  187.1190  176.5870  137.4860 O   0  0  0  0  0  0  0  0  0  0  0  0
  186.3000  178.6630  138.0020 O   0  0  0  0  0  1  0  0  0  0  0  0
  1  4  1  0  0  0  0
  1 10  1  0  0  0  0
  2 13  1  0  0  0  0
  2  1  2  0  0  0  0
  4 12  1  6  0  0  0
  4  7  1  0  0  0  0
  5  8  2  0  0  0  0
  6  3  1  0  0  0  0
  7  8  1  0  0  0  0
  7 11  1  0  0  0  0
  9  5  1  0  0  0  0
 10  3  2  0  0  0  0
 10 11  1  0  0  0  0
 12  9  2  0  0  0  0
 13  6  2  0  0  0  0
 14 13  1  0  0  0  0
 15 14  1  0  0  0  0
 16 15  1  0  0  0  0
 16 14  1  0  0  0  0
 17  2  1  0  0  0  0
 18 17  1  0  0  0  0
 19 18  1  0  0  0  0
 20 19  1  0  0  0  0
 21 22  1  6  0  0  0
 21 20  1  0  0  0  0
 23 25  1  0  0  0  0
 23 21  1  0  0  0  0
 24 23  2  0  0  0  0
M  END
>  <MODEL>
4

>  <REMARK>
 VINA RESULT:      -7.6      1.922      4.936
  Name = 
  7 active torsions:
  status: ('A' for Active; 'I' for Inactive)
    1  A    between atoms: C_2  and  C_21
    2  A    between atoms: C_3  and  N_16
    3  A    between atoms: C_6  and  N_15
    4  A    between atoms: C_6  and  C_23
    5  A    between atoms: N_13  and  C_24
    6  A    between atoms: N_15  and  C_21
    7  A    between atoms: N_16  and  C_23
                            x       y       z     vdW  Elec       q    Type
                         _______ _______ _______ _____ _____    ______ ____

>  <TORSDO>
F 7

$$$$
=
 OpenBabel10272400513D

 25 28  0  0  1  0  0  0  0  0999 V2000
  188.7230  177.7110  145.1710 C   0  0  0  0  0  0  0  0  0  0  0  0
  188.0620  177.9290  143.9580 C   0  0  0  0  0  0  0  0  0  0  0  0
  186.6470  177.6160  146.4040 C   0  0  0  0  0  3  0  0  0  0  0  0
  190.1860  177.6030  145.4550 C   0  0  1  0  0  3  0  0  0  0  0  0
  191.9980  175.7770  146.6840 C   0  0  0  0  0  3  0  0  0  0  0  0
  185.9550  177.8550  145.2080 C   0  0  0  0  0  3  0  0  0  0  0  0
  190.2000  177.3140  146.8940 N   0  0  0  0  0  0  0  0  0  0  0  0
  191.2530  176.5460  147.4770 C   0  0  0  0  0  3  0  0  0  0  0  0
  191.6780  175.7020  145.2440 C   0  0  0  0  0  3  0  0  0  0  0  0
  188.0340  177.5660  146.3520 C   0  0  0  0  0  0  0  0  0  0  0  0
  188.9080  177.3160  147.4370 N   0  0  0  0  0  2  0  0  0  0  0  0
  190.8070  176.5060  144.7040 N   0  0  0  0  0  0  0  0  0  0  0  0
  186.6420  178.0220  143.9870 C   0  0  0  0  0  0  0  0  0  0  0  0
  185.8740  178.3670  142.8340 N   0  0  0  0  0  0  0  0  0  0  0  0
  185.7250  179.1310  141.5610 C   0  0  0  0  0  2  0  0  0  0  0  0
  184.7030  178.2770  141.9100 C   0  0  0  0  0  2  0  0  0  0  0  0
  188.8410  178.0320  142.7570 N   0  0  0  0  0  2  0  0  0  0  0  0
  188.9770  176.9750  141.7690 C   0  0  0  0  0  2  0  0  0  0  0  0
  190.3370  177.0650  141.1000 C   0  0  0  0  0  2  0  0  0  0  0  0
  190.1970  177.6470  139.7750 N   0  0  0  0  0  2  0  0  0  0  0  0
  188.8730  177.2990  139.2810 C   0  0  2  0  0  3  0  0  0  0  0  0
  188.9580  176.1890  138.4390 O   0  0  0  0  0  1  0  0  0  0  0  0
  188.2880  178.4530  138.5400 C   0  0  0  0  0  0  0  0  0  0  0  0
  186.9600  178.4130  138.1410 O   0  0  0  0  0  0  0  0  0  0  0  0
  188.9900  179.4650  138.2780 O   0  0  0  0  0  1  0  0  0  0  0  0
  1  4  1  0  0  0  0
  1 10  1  0  0  0  0
  2 13  1  0  0  0  0
  2  1  2  0  0  0  0
  4 12  1  6  0  0  0
  4  7  1  0  0  0  0
  5  8  2  0  0  0  0
  6  3  1  0  0  0  0
  7 11  1  0  0  0  0
  7  8  1  0  0  0  0
  9  5  1  0  0  0  0
 10  3  2  0  0  0  0
 10 11  1  0  0  0  0
 12  9  2  0  0  0  0
 13  6  2  0  0  0  0
 14 13  1  0  0  0  0
 15 16  1  0  0  0  0
 15 14  1  0  0  0  0
 16 14  1  0  0  0  0
 17  2  1  0  0  0  0
 18 17  1  0  0  0  0
 19 18  1  0  0  0  0
 20 19  1  0  0  0  0
 21 22  1  6  0  0  0
 21 20  1  0  0  0  0
 23 21  1  0  0  0  0
 24 23  2  0  0  0  0
 25 23  1  0  0  0  0
M  END
>  <MODEL>
5

>  <REMARK>
 VINA RESULT:      -7.4      1.723      4.768
  Name = 
  7 active torsions:
  status: ('A' for Active; 'I' for Inactive)
    1  A    between atoms: C_2  and  C_21
    2  A    between atoms: C_3  and  N_16
    3  A    between atoms: C_6  and  N_15
    4  A    between atoms: C_6  and  C_23
    5  A    between atoms: N_13  and  C_24
    6  A    between atoms: N_15  and  C_21
    7  A    between atoms: N_16  and  C_23
                            x       y       z     vdW  Elec       q    Type
                         _______ _______ _______ _____ _____    ______ ____

>  <TORSDO>
F 7

$$$$
=
 OpenBabel10272400513D

 25 28  0  0  1  0  0  0  0  0999 V2000
  185.9660  177.9640  144.3980 C   0  0  0  0  0  0  0  0  0  0  0  0
  187.1890  177.7470  145.0420 C   0  0  0  0  0  0  0  0  0  0  0  0
  184.9320  178.7940  146.4170 C   0  0  0  0  0  3  0  0  0  0  0  0
  185.5810  177.7190  142.9750 C   0  0  1  0  0  3  0  0  0  0  0  0
  184.4660  179.1620  140.7830 C   0  0  0  0  0  3  0  0  0  0  0  0
  186.1370  178.5690  147.0970 C   0  0  0  0  0  3  0  0  0  0  0  0
  184.1980  178.2100  142.9420 N   0  0  0  0  0  0  0  0  0  0  0  0
  183.6400  178.7490  141.7440 C   0  0  0  0  0  3  0  0  0  0  0  0
  185.9240  179.1000  141.0090 C   0  0  0  0  0  3  0  0  0  0  0  0
  184.8770  178.4640  145.0690 C   0  0  0  0  0  0  0  0  0  0  0  0
  183.7670  178.6350  144.2060 N   0  0  0  0  0  2  0  0  0  0  0  0
  186.4200  178.4840  142.0450 N   0  0  0  0  0  0  0  0  0  0  0  0
  187.2640  178.0420  146.4330 C   0  0  0  0  0  0  0  0  0  0  0  0
  188.4190  177.7420  147.2170 N   0  0  0  0  0  0  0  0  0  0  0  0
  189.6340  176.9120  147.4650 C   0  0  0  0  0  2  0  0  0  0  0  0
  189.3960  177.9600  148.3250 C   0  0  0  0  0  2  0  0  0  0  0  0
  188.2970  177.2590  144.2720 N   0  0  0  0  0  2  0  0  0  0  0  0
  189.4540  178.0540  143.8950 C   0  0  0  0  0  2  0  0  0  0  0  0
  190.4240  177.2060  143.0910 C   0  0  0  0  0  2  0  0  0  0  0  0
  189.7160  176.5380  142.0110 N   0  0  0  0  0  2  0  0  0  0  0  0
  189.8560  177.3630  140.8200 C   0  0  2  0  0  3  0  0  0  0  0  0
  188.6920  177.2890  140.0530 O   0  0  0  0  0  1  0  0  0  0  0  0
  191.0220  176.8990  140.0150 C   0  0  0  0  0  0  0  0  0  0  0  0
  192.2480  177.5360  140.1490 O   0  0  0  0  0  1  0  0  0  0  0  0
  190.9040  175.9310  139.2190 O   0  0  0  0  0  0  0  0  0  0  0  0
  1  2  2  0  0  0  0
  1 10  1  0  0  0  0
  2 13  1  0  0  0  0
  3  6  1  0  0  0  0
  4 12  1  6  0  0  0
  4  1  1  0  0  0  0
  5  9  1  0  0  0  0
  5  8  2  0  0  0  0
  7  4  1  0  0  0  0
  7 11  1  0  0  0  0
  8  7  1  0  0  0  0
  9 12  2  0  0  0  0
 10  3  2  0  0  0  0
 11 10  1  0  0  0  0
 13  6  2  0  0  0  0
 13 14  1  0  0  0  0
 14 15  1  0  0  0  0
 14 16  1  0  0  0  0
 15 16  1  0  0  0  0
 17  2  1  0  0  0  0
 18 17  1  0  0  0  0
 19 18  1  0  0  0  0
 20 19  1  0  0  0  0
 21 22  1  6  0  0  0
 21 20  1  0  0  0  0
 23 24  1  0  0  0  0
 23 21  1  0  0  0  0
 25 23  2  0  0  0  0
M  END
>  <MODEL>
6

>  <REMARK>
 VINA RESULT:      -7.2      1.649      2.545
  Name = 
  7 active torsions:
  status: ('A' for Active; 'I' for Inactive)
    1  A    between atoms: C_2  and  C_21
    2  A    between atoms: C_3  and  N_16
    3  A    between atoms: C_6  and  N_15
    4  A    between atoms: C_6  and  C_23
    5  A    between atoms: N_13  and  C_24
    6  A    between atoms: N_15  and  C_21
    7  A    between atoms: N_16  and  C_23
                            x       y       z     vdW  Elec       q    Type
                         _______ _______ _______ _____ _____    ______ ____

>  <TORSDO>
F 7

$$$$
=
 OpenBabel10272400513D

 25 28  0  0  1  0  0  0  0  0999 V2000
  188.0740  177.7690  144.5200 C   0  0  0  0  0  0  0  0  0  0  0  0
  186.8040  177.9310  143.9560 C   0  0  0  0  0  0  0  0  0  0  0  0
  187.2180  177.9910  146.7680 C   0  0  0  0  0  3  0  0  0  0  0  0
  189.3930  177.5510  143.8530 C   0  0  1  0  0  3  0  0  0  0  0  0
  191.5510  175.6890  143.9370 C   0  0  0  0  0  3  0  0  0  0  0  0
  185.9350  178.1770  146.2350 C   0  0  0  0  0  3  0  0  0  0  0  0
  190.2980  177.4020  145.0010 N   0  0  0  0  0  0  0  0  0  0  0  0
  191.4730  176.5980  144.9080 C   0  0  0  0  0  3  0  0  0  0  0  0
  190.4020  175.5050  143.0260 C   0  0  0  0  0  3  0  0  0  0  0  0
  188.2690  177.8050  145.8800 C   0  0  0  0  0  0  0  0  0  0  0  0
  189.6250  177.5800  146.2170 N   0  0  0  0  0  2  0  0  0  0  0  0
  189.3960  176.3330  143.0360 N   0  0  0  0  0  0  0  0  0  0  0  0
  185.7130  178.1590  144.8410 C   0  0  0  0  0  0  0  0  0  0  0  0
  184.3990  178.4620  144.3730 N   0  0  0  0  0  0  0  0  0  0  0  0
  183.4340  178.6310  143.2470 C   0  0  0  0  0  2  0  0  0  0  0  0
  182.9500  178.7940  144.5250 C   0  0  0  0  0  2  0  0  0  0  0  0
  186.6660  177.8420  142.5300 N   0  0  0  0  0  2  0  0  0  0  0  0
  186.7630  178.9710  141.6210 C   0  0  0  0  0  2  0  0  0  0  0  0
  186.0410  178.6520  140.3230 C   0  0  0  0  0  2  0  0  0  0  0  0
  184.9240  179.5650  140.1430 N   0  0  0  0  0  2  0  0  0  0  0  0
  183.8470  178.8190  139.5100 C   0  0  2  0  0  3  0  0  0  0  0  0
  184.3770  177.8940  138.6090 O   0  0  0  0  0  1  0  0  0  0  0  0
  182.9340  179.7550  138.7940 C   0  0  0  0  0  0  0  0  0  0  0  0
  181.8590  179.2530  138.0730 O   0  0  0  0  0  0  0  0  0  0  0  0
  183.1280  180.9990  138.8420 O   0  0  0  0  0  1  0  0  0  0  0  0
  1 10  1  0  0  0  0
  2  1  2  0  0  0  0
  2 13  1  0  0  0  0
  4 12  1  1  0  0  0
  4  1  1  0  0  0  0
  4  7  1  0  0  0  0
  5  8  2  0  0  0  0
  6  3  1  0  0  0  0
  7 11  1  0  0  0  0
  8  7  1  0  0  0  0
  9 12  2  0  0  0  0
  9  5  1  0  0  0  0
 10 11  1  0  0  0  0
 10  3  2  0  0  0  0
 13  6  2  0  0  0  0
 14 16  1  0  0  0  0
 14 13  1  0  0  0  0
 15 14  1  0  0  0  0
 15 16  1  0  0  0  0
 17  2  1  0  0  0  0
 18 17  1  0  0  0  0
 19 18  1  0  0  0  0
 20 19  1  0  0  0  0
 21 22  1  6  0  0  0
 21 20  1  0  0  0  0
 23 25  1  0  0  0  0
 23 21  1  0  0  0  0
 24 23  2  0  0  0  0
M  END
>  <MODEL>
7

>  <REMARK>
 VINA RESULT:      -7.1      2.677      5.623
  Name = 
  7 active torsions:
  status: ('A' for Active; 'I' for Inactive)
    1  A    between atoms: C_2  and  C_21
    2  A    between atoms: C_3  and  N_16
    3  A    between atoms: C_6  and  N_15
    4  A    between atoms: C_6  and  C_23
    5  A    between atoms: N_13  and  C_24
    6  A    between atoms: N_15  and  C_21
    7  A    between atoms: N_16  and  C_23
                            x       y       z     vdW  Elec       q    Type
                         _______ _______ _______ _____ _____    ______ ____

>  <TORSDO>
F 7

$$$$
=
 OpenBabel10272400513D

 25 28  0  0  1  0  0  0  0  0999 V2000
  188.7260  177.7280  145.1430 C   0  0  0  0  0  0  0  0  0  0  0  0
  188.0710  177.9800  143.9330 C   0  0  0  0  0  0  0  0  0  0  0  0
  186.6430  177.5350  146.3500 C   0  0  0  0  0  3  0  0  0  0  0  0
  190.1890  177.6420  145.4360 C   0  0  1  0  0  3  0  0  0  0  0  0
  192.0320  175.8100  146.6070 C   0  0  0  0  0  3  0  0  0  0  0  0
  185.9550  177.8060  145.1590 C   0  0  0  0  0  3  0  0  0  0  0  0
  190.1970  177.2950  146.8630 N   0  0  0  0  0  0  0  0  0  0  0  0
  191.2630  176.5280  147.4240 C   0  0  0  0  0  3  0  0  0  0  0  0
  191.7270  175.7860  145.1620 C   0  0  0  0  0  3  0  0  0  0  0  0
  188.0310  177.5190  146.3100 C   0  0  0  0  0  0  0  0  0  0  0  0
  188.9010  177.2460  147.3920 N   0  0  0  0  0  2  0  0  0  0  0  0
  190.8420  176.5910  144.6480 N   0  0  0  0  0  0  0  0  0  0  0  0
  186.6490  178.0390  143.9520 C   0  0  0  0  0  0  0  0  0  0  0  0
  185.8830  178.4120  142.8070 N   0  0  0  0  0  0  0  0  0  0  0  0
  184.5960  178.4020  142.0520 C   0  0  0  0  0  2  0  0  0  0  0  0
  185.6470  179.1020  141.5020 C   0  0  0  0  0  2  0  0  0  0  0  0
  188.8580  178.1490  142.7450 N   0  0  0  0  0  2  0  0  0  0  0  0
  188.9590  177.1700  141.6760 C   0  0  0  0  0  2  0  0  0  0  0  0
  189.1010  177.8770  140.3400 C   0  0  0  0  0  2  0  0  0  0  0  0
  189.4680  176.9180  139.3110 N   0  0  0  0  0  2  0  0  0  0  0  0
  190.8610  176.5550  139.5280 C   0  0  2  0  0  3  0  0  0  0  0  0
  191.6070  177.6960  139.8270 O   0  0  0  0  0  1  0  0  0  0  0  0
  191.4100  175.8980  138.3070 C   0  0  0  0  0  0  0  0  0  0  0  0
  190.9370  174.6500  137.9250 O   0  0  0  0  0  1  0  0  0  0  0  0
  192.2970  176.4680  137.6190 O   0  0  0  0  0  0  0  0  0  0  0  0
  1  4  1  0  0  0  0
  1 10  1  0  0  0  0
  2 13  1  0  0  0  0
  2  1  2  0  0  0  0
  4 12  1  6  0  0  0
  4  7  1  0  0  0  0
  5  8  2  0  0  0  0
  6  3  1  0  0  0  0
  7 11  1  0  0  0  0
  7  8  1  0  0  0  0
  9  5  1  0  0  0  0
 10  3  2  0  0  0  0
 10 11  1  0  0  0  0
 12  9  2  0  0  0  0
 13  6  2  0  0  0  0
 14 13  1  0  0  0  0
 15 14  1  0  0  0  0
 16 15  1  0  0  0  0
 16 14  1  0  0  0  0
 17  2  1  0  0  0  0
 18 17  1  0  0  0  0
 19 18  1  0  0  0  0
 20 21  1  0  0  0  0
 20 19  1  0  0  0  0
 21 22  1  6  0  0  0
 23 21  1  0  0  0  0
 24 23  1  0  0  0  0
 25 23  2  0  0  0  0
M  END
>  <MODEL>
8

>  <REMARK>
 VINA RESULT:      -7.1      1.998      5.071
  Name = 
  7 active torsions:
  status: ('A' for Active; 'I' for Inactive)
    1  A    between atoms: C_2  and  C_21
    2  A    between atoms: C_3  and  N_16
    3  A    between atoms: C_6  and  N_15
    4  A    between atoms: C_6  and  C_23
    5  A    between atoms: N_13  and  C_24
    6  A    between atoms: N_15  and  C_21
    7  A    between atoms: N_16  and  C_23
                            x       y       z     vdW  Elec       q    Type
                         _______ _______ _______ _____ _____    ______ ____

>  <TORSDO>
F 7

$$$$
=
 OpenBabel10272400513D

 25 28  0  0  1  0  0  0  0  0999 V2000
  188.9000  177.4450  144.5780 C   0  0  0  0  0  0  0  0  0  0  0  0
  189.0230  177.4350  143.1840 C   0  0  0  0  0  0  0  0  0  0  0  0
  191.2730  177.7810  144.8890 C   0  0  0  0  0  3  0  0  0  0  0  0
  187.6820  177.2870  145.4290 C   0  0  1  0  0  3  0  0  0  0  0  0
  186.3360  178.6870  147.5160 C   0  0  0  0  0  3  0  0  0  0  0  0
  191.4330  177.7550  143.4960 C   0  0  0  0  0  3  0  0  0  0  0  0
  188.2280  177.4550  146.7820 N   0  0  0  0  0  0  0  0  0  0  0  0
  187.4270  177.9910  147.8350 C   0  0  0  0  0  3  0  0  0  0  0  0
  186.0230  178.9280  146.0930 C   0  0  0  0  0  3  0  0  0  0  0  0
  189.9920  177.6070  145.3980 C   0  0  0  0  0  0  0  0  0  0  0  0
  189.6200  177.6220  146.7630 N   0  0  0  0  0  2  0  0  0  0  0  0
  186.6830  178.3230  145.1470 N   0  0  0  0  0  0  0  0  0  0  0  0
  190.3300  177.5750  142.6360 C   0  0  0  0  0  0  0  0  0  0  0  0
  190.5890  177.4540  141.2380 N   0  0  0  0  0  0  0  0  0  0  0  0
  191.5550  177.3190  140.1090 C   0  0  0  0  0  2  0  0  0  0  0  0
  190.2140  177.3140  139.7990 C   0  0  0  0  0  2  0  0  0  0  0  0
  187.8370  177.3010  142.3890 N   0  0  0  0  0  2  0  0  0  0  0  0
  187.2050  178.3890  141.6600 C   0  0  0  0  0  2  0  0  0  0  0  0
  185.7060  178.3660  141.8950 C   0  0  0  0  0  2  0  0  0  0  0  0
  185.0930  179.5350  141.2860 N   0  0  0  0  0  2  0  0  0  0  0  0
  184.6090  179.1400  139.9710 C   0  0  2  0  0  3  0  0  0  0  0  0
  184.3630  180.2750  139.1960 O   0  0  0  0  0  1  0  0  0  0  0  0
  183.3590  178.3410  140.1090 C   0  0  0  0  0  0  0  0  0  0  0  0
  183.2100  177.1650  139.3880 O   0  0  0  0  0  0  0  0  0  0  0  0
  182.4380  178.7240  140.8780 O   0  0  0  0  0  1  0  0  0  0  0  0
  1 10  1  0  0  0  0
  2  1  2  0  0  0  0
  3 10  2  0  0  0  0
  4  1  1  6  0  0  0
  4  7  1  0  0  0  0
  5  8  2  0  0  0  0
  6  3  1  0  0  0  0
  7  8  1  0  0  0  0
  9  5  1  0  0  0  0
 10 11  1  0  0  0  0
 11  7  1  0  0  0  0
 12  4  1  0  0  0  0
 12  9  2  0  0  0  0
 13  2  1  0  0  0  0
 13  6  2  0  0  0  0
 14 13  1  0  0  0  0
 15 14  1  0  0  0  0
 16 15  1  0  0  0  0
 16 14  1  0  0  0  0
 17  2  1  0  0  0  0
 18 19  1  0  0  0  0
 18 17  1  0  0  0  0
 20 19  1  0  0  0  0
 21 22  1  6  0  0  0
 21 23  1  0  0  0  0
 21 20  1  0  0  0  0
 23 25  1  0  0  0  0
 24 23  2  0  0  0  0
M  END
>  <MODEL>
9

>  <REMARK>
 VINA RESULT:      -7.0      2.421      4.671
  Name = 
  7 active torsions:
  status: ('A' for Active; 'I' for Inactive)
    1  A    between atoms: C_2  and  C_21
    2  A    between atoms: C_3  and  N_16
    3  A    between atoms: C_6  and  N_15
    4  A    between atoms: C_6  and  C_23
    5  A    between atoms: N_13  and  C_24
    6  A    between atoms: N_15  and  C_21
    7  A    between atoms: N_16  and  C_23
                            x       y       z     vdW  Elec       q    Type
                         _______ _______ _______ _____ _____    ______ ____

>  <TORSDO>
F 7

$$$$
