=
 OpenBabel10262423483D

 34 37  0  0  1  0  0  0  0  0999 V2000
  187.0810  177.5130  137.3020 C   0  0  0  0  0  0  0  0  0  0  0  0
  188.7080  177.3930  139.3130 C   0  0  1  0  0  3  0  0  0  0  0  0
  189.5580  176.9330  137.0120 C   0  0  2  0  0  3  0  0  0  0  0  0
  184.7910  178.1280  137.4910 O   0  0  0  0  0  1  0  0  0  0  0  0
  188.5920  178.9120  139.3920 C   0  0  0  0  0  1  0  0  0  0  0  0
  190.5190  175.7560  139.0370 C   0  0  0  0  0  2  0  0  0  0  0  0
  188.3120  176.8710  137.9070 C   0  0  2  0  0  3  0  0  0  0  0  0
  190.3900  174.6100  136.9610 O   0  0  0  0  0  0  0  0  0  0  0  0
  185.9580  177.5850  138.0180 C   0  0  0  0  0  3  0  0  0  0  0  0
  189.2630  176.8280  135.5080 C   0  0  1  0  0  3  0  0  0  0  0  0
  187.0940  177.9700  135.8990 C   0  0  0  0  0  3  0  0  0  0  0  0
  190.0870  176.9930  139.7000 N   0  0  2  0  0  0  0  0  0  0  0  0
  190.3580  174.6370  135.5490 C   0  0  0  0  0  2  0  0  0  0  0  0
  189.1260  175.3790  135.0520 C   0  0  1  0  0  3  0  0  0  0  0  0
  190.6190  175.9070  137.5020 C   0  0  1  0  0  0  0  0  0  0  0  0
  188.1050  177.6840  135.0790 C   0  0  0  0  0  3  0  0  0  0  0  0
  192.3000  177.9350  140.8290 F   0  0  0  0  0  0  0  0  0  0  0  0
  188.8880  176.9580  141.9090 C   0  0  0  0  0  2  0  0  0  0  0  0
  191.3360  177.6190  141.7710 C   0  0  1  0  0  3  0  0  0  0  0  0
  190.2150  176.7670  141.1520 C   0  0  2  0  0  3  0  0  0  0  0  0
  189.8850  176.8180  144.1440 N   0  0  0  0  0  2  0  0  0  0  0  0
  191.1310  176.1180  143.8720 C   0  0  0  0  0  2  0  0  0  0  0  0
  192.0370  176.9360  142.9520 C   0  0  0  0  0  2  0  0  0  0  0  0
  188.8860  176.2440  143.2550 C   0  0  0  0  0  2  0  0  0  0  0  0
  187.9710  174.7870  135.5810 O   0  0  0  0  0  0  0  0  0  0  0  0
  187.4270  174.0300  134.5350 C   0  0  2  0  0  3  0  0  0  0  0  0
  185.9620  174.3010  134.3970 C   0  0  0  0  0  0  0  0  0  0  0  0
  185.0680  173.2390  134.3570 O   0  0  0  0  0  1  0  0  0  0  0  0
  185.5290  175.4830  134.3460 O   0  0  0  0  0  0  0  0  0  0  0  0
  187.8470  172.0350  135.9520 C   0  0  0  0  0  2  0  0  0  0  0  0
  187.6980  172.5650  134.7380 C   0  0  0  0  0  3  0  0  0  0  0  0
  192.0220  176.4370  137.1440 C   0  0  0  0  0  2  0  0  0  0  0  0
  194.0240  174.9710  137.4790 C   0  0  0  0  0  1  0  0  0  0  0  0
  193.1110  175.9990  138.1200 C   0  0  0  0  0  2  0  0  0  0  0  0
  1  7  1  0  0  0  0
  1  9  2  0  0  0  0
  2  5  1  6  0  0  0
  2 12  1  0  0  0  0
  3 15  1  0  0  0  0
  3  7  1  0  0  0  0
  4  9  1  0  0  0  0
  6 12  1  0  0  0  0
  7  2  1  0  0  0  0
  8 15  1  0  0  0  0
 10  3  1  0  0  0  0
 11  1  1  0  0  0  0
 12 20  1  0  0  0  0
 13  8  1  0  0  0  0
 14 10  1  0  0  0  0
 14 13  1  0  0  0  0
 14 25  1  0  0  0  0
 15  6  1  0  0  0  0
 16 10  1  0  0  0  0
 16 11  2  0  0  0  0
 17 19  1  0  0  0  0
 18 24  1  0  0  0  0
 19 23  1  0  0  0  0
 20 19  1  0  0  0  0
 20 18  1  0  0  0  0
 22 21  1  0  0  0  0
 23 22  1  0  0  0  0
 24 21  1  0  0  0  0
 26 31  1  0  0  0  0
 26 25  1  0  0  0  0
 27 26  1  0  0  0  0
 28 27  1  0  0  0  0
 29 27  2  0  0  0  0
 31 30  2  0  0  0  0
 32 15  1  0  0  0  0
 32 34  1  0  0  0  0
 33 34  1  0  0  0  0
M  END
>  <MODEL>
1

>  <REMARK>
 VINA RESULT:      -5.4      0.000      0.000
  Name = 
  7 active torsions:
  status: ('A' for Active; 'I' for Inactive)
    1  A    between atoms: C_7  and  C_23
    2  A    between atoms: O_12  and  C_23
    3  A    between atoms: O_12  and  C_28
    4  A    between atoms: C_14  and  N_25
    5  A    between atoms: C_17  and  C_29
    6  A    between atoms: C_23  and  C_27
    7  A    between atoms: C_29  and  C_31
                            x       y       z     vdW  Elec       q    Type
                         _______ _______ _______ _____ _____    ______ ____

>  <TORSDO>
F 7

$$$$
=
 OpenBabel10262423483D

 34 37  0  0  1  0  0  0  0  0999 V2000
  187.0640  178.0520  138.6180 C   0  0  0  0  0  0  0  0  0  0  0  0
  188.3380  178.0390  140.8720 C   0  0  1  0  0  3  0  0  0  0  0  0
  189.5920  177.6660  138.7470 C   0  0  2  0  0  3  0  0  0  0  0  0
  184.7340  178.4890  138.4200 O   0  0  0  0  0  1  0  0  0  0  0  0
  188.0940  179.5440  140.9250 C   0  0  0  0  0  1  0  0  0  0  0  0
  190.2900  176.5480  140.9090 C   0  0  0  0  0  2  0  0  0  0  0  0
  188.2230  177.5000  139.4220 C   0  0  2  0  0  3  0  0  0  0  0  0
  190.5970  175.4130  138.8450 O   0  0  0  0  0  0  0  0  0  0  0  0
  185.8350  178.0310  139.1360 C   0  0  0  0  0  3  0  0  0  0  0  0
  189.5600  177.5510  137.2150 C   0  0  1  0  0  3  0  0  0  0  0  0
  187.2750  178.5210  137.2340 C   0  0  0  0  0  3  0  0  0  0  0  0
  189.6600  177.7430  141.4850 N   0  0  2  0  0  0  0  0  0  0  0  0
  190.7980  175.4500  137.4480 C   0  0  0  0  0  2  0  0  0  0  0  0
  189.6130  176.1000  136.7490 C   0  0  1  0  0  3  0  0  0  0  0  0
  190.6320  176.7190  139.4110 C   0  0  1  0  0  0  0  0  0  0  0  0
  188.4280  178.3200  136.5950 C   0  0  0  0  0  3  0  0  0  0  0  0
  191.6090  178.7890  142.9570 F   0  0  0  0  0  0  0  0  0  0  0  0
  188.1200  177.6330  143.4700 C   0  0  0  0  0  2  0  0  0  0  0  0
  190.5210  178.4180  143.7310 C   0  0  1  0  0  3  0  0  0  0  0  0
  189.5610  177.5150  142.9390 C   0  0  2  0  0  3  0  0  0  0  0  0
  188.7470  177.5300  145.8370 N   0  0  0  0  0  2  0  0  0  0  0  0
  190.0550  176.8960  145.7740 C   0  0  0  0  0  2  0  0  0  0  0  0
  191.0540  177.7650  145.0120 C   0  0  0  0  0  2  0  0  0  0  0  0
  187.9360  176.9120  144.7990 C   0  0  0  0  0  2  0  0  0  0  0  0
  188.4350  175.4170  137.0800 O   0  0  0  0  0  0  0  0  0  0  0  0
  187.9770  174.8570  135.8810 C   0  0  2  0  0  3  0  0  0  0  0  0
  186.5440  175.2170  135.6460 C   0  0  0  0  0  0  0  0  0  0  0  0
  185.6860  175.3590  136.7280 O   0  0  0  0  0  1  0  0  0  0  0  0
  186.1150  175.4200  134.4790 O   0  0  0  0  0  0  0  0  0  0  0  0
  188.0270  172.6290  136.9730 C   0  0  0  0  0  2  0  0  0  0  0  0
  188.1780  173.3670  135.8750 C   0  0  0  0  0  3  0  0  0  0  0  0
  192.0300  177.3580  139.2900 C   0  0  0  0  0  2  0  0  0  0  0  0
  194.2820  176.8700  140.2690 C   0  0  0  0  0  1  0  0  0  0  0  0
  192.8540  177.2810  140.5730 C   0  0  0  0  0  2  0  0  0  0  0  0
  1  9  2  0  0  0  0
  1  7  1  0  0  0  0
  2  5  1  6  0  0  0
  2 12  1  0  0  0  0
  3 15  1  0  0  0  0
  3  7  1  0  0  0  0
  4  9  1  0  0  0  0
  6 12  1  0  0  0  0
  7  2  1  0  0  0  0
  8 15  1  0  0  0  0
 10  3  1  0  0  0  0
 11  1  1  0  0  0  0
 12 20  1  0  0  0  0
 13  8  1  0  0  0  0
 14 25  1  0  0  0  0
 14 10  1  0  0  0  0
 14 13  1  0  0  0  0
 15  6  1  0  0  0  0
 16 10  1  0  0  0  0
 16 11  2  0  0  0  0
 17 19  1  0  0  0  0
 18 24  1  0  0  0  0
 19 23  1  0  0  0  0
 20 18  1  0  0  0  0
 20 19  1  0  0  0  0
 22 21  1  0  0  0  0
 23 22  1  0  0  0  0
 24 21  1  0  0  0  0
 26 25  1  0  0  0  0
 27 26  1  0  0  0  0
 27 28  1  0  0  0  0
 29 27  2  0  0  0  0
 31 26  1  0  0  0  0
 31 30  2  0  0  0  0
 32 15  1  0  0  0  0
 32 34  1  0  0  0  0
 33 34  1  0  0  0  0
M  END
>  <MODEL>
2

>  <REMARK>
 VINA RESULT:      -5.2      1.665      1.997
  Name = 
  7 active torsions:
  status: ('A' for Active; 'I' for Inactive)
    1  A    between atoms: C_7  and  C_23
    2  A    between atoms: O_12  and  C_23
    3  A    between atoms: O_12  and  C_28
    4  A    between atoms: C_14  and  N_25
    5  A    between atoms: C_17  and  C_29
    6  A    between atoms: C_23  and  C_27
    7  A    between atoms: C_29  and  C_31
                            x       y       z     vdW  Elec       q    Type
                         _______ _______ _______ _____ _____    ______ ____

>  <TORSDO>
F 7

$$$$
=
 OpenBabel10262423483D

 34 37  0  0  1  0  0  0  0  0999 V2000
  184.8940  178.0810  138.5560 C   0  0  0  0  0  0  0  0  0  0  0  0
  183.8820  176.0910  137.2450 C   0  0  1  0  0  3  0  0  0  0  0  0
  182.3670  177.7000  138.4030 C   0  0  2  0  0  3  0  0  0  0  0  0
  187.2250  178.5400  138.6680 O   0  0  0  0  0  1  0  0  0  0  0  0
  184.3220  176.8100  135.9740 C   0  0  0  0  0  1  0  0  0  0  0  0
  181.7700  175.2500  138.1760 C   0  0  0  0  0  2  0  0  0  0  0  0
  183.7680  177.0740  138.4390 C   0  0  2  0  0  3  0  0  0  0  0  0
  181.0970  176.4510  140.1110 O   0  0  0  0  0  0  0  0  0  0  0  0
  186.1590  177.6590  138.5230 C   0  0  0  0  0  3  0  0  0  0  0  0
  182.2160  178.9660  139.2610 C   0  0  1  0  0  3  0  0  0  0  0  0
  184.5960  179.5050  138.8030 C   0  0  0  0  0  3  0  0  0  0  0  0
  182.6080  175.3730  136.9770 N   0  0  2  0  0  0  0  0  0  0  0  0
  180.7510  177.6700  140.7350 C   0  0  0  0  0  2  0  0  0  0  0  0
  181.9270  178.6360  140.7210 C   0  0  1  0  0  3  0  0  0  0  0  0
  181.2910  176.6190  138.7110 C   0  0  1  0  0  0  0  0  0  0  0  0
  183.3640  179.9210  139.0980 C   0  0  0  0  0  3  0  0  0  0  0  0
  181.9320  174.9470  134.4420 F   0  0  0  0  0  0  0  0  0  0  0  0
  184.1530  173.3890  136.9740 C   0  0  0  0  0  2  0  0  0  0  0  0
  182.7350  173.9340  134.9380 C   0  0  1  0  0  3  0  0  0  0  0  0
  182.8340  174.0060  136.4720 C   0  0  2  0  0  3  0  0  0  0  0  0
  184.0460  171.4200  135.5190 N   0  0  0  0  0  2  0  0  0  0  0  0
  182.6280  171.3590  135.2000 C   0  0  0  0  0  2  0  0  0  0  0  0
  182.1810  172.5990  134.4260 C   0  0  0  0  0  2  0  0  0  0  0  0
  184.1410  171.8680  136.9010 C   0  0  0  0  0  2  0  0  0  0  0  0
  183.0360  178.0400  141.3370 O   0  0  0  0  0  0  0  0  0  0  0  0
  183.4890  178.9760  142.2760 C   0  0  2  0  0  3  0  0  0  0  0  0
  184.9760  178.8970  142.4200 C   0  0  0  0  0  0  0  0  0  0  0  0
  185.5710  177.6870  142.7530 O   0  0  0  0  0  1  0  0  0  0  0  0
  185.6960  179.9100  142.2150 O   0  0  0  0  0  0  0  0  0  0  0  0
  183.3560  179.1620  144.7470 C   0  0  0  0  0  2  0  0  0  0  0  0
  182.7980  178.7850  143.5970 C   0  0  0  0  0  3  0  0  0  0  0  0
  179.9830  177.0040  137.9930 C   0  0  0  0  0  2  0  0  0  0  0  0
  179.9830  178.8400  136.2910 C   0  0  0  0  0  1  0  0  0  0  0  0
  180.1710  177.3520  136.5190 C   0  0  0  0  0  2  0  0  0  0  0  0
  1 11  1  0  0  0  0
  2  5  1  6  0  0  0
  2  7  1  0  0  0  0
  3  7  1  0  0  0  0
  3 15  1  0  0  0  0
  3 10  1  0  0  0  0
  6 15  1  0  0  0  0
  7  1  1  0  0  0  0
  8 13  1  0  0  0  0
  9  1  2  0  0  0  0
  9  4  1  0  0  0  0
 10 14  1  0  0  0  0
 11 16  2  0  0  0  0
 12  2  1  0  0  0  0
 12  6  1  0  0  0  0
 14 13  1  0  0  0  0
 14 25  1  0  0  0  0
 15  8  1  0  0  0  0
 16 10  1  0  0  0  0
 17 19  1  0  0  0  0
 19 20  1  0  0  0  0
 20 18  1  0  0  0  0
 20 12  1  0  0  0  0
 21 24  1  0  0  0  0
 22 21  1  0  0  0  0
 23 19  1  0  0  0  0
 23 22  1  0  0  0  0
 24 18  1  0  0  0  0
 25 26  1  0  0  0  0
 26 27  1  0  0  0  0
 26 31  1  0  0  0  0
 27 28  1  0  0  0  0
 29 27  2  0  0  0  0
 31 30  2  0  0  0  0
 32 15  1  0  0  0  0
 33 34  1  0  0  0  0
 34 32  1  0  0  0  0
M  END
>  <MODEL>
3

>  <REMARK>
 VINA RESULT:      -5.0      5.653      9.546
  Name = 
  7 active torsions:
  status: ('A' for Active; 'I' for Inactive)
    1  A    between atoms: C_7  and  C_23
    2  A    between atoms: O_12  and  C_23
    3  A    between atoms: O_12  and  C_28
    4  A    between atoms: C_14  and  N_25
    5  A    between atoms: C_17  and  C_29
    6  A    between atoms: C_23  and  C_27
    7  A    between atoms: C_29  and  C_31
                            x       y       z     vdW  Elec       q    Type
                         _______ _______ _______ _____ _____    ______ ____

>  <TORSDO>
F 7

$$$$
=
 OpenBabel10262423483D

 34 37  0  0  1  0  0  0  0  0999 V2000
  188.8340  174.8750  136.3650 C   0  0  0  0  0  0  0  0  0  0  0  0
  186.4560  173.9660  135.8900 C   0  0  1  0  0  3  0  0  0  0  0  0
  186.8100  176.4240  136.1270 C   0  0  2  0  0  3  0  0  0  0  0  0
  190.7680  173.4980  136.5130 O   0  0  0  0  0  1  0  0  0  0  0  0
  186.9530  173.6310  134.4880 C   0  0  0  0  0  1  0  0  0  0  0  0
  184.6550  175.3210  136.8660 C   0  0  0  0  0  2  0  0  0  0  0  0
  187.3420  175.0500  136.5580 C   0  0  2  0  0  3  0  0  0  0  0  0
  185.4850  177.1990  138.0600 O   0  0  0  0  0  0  0  0  0  0  0  0
  189.3970  173.6960  136.6350 C   0  0  0  0  0  3  0  0  0  0  0  0
  187.7860  177.5860  136.3710 C   0  0  1  0  0  3  0  0  0  0  0  0
  189.6740  176.0230  135.9750 C   0  0  0  0  0  3  0  0  0  0  0  0
  185.0270  174.3680  135.8130 N   0  0  2  0  0  0  0  0  0  0  0  0
  186.2400  178.3920  138.0910 C   0  0  0  0  0  2  0  0  0  0  0  0
  187.7060  178.1100  137.8000 C   0  0  1  0  0  3  0  0  0  0  0  0
  185.4020  176.6680  136.7420 C   0  0  1  0  0  0  0  0  0  0  0  0
  189.1920  177.2660  135.9470 C   0  0  0  0  0  3  0  0  0  0  0  0
  182.8140  174.4750  134.3460 F   0  0  0  0  0  0  0  0  0  0  0  0
  184.8580  171.8680  136.0180 C   0  0  0  0  0  2  0  0  0  0  0  0
  183.0510  173.1980  134.8290 C   0  0  1  0  0  3  0  0  0  0  0  0
  184.1160  173.2150  135.9380 C   0  0  2  0  0  3  0  0  0  0  0  0
  182.8400  170.4900  135.8280 N   0  0  0  0  0  2  0  0  0  0  0  0
  181.8010  171.4230  136.2400 C   0  0  0  0  0  2  0  0  0  0  0  0
  181.7090  172.6090  135.2820 C   0  0  0  0  0  2  0  0  0  0  0  0
  184.0040  170.7780  136.6520 C   0  0  0  0  0  2  0  0  0  0  0  0
  188.1970  177.1680  138.7150 O   0  0  0  0  0  0  0  0  0  0  0  0
  189.0920  177.8710  139.5320 C   0  0  2  0  0  3  0  0  0  0  0  0
  190.3600  177.0970  139.7100 C   0  0  0  0  0  0  0  0  0  0  0  0
  191.4180  177.6650  140.4070 O   0  0  0  0  0  1  0  0  0  0  0  0
  190.4670  175.9260  139.2590 O   0  0  0  0  0  0  0  0  0  0  0  0
  188.3460  177.3000  141.8300 C   0  0  0  0  0  2  0  0  0  0  0  0
  188.4600  178.2020  140.8560 C   0  0  0  0  0  3  0  0  0  0  0  0
  184.6050  177.5940  135.8010 C   0  0  0  0  0  2  0  0  0  0  0  0
  182.4440  177.6540  134.5390 C   0  0  0  0  0  1  0  0  0  0  0  0
  183.0930  177.4030  135.8870 C   0  0  0  0  0  2  0  0  0  0  0  0
  1  7  1  0  0  0  0
  1  9  2  0  0  0  0
  2  5  1  6  0  0  0
  2  7  1  0  0  0  0
  3 10  1  0  0  0  0
  3  7  1  0  0  0  0
  3 15  1  0  0  0  0
  4  9  1  0  0  0  0
  8 13  1  0  0  0  0
 10 14  1  0  0  0  0
 11  1  1  0  0  0  0
 12  2  1  0  0  0  0
 12 20  1  0  0  0  0
 12  6  1  0  0  0  0
 14 13  1  0  0  0  0
 14 25  1  0  0  0  0
 15  6  1  0  0  0  0
 15  8  1  0  0  0  0
 16 11  2  0  0  0  0
 16 10  1  0  0  0  0
 17 19  1  0  0  0  0
 18 24  1  0  0  0  0
 19 23  1  0  0  0  0
 19 20  1  0  0  0  0
 20 18  1  0  0  0  0
 21 22  1  0  0  0  0
 21 24  1  0  0  0  0
 23 22  1  0  0  0  0
 25 26  1  0  0  0  0
 26 27  1  0  0  0  0
 26 31  1  0  0  0  0
 27 28  1  0  0  0  0
 29 27  2  0  0  0  0
 31 30  2  0  0  0  0
 32 34  1  0  0  0  0
 32 15  1  0  0  0  0
 33 34  1  0  0  0  0
M  END
>  <MODEL>
4

>  <REMARK>
 VINA RESULT:      -4.8      3.912      7.974
  Name = 
  7 active torsions:
  status: ('A' for Active; 'I' for Inactive)
    1  A    between atoms: C_7  and  C_23
    2  A    between atoms: O_12  and  C_23
    3  A    between atoms: O_12  and  C_28
    4  A    between atoms: C_14  and  N_25
    5  A    between atoms: C_17  and  C_29
    6  A    between atoms: C_23  and  C_27
    7  A    between atoms: C_29  and  C_31
                            x       y       z     vdW  Elec       q    Type
                         _______ _______ _______ _____ _____    ______ ____

>  <TORSDO>
F 7

$$$$
=
 OpenBabel10262423483D

 34 37  0  0  1  0  0  0  0  0999 V2000
  187.1790  177.9870  138.4610 C   0  0  0  0  0  0  0  0  0  0  0  0
  188.7250  178.0060  140.5380 C   0  0  1  0  0  3  0  0  0  0  0  0
  189.6700  177.4190  138.3040 C   0  0  2  0  0  3  0  0  0  0  0  0
  184.8780  178.5860  138.5230 O   0  0  0  0  0  1  0  0  0  0  0  0
  188.5930  179.5260  140.5210 C   0  0  0  0  0  1  0  0  0  0  0  0
  190.5610  176.3770  140.4330 C   0  0  0  0  0  2  0  0  0  0  0  0
  188.3910  177.3960  139.1520 C   0  0  2  0  0  3  0  0  0  0  0  0
  190.5250  175.1060  138.4270 O   0  0  0  0  0  0  0  0  0  0  0  0
  186.0280  178.0880  139.1270 C   0  0  0  0  0  3  0  0  0  0  0  0
  189.4370  177.2200  136.7990 C   0  0  1  0  0  3  0  0  0  0  0  0
  187.2430  178.3580  137.0350 C   0  0  0  0  0  3  0  0  0  0  0  0
  190.0910  177.6460  141.0020 N   0  0  2  0  0  0  0  0  0  0  0  0
  190.5490  175.0480  137.0160 C   0  0  0  0  0  2  0  0  0  0  0  0
  189.3310  175.7450  136.4270 C   0  0  1  0  0  3  0  0  0  0  0  0
  190.7210  176.4350  138.8970 C   0  0  1  0  0  0  0  0  0  0  0  0
  188.2890  178.0350  136.2740 C   0  0  0  0  0  3  0  0  0  0  0  0
  188.0600  176.3740  142.1490 F   0  0  0  0  0  0  0  0  0  0  0  0
  191.5840  177.1920  142.9740 C   0  0  0  0  0  2  0  0  0  0  0  0
  189.1440  176.4900  143.0040 C   0  0  1  0  0  3  0  0  0  0  0  0
  190.1640  177.5090  142.4690 C   0  0  2  0  0  3  0  0  0  0  0  0
  190.9040  176.7480  145.2870 N   0  0  0  0  0  2  0  0  0  0  0  0
  189.6280  177.4440  145.3620 C   0  0  0  0  0  2  0  0  0  0  0  0
  188.6090  176.8380  144.3990 C   0  0  0  0  0  2  0  0  0  0  0  0
  191.7680  177.5590  144.4410 C   0  0  0  0  0  2  0  0  0  0  0  0
  188.1610  175.1720  136.9440 O   0  0  0  0  0  0  0  0  0  0  0  0
  187.5270  174.5660  135.8530 C   0  0  2  0  0  3  0  0  0  0  0  0
  186.1130  175.0430  135.7360 C   0  0  0  0  0  0  0  0  0  0  0  0
  185.5200  175.1300  134.4830 O   0  0  0  0  0  0  0  0  0  0  0  0
  185.4470  175.3370  136.7640 O   0  0  0  0  0  1  0  0  0  0  0  0
  187.8040  172.4500  137.1210 C   0  0  0  0  0  2  0  0  0  0  0  0
  187.5950  173.0680  135.9590 C   0  0  0  0  0  3  0  0  0  0  0  0
  192.1320  176.9590  138.5630 C   0  0  0  0  0  2  0  0  0  0  0  0
  193.8420  176.1580  136.9200 C   0  0  0  0  0  1  0  0  0  0  0  0
  193.1320  175.8570  138.2260 C   0  0  0  0  0  2  0  0  0  0  0  0
  1  9  2  0  0  0  0
  1  7  1  0  0  0  0
  2  5  1  6  0  0  0
  2 12  1  0  0  0  0
  3 15  1  0  0  0  0
  3  7  1  0  0  0  0
  4  9  1  0  0  0  0
  6 12  1  0  0  0  0
  7  2  1  0  0  0  0
  8 15  1  0  0  0  0
 10  3  1  0  0  0  0
 11  1  1  0  0  0  0
 12 20  1  0  0  0  0
 13  8  1  0  0  0  0
 14 10  1  0  0  0  0
 14 25  1  0  0  0  0
 14 13  1  0  0  0  0
 15  6  1  0  0  0  0
 16 10  1  0  0  0  0
 16 11  2  0  0  0  0
 17 19  1  0  0  0  0
 18 24  1  0  0  0  0
 19 23  1  0  0  0  0
 20 18  1  0  0  0  0
 20 19  1  0  0  0  0
 21 22  1  0  0  0  0
 23 22  1  0  0  0  0
 24 21  1  0  0  0  0
 26 31  1  0  0  0  0
 26 25  1  0  0  0  0
 27 26  1  0  0  0  0
 27 29  1  0  0  0  0
 28 27  2  0  0  0  0
 31 30  2  0  0  0  0
 32 15  1  0  0  0  0
 33 34  1  0  0  0  0
 34 32  1  0  0  0  0
M  END
>  <MODEL>
5

>  <REMARK>
 VINA RESULT:      -4.7      1.510      1.940
  Name = 
  7 active torsions:
  status: ('A' for Active; 'I' for Inactive)
    1  A    between atoms: C_7  and  C_23
    2  A    between atoms: O_12  and  C_23
    3  A    between atoms: O_12  and  C_28
    4  A    between atoms: C_14  and  N_25
    5  A    between atoms: C_17  and  C_29
    6  A    between atoms: C_23  and  C_27
    7  A    between atoms: C_29  and  C_31
                            x       y       z     vdW  Elec       q    Type
                         _______ _______ _______ _____ _____    ______ ____

>  <TORSDO>
F 7

$$$$
=
 OpenBabel10262423483D

 34 37  0  0  1  0  0  0  0  0999 V2000
  188.2490  176.3710  137.2720 C   0  0  0  0  0  0  0  0  0  0  0  0
  185.7190  176.0850  136.8030 C   0  0  1  0  0  3  0  0  0  0  0  0
  186.5120  178.0440  138.1300 C   0  0  2  0  0  3  0  0  0  0  0  0
  189.9210  174.9010  136.4330 O   0  0  0  0  0  1  0  0  0  0  0  0
  186.0310  176.4410  135.3530 C   0  0  0  0  0  1  0  0  0  0  0  0
  184.2680  176.9630  138.5810 C   0  0  0  0  0  2  0  0  0  0  0  0
  186.8320  176.5890  137.7590 C   0  0  2  0  0  3  0  0  0  0  0  0
  185.5080  177.8930  140.3800 O   0  0  0  0  0  0  0  0  0  0  0  0
  188.6200  175.1610  136.8510 C   0  0  0  0  0  3  0  0  0  0  0  0
  187.6920  178.8150  138.7430 C   0  0  1  0  0  3  0  0  0  0  0  0
  189.2400  177.4610  137.3520 C   0  0  0  0  0  3  0  0  0  0  0  0
  184.3800  176.6270  137.1560 N   0  0  2  0  0  0  0  0  0  0  0  0
  186.4580  178.8210  140.8590 C   0  0  0  0  0  2  0  0  0  0  0  0
  187.8240  178.5630  140.2400 C   0  0  1  0  0  3  0  0  0  0  0  0
  185.2240  178.1020  139.0010 C   0  0  1  0  0  0  0  0  0  0  0  0
  188.9800  178.5960  138.0010 C   0  0  0  0  0  3  0  0  0  0  0  0
  182.5710  177.4440  135.3890 F   0  0  0  0  0  0  0  0  0  0  0  0
  183.7880  174.2160  136.7570 C   0  0  0  0  0  2  0  0  0  0  0  0
  182.5010  176.0770  135.6030 C   0  0  1  0  0  3  0  0  0  0  0  0
  183.2960  175.6720  136.8560 C   0  0  2  0  0  3  0  0  0  0  0  0
  181.6680  173.3230  135.9110 N   0  0  0  0  0  2  0  0  0  0  0  0
  180.7220  174.3430  136.3360 C   0  0  0  0  0  2  0  0  0  0  0  0
  181.0190  175.6860  135.6700 C   0  0  0  0  0  2  0  0  0  0  0  0
  182.6610  173.2130  136.9690 C   0  0  0  0  0  2  0  0  0  0  0  0
  188.2190  177.2430  140.5010 O   0  0  0  0  0  0  0  0  0  0  0  0
  189.0990  177.3240  141.5870 C   0  0  2  0  0  3  0  0  0  0  0  0
  190.4820  176.9270  141.1750 C   0  0  0  0  0  0  0  0  0  0  0  0
  190.6640  176.1640  140.0290 O   0  0  0  0  0  0  0  0  0  0  0  0
  191.4840  177.3030  141.8400 O   0  0  0  0  0  1  0  0  0  0  0  0
  188.6530  176.9210  143.9960 C   0  0  0  0  0  2  0  0  0  0  0  0
  188.6080  176.4880  142.7360 C   0  0  0  0  0  3  0  0  0  0  0  0
  184.5240  179.4540  138.7590 C   0  0  0  0  0  2  0  0  0  0  0  0
  182.2360  180.4280  138.4680 C   0  0  0  0  0  1  0  0  0  0  0  0
  183.1050  179.5200  139.3180 C   0  0  0  0  0  2  0  0  0  0  0  0
  1 11  1  0  0  0  0
  1  7  1  0  0  0  0
  2  5  1  6  0  0  0
  2 12  1  0  0  0  0
  2  7  1  0  0  0  0
  3 10  1  0  0  0  0
  3 15  1  0  0  0  0
  4  9  1  0  0  0  0
  6 15  1  0  0  0  0
  7  3  1  0  0  0  0
  8 13  1  0  0  0  0
  9  1  2  0  0  0  0
 10 14  1  0  0  0  0
 11 16  2  0  0  0  0
 12  6  1  0  0  0  0
 14 25  1  0  0  0  0
 14 13  1  0  0  0  0
 15  8  1  0  0  0  0
 16 10  1  0  0  0  0
 17 19  1  0  0  0  0
 18 20  1  0  0  0  0
 18 24  1  0  0  0  0
 19 23  1  0  0  0  0
 19 20  1  0  0  0  0
 20 12  1  0  0  0  0
 21 22  1  0  0  0  0
 21 24  1  0  0  0  0
 23 22  1  0  0  0  0
 25 26  1  0  0  0  0
 26 31  1  0  0  0  0
 27 26  1  0  0  0  0
 27 29  1  0  0  0  0
 28 27  2  0  0  0  0
 31 30  2  0  0  0  0
 32 15  1  0  0  0  0
 32 34  1  0  0  0  0
 33 34  1  0  0  0  0
M  END
>  <MODEL>
6

>  <REMARK>
 VINA RESULT:      -4.6      3.944      8.072
  Name = 
  7 active torsions:
  status: ('A' for Active; 'I' for Inactive)
    1  A    between atoms: C_7  and  C_23
    2  A    between atoms: O_12  and  C_23
    3  A    between atoms: O_12  and  C_28
    4  A    between atoms: C_14  and  N_25
    5  A    between atoms: C_17  and  C_29
    6  A    between atoms: C_23  and  C_27
    7  A    between atoms: C_29  and  C_31
                            x       y       z     vdW  Elec       q    Type
                         _______ _______ _______ _____ _____    ______ ____

>  <TORSDO>
F 7

$$$$
=
 OpenBabel10262423483D

 34 37  0  0  1  0  0  0  0  0999 V2000
  184.6920  176.9940  136.6330 C   0  0  0  0  0  0  0  0  0  0  0  0
  186.9680  177.2220  137.8460 C   0  0  1  0  0  3  0  0  0  0  0  0
  186.7930  175.7800  135.8160 C   0  0  2  0  0  3  0  0  0  0  0  0
  182.7240  178.1590  137.2890 O   0  0  0  0  0  1  0  0  0  0  0  0
  187.0180  178.6490  137.3100 C   0  0  0  0  0  1  0  0  0  0  0  0
  188.3800  175.2170  137.7060 C   0  0  0  0  0  2  0  0  0  0  0  0
  186.0050  176.3390  137.0090 C   0  0  2  0  0  3  0  0  0  0  0  0
  187.3440  173.4670  136.4790 O   0  0  0  0  0  0  0  0  0  0  0  0
  183.9560  177.5810  137.5780 C   0  0  0  0  0  3  0  0  0  0  0  0
  185.9170  175.2150  134.6880 C   0  0  1  0  0  3  0  0  0  0  0  0
  184.1830  176.9000  135.2510 C   0  0  0  0  0  3  0  0  0  0  0  0
  188.3500  176.6730  137.8860 N   0  0  2  0  0  0  0  0  0  0  0  0
  186.7550  172.9930  135.2860 C   0  0  0  0  0  2  0  0  0  0  0  0
  185.4930  173.7760  134.9590 C   0  0  1  0  0  3  0  0  0  0  0  0
  187.8740  174.7780  136.3140 C   0  0  1  0  0  0  0  0  0  0  0  0
  184.7580  176.1080  134.3460 C   0  0  0  0  0  3  0  0  0  0  0  0
  190.9200  177.3270  137.7190 F   0  0  0  0  0  0  0  0  0  0  0  0
  188.1460  177.7600  140.1450 C   0  0  0  0  0  2  0  0  0  0  0  0
  190.3880  177.6430  138.9580 C   0  0  1  0  0  3  0  0  0  0  0  0
  189.0250  176.9600  139.1660 C   0  0  2  0  0  3  0  0  0  0  0  0
  189.9360  178.1720  141.7680 N   0  0  0  0  0  2  0  0  0  0  0  0
  190.8810  177.1130  141.4450 C   0  0  0  0  0  2  0  0  0  0  0  0
  191.4240  177.2700  140.0250 C   0  0  0  0  0  2  0  0  0  0  0  0
  188.6060  177.6070  141.5890 C   0  0  0  0  0  2  0  0  0  0  0  0
  184.5990  173.7040  136.0360 O   0  0  0  0  0  0  0  0  0  0  0  0
  183.6260  172.7720  135.6530 C   0  0  2  0  0  3  0  0  0  0  0  0
  182.2880  173.4310  135.5260 C   0  0  0  0  0  0  0  0  0  0  0  0
  181.3860  172.9750  134.5750 O   0  0  0  0  0  0  0  0  0  0  0  0
  181.9620  174.3770  136.2920 O   0  0  0  0  0  1  0  0  0  0  0  0
  183.7350  170.3580  136.2180 C   0  0  0  0  0  2  0  0  0  0  0  0
  183.5800  171.6190  136.6170 C   0  0  0  0  0  3  0  0  0  0  0  0
  189.0570  174.7960  135.3250 C   0  0  0  0  0  2  0  0  0  0  0  0
  191.5440  174.9140  135.5920 C   0  0  0  0  0  1  0  0  0  0  0  0
  190.3020  174.0800  135.8440 C   0  0  0  0  0  2  0  0  0  0  0  0
  1  7  1  0  0  0  0
  1  9  2  0  0  0  0
  2  5  1  6  0  0  0
  2 12  1  0  0  0  0
  3 15  1  0  0  0  0
  3  7  1  0  0  0  0
  4  9  1  0  0  0  0
  6 12  1  0  0  0  0
  7  2  1  0  0  0  0
 10 14  1  0  0  0  0
 10  3  1  0  0  0  0
 11  1  1  0  0  0  0
 12 20  1  0  0  0  0
 13  8  1  0  0  0  0
 14 13  1  0  0  0  0
 14 25  1  0  0  0  0
 15  8  1  0  0  0  0
 15  6  1  0  0  0  0
 16 10  1  0  0  0  0
 16 11  2  0  0  0  0
 17 19  1  0  0  0  0
 18 24  1  0  0  0  0
 19 20  1  0  0  0  0
 19 23  1  0  0  0  0
 20 18  1  0  0  0  0
 22 21  1  0  0  0  0
 23 22  1  0  0  0  0
 24 21  1  0  0  0  0
 26 25  1  0  0  0  0
 26 31  1  0  0  0  0
 27 26  1  0  0  0  0
 27 29  1  0  0  0  0
 28 27  2  0  0  0  0
 30 31  2  0  0  0  0
 32 34  1  0  0  0  0
 32 15  1  0  0  0  0
 33 34  1  0  0  0  0
M  END
>  <MODEL>
7

>  <REMARK>
 VINA RESULT:      -4.6      2.286      3.282
  Name = 
  7 active torsions:
  status: ('A' for Active; 'I' for Inactive)
    1  A    between atoms: C_7  and  C_23
    2  A    between atoms: O_12  and  C_23
    3  A    between atoms: O_12  and  C_28
    4  A    between atoms: C_14  and  N_25
    5  A    between atoms: C_17  and  C_29
    6  A    between atoms: C_23  and  C_27
    7  A    between atoms: C_29  and  C_31
                            x       y       z     vdW  Elec       q    Type
                         _______ _______ _______ _____ _____    ______ ____

>  <TORSDO>
F 7

$$$$
=
 OpenBabel10262423483D

 34 37  0  0  1  0  0  0  0  0999 V2000
  184.1690  178.3240  137.9510 C   0  0  0  0  0  0  0  0  0  0  0  0
  186.5660  177.4220  137.5740 C   0  0  1  0  0  3  0  0  0  0  0  0
  184.6260  176.2220  136.5630 C   0  0  2  0  0  3  0  0  0  0  0  0
  183.6810  180.3150  139.1580 O   0  0  0  0  0  1  0  0  0  0  0  0
  186.7920  178.6330  136.6740 C   0  0  0  0  0  1  0  0  0  0  0  0
  186.6910  174.9800  137.3410 C   0  0  0  0  0  2  0  0  0  0  0  0
  185.0550  177.1140  137.7360 C   0  0  2  0  0  3  0  0  0  0  0  0
  184.5600  173.9470  137.5190 O   0  0  0  0  0  0  0  0  0  0  0  0
  184.4850  179.2110  138.8950 C   0  0  0  0  0  3  0  0  0  0  0  0
  183.1070  176.1430  136.3490 C   0  0  1  0  0  3  0  0  0  0  0  0
  182.9130  178.4710  137.1900 C   0  0  0  0  0  3  0  0  0  0  0  0
  187.3260  176.2660  137.0280 N   0  0  2  0  0  0  0  0  0  0  0  0
  183.2280  173.8050  137.0690 C   0  0  0  0  0  2  0  0  0  0  0  0
  182.4560  175.1030  137.2530 C   0  0  1  0  0  3  0  0  0  0  0  0
  185.3020  174.8250  136.6800 C   0  0  1  0  0  0  0  0  0  0  0  0
  182.4360  177.4850  136.4300 C   0  0  0  0  0  3  0  0  0  0  0  0
  189.2700  176.3430  135.2180 F   0  0  0  0  0  0  0  0  0  0  0  0
  188.8890  177.0280  138.8450 C   0  0  0  0  0  2  0  0  0  0  0  0
  189.7460  176.5850  136.4960 C   0  0  1  0  0  3  0  0  0  0  0  0
  188.7010  176.2030  137.5580 C   0  0  2  0  0  3  0  0  0  0  0  0
  191.3270  176.7850  138.9120 N   0  0  0  0  0  2  0  0  0  0  0  0
  191.5320  175.6000  138.0920 C   0  0  0  0  0  2  0  0  0  0  0  0
  191.0760  175.8370  136.6530 C   0  0  0  0  0  2  0  0  0  0  0  0
  190.0940  176.5660  139.6540 C   0  0  0  0  0  2  0  0  0  0  0  0
  182.5040  175.4950  138.5980 O   0  0  0  0  0  0  0  0  0  0  0  0
  181.1920  175.8560  138.9290 C   0  0  2  0  0  3  0  0  0  0  0  0
  181.1890  176.9400  139.9610 C   0  0  0  0  0  0  0  0  0  0  0  0
  180.0200  177.6460  140.2120 O   0  0  0  0  0  0  0  0  0  0  0  0
  182.2290  177.1980  140.6240 O   0  0  0  0  0  1  0  0  0  0  0  0
  179.9820  174.5320  140.6450 C   0  0  0  0  0  2  0  0  0  0  0  0
  180.4080  174.6580  139.3890 C   0  0  0  0  0  3  0  0  0  0  0  0
  185.4870  174.2450  135.2640 C   0  0  0  0  0  2  0  0  0  0  0  0
  186.0380  171.8050  135.1610 C   0  0  0  0  0  1  0  0  0  0  0  0
  186.6060  173.2120  135.1640 C   0  0  0  0  0  2  0  0  0  0  0  0
  1  9  2  0  0  0  0
  2  5  1  6  0  0  0
  2  7  1  0  0  0  0
  3 15  1  0  0  0  0
  3  7  1  0  0  0  0
  7  1  1  0  0  0  0
  9  4  1  0  0  0  0
 10 16  1  0  0  0  0
 10  3  1  0  0  0  0
 10 14  1  0  0  0  0
 11  1  1  0  0  0  0
 12  6  1  0  0  0  0
 12 20  1  0  0  0  0
 12  2  1  0  0  0  0
 13 14  1  0  0  0  0
 13  8  1  0  0  0  0
 14 25  1  0  0  0  0
 15  6  1  0  0  0  0
 15  8  1  0  0  0  0
 16 11  2  0  0  0  0
 17 19  1  0  0  0  0
 18 24  1  0  0  0  0
 19 23  1  0  0  0  0
 19 20  1  0  0  0  0
 20 18  1  0  0  0  0
 21 24  1  0  0  0  0
 22 21  1  0  0  0  0
 23 22  1  0  0  0  0
 25 26  1  0  0  0  0
 26 31  1  0  0  0  0
 26 27  1  0  0  0  0
 27 28  2  0  0  0  0
 27 29  1  0  0  0  0
 31 30  2  0  0  0  0
 32 15  1  0  0  0  0
 33 34  1  0  0  0  0
 34 32  1  0  0  0  0
M  END
>  <MODEL>
8

>  <REMARK>
 VINA RESULT:      -4.5      3.437      6.048
  Name = 
  7 active torsions:
  status: ('A' for Active; 'I' for Inactive)
    1  A    between atoms: C_7  and  C_23
    2  A    between atoms: O_12  and  C_23
    3  A    between atoms: O_12  and  C_28
    4  A    between atoms: C_14  and  N_25
    5  A    between atoms: C_17  and  C_29
    6  A    between atoms: C_23  and  C_27
    7  A    between atoms: C_29  and  C_31
                            x       y       z     vdW  Elec       q    Type
                         _______ _______ _______ _____ _____    ______ ____

>  <TORSDO>
F 7

$$$$
=
 OpenBabel10262423483D

 34 37  0  0  1  0  0  0  0  0999 V2000
  184.3240  178.4730  140.7680 C   0  0  0  0  0  0  0  0  0  0  0  0
  186.8040  178.4130  141.5110 C   0  0  1  0  0  3  0  0  0  0  0  0
  186.2480  178.5170  139.0800 C   0  0  2  0  0  3  0  0  0  0  0  0
  182.4920  178.5200  142.2860 O   0  0  0  0  0  1  0  0  0  0  0  0
  186.6000  179.8360  142.0220 C   0  0  0  0  0  1  0  0  0  0  0  0
  188.2970  177.2880  139.9180 C   0  0  0  0  0  2  0  0  0  0  0  0
  185.7390  178.0380  140.4470 C   0  0  2  0  0  3  0  0  0  0  0  0
  187.1360  176.4770  138.0120 O   0  0  0  0  0  0  0  0  0  0  0  0
  183.8000  178.1780  141.9590 C   0  0  0  0  0  3  0  0  0  0  0  0
  185.1690  178.5810  137.9890 C   0  0  1  0  0  3  0  0  0  0  0  0
  183.4970  179.1310  139.7400 C   0  0  0  0  0  3  0  0  0  0  0  0
  188.1920  178.2790  140.9970 N   0  0  2  0  0  0  0  0  0  0  0  0
  186.3110  176.7130  136.8910 C   0  0  0  0  0  2  0  0  0  0  0  0
  184.9460  177.2270  137.3250 C   0  0  1  0  0  3  0  0  0  0  0  0
  187.4980  177.6920  138.6580 C   0  0  1  0  0  0  0  0  0  0  0  0
  183.8910  179.2100  138.4690 C   0  0  0  0  0  3  0  0  0  0  0  0
  187.1560  176.8840  143.0070 F   0  0  0  0  0  0  0  0  0  0  0  0
  190.5000  177.4110  141.4890 C   0  0  0  0  0  2  0  0  0  0  0  0
  188.5380  176.8000  142.9810 C   0  0  1  0  0  3  0  0  0  0  0  0
  189.1400  177.8660  142.0490 C   0  0  2  0  0  3  0  0  0  0  0  0
  191.3490  176.5640  143.6270 N   0  0  0  0  0  2  0  0  0  0  0  0
  190.5160  177.2770  144.5830 C   0  0  0  0  0  2  0  0  0  0  0  0
  189.0440  176.8990  144.4250 C   0  0  0  0  0  2  0  0  0  0  0  0
  191.6070  177.4890  142.5330 C   0  0  0  0  0  2  0  0  0  0  0  0
  184.3570  176.3160  138.2120 O   0  0  0  0  0  0  0  0  0  0  0  0
  183.2640  175.7760  137.5240 C   0  0  2  0  0  3  0  0  0  0  0  0
  182.0150  175.9030  138.3390 C   0  0  0  0  0  0  0  0  0  0  0  0
  182.0840  175.7990  139.7220 O   0  0  0  0  0  1  0  0  0  0  0  0
  180.9070  176.1310  137.7850 O   0  0  0  0  0  0  0  0  0  0  0  0
  184.4820  173.6220  137.7210 C   0  0  0  0  0  2  0  0  0  0  0  0
  183.5260  174.3470  137.1400 C   0  0  0  0  0  3  0  0  0  0  0  0
  188.3920  178.5730  137.7630 C   0  0  0  0  0  2  0  0  0  0  0  0
  189.7300  177.4670  135.9590 C   0  0  0  0  0  1  0  0  0  0  0  0
  189.7280  177.9280  137.4040 C   0  0  0  0  0  2  0  0  0  0  0  0
  1  9  2  0  0  0  0
  2  5  1  6  0  0  0
  3  7  1  0  0  0  0
  6 12  1  0  0  0  0
  7  1  1  0  0  0  0
  7  2  1  0  0  0  0
  8 15  1  0  0  0  0
  9  4  1  0  0  0  0
 10 16  1  0  0  0  0
 10  3  1  0  0  0  0
 11  1  1  0  0  0  0
 12  2  1  0  0  0  0
 12 20  1  0  0  0  0
 13 14  1  0  0  0  0
 13  8  1  0  0  0  0
 14 10  1  0  0  0  0
 14 25  1  0  0  0  0
 15  3  1  0  0  0  0
 15  6  1  0  0  0  0
 16 11  2  0  0  0  0
 18 20  1  0  0  0  0
 18 24  1  0  0  0  0
 19 17  1  0  0  0  0
 19 23  1  0  0  0  0
 20 19  1  0  0  0  0
 21 22  1  0  0  0  0
 23 22  1  0  0  0  0
 24 21  1  0  0  0  0
 26 25  1  0  0  0  0
 26 27  1  0  0  0  0
 27 28  1  0  0  0  0
 29 27  2  0  0  0  0
 31 26  1  0  0  0  0
 31 30  2  0  0  0  0
 32 15  1  0  0  0  0
 33 34  1  0  0  0  0
 34 32  1  0  0  0  0
M  END
>  <MODEL>
9

>  <REMARK>
 VINA RESULT:      -4.4      2.846      4.350
  Name = 
  7 active torsions:
  status: ('A' for Active; 'I' for Inactive)
    1  A    between atoms: C_7  and  C_23
    2  A    between atoms: O_12  and  C_23
    3  A    between atoms: O_12  and  C_28
    4  A    between atoms: C_14  and  N_25
    5  A    between atoms: C_17  and  C_29
    6  A    between atoms: C_23  and  C_27
    7  A    between atoms: C_29  and  C_31
                            x       y       z     vdW  Elec       q    Type
                         _______ _______ _______ _____ _____    ______ ____

>  <TORSDO>
F 7

$$$$
