=
 OpenBabel10272413213D

 32 36  0  0  0  0  0  0  0  0999 V2000
  188.6370  177.8100  141.4780 C   0  0  0  0  0  0  0  0  0  0  0  0
  191.8050  176.4570  144.9530 C   0  0  0  0  0  3  0  0  0  0  0  0
  190.8210  176.6430  145.9230 C   0  0  0  0  0  3  0  0  0  0  0  0
  186.2900  178.4450  142.1790 C   0  0  0  0  0  0  0  0  0  0  0  0
  185.4300  178.5860  143.2200 N   0  0  0  0  0  0  0  0  0  0  0  0
  189.3790  177.8350  139.1440 C   0  0  0  0  0  0  0  0  0  0  0  0
  190.9250  177.1960  140.8810 C   0  0  0  0  0  3  0  0  0  0  0  0
  184.6970  178.5710  145.2980 C   0  0  0  0  0  0  0  0  0  0  0  0
  191.5110  176.6990  143.6100 C   0  0  0  0  0  3  0  0  0  0  0  0
  189.9350  177.3760  141.8630 C   0  0  0  0  0  0  0  0  0  0  0  0
  190.2300  177.1310  143.2160 C   0  0  0  0  0  0  0  0  0  0  0  0
  187.9500  177.7510  143.8400 C   0  0  0  0  0  0  0  0  0  0  0  0
  183.6820  178.9790  144.4390 C   0  0  0  0  0  3  0  0  0  0  0  0
  190.6680  177.4400  139.5330 C   0  0  0  0  0  0  0  0  0  0  0  0
  184.1650  178.9770  143.1700 N   0  0  0  0  0  0  0  0  0  0  0  0
  189.0550  178.0110  137.8050 O   0  0  0  0  0  1  0  0  0  0  0  0
  189.5470  177.0710  145.5500 C   0  0  0  0  0  3  0  0  0  0  0  0
  189.2370  177.3190  144.2020 C   0  0  0  0  0  0  0  0  0  0  0  0
  187.0100  177.9240  144.8160 N   0  0  0  0  0  0  0  0  0  0  0  0
  188.3920  178.0220  140.1110 C   0  0  0  0  0  3  0  0  0  0  0  0
  185.7870  178.7600  140.8040 C   0  0  0  0  0  1  0  0  0  0  0  0
  184.6240  178.4240  146.7770 C   0  0  0  0  0  1  0  0  0  0  0  0
  187.6260  178.0060  142.4660 C   0  0  0  0  0  0  0  0  0  0  0  0
  185.7710  178.3380  144.4810 C   0  0  0  0  0  0  0  0  0  0  0  0
  191.7040  177.2400  138.6110 O   0  0  0  0  0  0  0  0  0  0  0  0
  191.5130  174.9850  138.2460 O   0  0  0  0  0  0  0  0  0  0  0  0
  192.2660  175.9930  138.3240 C   0  0  0  0  0  0  0  0  0  0  0  0
  193.6490  175.8570  138.1760 O   0  0  0  0  0  0  0  0  0  0  0  0
  194.2470  174.6230  137.8060 C   0  0  0  0  0  2  0  0  0  0  0  0
  195.2350  174.2220  138.8430 C   0  0  0  0  0  0  0  0  0  0  0  0
  195.7690  175.1760  139.6990 O   0  0  0  0  0  1  0  0  0  0  0  0
  195.5580  173.0130  138.9680 O   0  0  0  0  0  0  0  0  0  0  0  0
  1 10  1  0  0  0  0
  1 23  1  0  0  0  0
  2  3  1  0  0  0  0
  4 23  2  0  0  0  0
  4  5  1  0  0  0  0
  5 24  1  0  0  0  0
  6 14  2  0  0  0  0
  6 20  1  0  0  0  0
  7 10  2  0  0  0  0
  8 22  1  0  0  0  0
  9  2  2  0  0  0  0
 10 11  1  0  0  0  0
 11  9  1  0  0  0  0
 11 18  2  0  0  0  0
 12 18  1  0  0  0  0
 12 19  2  0  0  0  0
 13  8  1  0  0  0  0
 14  7  1  0  0  0  0
 15  5  1  0  0  0  0
 15 13  2  0  0  0  0
 16  6  1  0  0  0  0
 17  3  2  0  0  0  0
 18 17  1  0  0  0  0
 20  1  2  0  0  0  0
 21  4  1  0  0  0  0
 23 12  1  0  0  0  0
 24 19  1  0  0  0  0
 24  8  2  0  0  0  0
 25 14  1  0  0  0  0
 26 27  2  0  0  0  0
 27 25  1  0  0  0  0
 28 27  1  0  0  0  0
 29 28  1  0  0  0  0
 29 30  1  0  0  0  0
 30 32  2  0  0  0  0
 30 31  1  0  0  0  0
M  END
>  <MODEL>
1

>  <REMARK>
 VINA RESULT:     -10.1      0.000      0.000
  Name = 
  5 active torsions:
  status: ('A' for Active; 'I' for Inactive)
    1  A    between atoms: C_1  and  C_10
    2  A    between atoms: C_10  and  O_24
    3  A    between atoms: O_12  and  C_19
    4  A    between atoms: O_12  and  C_21
    5  A    between atoms: C_19  and  O_24
                            x       y       z     vdW  Elec       q    Type
                         _______ _______ _______ _____ _____    ______ ____

>  <TORSDO>
F 5

$$$$
=
 OpenBabel10272413213D

 32 36  0  0  0  0  0  0  0  0999 V2000
  187.8280  178.0030  142.3960 C   0  0  0  0  0  0  0  0  0  0  0  0
  183.1610  179.0500  143.4260 C   0  0  0  0  0  3  0  0  0  0  0  0
  183.4300  178.9150  144.7880 C   0  0  0  0  0  3  0  0  0  0  0  0
  189.4000  177.5240  144.3210 C   0  0  0  0  0  0  0  0  0  0  0  0
  189.5240  177.4220  145.6690 N   0  0  0  0  0  0  0  0  0  0  0  0
  188.5460  177.9740  140.0550 C   0  0  0  0  0  0  0  0  0  0  0  0
  186.2470  178.4630  140.5920 C   0  0  0  0  0  3  0  0  0  0  0  0
  188.9450  177.4460  147.7940 C   0  0  0  0  0  0  0  0  0  0  0  0
  184.1810  178.8580  142.4930 C   0  0  0  0  0  3  0  0  0  0  0  0
  186.5140  178.3340  141.9660 C   0  0  0  0  0  0  0  0  0  0  0  0
  185.4860  178.5280  142.9060 C   0  0  0  0  0  0  0  0  0  0  0  0
  187.0460  178.0610  144.7290 C   0  0  0  0  0  0  0  0  0  0  0  0
  190.2940  177.1310  147.6730 C   0  0  0  0  0  3  0  0  0  0  0  0
  187.2400  178.2670  139.6340 C   0  0  0  0  0  0  0  0  0  0  0  0
  190.6180  177.1240  146.3550 N   0  0  0  0  0  0  0  0  0  0  0  0
  189.5850  177.8500  139.1410 O   0  0  0  0  0  1  0  0  0  0  0  0
  184.7170  178.5870  145.2140 C   0  0  0  0  0  3  0  0  0  0  0  0
  185.7550  178.3910  144.2860 C   0  0  0  0  0  0  0  0  0  0  0  0
  187.2750  177.9350  146.0700 N   0  0  0  0  0  0  0  0  0  0  0  0
  188.8200  177.8380  141.4160 C   0  0  0  0  0  3  0  0  0  0  0  0
  190.6150  177.2740  143.4820 C   0  0  0  0  0  1  0  0  0  0  0  0
  188.1540  177.5670  149.0500 C   0  0  0  0  0  1  0  0  0  0  0  0
  188.1110  177.8590  143.7880 C   0  0  0  0  0  0  0  0  0  0  0  0
  188.5110  177.6180  146.5070 C   0  0  0  0  0  0  0  0  0  0  0  0
  186.9000  178.4110  138.2830 O   0  0  0  0  0  0  0  0  0  0  0  0
  186.1700  176.5060  137.2380 O   0  0  0  0  0  0  0  0  0  0  0  0
  185.9030  177.6690  137.6440 C   0  0  0  0  0  0  0  0  0  0  0  0
  184.6420  178.2270  137.4150 O   0  0  0  0  0  0  0  0  0  0  0  0
  183.5700  178.0610  138.3310 C   0  0  0  0  0  2  0  0  0  0  0  0
  183.1980  179.3830  138.9020 C   0  0  0  0  0  0  0  0  0  0  0  0
  184.1280  180.4140  138.9280 O   0  0  0  0  0  0  0  0  0  0  0  0
  182.0300  179.5780  139.3260 O   0  0  0  0  0  1  0  0  0  0  0  0
  1 23  1  0  0  0  0
  2  3  1  0  0  0  0
  3 17  2  0  0  0  0
  4  5  1  0  0  0  0
  5 15  1  0  0  0  0
  5 24  1  0  0  0  0
  6 20  1  0  0  0  0
  7 10  2  0  0  0  0
  8 22  1  0  0  0  0
  9 11  1  0  0  0  0
  9  2  2  0  0  0  0
 10  1  1  0  0  0  0
 10 11  1  0  0  0  0
 11 18  2  0  0  0  0
 12 19  2  0  0  0  0
 13  8  1  0  0  0  0
 14  6  2  0  0  0  0
 14  7  1  0  0  0  0
 15 13  2  0  0  0  0
 16  6  1  0  0  0  0
 18 12  1  0  0  0  0
 18 17  1  0  0  0  0
 19 24  1  0  0  0  0
 20  1  2  0  0  0  0
 21  4  1  0  0  0  0
 23  4  2  0  0  0  0
 23 12  1  0  0  0  0
 24  8  2  0  0  0  0
 25 14  1  0  0  0  0
 26 27  2  0  0  0  0
 27 25  1  0  0  0  0
 28 27  1  0  0  0  0
 28 29  1  0  0  0  0
 29 30  1  0  0  0  0
 30 31  2  0  0  0  0
 30 32  1  0  0  0  0
M  END
>  <MODEL>
2

>  <REMARK>
 VINA RESULT:     -10.1      3.204      6.719
  Name = 
  5 active torsions:
  status: ('A' for Active; 'I' for Inactive)
    1  A    between atoms: C_1  and  C_10
    2  A    between atoms: C_10  and  O_24
    3  A    between atoms: O_12  and  C_19
    4  A    between atoms: O_12  and  C_21
    5  A    between atoms: C_19  and  O_24
                            x       y       z     vdW  Elec       q    Type
                         _______ _______ _______ _____ _____    ______ ____

>  <TORSDO>
F 5

$$$$
=
 OpenBabel10272413213D

 32 36  0  0  0  0  0  0  0  0999 V2000
  186.7910  178.2150  142.1650 C   0  0  0  0  0  0  0  0  0  0  0  0
  186.2800  178.1310  147.0300 C   0  0  0  0  0  3  0  0  0  0  0  0
  184.9120  178.3630  146.8920 C   0  0  0  0  0  3  0  0  0  0  0  0
  184.7290  178.6110  140.7510 C   0  0  0  0  0  0  0  0  0  0  0  0
  183.3900  178.8330  140.7590 N   0  0  0  0  0  0  0  0  0  0  0  0
  189.0150  177.8620  141.2020 C   0  0  0  0  0  0  0  0  0  0  0  0
  188.7370  177.8510  143.5970 C   0  0  0  0  0  3  0  0  0  0  0  0
  181.3620  179.1420  141.5620 C   0  0  0  0  0  0  0  0  0  0  0  0
  187.0870  178.0370  145.8960 C   0  0  0  0  0  3  0  0  0  0  0  0
  187.3560  178.0780  143.4630 C   0  0  0  0  0  0  0  0  0  0  0  0
  186.5410  178.1720  144.6060 C   0  0  0  0  0  0  0  0  0  0  0  0
  184.5810  178.5480  143.1950 C   0  0  0  0  0  0  0  0  0  0  0  0
  181.3370  179.1980  140.1730 C   0  0  0  0  0  3  0  0  0  0  0  0
  189.5730  177.7630  142.4860 C   0  0  0  0  0  0  0  0  0  0  0  0
  182.5990  179.0040  139.7100 N   0  0  0  0  0  0  0  0  0  0  0  0
  189.7960  177.7000  140.0650 O   0  0  0  0  0  1  0  0  0  0  0  0
  184.3540  178.5000  145.6200 C   0  0  0  0  0  3  0  0  0  0  0  0
  185.1550  178.4070  144.4690 C   0  0  0  0  0  0  0  0  0  0  0  0
  183.2370  178.7750  143.0950 N   0  0  0  0  0  0  0  0  0  0  0  0
  187.6470  178.0940  141.0580 C   0  0  0  0  0  3  0  0  0  0  0  0
  185.4250  178.5480  139.4270 C   0  0  0  0  0  1  0  0  0  0  0  0
  180.2120  179.3000  142.4930 C   0  0  0  0  0  1  0  0  0  0  0  0
  185.3920  178.4550  142.0150 C   0  0  0  0  0  0  0  0  0  0  0  0
  182.6750  178.9120  141.8770 C   0  0  0  0  0  0  0  0  0  0  0  0
  190.9390  177.5370  142.6970 O   0  0  0  0  0  0  0  0  0  0  0  0
  191.6770  175.5620  143.5970 O   0  0  0  0  0  0  0  0  0  0  0  0
  191.4530  176.7910  143.7610 C   0  0  0  0  0  0  0  0  0  0  0  0
  191.6680  177.3900  145.0060 O   0  0  0  0  0  0  0  0  0  0  0  0
  190.9760  176.9690  146.1720 C   0  0  0  0  0  2  0  0  0  0  0  0
  191.9310  176.3190  147.1080 C   0  0  0  0  0  0  0  0  0  0  0  0
  192.2840  176.9540  148.2910 O   0  0  0  0  0  1  0  0  0  0  0  0
  192.3900  175.1780  146.8460 O   0  0  0  0  0  0  0  0  0  0  0  0
  1 10  1  0  0  0  0
  3  2  1  0  0  0  0
  4  5  1  0  0  0  0
  4 23  2  0  0  0  0
  5 24  1  0  0  0  0
  6 14  2  0  0  0  0
  8 24  2  0  0  0  0
  8 22  1  0  0  0  0
  9  2  2  0  0  0  0
 10  7  2  0  0  0  0
 10 11  1  0  0  0  0
 11  9  1  0  0  0  0
 12 18  1  0  0  0  0
 13  8  1  0  0  0  0
 14 25  1  0  0  0  0
 14  7  1  0  0  0  0
 15 13  2  0  0  0  0
 15  5  1  0  0  0  0
 16  6  1  0  0  0  0
 17  3  2  0  0  0  0
 18 11  2  0  0  0  0
 18 17  1  0  0  0  0
 19 12  2  0  0  0  0
 20  6  1  0  0  0  0
 20  1  2  0  0  0  0
 21  4  1  0  0  0  0
 23  1  1  0  0  0  0
 23 12  1  0  0  0  0
 24 19  1  0  0  0  0
 25 27  1  0  0  0  0
 26 27  2  0  0  0  0
 27 28  1  0  0  0  0
 28 29  1  0  0  0  0
 29 30  1  0  0  0  0
 30 31  1  0  0  0  0
 32 30  2  0  0  0  0
M  END
>  <MODEL>
3

>  <REMARK>
 VINA RESULT:     -10.0      3.279      5.159
  Name = 
  5 active torsions:
  status: ('A' for Active; 'I' for Inactive)
    1  A    between atoms: C_1  and  C_10
    2  A    between atoms: C_10  and  O_24
    3  A    between atoms: O_12  and  C_19
    4  A    between atoms: O_12  and  C_21
    5  A    between atoms: C_19  and  O_24
                            x       y       z     vdW  Elec       q    Type
                         _______ _______ _______ _____ _____    ______ ____

>  <TORSDO>
F 5

$$$$
=
 OpenBabel10272413213D

 32 36  0  0  0  0  0  0  0  0999 V2000
  185.9850  178.2880  143.5620 C   0  0  0  0  0  0  0  0  0  0  0  0
  189.4790  177.5850  140.2090 C   0  0  0  0  0  3  0  0  0  0  0  0
  190.4060  177.3480  141.2230 C   0  0  0  0  0  3  0  0  0  0  0  0
  186.6130  178.0860  146.0050 C   0  0  0  0  0  0  0  0  0  0  0  0
  187.6130  177.8370  146.8900 N   0  0  0  0  0  0  0  0  0  0  0  0
  183.7120  178.8060  142.8130 C   0  0  0  0  0  0  0  0  0  0  0  0
  185.4590  178.4790  141.1840 C   0  0  0  0  0  3  0  0  0  0  0  0
  189.6330  177.3600  147.6270 C   0  0  0  0  0  0  0  0  0  0  0  0
  188.1530  177.8780  140.5330 C   0  0  0  0  0  3  0  0  0  0  0  0
  186.3970  178.2330  142.2020 C   0  0  0  0  0  0  0  0  0  0  0  0
  187.7330  177.9370  141.8760 C   0  0  0  0  0  0  0  0  0  0  0  0
  188.2860  177.7510  144.2490 C   0  0  0  0  0  0  0  0  0  0  0  0
  188.7640  177.5310  148.6990 C   0  0  0  0  0  3  0  0  0  0  0  0
  184.1310  178.7850  141.4730 C   0  0  0  0  0  0  0  0  0  0  0  0
  187.5310  177.8240  148.2120 N   0  0  0  0  0  0  0  0  0  0  0  0
  182.3820  179.0270  143.1460 O   0  0  0  0  0  1  0  0  0  0  0  0
  190.0060  177.4040  142.5590 C   0  0  0  0  0  3  0  0  0  0  0  0
  188.6750  177.6970  142.9010 C   0  0  0  0  0  0  0  0  0  0  0  0
  189.2200  177.5140  145.2180 N   0  0  0  0  0  0  0  0  0  0  0  0
  184.6350  178.5700  143.8310 C   0  0  0  0  0  3  0  0  0  0  0  0
  185.2510  178.3880  146.5500 C   0  0  0  0  0  1  0  0  0  0  0  0
  191.0830  177.0290  147.6840 C   0  0  0  0  0  1  0  0  0  0  0  0
  186.9290  178.0500  144.6060 C   0  0  0  0  0  0  0  0  0  0  0  0
  188.8590  177.5630  146.5160 C   0  0  0  0  0  0  0  0  0  0  0  0
  183.2540  179.0200  140.4070 O   0  0  0  0  0  0  0  0  0  0  0  0
  184.0600  180.5690  138.9230 O   0  0  0  0  0  0  0  0  0  0  0  0
  183.6650  179.3900  139.1240 C   0  0  0  0  0  0  0  0  0  0  0  0
  183.5920  178.4780  138.0670 O   0  0  0  0  0  0  0  0  0  0  0  0
  184.5100  177.4020  137.9390 C   0  0  0  0  0  2  0  0  0  0  0  0
  185.6460  177.8200  137.0760 C   0  0  0  0  0  0  0  0  0  0  0  0
  186.6170  178.6770  137.5750 O   0  0  0  0  0  1  0  0  0  0  0  0
  185.7470  177.3680  135.9070 O   0  0  0  0  0  0  0  0  0  0  0  0
  1 20  1  0  0  0  0
  1 23  1  0  0  0  0
  2  9  2  0  0  0  0
  2  3  1  0  0  0  0
  3 17  2  0  0  0  0
  4 21  1  0  0  0  0
  4  5  1  0  0  0  0
  5 15  1  0  0  0  0
  6 16  1  0  0  0  0
  6 20  2  0  0  0  0
  7 14  2  0  0  0  0
  7 10  1  0  0  0  0
  8 22  1  0  0  0  0
  8 13  1  0  0  0  0
  9 11  1  0  0  0  0
 10  1  2  0  0  0  0
 11 10  1  0  0  0  0
 11 18  2  0  0  0  0
 12 23  1  0  0  0  0
 12 19  2  0  0  0  0
 14  6  1  0  0  0  0
 15 13  2  0  0  0  0
 17 18  1  0  0  0  0
 18 12  1  0  0  0  0
 19 24  1  0  0  0  0
 23  4  2  0  0  0  0
 24  5  1  0  0  0  0
 24  8  2  0  0  0  0
 25 14  1  0  0  0  0
 26 27  2  0  0  0  0
 27 25  1  0  0  0  0
 28 27  1  0  0  0  0
 29 28  1  0  0  0  0
 30 31  1  0  0  0  0
 30 29  1  0  0  0  0
 32 30  2  0  0  0  0
M  END
>  <MODEL>
4

>  <REMARK>
 VINA RESULT:      -9.9      4.001      6.602
  Name = 
  5 active torsions:
  status: ('A' for Active; 'I' for Inactive)
    1  A    between atoms: C_1  and  C_10
    2  A    between atoms: C_10  and  O_24
    3  A    between atoms: O_12  and  C_19
    4  A    between atoms: O_12  and  C_21
    5  A    between atoms: C_19  and  O_24
                            x       y       z     vdW  Elec       q    Type
                         _______ _______ _______ _____ _____    ______ ____

>  <TORSDO>
F 5

$$$$
=
 OpenBabel10272413213D

 32 36  0  0  0  0  0  0  0  0999 V2000
  187.8100  178.0410  142.3110 C   0  0  0  0  0  0  0  0  0  0  0  0
  183.0730  178.9200  143.1690 C   0  0  0  0  0  3  0  0  0  0  0  0
  183.2960  178.7880  144.5390 C   0  0  0  0  0  3  0  0  0  0  0  0
  189.3250  177.6100  144.2920 C   0  0  0  0  0  0  0  0  0  0  0  0
  189.4020  177.5080  145.6430 N   0  0  0  0  0  0  0  0  0  0  0  0
  188.6140  178.0470  139.9980 C   0  0  0  0  0  0  0  0  0  0  0  0
  186.2810  178.4520  140.4500 C   0  0  0  0  0  3  0  0  0  0  0  0
  188.7440  177.5030  147.7450 C   0  0  0  0  0  0  0  0  0  0  0  0
  184.1330  178.7670  142.2750 C   0  0  0  0  0  3  0  0  0  0  0  0
  186.5010  178.3270  141.8330 C   0  0  0  0  0  0  0  0  0  0  0  0
  185.4330  178.4810  142.7350 C   0  0  0  0  0  0  0  0  0  0  0  0
  186.9400  178.0620  144.6130 C   0  0  0  0  0  0  0  0  0  0  0  0
  190.1070  177.2360  147.6740 C   0  0  0  0  0  3  0  0  0  0  0  0
  187.3150  178.2950  139.5290 C   0  0  0  0  0  0  0  0  0  0  0  0
  190.4800  177.2460  146.3680 N   0  0  0  0  0  0  0  0  0  0  0  0
  189.6900  177.9630  139.1230 O   0  0  0  0  0  1  0  0  0  0  0  0
  184.5770  178.5050  145.0120 C   0  0  0  0  0  3  0  0  0  0  0  0
  185.6550  178.3490  144.1240 C   0  0  0  0  0  0  0  0  0  0  0  0
  187.1230  177.9400  145.9610 N   0  0  0  0  0  0  0  0  0  0  0  0
  188.8420  177.9140  141.3680 C   0  0  0  0  0  3  0  0  0  0  0  0
  190.5780  177.4070  143.4980 C   0  0  0  0  0  1  0  0  0  0  0  0
  187.9040  177.5900  148.9710 C   0  0  0  0  0  1  0  0  0  0  0  0
  188.0450  177.9020  143.7120 C   0  0  0  0  0  0  0  0  0  0  0  0
  188.3520  177.6650  146.4430 C   0  0  0  0  0  0  0  0  0  0  0  0
  187.0210  178.4320  138.1670 O   0  0  0  0  0  0  0  0  0  0  0  0
  185.4600  177.0650  137.1930 O   0  0  0  0  0  0  0  0  0  0  0  0
  186.6760  177.3670  137.3310 C   0  0  0  0  0  0  0  0  0  0  0  0
  187.6680  176.6150  136.6960 O   0  0  0  0  0  0  0  0  0  0  0  0
  188.0930  175.3560  137.1970 C   0  0  0  0  0  2  0  0  0  0  0  0
  189.5580  175.2080  136.9880 C   0  0  0  0  0  0  0  0  0  0  0  0
  190.1990  175.9610  136.0130 O   0  0  0  0  0  0  0  0  0  0  0  0
  190.2220  174.4310  137.7200 O   0  0  0  0  0  1  0  0  0  0  0  0
  1 23  1  0  0  0  0
  2  3  1  0  0  0  0
  3 17  2  0  0  0  0
  4  5  1  0  0  0  0
  5 15  1  0  0  0  0
  5 24  1  0  0  0  0
  6 20  1  0  0  0  0
  7 10  2  0  0  0  0
  8 22  1  0  0  0  0
  9 11  1  0  0  0  0
  9  2  2  0  0  0  0
 10  1  1  0  0  0  0
 10 11  1  0  0  0  0
 11 18  2  0  0  0  0
 12 19  2  0  0  0  0
 13  8  1  0  0  0  0
 14  6  2  0  0  0  0
 14  7  1  0  0  0  0
 15 13  2  0  0  0  0
 16  6  1  0  0  0  0
 18 12  1  0  0  0  0
 18 17  1  0  0  0  0
 19 24  1  0  0  0  0
 20  1  2  0  0  0  0
 21  4  1  0  0  0  0
 23  4  2  0  0  0  0
 23 12  1  0  0  0  0
 24  8  2  0  0  0  0
 25 14  1  0  0  0  0
 26 27  2  0  0  0  0
 27 25  1  0  0  0  0
 28 29  1  0  0  0  0
 28 27  1  0  0  0  0
 30 29  1  0  0  0  0
 30 32  1  0  0  0  0
 31 30  2  0  0  0  0
M  END
>  <MODEL>
5

>  <REMARK>
 VINA RESULT:      -9.9      2.617      5.164
  Name = 
  5 active torsions:
  status: ('A' for Active; 'I' for Inactive)
    1  A    between atoms: C_1  and  C_10
    2  A    between atoms: C_10  and  O_24
    3  A    between atoms: O_12  and  C_19
    4  A    between atoms: O_12  and  C_21
    5  A    between atoms: C_19  and  O_24
                            x       y       z     vdW  Elec       q    Type
                         _______ _______ _______ _____ _____    ______ ____

>  <TORSDO>
F 5

$$$$
=
 OpenBabel10272413213D

 32 36  0  0  0  0  0  0  0  0999 V2000
  189.0320  177.5870  142.3120 C   0  0  0  0  0  0  0  0  0  0  0  0
  184.2900  178.7820  142.4820 C   0  0  0  0  0  3  0  0  0  0  0  0
  184.3300  178.7490  143.8760 C   0  0  0  0  0  3  0  0  0  0  0  0
  190.2560  177.2350  144.4980 C   0  0  0  0  0  0  0  0  0  0  0  0
  190.1580  177.2360  145.8520 N   0  0  0  0  0  0  0  0  0  0  0  0
  190.1180  177.3660  140.1290 C   0  0  0  0  0  0  0  0  0  0  0  0
  187.7770  177.9300  140.2430 C   0  0  0  0  0  3  0  0  0  0  0  0
  189.2420  177.4340  147.8460 C   0  0  0  0  0  0  0  0  0  0  0  0
  185.4420  178.5030  141.7460 C   0  0  0  0  0  3  0  0  0  0  0  0
  187.8140  177.9030  141.6480 C   0  0  0  0  0  0  0  0  0  0  0  0
  186.6530  178.1860  142.3910 C   0  0  0  0  0  0  0  0  0  0  0  0
  187.8830  177.8380  144.4740 C   0  0  0  0  0  0  0  0  0  0  0  0
  190.5830  177.0900  147.9710 C   0  0  0  0  0  3  0  0  0  0  0  0
  188.9060  177.6450  139.4780 C   0  0  0  0  0  0  0  0  0  0  0  0
  191.1170  176.9760  146.7280 N   0  0  0  0  0  0  0  0  0  0  0  0
  191.2880  177.1550  139.4090 O   0  0  0  0  0  1  0  0  0  0  0  0
  185.5220  178.4360  144.5300 C   0  0  0  0  0  3  0  0  0  0  0  0
  186.6900  178.1520  143.8030 C   0  0  0  0  0  0  0  0  0  0  0  0
  187.8880  177.8130  145.8400 N   0  0  0  0  0  0  0  0  0  0  0  0
  190.1640  177.3310  141.5220 C   0  0  0  0  0  3  0  0  0  0  0  0
  191.5840  176.9020  143.8900 C   0  0  0  0  0  1  0  0  0  0  0  0
  188.2620  177.6630  148.9420 C   0  0  0  0  0  1  0  0  0  0  0  0
  189.0800  177.5470  143.7380 C   0  0  0  0  0  0  0  0  0  0  0  0
  189.0270  177.5120  146.4960 C   0  0  0  0  0  0  0  0  0  0  0  0
  188.7950  177.6890  138.0830 O   0  0  0  0  0  0  0  0  0  0  0  0
  188.9820  179.8510  137.3460 O   0  0  0  0  0  0  0  0  0  0  0  0
  188.3060  178.7880  137.3720 C   0  0  0  0  0  0  0  0  0  0  0  0
  187.0600  178.7260  136.7410 O   0  0  0  0  0  0  0  0  0  0  0  0
  186.2040  177.6010  136.8780 C   0  0  0  0  0  2  0  0  0  0  0  0
  185.1170  177.9200  137.8400 C   0  0  0  0  0  0  0  0  0  0  0  0
  185.0790  179.1630  138.4570 O   0  0  0  0  0  1  0  0  0  0  0  0
  184.2110  177.0780  138.0670 O   0  0  0  0  0  0  0  0  0  0  0  0
  1 23  1  0  0  0  0
  2  3  1  0  0  0  0
  3 17  2  0  0  0  0
  4  5  1  0  0  0  0
  5 24  1  0  0  0  0
  5 15  1  0  0  0  0
  6 20  1  0  0  0  0
  7 10  2  0  0  0  0
  8 13  1  0  0  0  0
  8 22  1  0  0  0  0
  9 11  1  0  0  0  0
  9  2  2  0  0  0  0
 10  1  1  0  0  0  0
 10 11  1  0  0  0  0
 11 18  2  0  0  0  0
 12 19  2  0  0  0  0
 14  6  2  0  0  0  0
 14  7  1  0  0  0  0
 15 13  2  0  0  0  0
 16  6  1  0  0  0  0
 18 12  1  0  0  0  0
 18 17  1  0  0  0  0
 19 24  1  0  0  0  0
 20  1  2  0  0  0  0
 21  4  1  0  0  0  0
 23 12  1  0  0  0  0
 23  4  2  0  0  0  0
 24  8  2  0  0  0  0
 25 14  1  0  0  0  0
 26 27  2  0  0  0  0
 27 25  1  0  0  0  0
 28 29  1  0  0  0  0
 28 27  1  0  0  0  0
 29 30  1  0  0  0  0
 30 32  2  0  0  0  0
 30 31  1  0  0  0  0
M  END
>  <MODEL>
6

>  <REMARK>
 VINA RESULT:      -9.8      2.574      5.925
  Name = 
  5 active torsions:
  status: ('A' for Active; 'I' for Inactive)
    1  A    between atoms: C_1  and  C_10
    2  A    between atoms: C_10  and  O_24
    3  A    between atoms: O_12  and  C_19
    4  A    between atoms: O_12  and  C_21
    5  A    between atoms: C_19  and  O_24
                            x       y       z     vdW  Elec       q    Type
                         _______ _______ _______ _____ _____    ______ ____

>  <TORSDO>
F 5

$$$$
=
 OpenBabel10272413213D

 32 36  0  0  0  0  0  0  0  0999 V2000
  187.3280  178.0440  141.9250 C   0  0  0  0  0  0  0  0  0  0  0  0
  183.7590  178.7890  145.1890 C   0  0  0  0  0  3  0  0  0  0  0  0
  184.6300  178.4410  146.2210 C   0  0  0  0  0  3  0  0  0  0  0  0
  189.5920  177.3000  142.7760 C   0  0  0  0  0  0  0  0  0  0  0  0
  190.3300  176.9840  143.8710 N   0  0  0  0  0  0  0  0  0  0  0  0
  186.8570  178.4150  139.5510 C   0  0  0  0  0  0  0  0  0  0  0  0
  185.1110  178.7500  141.1790 C   0  0  0  0  0  3  0  0  0  0  0  0
  190.8210  176.6470  145.9920 C   0  0  0  0  0  0  0  0  0  0  0  0
  184.2080  178.7780  143.8670 C   0  0  0  0  0  3  0  0  0  0  0  0
  185.9860  178.4060  142.2250 C   0  0  0  0  0  0  0  0  0  0  0  0
  185.5340  178.4190  143.5570 C   0  0  0  0  0  0  0  0  0  0  0  0
  187.7400  177.7020  144.3270 C   0  0  0  0  0  0  0  0  0  0  0  0
  191.9350  176.3900  145.2000 C   0  0  0  0  0  3  0  0  0  0  0  0
  185.5240  178.7380  139.8490 C   0  0  0  0  0  0  0  0  0  0  0  0
  191.6000  176.6070  143.9020 N   0  0  0  0  0  0  0  0  0  0  0  0
  187.3350  178.4680  138.2480 O   0  0  0  0  0  1  0  0  0  0  0  0
  185.9460  178.0820  145.9310 C   0  0  0  0  0  3  0  0  0  0  0  0
  186.4130  178.0660  144.6050 C   0  0  0  0  0  0  0  0  0  0  0  0
  188.5660  177.3660  145.3620 N   0  0  0  0  0  0  0  0  0  0  0  0
  187.7310  178.0660  140.5800 C   0  0  0  0  0  3  0  0  0  0  0  0
  190.2540  177.2210  141.4350 C   0  0  0  0  0  1  0  0  0  0  0  0
  190.7230  176.5410  147.4730 C   0  0  0  0  0  1  0  0  0  0  0  0
  188.2240  177.6830  142.9760 C   0  0  0  0  0  0  0  0  0  0  0  0
  189.8430  177.0140  145.1080 C   0  0  0  0  0  0  0  0  0  0  0  0
  184.5970  179.0910  138.8600 O   0  0  0  0  0  0  0  0  0  0  0  0
  183.2530  180.9470  138.9060 O   0  0  0  0  0  0  0  0  0  0  0  0
  183.3720  179.7120  139.1220 C   0  0  0  0  0  0  0  0  0  0  0  0
  182.3110  178.9820  139.6640 O   0  0  0  0  0  0  0  0  0  0  0  0
  181.0290  179.5590  139.8670 C   0  0  0  0  0  2  0  0  0  0  0  0
  180.7300  179.6040  141.3230 C   0  0  0  0  0  0  0  0  0  0  0  0
  180.0020  180.6620  141.8490 O   0  0  0  0  0  0  0  0  0  0  0  0
  181.1040  178.6640  142.0700 O   0  0  0  0  0  1  0  0  0  0  0  0
  1 10  1  0  0  0  0
  1 23  1  0  0  0  0
  2  3  1  0  0  0  0
  4 23  2  0  0  0  0
  4  5  1  0  0  0  0
  5 15  1  0  0  0  0
  5 24  1  0  0  0  0
  6 14  2  0  0  0  0
  6 20  1  0  0  0  0
  7 10  2  0  0  0  0
  8 22  1  0  0  0  0
  9  2  2  0  0  0  0
 10 11  1  0  0  0  0
 11  9  1  0  0  0  0
 11 18  2  0  0  0  0
 12 18  1  0  0  0  0
 12 19  2  0  0  0  0
 13  8  1  0  0  0  0
 14  7  1  0  0  0  0
 15 13  2  0  0  0  0
 16  6  1  0  0  0  0
 17  3  2  0  0  0  0
 18 17  1  0  0  0  0
 20  1  2  0  0  0  0
 21  4  1  0  0  0  0
 23 12  1  0  0  0  0
 24 19  1  0  0  0  0
 24  8  2  0  0  0  0
 25 27  1  0  0  0  0
 25 14  1  0  0  0  0
 26 27  2  0  0  0  0
 27 28  1  0  0  0  0
 28 29  1  0  0  0  0
 29 30  1  0  0  0  0
 30 31  2  0  0  0  0
 30 32  1  0  0  0  0
M  END
>  <MODEL>
7

>  <REMARK>
 VINA RESULT:      -9.8      3.710      7.886
  Name = 
  5 active torsions:
  status: ('A' for Active; 'I' for Inactive)
    1  A    between atoms: C_1  and  C_10
    2  A    between atoms: C_10  and  O_24
    3  A    between atoms: O_12  and  C_19
    4  A    between atoms: O_12  and  C_21
    5  A    between atoms: C_19  and  O_24
                            x       y       z     vdW  Elec       q    Type
                         _______ _______ _______ _____ _____    ______ ____

>  <TORSDO>
F 5

$$$$
=
 OpenBabel10272413213D

 32 36  0  0  0  0  0  0  0  0999 V2000
  185.8940  178.3130  143.5210 C   0  0  0  0  0  0  0  0  0  0  0  0
  189.3520  177.6510  140.1230 C   0  0  0  0  0  3  0  0  0  0  0  0
  190.2890  177.3990  141.1240 C   0  0  0  0  0  3  0  0  0  0  0  0
  186.5470  178.0760  145.9550 C   0  0  0  0  0  0  0  0  0  0  0  0
  187.5550  177.8130  146.8250 N   0  0  0  0  0  0  0  0  0  0  0  0
  183.6150  178.8450  142.8020 C   0  0  0  0  0  0  0  0  0  0  0  0
  185.3450  178.5370  141.1510 C   0  0  0  0  0  3  0  0  0  0  0  0
  189.5820  177.3230  147.5360 C   0  0  0  0  0  0  0  0  0  0  0  0
  188.0300  177.9410  140.4650 C   0  0  0  0  0  3  0  0  0  0  0  0
  186.2920  178.2760  142.1560 C   0  0  0  0  0  0  0  0  0  0  0  0
  187.6240  177.9830  141.8120 C   0  0  0  0  0  0  0  0  0  0  0  0
  188.2020  177.7630  144.1770 C   0  0  0  0  0  0  0  0  0  0  0  0
  188.7240  177.4810  148.6190 C   0  0  0  0  0  3  0  0  0  0  0  0
  184.0200  178.8410  141.4590 C   0  0  0  0  0  0  0  0  0  0  0  0
  187.4870  177.7820  148.1480 N   0  0  0  0  0  0  0  0  0  0  0  0
  182.2880  179.0620  143.1520 O   0  0  0  0  0  1  0  0  0  0  0  0
  189.9040  177.4370  142.4640 C   0  0  0  0  0  3  0  0  0  0  0  0
  188.5760  177.7270  142.8240 C   0  0  0  0  0  0  0  0  0  0  0  0
  189.1450  177.5110  145.1330 N   0  0  0  0  0  0  0  0  0  0  0  0
  184.5480  178.5930  143.8070 C   0  0  0  0  0  3  0  0  0  0  0  0
  185.1910  178.3720  146.5180 C   0  0  0  0  0  1  0  0  0  0  0  0
  191.0320  176.9900  147.5730 C   0  0  0  0  0  1  0  0  0  0  0  0
  186.8480  178.0590  144.5520 C   0  0  0  0  0  0  0  0  0  0  0  0
  188.7970  177.5430  146.4350 C   0  0  0  0  0  0  0  0  0  0  0  0
  183.1320  179.0920  140.4050 O   0  0  0  0  0  0  0  0  0  0  0  0
  184.0600  180.5830  138.9320 O   0  0  0  0  0  0  0  0  0  0  0  0
  183.5320  179.4540  139.1150 C   0  0  0  0  0  0  0  0  0  0  0  0
  183.3030  178.5960  138.0360 O   0  0  0  0  0  0  0  0  0  0  0  0
  183.8520  177.2870  137.9880 C   0  0  0  0  0  2  0  0  0  0  0  0
  182.8030  176.2960  138.3460 C   0  0  0  0  0  0  0  0  0  0  0  0
  181.9080  175.8540  137.3810 O   0  0  0  0  0  0  0  0  0  0  0  0
  182.7510  175.8300  139.5120 O   0  0  0  0  0  1  0  0  0  0  0  0
  1 20  1  0  0  0  0
  1 23  1  0  0  0  0
  2  9  2  0  0  0  0
  2  3  1  0  0  0  0
  3 17  2  0  0  0  0
  4 21  1  0  0  0  0
  4  5  1  0  0  0  0
  5 15  1  0  0  0  0
  6 16  1  0  0  0  0
  6 20  2  0  0  0  0
  7 14  2  0  0  0  0
  7 10  1  0  0  0  0
  8 22  1  0  0  0  0
  8 13  1  0  0  0  0
  9 11  1  0  0  0  0
 10  1  2  0  0  0  0
 11 10  1  0  0  0  0
 11 18  2  0  0  0  0
 12 23  1  0  0  0  0
 12 19  2  0  0  0  0
 14  6  1  0  0  0  0
 15 13  2  0  0  0  0
 17 18  1  0  0  0  0
 18 12  1  0  0  0  0
 19 24  1  0  0  0  0
 23  4  2  0  0  0  0
 24  5  1  0  0  0  0
 24  8  2  0  0  0  0
 25 14  1  0  0  0  0
 26 27  2  0  0  0  0
 27 25  1  0  0  0  0
 28 27  1  0  0  0  0
 29 28  1  0  0  0  0
 29 30  1  0  0  0  0
 30 32  1  0  0  0  0
 31 30  2  0  0  0  0
M  END
>  <MODEL>
8

>  <REMARK>
 VINA RESULT:      -9.7      5.004      7.120
  Name = 
  5 active torsions:
  status: ('A' for Active; 'I' for Inactive)
    1  A    between atoms: C_1  and  C_10
    2  A    between atoms: C_10  and  O_24
    3  A    between atoms: O_12  and  C_19
    4  A    between atoms: O_12  and  C_21
    5  A    between atoms: C_19  and  O_24
                            x       y       z     vdW  Elec       q    Type
                         _______ _______ _______ _____ _____    ______ ____

>  <TORSDO>
F 5

$$$$
=
 OpenBabel10272413213D

 32 36  0  0  0  0  0  0  0  0999 V2000
  188.3250  177.8350  141.2730 C   0  0  0  0  0  0  0  0  0  0  0  0
  191.6350  176.4710  144.6090 C   0  0  0  0  0  3  0  0  0  0  0  0
  190.6920  176.6510  145.6200 C   0  0  0  0  0  3  0  0  0  0  0  0
  186.0070  178.4610  142.0740 C   0  0  0  0  0  0  0  0  0  0  0  0
  185.1910  178.5970  143.1500 N   0  0  0  0  0  0  0  0  0  0  0  0
  188.9710  177.8720  138.9120 C   0  0  0  0  0  0  0  0  0  0  0  0
  190.5870  177.2280  140.5800 C   0  0  0  0  0  3  0  0  0  0  0  0
  184.5440  178.5700  145.2560 C   0  0  0  0  0  0  0  0  0  0  0  0
  191.2860  176.7190  143.2810 C   0  0  0  0  0  3  0  0  0  0  0  0
  189.6390  177.4010  141.6030 C   0  0  0  0  0  0  0  0  0  0  0  0
  189.9890  177.1510  142.9420 C   0  0  0  0  0  0  0  0  0  0  0  0
  187.7350  177.7630  143.6610 C   0  0  0  0  0  0  0  0  0  0  0  0
  183.4940  178.9800  144.4410 C   0  0  0  0  0  3  0  0  0  0  0  0
  190.2750  177.4770  139.2450 C   0  0  0  0  0  0  0  0  0  0  0  0
  183.9240  178.9860  143.1530 N   0  0  0  0  0  0  0  0  0  0  0  0
  188.5910  178.0540  137.5880 O   0  0  0  0  0  1  0  0  0  0  0  0
  189.4020  177.0780  145.3010 C   0  0  0  0  0  3  0  0  0  0  0  0
  189.0360  177.3320  143.9680 C   0  0  0  0  0  0  0  0  0  0  0  0
  186.8360  177.9290  144.6760 N   0  0  0  0  0  0  0  0  0  0  0  0
  188.0240  178.0530  139.9190 C   0  0  0  0  0  3  0  0  0  0  0  0
  185.4480  178.7830  140.7220 C   0  0  0  0  0  1  0  0  0  0  0  0
  184.5320  178.4160  146.7360 C   0  0  0  0  0  1  0  0  0  0  0  0
  187.3540  178.0240  142.3030 C   0  0  0  0  0  0  0  0  0  0  0  0
  185.5840  178.3430  144.3940 C   0  0  0  0  0  0  0  0  0  0  0  0
  191.2720  177.2840  138.2800 O   0  0  0  0  0  0  0  0  0  0  0  0
  193.3080  176.2400  138.1320 O   0  0  0  0  0  0  0  0  0  0  0  0
  192.0540  176.1290  138.1840 C   0  0  0  0  0  0  0  0  0  0  0  0
  191.4500  174.8720  138.0960 O   0  0  0  0  0  0  0  0  0  0  0  0
  191.0890  174.2970  136.8490 C   0  0  0  0  0  2  0  0  0  0  0  0
  189.8250  174.9150  136.3670 C   0  0  0  0  0  0  0  0  0  0  0  0
  189.8150  175.6430  135.1850 O   0  0  0  0  0  0  0  0  0  0  0  0
  188.7580  174.7440  137.0100 O   0  0  0  0  0  1  0  0  0  0  0  0
  1 10  1  0  0  0  0
  1 23  1  0  0  0  0
  2  3  1  0  0  0  0
  4 23  2  0  0  0  0
  4  5  1  0  0  0  0
  5 15  1  0  0  0  0
  5 24  1  0  0  0  0
  6 14  2  0  0  0  0
  6 20  1  0  0  0  0
  7 10  2  0  0  0  0
  8 22  1  0  0  0  0
  9  2  2  0  0  0  0
 10 11  1  0  0  0  0
 11  9  1  0  0  0  0
 11 18  2  0  0  0  0
 12 18  1  0  0  0  0
 12 19  2  0  0  0  0
 13  8  1  0  0  0  0
 14  7  1  0  0  0  0
 15 13  2  0  0  0  0
 16  6  1  0  0  0  0
 17  3  2  0  0  0  0
 18 17  1  0  0  0  0
 20  1  2  0  0  0  0
 21  4  1  0  0  0  0
 23 12  1  0  0  0  0
 24 19  1  0  0  0  0
 24  8  2  0  0  0  0
 25 14  1  0  0  0  0
 26 27  2  0  0  0  0
 27 25  1  0  0  0  0
 28 27  1  0  0  0  0
 29 28  1  0  0  0  0
 30 29  1  0  0  0  0
 30 32  1  0  0  0  0
 31 30  2  0  0  0  0
M  END
>  <MODEL>
9

>  <REMARK>
 VINA RESULT:      -9.4      1.259      2.303
  Name = 
  5 active torsions:
  status: ('A' for Active; 'I' for Inactive)
    1  A    between atoms: C_1  and  C_10
    2  A    between atoms: C_10  and  O_24
    3  A    between atoms: O_12  and  C_19
    4  A    between atoms: O_12  and  C_21
    5  A    between atoms: C_19  and  O_24
                            x       y       z     vdW  Elec       q    Type
                         _______ _______ _______ _____ _____    ______ ____

>  <TORSDO>
F 5

$$$$
