=
 OpenBabel10272413103D

 32 36  0  0  1  0  0  0  0  0999 V2000
  184.5420  178.4680  143.3610 C   0  0  0  0  0  0  0  0  0  0  0  0
  186.9380  177.7390  143.5920 C   0  0  0  0  0  0  0  0  0  0  0  0
  183.1660  178.2870  143.9670 C   0  0  0  0  0  2  0  0  0  0  0  0
  185.6650  178.0340  144.2050 N   0  0  0  0  0  0  0  0  0  0  0  0
  187.9610  177.1580  144.3550 C   0  0  0  0  0  3  0  0  0  0  0  0
  189.8990  177.6080  139.7200 C   0  0  0  0  0  3  0  0  0  0  0  0
  187.1540  177.9920  142.2150 C   0  0  0  0  0  0  0  0  0  0  0  0
  190.6570  176.7790  141.8650 C   0  0  0  0  0  3  0  0  0  0  0  0
  189.4180  177.0960  142.4290 C   0  0  0  0  0  0  0  0  0  0  0  0
  189.1910  176.8420  143.7810 C   0  0  0  0  0  3  0  0  0  0  0  0
  186.0820  178.6590  141.3920 C   0  0  0  0  0  2  0  0  0  0  0  0
  184.6860  178.2390  141.8490 C   0  0  2  0  0  3  0  0  0  0  0  0
  188.4020  177.6780  141.6350 C   0  0  0  0  0  0  0  0  0  0  0  0
  183.7900  179.6800  143.8710 C   0  0  0  0  0  2  0  0  0  0  0  0
  190.8970  177.0340  140.5120 C   0  0  0  0  0  3  0  0  0  0  0  0
  188.6590  177.9290  140.2770 C   0  0  0  0  0  3  0  0  0  0  0  0
  181.2500  178.2810  140.0250 C   0  0  1  0  0  3  0  0  0  0  0  0
  181.3510  180.8290  137.6400 C   0  0  0  0  0  1  0  0  0  0  0  0
  180.3530  178.0700  141.0590 F   0  0  0  0  0  0  0  0  0  0  0  0
  183.4140  180.1920  138.8320 C   0  0  0  0  0  3  0  0  0  0  0  0
  183.5630  178.8280  140.9710 C   0  0  1  0  0  3  0  0  0  0  0  0
  181.2660  179.6540  139.7130 O   0  0  0  0  0  0  0  0  0  0  0  0
  184.1120  179.7360  139.8860 C   0  0  0  0  0  3  0  0  0  0  0  0
  182.6440  177.7330  140.4050 C   0  0  1  0  0  3  0  0  0  0  0  0
  182.5130  176.6670  141.2810 F   0  0  0  0  0  0  0  0  0  0  0  0
  181.9990  179.7870  138.5290 C   0  0  1  0  0  3  0  0  0  0  0  0
  185.4580  177.7150  145.5140 O   0  0  0  0  0  0  0  0  0  0  0  0
  186.2710  178.5850  146.2560 C   0  0  1  0  0  3  0  0  0  0  0  0
  185.5300  179.6980  146.6560 O   0  0  0  0  0  1  0  0  0  0  0  0
  186.8520  177.8740  147.4730 C   0  0  0  0  0  2  0  0  0  0  0  0
  189.2450  177.7480  147.9620 C   0  0  0  0  0  2  0  0  0  0  0  0
  188.1420  178.4870  147.9120 C   0  0  0  0  0  3  0  0  0  0  0  0
  1 14  1  0  0  0  0
  1  3  1  0  0  0  0
  1  4  1  0  0  0  0
  2  4  1  0  0  0  0
  2  5  1  0  0  0  0
  4 27  1  0  0  0  0
  6 16  2  0  0  0  0
  6 15  1  0  0  0  0
  7  2  2  0  0  0  0
  8  9  1  0  0  0  0
  9 10  1  0  0  0  0
 10  5  2  0  0  0  0
 11  7  1  0  0  0  0
 12 11  1  6  0  0  0
 12  1  1  0  0  0  0
 13  7  1  0  0  0  0
 13  9  2  0  0  0  0
 14  3  1  0  0  0  0
 15  8  2  0  0  0  0
 16 13  1  0  0  0  0
 17 24  1  0  0  0  0
 17 19  1  1  0  0  0
 20 23  2  0  0  0  0
 21 23  1  6  0  0  0
 21 12  1  0  0  0  0
 22 17  1  0  0  0  0
 24 21  1  0  0  0  0
 24 25  1  1  0  0  0
 26 18  1  6  0  0  0
 26 20  1  0  0  0  0
 26 22  1  0  0  0  0
 27 28  1  0  0  0  0
 28 29  1  1  0  0  0
 28 30  1  0  0  0  0
 30 32  1  0  0  0  0
 32 31  2  0  0  0  0
M  END
>  <MODEL>
1

>  <REMARK>
 VINA RESULT:      -8.4      0.000      0.000
  Name = 
  5 active torsions:
  status: ('A' for Active; 'I' for Inactive)
    1  A    between atoms: N_5  and  O_14
    2  A    between atoms: C_13  and  C_18
    3  A    between atoms: C_13  and  C_29
    4  A    between atoms: O_14  and  C_18
    5  A    between atoms: C_16  and  C_27
                            x       y       z     vdW  Elec       q    Type
                         _______ _______ _______ _____ _____    ______ ____

>  <TORSDO>
F 5

$$$$
=
 OpenBabel10272413103D

 32 36  0  0  1  0  0  0  0  0999 V2000
  189.6640  177.7940  143.0710 C   0  0  0  0  0  0  0  0  0  0  0  0
  187.5890  178.1480  144.4460 C   0  0  0  0  0  0  0  0  0  0  0  0
  191.1530  178.0680  143.0480 C   0  0  0  0  0  2  0  0  0  0  0  0
  189.0160  177.9400  144.3820 N   0  0  0  0  0  0  0  0  0  0  0  0
  186.9850  178.4620  145.6720 C   0  0  0  0  0  3  0  0  0  0  0  0
  183.2050  178.4540  142.3330 C   0  0  0  0  0  3  0  0  0  0  0  0
  186.7930  178.0770  143.2760 C   0  0  0  0  0  0  0  0  0  0  0  0
  183.4430  178.8400  144.7110 C   0  0  0  0  0  3  0  0  0  0  0  0
  184.8190  178.6140  144.6140 C   0  0  0  0  0  0  0  0  0  0  0  0
  185.6130  178.6910  145.7570 C   0  0  0  0  0  3  0  0  0  0  0  0
  187.4180  177.6940  141.9600 C   0  0  0  0  0  2  0  0  0  0  0  0
  188.8460  178.2260  141.8440 C   0  0  2  0  0  3  0  0  0  0  0  0
  185.4030  178.3020  143.3630 C   0  0  0  0  0  0  0  0  0  0  0  0
  190.6300  176.6330  142.9600 C   0  0  0  0  0  2  0  0  0  0  0  0
  182.6380  178.7610  143.5720 C   0  0  0  0  0  3  0  0  0  0  0  0
  184.5790  178.2250  142.2280 C   0  0  0  0  0  3  0  0  0  0  0  0
  189.1230  178.2860  137.9640 C   0  0  1  0  0  3  0  0  0  0  0  0
  191.4710  175.8740  137.0370 C   0  0  0  0  0  1  0  0  0  0  0  0
  189.0830  179.6400  137.6760 F   0  0  0  0  0  0  0  0  0  0  0  0
  190.7040  175.9920  139.3770 C   0  0  0  0  0  3  0  0  0  0  0  0
  189.4870  177.9350  140.4720 C   0  0  1  0  0  3  0  0  0  0  0  0
  190.4620  177.8510  137.9060 O   0  0  0  0  0  0  0  0  0  0  0  0
  190.2530  176.6250  140.4730 C   0  0  0  0  0  3  0  0  0  0  0  0
  188.4590  178.0080  139.3310 C   0  0  1  0  0  3  0  0  0  0  0  0
  187.4770  178.9550  139.5830 F   0  0  0  0  0  0  0  0  0  0  0  0
  190.4320  176.4540  137.9740 C   0  0  1  0  0  3  0  0  0  0  0  0
  189.7690  178.0840  145.5080 O   0  0  0  0  0  0  0  0  0  0  0  0
  189.9640  176.7880  146.0090 C   0  0  1  0  0  3  0  0  0  0  0  0
  191.3310  176.5220  146.1110 O   0  0  0  0  0  1  0  0  0  0  0  0
  189.2940  176.6280  147.3700 C   0  0  0  0  0  2  0  0  0  0  0  0
  188.2760  178.2100  148.9330 C   0  0  0  0  0  2  0  0  0  0  0  0
  189.3010  177.9050  148.1450 C   0  0  0  0  0  3  0  0  0  0  0  0
  1  4  1  0  0  0  0
  2  5  1  0  0  0  0
  3  1  1  0  0  0  0
  4  2  1  0  0  0  0
  4 27  1  0  0  0  0
  5 10  2  0  0  0  0
  6 15  1  0  0  0  0
  7 13  1  0  0  0  0
  7  2  2  0  0  0  0
  9  8  1  0  0  0  0
  9 10  1  0  0  0  0
 11  7  1  0  0  0  0
 12 11  1  6  0  0  0
 12  1  1  0  0  0  0
 13  9  2  0  0  0  0
 14  3  1  0  0  0  0
 14  1  1  0  0  0  0
 15  8  2  0  0  0  0
 16  6  2  0  0  0  0
 16 13  1  0  0  0  0
 17 19  1  1  0  0  0
 17 24  1  0  0  0  0
 20 23  2  0  0  0  0
 21 23  1  1  0  0  0
 21 12  1  0  0  0  0
 22 17  1  0  0  0  0
 22 26  1  0  0  0  0
 24 25  1  1  0  0  0
 24 21  1  0  0  0  0
 26 18  1  6  0  0  0
 26 20  1  0  0  0  0
 27 28  1  0  0  0  0
 28 29  1  1  0  0  0
 28 30  1  0  0  0  0
 30 32  1  0  0  0  0
 32 31  2  0  0  0  0
M  END
>  <MODEL>
2

>  <REMARK>
 VINA RESULT:      -8.1      3.246      6.216
  Name = 
  5 active torsions:
  status: ('A' for Active; 'I' for Inactive)
    1  A    between atoms: N_5  and  O_14
    2  A    between atoms: C_13  and  C_18
    3  A    between atoms: C_13  and  C_29
    4  A    between atoms: O_14  and  C_18
    5  A    between atoms: C_16  and  C_27
                            x       y       z     vdW  Elec       q    Type
                         _______ _______ _______ _____ _____    ______ ____

>  <TORSDO>
F 5

$$$$
=
 OpenBabel10272413103D

 32 36  0  0  1  0  0  0  0  0999 V2000
  189.7100  176.4190  143.6040 C   0  0  0  0  0  0  0  0  0  0  0  0
  187.6710  177.1820  144.8640 C   0  0  0  0  0  0  0  0  0  0  0  0
  191.2050  176.2240  143.7400 C   0  0  0  0  0  2  0  0  0  0  0  0
  188.9740  176.5590  144.8690 N   0  0  0  0  0  0  0  0  0  0  0  0
  187.0380  177.4790  146.0790 C   0  0  0  0  0  3  0  0  0  0  0  0
  183.8610  179.1260  142.5230 C   0  0  0  0  0  3  0  0  0  0  0  0
  187.0410  177.5330  143.6450 C   0  0  0  0  0  0  0  0  0  0  0  0
  183.9040  179.0620  144.9430 C   0  0  0  0  0  3  0  0  0  0  0  0
  185.1570  178.4420  144.9080 C   0  0  0  0  0  0  0  0  0  0  0  0
  185.7900  178.1020  146.1020 C   0  0  0  0  0  3  0  0  0  0  0  0
  187.6870  177.1780  142.3300 C   0  0  0  0  0  2  0  0  0  0  0  0
  189.2100  177.2580  142.4170 C   0  0  2  0  0  3  0  0  0  0  0  0
  185.7750  178.1560  143.6680 C   0  0  0  0  0  0  0  0  0  0  0  0
  190.3050  175.0490  143.3580 C   0  0  0  0  0  2  0  0  0  0  0  0
  183.2580  179.4040  143.7530 C   0  0  0  0  0  3  0  0  0  0  0  0
  185.1120  178.5060  142.4800 C   0  0  0  0  0  3  0  0  0  0  0  0
  192.0800  177.4440  139.7970 C   0  0  1  0  0  3  0  0  0  0  0  0
  190.7250  176.6120  136.6880 C   0  0  0  0  0  1  0  0  0  0  0  0
  193.1490  176.8850  140.4750 F   0  0  0  0  0  0  0  0  0  0  0  0
  189.2280  176.9550  138.6180 C   0  0  0  0  0  3  0  0  0  0  0  0
  189.9040  176.9930  141.0670 C   0  0  1  0  0  3  0  0  0  0  0  0
  191.5430  176.4780  138.9230 O   0  0  0  0  0  0  0  0  0  0  0  0
  188.9100  176.9290  139.9230 C   0  0  0  0  0  3  0  0  0  0  0  0
  191.0390  177.9950  140.7970 C   0  0  1  0  0  3  0  0  0  0  0  0
  191.6680  178.3880  141.9690 F   0  0  0  0  0  0  0  0  0  0  0  0
  190.6270  177.1450  138.1030 C   0  0  1  0  0  3  0  0  0  0  0  0
  189.5910  176.2960  146.0550 O   0  0  0  0  0  0  0  0  0  0  0  0
  190.2480  177.4810  146.4180 C   0  0  1  0  0  3  0  0  0  0  0  0
  189.6680  178.0070  147.5740 O   0  0  0  0  0  1  0  0  0  0  0  0
  191.7350  177.2260  146.6450 C   0  0  0  0  0  2  0  0  0  0  0  0
  192.7590  175.7290  148.2850 C   0  0  0  0  0  2  0  0  0  0  0  0
  191.9840  175.8680  147.2150 C   0  0  0  0  0  3  0  0  0  0  0  0
  1  3  1  0  0  0  0
  1  4  1  0  0  0  0
  2  4  1  0  0  0  0
  2  5  1  0  0  0  0
  4 27  1  0  0  0  0
  5 10  2  0  0  0  0
  6 15  1  0  0  0  0
  7 13  1  0  0  0  0
  7  2  2  0  0  0  0
  9  8  1  0  0  0  0
  9 10  1  0  0  0  0
 11  7  1  0  0  0  0
 12 11  1  6  0  0  0
 12  1  1  0  0  0  0
 13  9  2  0  0  0  0
 14  1  1  0  0  0  0
 14  3  1  0  0  0  0
 15  8  2  0  0  0  0
 16  6  2  0  0  0  0
 16 13  1  0  0  0  0
 17 19  1  1  0  0  0
 17 24  1  0  0  0  0
 20 23  2  0  0  0  0
 21 23  1  6  0  0  0
 21 12  1  0  0  0  0
 22 17  1  0  0  0  0
 24 21  1  0  0  0  0
 24 25  1  1  0  0  0
 26 18  1  6  0  0  0
 26 20  1  0  0  0  0
 26 22  1  0  0  0  0
 27 28  1  0  0  0  0
 28 30  1  0  0  0  0
 28 29  1  1  0  0  0
 30 32  1  0  0  0  0
 32 31  2  0  0  0  0
M  END
>  <MODEL>
3

>  <REMARK>
 VINA RESULT:      -8.0      3.997      6.742
  Name = 
  5 active torsions:
  status: ('A' for Active; 'I' for Inactive)
    1  A    between atoms: N_5  and  O_14
    2  A    between atoms: C_13  and  C_18
    3  A    between atoms: C_13  and  C_29
    4  A    between atoms: O_14  and  C_18
    5  A    between atoms: C_16  and  C_27
                            x       y       z     vdW  Elec       q    Type
                         _______ _______ _______ _____ _____    ______ ____

>  <TORSDO>
F 5

$$$$
=
 OpenBabel10272413103D

 32 36  0  0  1  0  0  0  0  0999 V2000
  186.9200  178.5730  141.4380 C   0  0  0  0  0  0  0  0  0  0  0  0
  184.5150  178.8190  140.7420 C   0  0  0  0  0  0  0  0  0  0  0  0
  188.2740  178.1120  140.9430 C   0  0  0  0  0  2  0  0  0  0  0  0
  185.9160  178.8200  140.3920 N   0  0  0  0  0  0  0  0  0  0  0  0
  183.5460  178.8780  139.7310 C   0  0  0  0  0  3  0  0  0  0  0  0
  180.9210  178.5990  144.0290 C   0  0  0  0  0  3  0  0  0  0  0  0
  184.1060  178.7190  142.0940 C   0  0  0  0  0  0  0  0  0  0  0  0
  180.4070  178.7480  141.6680 C   0  0  0  0  0  3  0  0  0  0  0  0
  181.7730  178.7660  141.3680 C   0  0  0  0  0  0  0  0  0  0  0  0
  182.1860  178.8540  140.0400 C   0  0  0  0  0  3  0  0  0  0  0  0
  185.1360  178.7020  143.1950 C   0  0  0  0  0  2  0  0  0  0  0  0
  186.4080  177.9780  142.7590 C   0  0  2  0  0  3  0  0  0  0  0  0
  182.7310  178.7020  142.4080 C   0  0  0  0  0  0  0  0  0  0  0  0
  188.0830  179.5430  141.4500 C   0  0  0  0  0  2  0  0  0  0  0  0
  179.9830  178.6640  142.9950 C   0  0  0  0  0  3  0  0  0  0  0  0
  182.2870  178.6190  143.7380 C   0  0  0  0  0  3  0  0  0  0  0  0
  189.5160  176.5230  144.5920 C   0  0  1  0  0  3  0  0  0  0  0  0
  189.3640  177.5690  147.9200 C   0  0  0  0  0  1  0  0  0  0  0  0
  190.5250  176.6850  143.6570 F   0  0  0  0  0  0  0  0  0  0  0  0
  187.4410  177.9650  146.4280 C   0  0  0  0  0  3  0  0  0  0  0  0
  187.4490  177.8590  143.8900 C   0  0  1  0  0  3  0  0  0  0  0  0
  189.6170  177.5510  145.5490 O   0  0  0  0  0  0  0  0  0  0  0  0
  186.8580  178.2080  145.2430 C   0  0  0  0  0  3  0  0  0  0  0  0
  188.1380  176.4840  143.8930 C   0  0  1  0  0  3  0  0  0  0  0  0
  188.2710  175.9720  142.6110 F   0  0  0  0  0  0  0  0  0  0  0  0
  188.7360  177.2210  146.5860 C   0  0  1  0  0  3  0  0  0  0  0  0
  186.2830  178.8460  139.0810 O   0  0  0  0  0  0  0  0  0  0  0  0
  186.2760  177.5090  138.6520 C   0  0  1  0  0  3  0  0  0  0  0  0
  185.1590  177.2790  137.8470 O   0  0  0  0  0  1  0  0  0  0  0  0
  187.5540  177.1800  137.8880 C   0  0  0  0  0  2  0  0  0  0  0  0
  189.0210  179.0570  137.3340 C   0  0  0  0  0  2  0  0  0  0  0  0
  187.9760  178.3060  137.0020 C   0  0  0  0  0  3  0  0  0  0  0  0
  1 14  1  0  0  0  0
  1 12  1  0  0  0  0
  2  7  1  0  0  0  0
  3  1  1  0  0  0  0
  3 14  1  0  0  0  0
  4  2  1  0  0  0  0
  4  1  1  0  0  0  0
  5 10  1  0  0  0  0
  5  2  2  0  0  0  0
  7 13  2  0  0  0  0
  7 11  1  0  0  0  0
  8 15  2  0  0  0  0
  9  8  1  0  0  0  0
  9 13  1  0  0  0  0
 10  9  2  0  0  0  0
 12 11  1  1  0  0  0
 12 21  1  0  0  0  0
 13 16  1  0  0  0  0
 15  6  1  0  0  0  0
 16  6  2  0  0  0  0
 17 19  1  6  0  0  0
 17 22  1  0  0  0  0
 20 26  1  0  0  0  0
 21 24  1  0  0  0  0
 21 23  1  1  0  0  0
 22 26  1  0  0  0  0
 23 20  2  0  0  0  0
 24 25  1  6  0  0  0
 24 17  1  0  0  0  0
 26 18  1  1  0  0  0
 27  4  1  0  0  0  0
 28 29  1  6  0  0  0
 28 27  1  0  0  0  0
 30 28  1  0  0  0  0
 32 31  2  0  0  0  0
 32 30  1  0  0  0  0
M  END
>  <MODEL>
4

>  <REMARK>
 VINA RESULT:      -7.7      2.889      8.020
  Name = 
  5 active torsions:
  status: ('A' for Active; 'I' for Inactive)
    1  A    between atoms: N_5  and  O_14
    2  A    between atoms: C_13  and  C_18
    3  A    between atoms: C_13  and  C_29
    4  A    between atoms: O_14  and  C_18
    5  A    between atoms: C_16  and  C_27
                            x       y       z     vdW  Elec       q    Type
                         _______ _______ _______ _____ _____    ______ ____

>  <TORSDO>
F 5

$$$$
=
 OpenBabel10272413103D

 32 36  0  0  1  0  0  0  0  0999 V2000
  188.0040  178.0390  138.1330 C   0  0  0  0  0  0  0  0  0  0  0  0
  186.9270  178.3780  140.3810 C   0  0  0  0  0  0  0  0  0  0  0  0
  187.6870  177.8500  136.6640 C   0  0  0  0  0  2  0  0  0  0  0  0
  186.9060  178.5750  138.9510 N   0  0  0  0  0  0  0  0  0  0  0  0
  185.8080  178.7280  141.1490 C   0  0  0  0  0  3  0  0  0  0  0  0
  189.1130  176.8460  144.4610 C   0  0  0  0  0  3  0  0  0  0  0  0
  188.0530  177.7970  141.0150 C   0  0  0  0  0  0  0  0  0  0  0  0
  186.8770  177.7700  144.5480 C   0  0  0  0  0  3  0  0  0  0  0  0
  186.9000  177.9640  143.1630 C   0  0  0  0  0  0  0  0  0  0  0  0
  185.7930  178.5260  142.5280 C   0  0  0  0  0  3  0  0  0  0  0  0
  189.2820  177.4580  140.2110 C   0  0  0  0  0  2  0  0  0  0  0  0
  188.9170  176.9980  138.8000 C   0  0  2  0  0  3  0  0  0  0  0  0
  188.0420  177.5980  142.4120 C   0  0  0  0  0  0  0  0  0  0  0  0
  188.5790  179.0060  137.1200 C   0  0  0  0  0  2  0  0  0  0  0  0
  187.9810  177.2110  145.1950 C   0  0  0  0  0  3  0  0  0  0  0  0
  189.1440  177.0380  143.0780 C   0  0  0  0  0  3  0  0  0  0  0  0
  190.8910  174.8080  136.2630 C   0  0  1  0  0  3  0  0  0  0  0  0
  194.2930  175.4040  136.7770 C   0  0  0  0  0  1  0  0  0  0  0  0
  190.1370  174.9240  135.1080 F   0  0  0  0  0  0  0  0  0  0  0  0
  192.6420  176.3150  138.3660 C   0  0  0  0  0  3  0  0  0  0  0  0
  190.1420  176.5540  137.9770 C   0  0  1  0  0  3  0  0  0  0  0  0
  192.0040  175.6660  136.1630 O   0  0  0  0  0  0  0  0  0  0  0  0
  191.4430  176.8110  138.7150 C   0  0  0  0  0  3  0  0  0  0  0  0
  190.0190  175.0960  137.5050 C   0  0  1  0  0  3  0  0  0  0  0  0
  188.7010  174.7480  137.2500 F   0  0  0  0  0  0  0  0  0  0  0  0
  192.8490  175.3500  137.2330 C   0  0  1  0  0  3  0  0  0  0  0  0
  185.7850  179.0700  138.3550 O   0  0  0  0  0  0  0  0  0  0  0  0
  184.8030  178.0780  138.4980 C   0  0  1  0  0  3  0  0  0  0  0  0
  183.6060  178.6560  138.9230 O   0  0  0  0  0  1  0  0  0  0  0  0
  184.5910  177.3370  137.1820 C   0  0  0  0  0  2  0  0  0  0  0  0
  185.3500  175.0190  136.9980 C   0  0  0  0  0  2  0  0  0  0  0  0
  184.4090  175.8690  137.3940 C   0  0  0  0  0  3  0  0  0  0  0  0
  1 12  1  0  0  0  0
  1  4  1  0  0  0  0
  2  7  2  0  0  0  0
  2  5  1  0  0  0  0
  3 14  1  0  0  0  0
  3  1  1  0  0  0  0
  4  2  1  0  0  0  0
  5 10  2  0  0  0  0
  6 15  1  0  0  0  0
  7 13  1  0  0  0  0
  8 15  2  0  0  0  0
  9  8  1  0  0  0  0
 10  9  1  0  0  0  0
 11  7  1  0  0  0  0
 12 11  1  1  0  0  0
 13 16  1  0  0  0  0
 13  9  2  0  0  0  0
 14  1  1  0  0  0  0
 16  6  2  0  0  0  0
 17 19  1  6  0  0  0
 17 24  1  0  0  0  0
 20 23  2  0  0  0  0
 21 23  1  1  0  0  0
 21 12  1  0  0  0  0
 22 17  1  0  0  0  0
 22 26  1  0  0  0  0
 24 25  1  6  0  0  0
 24 21  1  0  0  0  0
 26 18  1  6  0  0  0
 26 20  1  0  0  0  0
 27 28  1  0  0  0  0
 27  4  1  0  0  0  0
 28 29  1  6  0  0  0
 30 32  1  0  0  0  0
 30 28  1  0  0  0  0
 31 32  2  0  0  0  0
M  END
>  <MODEL>
5

>  <REMARK>
 VINA RESULT:      -7.5      4.122      8.004
  Name = 
  5 active torsions:
  status: ('A' for Active; 'I' for Inactive)
    1  A    between atoms: N_5  and  O_14
    2  A    between atoms: C_13  and  C_18
    3  A    between atoms: C_13  and  C_29
    4  A    between atoms: O_14  and  C_18
    5  A    between atoms: C_16  and  C_27
                            x       y       z     vdW  Elec       q    Type
                         _______ _______ _______ _____ _____    ______ ____

>  <TORSDO>
F 5

$$$$
=
 OpenBabel10272413103D

 32 36  0  0  1  0  0  0  0  0999 V2000
  188.2820  177.7210  140.6140 C   0  0  0  0  0  0  0  0  0  0  0  0
  188.0190  177.6150  143.1130 C   0  0  0  0  0  0  0  0  0  0  0  0
  187.5330  177.5080  139.3160 C   0  0  0  0  0  2  0  0  0  0  0  0
  187.4420  177.8580  141.8130 N   0  0  0  0  0  0  0  0  0  0  0  0
  187.1930  177.5700  144.2450 C   0  0  0  0  0  3  0  0  0  0  0  0
  191.8350  176.6570  145.9950 C   0  0  0  0  0  3  0  0  0  0  0  0
  189.4090  177.3820  143.2560 C   0  0  0  0  0  0  0  0  0  0  0  0
  189.6110  176.8420  146.9350 C   0  0  0  0  0  3  0  0  0  0  0  0
  189.0900  177.0930  145.6620 C   0  0  0  0  0  0  0  0  0  0  0  0
  187.7220  177.3140  145.5090 C   0  0  0  0  0  3  0  0  0  0  0  0
  190.3180  177.4740  142.0570 C   0  0  0  0  0  2  0  0  0  0  0  0
  189.6200  176.9860  140.7890 C   0  0  2  0  0  3  0  0  0  0  0  0
  189.9470  177.1300  144.5360 C   0  0  0  0  0  0  0  0  0  0  0  0
  188.1750  178.8620  139.6240 C   0  0  0  0  0  2  0  0  0  0  0  0
  190.9810  176.6240  147.1000 C   0  0  0  0  0  3  0  0  0  0  0  0
  191.3220  176.9090  144.7200 C   0  0  0  0  0  3  0  0  0  0  0  0
  190.7880  175.9520  137.2260 C   0  0  1  0  0  3  0  0  0  0  0  0
  194.1650  176.7940  136.9370 C   0  0  0  0  0  1  0  0  0  0  0  0
  189.7140  176.3180  136.4340 F   0  0  0  0  0  0  0  0  0  0  0  0
  193.0520  176.9530  139.1320 C   0  0  0  0  0  3  0  0  0  0  0  0
  190.5470  176.9760  139.5580 C   0  0  1  0  0  3  0  0  0  0  0  0
  191.7920  176.9340  137.1090 O   0  0  0  0  0  0  0  0  0  0  0  0
  192.0030  177.1600  139.9450 C   0  0  0  0  0  3  0  0  0  0  0  0
  190.3300  175.7300  138.6840 C   0  0  1  0  0  3  0  0  0  0  0  0
  189.0080  175.3100  138.7070 F   0  0  0  0  0  0  0  0  0  0  0  0
  192.9320  176.4170  137.7330 C   0  0  1  0  0  3  0  0  0  0  0  0
  186.0930  178.0080  141.6920 O   0  0  0  0  0  0  0  0  0  0  0  0
  185.8540  179.3910  141.7310 C   0  0  1  0  0  3  0  0  0  0  0  0
  185.1230  179.7750  140.6060 O   0  0  0  0  0  1  0  0  0  0  0  0
  185.1050  179.7730  143.0030 C   0  0  0  0  0  2  0  0  0  0  0  0
  183.4520  178.6440  144.4090 C   0  0  0  0  0  2  0  0  0  0  0  0
  183.8680  178.9540  143.1860 C   0  0  0  0  0  3  0  0  0  0  0  0
  1 12  1  0  0  0  0
  1  4  1  0  0  0  0
  2  7  2  0  0  0  0
  2  5  1  0  0  0  0
  3 14  1  0  0  0  0
  3  1  1  0  0  0  0
  4  2  1  0  0  0  0
  5 10  2  0  0  0  0
  6 15  1  0  0  0  0
  7 13  1  0  0  0  0
  8 15  2  0  0  0  0
  9  8  1  0  0  0  0
 10  9  1  0  0  0  0
 11  7  1  0  0  0  0
 12 11  1  1  0  0  0
 13 16  1  0  0  0  0
 13  9  2  0  0  0  0
 14  1  1  0  0  0  0
 16  6  2  0  0  0  0
 17 19  1  6  0  0  0
 17 24  1  0  0  0  0
 20 23  2  0  0  0  0
 21 23  1  1  0  0  0
 21 12  1  0  0  0  0
 22 17  1  0  0  0  0
 22 26  1  0  0  0  0
 24 25  1  6  0  0  0
 24 21  1  0  0  0  0
 26 18  1  6  0  0  0
 26 20  1  0  0  0  0
 27 28  1  0  0  0  0
 27  4  1  0  0  0  0
 28 29  1  6  0  0  0
 28 30  1  0  0  0  0
 30 32  1  0  0  0  0
 32 31  2  0  0  0  0
M  END
>  <MODEL>
6

>  <REMARK>
 VINA RESULT:      -7.4      3.443      6.892
  Name = 
  5 active torsions:
  status: ('A' for Active; 'I' for Inactive)
    1  A    between atoms: N_5  and  O_14
    2  A    between atoms: C_13  and  C_18
    3  A    between atoms: C_13  and  C_29
    4  A    between atoms: O_14  and  C_18
    5  A    between atoms: C_16  and  C_27
                            x       y       z     vdW  Elec       q    Type
                         _______ _______ _______ _____ _____    ______ ____

>  <TORSDO>
F 5

$$$$
=
 OpenBabel10272413103D

 32 36  0  0  1  0  0  0  0  0999 V2000
  189.1680  177.8240  142.7020 C   0  0  0  0  0  0  0  0  0  0  0  0
  186.9650  178.4950  141.6930 C   0  0  0  0  0  0  0  0  0  0  0  0
  190.5140  177.2180  142.3590 C   0  0  0  0  0  2  0  0  0  0  0  0
  188.3910  178.3230  141.5570 N   0  0  0  0  0  0  0  0  0  0  0  0
  186.1900  178.8000  140.5640 C   0  0  0  0  0  3  0  0  0  0  0  0
  182.8820  178.4820  144.3580 C   0  0  0  0  0  3  0  0  0  0  0  0
  186.3300  178.3200  142.9470 C   0  0  0  0  0  0  0  0  0  0  0  0
  182.7870  178.9440  141.9840 C   0  0  0  0  0  3  0  0  0  0  0  0
  184.1740  178.7880  141.8950 C   0  0  0  0  0  0  0  0  0  0  0  0
  184.8070  178.9480  140.6630 C   0  0  0  0  0  3  0  0  0  0  0  0
  187.1530  178.0390  144.1780 C   0  0  0  0  0  2  0  0  0  0  0  0
  188.3740  177.1810  143.8480 C   0  0  2  0  0  3  0  0  0  0  0  0
  184.9310  178.4770  143.0490 C   0  0  0  0  0  0  0  0  0  0  0  0
  190.4310  178.6020  143.0050 C   0  0  0  0  0  2  0  0  0  0  0  0
  182.1430  178.7900  143.2130 C   0  0  0  0  0  3  0  0  0  0  0  0
  184.2680  178.3260  144.2780 C   0  0  0  0  0  3  0  0  0  0  0  0
  189.4480  177.3380  147.5840 C   0  0  1  0  0  3  0  0  0  0  0  0
  192.5670  175.7910  147.8500 C   0  0  0  0  0  1  0  0  0  0  0  0
  188.2670  177.0700  148.2530 F   0  0  0  0  0  0  0  0  0  0  0  0
  191.6130  176.2340  145.6200 C   0  0  0  0  0  3  0  0  0  0  0  0
  189.1900  176.7930  145.0970 C   0  0  1  0  0  3  0  0  0  0  0  0
  190.2310  176.1680  147.5610 O   0  0  0  0  0  0  0  0  0  0  0  0
  190.6080  176.3850  144.7420 C   0  0  0  0  0  3  0  0  0  0  0  0
  189.1520  177.8920  146.1720 C   0  0  1  0  0  3  0  0  0  0  0  0
  187.9420  178.5700  146.1720 F   0  0  0  0  0  0  0  0  0  0  0  0
  191.4940  176.5400  147.0870 C   0  0  1  0  0  3  0  0  0  0  0  0
  188.9690  178.4260  140.3280 O   0  0  0  0  0  0  0  0  0  0  0  0
  188.8030  177.1730  139.7180 C   0  0  1  0  0  3  0  0  0  0  0  0
  188.0610  177.3140  138.5440 O   0  0  0  0  0  1  0  0  0  0  0  0
  190.1560  176.5380  139.4120 C   0  0  0  0  0  2  0  0  0  0  0  0
  191.3940  176.5350  137.3030 C   0  0  0  0  0  2  0  0  0  0  0  0
  190.2930  176.1950  137.9640 C   0  0  0  0  0  3  0  0  0  0  0  0
  1 14  1  0  0  0  0
  1 12  1  0  0  0  0
  2  7  1  0  0  0  0
  3  1  1  0  0  0  0
  3 14  1  0  0  0  0
  4  2  1  0  0  0  0
  4  1  1  0  0  0  0
  5 10  1  0  0  0  0
  5  2  2  0  0  0  0
  7 13  2  0  0  0  0
  7 11  1  0  0  0  0
  8 15  2  0  0  0  0
  9  8  1  0  0  0  0
  9 13  1  0  0  0  0
 10  9  2  0  0  0  0
 12 11  1  1  0  0  0
 12 21  1  0  0  0  0
 13 16  1  0  0  0  0
 15  6  1  0  0  0  0
 16  6  2  0  0  0  0
 17 19  1  6  0  0  0
 20 26  1  0  0  0  0
 21 23  1  6  0  0  0
 21 24  1  0  0  0  0
 22 17  1  0  0  0  0
 23 20  2  0  0  0  0
 24 25  1  1  0  0  0
 24 17  1  0  0  0  0
 26 22  1  0  0  0  0
 26 18  1  1  0  0  0
 27  4  1  0  0  0  0
 28 29  1  6  0  0  0
 28 27  1  0  0  0  0
 30 28  1  0  0  0  0
 31 32  2  0  0  0  0
 32 30  1  0  0  0  0
M  END
>  <MODEL>
7

>  <REMARK>
 VINA RESULT:      -6.9      3.357      8.337
  Name = 
  5 active torsions:
  status: ('A' for Active; 'I' for Inactive)
    1  A    between atoms: N_5  and  O_14
    2  A    between atoms: C_13  and  C_18
    3  A    between atoms: C_13  and  C_29
    4  A    between atoms: O_14  and  C_18
    5  A    between atoms: C_16  and  C_27
                            x       y       z     vdW  Elec       q    Type
                         _______ _______ _______ _____ _____    ______ ____

>  <TORSDO>
F 5

$$$$
=
 OpenBabel10272413103D

 32 36  0  0  1  0  0  0  0  0999 V2000
  185.8990  178.6570  141.5690 C   0  0  0  0  0  0  0  0  0  0  0  0
  188.0340  177.9860  140.4220 C   0  0  0  0  0  0  0  0  0  0  0  0
  185.1240  178.4930  142.8600 C   0  0  0  0  0  2  0  0  0  0  0  0
  187.3230  178.2980  141.6390 N   0  0  0  0  0  0  0  0  0  0  0  0
  189.3380  177.4740  140.4900 C   0  0  0  0  0  3  0  0  0  0  0  0
  188.2690  177.6520  135.5640 C   0  0  0  0  0  3  0  0  0  0  0  0
  187.4160  178.1520  139.1590 C   0  0  0  0  0  0  0  0  0  0  0  0
  190.1540  176.9790  136.9250 C   0  0  0  0  0  3  0  0  0  0  0  0
  189.4420  177.3110  138.0820 C   0  0  0  0  0  0  0  0  0  0  0  0
  190.0370  177.1410  139.3310 C   0  0  0  0  0  3  0  0  0  0  0  0
  186.0330  178.7450  139.0670 C   0  0  0  0  0  2  0  0  0  0  0  0
  185.1680  178.3320  140.2580 C   0  0  2  0  0  3  0  0  0  0  0  0
  188.1260  177.8220  137.9850 C   0  0  0  0  0  0  0  0  0  0  0  0
  185.5100  179.8870  142.3630 C   0  0  0  0  0  2  0  0  0  0  0  0
  189.5680  177.1490  135.6690 C   0  0  0  0  0  3  0  0  0  0  0  0
  187.5520  177.9880  136.7140 C   0  0  0  0  0  3  0  0  0  0  0  0
  181.2890  178.0660  140.3660 C   0  0  1  0  0  3  0  0  0  0  0  0
  179.9930  180.8610  138.7230 C   0  0  0  0  0  1  0  0  0  0  0  0
  181.0500  177.6030  141.6480 F   0  0  0  0  0  0  0  0  0  0  0  0
  182.4150  180.4090  138.6330 C   0  0  0  0  0  3  0  0  0  0  0  0
  183.7170  178.8430  140.1520 C   0  0  1  0  0  3  0  0  0  0  0  0
  181.0450  179.4530  140.3330 O   0  0  0  0  0  0  0  0  0  0  0  0
  183.5790  179.9440  139.1180 C   0  0  0  0  0  3  0  0  0  0  0  0
  182.7210  177.6950  139.9190 C   0  0  1  0  0  3  0  0  0  0  0  0
  183.1260  176.5260  140.5450 F   0  0  0  0  0  0  0  0  0  0  0  0
  181.0730  179.8320  138.9870 C   0  0  1  0  0  3  0  0  0  0  0  0
  187.9140  178.0620  142.8450 O   0  0  0  0  0  0  0  0  0  0  0  0
  187.3930  176.8400  143.2960 C   0  0  1  0  0  3  0  0  0  0  0  0
  188.3110  175.8170  143.0520 O   0  0  0  0  0  1  0  0  0  0  0  0
  187.0660  176.9090  144.7840 C   0  0  0  0  0  2  0  0  0  0  0  0
  188.9360  177.3860  146.2860 C   0  0  0  0  0  2  0  0  0  0  0  0
  187.9670  177.8560  145.5070 C   0  0  0  0  0  3  0  0  0  0  0  0
  1  4  1  0  0  0  0
  1 14  1  0  0  0  0
  1  3  1  0  0  0  0
  2  5  1  0  0  0  0
  2  4  1  0  0  0  0
  4 27  1  0  0  0  0
  6 15  2  0  0  0  0
  6 16  1  0  0  0  0
  7  2  2  0  0  0  0
  8  9  2  0  0  0  0
  9 10  1  0  0  0  0
 10  5  2  0  0  0  0
 11  7  1  0  0  0  0
 12 11  1  6  0  0  0
 12  1  1  0  0  0  0
 13  9  1  0  0  0  0
 13  7  1  0  0  0  0
 14  3  1  0  0  0  0
 15  8  1  0  0  0  0
 16 13  2  0  0  0  0
 17 19  1  1  0  0  0
 20 26  1  0  0  0  0
 20 23  2  0  0  0  0
 21 23  1  6  0  0  0
 21 12  1  0  0  0  0
 22 17  1  0  0  0  0
 24 21  1  0  0  0  0
 24 17  1  0  0  0  0
 24 25  1  1  0  0  0
 26 18  1  1  0  0  0
 26 22  1  0  0  0  0
 27 28  1  0  0  0  0
 28 29  1  1  0  0  0
 28 30  1  0  0  0  0
 30 32  1  0  0  0  0
 32 31  2  0  0  0  0
M  END
>  <MODEL>
8

>  <REMARK>
 VINA RESULT:      -6.8      2.081      3.045
  Name = 
  5 active torsions:
  status: ('A' for Active; 'I' for Inactive)
    1  A    between atoms: N_5  and  O_14
    2  A    between atoms: C_13  and  C_18
    3  A    between atoms: C_13  and  C_29
    4  A    between atoms: O_14  and  C_18
    5  A    between atoms: C_16  and  C_27
                            x       y       z     vdW  Elec       q    Type
                         _______ _______ _______ _____ _____    ______ ____

>  <TORSDO>
F 5

$$$$
=
 OpenBabel10272413103D

 32 36  0  0  1  0  0  0  0  0999 V2000
  187.5650  178.0270  141.2150 C   0  0  0  0  0  0  0  0  0  0  0  0
  185.5040  178.1960  139.7830 C   0  0  0  0  0  0  0  0  0  0  0  0
  188.9470  177.4110  141.2660 C   0  0  0  0  0  2  0  0  0  0  0  0
  186.9380  178.0610  139.8850 N   0  0  0  0  0  0  0  0  0  0  0  0
  184.8790  178.0540  138.5360 C   0  0  0  0  0  3  0  0  0  0  0  0
  181.1130  178.8900  141.7860 C   0  0  0  0  0  3  0  0  0  0  0  0
  184.7140  178.4310  140.9360 C   0  0  0  0  0  0  0  0  0  0  0  0
  181.3200  178.5010  139.4050 C   0  0  0  0  0  3  0  0  0  0  0  0
  182.7080  178.3960  139.5400 C   0  0  0  0  0  0  0  0  0  0  0  0
  183.4940  178.1550  138.4140 C   0  0  0  0  0  3  0  0  0  0  0  0
  185.3750  178.6320  142.2750 C   0  0  0  0  0  2  0  0  0  0  0  0
  186.6340  177.7780  142.4120 C   0  0  2  0  0  3  0  0  0  0  0  0
  183.3130  178.5400  140.8110 C   0  0  0  0  0  0  0  0  0  0  0  0
  188.7720  178.9270  141.3760 C   0  0  0  0  0  2  0  0  0  0  0  0
  180.5250  178.7470  140.5260 C   0  0  0  0  0  3  0  0  0  0  0  0
  182.4980  178.7880  141.9280 C   0  0  0  0  0  3  0  0  0  0  0  0
  189.0220  176.7580  145.3080 C   0  0  1  0  0  3  0  0  0  0  0  0
  187.9000  178.3460  148.2090 C   0  0  0  0  0  1  0  0  0  0  0  0
  190.2670  176.7930  144.7040 F   0  0  0  0  0  0  0  0  0  0  0  0
  186.5190  178.4200  146.1670 C   0  0  0  0  0  3  0  0  0  0  0  0
  187.2860  177.8860  143.8040 C   0  0  1  0  0  3  0  0  0  0  0  0
  188.8500  177.9360  146.0610 O   0  0  0  0  0  0  0  0  0  0  0  0
  186.3230  178.4400  144.8380 C   0  0  0  0  0  3  0  0  0  0  0  0
  187.9160  176.5560  144.2480 C   0  0  1  0  0  3  0  0  0  0  0  0
  188.4170  175.8390  143.1720 F   0  0  0  0  0  0  0  0  0  0  0  0
  187.6940  177.7560  146.8290 C   0  0  1  0  0  3  0  0  0  0  0  0
  187.6680  177.7650  138.7740 O   0  0  0  0  0  0  0  0  0  0  0  0
  187.7320  178.9510  138.0270 C   0  0  1  0  0  3  0  0  0  0  0  0
  188.9930  179.5310  138.1700 O   0  0  0  0  0  1  0  0  0  0  0  0
  187.4410  178.6790  136.5550 C   0  0  0  0  0  2  0  0  0  0  0  0
  186.7000  176.5010  135.7230 C   0  0  0  0  0  2  0  0  0  0  0  0
  187.6910  177.2500  136.1950 C   0  0  0  0  0  3  0  0  0  0  0  0
  1  3  1  0  0  0  0
  1 14  1  0  0  0  0
  1 12  1  0  0  0  0
  2  4  1  0  0  0  0
  2  7  1  0  0  0  0
  3 14  1  0  0  0  0
  4  1  1  0  0  0  0
  5  2  2  0  0  0  0
  6 16  2  0  0  0  0
  7 11  1  0  0  0  0
  8  9  1  0  0  0  0
  8 15  2  0  0  0  0
  9 13  1  0  0  0  0
 10  5  1  0  0  0  0
 10  9  2  0  0  0  0
 12 11  1  1  0  0  0
 12 21  1  0  0  0  0
 13  7  2  0  0  0  0
 13 16  1  0  0  0  0
 15  6  1  0  0  0  0
 17 19  1  6  0  0  0
 17 22  1  0  0  0  0
 20 26  1  0  0  0  0
 21 24  1  0  0  0  0
 21 23  1  1  0  0  0
 22 26  1  0  0  0  0
 23 20  2  0  0  0  0
 24 25  1  6  0  0  0
 24 17  1  0  0  0  0
 26 18  1  1  0  0  0
 27  4  1  0  0  0  0
 28 29  1  6  0  0  0
 28 27  1  0  0  0  0
 30 28  1  0  0  0  0
 31 32  2  0  0  0  0
 32 30  1  0  0  0  0
M  END
>  <MODEL>
9

>  <REMARK>
 VINA RESULT:      -6.8      3.308      8.012
  Name = 
  5 active torsions:
  status: ('A' for Active; 'I' for Inactive)
    1  A    between atoms: N_5  and  O_14
    2  A    between atoms: C_13  and  C_18
    3  A    between atoms: C_13  and  C_29
    4  A    between atoms: O_14  and  C_18
    5  A    between atoms: C_16  and  C_27
                            x       y       z     vdW  Elec       q    Type
                         _______ _______ _______ _____ _____    ______ ____

>  <TORSDO>
F 5

$$$$
