=
 OpenBabel10272400363D

 31 34  0  0  1  0  0  0  0  0999 V2000
  187.8320  177.1090  143.8270 C   0  0  2  0  0  3  0  0  0  0  0  0
  188.6330  177.2650  141.5590 C   0  0  2  0  0  3  0  0  0  0  0  0
  187.4500  178.2090  141.7040 C   0  0  0  0  0  2  0  0  0  0  0  0
  189.0440  176.8250  142.9640 C   0  0  2  0  0  3  0  0  0  0  0  0
  187.1160  178.2820  143.1890 C   0  0  1  0  0  3  0  0  0  0  0  0
  188.1830  177.3360  145.2670 C   0  0  0  0  0  0  0  0  0  0  0  0
  187.4660  177.9320  147.5070 C   0  0  0  0  0  3  0  0  0  0  0  0
  187.1700  177.7040  146.1600 C   0  0  0  0  0  3  0  0  0  0  0  0
  188.7780  177.7970  147.9620 C   0  0  0  0  0  3  0  0  0  0  0  0
  191.0720  177.3200  147.5270 F   0  0  0  0  0  0  0  0  0  0  0  0
  189.5020  177.2040  145.7300 C   0  0  0  0  0  3  0  0  0  0  0  0
  189.7970  177.4370  147.0770 C   0  0  0  0  0  0  0  0  0  0  0  0
  183.4420  178.2500  142.5230 C   0  0  0  0  0  2  0  0  0  0  0  0
  185.6070  178.2170  143.4570 C   0  0  2  0  0  3  0  0  0  0  0  0
  183.7320  179.2640  144.7660 C   0  0  0  0  0  3  0  0  0  0  0  0
  182.9090  178.9260  143.7630 C   0  0  0  0  0  3  0  0  0  0  0  0
  184.8330  178.6270  142.2840 N   0  0  0  0  0  2  0  0  0  0  0  0
  185.2270  179.0790  144.6680 C   0  0  0  0  0  2  0  0  0  0  0  0
  189.0770  178.7560  139.6470 C   0  0  0  0  0  1  0  0  0  0  0  0
  189.7450  177.9150  140.7250 C   0  0  2  0  0  3  0  0  0  0  0  0
  190.5730  176.9390  140.1430 O   0  0  0  0  0  0  0  0  0  0  0  0
  190.4640  175.2820  138.5810 O   0  0  0  0  0  0  0  0  0  0  0  0
  190.5120  176.2670  136.4010 C   0  0  0  0  0  1  0  0  0  0  0  0
  191.0030  176.3450  137.8390 C   0  0  1  0  0  0  0  0  0  0  0  0
  190.0010  176.5710  138.9140 C   0  0  2  0  0  3  0  0  0  0  0  0
  192.5010  176.5080  138.1180 C   0  0  0  0  0  2  0  0  0  0  0  0
  193.3410  175.6340  137.1940 C   0  0  0  0  0  3  0  0  0  0  0  0
  194.2900  174.7840  138.0120 C   0  0  0  0  0  1  0  0  0  0  0  0
  194.1350  176.4760  136.2130 C   0  0  0  0  0  1  0  0  0  0  0  0
  190.6860  175.0810  143.0110 O   0  0  0  0  0  1  0  0  0  0  0  0
  189.3150  175.3270  142.9850 C   0  0  0  0  0  2  0  0  0  0  0  0
  1  6  1  1  0  0  0
  2 20  1  1  0  0  0
  2  3  1  0  0  0  0
  2  4  1  0  0  0  0
  4 31  1  6  0  0  0
  4  1  1  0  0  0  0
  5  3  1  6  0  0  0
  5 14  1  0  0  0  0
  5  1  1  0  0  0  0
  6 11  2  0  0  0  0
  6  8  1  0  0  0  0
  7  9  1  0  0  0  0
  8  7  2  0  0  0  0
 11 12  1  0  0  0  0
 12 10  1  0  0  0  0
 12  9  2  0  0  0  0
 13 16  1  0  0  0  0
 14 18  1  1  0  0  0
 16 15  2  0  0  0  0
 17 13  1  0  0  0  0
 17 14  1  0  0  0  0
 18 15  1  0  0  0  0
 20 19  1  6  0  0  0
 21 20  1  0  0  0  0
 22 25  1  0  0  0  0
 24 23  1  6  0  0  0
 24 26  1  0  0  0  0
 24 22  1  0  0  0  0
 24 25  1  0  0  0  0
 25 21  1  1  0  0  0
 27 28  1  0  0  0  0
 27 26  1  0  0  0  0
 29 27  1  0  0  0  0
 31 30  1  0  0  0  0
M  END
>  <MODEL>
1

>  <REMARK>
 VINA RESULT:      -8.4      0.000      0.000
  Name = 
  8 active torsions:
  status: ('A' for Active; 'I' for Inactive)
    1  A    between atoms: C_1  and  C_24
    2  A    between atoms: C_4  and  C_5
    3  A    between atoms: C_9  and  C_15
    4  A    between atoms: C_9  and  O_23
    5  A    between atoms: C_12  and  C_27
    6  A    between atoms: C_19  and  C_24
    7  A    between atoms: C_21  and  C_29
    8  A    between atoms: C_22  and  O_23
                            x       y       z     vdW  Elec       q    Type
                         _______ _______ _______ _____ _____    ______ ____

>  <TORSDO>
F 8

$$$$
=
 OpenBabel10272400363D

 31 34  0  0  1  0  0  0  0  0999 V2000
  187.5520  177.0870  144.0140 C   0  0  2  0  0  3  0  0  0  0  0  0
  188.3530  177.1380  141.7410 C   0  0  2  0  0  3  0  0  0  0  0  0
  187.1800  178.1000  141.8460 C   0  0  0  0  0  2  0  0  0  0  0  0
  188.7600  176.7540  143.1630 C   0  0  2  0  0  3  0  0  0  0  0  0
  186.8470  178.2390  143.3260 C   0  0  1  0  0  3  0  0  0  0  0  0
  187.9060  177.3710  145.4430 C   0  0  0  0  0  0  0  0  0  0  0  0
  187.1950  178.0630  147.6580 C   0  0  0  0  0  3  0  0  0  0  0  0
  186.8960  177.7820  146.3210 C   0  0  0  0  0  3  0  0  0  0  0  0
  188.5070  177.9390  148.1160 C   0  0  0  0  0  3  0  0  0  0  0  0
  190.7970  177.4300  147.6990 F   0  0  0  0  0  0  0  0  0  0  0  0
  189.2240  177.2490  145.9100 C   0  0  0  0  0  3  0  0  0  0  0  0
  189.5230  177.5360  147.2450 C   0  0  0  0  0  0  0  0  0  0  0  0
  183.1740  178.1660  142.6620 C   0  0  0  0  0  2  0  0  0  0  0  0
  185.3390  178.2020  143.5970 C   0  0  2  0  0  3  0  0  0  0  0  0
  183.4660  179.3600  144.8140 C   0  0  0  0  0  3  0  0  0  0  0  0
  182.6420  178.9440  143.8410 C   0  0  0  0  0  3  0  0  0  0  0  0
  184.5670  178.5170  142.3940 N   0  0  0  0  0  2  0  0  0  0  0  0
  184.9600  179.1620  144.7340 C   0  0  0  0  0  2  0  0  0  0  0  0
  190.5060  178.3350  141.8250 C   0  0  0  0  0  1  0  0  0  0  0  0
  189.4710  177.7410  140.8810 C   0  0  2  0  0  3  0  0  0  0  0  0
  188.9650  178.7320  140.0220 O   0  0  0  0  0  0  0  0  0  0  0  0
  188.7970  179.2380  137.8050 O   0  0  0  0  0  0  0  0  0  0  0  0
  189.3810  177.3060  136.5210 C   0  0  0  0  0  1  0  0  0  0  0  0
  188.7260  177.8360  137.7880 C   0  0  1  0  0  0  0  0  0  0  0  0
  189.5750  178.5640  138.7670 C   0  0  2  0  0  3  0  0  0  0  0  0
  187.3250  177.3510  138.1760 C   0  0  0  0  0  2  0  0  0  0  0  0
  186.2400  178.1470  137.4610 C   0  0  0  0  0  3  0  0  0  0  0  0
  185.1300  178.4910  138.4320 C   0  0  0  0  0  1  0  0  0  0  0  0
  185.6650  177.3660  136.2940 C   0  0  0  0  0  1  0  0  0  0  0  0
  190.3570  174.9750  143.0020 O   0  0  0  0  0  1  0  0  0  0  0  0
  189.0140  175.2550  143.2480 C   0  0  0  0  0  2  0  0  0  0  0  0
  1  6  1  1  0  0  0
  2 20  1  1  0  0  0
  2  3  1  0  0  0  0
  2  4  1  0  0  0  0
  4 31  1  6  0  0  0
  4  1  1  0  0  0  0
  5  3  1  6  0  0  0
  5 14  1  0  0  0  0
  5  1  1  0  0  0  0
  6 11  2  0  0  0  0
  6  8  1  0  0  0  0
  7  9  1  0  0  0  0
  8  7  2  0  0  0  0
 11 12  1  0  0  0  0
 12 10  1  0  0  0  0
 12  9  2  0  0  0  0
 13 16  1  0  0  0  0
 14 18  1  1  0  0  0
 16 15  2  0  0  0  0
 17 13  1  0  0  0  0
 17 14  1  0  0  0  0
 18 15  1  0  0  0  0
 20 19  1  1  0  0  0
 21 20  1  0  0  0  0
 22 25  1  0  0  0  0
 24 23  1  6  0  0  0
 24 22  1  0  0  0  0
 24 26  1  0  0  0  0
 24 25  1  0  0  0  0
 25 21  1  1  0  0  0
 27 26  1  0  0  0  0
 27 28  1  0  0  0  0
 29 27  1  0  0  0  0
 30 31  1  0  0  0  0
M  END
>  <MODEL>
2

>  <REMARK>
 VINA RESULT:      -8.0      2.009      3.125
  Name = 
  8 active torsions:
  status: ('A' for Active; 'I' for Inactive)
    1  A    between atoms: C_1  and  C_24
    2  A    between atoms: C_4  and  C_5
    3  A    between atoms: C_9  and  C_15
    4  A    between atoms: C_9  and  O_23
    5  A    between atoms: C_12  and  C_27
    6  A    between atoms: C_19  and  C_24
    7  A    between atoms: C_21  and  C_29
    8  A    between atoms: C_22  and  O_23
                            x       y       z     vdW  Elec       q    Type
                         _______ _______ _______ _____ _____    ______ ____

>  <TORSDO>
F 8

$$$$
=
 OpenBabel10272400363D

 31 34  0  0  1  0  0  0  0  0999 V2000
  187.0220  177.7430  137.7660 C   0  0  2  0  0  3  0  0  0  0  0  0
  188.2910  178.4420  139.6930 C   0  0  2  0  0  3  0  0  0  0  0  0
  186.8200  178.4380  140.0770 C   0  0  0  0  0  2  0  0  0  0  0  0
  188.4170  177.7150  138.3540 C   0  0  2  0  0  3  0  0  0  0  0  0
  186.0620  177.7660  138.9390 C   0  0  1  0  0  3  0  0  0  0  0  0
  186.7690  176.6160  136.8100 C   0  0  0  0  0  0  0  0  0  0  0  0
  186.0280  175.8800  134.6200 C   0  0  0  0  0  3  0  0  0  0  0  0
  186.2820  176.9090  135.5310 C   0  0  0  0  0  3  0  0  0  0  0  0
  186.2580  174.5540  134.9890 C   0  0  0  0  0  3  0  0  0  0  0  0
  186.9460  172.9580  136.6180 F   0  0  0  0  0  0  0  0  0  0  0  0
  186.9970  175.2800  137.1760 C   0  0  0  0  0  3  0  0  0  0  0  0
  186.7380  174.2510  136.2660 C   0  0  0  0  0  0  0  0  0  0  0  0
  183.4250  180.4080  138.9340 C   0  0  0  0  0  2  0  0  0  0  0  0
  184.7680  178.5030  138.5760 C   0  0  2  0  0  3  0  0  0  0  0  0
  182.2660  178.2700  138.4540 C   0  0  0  0  0  3  0  0  0  0  0  0
  182.1810  179.5870  138.6920 C   0  0  0  0  0  3  0  0  0  0  0  0
  184.4830  179.5870  139.5170 N   0  0  0  0  0  2  0  0  0  0  0  0
  183.5810  177.5320  138.5140 C   0  0  0  0  0  2  0  0  0  0  0  0
  189.9510  176.7110  140.2620 C   0  0  0  0  0  1  0  0  0  0  0  0
  189.1490  177.8730  140.8300 C   0  0  2  0  0  3  0  0  0  0  0  0
  188.3430  177.4360  141.8970 O   0  0  0  0  0  0  0  0  0  0  0  0
  189.0320  176.3290  143.7670 O   0  0  0  0  0  0  0  0  0  0  0  0
  188.9000  177.8110  145.6400 C   0  0  0  0  0  1  0  0  0  0  0  0
  188.2870  177.3850  144.3140 C   0  0  1  0  0  0  0  0  0  0  0  0
  189.0950  177.5570  143.0780 C   0  0  2  0  0  3  0  0  0  0  0  0
  186.7840  177.0980  144.2330 C   0  0  0  0  0  2  0  0  0  0  0  0
  185.9620  178.3740  144.3770 C   0  0  0  0  0  3  0  0  0  0  0  0
  185.2880  178.4030  145.7320 C   0  0  0  0  0  1  0  0  0  0  0  0
  184.9110  178.4750  143.2880 C   0  0  0  0  0  1  0  0  0  0  0  0
  188.9950  179.8300  137.3870 O   0  0  0  0  0  1  0  0  0  0  0  0
  189.3500  178.4830  137.4280 C   0  0  0  0  0  2  0  0  0  0  0  0
  1  6  1  1  0  0  0
  1  4  1  0  0  0  0
  1  5  1  0  0  0  0
  2  3  1  0  0  0  0
  2 20  1  1  0  0  0
  4 31  1  6  0  0  0
  4  2  1  0  0  0  0
  5  3  1  1  0  0  0
  6 11  1  0  0  0  0
  7  9  2  0  0  0  0
  7  8  1  0  0  0  0
  8  6  2  0  0  0  0
  9 12  1  0  0  0  0
 12 10  1  0  0  0  0
 12 11  2  0  0  0  0
 13 17  1  0  0  0  0
 14 18  1  1  0  0  0
 14  5  1  0  0  0  0
 14 17  1  0  0  0  0
 15 18  1  0  0  0  0
 15 16  2  0  0  0  0
 16 13  1  0  0  0  0
 20 19  1  6  0  0  0
 20 21  1  0  0  0  0
 22 24  1  0  0  0  0
 24 23  1  1  0  0  0
 25 21  1  6  0  0  0
 25 22  1  0  0  0  0
 25 24  1  0  0  0  0
 26 24  1  0  0  0  0
 26 27  1  0  0  0  0
 27 28  1  0  0  0  0
 29 27  1  0  0  0  0
 30 31  1  0  0  0  0
M  END
>  <MODEL>
3

>  <REMARK>
 VINA RESULT:      -7.9      3.739      7.932
  Name = 
  8 active torsions:
  status: ('A' for Active; 'I' for Inactive)
    1  A    between atoms: C_1  and  C_24
    2  A    between atoms: C_4  and  C_5
    3  A    between atoms: C_9  and  C_15
    4  A    between atoms: C_9  and  O_23
    5  A    between atoms: C_12  and  C_27
    6  A    between atoms: C_19  and  C_24
    7  A    between atoms: C_21  and  C_29
    8  A    between atoms: C_22  and  O_23
                            x       y       z     vdW  Elec       q    Type
                         _______ _______ _______ _____ _____    ______ ____

>  <TORSDO>
F 8

$$$$
=
 OpenBabel10272400363D

 31 34  0  0  1  0  0  0  0  0999 V2000
  188.4100  178.2710  140.2510 C   0  0  2  0  0  3  0  0  0  0  0  0
  190.2680  177.1310  139.2210 C   0  0  2  0  0  3  0  0  0  0  0  0
  190.1740  176.6640  140.6650 C   0  0  0  0  0  2  0  0  0  0  0  0
  188.9820  177.8930  138.9000 C   0  0  2  0  0  3  0  0  0  0  0  0
  188.8620  177.1990  141.2240 C   0  0  1  0  0  3  0  0  0  0  0  0
  186.9230  178.4620  140.2220 C   0  0  0  0  0  0  0  0  0  0  0  0
  184.8830  179.0380  141.4000 C   0  0  0  0  0  3  0  0  0  0  0  0
  186.2690  178.8600  141.3930 C   0  0  0  0  0  3  0  0  0  0  0  0
  184.1470  178.8130  140.2360 C   0  0  0  0  0  3  0  0  0  0  0  0
  184.0650  178.1800  137.9400 F   0  0  0  0  0  0  0  0  0  0  0  0
  186.1790  178.2350  139.0530 C   0  0  0  0  0  3  0  0  0  0  0  0
  184.7910  178.4080  139.0640 C   0  0  0  0  0  0  0  0  0  0  0  0
  190.4720  178.7170  144.2300 C   0  0  0  0  0  2  0  0  0  0  0  0
  189.0130  177.7690  142.6390 C   0  0  2  0  0  3  0  0  0  0  0  0
  188.6450  177.2710  145.0770 C   0  0  0  0  0  3  0  0  0  0  0  0
  189.6880  178.0700  145.3470 C   0  0  0  0  0  3  0  0  0  0  0  0
  190.4200  177.9010  143.0200 N   0  0  0  0  0  2  0  0  0  0  0  0
  188.2670  176.9030  143.6630 C   0  0  0  0  0  2  0  0  0  0  0  0
  192.0080  176.1300  137.7900 C   0  0  0  0  0  1  0  0  0  0  0  0
  190.5810  175.9530  138.2900 C   0  0  2  0  0  3  0  0  0  0  0  0
  189.6840  175.9160  137.2070 O   0  0  0  0  0  0  0  0  0  0  0  0
  188.7100  174.5190  135.6930 O   0  0  0  0  0  0  0  0  0  0  0  0
  187.6290  172.7360  136.8650 C   0  0  0  0  0  1  0  0  0  0  0  0
  188.0050  174.2100  136.8670 C   0  0  1  0  0  0  0  0  0  0  0  0
  189.4480  174.5680  136.8930 C   0  0  2  0  0  3  0  0  0  0  0  0
  186.9320  175.2650  137.1580 C   0  0  0  0  0  2  0  0  0  0  0  0
  186.0740  175.5440  135.9290 C   0  0  0  0  0  3  0  0  0  0  0  0
  186.2050  176.9990  135.5300 C   0  0  0  0  0  1  0  0  0  0  0  0
  184.6150  175.2220  136.1930 C   0  0  0  0  0  1  0  0  0  0  0  0
  188.7900  179.1060  136.8440 O   0  0  0  0  0  1  0  0  0  0  0  0
  189.3060  179.1690  138.1360 C   0  0  0  0  0  2  0  0  0  0  0  0
  1  6  1  6  0  0  0
  1  5  1  0  0  0  0
  2 20  1  6  0  0  0
  2  3  1  0  0  0  0
  4 31  1  6  0  0  0
  4  2  1  0  0  0  0
  4  1  1  0  0  0  0
  5  3  1  6  0  0  0
  5 14  1  0  0  0  0
  6  8  1  0  0  0  0
  8  7  2  0  0  0  0
  9  7  1  0  0  0  0
 10 12  1  0  0  0  0
 11 12  1  0  0  0  0
 11  6  2  0  0  0  0
 12  9  2  0  0  0  0
 13 16  1  0  0  0  0
 14 17  1  0  0  0  0
 14 18  1  1  0  0  0
 15 16  2  0  0  0  0
 17 13  1  0  0  0  0
 18 15  1  0  0  0  0
 20 19  1  6  0  0  0
 21 20  1  0  0  0  0
 22 24  1  0  0  0  0
 22 25  1  0  0  0  0
 24 23  1  1  0  0  0
 24 25  1  0  0  0  0
 24 26  1  0  0  0  0
 25 21  1  1  0  0  0
 27 29  1  0  0  0  0
 27 26  1  0  0  0  0
 28 27  1  0  0  0  0
 30 31  1  0  0  0  0
M  END
>  <MODEL>
4

>  <REMARK>
 VINA RESULT:      -7.7      3.534      6.134
  Name = 
  8 active torsions:
  status: ('A' for Active; 'I' for Inactive)
    1  A    between atoms: C_1  and  C_24
    2  A    between atoms: C_4  and  C_5
    3  A    between atoms: C_9  and  C_15
    4  A    between atoms: C_9  and  O_23
    5  A    between atoms: C_12  and  C_27
    6  A    between atoms: C_19  and  C_24
    7  A    between atoms: C_21  and  C_29
    8  A    between atoms: C_22  and  O_23
                            x       y       z     vdW  Elec       q    Type
                         _______ _______ _______ _____ _____    ______ ____

>  <TORSDO>
F 8

$$$$
=
 OpenBabel10272400363D

 31 34  0  0  1  0  0  0  0  0999 V2000
  189.8370  177.0570  138.8290 C   0  0  2  0  0  3  0  0  0  0  0  0
  187.8180  177.4400  137.5670 C   0  0  2  0  0  3  0  0  0  0  0  0
  188.2370  175.9950  137.3530 C   0  0  0  0  0  2  0  0  0  0  0  0
  188.6490  177.9920  138.7260 C   0  0  2  0  0  3  0  0  0  0  0  0
  189.3600  175.7030  138.3400 C   0  0  1  0  0  3  0  0  0  0  0  0
  190.4310  177.0190  140.2050 C   0  0  0  0  0  0  0  0  0  0  0  0
  192.3370  177.4160  141.6520 C   0  0  0  0  0  3  0  0  0  0  0  0
  191.7510  177.4470  140.3840 C   0  0  0  0  0  3  0  0  0  0  0  0
  191.6030  176.9510  142.7450 C   0  0  0  0  0  3  0  0  0  0  0  0
  189.5860  176.0540  143.6410 F   0  0  0  0  0  0  0  0  0  0  0  0
  189.6980  176.5510  141.3070 C   0  0  0  0  0  3  0  0  0  0  0  0
  190.2860  176.5150  142.5740 C   0  0  0  0  0  0  0  0  0  0  0  0
  192.5750  175.0120  136.5730 C   0  0  0  0  0  2  0  0  0  0  0  0
  190.5100  174.9110  137.7070 C   0  0  2  0  0  3  0  0  0  0  0  0
  191.0590  173.1330  136.0150 C   0  0  0  0  0  3  0  0  0  0  0  0
  192.2420  173.7380  135.8350 C   0  0  0  0  0  3  0  0  0  0  0  0
  191.3630  175.7670  136.8800 N   0  0  0  0  0  2  0  0  0  0  0  0
  189.9770  173.7360  136.8760 C   0  0  0  0  0  2  0  0  0  0  0  0
  185.6720  177.5300  136.3590 C   0  0  0  0  0  1  0  0  0  0  0  0
  186.2980  177.5430  137.7460 C   0  0  2  0  0  3  0  0  0  0  0  0
  185.9510  178.7230  138.4280 O   0  0  0  0  0  0  0  0  0  0  0  0
  184.1920  179.8720  139.3120 O   0  0  0  0  0  0  0  0  0  0  0  0
  182.9830  178.4270  140.7870 C   0  0  0  0  0  1  0  0  0  0  0  0
  184.3440  178.8220  140.2320 C   0  0  1  0  0  0  0  0  0  0  0  0
  184.5940  178.6300  138.7790 C   0  0  2  0  0  3  0  0  0  0  0  0
  185.5020  179.0980  141.1960 C   0  0  0  0  0  2  0  0  0  0  0  0
  185.3150  178.3660  142.5200 C   0  0  0  0  0  3  0  0  0  0  0  0
  184.8330  179.3340  143.5790 C   0  0  0  0  0  1  0  0  0  0  0  0
  186.6100  177.7210  142.9780 C   0  0  0  0  0  1  0  0  0  0  0  0
  188.9030  179.6870  137.0510 O   0  0  0  0  0  1  0  0  0  0  0  0
  189.1580  179.3860  138.3880 C   0  0  0  0  0  2  0  0  0  0  0  0
  1  6  1  1  0  0  0
  2 20  1  1  0  0  0
  2  4  1  0  0  0  0
  3  2  1  0  0  0  0
  4 31  1  6  0  0  0
  4  1  1  0  0  0  0
  5  3  1  6  0  0  0
  5  1  1  0  0  0  0
  6  8  2  0  0  0  0
  6 11  1  0  0  0  0
  7  9  2  0  0  0  0
  8  7  1  0  0  0  0
 11 12  2  0  0  0  0
 12  9  1  0  0  0  0
 12 10  1  0  0  0  0
 13 17  1  0  0  0  0
 14 18  1  6  0  0  0
 14  5  1  0  0  0  0
 15 18  1  0  0  0  0
 16 15  2  0  0  0  0
 16 13  1  0  0  0  0
 17 14  1  0  0  0  0
 20 19  1  6  0  0  0
 20 21  1  0  0  0  0
 22 24  1  0  0  0  0
 24 23  1  1  0  0  0
 24 26  1  0  0  0  0
 25 21  1  1  0  0  0
 25 22  1  0  0  0  0
 25 24  1  0  0  0  0
 26 27  1  0  0  0  0
 27 29  1  0  0  0  0
 27 28  1  0  0  0  0
 30 31  1  0  0  0  0
M  END
>  <MODEL>
5

>  <REMARK>
 VINA RESULT:      -7.5      3.361      7.849
  Name = 
  8 active torsions:
  status: ('A' for Active; 'I' for Inactive)
    1  A    between atoms: C_1  and  C_24
    2  A    between atoms: C_4  and  C_5
    3  A    between atoms: C_9  and  C_15
    4  A    between atoms: C_9  and  O_23
    5  A    between atoms: C_12  and  C_27
    6  A    between atoms: C_19  and  C_24
    7  A    between atoms: C_21  and  C_29
    8  A    between atoms: C_22  and  O_23
                            x       y       z     vdW  Elec       q    Type
                         _______ _______ _______ _____ _____    ______ ____

>  <TORSDO>
F 8

$$$$
=
 OpenBabel10272400363D

 31 34  0  0  1  0  0  0  0  0999 V2000
  191.2780  176.8180  138.3960 C   0  0  2  0  0  3  0  0  0  0  0  0
  190.6600  177.3910  140.6540 C   0  0  2  0  0  3  0  0  0  0  0  0
  189.3850  177.2810  139.8340 C   0  0  0  0  0  2  0  0  0  0  0  0
  191.7960  176.8010  139.8190 C   0  0  2  0  0  3  0  0  0  0  0  0
  189.7710  176.6830  138.4860 C   0  0  1  0  0  3  0  0  0  0  0  0
  191.9190  175.7750  137.5300 C   0  0  0  0  0  0  0  0  0  0  0  0
  191.9130  173.5090  136.6630 C   0  0  0  0  0  3  0  0  0  0  0  0
  191.3350  174.5060  137.4540 C   0  0  0  0  0  3  0  0  0  0  0  0
  193.0800  173.7800  135.9480 C   0  0  0  0  0  3  0  0  0  0  0  0
  194.8160  175.2920  135.3330 F   0  0  0  0  0  0  0  0  0  0  0  0
  193.0950  176.0420  136.8100 C   0  0  0  0  0  3  0  0  0  0  0  0
  193.6750  175.0430  136.0230 C   0  0  0  0  0  0  0  0  0  0  0  0
  187.7090  179.1760  136.6240 C   0  0  0  0  0  2  0  0  0  0  0  0
  189.0840  177.3880  137.3110 C   0  0  2  0  0  3  0  0  0  0  0  0
  187.5160  177.0440  135.3740 C   0  0  0  0  0  3  0  0  0  0  0  0
  187.1400  178.3230  135.5150 C   0  0  0  0  0  3  0  0  0  0  0  0
  188.0840  178.3530  137.7710 N   0  0  0  0  0  2  0  0  0  0  0  0
  188.4380  176.3700  136.3600 C   0  0  0  0  0  2  0  0  0  0  0  0
  188.9820  176.4950  142.2220 C   0  0  0  0  0  1  0  0  0  0  0  0
  190.4700  176.7590  142.0390 C   0  0  2  0  0  3  0  0  0  0  0  0
  190.9430  177.6130  143.0510 O   0  0  0  0  0  0  0  0  0  0  0  0
  190.6060  175.9340  144.5560 O   0  0  0  0  0  0  0  0  0  0  0  0
  191.7860  176.4510  146.5710 C   0  0  0  0  0  1  0  0  0  0  0  0
  191.0000  176.9950  145.3880 C   0  0  1  0  0  0  0  0  0  0  0  0
  191.5680  176.8180  144.0250 C   0  0  2  0  0  3  0  0  0  0  0  0
  189.8390  177.9640  145.6320 C   0  0  0  0  0  2  0  0  0  0  0  0
  188.6580  177.2650  146.2970 C   0  0  0  0  0  3  0  0  0  0  0  0
  187.3790  177.6030  145.5590 C   0  0  0  0  0  1  0  0  0  0  0  0
  188.5250  177.6760  147.7510 C   0  0  0  0  0  1  0  0  0  0  0  0
  194.1820  176.9280  140.0010 O   0  0  0  0  0  1  0  0  0  0  0  0
  193.0240  177.6970  139.8980 C   0  0  0  0  0  2  0  0  0  0  0  0
  1  6  1  6  0  0  0
  1  5  1  0  0  0  0
  1  4  1  0  0  0  0
  2 20  1  1  0  0  0
  3  2  1  0  0  0  0
  4 31  1  6  0  0  0
  4  2  1  0  0  0  0
  5  3  1  1  0  0  0
  7  8  2  0  0  0  0
  8  6  1  0  0  0  0
  9 12  2  0  0  0  0
  9  7  1  0  0  0  0
 10 12  1  0  0  0  0
 11  6  2  0  0  0  0
 12 11  1  0  0  0  0
 13 17  1  0  0  0  0
 14 18  1  6  0  0  0
 14 17  1  0  0  0  0
 14  5  1  0  0  0  0
 15 16  2  0  0  0  0
 15 18  1  0  0  0  0
 16 13  1  0  0  0  0
 20 19  1  1  0  0  0
 20 21  1  0  0  0  0
 22 24  1  0  0  0  0
 24 26  1  0  0  0  0
 24 23  1  1  0  0  0
 25 21  1  6  0  0  0
 25 22  1  0  0  0  0
 25 24  1  0  0  0  0
 26 27  1  0  0  0  0
 27 29  1  0  0  0  0
 28 27  1  0  0  0  0
 31 30  1  0  0  0  0
M  END
>  <MODEL>
6

>  <REMARK>
 VINA RESULT:      -7.5      3.363      8.416
  Name = 
  8 active torsions:
  status: ('A' for Active; 'I' for Inactive)
    1  A    between atoms: C_1  and  C_24
    2  A    between atoms: C_4  and  C_5
    3  A    between atoms: C_9  and  C_15
    4  A    between atoms: C_9  and  O_23
    5  A    between atoms: C_12  and  C_27
    6  A    between atoms: C_19  and  C_24
    7  A    between atoms: C_21  and  C_29
    8  A    between atoms: C_22  and  O_23
                            x       y       z     vdW  Elec       q    Type
                         _______ _______ _______ _____ _____    ______ ____

>  <TORSDO>
F 8

$$$$
=
 OpenBabel10272400363D

 31 34  0  0  1  0  0  0  0  0999 V2000
  187.6580  177.0570  144.0080 C   0  0  2  0  0  3  0  0  0  0  0  0
  188.3970  177.0850  141.7140 C   0  0  2  0  0  3  0  0  0  0  0  0
  187.2400  178.0610  141.8440 C   0  0  0  0  0  2  0  0  0  0  0  0
  188.8380  176.7040  143.1270 C   0  0  2  0  0  3  0  0  0  0  0  0
  186.9490  178.2140  143.3320 C   0  0  1  0  0  3  0  0  0  0  0  0
  188.0540  177.3460  145.4250 C   0  0  0  0  0  0  0  0  0  0  0  0
  187.4230  178.1080  147.6400 C   0  0  0  0  0  3  0  0  0  0  0  0
  187.0840  177.8210  146.3150 C   0  0  0  0  0  3  0  0  0  0  0  0
  188.7360  177.9240  148.0760 C   0  0  0  0  0  3  0  0  0  0  0  0
  190.9880  177.2930  147.6240 F   0  0  0  0  0  0  0  0  0  0  0  0
  189.3740  177.1640  145.8690 C   0  0  0  0  0  3  0  0  0  0  0  0
  189.7130  177.4560  147.1930 C   0  0  0  0  0  0  0  0  0  0  0  0
  183.2590  178.1730  142.7680 C   0  0  0  0  0  2  0  0  0  0  0  0
  185.4480  178.1960  143.6440 C   0  0  2  0  0  3  0  0  0  0  0  0
  183.6220  179.3900  144.8970 C   0  0  0  0  0  3  0  0  0  0  0  0
  182.7670  178.9710  143.9510 C   0  0  0  0  0  3  0  0  0  0  0  0
  184.6470  178.5050  142.4580 N   0  0  0  0  0  2  0  0  0  0  0  0
  185.1100  179.1740  144.7780 C   0  0  0  0  0  2  0  0  0  0  0  0
  188.8790  178.7940  140.0040 C   0  0  0  0  0  1  0  0  0  0  0  0
  189.4990  177.6680  140.8190 C   0  0  2  0  0  3  0  0  0  0  0  0
  190.0300  176.6830  139.9690 O   0  0  0  0  0  0  0  0  0  0  0  0
  191.0670  177.4880  138.1050 O   0  0  0  0  0  0  0  0  0  0  0  0
  193.2610  176.5450  137.9690 C   0  0  0  0  0  1  0  0  0  0  0  0
  191.8100  176.3270  138.3710 C   0  0  1  0  0  0  0  0  0  0  0  0
  191.2500  177.1640  139.4640 C   0  0  2  0  0  3  0  0  0  0  0  0
  191.0700  175.0770  137.8840 C   0  0  0  0  0  2  0  0  0  0  0  0
  191.4580  174.7170  136.4550 C   0  0  0  0  0  3  0  0  0  0  0  0
  190.4110  175.2360  135.4920 C   0  0  0  0  0  1  0  0  0  0  0  0
  191.6000  173.2170  136.2850 C   0  0  0  0  0  1  0  0  0  0  0  0
  190.4290  174.9140  143.0380 O   0  0  0  0  0  1  0  0  0  0  0  0
  189.0770  175.2030  143.2140 C   0  0  0  0  0  2  0  0  0  0  0  0
  1  6  1  1  0  0  0
  2 20  1  1  0  0  0
  2  3  1  0  0  0  0
  2  4  1  0  0  0  0
  4 31  1  6  0  0  0
  4  1  1  0  0  0  0
  5  3  1  6  0  0  0
  5 14  1  0  0  0  0
  5  1  1  0  0  0  0
  6 11  2  0  0  0  0
  6  8  1  0  0  0  0
  7  9  1  0  0  0  0
  8  7  2  0  0  0  0
 11 12  1  0  0  0  0
 12 10  1  0  0  0  0
 12  9  2  0  0  0  0
 13 16  1  0  0  0  0
 14 18  1  1  0  0  0
 16 15  2  0  0  0  0
 17 13  1  0  0  0  0
 17 14  1  0  0  0  0
 18 15  1  0  0  0  0
 20 19  1  6  0  0  0
 21 20  1  0  0  0  0
 22 24  1  0  0  0  0
 22 25  1  0  0  0  0
 24 23  1  6  0  0  0
 24 25  1  0  0  0  0
 25 21  1  6  0  0  0
 26 24  1  0  0  0  0
 27 26  1  0  0  0  0
 28 27  1  0  0  0  0
 29 27  1  0  0  0  0
 30 31  1  0  0  0  0
M  END
>  <MODEL>
7

>  <REMARK>
 VINA RESULT:      -7.5      0.925      1.485
  Name = 
  8 active torsions:
  status: ('A' for Active; 'I' for Inactive)
    1  A    between atoms: C_1  and  C_24
    2  A    between atoms: C_4  and  C_5
    3  A    between atoms: C_9  and  C_15
    4  A    between atoms: C_9  and  O_23
    5  A    between atoms: C_12  and  C_27
    6  A    between atoms: C_19  and  C_24
    7  A    between atoms: C_21  and  C_29
    8  A    between atoms: C_22  and  O_23
                            x       y       z     vdW  Elec       q    Type
                         _______ _______ _______ _____ _____    ______ ____

>  <TORSDO>
F 8

$$$$
=
 OpenBabel10272400363D

 31 34  0  0  1  0  0  0  0  0999 V2000
  186.5340  177.7440  137.6400 C   0  0  2  0  0  3  0  0  0  0  0  0
  188.1190  178.5140  139.2850 C   0  0  2  0  0  3  0  0  0  0  0  0
  186.7650  178.3880  139.9640 C   0  0  0  0  0  2  0  0  0  0  0  0
  188.0190  177.8190  137.9280 C   0  0  2  0  0  3  0  0  0  0  0  0
  185.8400  177.6730  138.9860 C   0  0  1  0  0  3  0  0  0  0  0  0
  186.1740  176.6140  136.7230 C   0  0  0  0  0  0  0  0  0  0  0  0
  185.0070  175.8430  134.7410 C   0  0  0  0  0  3  0  0  0  0  0  0
  185.3680  176.8770  135.6100 C   0  0  0  0  0  3  0  0  0  0  0  0
  185.4490  174.5430  134.9870 C   0  0  0  0  0  3  0  0  0  0  0  0
  186.6630  173.0000  136.3370 F   0  0  0  0  0  0  0  0  0  0  0  0
  186.6140  175.3030  136.9680 C   0  0  0  0  0  3  0  0  0  0  0  0
  186.2490  174.2700  136.1000 C   0  0  0  0  0  0  0  0  0  0  0  0
  183.2020  180.3120  138.8480 C   0  0  0  0  0  2  0  0  0  0  0  0
  184.4470  178.3100  138.9210 C   0  0  2  0  0  3  0  0  0  0  0  0
  182.1960  178.3860  140.0410 C   0  0  0  0  0  3  0  0  0  0  0  0
  182.0800  179.6520  139.6130 C   0  0  0  0  0  3  0  0  0  0  0  0
  184.4930  179.7410  139.2250 N   0  0  0  0  0  2  0  0  0  0  0  0
  183.4720  177.6000  139.8700 C   0  0  0  0  0  2  0  0  0  0  0  0
  189.8970  176.8210  139.5040 C   0  0  0  0  0  1  0  0  0  0  0  0
  189.2350  177.9990  140.2030 C   0  0  2  0  0  3  0  0  0  0  0  0
  188.7180  177.6020  141.4490 O   0  0  0  0  0  0  0  0  0  0  0  0
  189.0190  175.9400  142.9790 O   0  0  0  0  0  0  0  0  0  0  0  0
  190.9590  176.4330  144.2890 C   0  0  0  0  0  1  0  0  0  0  0  0
  189.7550  176.9920  143.5470 C   0  0  1  0  0  0  0  0  0  0  0  0
  189.6810  176.7940  142.0750 C   0  0  2  0  0  3  0  0  0  0  0  0
  188.8310  177.9940  144.2490 C   0  0  0  0  0  2  0  0  0  0  0  0
  187.8800  177.2950  145.2140 C   0  0  0  0  0  3  0  0  0  0  0  0
  186.4510  177.6880  144.9030 C   0  0  0  0  0  1  0  0  0  0  0  0
  188.1990  177.6520  146.6530 C   0  0  0  0  0  1  0  0  0  0  0  0
  188.9850  179.9350  137.3530 O   0  0  0  0  0  1  0  0  0  0  0  0
  188.6790  178.6720  136.8530 C   0  0  0  0  0  2  0  0  0  0  0  0
  1  6  1  6  0  0  0
  1  4  1  0  0  0  0
  1  5  1  0  0  0  0
  2  3  1  0  0  0  0
  2 20  1  1  0  0  0
  4 31  1  6  0  0  0
  4  2  1  0  0  0  0
  5  3  1  1  0  0  0
  6 11  1  0  0  0  0
  7  9  2  0  0  0  0
  7  8  1  0  0  0  0
  8  6  2  0  0  0  0
  9 12  1  0  0  0  0
 12 10  1  0  0  0  0
 12 11  2  0  0  0  0
 13 17  1  0  0  0  0
 13 16  1  0  0  0  0
 14  5  1  0  0  0  0
 14 17  1  0  0  0  0
 14 18  1  1  0  0  0
 16 15  2  0  0  0  0
 18 15  1  0  0  0  0
 20 19  1  6  0  0  0
 20 21  1  0  0  0  0
 22 24  1  0  0  0  0
 24 26  1  0  0  0  0
 24 23  1  1  0  0  0
 25 21  1  6  0  0  0
 25 22  1  0  0  0  0
 25 24  1  0  0  0  0
 26 27  1  0  0  0  0
 27 29  1  0  0  0  0
 28 27  1  0  0  0  0
 31 30  1  0  0  0  0
M  END
>  <MODEL>
8

>  <REMARK>
 VINA RESULT:      -7.5      3.866      7.688
  Name = 
  8 active torsions:
  status: ('A' for Active; 'I' for Inactive)
    1  A    between atoms: C_1  and  C_24
    2  A    between atoms: C_4  and  C_5
    3  A    between atoms: C_9  and  C_15
    4  A    between atoms: C_9  and  O_23
    5  A    between atoms: C_12  and  C_27
    6  A    between atoms: C_19  and  C_24
    7  A    between atoms: C_21  and  C_29
    8  A    between atoms: C_22  and  O_23
                            x       y       z     vdW  Elec       q    Type
                         _______ _______ _______ _____ _____    ______ ____

>  <TORSDO>
F 8

$$$$
=
 OpenBabel10272400363D

 31 34  0  0  1  0  0  0  0  0999 V2000
  188.1250  176.7740  137.0580 C   0  0  2  0  0  3  0  0  0  0  0  0
  185.9130  177.5720  137.5920 C   0  0  2  0  0  3  0  0  0  0  0  0
  185.8400  176.0620  137.4320 C   0  0  0  0  0  2  0  0  0  0  0  0
  187.3910  177.9560  137.6590 C   0  0  2  0  0  3  0  0  0  0  0  0
  187.2730  175.5520  137.3410 C   0  0  1  0  0  3  0  0  0  0  0  0
  189.5330  176.6480  137.5550 C   0  0  0  0  0  0  0  0  0  0  0  0
  191.8540  176.1100  137.0970 C   0  0  0  0  0  3  0  0  0  0  0  0
  190.5330  176.2450  136.6620 C   0  0  0  0  0  3  0  0  0  0  0  0
  192.1770  176.3730  138.4290 C   0  0  0  0  0  3  0  0  0  0  0  0
  191.5080  177.0090  140.6250 F   0  0  0  0  0  0  0  0  0  0  0  0
  189.8630  176.9090  138.8950 C   0  0  0  0  0  3  0  0  0  0  0  0
  191.1850  176.7680  139.3300 C   0  0  0  0  0  0  0  0  0  0  0  0
  186.4750  173.3720  134.4160 C   0  0  0  0  0  2  0  0  0  0  0  0
  187.4530  174.4920  136.2470 C   0  0  2  0  0  3  0  0  0  0  0  0
  188.0470  172.0830  135.8350 C   0  0  0  0  0  3  0  0  0  0  0  0
  187.2510  172.1230  134.7560 C   0  0  0  0  0  3  0  0  0  0  0  0
  186.1760  174.1410  135.6220 N   0  0  0  0  0  2  0  0  0  0  0  0
  188.1310  173.2340  136.8070 C   0  0  0  0  0  2  0  0  0  0  0  0
  183.8740  178.8010  138.2280 C   0  0  0  0  0  1  0  0  0  0  0  0
  185.0640  178.0320  138.7840 C   0  0  2  0  0  3  0  0  0  0  0  0
  185.8130  178.8480  139.6500 O   0  0  0  0  0  0  0  0  0  0  0  0
  185.7990  179.7930  141.7240 O   0  0  0  0  0  0  0  0  0  0  0  0
  185.5360  178.0690  143.3620 C   0  0  0  0  0  1  0  0  0  0  0  0
  186.1290  178.4600  142.0160 C   0  0  1  0  0  0  0  0  0  0  0  0
  185.1970  178.8110  140.9120 C   0  0  2  0  0  3  0  0  0  0  0  0
  187.6090  178.1840  141.7330 C   0  0  0  0  0  2  0  0  0  0  0  0
  188.3380  177.7040  142.9830 C   0  0  0  0  0  3  0  0  0  0  0  0
  189.6580  178.4330  143.1200 C   0  0  0  0  0  1  0  0  0  0  0  0
  188.5900  176.2090  142.9310 C   0  0  0  0  0  1  0  0  0  0  0  0
  188.7200  179.9180  137.3050 O   0  0  0  0  0  1  0  0  0  0  0  0
  187.6540  179.1800  136.7940 C   0  0  0  0  0  2  0  0  0  0  0  0
  1  5  1  0  0  0  0
  1  6  1  1  0  0  0
  1  4  1  0  0  0  0
  2  4  1  0  0  0  0
  2 20  1  1  0  0  0
  3  2  1  0  0  0  0
  4 31  1  6  0  0  0
  5  3  1  6  0  0  0
  6 11  1  0  0  0  0
  7  9  2  0  0  0  0
  8  7  1  0  0  0  0
  8  6  2  0  0  0  0
  9 12  1  0  0  0  0
 11 12  2  0  0  0  0
 12 10  1  0  0  0  0
 13 16  1  0  0  0  0
 13 17  1  0  0  0  0
 14 18  1  1  0  0  0
 14  5  1  0  0  0  0
 15 18  1  0  0  0  0
 16 15  2  0  0  0  0
 17 14  1  0  0  0  0
 20 19  1  6  0  0  0
 20 21  1  0  0  0  0
 22 24  1  0  0  0  0
 24 23  1  1  0  0  0
 25 21  1  6  0  0  0
 25 22  1  0  0  0  0
 25 24  1  0  0  0  0
 26 24  1  0  0  0  0
 26 27  1  0  0  0  0
 27 28  1  0  0  0  0
 29 27  1  0  0  0  0
 31 30  1  0  0  0  0
M  END
>  <MODEL>
9

>  <REMARK>
 VINA RESULT:      -7.4      3.712      8.041
  Name = 
  8 active torsions:
  status: ('A' for Active; 'I' for Inactive)
    1  A    between atoms: C_1  and  C_24
    2  A    between atoms: C_4  and  C_5
    3  A    between atoms: C_9  and  C_15
    4  A    between atoms: C_9  and  O_23
    5  A    between atoms: C_12  and  C_27
    6  A    between atoms: C_19  and  C_24
    7  A    between atoms: C_21  and  C_29
    8  A    between atoms: C_22  and  O_23
                            x       y       z     vdW  Elec       q    Type
                         _______ _______ _______ _____ _____    ______ ____

>  <TORSDO>
F 8

$$$$
