=
 OpenBabel10272402073D

 32 34  0  0  1  0  0  0  0  0999 V2000
  186.3880  178.8940  141.5600 C   0  0  1  0  0  3  0  0  0  0  0  0
  184.2070  178.5590  140.5200 O   0  0  0  0  0  0  0  0  0  0  0  0
  187.8680  179.1520  141.2660 C   0  0  0  0  0  2  0  0  0  0  0  0
  185.5680  178.8380  140.2540 C   0  0  2  0  0  3  0  0  0  0  0  0
  183.4280  178.7470  139.3490 C   0  0  1  0  0  0  0  0  0  0  0  0
  182.1200  180.4840  138.2560 C   0  0  2  0  0  3  0  0  0  0  0  0
  181.1390  179.5220  138.9020 C   0  0  2  0  0  3  0  0  0  0  0  0
  186.1630  177.8420  139.2460 C   0  0  1  0  0  3  0  0  0  0  0  0
  181.9620  178.5240  139.6990 C   0  0  0  0  0  2  0  0  0  0  0  0
  185.3710  177.9070  137.9460 C   0  0  0  0  0  2  0  0  0  0  0  0
  187.6230  178.1800  138.9680 C   0  0  0  0  0  2  0  0  0  0  0  0
  183.4740  180.1950  138.8650 C   0  0  0  0  0  2  0  0  0  0  0  0
  183.8700  177.7770  138.2190 C   0  0  1  0  0  3  0  0  0  0  0  0
  188.4270  178.1420  140.2640 C   0  0  0  0  0  2  0  0  0  0  0  0
  181.7200  181.9150  138.5530 C   0  0  0  0  0  1  0  0  0  0  0  0
  183.4990  176.3380  138.4790 C   0  0  0  0  0  3  0  0  0  0  0  0
  183.8800  175.4410  137.7410 O   0  0  0  0  0  0  0  0  0  0  0  0
  184.8680  177.5980  142.9340 O   0  0  0  0  0  1  0  0  0  0  0  0
  186.1990  177.7030  142.5200 C   0  0  2  0  0  3  0  0  0  0  0  0
  187.1360  177.7840  143.7310 C   0  0  2  0  0  3  0  0  0  0  0  0
  188.1640  175.7590  143.0020 O   0  0  0  0  0  0  0  0  0  0  0  0
  188.3100  176.8700  143.5730 C   0  0  0  0  0  0  0  0  0  0  0  0
  189.5620  177.2410  144.0540 O   0  0  0  0  0  1  0  0  0  0  0  0
  186.3950  177.4470  145.0190 C   0  0  0  0  0  2  0  0  0  0  0  0
  187.5210  177.5840  147.1290 O   0  0  0  0  0  1  0  0  0  0  0  0
  186.8680  178.3420  146.1540 C   0  0  2  0  0  3  0  0  0  0  0  0
  185.7050  179.0550  146.7560 C   0  0  0  0  0  0  0  0  0  0  0  0
  184.3880  178.7640  146.3020 N   0  0  0  0  0  1  0  0  0  0  0  0
  185.8760  179.8860  147.6870 O   0  0  0  0  0  0  0  0  0  0  0  0
  180.3420  178.7830  137.8360 C   0  0  0  0  0  2  0  0  0  0  0  0
  181.2260  177.8220  135.7100 C   0  0  0  0  0  1  0  0  0  0  0  0
  180.8570  179.0990  136.4400 C   0  0  0  0  0  2  0  0  0  0  0  0
  1 19  1  6  0  0  0
  3  1  1  0  0  0  0
  4  2  1  1  0  0  0
  4  1  1  0  0  0  0
  5 12  1  6  0  0  0
  5  9  1  0  0  0  0
  5  2  1  0  0  0  0
  6 15  1  1  0  0  0
  6 12  1  0  0  0  0
  6  7  1  0  0  0  0
  7 30  1  6  0  0  0
  7  9  1  0  0  0  0
  8 10  1  6  0  0  0
  8  4  1  0  0  0  0
 10 13  1  0  0  0  0
 11  8  1  0  0  0  0
 11 14  1  0  0  0  0
 13 16  1  1  0  0  0
 13  5  1  0  0  0  0
 14  3  1  0  0  0  0
 17 16  2  0  0  0  0
 19 18  1  1  0  0  0
 19 20  1  0  0  0  0
 20 24  1  1  0  0  0
 21 22  2  0  0  0  0
 22 20  1  0  0  0  0
 22 23  1  0  0  0  0
 24 26  1  0  0  0  0
 26 27  1  0  0  0  0
 26 25  1  1  0  0  0
 27 29  2  0  0  0  0
 28 27  1  0  0  0  0
 31 32  1  0  0  0  0
 32 30  1  0  0  0  0
M  END
>  <MODEL>
1

>  <REMARK>
 VINA RESULT:      -6.0      0.000      0.000
  Name = 
  9 active torsions:
  status: ('A' for Active; 'I' for Inactive)
    1  A    between atoms: C_1  and  C_27
    2  A    between atoms: C_7  and  C_15
    3  A    between atoms: C_11  and  C_12
    4  A    between atoms: C_11  and  C_31
    5  A    between atoms: C_13  and  C_29
    6  A    between atoms: C_15  and  C_20
    7  A    between atoms: C_16  and  C_20
    8  A    between atoms: C_16  and  C_22
    9  A    between atoms: C_16  and  C_27
                            x       y       z     vdW  Elec       q    Type
                         _______ _______ _______ _____ _____    ______ ____

>  <TORSDO>
F 9

$$$$
=
 OpenBabel10272402073D

 32 34  0  0  1  0  0  0  0  0999 V2000
  190.4070  175.5590  138.0690 C   0  0  1  0  0  3  0  0  0  0  0  0
  192.8250  175.3160  137.8550 O   0  0  0  0  0  0  0  0  0  0  0  0
  189.0820  175.4330  137.3120 C   0  0  0  0  0  2  0  0  0  0  0  0
  191.5970  175.1620  137.1700 C   0  0  2  0  0  3  0  0  0  0  0  0
  193.8800  174.7280  137.1120 C   0  0  1  0  0  0  0  0  0  0  0  0
  195.0620  172.6060  136.9410 C   0  0  2  0  0  3  0  0  0  0  0  0
  195.9650  173.5650  137.6960 C   0  0  2  0  0  3  0  0  0  0  0  0
  191.5910  175.9290  135.8390 C   0  0  1  0  0  3  0  0  0  0  0  0
  195.1660  174.8370  137.9230 C   0  0  0  0  0  2  0  0  0  0  0  0
  192.7260  175.4220  134.9600 C   0  0  0  0  0  2  0  0  0  0  0  0
  190.2620  175.7280  135.1190 C   0  0  0  0  0  2  0  0  0  0  0  0
  193.6810  173.2220  136.9420 C   0  0  0  0  0  2  0  0  0  0  0  0
  194.0490  175.4180  135.7310 C   0  0  1  0  0  3  0  0  0  0  0  0
  189.1110  176.2100  135.9960 C   0  0  0  0  0  2  0  0  0  0  0  0
  195.0240  171.2630  137.6390 C   0  0  0  0  0  1  0  0  0  0  0  0
  194.6180  176.8120  135.8180 C   0  0  0  0  0  3  0  0  0  0  0  0
  195.7350  177.0690  135.3960 O   0  0  0  0  0  0  0  0  0  0  0  0
  191.6800  176.9770  139.5690 O   0  0  0  0  0  1  0  0  0  0  0  0
  190.5290  176.9240  138.7770 C   0  0  2  0  0  3  0  0  0  0  0  0
  189.2840  177.2560  139.6080 C   0  0  2  0  0  3  0  0  0  0  0  0
  187.2880  178.5230  139.2900 O   0  0  0  0  0  1  0  0  0  0  0  0
  188.5030  178.3750  138.9950 C   0  0  0  0  0  0  0  0  0  0  0  0
  189.1080  179.2510  138.1020 O   0  0  0  0  0  0  0  0  0  0  0  0
  189.6640  177.6190  141.0380 C   0  0  0  0  0  2  0  0  0  0  0  0
  187.8490  177.8070  142.5910 O   0  0  0  0  0  1  0  0  0  0  0  0
  188.7560  176.9060  142.0270 C   0  0  2  0  0  3  0  0  0  0  0  0
  189.5740  176.2680  143.0980 C   0  0  0  0  0  0  0  0  0  0  0  0
  189.4800  176.7470  144.4350 N   0  0  0  0  0  1  0  0  0  0  0  0
  190.3190  175.2860  142.8360 O   0  0  0  0  0  0  0  0  0  0  0  0
  197.2050  173.8860  136.8720 C   0  0  0  0  0  2  0  0  0  0  0  0
  197.5990  174.3130  134.4460 C   0  0  0  0  0  1  0  0  0  0  0  0
  197.1010  173.3100  135.4690 C   0  0  0  0  0  2  0  0  0  0  0  0
  1 19  1  6  0  0  0
  3  1  1  0  0  0  0
  4  2  1  1  0  0  0
  4  1  1  0  0  0  0
  5 12  1  6  0  0  0
  5  2  1  0  0  0  0
  5  9  1  0  0  0  0
  6 12  1  0  0  0  0
  6 15  1  1  0  0  0
  6  7  1  0  0  0  0
  7 30  1  6  0  0  0
  7  9  1  0  0  0  0
  8 10  1  6  0  0  0
  8  4  1  0  0  0  0
 10 13  1  0  0  0  0
 11  8  1  0  0  0  0
 11 14  1  0  0  0  0
 13 16  1  1  0  0  0
 13  5  1  0  0  0  0
 14  3  1  0  0  0  0
 17 16  2  0  0  0  0
 19 18  1  1  0  0  0
 19 20  1  0  0  0  0
 20 24  1  1  0  0  0
 22 21  1  0  0  0  0
 22 20  1  0  0  0  0
 23 22  2  0  0  0  0
 24 26  1  0  0  0  0
 26 25  1  1  0  0  0
 26 27  1  0  0  0  0
 27 28  1  0  0  0  0
 29 27  2  0  0  0  0
 31 32  1  0  0  0  0
 32 30  1  0  0  0  0
M  END
>  <MODEL>
2

>  <REMARK>
 VINA RESULT:      -5.7      6.594     10.201
  Name = 
  9 active torsions:
  status: ('A' for Active; 'I' for Inactive)
    1  A    between atoms: C_1  and  C_27
    2  A    between atoms: C_7  and  C_15
    3  A    between atoms: C_11  and  C_12
    4  A    between atoms: C_11  and  C_31
    5  A    between atoms: C_13  and  C_29
    6  A    between atoms: C_15  and  C_20
    7  A    between atoms: C_16  and  C_20
    8  A    between atoms: C_16  and  C_22
    9  A    between atoms: C_16  and  C_27
                            x       y       z     vdW  Elec       q    Type
                         _______ _______ _______ _____ _____    ______ ____

>  <TORSDO>
F 9

$$$$
=
 OpenBabel10272402073D

 32 34  0  0  1  0  0  0  0  0999 V2000
  184.9520  177.8820  142.6090 C   0  0  1  0  0  3  0  0  0  0  0  0
  184.2830  177.9170  140.2630 O   0  0  0  0  0  0  0  0  0  0  0  0
  184.4270  177.9970  144.0430 C   0  0  0  0  0  2  0  0  0  0  0  0
  183.7970  177.9830  141.5900 C   0  0  2  0  0  3  0  0  0  0  0  0
  183.2070  177.7700  139.3510 C   0  0  1  0  0  0  0  0  0  0  0  0
  181.9650  176.0040  138.2260 C   0  0  2  0  0  3  0  0  0  0  0  0
  182.9080  176.6130  137.2040 C   0  0  2  0  0  3  0  0  0  0  0  0
  182.9410  179.2380  141.8170 C   0  0  1  0  0  3  0  0  0  0  0  0
  183.7770  177.6130  137.9470 C   0  0  0  0  0  2  0  0  0  0  0  0
  181.7650  179.2270  140.8490 C   0  0  0  0  0  2  0  0  0  0  0  0
  182.4190  179.2700  143.2490 C   0  0  0  0  0  2  0  0  0  0  0  0
  182.4420  176.4670  139.5840 C   0  0  0  0  0  2  0  0  0  0  0  0
  182.2460  178.9880  139.4150 C   0  0  1  0  0  3  0  0  0  0  0  0
  183.5830  179.2580  144.2340 C   0  0  0  0  0  2  0  0  0  0  0  0
  182.0180  174.4920  138.1520 C   0  0  0  0  0  1  0  0  0  0  0  0
  182.8310  180.2500  138.8320 C   0  0  0  0  0  3  0  0  0  0  0  0
  182.1190  181.1850  138.4990 O   0  0  0  0  0  0  0  0  0  0  0  0
  185.8600  179.7440  141.3490 O   0  0  0  0  0  1  0  0  0  0  0  0
  186.1460  178.8250  142.3630 C   0  0  2  0  0  3  0  0  0  0  0  0
  187.4340  178.0550  142.0470 C   0  0  2  0  0  3  0  0  0  0  0  0
  187.8140  177.5400  144.3450 O   0  0  0  0  0  1  0  0  0  0  0  0
  188.3070  177.9340  143.2560 C   0  0  0  0  0  0  0  0  0  0  0  0
  189.6580  178.2560  143.1860 O   0  0  0  0  0  0  0  0  0  0  0  0
  188.2090  178.7270  140.9210 C   0  0  0  0  0  2  0  0  0  0  0  0
  190.0170  177.5070  139.9290 O   0  0  0  0  0  1  0  0  0  0  0  0
  188.6340  177.7020  139.8820 C   0  0  2  0  0  3  0  0  0  0  0  0
  188.2290  178.1590  138.5220 C   0  0  0  0  0  0  0  0  0  0  0  0
  188.8980  179.2630  137.9220 N   0  0  0  0  0  1  0  0  0  0  0  0
  187.3250  177.5560  137.8860 O   0  0  0  0  0  0  0  0  0  0  0  0
  182.1190  177.3350  136.1190 C   0  0  0  0  0  2  0  0  0  0  0  0
  180.2200  178.9380  136.3390 C   0  0  0  0  0  1  0  0  0  0  0  0
  180.6590  177.4970  136.5100 C   0  0  0  0  0  2  0  0  0  0  0  0
  1 19  1  6  0  0  0
  1  3  1  0  0  0  0
  3 14  1  0  0  0  0
  4  2  1  6  0  0  0
  4  8  1  0  0  0  0
  4  1  1  0  0  0  0
  5  9  1  6  0  0  0
  5 13  1  0  0  0  0
  5 12  1  0  0  0  0
  5  2  1  0  0  0  0
  6 15  1  1  0  0  0
  6 12  1  0  0  0  0
  7 30  1  6  0  0  0
  7  9  1  0  0  0  0
  7  6  1  0  0  0  0
  8 10  1  6  0  0  0
  8 11  1  0  0  0  0
 11 14  1  0  0  0  0
 13 16  1  1  0  0  0
 13 10  1  0  0  0  0
 17 16  2  0  0  0  0
 19 18  1  6  0  0  0
 20 24  1  6  0  0  0
 20 19  1  0  0  0  0
 20 22  1  0  0  0  0
 22 21  1  0  0  0  0
 23 22  2  0  0  0  0
 26 25  1  6  0  0  0
 26 24  1  0  0  0  0
 27 26  1  0  0  0  0
 28 27  1  0  0  0  0
 29 27  2  0  0  0  0
 30 32  1  0  0  0  0
 31 32  1  0  0  0  0
M  END
>  <MODEL>
3

>  <REMARK>
 VINA RESULT:      -5.5      2.596      4.867
  Name = 
  9 active torsions:
  status: ('A' for Active; 'I' for Inactive)
    1  A    between atoms: C_1  and  C_27
    2  A    between atoms: C_7  and  C_15
    3  A    between atoms: C_11  and  C_12
    4  A    between atoms: C_11  and  C_31
    5  A    between atoms: C_13  and  C_29
    6  A    between atoms: C_15  and  C_20
    7  A    between atoms: C_16  and  C_20
    8  A    between atoms: C_16  and  C_22
    9  A    between atoms: C_16  and  C_27
                            x       y       z     vdW  Elec       q    Type
                         _______ _______ _______ _____ _____    ______ ____

>  <TORSDO>
F 9

$$$$
=
 OpenBabel10272402073D

 32 34  0  0  1  0  0  0  0  0999 V2000
  189.5150  176.5980  142.0820 C   0  0  1  0  0  3  0  0  0  0  0  0
  189.9260  176.7710  139.6830 O   0  0  0  0  0  0  0  0  0  0  0  0
  188.4230  176.6510  143.1540 C   0  0  0  0  0  2  0  0  0  0  0  0
  188.9140  176.7790  140.6720 C   0  0  2  0  0  3  0  0  0  0  0  0
  189.3490  176.6970  138.3900 C   0  0  1  0  0  0  0  0  0  0  0  0
  188.7160  175.0230  136.7400 C   0  0  2  0  0  3  0  0  0  0  0  0
  190.0080  175.6620  136.2610 C   0  0  2  0  0  3  0  0  0  0  0  0
  188.0430  178.0410  140.5790 C   0  0  1  0  0  3  0  0  0  0  0  0
  190.4700  176.6010  137.3630 C   0  0  0  0  0  2  0  0  0  0  0  0
  187.4000  178.1090  139.2000 C   0  0  0  0  0  2  0  0  0  0  0  0
  186.9530  178.0110  141.6460 C   0  0  0  0  0  2  0  0  0  0  0  0
  188.5600  175.4030  138.1950 C   0  0  0  0  0  2  0  0  0  0  0  0
  188.4540  177.9340  138.1030 C   0  0  1  0  0  3  0  0  0  0  0  0
  187.5780  177.9200  143.0340 C   0  0  0  0  0  2  0  0  0  0  0  0
  188.7980  173.5160  136.6100 C   0  0  0  0  0  1  0  0  0  0  0  0
  189.2320  179.2090  137.9030 C   0  0  0  0  0  3  0  0  0  0  0  0
  188.9870  179.9640  136.9740 O   0  0  0  0  0  0  0  0  0  0  0  0
  191.9090  176.9760  141.9950 O   0  0  0  0  0  1  0  0  0  0  0  0
  190.6980  177.5240  142.4300 C   0  0  2  0  0  3  0  0  0  0  0  0
  190.7580  177.8450  143.9280 C   0  0  2  0  0  3  0  0  0  0  0  0
  192.7330  179.0690  144.4710 O   0  0  0  0  0  1  0  0  0  0  0  0
  191.5090  179.1140  144.1830 C   0  0  0  0  0  0  0  0  0  0  0  0
  190.8630  180.3430  144.1040 O   0  0  0  0  0  0  0  0  0  0  0  0
  191.4010  176.7050  144.7060 C   0  0  0  0  0  2  0  0  0  0  0  0
  189.7540  177.5130  146.2460 O   0  0  0  0  0  1  0  0  0  0  0  0
  190.6820  176.4910  146.0280 C   0  0  2  0  0  3  0  0  0  0  0  0
  191.6700  176.4530  147.1440 C   0  0  0  0  0  0  0  0  0  0  0  0
  192.6640  175.4340  147.1700 N   0  0  0  0  0  1  0  0  0  0  0  0
  191.6540  177.3330  148.0450 O   0  0  0  0  0  0  0  0  0  0  0  0
  189.7650  176.4580  134.9860 C   0  0  0  0  0  2  0  0  0  0  0  0
  187.6370  177.6760  134.5240 C   0  0  0  0  0  1  0  0  0  0  0  0
  188.3250  176.3240  134.5150 C   0  0  0  0  0  2  0  0  0  0  0  0
  1 19  1  1  0  0  0
  1  3  1  0  0  0  0
  4  2  1  6  0  0  0
  4  1  1  0  0  0  0
  5  9  1  6  0  0  0
  5  2  1  0  0  0  0
  6 15  1  1  0  0  0
  6 12  1  0  0  0  0
  7 30  1  6  0  0  0
  7  6  1  0  0  0  0
  7  9  1  0  0  0  0
  8 10  1  6  0  0  0
  8  4  1  0  0  0  0
  8 11  1  0  0  0  0
 11 14  1  0  0  0  0
 12  5  1  0  0  0  0
 13 16  1  1  0  0  0
 13  5  1  0  0  0  0
 13 10  1  0  0  0  0
 14  3  1  0  0  0  0
 17 16  2  0  0  0  0
 19 18  1  1  0  0  0
 19 20  1  0  0  0  0
 20 22  1  0  0  0  0
 20 24  1  1  0  0  0
 22 21  1  0  0  0  0
 23 22  2  0  0  0  0
 24 26  1  0  0  0  0
 26 25  1  1  0  0  0
 26 27  1  0  0  0  0
 27 28  1  0  0  0  0
 27 29  2  0  0  0  0
 32 31  1  0  0  0  0
 32 30  1  0  0  0  0
M  END
>  <MODEL>
4

>  <REMARK>
 VINA RESULT:      -5.3      4.545      6.264
  Name = 
  9 active torsions:
  status: ('A' for Active; 'I' for Inactive)
    1  A    between atoms: C_1  and  C_27
    2  A    between atoms: C_7  and  C_15
    3  A    between atoms: C_11  and  C_12
    4  A    between atoms: C_11  and  C_31
    5  A    between atoms: C_13  and  C_29
    6  A    between atoms: C_15  and  C_20
    7  A    between atoms: C_16  and  C_20
    8  A    between atoms: C_16  and  C_22
    9  A    between atoms: C_16  and  C_27
                            x       y       z     vdW  Elec       q    Type
                         _______ _______ _______ _____ _____    ______ ____

>  <TORSDO>
F 9

$$$$
=
 OpenBabel10272402073D

 32 34  0  0  1  0  0  0  0  0999 V2000
  184.8410  178.0830  142.1630 C   0  0  1  0  0  3  0  0  0  0  0  0
  183.7320  178.0890  139.9910 O   0  0  0  0  0  0  0  0  0  0  0  0
  184.5950  178.0800  143.6750 C   0  0  0  0  0  2  0  0  0  0  0  0
  183.5080  178.0450  141.3870 C   0  0  2  0  0  3  0  0  0  0  0  0
  182.5290  177.8140  139.2910 C   0  0  1  0  0  0  0  0  0  0  0  0
  181.3440  175.9210  138.3220 C   0  0  2  0  0  3  0  0  0  0  0  0
  181.9790  176.6890  137.1770 C   0  0  2  0  0  3  0  0  0  0  0  0
  182.5490  179.1570  141.8410 C   0  0  1  0  0  3  0  0  0  0  0  0
  182.8310  177.7820  137.7980 C   0  0  0  0  0  2  0  0  0  0  0  0
  181.2200  179.0040  141.1130 C   0  0  0  0  0  2  0  0  0  0  0  0
  182.3160  179.0710  143.3450 C   0  0  0  0  0  2  0  0  0  0  0  0
  182.0090  176.4090  139.5900 C   0  0  0  0  0  2  0  0  0  0  0  0
  181.4420  178.8790  139.6020 C   0  0  1  0  0  3  0  0  0  0  0  0
  183.6400  179.1990  144.0910 C   0  0  0  0  0  2  0  0  0  0  0  0
  181.5880  174.4350  138.1550 C   0  0  0  0  0  1  0  0  0  0  0  0
  181.7260  180.2280  138.9920 C   0  0  0  0  0  3  0  0  0  0  0  0
  180.9340  181.1520  139.0980 O   0  0  0  0  0  0  0  0  0  0  0  0
  185.4400  179.7830  140.5420 O   0  0  0  0  0  1  0  0  0  0  0  0
  185.8250  179.1960  141.7510 C   0  0  2  0  0  3  0  0  0  0  0  0
  187.2690  178.6870  141.6680 C   0  0  2  0  0  3  0  0  0  0  0  0
  188.7560  178.9420  139.8190 O   0  0  0  0  0  1  0  0  0  0  0  0
  187.6820  178.4470  140.2500 C   0  0  0  0  0  0  0  0  0  0  0  0
  186.8860  177.6820  139.4040 O   0  0  0  0  0  0  0  0  0  0  0  0
  187.4450  177.4080  142.4750 C   0  0  0  0  0  2  0  0  0  0  0  0
  189.4590  176.1310  142.7090 O   0  0  0  0  0  1  0  0  0  0  0  0
  188.8470  177.3370  143.0600 C   0  0  2  0  0  3  0  0  0  0  0  0
  188.7850  177.4640  144.5450 C   0  0  0  0  0  0  0  0  0  0  0  0
  189.8890  177.0360  145.3340 N   0  0  0  0  0  1  0  0  0  0  0  0
  187.7790  177.9780  145.1020 O   0  0  0  0  0  0  0  0  0  0  0  0
  180.9040  177.3210  136.3020 C   0  0  0  0  0  2  0  0  0  0  0  0
  180.4510  179.6600  135.5630 C   0  0  0  0  0  1  0  0  0  0  0  0
  181.4470  178.5160  135.5340 C   0  0  0  0  0  2  0  0  0  0  0  0
  1 19  1  6  0  0  0
  1  3  1  0  0  0  0
  3 14  1  0  0  0  0
  4  2  1  6  0  0  0
  4  8  1  0  0  0  0
  4  1  1  0  0  0  0
  5  9  1  6  0  0  0
  5 12  1  0  0  0  0
  5 13  1  0  0  0  0
  5  2  1  0  0  0  0
  6 15  1  6  0  0  0
  6 12  1  0  0  0  0
  7 30  1  6  0  0  0
  7  9  1  0  0  0  0
  7  6  1  0  0  0  0
  8 10  1  6  0  0  0
  8 11  1  0  0  0  0
 11 14  1  0  0  0  0
 13 16  1  1  0  0  0
 13 10  1  0  0  0  0
 16 17  2  0  0  0  0
 19 18  1  6  0  0  0
 20 19  1  0  0  0  0
 20 24  1  1  0  0  0
 21 22  1  0  0  0  0
 22 20  1  0  0  0  0
 23 22  2  0  0  0  0
 24 26  1  0  0  0  0
 26 25  1  1  0  0  0
 26 27  1  0  0  0  0
 27 29  2  0  0  0  0
 27 28  1  0  0  0  0
 32 31  1  0  0  0  0
 32 30  1  0  0  0  0
M  END
>  <MODEL>
5

>  <REMARK>
 VINA RESULT:      -5.3      2.296      4.159
  Name = 
  9 active torsions:
  status: ('A' for Active; 'I' for Inactive)
    1  A    between atoms: C_1  and  C_27
    2  A    between atoms: C_7  and  C_15
    3  A    between atoms: C_11  and  C_12
    4  A    between atoms: C_11  and  C_31
    5  A    between atoms: C_13  and  C_29
    6  A    between atoms: C_15  and  C_20
    7  A    between atoms: C_16  and  C_20
    8  A    between atoms: C_16  and  C_22
    9  A    between atoms: C_16  and  C_27
                            x       y       z     vdW  Elec       q    Type
                         _______ _______ _______ _____ _____    ______ ____

>  <TORSDO>
F 9

$$$$
=
 OpenBabel10272402073D

 32 34  0  0  1  0  0  0  0  0999 V2000
  190.1870  177.6000  138.9140 C   0  0  1  0  0  3  0  0  0  0  0  0
  190.4380  176.9910  141.2630 O   0  0  0  0  0  0  0  0  0  0  0  0
  189.3860  178.4730  137.9440 C   0  0  0  0  0  2  0  0  0  0  0  0
  189.7270  177.8260  140.3690 C   0  0  2  0  0  3  0  0  0  0  0  0
  190.1800  177.3750  142.6040 C   0  0  1  0  0  0  0  0  0  0  0  0
  191.1180  178.8150  144.3280 C   0  0  2  0  0  3  0  0  0  0  0  0
  191.4970  177.3870  144.6790 C   0  0  2  0  0  3  0  0  0  0  0  0
  188.2070  177.6550  140.5220 C   0  0  1  0  0  3  0  0  0  0  0  0
  191.0310  176.5120  143.5280 C   0  0  0  0  0  2  0  0  0  0  0  0
  187.8040  177.9890  141.9530 C   0  0  0  0  0  2  0  0  0  0  0  0
  187.4710  178.5800  139.5590 C   0  0  0  0  0  2  0  0  0  0  0  0
  190.6590  178.7980  142.8870 C   0  0  0  0  0  2  0  0  0  0  0  0
  188.6750  177.2230  142.9530 C   0  0  1  0  0  3  0  0  0  0  0  0
  187.8800  178.2750  138.1220 C   0  0  0  0  0  2  0  0  0  0  0  0
  192.3210  179.7240  144.4710 C   0  0  0  0  0  1  0  0  0  0  0  0
  188.2220  175.7890  143.0640 C   0  0  0  0  0  3  0  0  0  0  0  0
  187.2440  175.4810  143.7290 O   0  0  0  0  0  0  0  0  0  0  0  0
  191.2060  175.4130  139.1540 O   0  0  0  0  0  1  0  0  0  0  0  0
  190.2360  176.1310  138.4480 C   0  0  2  0  0  3  0  0  0  0  0  0
  190.4710  176.0120  136.9370 C   0  0  2  0  0  3  0  0  0  0  0  0
  189.2330  175.3640  135.0030 O   0  0  0  0  0  0  0  0  0  0  0  0
  189.3170  175.3430  136.2580 C   0  0  0  0  0  0  0  0  0  0  0  0
  188.3370  174.6980  137.0050 O   0  0  0  0  0  1  0  0  0  0  0  0
  191.7530  175.2460  136.6420 C   0  0  0  0  0  2  0  0  0  0  0  0
  193.0380  175.2950  134.6200 O   0  0  0  0  0  1  0  0  0  0  0  0
  192.6590  176.0570  135.7290 C   0  0  2  0  0  3  0  0  0  0  0  0
  193.8680  176.5030  136.4790 C   0  0  0  0  0  0  0  0  0  0  0  0
  195.1300  176.5410  135.8210 N   0  0  0  0  0  1  0  0  0  0  0  0
  193.7760  176.8790  137.6770 O   0  0  0  0  0  0  0  0  0  0  0  0
  190.7950  176.9530  145.9600 C   0  0  0  0  0  2  0  0  0  0  0  0
  188.4170  177.2620  146.6470 C   0  0  0  0  0  1  0  0  0  0  0  0
  189.7370  177.9600  146.3800 C   0  0  0  0  0  2  0  0  0  0  0  0
  1 19  1  6  0  0  0
  1  4  1  0  0  0  0
  2  5  1  0  0  0  0
  3 14  1  0  0  0  0
  3  1  1  0  0  0  0
  4  8  1  0  0  0  0
  4  2  1  1  0  0  0
  5 12  1  1  0  0  0
  5 13  1  0  0  0  0
  5  9  1  0  0  0  0
  6 15  1  6  0  0  0
  6  7  1  0  0  0  0
  7 30  1  1  0  0  0
  8 11  1  6  0  0  0
  8 10  1  0  0  0  0
  9  7  1  0  0  0  0
 10 13  1  0  0  0  0
 12  6  1  0  0  0  0
 13 16  1  6  0  0  0
 14 11  1  0  0  0  0
 16 17  2  0  0  0  0
 19 18  1  1  0  0  0
 20 24  1  1  0  0  0
 20 19  1  0  0  0  0
 21 22  2  0  0  0  0
 22 20  1  0  0  0  0
 22 23  1  0  0  0  0
 26 25  1  6  0  0  0
 26 27  1  0  0  0  0
 26 24  1  0  0  0  0
 27 29  2  0  0  0  0
 28 27  1  0  0  0  0
 30 32  1  0  0  0  0
 32 31  1  0  0  0  0
M  END
>  <MODEL>
6

>  <REMARK>
 VINA RESULT:      -5.2      4.942      9.357
  Name = 
  9 active torsions:
  status: ('A' for Active; 'I' for Inactive)
    1  A    between atoms: C_1  and  C_27
    2  A    between atoms: C_7  and  C_15
    3  A    between atoms: C_11  and  C_12
    4  A    between atoms: C_11  and  C_31
    5  A    between atoms: C_13  and  C_29
    6  A    between atoms: C_15  and  C_20
    7  A    between atoms: C_16  and  C_20
    8  A    between atoms: C_16  and  C_22
    9  A    between atoms: C_16  and  C_27
                            x       y       z     vdW  Elec       q    Type
                         _______ _______ _______ _____ _____    ______ ____

>  <TORSDO>
F 9

$$$$
=
 OpenBabel10272402073D

 32 34  0  0  1  0  0  0  0  0999 V2000
  185.0230  177.9860  142.5190 C   0  0  1  0  0  3  0  0  0  0  0  0
  184.3060  177.9870  140.1870 O   0  0  0  0  0  0  0  0  0  0  0  0
  184.5210  178.0390  143.9650 C   0  0  0  0  0  2  0  0  0  0  0  0
  183.8440  177.9960  141.5240 C   0  0  2  0  0  3  0  0  0  0  0  0
  183.2270  177.7560  139.2950 C   0  0  1  0  0  0  0  0  0  0  0  0
  182.1210  175.9020  138.1730 C   0  0  2  0  0  3  0  0  0  0  0  0
  182.9860  176.6020  137.1390 C   0  0  2  0  0  3  0  0  0  0  0  0
  182.8850  179.1690  141.7840 C   0  0  1  0  0  3  0  0  0  0  0  0
  183.7790  177.6660  137.8780 C   0  0  0  0  0  2  0  0  0  0  0  0
  181.6950  179.0660  140.8400 C   0  0  0  0  0  2  0  0  0  0  0  0
  182.3930  179.1390  143.2270 C   0  0  0  0  0  2  0  0  0  0  0  0
  182.5850  176.3890  139.5270 C   0  0  0  0  0  2  0  0  0  0  0  0
  182.1650  178.8850  139.3940 C   0  0  1  0  0  3  0  0  0  0  0  0
  183.5740  179.2180  144.1880 C   0  0  0  0  0  2  0  0  0  0  0  0
  182.3060  174.4010  138.0780 C   0  0  0  0  0  1  0  0  0  0  0  0
  182.6260  180.2000  138.8160 C   0  0  0  0  0  3  0  0  0  0  0  0
  181.8620  181.1470  138.7050 O   0  0  0  0  0  0  0  0  0  0  0  0
  185.8550  179.7730  141.1070 O   0  0  0  0  0  1  0  0  0  0  0  0
  186.1250  179.0320  142.2620 C   0  0  2  0  0  3  0  0  0  0  0  0
  187.5180  178.3970  142.1810 C   0  0  2  0  0  3  0  0  0  0  0  0
  187.2030  178.4740  139.8180 O   0  0  0  0  0  0  0  0  0  0  0  0
  188.0160  178.3520  140.7710 C   0  0  0  0  0  0  0  0  0  0  0  0
  189.3700  178.1770  140.5060 O   0  0  0  0  0  1  0  0  0  0  0  0
  187.5110  176.9900  142.7660 C   0  0  0  0  0  2  0  0  0  0  0  0
  188.3100  178.0860  144.7410 O   0  0  0  0  0  1  0  0  0  0  0  0
  188.4180  176.9160  143.9840 C   0  0  2  0  0  3  0  0  0  0  0  0
  189.8320  176.7170  143.5540 C   0  0  0  0  0  0  0  0  0  0  0  0
  190.1740  175.5840  142.7630 N   0  0  0  0  0  1  0  0  0  0  0  0
  190.7180  177.5600  143.8540 O   0  0  0  0  0  0  0  0  0  0  0  0
  182.1150  177.2640  136.0800 C   0  0  0  0  0  2  0  0  0  0  0  0
  180.0730  178.6650  136.3820 C   0  0  0  0  0  1  0  0  0  0  0  0
  180.6500  177.2670  136.4900 C   0  0  0  0  0  2  0  0  0  0  0  0
  1 19  1  6  0  0  0
  1  3  1  0  0  0  0
  3 14  1  0  0  0  0
  4  2  1  6  0  0  0
  4  8  1  0  0  0  0
  4  1  1  0  0  0  0
  5  9  1  6  0  0  0
  5 13  1  0  0  0  0
  5 12  1  0  0  0  0
  5  2  1  0  0  0  0
  6 15  1  1  0  0  0
  6 12  1  0  0  0  0
  7 30  1  6  0  0  0
  7  9  1  0  0  0  0
  7  6  1  0  0  0  0
  8 10  1  6  0  0  0
  8 11  1  0  0  0  0
 11 14  1  0  0  0  0
 13 16  1  1  0  0  0
 13 10  1  0  0  0  0
 17 16  2  0  0  0  0
 19 18  1  6  0  0  0
 20 19  1  0  0  0  0
 20 24  1  6  0  0  0
 21 22  2  0  0  0  0
 22 20  1  0  0  0  0
 23 22  1  0  0  0  0
 24 26  1  0  0  0  0
 26 25  1  6  0  0  0
 27 29  2  0  0  0  0
 27 26  1  0  0  0  0
 28 27  1  0  0  0  0
 30 32  1  0  0  0  0
 31 32  1  0  0  0  0
M  END
>  <MODEL>
7

>  <REMARK>
 VINA RESULT:      -5.1      2.319      4.179
  Name = 
  9 active torsions:
  status: ('A' for Active; 'I' for Inactive)
    1  A    between atoms: C_1  and  C_27
    2  A    between atoms: C_7  and  C_15
    3  A    between atoms: C_11  and  C_12
    4  A    between atoms: C_11  and  C_31
    5  A    between atoms: C_13  and  C_29
    6  A    between atoms: C_15  and  C_20
    7  A    between atoms: C_16  and  C_20
    8  A    between atoms: C_16  and  C_22
    9  A    between atoms: C_16  and  C_27
                            x       y       z     vdW  Elec       q    Type
                         _______ _______ _______ _____ _____    ______ ____

>  <TORSDO>
F 9

$$$$
=
 OpenBabel10272402073D

 32 34  0  0  1  0  0  0  0  0999 V2000
  188.8790  177.0360  138.6310 C   0  0  1  0  0  3  0  0  0  0  0  0
  188.5850  174.8940  137.5000 O   0  0  0  0  0  0  0  0  0  0  0  0
  188.5660  178.5320  138.5420 C   0  0  0  0  0  2  0  0  0  0  0  0
  188.2630  176.2710  137.4410 C   0  0  2  0  0  3  0  0  0  0  0  0
  187.8240  174.1700  136.5470 C   0  0  1  0  0  0  0  0  0  0  0  0
  185.7270  172.9430  136.4020 C   0  0  2  0  0  3  0  0  0  0  0  0
  186.8450  171.9170  136.4710 C   0  0  2  0  0  3  0  0  0  0  0  0
  188.6650  176.8890  136.0930 C   0  0  1  0  0  3  0  0  0  0  0  0
  188.1340  172.6870  136.7040 C   0  0  0  0  0  2  0  0  0  0  0  0
  187.9480  176.1550  134.9680 C   0  0  0  0  0  2  0  0  0  0  0  0
  188.2890  178.3660  136.0550 C   0  0  0  0  0  2  0  0  0  0  0  0
  186.3250  174.2640  136.8310 C   0  0  0  0  0  2  0  0  0  0  0  0
  188.1390  174.6410  135.1010 C   0  0  1  0  0  3  0  0  0  0  0  0
  188.9820  179.1140  137.1900 C   0  0  0  0  0  2  0  0  0  0  0  0
  184.6060  172.5580  137.3460 C   0  0  0  0  0  1  0  0  0  0  0  0
  189.5070  174.2320  134.6170 C   0  0  0  0  0  3  0  0  0  0  0  0
  190.3660  175.0640  134.3630 O   0  0  0  0  0  0  0  0  0  0  0  0
  190.6630  175.4150  138.8930 O   0  0  0  0  0  1  0  0  0  0  0  0
  190.3780  176.7830  138.8850 C   0  0  2  0  0  3  0  0  0  0  0  0
  190.8630  177.4430  140.1820 C   0  0  2  0  0  3  0  0  0  0  0  0
  192.8370  177.1910  141.4980 O   0  0  0  0  0  1  0  0  0  0  0  0
  192.3440  177.2990  140.3460 C   0  0  0  0  0  0  0  0  0  0  0  0
  193.1780  177.2860  139.2330 O   0  0  0  0  0  0  0  0  0  0  0  0
  190.1550  176.8510  141.3940 C   0  0  0  0  0  2  0  0  0  0  0  0
  190.1370  178.3600  143.2540 O   0  0  0  0  0  1  0  0  0  0  0  0
  189.3980  177.9330  142.1480 C   0  0  2  0  0  3  0  0  0  0  0  0
  188.0730  177.4120  142.5900 C   0  0  0  0  0  0  0  0  0  0  0  0
  188.0050  176.2030  143.3390 N   0  0  0  0  0  1  0  0  0  0  0  0
  187.0170  178.0500  142.3360 O   0  0  0  0  0  0  0  0  0  0  0  0
  186.9420  171.1520  135.1580 C   0  0  0  0  0  2  0  0  0  0  0  0
  187.8610  168.8350  135.0430 C   0  0  0  0  0  1  0  0  0  0  0  0
  188.2080  170.3100  135.1000 C   0  0  0  0  0  2  0  0  0  0  0  0
  1 19  1  6  0  0  0
  3  1  1  0  0  0  0
  4  2  1  6  0  0  0
  4  1  1  0  0  0  0
  5  9  1  1  0  0  0
  5 12  1  0  0  0  0
  5  2  1  0  0  0  0
  6  7  1  0  0  0  0
  6 12  1  0  0  0  0
  6 15  1  1  0  0  0
  7 30  1  6  0  0  0
  7  9  1  0  0  0  0
  8 10  1  6  0  0  0
  8  4  1  0  0  0  0
 10 13  1  0  0  0  0
 11  8  1  0  0  0  0
 11 14  1  0  0  0  0
 13 16  1  1  0  0  0
 13  5  1  0  0  0  0
 14  3  1  0  0  0  0
 17 16  2  0  0  0  0
 19 18  1  1  0  0  0
 19 20  1  0  0  0  0
 20 22  1  0  0  0  0
 20 24  1  1  0  0  0
 22 21  1  0  0  0  0
 23 22  2  0  0  0  0
 24 26  1  0  0  0  0
 26 27  1  0  0  0  0
 26 25  1  1  0  0  0
 27 28  1  0  0  0  0
 29 27  2  0  0  0  0
 31 32  1  0  0  0  0
 32 30  1  0  0  0  0
M  END
>  <MODEL>
8

>  <REMARK>
 VINA RESULT:      -5.1      4.683      6.767
  Name = 
  9 active torsions:
  status: ('A' for Active; 'I' for Inactive)
    1  A    between atoms: C_1  and  C_27
    2  A    between atoms: C_7  and  C_15
    3  A    between atoms: C_11  and  C_12
    4  A    between atoms: C_11  and  C_31
    5  A    between atoms: C_13  and  C_29
    6  A    between atoms: C_15  and  C_20
    7  A    between atoms: C_16  and  C_20
    8  A    between atoms: C_16  and  C_22
    9  A    between atoms: C_16  and  C_27
                            x       y       z     vdW  Elec       q    Type
                         _______ _______ _______ _____ _____    ______ ____

>  <TORSDO>
F 9

$$$$
=
 OpenBabel10272402073D

 32 34  0  0  1  0  0  0  0  0999 V2000
  188.8410  176.8030  137.1900 C   0  0  1  0  0  3  0  0  0  0  0  0
  187.4080  174.8290  137.1660 O   0  0  0  0  0  0  0  0  0  0  0  0
  189.1440  178.1170  136.4640 C   0  0  0  0  0  2  0  0  0  0  0  0
  187.6640  176.0620  136.5220 C   0  0  2  0  0  3  0  0  0  0  0  0
  186.1870  174.2760  136.7020 C   0  0  1  0  0  0  0  0  0  0  0  0
  183.8250  174.2570  137.2890 C   0  0  2  0  0  3  0  0  0  0  0  0
  184.4070  172.9220  137.7220 C   0  0  2  0  0  3  0  0  0  0  0  0
  187.8860  175.8770  135.0130 C   0  0  1  0  0  3  0  0  0  0  0  0
  185.9050  172.9980  137.4830 C   0  0  0  0  0  2  0  0  0  0  0  0
  186.6510  175.2330  134.3970 C   0  0  0  0  0  2  0  0  0  0  0  0
  188.1410  177.2240  134.3470 C   0  0  0  0  0  2  0  0  0  0  0  0
  184.9970  175.1760  137.0310 C   0  0  0  0  0  2  0  0  0  0  0  0
  186.2470  173.9800  135.1790 C   0  0  1  0  0  3  0  0  0  0  0  0
  189.3630  177.8950  134.9680 C   0  0  0  0  0  2  0  0  0  0  0  0
  182.9570  174.8300  138.3900 C   0  0  0  0  0  1  0  0  0  0  0  0
  187.1410  172.8190  134.8240 C   0  0  0  0  0  3  0  0  0  0  0  0
  186.6850  171.7870  134.3540 O   0  0  0  0  0  0  0  0  0  0  0  0
  189.8090  174.7030  137.9170 O   0  0  0  0  0  1  0  0  0  0  0  0
  190.1180  175.9690  137.4110 C   0  0  2  0  0  3  0  0  0  0  0  0
  191.1240  176.6840  138.3220 C   0  0  2  0  0  3  0  0  0  0  0  0
  193.4860  176.7970  138.6350 O   0  0  0  0  0  1  0  0  0  0  0  0
  192.5330  176.3370  137.9550 C   0  0  0  0  0  0  0  0  0  0  0  0
  192.7950  175.5120  136.8670 O   0  0  0  0  0  0  0  0  0  0  0  0
  190.8770  176.3390  139.7850 C   0  0  0  0  0  2  0  0  0  0  0  0
  191.4730  177.6780  141.6800 O   0  0  0  0  0  1  0  0  0  0  0  0
  190.6040  177.6000  140.5890 C   0  0  2  0  0  3  0  0  0  0  0  0
  189.1900  177.6050  141.0620 C   0  0  0  0  0  0  0  0  0  0  0  0
  188.2250  178.4070  140.3890 N   0  0  0  0  0  1  0  0  0  0  0  0
  188.8350  176.8810  142.0290 O   0  0  0  0  0  0  0  0  0  0  0  0
  183.8170  171.7920  136.8890 C   0  0  0  0  0  2  0  0  0  0  0  0
  181.5170  171.3470  136.0300 C   0  0  0  0  0  1  0  0  0  0  0  0
  182.7020  172.2930  135.9840 C   0  0  0  0  0  2  0  0  0  0  0  0
  1 19  1  6  0  0  0
  3  1  1  0  0  0  0
  4  2  1  1  0  0  0
  4  1  1  0  0  0  0
  5 12  1  1  0  0  0
  5  2  1  0  0  0  0
  5  9  1  0  0  0  0
  6  7  1  0  0  0  0
  6 15  1  1  0  0  0
  7 30  1  6  0  0  0
  8 11  1  6  0  0  0
  8  4  1  0  0  0  0
  9  7  1  0  0  0  0
 10  8  1  0  0  0  0
 10 13  1  0  0  0  0
 11 14  1  0  0  0  0
 12  6  1  0  0  0  0
 13 16  1  1  0  0  0
 13  5  1  0  0  0  0
 14  3  1  0  0  0  0
 17 16  2  0  0  0  0
 19 18  1  1  0  0  0
 19 20  1  0  0  0  0
 20 24  1  1  0  0  0
 22 20  1  0  0  0  0
 22 21  1  0  0  0  0
 23 22  2  0  0  0  0
 24 26  1  0  0  0  0
 26 27  1  0  0  0  0
 26 25  1  1  0  0  0
 27 29  2  0  0  0  0
 28 27  1  0  0  0  0
 32 31  1  0  0  0  0
 32 30  1  0  0  0  0
M  END
>  <MODEL>
9

>  <REMARK>
 VINA RESULT:      -4.9      4.454      6.455
  Name = 
  9 active torsions:
  status: ('A' for Active; 'I' for Inactive)
    1  A    between atoms: C_1  and  C_27
    2  A    between atoms: C_7  and  C_15
    3  A    between atoms: C_11  and  C_12
    4  A    between atoms: C_11  and  C_31
    5  A    between atoms: C_13  and  C_29
    6  A    between atoms: C_15  and  C_20
    7  A    between atoms: C_16  and  C_20
    8  A    between atoms: C_16  and  C_22
    9  A    between atoms: C_16  and  C_27
                            x       y       z     vdW  Elec       q    Type
                         _______ _______ _______ _____ _____    ______ ____

>  <TORSDO>
F 9

$$$$
