=
 OpenBabel10272401013D

 27 30  0  0  1  0  0  0  0  0999 V2000
  189.3510  177.3750  143.9160 C   0  0  1  0  0  3  0  0  0  0  0  0
  187.8920  177.6880  144.1340 C   0  0  0  0  0  0  0  0  0  0  0  0
  183.7430  178.5820  144.8670 C   0  0  0  0  0  2  0  0  0  0  0  0
  181.9510  179.9320  143.7670 O   0  0  0  0  0  1  0  0  0  0  0  0
  187.4630  178.0550  145.4140 C   0  0  0  0  0  3  0  0  0  0  0  0
  184.6190  177.8060  142.2030 C   0  0  0  0  0  2  0  0  0  0  0  0
  183.4600  178.7420  142.4080 C   0  0  0  0  0  3  0  0  0  0  0  0
  186.9620  177.6200  143.0860 C   0  0  0  0  0  3  0  0  0  0  0  0
  183.0470  179.0910  143.6320 C   0  0  0  0  0  0  0  0  0  0  0  0
  185.1930  178.2910  144.6050 C   0  0  0  0  0  0  0  0  0  0  0  0
  185.6190  177.9250  143.3160 C   0  0  0  0  0  0  0  0  0  0  0  0
  186.1170  178.3510  145.6520 C   0  0  0  0  0  3  0  0  0  0  0  0
  190.1190  178.2550  142.8880 C   0  0  2  0  0  0  0  0  0  0  0  0
  192.0540  176.9240  142.4990 O   0  0  0  0  0  0  0  0  0  0  0  0
  190.4540  175.9000  140.2820 O   0  0  0  0  0  1  0  0  0  0  0  0
  189.8130  178.1760  139.9070 C   0  0  0  0  0  2  0  0  0  0  0  0
  190.9490  179.2880  143.6400 C   0  0  0  0  0  1  0  0  0  0  0  0
  190.8290  177.2210  140.5260 C   0  0  1  0  0  3  0  0  0  0  0  0
  188.6220  178.3680  140.8230 C   0  0  0  0  0  2  0  0  0  0  0  0
  189.1050  179.0770  142.0760 C   0  0  0  0  0  2  0  0  0  0  0  0
  191.0600  177.4350  142.0040 C   0  0  0  0  0  0  0  0  0  0  0  0
  191.4930  176.3260  147.5030 C   0  0  0  0  0  3  0  0  0  0  0  0
  190.0850  177.0190  145.1810 C   0  0  0  0  0  0  0  0  0  0  0  0
  189.6560  177.4850  146.4320 C   0  0  0  0  0  3  0  0  0  0  0  0
  190.3580  177.1390  147.5900 C   0  0  0  0  0  3  0  0  0  0  0  0
  191.9230  175.8580  146.2580 C   0  0  0  0  0  3  0  0  0  0  0  0
  191.2190  176.2030  145.1000 C   0  0  0  0  0  3  0  0  0  0  0  0
  1  2  1  1  0  0  0
  1 23  1  0  0  0  0
  2  5  1  0  0  0  0
  5 12  2  0  0  0  0
  6  7  1  0  0  0  0
  6 11  1  0  0  0  0
  7  9  2  0  0  0  0
  8 11  1  0  0  0  0
  8  2  2  0  0  0  0
  9  4  1  0  0  0  0
  9  3  1  0  0  0  0
 10  3  1  0  0  0  0
 10 12  1  0  0  0  0
 11 10  2  0  0  0  0
 13 17  1  1  0  0  0
 13  1  1  0  0  0  0
 16 18  1  0  0  0  0
 16 19  1  0  0  0  0
 18 15  1  1  0  0  0
 18 21  1  0  0  0  0
 19 20  1  0  0  0  0
 20 13  1  0  0  0  0
 21 14  2  0  0  0  0
 21 13  1  0  0  0  0
 22 25  1  0  0  0  0
 23 24  1  0  0  0  0
 24 25  2  0  0  0  0
 26 22  2  0  0  0  0
 27 23  2  0  0  0  0
 27 26  1  0  0  0  0
M  END
>  <MODEL>
1

>  <REMARK>
 VINA RESULT:      -9.7      0.000      0.000
  Name = 
  3 active torsions:
  status: ('A' for Active; 'I' for Inactive)
    1  A    between atoms: C_1  and  C_15
    2  A    between atoms: C_2  and  C_15
    3  A    between atoms: C_9  and  C_15
                            x       y       z     vdW  Elec       q    Type
                         _______ _______ _______ _____ _____    ______ ____

>  <TORSDO>
F 3

$$$$
=
 OpenBabel10272401013D

 27 30  0  0  1  0  0  0  0  0999 V2000
  187.8370  177.3270  144.2560 C   0  0  1  0  0  3  0  0  0  0  0  0
  186.5270  177.7780  143.6610 C   0  0  0  0  0  0  0  0  0  0  0  0
  182.8340  179.0740  141.8620 C   0  0  0  0  0  2  0  0  0  0  0  0
  180.3990  178.6130  142.1730 O   0  0  0  0  0  1  0  0  0  0  0  0
  186.3980  177.8300  142.2690 C   0  0  0  0  0  3  0  0  0  0  0  0
  183.0930  178.9870  144.7590 C   0  0  0  0  0  2  0  0  0  0  0  0
  181.7720  178.7520  144.0790 C   0  0  0  0  0  3  0  0  0  0  0  0
  185.4410  178.1460  144.4700 C   0  0  0  0  0  3  0  0  0  0  0  0
  181.6470  178.8040  142.7480 C   0  0  0  0  0  0  0  0  0  0  0  0
  184.1140  178.6020  142.4900 C   0  0  0  0  0  0  0  0  0  0  0  0
  184.2370  178.5500  143.8910 C   0  0  0  0  0  0  0  0  0  0  0  0
  185.1980  178.2440  141.6830 C   0  0  0  0  0  3  0  0  0  0  0  0
  189.1250  177.6080  143.4290 C   0  0  2  0  0  0  0  0  0  0  0  0
  190.2640  179.1350  144.8570 O   0  0  0  0  0  0  0  0  0  0  0  0
  191.5380  176.6980  145.8380 O   0  0  0  0  0  1  0  0  0  0  0  0
  191.6790  176.0410  143.5400 C   0  0  0  0  0  2  0  0  0  0  0  0
  188.8400  178.7180  142.4260 C   0  0  0  0  0  1  0  0  0  0  0  0
  191.5260  177.1890  144.5320 C   0  0  1  0  0  3  0  0  0  0  0  0
  190.3470  175.3700  143.2770 C   0  0  0  0  0  2  0  0  0  0  0  0
  189.4490  176.3730  142.5730 C   0  0  0  0  0  2  0  0  0  0  0  0
  190.3000  178.0430  144.3070 C   0  0  0  0  0  0  0  0  0  0  0  0
  188.1380  177.8980  148.5150 C   0  0  0  0  0  3  0  0  0  0  0  0
  187.9290  177.5430  145.7430 C   0  0  0  0  0  0  0  0  0  0  0  0
  187.2800  178.6170  146.3680 C   0  0  0  0  0  3  0  0  0  0  0  0
  187.3840  178.7940  147.7500 C   0  0  0  0  0  3  0  0  0  0  0  0
  188.7850  176.8240  147.8960 C   0  0  0  0  0  3  0  0  0  0  0  0
  188.6790  176.6470  146.5130 C   0  0  0  0  0  3  0  0  0  0  0  0
  1  2  1  6  0  0  0
  1 23  1  0  0  0  0
  2  8  1  0  0  0  0
  3 10  1  0  0  0  0
  3  9  1  0  0  0  0
  4  9  1  0  0  0  0
  5  2  2  0  0  0  0
  7  6  1  0  0  0  0
  9  7  2  0  0  0  0
 10 11  1  0  0  0  0
 11  8  2  0  0  0  0
 11  6  1  0  0  0  0
 12  5  1  0  0  0  0
 12 10  2  0  0  0  0
 13 17  1  6  0  0  0
 13  1  1  0  0  0  0
 13 21  1  0  0  0  0
 16 18  1  0  0  0  0
 18 15  1  1  0  0  0
 19 16  1  0  0  0  0
 20 19  1  0  0  0  0
 20 13  1  0  0  0  0
 21 18  1  0  0  0  0
 21 14  2  0  0  0  0
 23 24  2  0  0  0  0
 23 27  1  0  0  0  0
 24 25  1  0  0  0  0
 25 22  2  0  0  0  0
 26 22  1  0  0  0  0
 27 26  2  0  0  0  0
M  END
>  <MODEL>
2

>  <REMARK>
 VINA RESULT:      -9.6      1.955      3.134
  Name = 
  3 active torsions:
  status: ('A' for Active; 'I' for Inactive)
    1  A    between atoms: C_1  and  C_15
    2  A    between atoms: C_2  and  C_15
    3  A    between atoms: C_9  and  C_15
                            x       y       z     vdW  Elec       q    Type
                         _______ _______ _______ _____ _____    ______ ____

>  <TORSDO>
F 3

$$$$
=
 OpenBabel10272401013D

 27 30  0  0  1  0  0  0  0  0999 V2000
  182.3030  178.4540  139.8220 C   0  0  1  0  0  3  0  0  0  0  0  0
  182.9720  178.5120  141.1720 C   0  0  0  0  0  0  0  0  0  0  0  0
  184.7860  178.7170  145.0730 C   0  0  0  0  0  2  0  0  0  0  0  0
  186.4340  177.3750  146.3860 O   0  0  0  0  0  1  0  0  0  0  0  0
  182.1890  178.7650  142.3040 C   0  0  0  0  0  3  0  0  0  0  0  0
  186.4280  178.2060  142.7260 C   0  0  0  0  0  2  0  0  0  0  0  0
  186.7860  177.6450  144.0750 C   0  0  0  0  0  3  0  0  0  0  0  0
  184.3540  178.3180  141.3160 C   0  0  0  0  0  3  0  0  0  0  0  0
  186.0400  177.8880  145.1580 C   0  0  0  0  0  0  0  0  0  0  0  0
  184.1510  178.6240  143.7150 C   0  0  0  0  0  0  0  0  0  0  0  0
  184.9430  178.3670  142.5810 C   0  0  0  0  0  0  0  0  0  0  0  0
  182.7750  178.8260  143.5720 C   0  0  0  0  0  3  0  0  0  0  0  0
  181.5250  177.1530  139.4700 C   0  0  2  0  0  0  0  0  0  0  0  0
  179.9820  177.9640  137.8490 O   0  0  0  0  0  0  0  0  0  0  0  0
  182.0590  177.1130  135.9830 O   0  0  0  0  0  1  0  0  0  0  0  0
  182.2650  175.1620  137.3550 C   0  0  0  0  0  2  0  0  0  0  0  0
  180.4010  176.9580  140.4800 C   0  0  0  0  0  1  0  0  0  0  0  0
  181.3890  176.3350  136.9270 C   0  0  1  0  0  3  0  0  0  0  0  0
  183.2470  175.5810  138.4290 C   0  0  0  0  0  2  0  0  0  0  0  0
  182.4540  175.9450  139.6730 C   0  0  0  0  0  2  0  0  0  0  0  0
  180.9100  177.1990  138.0700 C   0  0  0  0  0  0  0  0  0  0  0  0
  180.5150  182.1770  138.6000 C   0  0  0  0  0  3  0  0  0  0  0  0
  181.6640  179.7540  139.4110 C   0  0  0  0  0  0  0  0  0  0  0  0
  180.5560  180.2730  140.0950 C   0  0  0  0  0  3  0  0  0  0  0  0
  179.9820  181.4810  139.6900 C   0  0  0  0  0  3  0  0  0  0  0  0
  181.6220  181.6650  137.9170 C   0  0  0  0  0  3  0  0  0  0  0  0
  182.1950  180.4560  138.3230 C   0  0  0  0  0  3  0  0  0  0  0  0
  1 23  1  1  0  0  0
  1  2  1  0  0  0  0
  2  8  2  0  0  0  0
  2  5  1  0  0  0  0
  3  9  1  0  0  0  0
  5 12  2  0  0  0  0
  6  7  1  0  0  0  0
  7  9  2  0  0  0  0
  8 11  1  0  0  0  0
  9  4  1  0  0  0  0
 10  3  1  0  0  0  0
 11  6  1  0  0  0  0
 11 10  2  0  0  0  0
 12 10  1  0  0  0  0
 13 20  1  0  0  0  0
 13  1  1  0  0  0  0
 13 17  1  1  0  0  0
 14 21  2  0  0  0  0
 16 19  1  0  0  0  0
 18 15  1  6  0  0  0
 18 16  1  0  0  0  0
 18 21  1  0  0  0  0
 19 20  1  0  0  0  0
 21 13  1  0  0  0  0
 22 25  1  0  0  0  0
 23 24  1  0  0  0  0
 25 24  2  0  0  0  0
 26 27  1  0  0  0  0
 26 22  2  0  0  0  0
 27 23  2  0  0  0  0
M  END
>  <MODEL>
3

>  <REMARK>
 VINA RESULT:      -9.0      4.206      8.868
  Name = 
  3 active torsions:
  status: ('A' for Active; 'I' for Inactive)
    1  A    between atoms: C_1  and  C_15
    2  A    between atoms: C_2  and  C_15
    3  A    between atoms: C_9  and  C_15
                            x       y       z     vdW  Elec       q    Type
                         _______ _______ _______ _____ _____    ______ ____

>  <TORSDO>
F 3

$$$$
=
 OpenBabel10272401013D

 27 30  0  0  1  0  0  0  0  0999 V2000
  189.1020  176.7640  138.3930 C   0  0  1  0  0  3  0  0  0  0  0  0
  189.2520  177.1730  139.8360 C   0  0  0  0  0  0  0  0  0  0  0  0
  189.5900  178.4070  143.9490 C   0  0  0  0  0  2  0  0  0  0  0  0
  190.2790  177.3610  146.1110 O   0  0  0  0  0  1  0  0  0  0  0  0
  188.2180  177.8920  140.4470 C   0  0  0  0  0  3  0  0  0  0  0  0
  191.7540  176.9260  142.6880 C   0  0  0  0  0  2  0  0  0  0  0  0
  191.4670  176.8000  144.1590 C   0  0  0  0  0  3  0  0  0  0  0  0
  190.3990  176.8490  140.5750 C   0  0  0  0  0  3  0  0  0  0  0  0
  190.4810  177.4880  144.7440 C   0  0  0  0  0  0  0  0  0  0  0  0
  189.4640  177.9570  142.5220 C   0  0  0  0  0  0  0  0  0  0  0  0
  190.5060  177.2330  141.9140 C   0  0  0  0  0  0  0  0  0  0  0  0
  188.3240  178.2870  141.7840 C   0  0  0  0  0  3  0  0  0  0  0  0
  188.4360  177.7910  137.4300 C   0  0  2  0  0  0  0  0  0  0  0  0
  189.6010  177.3430  135.4040 O   0  0  0  0  0  0  0  0  0  0  0  0
  187.3350  175.5660  134.9230 O   0  0  0  0  0  1  0  0  0  0  0  0
  185.9730  177.3370  135.7830 C   0  0  0  0  0  2  0  0  0  0  0  0
  189.1420  179.1330  137.5700 C   0  0  0  0  0  1  0  0  0  0  0  0
  187.3070  176.9400  135.1600 C   0  0  1  0  0  3  0  0  0  0  0  0
  185.9820  177.1020  137.2800 C   0  0  0  0  0  2  0  0  0  0  0  0
  186.9940  178.0510  137.8970 C   0  0  0  0  0  2  0  0  0  0  0  0
  188.5160  177.3560  135.9660 C   0  0  0  0  0  0  0  0  0  0  0  0
  192.4550  174.5470  136.8450 C   0  0  0  0  0  3  0  0  0  0  0  0
  190.2860  176.0060  137.8560 C   0  0  0  0  0  0  0  0  0  0  0  0
  191.5550  176.5970  137.7670 C   0  0  0  0  0  3  0  0  0  0  0  0
  192.6360  175.8700  137.2630 C   0  0  0  0  0  3  0  0  0  0  0  0
  191.1930  173.9530  136.9350 C   0  0  0  0  0  3  0  0  0  0  0  0
  190.1110  174.6820  137.4400 C   0  0  0  0  0  3  0  0  0  0  0  0
  1 23  1  6  0  0  0
  1  2  1  0  0  0  0
  2  5  2  0  0  0  0
  2  8  1  0  0  0  0
  3  9  1  0  0  0  0
  5 12  1  0  0  0  0
  6  7  1  0  0  0  0
  7  9  2  0  0  0  0
  8 11  2  0  0  0  0
  9  4  1  0  0  0  0
 10  3  1  0  0  0  0
 11 10  1  0  0  0  0
 11  6  1  0  0  0  0
 12 10  2  0  0  0  0
 13 17  1  1  0  0  0
 13 20  1  0  0  0  0
 13  1  1  0  0  0  0
 14 21  2  0  0  0  0
 16 19  1  0  0  0  0
 18 15  1  1  0  0  0
 18 16  1  0  0  0  0
 18 21  1  0  0  0  0
 19 20  1  0  0  0  0
 21 13  1  0  0  0  0
 22 26  2  0  0  0  0
 22 25  1  0  0  0  0
 24 23  1  0  0  0  0
 25 24  2  0  0  0  0
 26 27  1  0  0  0  0
 27 23  2  0  0  0  0
M  END
>  <MODEL>
4

>  <REMARK>
 VINA RESULT:      -8.6      3.440      6.966
  Name = 
  3 active torsions:
  status: ('A' for Active; 'I' for Inactive)
    1  A    between atoms: C_1  and  C_15
    2  A    between atoms: C_2  and  C_15
    3  A    between atoms: C_9  and  C_15
                            x       y       z     vdW  Elec       q    Type
                         _______ _______ _______ _____ _____    ______ ____

>  <TORSDO>
F 3

$$$$
=
 OpenBabel10272401013D

 27 30  0  0  1  0  0  0  0  0999 V2000
  188.4160  177.1340  144.1690 C   0  0  1  0  0  3  0  0  0  0  0  0
  188.2910  177.4610  142.7030 C   0  0  0  0  0  0  0  0  0  0  0  0
  187.8430  178.4550  138.5360 C   0  0  0  0  0  2  0  0  0  0  0  0
  189.3570  178.9010  136.5990 O   0  0  0  0  0  1  0  0  0  0  0  0
  187.3950  178.4600  142.3060 C   0  0  0  0  0  3  0  0  0  0  0  0
  189.6990  176.3650  139.3450 C   0  0  0  0  0  2  0  0  0  0  0  0
  189.9510  177.2140  138.1300 C   0  0  0  0  0  3  0  0  0  0  0  0
  189.0500  176.7880  141.7340 C   0  0  0  0  0  3  0  0  0  0  0  0
  189.0940  178.1680  137.7480 C   0  0  0  0  0  0  0  0  0  0  0  0
  188.0160  178.1230  139.9910 C   0  0  0  0  0  0  0  0  0  0  0  0
  188.9200  177.1190  140.3830 C   0  0  0  0  0  0  0  0  0  0  0  0
  187.2530  178.7880  140.9550 C   0  0  0  0  0  3  0  0  0  0  0  0
  189.8320  177.2550  144.8050 C   0  0  2  0  0  0  0  0  0  0  0  0
  190.9540  175.4230  143.7800 O   0  0  0  0  0  0  0  0  0  0  0  0
  191.7500  177.4650  141.8510 O   0  0  0  0  0  1  0  0  0  0  0  0
  192.1170  178.8810  143.7470 C   0  0  0  0  0  2  0  0  0  0  0  0
  189.8350  176.5390  146.1490 C   0  0  0  0  0  1  0  0  0  0  0  0
  191.9820  177.4530  143.2270 C   0  0  1  0  0  3  0  0  0  0  0  0
  190.7570  179.4960  144.0030 C   0  0  0  0  0  2  0  0  0  0  0  0
  190.1040  178.7300  145.1410 C   0  0  0  0  0  2  0  0  0  0  0  0
  190.9220  176.6360  143.9280 C   0  0  0  0  0  0  0  0  0  0  0  0
  185.0740  178.5500  146.4890 C   0  0  0  0  0  3  0  0  0  0  0  0
  187.2610  177.6310  144.9970 C   0  0  0  0  0  0  0  0  0  0  0  0
  187.4170  177.9560  146.3520 C   0  0  0  0  0  3  0  0  0  0  0  0
  186.3270  178.4140  147.0960 C   0  0  0  0  0  3  0  0  0  0  0  0
  184.9140  178.2300  145.1380 C   0  0  0  0  0  3  0  0  0  0  0  0
  186.0060  177.7730  144.3940 C   0  0  0  0  0  3  0  0  0  0  0  0
  1  2  1  6  0  0  0
  1 13  1  0  0  0  0
  1 23  1  0  0  0  0
  3 10  1  0  0  0  0
  4  9  1  0  0  0  0
  5  2  1  0  0  0  0
  6 11  1  0  0  0  0
  7  6  1  0  0  0  0
  8  2  2  0  0  0  0
  9  7  2  0  0  0  0
  9  3  1  0  0  0  0
 10 11  2  0  0  0  0
 10 12  1  0  0  0  0
 11  8  1  0  0  0  0
 12  5  2  0  0  0  0
 13 20  1  0  0  0  0
 13 17  1  1  0  0  0
 14 21  2  0  0  0  0
 16 19  1  0  0  0  0
 18 15  1  6  0  0  0
 18 16  1  0  0  0  0
 18 21  1  0  0  0  0
 19 20  1  0  0  0  0
 21 13  1  0  0  0  0
 22 25  1  0  0  0  0
 23 24  1  0  0  0  0
 24 25  2  0  0  0  0
 26 22  2  0  0  0  0
 27 23  2  0  0  0  0
 27 26  1  0  0  0  0
M  END
>  <MODEL>
5

>  <REMARK>
 VINA RESULT:      -8.6      2.518      5.036
  Name = 
  3 active torsions:
  status: ('A' for Active; 'I' for Inactive)
    1  A    between atoms: C_1  and  C_15
    2  A    between atoms: C_2  and  C_15
    3  A    between atoms: C_9  and  C_15
                            x       y       z     vdW  Elec       q    Type
                         _______ _______ _______ _____ _____    ______ ____

>  <TORSDO>
F 3

$$$$
=
 OpenBabel10272401013D

 27 30  0  0  1  0  0  0  0  0999 V2000
  183.1140  178.7950  139.1840 C   0  0  1  0  0  3  0  0  0  0  0  0
  183.8090  178.7140  140.5200 C   0  0  0  0  0  0  0  0  0  0  0  0
  185.8900  178.4670  144.2830 C   0  0  0  0  0  2  0  0  0  0  0  0
  185.7170  179.5430  146.5320 O   0  0  0  0  0  1  0  0  0  0  0  0
  185.2080  178.7280  140.5570 C   0  0  0  0  0  3  0  0  0  0  0  0
  182.9810  178.4220  144.2200 C   0  0  0  0  0  2  0  0  0  0  0  0
  183.7340  179.0090  145.3820 C   0  0  0  0  0  3  0  0  0  0  0  0
  183.0860  178.6260  141.7190 C   0  0  0  0  0  3  0  0  0  0  0  0
  185.0710  179.0200  145.4200 C   0  0  0  0  0  0  0  0  0  0  0  0
  185.1630  178.5750  142.9730 C   0  0  0  0  0  0  0  0  0  0  0  0
  183.7570  178.5630  142.9420 C   0  0  0  0  0  0  0  0  0  0  0  0
  185.8840  178.6550  141.7790 C   0  0  0  0  0  3  0  0  0  0  0  0
  182.8130  177.4510  138.4590 C   0  0  2  0  0  0  0  0  0  0  0  0
  180.5290  177.7510  137.8640 O   0  0  0  0  0  0  0  0  0  0  0  0
  181.6870  178.7280  135.3690 O   0  0  0  0  0  1  0  0  0  0  0  0
  183.2050  176.8850  135.5410 C   0  0  0  0  0  2  0  0  0  0  0  0
  182.4330  176.4010  139.4950 C   0  0  0  0  0  1  0  0  0  0  0  0
  181.8630  177.4770  135.9590 C   0  0  1  0  0  3  0  0  0  0  0  0
  184.3280  177.4250  136.4030 C   0  0  0  0  0  2  0  0  0  0  0  0
  184.1100  176.9260  137.8210 C   0  0  0  0  0  2  0  0  0  0  0  0
  181.6660  177.5720  137.4540 C   0  0  0  0  0  0  0  0  0  0  0  0
  180.0650  181.8300  138.9720 C   0  0  0  0  0  3  0  0  0  0  0  0
  182.0390  179.8470  139.1270 C   0  0  0  0  0  0  0  0  0  0  0  0
  180.9670  179.8470  140.0300 C   0  0  0  0  0  3  0  0  0  0  0  0
  179.9820  180.8350  139.9530 C   0  0  0  0  0  3  0  0  0  0  0  0
  181.1350  181.8350  138.0720 C   0  0  0  0  0  3  0  0  0  0  0  0
  182.1200  180.8460  138.1510 C   0  0  0  0  0  3  0  0  0  0  0  0
  1 23  1  1  0  0  0
  1  2  1  0  0  0  0
  2  5  2  0  0  0  0
  2  8  1  0  0  0  0
  3  9  1  0  0  0  0
  5 12  1  0  0  0  0
  6  7  1  0  0  0  0
  7  9  2  0  0  0  0
  8 11  2  0  0  0  0
  9  4  1  0  0  0  0
 10  3  1  0  0  0  0
 11 10  1  0  0  0  0
 11  6  1  0  0  0  0
 12 10  2  0  0  0  0
 13  1  1  0  0  0  0
 13 17  1  1  0  0  0
 16 18  1  0  0  0  0
 16 19  1  0  0  0  0
 18 15  1  6  0  0  0
 18 21  1  0  0  0  0
 19 20  1  0  0  0  0
 20 13  1  0  0  0  0
 21 14  2  0  0  0  0
 21 13  1  0  0  0  0
 22 25  1  0  0  0  0
 23 24  1  0  0  0  0
 25 24  2  0  0  0  0
 26 27  1  0  0  0  0
 26 22  2  0  0  0  0
 27 23  2  0  0  0  0
M  END
>  <MODEL>
6

>  <REMARK>
 VINA RESULT:      -8.5      4.441      8.664
  Name = 
  3 active torsions:
  status: ('A' for Active; 'I' for Inactive)
    1  A    between atoms: C_1  and  C_15
    2  A    between atoms: C_2  and  C_15
    3  A    between atoms: C_9  and  C_15
                            x       y       z     vdW  Elec       q    Type
                         _______ _______ _______ _____ _____    ______ ____

>  <TORSDO>
F 3

$$$$
=
 OpenBabel10272401013D

 27 30  0  0  1  0  0  0  0  0999 V2000
  189.1830  177.1730  143.4120 C   0  0  1  0  0  3  0  0  0  0  0  0
  189.3610  177.1700  141.9150 C   0  0  0  0  0  0  0  0  0  0  0  0
  189.9760  177.1260  137.6520 C   0  0  0  0  0  2  0  0  0  0  0  0
  188.6080  176.6300  135.6220 O   0  0  0  0  0  1  0  0  0  0  0  0
  190.4960  176.5590  141.3700 C   0  0  0  0  0  3  0  0  0  0  0  0
  187.6190  178.4130  138.7720 C   0  0  0  0  0  2  0  0  0  0  0  0
  187.5920  177.7650  137.4150 C   0  0  0  0  0  3  0  0  0  0  0  0
  188.4180  177.7640  141.0620 C   0  0  0  0  0  3  0  0  0  0  0  0
  188.6770  177.1830  136.8920 C   0  0  0  0  0  0  0  0  0  0  0  0
  189.7500  177.1230  139.1370 C   0  0  0  0  0  0  0  0  0  0  0  0
  188.6060  177.7370  139.6790 C   0  0  0  0  0  0  0  0  0  0  0  0
  190.6940  176.5390  139.9860 C   0  0  0  0  0  3  0  0  0  0  0  0
  190.3560  177.7370  144.2650 C   0  0  2  0  0  0  0  0  0  0  0  0
  189.1710  178.7530  146.0620 O   0  0  0  0  0  0  0  0  0  0  0  0
  189.6150  176.1630  147.3360 O   0  0  0  0  0  1  0  0  0  0  0  0
  191.8300  176.2830  146.4330 C   0  0  0  0  0  2  0  0  0  0  0  0
  190.7540  179.1030  143.7210 C   0  0  0  0  0  1  0  0  0  0  0  0
  190.5740  177.0470  146.8400 C   0  0  1  0  0  3  0  0  0  0  0  0
  191.6830  175.6980  145.0440 C   0  0  0  0  0  2  0  0  0  0  0  0
  191.5960  176.8510  144.0580 C   0  0  0  0  0  2  0  0  0  0  0  0
  189.9830  177.8970  145.7400 C   0  0  0  0  0  0  0  0  0  0  0  0
  185.2080  178.1940  144.7190 C   0  0  0  0  0  3  0  0  0  0  0  0
  187.7910  177.5420  143.8520 C   0  0  0  0  0  0  0  0  0  0  0  0
  187.0090  178.4470  143.1210 C   0  0  0  0  0  3  0  0  0  0  0  0
  185.7200  178.7730  143.5540 C   0  0  0  0  0  3  0  0  0  0  0  0
  185.9830  177.2880  145.4490 C   0  0  0  0  0  3  0  0  0  0  0  0
  187.2720  176.9630  145.0150 C   0  0  0  0  0  3  0  0  0  0  0  0
  1  2  1  6  0  0  0
  1 23  1  0  0  0  0
  1 13  1  0  0  0  0
  3 10  1  0  0  0  0
  4  9  1  0  0  0  0
  5  2  1  0  0  0  0
  6 11  1  0  0  0  0
  7  6  1  0  0  0  0
  8  2  2  0  0  0  0
  9  7  2  0  0  0  0
  9  3  1  0  0  0  0
 10 11  2  0  0  0  0
 10 12  1  0  0  0  0
 11  8  1  0  0  0  0
 12  5  2  0  0  0  0
 13 17  1  6  0  0  0
 13 21  1  0  0  0  0
 16 18  1  0  0  0  0
 18 15  1  6  0  0  0
 19 16  1  0  0  0  0
 20 13  1  0  0  0  0
 20 19  1  0  0  0  0
 21 14  2  0  0  0  0
 21 18  1  0  0  0  0
 22 26  1  0  0  0  0
 23 27  1  0  0  0  0
 24 25  1  0  0  0  0
 24 23  2  0  0  0  0
 25 22  2  0  0  0  0
 27 26  2  0  0  0  0
M  END
>  <MODEL>
7

>  <REMARK>
 VINA RESULT:      -8.5      2.331      5.886
  Name = 
  3 active torsions:
  status: ('A' for Active; 'I' for Inactive)
    1  A    between atoms: C_1  and  C_15
    2  A    between atoms: C_2  and  C_15
    3  A    between atoms: C_9  and  C_15
                            x       y       z     vdW  Elec       q    Type
                         _______ _______ _______ _____ _____    ______ ____

>  <TORSDO>
F 3

$$$$
=
 OpenBabel10272401013D

 27 30  0  0  1  0  0  0  0  0999 V2000
  188.1730  177.2410  145.1600 C   0  0  1  0  0  3  0  0  0  0  0  0
  188.7310  177.0830  143.7680 C   0  0  0  0  0  0  0  0  0  0  0  0
  190.3940  176.5530  139.8300 C   0  0  0  0  0  2  0  0  0  0  0  0
  189.5500  176.5900  137.4790 O   0  0  0  0  0  1  0  0  0  0  0  0
  189.5950  176.0140  143.5030 C   0  0  0  0  0  3  0  0  0  0  0  0
  188.6110  178.7880  140.3720 C   0  0  0  0  0  2  0  0  0  0  0  0
  188.6770  178.1450  139.0140 C   0  0  0  0  0  3  0  0  0  0  0  0
  188.4030  177.9790  142.7400 C   0  0  0  0  0  3  0  0  0  0  0  0
  189.5040  177.1250  138.7580 C   0  0  0  0  0  0  0  0  0  0  0  0
  189.7960  176.7260  141.1970 C   0  0  0  0  0  0  0  0  0  0  0  0
  188.9270  177.8010  141.4580 C   0  0  0  0  0  0  0  0  0  0  0  0
  190.1300  175.8370  142.2230 C   0  0  0  0  0  3  0  0  0  0  0  0
  189.1350  177.7980  146.2500 C   0  0  2  0  0  0  0  0  0  0  0  0
  188.6070  176.3880  148.0930 O   0  0  0  0  0  0  0  0  0  0  0  0
  190.8420  174.8180  147.0600 O   0  0  0  0  0  1  0  0  0  0  0  0
  191.9560  176.9130  146.7450 C   0  0  0  0  0  2  0  0  0  0  0  0
  188.4730  178.9860  146.9360 C   0  0  0  0  0  1  0  0  0  0  0  0
  190.8520  176.1510  147.4710 C   0  0  1  0  0  3  0  0  0  0  0  0
  191.4940  177.3630  145.3740 C   0  0  0  0  0  2  0  0  0  0  0  0
  190.3830  178.3810  145.5650 C   0  0  0  0  0  2  0  0  0  0  0  0
  189.4770  176.7560  147.3170 C   0  0  0  0  0  0  0  0  0  0  0  0
  184.1200  178.6970  145.1760 C   0  0  0  0  0  3  0  0  0  0  0  0
  186.7570  177.7500  145.1870 C   0  0  0  0  0  0  0  0  0  0  0  0
  186.0710  177.9420  146.3940 C   0  0  0  0  0  3  0  0  0  0  0  0
  184.7550  178.4140  146.3890 C   0  0  0  0  0  3  0  0  0  0  0  0
  184.8010  178.5100  143.9690 C   0  0  0  0  0  3  0  0  0  0  0  0
  186.1170  178.0380  143.9760 C   0  0  0  0  0  3  0  0  0  0  0  0
  1  2  1  6  0  0  0
  1 23  1  0  0  0  0
  1 13  1  0  0  0  0
  3 10  1  0  0  0  0
  4  9  1  0  0  0  0
  5  2  1  0  0  0  0
  6 11  1  0  0  0  0
  7  6  1  0  0  0  0
  8  2  2  0  0  0  0
  9  7  2  0  0  0  0
  9  3  1  0  0  0  0
 10 11  2  0  0  0  0
 10 12  1  0  0  0  0
 11  8  1  0  0  0  0
 12  5  2  0  0  0  0
 13 17  1  1  0  0  0
 13 21  1  0  0  0  0
 16 18  1  0  0  0  0
 18 15  1  6  0  0  0
 19 20  1  0  0  0  0
 19 16  1  0  0  0  0
 20 13  1  0  0  0  0
 21 18  1  0  0  0  0
 21 14  2  0  0  0  0
 22 25  1  0  0  0  0
 23 24  1  0  0  0  0
 25 24  2  0  0  0  0
 26 27  1  0  0  0  0
 26 22  2  0  0  0  0
 27 23  2  0  0  0  0
M  END
>  <MODEL>
8

>  <REMARK>
 VINA RESULT:      -8.4      2.374      5.868
  Name = 
  3 active torsions:
  status: ('A' for Active; 'I' for Inactive)
    1  A    between atoms: C_1  and  C_15
    2  A    between atoms: C_2  and  C_15
    3  A    between atoms: C_9  and  C_15
                            x       y       z     vdW  Elec       q    Type
                         _______ _______ _______ _____ _____    ______ ____

>  <TORSDO>
F 3

$$$$
=
 OpenBabel10272401013D

 27 30  0  0  1  0  0  0  0  0999 V2000
  187.7840  178.1100  144.8130 C   0  0  1  0  0  3  0  0  0  0  0  0
  186.6790  178.3480  143.8160 C   0  0  0  0  0  0  0  0  0  0  0  0
  183.5990  179.0320  140.8840 C   0  0  0  0  0  2  0  0  0  0  0  0
  181.2310  178.3170  140.5330 O   0  0  0  0  0  1  0  0  0  0  0  0
  186.9700  178.2580  142.4500 C   0  0  0  0  0  3  0  0  0  0  0  0
  182.9840  179.2370  143.7210 C   0  0  0  0  0  2  0  0  0  0  0  0
  181.9530  178.7880  142.7230 C   0  0  0  0  0  3  0  0  0  0  0  0
  185.3740  178.6560  144.2260 C   0  0  0  0  0  3  0  0  0  0  0  0
  182.2290  178.7040  141.4160 C   0  0  0  0  0  0  0  0  0  0  0  0
  184.6670  178.7720  141.9080 C   0  0  0  0  0  0  0  0  0  0  0  0
  184.3680  178.8620  143.2790 C   0  0  0  0  0  0  0  0  0  0  0  0
  185.9700  178.4740  141.4970 C   0  0  0  0  0  3  0  0  0  0  0  0
  187.4080  177.3560  146.1220 C   0  0  2  0  0  0  0  0  0  0  0  0
  189.4430  176.2180  146.5990 O   0  0  0  0  0  0  0  0  0  0  0  0
  189.9620  178.5870  148.2240 O   0  0  0  0  0  1  0  0  0  0  0  0
  187.6770  178.4130  148.9150 C   0  0  0  0  0  2  0  0  0  0  0  0
  186.7270  176.0430  145.7620 C   0  0  0  0  0  1  0  0  0  0  0  0
  188.8890  177.7020  148.3230 C   0  0  1  0  0  3  0  0  0  0  0  0
  186.9200  179.1760  147.8470 C   0  0  0  0  0  2  0  0  0  0  0  0
  186.3380  178.1650  146.8740 C   0  0  0  0  0  2  0  0  0  0  0  0
  188.6300  177.0430  146.9880 C   0  0  0  0  0  0  0  0  0  0  0  0
  191.5710  177.1100  143.0190 C   0  0  0  0  0  3  0  0  0  0  0  0
  189.0990  177.7420  144.1780 C   0  0  0  0  0  0  0  0  0  0  0  0
  189.2590  176.5460  143.4650 C   0  0  0  0  0  3  0  0  0  0  0  0
  190.4910  176.2310  142.8870 C   0  0  0  0  0  3  0  0  0  0  0  0
  191.4150  178.3060  143.7270 C   0  0  0  0  0  3  0  0  0  0  0  0
  190.1810  178.6210  144.3040 C   0  0  0  0  0  3  0  0  0  0  0  0
  1  2  1  6  0  0  0
  1 13  1  0  0  0  0
  2  8  1  0  0  0  0
  3  9  1  0  0  0  0
  3 10  1  0  0  0  0
  4  9  1  0  0  0  0
  5  2  2  0  0  0  0
  7  6  1  0  0  0  0
  9  7  2  0  0  0  0
 10 11  1  0  0  0  0
 11  6  1  0  0  0  0
 11  8  2  0  0  0  0
 12 10  2  0  0  0  0
 12  5  1  0  0  0  0
 13 17  1  6  0  0  0
 13 20  1  0  0  0  0
 13 21  1  0  0  0  0
 14 21  2  0  0  0  0
 18 15  1  6  0  0  0
 18 16  1  0  0  0  0
 19 16  1  0  0  0  0
 20 19  1  0  0  0  0
 21 18  1  0  0  0  0
 22 26  1  0  0  0  0
 23 27  1  0  0  0  0
 23  1  1  0  0  0  0
 24 23  2  0  0  0  0
 25 22  2  0  0  0  0
 25 24  1  0  0  0  0
 26 27  2  0  0  0  0
M  END
>  <MODEL>
9

>  <REMARK>
 VINA RESULT:      -8.3      2.419      4.636
  Name = 
  3 active torsions:
  status: ('A' for Active; 'I' for Inactive)
    1  A    between atoms: C_1  and  C_15
    2  A    between atoms: C_2  and  C_15
    3  A    between atoms: C_9  and  C_15
                            x       y       z     vdW  Elec       q    Type
                         _______ _______ _______ _____ _____    ______ ____

>  <TORSDO>
F 3

$$$$
