=
 OpenBabel10272413173D

 32 35  0  0  1  0  0  0  0  0999 V2000
  189.9210  178.1090  143.2570 C   0  0  0  0  0  2  0  0  0  0  0  0
  191.2900  177.4660  143.0090 C   0  0  1  0  0  3  0  0  0  0  0  0
  189.0820  177.3040  144.2550 C   0  0  1  0  0  3  0  0  0  0  0  0
  189.9540  176.6680  145.3520 C   0  0  1  0  0  3  0  0  0  0  0  0
  191.1130  175.8510  144.7510 C   0  0  0  0  0  2  0  0  0  0  0  0
  191.2500  176.0340  143.3020 N   0  0  0  0  0  2  0  0  0  0  0  0
  187.9650  178.1720  144.8210 C   0  0  0  0  0  2  0  0  0  0  0  0
  186.6050  177.7120  144.3210 C   0  0  2  0  0  3  0  0  0  0  0  0
  182.3810  178.7920  142.2500 C   0  0  0  0  0  3  0  0  0  0  0  0
  186.3990  178.0960  142.5380 S   0  0  0  0  0  0  0  0  0  0  0  0
  183.0500  178.8320  144.5880 C   0  0  0  0  0  3  0  0  0  0  0  0
  184.3630  178.5660  144.1910 C   0  0  0  0  0  0  0  0  0  0  0  0
  185.4980  178.3930  145.1250 C   0  0  0  0  0  2  0  0  0  0  0  0
  184.6860  178.4340  142.8570 C   0  0  0  0  0  0  0  0  0  0  0  0
  182.0560  178.9460  143.6070 C   0  0  0  0  0  3  0  0  0  0  0  0
  183.7050  178.5300  141.8690 C   0  0  0  0  0  3  0  0  0  0  0  0
  190.4710  177.6500  146.2040 O   0  0  0  0  0  0  0  0  0  0  0  0
  190.2640  177.1540  147.4920 C   0  0  0  0  0  2  0  0  0  0  0  0
  189.4360  178.1440  148.2860 C   0  0  0  0  0  2  0  0  0  0  0  0
  188.0300  177.6070  148.4490 C   0  0  0  0  0  1  0  0  0  0  0  0
  191.7050  177.6990  141.5650 C   0  0  0  0  0  2  0  0  0  0  0  0
  190.7390  177.0270  140.5970 C   0  0  0  0  0  2  0  0  0  0  0  0
  191.3610  176.8560  139.2120 C   0  0  0  0  0  2  0  0  0  0  0  0
  190.8060  176.9070  136.9090 F   0  0  0  0  0  0  0  0  0  0  0  0
  190.1510  175.0950  138.0800 O   0  0  0  0  0  1  0  0  0  0  0  0
  190.3300  176.4830  138.1360 C   0  0  1  0  0  0  0  0  0  0  0  0
  189.0980  177.1370  138.3710 O   0  0  0  0  0  0  0  0  0  0  0  0
  187.1420  178.1410  137.3320 C   0  0  2  0  0  3  0  0  0  0  0  0
  187.2310  176.6770  136.9540 C   0  0  0  0  0  2  0  0  0  0  0  0
  188.5040  177.4760  137.1390 C   0  0  2  0  0  3  0  0  0  0  0  0
  186.8120  178.2550  138.6860 O   0  0  0  0  0  0  0  0  0  0  0  0
  185.4420  178.5110  138.6940 C   0  0  0  0  0  1  0  0  0  0  0  0
  1  3  1  0  0  0  0
  2 21  1  6  0  0  0
  2  1  1  0  0  0  0
  2  6  1  0  0  0  0
  3  7  1  1  0  0  0
  3  4  1  0  0  0  0
  4 17  1  1  0  0  0
  5  4  1  0  0  0  0
  6  5  1  0  0  0  0
  8  7  1  1  0  0  0
  8 13  1  0  0  0  0
  9 15  1  0  0  0  0
 10 14  1  0  0  0  0
 10  8  1  0  0  0  0
 12 11  1  0  0  0  0
 12 13  1  0  0  0  0
 14 12  2  0  0  0  0
 15 11  2  0  0  0  0
 16  9  2  0  0  0  0
 16 14  1  0  0  0  0
 17 18  1  0  0  0  0
 18 19  1  0  0  0  0
 19 20  1  0  0  0  0
 22 21  1  0  0  0  0
 23 22  1  0  0  0  0
 25 26  1  0  0  0  0
 26 24  1  6  0  0  0
 26 27  1  0  0  0  0
 26 23  1  0  0  0  0
 28 31  1  1  0  0  0
 29 30  1  0  0  0  0
 29 28  1  0  0  0  0
 30 28  1  0  0  0  0
 30 27  1  1  0  0  0
 31 32  1  0  0  0  0
M  END
>  <MODEL>
1

>  <REMARK>
 VINA RESULT:      -7.4      0.000      0.000
  Name = 
  12 active torsions:
  status: ('A' for Active; 'I' for Inactive)
    1  A    between atoms: C_2  and  C_5
    2  A    between atoms: C_2  and  C_6
    3  A    between atoms: C_3  and  O_22
    4  A    between atoms: C_4  and  C_27
    5  A    between atoms: O_7  and  C_19
    6  A    between atoms: O_7  and  C_26
    7  A    between atoms: C_13  and  C_29
    8  A    between atoms: C_14  and  O_18
    9  A    between atoms: O_18  and  C_29
   10  A    between atoms: C_20  and  C_24
   11  A    between atoms: C_20  and  C_26
   12  A    between atoms: C_24  and  C_27
                            x       y       z     vdW  Elec       q    Type
                         _______ _______ _______ _____ _____    ______ ____

>  <TORSDO>
F 12

$$$$
=
 OpenBabel10272413173D

 32 35  0  0  1  0  0  0  0  0999 V2000
  189.8880  177.9940  143.3650 C   0  0  0  0  0  2  0  0  0  0  0  0
  191.2650  177.3630  143.1390 C   0  0  1  0  0  3  0  0  0  0  0  0
  189.0730  177.2350  144.4170 C   0  0  1  0  0  3  0  0  0  0  0  0
  189.9680  176.6800  145.5400 C   0  0  1  0  0  3  0  0  0  0  0  0
  191.1360  175.8500  144.9740 C   0  0  0  0  0  2  0  0  0  0  0  0
  191.2550  175.9500  143.5160 N   0  0  0  0  0  2  0  0  0  0  0  0
  187.9460  178.1140  144.9450 C   0  0  0  0  0  2  0  0  0  0  0  0
  186.6000  177.6660  144.4010 C   0  0  2  0  0  3  0  0  0  0  0  0
  182.4600  178.7790  142.1820 C   0  0  0  0  0  3  0  0  0  0  0  0
  186.4590  178.0430  142.6100 S   0  0  0  0  0  0  0  0  0  0  0  0
  183.0500  178.8240  144.5410 C   0  0  0  0  0  3  0  0  0  0  0  0
  184.3730  178.5430  144.1900 C   0  0  0  0  0  0  0  0  0  0  0  0
  185.4730  178.3640  145.1630 C   0  0  0  0  0  2  0  0  0  0  0  0
  184.7400  178.4000  142.8690 C   0  0  0  0  0  0  0  0  0  0  0  0
  182.0910  178.9440  143.5260 C   0  0  0  0  0  3  0  0  0  0  0  0
  183.7930  178.5000  141.8480 C   0  0  0  0  0  3  0  0  0  0  0  0
  190.4770  177.7190  146.3270 O   0  0  0  0  0  0  0  0  0  0  0  0
  190.2440  177.3200  147.6440 C   0  0  0  0  0  2  0  0  0  0  0  0
  189.3140  178.3090  148.3150 C   0  0  0  0  0  2  0  0  0  0  0  0
  187.9810  177.6430  148.5840 C   0  0  0  0  0  1  0  0  0  0  0  0
  191.6610  177.5180  141.6800 C   0  0  0  0  0  2  0  0  0  0  0  0
  190.6270  176.8860  140.7560 C   0  0  0  0  0  2  0  0  0  0  0  0
  190.6300  177.5420  139.3770 C   0  0  0  0  0  2  0  0  0  0  0  0
  188.3000  177.3580  139.7720 F   0  0  0  0  0  0  0  0  0  0  0  0
  189.0180  179.2240  138.7270 O   0  0  0  0  0  1  0  0  0  0  0  0
  189.2160  177.8430  138.8550 C   0  0  1  0  0  0  0  0  0  0  0  0
  188.9840  177.1870  137.6240 O   0  0  0  0  0  0  0  0  0  0  0  0
  187.6030  175.5510  136.4700 C   0  0  2  0  0  3  0  0  0  0  0  0
  186.8150  176.8260  136.6910 C   0  0  0  0  0  2  0  0  0  0  0  0
  187.8280  176.3880  137.7290 C   0  0  2  0  0  3  0  0  0  0  0  0
  188.6010  175.7770  135.5170 O   0  0  0  0  0  0  0  0  0  0  0  0
  187.9070  176.0940  134.3500 C   0  0  0  0  0  1  0  0  0  0  0  0
  1  3  1  0  0  0  0
  2 21  1  6  0  0  0
  2  1  1  0  0  0  0
  2  6  1  0  0  0  0
  3  7  1  1  0  0  0
  3  4  1  0  0  0  0
  4 17  1  6  0  0  0
  5  4  1  0  0  0  0
  6  5  1  0  0  0  0
  8  7  1  1  0  0  0
  8 13  1  0  0  0  0
  9 15  1  0  0  0  0
 10 14  1  0  0  0  0
 10  8  1  0  0  0  0
 12 11  1  0  0  0  0
 12 13  1  0  0  0  0
 14 12  2  0  0  0  0
 15 11  2  0  0  0  0
 16  9  2  0  0  0  0
 16 14  1  0  0  0  0
 17 18  1  0  0  0  0
 18 19  1  0  0  0  0
 19 20  1  0  0  0  0
 22 21  1  0  0  0  0
 23 22  1  0  0  0  0
 26 25  1  6  0  0  0
 26 23  1  0  0  0  0
 26 24  1  0  0  0  0
 27 26  1  0  0  0  0
 28 31  1  6  0  0  0
 28 29  1  0  0  0  0
 28 30  1  0  0  0  0
 29 30  1  0  0  0  0
 30 27  1  6  0  0  0
 32 31  1  0  0  0  0
M  END
>  <MODEL>
2

>  <REMARK>
 VINA RESULT:      -7.2      1.184      1.761
  Name = 
  12 active torsions:
  status: ('A' for Active; 'I' for Inactive)
    1  A    between atoms: C_2  and  C_5
    2  A    between atoms: C_2  and  C_6
    3  A    between atoms: C_3  and  O_22
    4  A    between atoms: C_4  and  C_27
    5  A    between atoms: O_7  and  C_19
    6  A    between atoms: O_7  and  C_26
    7  A    between atoms: C_13  and  C_29
    8  A    between atoms: C_14  and  O_18
    9  A    between atoms: O_18  and  C_29
   10  A    between atoms: C_20  and  C_24
   11  A    between atoms: C_20  and  C_26
   12  A    between atoms: C_24  and  C_27
                            x       y       z     vdW  Elec       q    Type
                         _______ _______ _______ _____ _____    ______ ____

>  <TORSDO>
F 12

$$$$
=
 OpenBabel10272413173D

 32 35  0  0  1  0  0  0  0  0999 V2000
  184.6830  178.0970  140.4070 C   0  0  0  0  0  2  0  0  0  0  0  0
  184.2720  178.5230  138.9940 C   0  0  1  0  0  3  0  0  0  0  0  0
  183.9340  178.8870  141.4860 C   0  0  1  0  0  3  0  0  0  0  0  0
  182.4890  179.2040  141.0610 C   0  0  1  0  0  3  0  0  0  0  0  0
  182.4420  179.8860  139.6800 C   0  0  0  0  0  2  0  0  0  0  0  0
  183.7410  179.8860  138.9980 N   0  0  0  0  0  2  0  0  0  0  0  0
  184.0060  178.1540  142.8190 C   0  0  0  0  0  2  0  0  0  0  0  0
  185.1840  178.6390  143.6500 C   0  0  2  0  0  3  0  0  0  0  0  0
  188.4400  177.7760  147.1060 C   0  0  0  0  0  3  0  0  0  0  0  0
  186.6290  177.5270  143.4490 S   0  0  0  0  0  0  0  0  0  0  0  0
  186.1850  178.6750  147.2490 C   0  0  0  0  0  3  0  0  0  0  0  0
  186.0140  178.3970  145.8910 C   0  0  0  0  0  0  0  0  0  0  0  0
  184.7870  178.7060  145.1250 C   0  0  0  0  0  2  0  0  0  0  0  0
  187.0210  177.8060  145.1580 C   0  0  0  0  0  0  0  0  0  0  0  0
  187.4080  178.3600  147.8570 C   0  0  0  0  0  3  0  0  0  0  0  0
  188.2500  177.4990  145.7450 C   0  0  0  0  0  3  0  0  0  0  0  0
  181.7150  178.0390  141.0290 O   0  0  0  0  0  0  0  0  0  0  0  0
  180.4430  178.4400  141.4390 C   0  0  0  0  0  2  0  0  0  0  0  0
  180.5470  179.1780  142.7580 C   0  0  0  0  0  2  0  0  0  0  0  0
  180.0800  178.2720  143.8780 C   0  0  0  0  0  1  0  0  0  0  0  0
  185.4720  178.4270  138.0660 C   0  0  0  0  0  2  0  0  0  0  0  0
  186.7540  178.1550  138.8450 C   0  0  0  0  0  2  0  0  0  0  0  0
  187.8240  177.5200  137.9600 C   0  0  0  0  0  2  0  0  0  0  0  0
  189.9970  177.7230  137.0360 F   0  0  0  0  0  0  0  0  0  0  0  0
  188.8790  179.6360  137.4550 O   0  0  0  0  0  1  0  0  0  0  0  0
  189.1250  178.3370  137.9170 C   0  0  1  0  0  0  0  0  0  0  0  0
  189.7430  178.3650  139.1880 O   0  0  0  0  0  0  0  0  0  0  0  0
  190.3660  176.7820  140.9270 C   0  0  2  0  0  3  0  0  0  0  0  0
  191.6110  177.3380  140.2670 C   0  0  0  0  0  2  0  0  0  0  0  0
  190.3620  177.1240  139.4370 C   0  0  2  0  0  3  0  0  0  0  0  0
  189.7520  177.7830  141.6850 O   0  0  0  0  0  0  0  0  0  0  0  0
  190.4760  177.8150  142.8760 C   0  0  0  0  0  1  0  0  0  0  0  0
  1  3  1  0  0  0  0
  2 21  1  6  0  0  0
  2  6  1  0  0  0  0
  2  1  1  0  0  0  0
  3  7  1  1  0  0  0
  4 17  1  6  0  0  0
  4  3  1  0  0  0  0
  5  4  1  0  0  0  0
  6  5  1  0  0  0  0
  8  7  1  6  0  0  0
  8 13  1  0  0  0  0
  9 15  1  0  0  0  0
 10  8  1  0  0  0  0
 10 14  1  0  0  0  0
 11 15  2  0  0  0  0
 12 11  1  0  0  0  0
 13 12  1  0  0  0  0
 14 16  1  0  0  0  0
 14 12  2  0  0  0  0
 16  9  2  0  0  0  0
 17 18  1  0  0  0  0
 18 19  1  0  0  0  0
 19 20  1  0  0  0  0
 21 22  1  0  0  0  0
 23 22  1  0  0  0  0
 25 26  1  0  0  0  0
 26 24  1  6  0  0  0
 26 23  1  0  0  0  0
 26 27  1  0  0  0  0
 28 31  1  1  0  0  0
 29 28  1  0  0  0  0
 30 27  1  1  0  0  0
 30 29  1  0  0  0  0
 30 28  1  0  0  0  0
 31 32  1  0  0  0  0
M  END
>  <MODEL>
3

>  <REMARK>
 VINA RESULT:      -7.1      2.459      6.391
  Name = 
  12 active torsions:
  status: ('A' for Active; 'I' for Inactive)
    1  A    between atoms: C_2  and  C_5
    2  A    between atoms: C_2  and  C_6
    3  A    between atoms: C_3  and  O_22
    4  A    between atoms: C_4  and  C_27
    5  A    between atoms: O_7  and  C_19
    6  A    between atoms: O_7  and  C_26
    7  A    between atoms: C_13  and  C_29
    8  A    between atoms: C_14  and  O_18
    9  A    between atoms: O_18  and  C_29
   10  A    between atoms: C_20  and  C_24
   11  A    between atoms: C_20  and  C_26
   12  A    between atoms: C_24  and  C_27
                            x       y       z     vdW  Elec       q    Type
                         _______ _______ _______ _____ _____    ______ ____

>  <TORSDO>
F 12

$$$$
=
 OpenBabel10272413173D

 32 35  0  0  1  0  0  0  0  0999 V2000
  188.6050  176.5210  143.4600 C   0  0  0  0  0  2  0  0  0  0  0  0
  188.2470  177.0260  144.8610 C   0  0  1  0  0  3  0  0  0  0  0  0
  189.8270  177.2430  142.8840 C   0  0  1  0  0  3  0  0  0  0  0  0
  190.8590  177.5780  143.9750 C   0  0  1  0  0  3  0  0  0  0  0  0
  190.2140  178.3390  145.1500 C   0  0  0  0  0  2  0  0  0  0  0  0
  188.7500  178.3850  145.0660 N   0  0  0  0  0  2  0  0  0  0  0  0
  190.4240  176.4340  141.7390 C   0  0  0  0  0  2  0  0  0  0  0  0
  190.4480  177.2400  140.4510 C   0  0  2  0  0  3  0  0  0  0  0  0
  188.5940  178.1060  136.0800 C   0  0  0  0  0  3  0  0  0  0  0  0
  188.8320  178.0600  140.1610 S   0  0  0  0  0  0  0  0  0  0  0  0
  190.3420  176.5660  136.7780 C   0  0  0  0  0  3  0  0  0  0  0  0
  190.0570  176.8830  138.1080 C   0  0  0  0  0  0  0  0  0  0  0  0
  190.7810  176.3260  139.2720 C   0  0  0  0  0  2  0  0  0  0  0  0
  189.0540  177.7750  138.4230 C   0  0  0  0  0  0  0  0  0  0  0  0
  189.6020  177.1830  135.7600 C   0  0  0  0  0  3  0  0  0  0  0  0
  188.3180  178.4100  137.4200 C   0  0  0  0  0  3  0  0  0  0  0  0
  191.4670  176.4130  144.4560 O   0  0  0  0  0  0  0  0  0  0  0  0
  191.7460  176.6800  145.7970 C   0  0  0  0  0  2  0  0  0  0  0  0
  192.1570  175.3980  146.4920 C   0  0  0  0  0  2  0  0  0  0  0  0
  192.5210  175.7000  147.9300 C   0  0  0  0  0  1  0  0  0  0  0  0
  186.7380  176.9900  145.0440 C   0  0  0  0  0  2  0  0  0  0  0  0
  186.1770  178.3850  145.2940 C   0  0  0  0  0  2  0  0  0  0  0  0
  184.6720  178.3460  145.5520 C   0  0  0  0  0  2  0  0  0  0  0  0
  182.5340  178.4150  144.5310 F   0  0  0  0  0  0  0  0  0  0  0  0
  183.8710  180.2070  144.2320 O   0  0  0  0  0  1  0  0  0  0  0  0
  183.8460  178.8100  144.3420 C   0  0  1  0  0  0  0  0  0  0  0  0
  184.3130  178.2060  143.1520 O   0  0  0  0  0  0  0  0  0  0  0  0
  183.9180  178.7930  140.8260 C   0  0  2  0  0  3  0  0  0  0  0  0
  185.4050  178.6470  141.0740 C   0  0  0  0  0  2  0  0  0  0  0  0
  184.5180  179.1970  142.1720 C   0  0  2  0  0  3  0  0  0  0  0  0
  183.3070  177.5380  140.8910 O   0  0  0  0  0  0  0  0  0  0  0  0
  183.1210  177.1680  139.5600 C   0  0  0  0  0  1  0  0  0  0  0  0
  1  2  1  0  0  0  0
  2 21  1  6  0  0  0
  2  6  1  0  0  0  0
  3  7  1  6  0  0  0
  3  1  1  0  0  0  0
  3  4  1  0  0  0  0
  4 17  1  1  0  0  0
  4  5  1  0  0  0  0
  6  5  1  0  0  0  0
  8  7  1  1  0  0  0
  9 16  1  0  0  0  0
 10  8  1  0  0  0  0
 11 12  2  0  0  0  0
 12 14  1  0  0  0  0
 12 13  1  0  0  0  0
 13  8  1  0  0  0  0
 14 10  1  0  0  0  0
 15  9  2  0  0  0  0
 15 11  1  0  0  0  0
 16 14  2  0  0  0  0
 17 18  1  0  0  0  0
 18 19  1  0  0  0  0
 19 20  1  0  0  0  0
 21 22  1  0  0  0  0
 22 23  1  0  0  0  0
 26 25  1  6  0  0  0
 26 24  1  0  0  0  0
 26 23  1  0  0  0  0
 27 26  1  0  0  0  0
 28 31  1  1  0  0  0
 28 29  1  0  0  0  0
 28 30  1  0  0  0  0
 29 30  1  0  0  0  0
 30 27  1  1  0  0  0
 32 31  1  0  0  0  0
M  END
>  <MODEL>
4

>  <REMARK>
 VINA RESULT:      -7.1      3.216      6.487
  Name = 
  12 active torsions:
  status: ('A' for Active; 'I' for Inactive)
    1  A    between atoms: C_2  and  C_5
    2  A    between atoms: C_2  and  C_6
    3  A    between atoms: C_3  and  O_22
    4  A    between atoms: C_4  and  C_27
    5  A    between atoms: O_7  and  C_19
    6  A    between atoms: O_7  and  C_26
    7  A    between atoms: C_13  and  C_29
    8  A    between atoms: C_14  and  O_18
    9  A    between atoms: O_18  and  C_29
   10  A    between atoms: C_20  and  C_24
   11  A    between atoms: C_20  and  C_26
   12  A    between atoms: C_24  and  C_27
                            x       y       z     vdW  Elec       q    Type
                         _______ _______ _______ _____ _____    ______ ____

>  <TORSDO>
F 12

$$$$
=
 OpenBabel10272413173D

 32 35  0  0  1  0  0  0  0  0999 V2000
  189.0440  177.9740  141.6560 C   0  0  0  0  0  2  0  0  0  0  0  0
  190.3570  177.1980  141.5190 C   0  0  1  0  0  3  0  0  0  0  0  0
  188.1830  177.4480  142.8080 C   0  0  1  0  0  3  0  0  0  0  0  0
  189.0420  176.9800  143.9960 C   0  0  1  0  0  3  0  0  0  0  0  0
  190.1240  175.9770  143.5520 C   0  0  0  0  0  2  0  0  0  0  0  0
  190.2290  175.8580  142.0940 N   0  0  0  0  0  2  0  0  0  0  0  0
  187.1450  178.4890  143.2080 C   0  0  0  0  0  2  0  0  0  0  0  0
  185.7330  177.9720  142.9840 C   0  0  2  0  0  3  0  0  0  0  0  0
  181.0880  178.9030  142.0610 C   0  0  0  0  0  3  0  0  0  0  0  0
  185.0940  178.5030  141.3470 S   0  0  0  0  0  0  0  0  0  0  0  0
  182.2850  178.7780  144.1740 C   0  0  0  0  0  3  0  0  0  0  0  0
  183.4800  178.6550  143.4620 C   0  0  0  0  0  0  0  0  0  0  0  0
  184.8100  178.4870  144.0880 C   0  0  0  0  0  2  0  0  0  0  0  0
  183.4870  178.6730  142.0840 C   0  0  0  0  0  0  0  0  0  0  0  0
  181.0820  178.9040  143.4650 C   0  0  0  0  0  3  0  0  0  0  0  0
  182.2970  178.7830  141.3620 C   0  0  0  0  0  3  0  0  0  0  0  0
  189.6510  178.0710  144.6250 O   0  0  0  0  0  0  0  0  0  0  0  0
  189.6980  177.7270  145.9770 C   0  0  0  0  0  2  0  0  0  0  0  0
  188.2920  177.7020  146.5400 C   0  0  0  0  0  2  0  0  0  0  0  0
  188.3170  177.0980  147.9280 C   0  0  0  0  0  1  0  0  0  0  0  0
  190.7430  177.1080  140.0510 C   0  0  0  0  0  2  0  0  0  0  0  0
  189.5560  177.4200  139.1470 C   0  0  0  0  0  2  0  0  0  0  0  0
  189.9530  177.3970  137.6720 C   0  0  0  0  0  2  0  0  0  0  0  0
  189.3360  179.5680  136.9480 F   0  0  0  0  0  0  0  0  0  0  0  0
  189.1810  177.9000  135.4370 O   0  0  0  0  0  1  0  0  0  0  0  0
  189.0140  178.2320  136.7880 C   0  0  1  0  0  0  0  0  0  0  0  0
  187.6670  178.0620  137.1830 O   0  0  0  0  0  0  0  0  0  0  0  0
  185.5240  177.0770  136.5910 C   0  0  2  0  0  3  0  0  0  0  0  0
  186.5130  175.9840  136.9430 C   0  0  0  0  0  2  0  0  0  0  0  0
  187.0050  177.2390  136.2510 C   0  0  2  0  0  3  0  0  0  0  0  0
  185.1810  177.7860  137.7450 O   0  0  0  0  0  0  0  0  0  0  0  0
  183.7930  177.6800  137.8240 C   0  0  0  0  0  1  0  0  0  0  0  0
  1  3  1  0  0  0  0
  2 21  1  6  0  0  0
  2  1  1  0  0  0  0
  2  6  1  0  0  0  0
  3  7  1  1  0  0  0
  3  4  1  0  0  0  0
  4 17  1  6  0  0  0
  5  4  1  0  0  0  0
  6  5  1  0  0  0  0
  8  7  1  1  0  0  0
  8 13  1  0  0  0  0
  9 15  1  0  0  0  0
 10 14  1  0  0  0  0
 10  8  1  0  0  0  0
 12 13  1  0  0  0  0
 12 11  1  0  0  0  0
 14 12  2  0  0  0  0
 15 11  2  0  0  0  0
 16  9  2  0  0  0  0
 16 14  1  0  0  0  0
 17 18  1  0  0  0  0
 18 19  1  0  0  0  0
 19 20  1  0  0  0  0
 22 21  1  0  0  0  0
 23 22  1  0  0  0  0
 26 25  1  6  0  0  0
 26 24  1  0  0  0  0
 26 27  1  0  0  0  0
 26 23  1  0  0  0  0
 28 29  1  0  0  0  0
 28 31  1  1  0  0  0
 30 28  1  0  0  0  0
 30 29  1  0  0  0  0
 30 27  1  1  0  0  0
 31 32  1  0  0  0  0
M  END
>  <MODEL>
5

>  <REMARK>
 VINA RESULT:      -7.0      1.589      1.877
  Name = 
  12 active torsions:
  status: ('A' for Active; 'I' for Inactive)
    1  A    between atoms: C_2  and  C_5
    2  A    between atoms: C_2  and  C_6
    3  A    between atoms: C_3  and  O_22
    4  A    between atoms: C_4  and  C_27
    5  A    between atoms: O_7  and  C_19
    6  A    between atoms: O_7  and  C_26
    7  A    between atoms: C_13  and  C_29
    8  A    between atoms: C_14  and  O_18
    9  A    between atoms: O_18  and  C_29
   10  A    between atoms: C_20  and  C_24
   11  A    between atoms: C_20  and  C_26
   12  A    between atoms: C_24  and  C_27
                            x       y       z     vdW  Elec       q    Type
                         _______ _______ _______ _____ _____    ______ ____

>  <TORSDO>
F 12

$$$$
=
 OpenBabel10272413173D

 32 35  0  0  1  0  0  0  0  0999 V2000
  188.6350  177.1020  141.6790 C   0  0  0  0  0  2  0  0  0  0  0  0
  189.9380  176.2970  141.6700 C   0  0  1  0  0  3  0  0  0  0  0  0
  188.7000  178.3120  140.7420 C   0  0  1  0  0  3  0  0  0  0  0  0
  189.5250  178.0120  139.4770 C   0  0  1  0  0  3  0  0  0  0  0  0
  190.9170  177.4520  139.8300 C   0  0  0  0  0  2  0  0  0  0  0  0
  191.0620  177.1370  141.2550 N   0  0  0  0  0  2  0  0  0  0  0  0
  187.2950  178.8060  140.4220 C   0  0  0  0  0  2  0  0  0  0  0  0
  186.2690  178.1910  141.3610 C   0  0  2  0  0  3  0  0  0  0  0  0
  182.6120  178.7910  144.4530 C   0  0  0  0  0  3  0  0  0  0  0  0
  184.5650  178.6550  140.8640 S   0  0  0  0  0  0  0  0  0  0  0  0
  185.0140  178.7760  144.8310 C   0  0  0  0  0  3  0  0  0  0  0  0
  185.2070  178.7250  143.4490 C   0  0  0  0  0  0  0  0  0  0  0  0
  186.5320  178.6560  142.7930 C   0  0  0  0  0  2  0  0  0  0  0  0
  184.1330  178.7250  142.5840 C   0  0  0  0  0  0  0  0  0  0  0  0
  183.7060  178.8100  145.3320 C   0  0  0  0  0  3  0  0  0  0  0  0
  182.8240  178.7440  143.0680 C   0  0  0  0  0  3  0  0  0  0  0  0
  188.8540  177.1000  138.6540 O   0  0  0  0  0  0  0  0  0  0  0  0
  189.3080  177.3790  137.3640 C   0  0  0  0  0  2  0  0  0  0  0  0
  188.8920  178.7830  136.9750 C   0  0  0  0  0  2  0  0  0  0  0  0
  187.4740  178.7580  136.4480 C   0  0  0  0  0  1  0  0  0  0  0  0
  190.1900  175.7240  143.0550 C   0  0  0  0  0  2  0  0  0  0  0  0
  191.6030  176.0340  143.5340 C   0  0  0  0  0  2  0  0  0  0  0  0
  191.8520  175.4890  144.9380 C   0  0  0  0  0  2  0  0  0  0  0  0
  192.3860  176.2050  147.1340 F   0  0  0  0  0  0  0  0  0  0  0  0
  191.9910  177.8100  145.6000 O   0  0  0  0  0  1  0  0  0  0  0  0
  191.6100  176.5350  146.0370 C   0  0  1  0  0  0  0  0  0  0  0  0
  190.2570  176.5300  146.4470 O   0  0  0  0  0  0  0  0  0  0  0  0
  188.3910  178.0570  146.7690 C   0  0  2  0  0  3  0  0  0  0  0  0
  188.2080  177.2850  145.4780 C   0  0  0  0  0  2  0  0  0  0  0  0
  189.6050  177.6660  145.9260 C   0  0  2  0  0  3  0  0  0  0  0  0
  188.2210  177.1960  147.8560 O   0  0  0  0  0  0  0  0  0  0  0  0
  188.1440  178.0390  148.9640 C   0  0  0  0  0  1  0  0  0  0  0  0
  2  1  1  0  0  0  0
  2 21  1  1  0  0  0
  3  7  1  6  0  0  0
  3  1  1  0  0  0  0
  4 17  1  6  0  0  0
  4  5  1  0  0  0  0
  4  3  1  0  0  0  0
  5  6  1  0  0  0  0
  6  2  1  0  0  0  0
  8  7  1  6  0  0  0
  8 13  1  0  0  0  0
  9 15  1  0  0  0  0
 10  8  1  0  0  0  0
 10 14  1  0  0  0  0
 11 15  2  0  0  0  0
 12 11  1  0  0  0  0
 13 12  1  0  0  0  0
 14 16  1  0  0  0  0
 14 12  2  0  0  0  0
 16  9  2  0  0  0  0
 18 17  1  0  0  0  0
 19 18  1  0  0  0  0
 20 19  1  0  0  0  0
 21 22  1  0  0  0  0
 22 23  1  0  0  0  0
 23 26  1  0  0  0  0
 26 25  1  6  0  0  0
 26 27  1  0  0  0  0
 26 24  1  0  0  0  0
 28 31  1  1  0  0  0
 29 30  1  0  0  0  0
 29 28  1  0  0  0  0
 30 27  1  1  0  0  0
 30 28  1  0  0  0  0
 31 32  1  0  0  0  0
M  END
>  <MODEL>
6

>  <REMARK>
 VINA RESULT:      -6.9      2.414      6.600
  Name = 
  12 active torsions:
  status: ('A' for Active; 'I' for Inactive)
    1  A    between atoms: C_2  and  C_5
    2  A    between atoms: C_2  and  C_6
    3  A    between atoms: C_3  and  O_22
    4  A    between atoms: C_4  and  C_27
    5  A    between atoms: O_7  and  C_19
    6  A    between atoms: O_7  and  C_26
    7  A    between atoms: C_13  and  C_29
    8  A    between atoms: C_14  and  O_18
    9  A    between atoms: O_18  and  C_29
   10  A    between atoms: C_20  and  C_24
   11  A    between atoms: C_20  and  C_26
   12  A    between atoms: C_24  and  C_27
                            x       y       z     vdW  Elec       q    Type
                         _______ _______ _______ _____ _____    ______ ____

>  <TORSDO>
F 12

$$$$
=
 OpenBabel10272413173D

 32 35  0  0  1  0  0  0  0  0999 V2000
  186.1900  177.7030  144.2580 C   0  0  0  0  0  2  0  0  0  0  0  0
  184.9570  178.2550  144.9800 C   0  0  1  0  0  3  0  0  0  0  0  0
  187.4950  178.2160  144.8760 C   0  0  1  0  0  3  0  0  0  0  0  0
  187.3800  178.3720  146.4040 C   0  0  1  0  0  3  0  0  0  0  0  0
  186.1580  179.2240  146.7950 C   0  0  0  0  0  2  0  0  0  0  0  0
  185.2740  179.5110  145.6610 N   0  0  0  0  0  2  0  0  0  0  0  0
  188.6590  177.3240  144.4630 C   0  0  0  0  0  2  0  0  0  0  0  0
  188.5500  176.9230  143.0010 C   0  0  2  0  0  3  0  0  0  0  0  0
  190.2380  177.2410  138.4900 C   0  0  0  0  0  3  0  0  0  0  0  0
  190.1010  176.1310  142.4220 S   0  0  0  0  0  0  0  0  0  0  0  0
  188.6130  178.6130  139.6690 C   0  0  0  0  0  3  0  0  0  0  0  0
  188.9080  177.9130  140.8410 C   0  0  0  0  0  0  0  0  0  0  0  0
  188.2510  178.1530  142.1450 C   0  0  0  0  0  2  0  0  0  0  0  0
  189.8570  176.9130  140.8480 C   0  0  0  0  0  0  0  0  0  0  0  0
  189.2860  178.2720  138.4880 C   0  0  0  0  0  3  0  0  0  0  0  0
  190.5250  176.5510  139.6760 C   0  0  0  0  0  3  0  0  0  0  0  0
  187.2910  177.1210  147.0230 O   0  0  0  0  0  0  0  0  0  0  0  0
  187.9300  177.2820  148.2540 C   0  0  0  0  0  2  0  0  0  0  0  0
  189.3280  177.8220  148.0290 C   0  0  0  0  0  2  0  0  0  0  0  0
  190.2120  176.7190  147.4890 C   0  0  0  0  0  1  0  0  0  0  0  0
  183.8340  178.4670  143.9770 C   0  0  0  0  0  2  0  0  0  0  0  0
  184.3820  178.8410  142.6050 C   0  0  0  0  0  2  0  0  0  0  0  0
  183.4420  178.3960  141.4860 C   0  0  0  0  0  2  0  0  0  0  0  0
  183.0240  179.7950  139.6190 F   0  0  0  0  0  0  0  0  0  0  0  0
  185.1820  179.4380  140.1690 O   0  0  0  0  0  1  0  0  0  0  0  0
  183.9140  178.8490  140.0950 C   0  0  1  0  0  0  0  0  0  0  0  0
  183.9180  177.7640  139.1870 O   0  0  0  0  0  0  0  0  0  0  0  0
  182.9390  175.5990  138.6710 C   0  0  2  0  0  3  0  0  0  0  0  0
  181.9470  176.7000  138.3590 C   0  0  0  0  0  2  0  0  0  0  0  0
  182.8920  176.8610  139.5310 C   0  0  2  0  0  3  0  0  0  0  0  0
  183.9900  175.6420  137.7510 O   0  0  0  0  0  0  0  0  0  0  0  0
  184.3130  174.3050  137.5220 C   0  0  0  0  0  1  0  0  0  0  0  0
  1  3  1  0  0  0  0
  1  2  1  0  0  0  0
  2 21  1  6  0  0  0
  2  6  1  0  0  0  0
  3  7  1  1  0  0  0
  3  4  1  0  0  0  0
  4  5  1  0  0  0  0
  4 17  1  1  0  0  0
  6  5  1  0  0  0  0
  8  7  1  1  0  0  0
  9 16  1  0  0  0  0
 10  8  1  0  0  0  0
 11 12  2  0  0  0  0
 12 14  1  0  0  0  0
 12 13  1  0  0  0  0
 13  8  1  0  0  0  0
 14 10  1  0  0  0  0
 15  9  2  0  0  0  0
 15 11  1  0  0  0  0
 16 14  2  0  0  0  0
 17 18  1  0  0  0  0
 19 18  1  0  0  0  0
 20 19  1  0  0  0  0
 22 21  1  0  0  0  0
 23 22  1  0  0  0  0
 26 24  1  6  0  0  0
 26 25  1  0  0  0  0
 26 23  1  0  0  0  0
 27 26  1  0  0  0  0
 28 31  1  6  0  0  0
 28 30  1  0  0  0  0
 29 28  1  0  0  0  0
 29 30  1  0  0  0  0
 30 27  1  6  0  0  0
 32 31  1  0  0  0  0
M  END
>  <MODEL>
7

>  <REMARK>
 VINA RESULT:      -6.9      2.994      5.821
  Name = 
  12 active torsions:
  status: ('A' for Active; 'I' for Inactive)
    1  A    between atoms: C_2  and  C_5
    2  A    between atoms: C_2  and  C_6
    3  A    between atoms: C_3  and  O_22
    4  A    between atoms: C_4  and  C_27
    5  A    between atoms: O_7  and  C_19
    6  A    between atoms: O_7  and  C_26
    7  A    between atoms: C_13  and  C_29
    8  A    between atoms: C_14  and  O_18
    9  A    between atoms: O_18  and  C_29
   10  A    between atoms: C_20  and  C_24
   11  A    between atoms: C_20  and  C_26
   12  A    between atoms: C_24  and  C_27
                            x       y       z     vdW  Elec       q    Type
                         _______ _______ _______ _____ _____    ______ ____

>  <TORSDO>
F 12

$$$$
=
 OpenBabel10272413173D

 32 35  0  0  1  0  0  0  0  0999 V2000
  189.6090  177.9870  141.9330 C   0  0  0  0  0  2  0  0  0  0  0  0
  190.9070  177.2240  141.6510 C   0  0  1  0  0  3  0  0  0  0  0  0
  188.7990  177.3440  143.0640 C   0  0  1  0  0  3  0  0  0  0  0  0
  189.7100  176.7500  144.1530 C   0  0  1  0  0  3  0  0  0  0  0  0
  190.7600  175.7960  143.5530 C   0  0  0  0  0  2  0  0  0  0  0  0
  190.7940  175.8320  142.0870 N   0  0  0  0  0  2  0  0  0  0  0  0
  187.7910  178.3420  143.6210 C   0  0  0  0  0  2  0  0  0  0  0  0
  186.3650  177.8730  143.3840 C   0  0  2  0  0  3  0  0  0  0  0  0
  181.7610  178.9590  142.4290 C   0  0  0  0  0  3  0  0  0  0  0  0
  185.7560  178.4300  141.7450 S   0  0  0  0  0  0  0  0  0  0  0  0
  182.9360  178.7890  144.5510 C   0  0  0  0  0  3  0  0  0  0  0  0
  184.1320  178.6280  143.8480 C   0  0  0  0  0  0  0  0  0  0  0  0
  185.4510  178.4140  144.4840 C   0  0  0  0  0  2  0  0  0  0  0  0
  184.1510  178.6500  142.4690 C   0  0  0  0  0  0  0  0  0  0  0  0
  181.7440  178.9560  143.8320 C   0  0  0  0  0  3  0  0  0  0  0  0
  182.9710  178.8010  141.7390 C   0  0  0  0  0  3  0  0  0  0  0  0
  190.3590  177.7660  144.8630 O   0  0  0  0  0  0  0  0  0  0  0  0
  191.4030  177.1260  145.5340 C   0  0  0  0  0  2  0  0  0  0  0  0
  190.8850  176.5410  146.8310 C   0  0  0  0  0  2  0  0  0  0  0  0
  192.0170  175.8440  147.5550 C   0  0  0  0  0  1  0  0  0  0  0  0
  191.2210  177.2880  140.1650 C   0  0  0  0  0  2  0  0  0  0  0  0
  190.0340  176.8250  139.3280 C   0  0  0  0  0  2  0  0  0  0  0  0
  189.9680  177.5620  137.9920 C   0  0  0  0  0  2  0  0  0  0  0  0
  187.9850  178.3740  139.0060 F   0  0  0  0  0  0  0  0  0  0  0  0
  188.8810  179.6270  137.3580 O   0  0  0  0  0  1  0  0  0  0  0  0
  188.6440  178.3160  137.7910 C   0  0  1  0  0  0  0  0  0  0  0  0
  187.8090  177.6310  136.8790 O   0  0  0  0  0  0  0  0  0  0  0  0
  186.0410  175.9620  136.9680 C   0  0  2  0  0  3  0  0  0  0  0  0
  185.4700  177.2940  136.5230 C   0  0  0  0  0  2  0  0  0  0  0  0
  186.6080  177.2690  137.5230 C   0  0  2  0  0  3  0  0  0  0  0  0
  186.8500  175.4390  135.9560 O   0  0  0  0  0  0  0  0  0  0  0  0
  186.0910  174.4140  135.3940 C   0  0  0  0  0  1  0  0  0  0  0  0
  1  3  1  0  0  0  0
  2 21  1  6  0  0  0
  2  1  1  0  0  0  0
  2  6  1  0  0  0  0
  3  7  1  1  0  0  0
  3  4  1  0  0  0  0
  4 17  1  6  0  0  0
  5  4  1  0  0  0  0
  6  5  1  0  0  0  0
  8  7  1  1  0  0  0
  8 13  1  0  0  0  0
  9 15  1  0  0  0  0
 10 14  1  0  0  0  0
 10  8  1  0  0  0  0
 12 13  1  0  0  0  0
 12 11  1  0  0  0  0
 14 12  2  0  0  0  0
 15 11  2  0  0  0  0
 16  9  2  0  0  0  0
 16 14  1  0  0  0  0
 17 18  1  0  0  0  0
 18 19  1  0  0  0  0
 19 20  1  0  0  0  0
 22 21  1  0  0  0  0
 23 22  1  0  0  0  0
 26 25  1  6  0  0  0
 26 23  1  0  0  0  0
 26 24  1  0  0  0  0
 27 26  1  0  0  0  0
 28 31  1  6  0  0  0
 28 30  1  0  0  0  0
 29 28  1  0  0  0  0
 29 30  1  0  0  0  0
 30 27  1  6  0  0  0
 32 31  1  0  0  0  0
M  END
>  <MODEL>
8

>  <REMARK>
 VINA RESULT:      -6.9      1.630      2.255
  Name = 
  12 active torsions:
  status: ('A' for Active; 'I' for Inactive)
    1  A    between atoms: C_2  and  C_5
    2  A    between atoms: C_2  and  C_6
    3  A    between atoms: C_3  and  O_22
    4  A    between atoms: C_4  and  C_27
    5  A    between atoms: O_7  and  C_19
    6  A    between atoms: O_7  and  C_26
    7  A    between atoms: C_13  and  C_29
    8  A    between atoms: C_14  and  O_18
    9  A    between atoms: O_18  and  C_29
   10  A    between atoms: C_20  and  C_24
   11  A    between atoms: C_20  and  C_26
   12  A    between atoms: C_24  and  C_27
                            x       y       z     vdW  Elec       q    Type
                         _______ _______ _______ _____ _____    ______ ____

>  <TORSDO>
F 12

$$$$
=
 OpenBabel10272413173D

 32 35  0  0  1  0  0  0  0  0999 V2000
  188.1230  177.5950  145.3500 C   0  0  0  0  0  2  0  0  0  0  0  0
  187.2000  177.3410  146.5460 C   0  0  1  0  0  3  0  0  0  0  0  0
  189.4140  178.3090  145.7620 C   0  0  1  0  0  3  0  0  0  0  0  0
  189.8990  177.8550  147.1510 C   0  0  1  0  0  3  0  0  0  0  0  0
  188.7840  177.9780  148.2070 C   0  0  0  0  0  2  0  0  0  0  0  0
  187.4750  178.2910  147.6240 N   0  0  0  0  0  2  0  0  0  0  0  0
  190.4770  178.1370  144.6840 C   0  0  0  0  0  2  0  0  0  0  0  0
  189.9100  177.4350  143.4610 C   0  0  2  0  0  3  0  0  0  0  0  0
  189.5820  177.1230  138.6560 C   0  0  0  0  0  3  0  0  0  0  0  0
  191.2570  176.8250  142.3730 S   0  0  0  0  0  0  0  0  0  0  0  0
  188.2630  178.4010  140.2490 C   0  0  0  0  0  3  0  0  0  0  0  0
  189.1500  178.0140  141.2560 C   0  0  0  0  0  0  0  0  0  0  0  0
  189.0140  178.3960  142.6790 C   0  0  0  0  0  2  0  0  0  0  0  0
  190.2390  177.2170  140.9730 C   0  0  0  0  0  0  0  0  0  0  0  0
  188.4850  177.9500  138.9400 C   0  0  0  0  0  3  0  0  0  0  0  0
  190.4650  176.7480  139.6780 C   0  0  0  0  0  3  0  0  0  0  0  0
  190.3530  176.5320  147.1080 O   0  0  0  0  0  0  0  0  0  0  0  0
  191.5460  176.5380  147.8320 C   0  0  0  0  0  2  0  0  0  0  0  0
  192.4390  175.4160  147.3430 C   0  0  0  0  0  2  0  0  0  0  0  0
  192.1620  175.1560  145.8780 C   0  0  0  0  0  1  0  0  0  0  0  0
  185.7510  177.4520  146.1010 C   0  0  0  0  0  2  0  0  0  0  0  0
  185.5610  178.6010  145.1170 C   0  0  0  0  0  2  0  0  0  0  0  0
  184.9080  178.1260  143.8200 C   0  0  0  0  0  2  0  0  0  0  0  0
  183.9100  180.2740  143.7370 F   0  0  0  0  0  0  0  0  0  0  0  0
  185.5190  179.8320  142.2200 O   0  0  0  0  0  1  0  0  0  0  0  0
  184.4410  179.2860  142.9270 C   0  0  1  0  0  0  0  0  0  0  0  0
  183.4240  178.8600  142.0410 O   0  0  0  0  0  0  0  0  0  0  0  0
  183.3330  178.6010  139.6250 C   0  0  2  0  0  3  0  0  0  0  0  0
  182.9860  177.2880  140.2970 C   0  0  0  0  0  2  0  0  0  0  0  0
  184.0080  178.2060  140.9380 C   0  0  2  0  0  3  0  0  0  0  0  0
  182.3010  179.5200  139.8330 O   0  0  0  0  0  0  0  0  0  0  0  0
  181.8920  179.8860  138.5510 C   0  0  0  0  0  1  0  0  0  0  0  0
  1  3  1  0  0  0  0
  1  2  1  0  0  0  0
  2 21  1  6  0  0  0
  2  6  1  0  0  0  0
  3  7  1  6  0  0  0
  3  4  1  0  0  0  0
  4 17  1  6  0  0  0
  4  5  1  0  0  0  0
  6  5  1  0  0  0  0
  8  7  1  1  0  0  0
  9 15  2  0  0  0  0
  9 16  1  0  0  0  0
 10  8  1  0  0  0  0
 11 12  2  0  0  0  0
 12 13  1  0  0  0  0
 13  8  1  0  0  0  0
 14 12  1  0  0  0  0
 14 10  1  0  0  0  0
 15 11  1  0  0  0  0
 16 14  2  0  0  0  0
 17 18  1  0  0  0  0
 19 18  1  0  0  0  0
 20 19  1  0  0  0  0
 22 21  1  0  0  0  0
 23 22  1  0  0  0  0
 26 25  1  6  0  0  0
 26 24  1  0  0  0  0
 26 23  1  0  0  0  0
 27 26  1  0  0  0  0
 28 31  1  1  0  0  0
 28 29  1  0  0  0  0
 28 30  1  0  0  0  0
 29 30  1  0  0  0  0
 30 27  1  1  0  0  0
 32 31  1  0  0  0  0
M  END
>  <MODEL>
9

>  <REMARK>
 VINA RESULT:      -6.8      3.269      5.838
  Name = 
  12 active torsions:
  status: ('A' for Active; 'I' for Inactive)
    1  A    between atoms: C_2  and  C_5
    2  A    between atoms: C_2  and  C_6
    3  A    between atoms: C_3  and  O_22
    4  A    between atoms: C_4  and  C_27
    5  A    between atoms: O_7  and  C_19
    6  A    between atoms: O_7  and  C_26
    7  A    between atoms: C_13  and  C_29
    8  A    between atoms: C_14  and  O_18
    9  A    between atoms: O_18  and  C_29
   10  A    between atoms: C_20  and  C_24
   11  A    between atoms: C_20  and  C_26
   12  A    between atoms: C_24  and  C_27
                            x       y       z     vdW  Elec       q    Type
                         _______ _______ _______ _____ _____    ______ ____

>  <TORSDO>
F 12

$$$$
