=
 OpenBabel10262423473D

 34 39  0  0  1  0  0  0  0  0999 V2000
  186.9140  178.3350  138.8610 C   0  0  2  0  0  3  0  0  0  0  0  0
  189.5710  178.6280  138.8760 C   0  0  1  0  0  3  0  0  0  0  0  0
  188.2200  177.6840  140.9310 C   0  0  2  0  0  3  0  0  0  0  0  0
  189.7510  177.2680  143.0710 C   0  0  2  0  0  3  0  0  0  0  0  0
  189.4000  178.7510  137.4950 O   0  0  0  0  0  1  0  0  0  0  0  0
  190.8650  177.5560  140.7290 C   0  0  0  0  0  2  0  0  0  0  0  0
  188.2340  178.5050  139.6420 C   0  0  2  0  0  3  0  0  0  0  0  0
  189.5820  176.0220  142.2250 C   0  0  0  0  0  2  0  0  0  0  0  0
  187.2520  178.3720  141.8880 C   0  0  2  0  0  3  0  0  0  0  0  0
  185.7260  178.0690  139.8140 C   0  0  0  0  0  2  0  0  0  0  0  0
  190.5920  177.5460  139.2220 C   0  0  1  0  0  3  0  0  0  0  0  0
  188.4860  177.5530  143.9080 C   0  0  0  0  0  2  0  0  0  0  0  0
  187.1410  177.5420  143.1660 C   0  0  1  0  0  3  0  0  0  0  0  0
  189.5900  177.3860  141.5550 C   0  0  2  0  0  0  0  0  0  0  0  0
  185.8930  178.6880  141.2140 C   0  0  0  0  0  2  0  0  0  0  0  0
  183.7720  178.7400  144.4850 C   0  0  0  0  0  0  0  0  0  0  0  0
  184.0630  178.9110  145.8410 C   0  0  0  0  0  3  0  0  0  0  0  0
  186.0570  178.0220  144.0850 C   0  0  0  0  0  0  0  0  0  0  0  0
  185.3480  178.6390  146.3200 C   0  0  0  0  0  3  0  0  0  0  0  0
  184.7650  178.2970  143.6070 C   0  0  0  0  0  3  0  0  0  0  0  0
  186.3420  178.1960  145.4440 C   0  0  0  0  0  3  0  0  0  0  0  0
  182.5260  179.0030  144.0200 F   0  0  0  0  0  0  0  0  0  0  0  0
  186.1220  177.4470  136.6660 C   0  0  0  0  0  1  0  0  0  0  0  0
  187.0010  177.1800  137.8720 C   0  0  0  0  0  2  0  0  0  0  0  0
  190.1630  176.1690  138.7090 C   0  0  0  0  0  2  0  0  0  0  0  0
  191.0220  174.2510  137.3190 C   0  0  0  0  0  0  0  0  0  0  0  0
  191.2400  175.5120  137.9020 C   0  0  0  0  0  0  0  0  0  0  0  0
  193.4640  175.5810  136.9320 C   0  0  0  0  0  3  0  0  0  0  0  0
  193.2580  174.3220  136.3650 C   0  0  0  0  0  3  0  0  0  0  0  0
  192.0430  173.6610  136.5560 C   0  0  0  0  0  3  0  0  0  0  0  0
  192.4570  176.1750  137.6960 C   0  0  0  0  0  3  0  0  0  0  0  0
  189.7920  173.6080  137.5020 O   0  0  0  0  0  0  0  0  0  0  0  0
  188.9610  173.2110  136.4200 C   0  0  0  0  0  2  0  0  0  0  0  0
  188.3950  174.4410  135.7420 C   0  0  0  0  0  1  0  0  0  0  0  0
  1 24  1  6  0  0  0
  1  7  1  0  0  0  0
  1 10  1  0  0  0  0
  2  5  1  6  0  0  0
  2 11  1  0  0  0  0
  2  7  1  0  0  0  0
  3 14  1  0  0  0  0
  3  9  1  0  0  0  0
  4 12  1  0  0  0  0
  6 14  1  0  0  0  0
  7  3  1  0  0  0  0
  8  4  1  0  0  0  0
  9 13  1  0  0  0  0
 10 15  1  0  0  0  0
 11  6  1  0  0  0  0
 13 12  1  0  0  0  0
 13 18  1  0  0  0  0
 14  8  1  0  0  0  0
 14  4  1  0  0  0  0
 15  9  1  0  0  0  0
 16 17  1  0  0  0  0
 17 19  2  0  0  0  0
 18 21  2  0  0  0  0
 20 18  1  0  0  0  0
 20 16  2  0  0  0  0
 21 19  1  0  0  0  0
 22 16  1  0  0  0  0
 23 24  1  0  0  0  0
 25 11  1  0  0  0  0
 26 32  1  0  0  0  0
 26 27  1  0  0  0  0
 27 25  1  0  0  0  0
 28 31  1  0  0  0  0
 29 30  1  0  0  0  0
 29 28  2  0  0  0  0
 30 26  2  0  0  0  0
 31 27  2  0  0  0  0
 33 32  1  0  0  0  0
 34 33  1  0  0  0  0
M  END
>  <MODEL>
1

>  <REMARK>
 VINA RESULT:      -8.5      0.000      0.000
  Name = 
  6 active torsions:
  status: ('A' for Active; 'I' for Inactive)
    1  A    between atoms: C_1  and  C_19
    2  A    between atoms: O_3  and  C_13
    3  A    between atoms: O_3  and  C_17
    4  A    between atoms: C_11  and  C_14
    5  A    between atoms: C_11  and  C_25
    6  A    between atoms: C_12  and  C_28
                            x       y       z     vdW  Elec       q    Type
                         _______ _______ _______ _____ _____    ______ ____

>  <TORSDO>
F 6

$$$$
=
 OpenBabel10262423473D

 34 39  0  0  1  0  0  0  0  0999 V2000
  186.9180  178.3170  138.6670 C   0  0  2  0  0  3  0  0  0  0  0  0
  189.5720  178.6240  138.7380 C   0  0  1  0  0  3  0  0  0  0  0  0
  188.1800  177.6980  140.7740 C   0  0  2  0  0  3  0  0  0  0  0  0
  189.6640  177.3160  142.9530 C   0  0  2  0  0  3  0  0  0  0  0  0
  189.4320  178.7290  137.3520 O   0  0  0  0  0  1  0  0  0  0  0  0
  190.8290  177.5810  140.6340 C   0  0  0  0  0  2  0  0  0  0  0  0
  188.2190  178.5040  139.4750 C   0  0  2  0  0  3  0  0  0  0  0  0
  189.5200  176.0590  142.1180 C   0  0  0  0  0  2  0  0  0  0  0  0
  187.1870  178.3930  141.7000 C   0  0  2  0  0  3  0  0  0  0  0  0
  185.7090  178.0570  139.5960 C   0  0  0  0  0  2  0  0  0  0  0  0
  190.5900  177.5510  139.1210 C   0  0  1  0  0  3  0  0  0  0  0  0
  188.3790  177.6050  143.7570 C   0  0  0  0  0  2  0  0  0  0  0  0
  187.0510  177.5780  142.9850 C   0  0  1  0  0  3  0  0  0  0  0  0
  189.5360  177.4140  141.4320 C   0  0  2  0  0  0  0  0  0  0  0  0
  185.8420  178.6940  140.9910 C   0  0  0  0  0  2  0  0  0  0  0  0
  185.0820  178.6680  146.0610 C   0  0  0  0  0  0  0  0  0  0  0  0
  183.8450  178.9800  145.4880 C   0  0  0  0  0  3  0  0  0  0  0  0
  185.9430  178.0640  143.8730 C   0  0  0  0  0  0  0  0  0  0  0  0
  183.6570  178.8350  144.1110 C   0  0  0  0  0  3  0  0  0  0  0  0
  186.1290  178.2110  145.2570 C   0  0  0  0  0  3  0  0  0  0  0  0
  184.7030  178.3770  143.3050 C   0  0  0  0  0  3  0  0  0  0  0  0
  185.2660  178.8100  147.3960 F   0  0  0  0  0  0  0  0  0  0  0  0
  186.2210  177.4210  136.4430 C   0  0  0  0  0  1  0  0  0  0  0  0
  187.0330  177.1510  137.6940 C   0  0  0  0  0  2  0  0  0  0  0  0
  190.1800  176.1660  138.6150 C   0  0  0  0  0  2  0  0  0  0  0  0
  191.0840  174.2300  137.2800 C   0  0  0  0  0  0  0  0  0  0  0  0
  191.2800  175.5020  137.8470 C   0  0  0  0  0  0  0  0  0  0  0  0
  193.5270  175.5670  136.9310 C   0  0  0  0  0  3  0  0  0  0  0  0
  193.3430  174.2980  136.3810 C   0  0  0  0  0  3  0  0  0  0  0  0
  192.1270  173.6330  136.5530 C   0  0  0  0  0  3  0  0  0  0  0  0
  192.4980  176.1690  137.6590 C   0  0  0  0  0  3  0  0  0  0  0  0
  189.8540  173.5830  137.4430 O   0  0  0  0  0  0  0  0  0  0  0  0
  189.0750  173.1190  136.3500 C   0  0  0  0  0  2  0  0  0  0  0  0
  188.3850  174.2940  135.6890 C   0  0  0  0  0  1  0  0  0  0  0  0
  1 24  1  6  0  0  0
  1  7  1  0  0  0  0
  1 10  1  0  0  0  0
  2  5  1  6  0  0  0
  2 11  1  0  0  0  0
  2  7  1  0  0  0  0
  3 14  1  0  0  0  0
  3  9  1  0  0  0  0
  4 12  1  0  0  0  0
  6 14  1  0  0  0  0
  7  3  1  0  0  0  0
  8  4  1  0  0  0  0
  9 13  1  0  0  0  0
 10 15  1  0  0  0  0
 11  6  1  0  0  0  0
 13 12  1  0  0  0  0
 13 18  1  0  0  0  0
 14  8  1  0  0  0  0
 14  4  1  0  0  0  0
 15  9  1  0  0  0  0
 16 22  1  0  0  0  0
 17 16  1  0  0  0  0
 18 20  1  0  0  0  0
 19 17  2  0  0  0  0
 20 16  2  0  0  0  0
 21 18  2  0  0  0  0
 21 19  1  0  0  0  0
 23 24  1  0  0  0  0
 25 11  1  0  0  0  0
 26 32  1  0  0  0  0
 26 27  1  0  0  0  0
 27 25  1  0  0  0  0
 28 31  1  0  0  0  0
 29 30  1  0  0  0  0
 29 28  2  0  0  0  0
 30 26  2  0  0  0  0
 31 27  2  0  0  0  0
 33 32  1  0  0  0  0
 34 33  1  0  0  0  0
M  END
>  <MODEL>
2

>  <REMARK>
 VINA RESULT:      -8.4      0.772      1.133
  Name = 
  6 active torsions:
  status: ('A' for Active; 'I' for Inactive)
    1  A    between atoms: C_1  and  C_19
    2  A    between atoms: O_3  and  C_13
    3  A    between atoms: O_3  and  C_17
    4  A    between atoms: C_11  and  C_14
    5  A    between atoms: C_11  and  C_25
    6  A    between atoms: C_12  and  C_28
                            x       y       z     vdW  Elec       q    Type
                         _______ _______ _______ _____ _____    ______ ____

>  <TORSDO>
F 6

$$$$
=
 OpenBabel10262423473D

 34 39  0  0  1  0  0  0  0  0999 V2000
  186.6190  178.6460  139.9710 C   0  0  2  0  0  3  0  0  0  0  0  0
  189.1940  178.7220  139.2580 C   0  0  1  0  0  3  0  0  0  0  0  0
  188.3600  177.6400  141.5100 C   0  0  2  0  0  3  0  0  0  0  0  0
  190.3620  176.8390  143.0750 C   0  0  2  0  0  3  0  0  0  0  0  0
  188.6670  179.0290  138.0010 O   0  0  0  0  0  1  0  0  0  0  0  0
  190.8180  177.3270  140.5530 C   0  0  0  0  0  2  0  0  0  0  0  0
  188.1130  178.6110  140.3570 C   0  0  2  0  0  3  0  0  0  0  0  0
  189.8300  175.7260  142.1940 C   0  0  0  0  0  2  0  0  0  0  0  0
  187.7750  178.2780  142.7650 C   0  0  2  0  0  3  0  0  0  0  0  0
  185.7150  178.3580  141.1920 C   0  0  0  0  0  2  0  0  0  0  0  0
  190.1430  177.5270  139.1920 C   0  0  1  0  0  3  0  0  0  0  0  0
  189.4150  177.1180  144.2610 C   0  0  0  0  0  2  0  0  0  0  0  0
  187.9250  177.3060  143.9350 C   0  0  1  0  0  3  0  0  0  0  0  0
  189.8060  177.1570  141.6860 C   0  0  2  0  0  0  0  0  0  0  0  0
  186.3270  178.7830  142.5390 C   0  0  0  0  0  2  0  0  0  0  0  0
  187.1460  178.2890  147.5340 C   0  0  0  0  0  0  0  0  0  0  0  0
  185.7860  178.5970  147.4370 C   0  0  0  0  0  3  0  0  0  0  0  0
  187.1940  177.7530  145.1660 C   0  0  0  0  0  0  0  0  0  0  0  0
  185.1300  178.4830  146.2080 C   0  0  0  0  0  3  0  0  0  0  0  0
  187.8500  177.8680  146.4030 C   0  0  0  0  0  3  0  0  0  0  0  0
  185.8320  178.0620  145.0750 C   0  0  0  0  0  3  0  0  0  0  0  0
  187.7830  178.4000  148.7250 F   0  0  0  0  0  0  0  0  0  0  0  0
  185.1980  178.1270  137.9850 C   0  0  0  0  0  1  0  0  0  0  0  0
  186.3030  177.6200  138.8900 C   0  0  0  0  0  2  0  0  0  0  0  0
  189.4400  176.2630  138.6900 C   0  0  0  0  0  2  0  0  0  0  0  0
  190.8190  175.1650  136.8910 C   0  0  0  0  0  0  0  0  0  0  0  0
  189.7390  175.9900  137.2490 C   0  0  0  0  0  0  0  0  0  0  0  0
  189.1710  176.2700  134.9060 C   0  0  0  0  0  3  0  0  0  0  0  0
  190.2520  175.4650  134.5450 C   0  0  0  0  0  3  0  0  0  0  0  0
  191.0720  174.9130  135.5320 C   0  0  0  0  0  3  0  0  0  0  0  0
  188.9130  176.5290  136.2540 C   0  0  0  0  0  3  0  0  0  0  0  0
  191.6210  174.6030  137.8910 O   0  0  0  0  0  0  0  0  0  0  0  0
  193.0380  174.7110  137.8960 C   0  0  0  0  0  2  0  0  0  0  0  0
  193.4310  176.1610  138.0800 C   0  0  0  0  0  1  0  0  0  0  0  0
  1 24  1  6  0  0  0
  1  7  1  0  0  0  0
  1 10  1  0  0  0  0
  2  5  1  6  0  0  0
  2  7  1  0  0  0  0
  3 14  1  0  0  0  0
  3  9  1  0  0  0  0
  4 12  1  0  0  0  0
  6 14  1  0  0  0  0
  7  3  1  0  0  0  0
  8  4  1  0  0  0  0
  9 13  1  0  0  0  0
 10 15  1  0  0  0  0
 11  2  1  0  0  0  0
 11  6  1  0  0  0  0
 13 12  1  0  0  0  0
 13 18  1  0  0  0  0
 14  8  1  0  0  0  0
 14  4  1  0  0  0  0
 15  9  1  0  0  0  0
 16 22  1  0  0  0  0
 17 16  1  0  0  0  0
 18 20  1  0  0  0  0
 19 17  2  0  0  0  0
 20 16  2  0  0  0  0
 21 18  2  0  0  0  0
 21 19  1  0  0  0  0
 23 24  1  0  0  0  0
 25 11  1  0  0  0  0
 26 27  1  0  0  0  0
 26 32  1  0  0  0  0
 27 25  1  0  0  0  0
 28 31  1  0  0  0  0
 29 28  2  0  0  0  0
 29 30  1  0  0  0  0
 30 26  2  0  0  0  0
 31 27  2  0  0  0  0
 32 33  1  0  0  0  0
 33 34  1  0  0  0  0
M  END
>  <MODEL>
3

>  <REMARK>
 VINA RESULT:      -7.9      1.749      2.616
  Name = 
  6 active torsions:
  status: ('A' for Active; 'I' for Inactive)
    1  A    between atoms: C_1  and  C_19
    2  A    between atoms: O_3  and  C_13
    3  A    between atoms: O_3  and  C_17
    4  A    between atoms: C_11  and  C_14
    5  A    between atoms: C_11  and  C_25
    6  A    between atoms: C_12  and  C_28
                            x       y       z     vdW  Elec       q    Type
                         _______ _______ _______ _____ _____    ______ ____

>  <TORSDO>
F 6

$$$$
=
 OpenBabel10262423473D

 34 39  0  0  1  0  0  0  0  0999 V2000
  190.6190  177.4020  138.9230 C   0  0  2  0  0  3  0  0  0  0  0  0
  188.9750  178.7250  137.2830 C   0  0  1  0  0  3  0  0  0  0  0  0
  189.8860  176.3090  136.7590 C   0  0  2  0  0  3  0  0  0  0  0  0
  189.1720  175.4360  134.3460 C   0  0  2  0  0  3  0  0  0  0  0  0
  188.7730  179.5330  138.4040 O   0  0  0  0  0  1  0  0  0  0  0  0
  187.9090  177.4570  135.4070 C   0  0  0  0  0  2  0  0  0  0  0  0
  190.0430  177.6310  137.5100 C   0  0  2  0  0  3  0  0  0  0  0  0
  188.2210  174.9800  135.4350 C   0  0  0  0  0  2  0  0  0  0  0  0
  191.2880  175.8290  136.4020 C   0  0  2  0  0  3  0  0  0  0  0  0
  191.5440  176.1630  138.9610 C   0  0  0  0  0  2  0  0  0  0  0  0
  187.6540  178.2020  136.7210 C   0  0  1  0  0  3  0  0  0  0  0  0
  190.4800  174.6170  134.3650 C   0  0  0  0  0  2  0  0  0  0  0  0
  191.1890  174.4660  135.7190 C   0  0  1  0  0  3  0  0  0  0  0  0
  188.9210  176.3220  135.5670 C   0  0  2  0  0  0  0  0  0  0  0  0
  192.2420  175.8610  137.6230 C   0  0  0  0  0  2  0  0  0  0  0  0
  194.1290  172.0570  136.0060 C   0  0  0  0  0  0  0  0  0  0  0  0
  195.0280  172.6260  135.1000 C   0  0  0  0  0  3  0  0  0  0  0  0
  192.5240  173.8120  135.5170 C   0  0  0  0  0  0  0  0  0  0  0  0
  194.6780  173.7860  134.4030 C   0  0  0  0  0  3  0  0  0  0  0  0
  192.8800  172.6470  136.2160 C   0  0  0  0  0  3  0  0  0  0  0  0
  193.4290  174.3780  134.6110 C   0  0  0  0  0  3  0  0  0  0  0  0
  194.4680  170.9330  136.6820 F   0  0  0  0  0  0  0  0  0  0  0  0
  190.0940  176.9990  141.3310 C   0  0  0  0  0  1  0  0  0  0  0  0
  189.5090  177.2010  139.9470 C   0  0  0  0  0  2  0  0  0  0  0  0
  186.8930  177.3530  137.7430 C   0  0  0  0  0  2  0  0  0  0  0  0
  184.7880  178.4610  138.5730 C   0  0  0  0  0  0  0  0  0  0  0  0
  185.4160  177.5820  137.6730 C   0  0  0  0  0  0  0  0  0  0  0  0
  183.2830  177.1620  136.5920 C   0  0  0  0  0  3  0  0  0  0  0  0
  182.6540  178.0210  137.4940 C   0  0  0  0  0  3  0  0  0  0  0  0
  183.4030  178.6690  138.4790 C   0  0  0  0  0  3  0  0  0  0  0  0
  184.6600  176.9460  136.6790 C   0  0  0  0  0  3  0  0  0  0  0  0
  185.5540  179.1190  139.5430 O   0  0  0  0  0  0  0  0  0  0  0  0
  185.2800  179.0280  140.9340 C   0  0  0  0  0  2  0  0  0  0  0  0
  186.5650  178.7500  141.6840 C   0  0  0  0  0  1  0  0  0  0  0  0
  1 10  1  0  0  0  0
  1 24  1  1  0  0  0
  2  7  1  0  0  0  0
  2  5  1  1  0  0  0
  3  7  1  0  0  0  0
  4 12  1  0  0  0  0
  4  8  1  0  0  0  0
  4 14  1  0  0  0  0
  6 14  1  0  0  0  0
  6 11  1  0  0  0  0
  7  1  1  0  0  0  0
  8 14  1  0  0  0  0
  9  3  1  0  0  0  0
  9 15  1  0  0  0  0
 11  2  1  0  0  0  0
 11 25  1  0  0  0  0
 12 13  1  0  0  0  0
 13  9  1  0  0  0  0
 14  3  1  0  0  0  0
 15 10  1  0  0  0  0
 16 20  1  0  0  0  0
 16 22  1  0  0  0  0
 17 16  2  0  0  0  0
 18 13  1  0  0  0  0
 18 20  2  0  0  0  0
 19 21  2  0  0  0  0
 19 17  1  0  0  0  0
 21 18  1  0  0  0  0
 24 23  1  0  0  0  0
 26 32  1  0  0  0  0
 27 25  1  0  0  0  0
 27 26  2  0  0  0  0
 28 31  2  0  0  0  0
 28 29  1  0  0  0  0
 29 30  2  0  0  0  0
 30 26  1  0  0  0  0
 31 27  1  0  0  0  0
 32 33  1  0  0  0  0
 33 34  1  0  0  0  0
M  END
>  <MODEL>
4

>  <REMARK>
 VINA RESULT:      -6.8      3.608      9.109
  Name = 
  6 active torsions:
  status: ('A' for Active; 'I' for Inactive)
    1  A    between atoms: C_1  and  C_19
    2  A    between atoms: O_3  and  C_13
    3  A    between atoms: O_3  and  C_17
    4  A    between atoms: C_11  and  C_14
    5  A    between atoms: C_11  and  C_25
    6  A    between atoms: C_12  and  C_28
                            x       y       z     vdW  Elec       q    Type
                         _______ _______ _______ _____ _____    ______ ____

>  <TORSDO>
F 6

$$$$
=
 OpenBabel10262423473D

 34 39  0  0  1  0  0  0  0  0999 V2000
  190.1840  177.7740  139.0530 C   0  0  2  0  0  3  0  0  0  0  0  0
  188.8460  178.4280  136.8330 C   0  0  1  0  0  3  0  0  0  0  0  0
  190.4070  176.3130  136.9970 C   0  0  2  0  0  3  0  0  0  0  0  0
  190.6720  175.0410  134.6710 C   0  0  2  0  0  3  0  0  0  0  0  0
  188.1360  179.2590  137.7030 O   0  0  0  0  0  1  0  0  0  0  0  0
  188.7160  176.7380  134.9930 C   0  0  0  0  0  2  0  0  0  0  0  0
  190.0200  177.6960  137.5200 C   0  0  2  0  0  3  0  0  0  0  0  0
  189.5720  174.4550  135.5330 C   0  0  0  0  0  2  0  0  0  0  0  0
  191.9230  176.2000  137.1110 C   0  0  2  0  0  3  0  0  0  0  0  0
  191.3160  176.8450  139.5480 C   0  0  0  0  0  2  0  0  0  0  0  0
  187.9130  177.5120  136.0440 C   0  0  1  0  0  3  0  0  0  0  0  0
  192.0670  174.6160  135.1760 C   0  0  0  0  0  2  0  0  0  0  0  0
  192.3530  174.8000  136.6740 C   0  0  1  0  0  3  0  0  0  0  0  0
  189.8680  175.9430  135.6090 C   0  0  2  0  0  0  0  0  0  0  0  0
  192.4330  176.6130  138.5140 C   0  0  0  0  0  2  0  0  0  0  0  0
  196.1590  174.9150  136.5300 C   0  0  0  0  0  0  0  0  0  0  0  0
  196.4910  173.9620  137.4980 C   0  0  0  0  0  3  0  0  0  0  0  0
  193.8010  174.5190  136.9470 C   0  0  0  0  0  0  0  0  0  0  0  0
  195.4810  173.2880  138.1890 C   0  0  0  0  0  3  0  0  0  0  0  0
  194.8190  175.1930  136.2530 C   0  0  0  0  0  3  0  0  0  0  0  0
  194.1390  173.5660  137.9150 C   0  0  0  0  0  3  0  0  0  0  0  0
  197.1380  175.5690  135.8590 F   0  0  0  0  0  0  0  0  0  0  0  0
  188.9420  177.8170  141.2190 C   0  0  0  0  0  1  0  0  0  0  0  0
  188.8970  177.3820  139.7670 C   0  0  0  0  0  2  0  0  0  0  0  0
  187.1010  176.5950  136.9610 C   0  0  0  0  0  2  0  0  0  0  0  0
  184.8230  177.5040  137.5390 C   0  0  0  0  0  0  0  0  0  0  0  0
  185.6300  176.7080  136.7060 C   0  0  0  0  0  0  0  0  0  0  0  0
  183.6930  176.1570  135.3510 C   0  0  0  0  0  3  0  0  0  0  0  0
  182.8860  176.9330  136.1840 C   0  0  0  0  0  3  0  0  0  0  0  0
  183.4480  177.6050  137.2720 C   0  0  0  0  0  3  0  0  0  0  0  0
  185.0610  176.0470  135.6090 C   0  0  0  0  0  3  0  0  0  0  0  0
  185.4030  178.1880  138.6140 O   0  0  0  0  0  0  0  0  0  0  0  0
  184.6410  178.9210  139.5630 C   0  0  0  0  0  2  0  0  0  0  0  0
  185.3540  178.9070  140.8990 C   0  0  0  0  0  1  0  0  0  0  0  0
  1 10  1  0  0  0  0
  1 24  1  1  0  0  0
  2  7  1  0  0  0  0
  2  5  1  1  0  0  0
  3  9  1  0  0  0  0
  3  7  1  0  0  0  0
  4 12  1  0  0  0  0
  4  8  1  0  0  0  0
  4 14  1  0  0  0  0
  6 14  1  0  0  0  0
  6 11  1  0  0  0  0
  7  1  1  0  0  0  0
  8 14  1  0  0  0  0
  9 15  1  0  0  0  0
 11  2  1  0  0  0  0
 11 25  1  0  0  0  0
 12 13  1  0  0  0  0
 13 18  1  0  0  0  0
 13  9  1  0  0  0  0
 14  3  1  0  0  0  0
 15 10  1  0  0  0  0
 16 17  1  0  0  0  0
 17 19  2  0  0  0  0
 18 21  2  0  0  0  0
 20 16  2  0  0  0  0
 20 18  1  0  0  0  0
 21 19  1  0  0  0  0
 22 16  1  0  0  0  0
 24 23  1  0  0  0  0
 26 32  1  0  0  0  0
 27 25  1  0  0  0  0
 27 26  2  0  0  0  0
 28 31  2  0  0  0  0
 28 29  1  0  0  0  0
 29 30  2  0  0  0  0
 30 26  1  0  0  0  0
 31 27  1  0  0  0  0
 32 33  1  0  0  0  0
 33 34  1  0  0  0  0
M  END
>  <MODEL>
5

>  <REMARK>
 VINA RESULT:      -6.7      3.833      8.785
  Name = 
  6 active torsions:
  status: ('A' for Active; 'I' for Inactive)
    1  A    between atoms: C_1  and  C_19
    2  A    between atoms: O_3  and  C_13
    3  A    between atoms: O_3  and  C_17
    4  A    between atoms: C_11  and  C_14
    5  A    between atoms: C_11  and  C_25
    6  A    between atoms: C_12  and  C_28
                            x       y       z     vdW  Elec       q    Type
                         _______ _______ _______ _____ _____    ______ ____

>  <TORSDO>
F 6

$$$$
=
 OpenBabel10262423473D

 34 39  0  0  1  0  0  0  0  0999 V2000
  187.5680  178.0660  142.6170 C   0  0  2  0  0  3  0  0  0  0  0  0
  185.6560  179.5420  141.4730 C   0  0  1  0  0  3  0  0  0  0  0  0
  187.1730  177.8630  140.1240 C   0  0  2  0  0  3  0  0  0  0  0  0
  186.7430  177.9630  137.4970 C   0  0  2  0  0  3  0  0  0  0  0  0
  185.2350  179.7240  142.7920 O   0  0  0  0  0  1  0  0  0  0  0  0
  184.9820  178.9870  139.1280 C   0  0  0  0  0  2  0  0  0  0  0  0
  186.9700  178.7360  141.3620 C   0  0  2  0  0  3  0  0  0  0  0  0
  185.9310  176.8810  138.1800 C   0  0  0  0  0  2  0  0  0  0  0  0
  188.6570  177.9200  139.7770 C   0  0  2  0  0  3  0  0  0  0  0  0
  188.7840  177.1800  142.2590 C   0  0  0  0  0  2  0  0  0  0  0  0
  184.5250  179.0190  140.5890 C   0  0  1  0  0  3  0  0  0  0  0  0
  188.2200  177.5410  137.3400 C   0  0  0  0  0  2  0  0  0  0  0  0
  188.9260  176.9960  138.5900 C   0  0  1  0  0  3  0  0  0  0  0  0
  186.2540  178.1600  138.9330 C   0  0  2  0  0  0  0  0  0  0  0  0
  189.5540  177.6490  141.0110 C   0  0  0  0  0  2  0  0  0  0  0  0
  192.7160  176.9140  138.9890 C   0  0  0  0  0  0  0  0  0  0  0  0
  193.1070  176.4700  137.7230 C   0  0  0  0  0  3  0  0  0  0  0  0
  190.3880  176.8200  138.3040 C   0  0  0  0  0  0  0  0  0  0  0  0
  192.1420  176.2010  136.7480 C   0  0  0  0  0  3  0  0  0  0  0  0
  191.3610  177.0890  139.2810 C   0  0  0  0  0  3  0  0  0  0  0  0
  190.7860  176.3760  137.0370 C   0  0  0  0  0  3  0  0  0  0  0  0
  193.6510  177.1740  139.9350 F   0  0  0  0  0  0  0  0  0  0  0  0
  186.7080  177.2880  144.8290 C   0  0  0  0  0  1  0  0  0  0  0  0
  186.5360  177.1970  143.3250 C   0  0  0  0  0  2  0  0  0  0  0  0
  184.0000  177.6650  141.0740 C   0  0  0  0  0  2  0  0  0  0  0  0
  181.5320  178.0860  140.7880 C   0  0  0  0  0  0  0  0  0  0  0  0
  182.6730  177.3290  140.4670 C   0  0  0  0  0  0  0  0  0  0  0  0
  181.3480  175.9640  138.9600 C   0  0  0  0  0  3  0  0  0  0  0  0
  180.2100  176.7020  139.2880 C   0  0  0  0  0  3  0  0  0  0  0  0
  180.3010  177.7590  140.1970 C   0  0  0  0  0  3  0  0  0  0  0  0
  182.5760  176.2780  139.5450 C   0  0  0  0  0  3  0  0  0  0  0  0
  181.6420  179.1540  141.6860 O   0  0  0  0  0  0  0  0  0  0  0  0
  181.0390  179.1470  142.9720 C   0  0  0  0  0  2  0  0  0  0  0  0
  182.0780  178.7880  144.0130 C   0  0  0  0  0  1  0  0  0  0  0  0
  1 24  1  6  0  0  0
  2  5  1  1  0  0  0
  3  7  1  0  0  0  0
  4  8  1  0  0  0  0
  4 14  1  0  0  0  0
  6 11  1  0  0  0  0
  7  2  1  0  0  0  0
  7  1  1  0  0  0  0
  8 14  1  0  0  0  0
  9  3  1  0  0  0  0
  9 15  1  0  0  0  0
 10  1  1  0  0  0  0
 11 25  1  0  0  0  0
 11  2  1  0  0  0  0
 12  4  1  0  0  0  0
 12 13  1  0  0  0  0
 13  9  1  0  0  0  0
 14  6  1  0  0  0  0
 14  3  1  0  0  0  0
 15 10  1  0  0  0  0
 16 20  1  0  0  0  0
 16 22  1  0  0  0  0
 17 16  2  0  0  0  0
 18 13  1  0  0  0  0
 18 20  2  0  0  0  0
 19 21  2  0  0  0  0
 19 17  1  0  0  0  0
 21 18  1  0  0  0  0
 24 23  1  0  0  0  0
 26 32  1  0  0  0  0
 27 26  1  0  0  0  0
 27 25  1  0  0  0  0
 28 29  2  0  0  0  0
 28 31  1  0  0  0  0
 29 30  1  0  0  0  0
 30 26  2  0  0  0  0
 31 27  2  0  0  0  0
 32 33  1  0  0  0  0
 33 34  1  0  0  0  0
M  END
>  <MODEL>
6

>  <REMARK>
 VINA RESULT:      -6.6      3.597      8.507
  Name = 
  6 active torsions:
  status: ('A' for Active; 'I' for Inactive)
    1  A    between atoms: C_1  and  C_19
    2  A    between atoms: O_3  and  C_13
    3  A    between atoms: O_3  and  C_17
    4  A    between atoms: C_11  and  C_14
    5  A    between atoms: C_11  and  C_25
    6  A    between atoms: C_12  and  C_28
                            x       y       z     vdW  Elec       q    Type
                         _______ _______ _______ _____ _____    ______ ____

>  <TORSDO>
F 6

$$$$
=
 OpenBabel10262423473D

 34 39  0  0  1  0  0  0  0  0999 V2000
  184.5560  178.6180  141.8510 C   0  0  2  0  0  3  0  0  0  0  0  0
  186.1930  179.4100  139.8920 C   0  0  1  0  0  3  0  0  0  0  0  0
  187.0160  178.0280  141.9780 C   0  0  2  0  0  3  0  0  0  0  0  0
  189.6600  177.7040  142.0250 C   0  0  2  0  0  3  0  0  0  0  0  0
  184.9960  179.6330  139.2060 O   0  0  0  0  0  1  0  0  0  0  0  0
  188.4920  178.4280  139.8070 C   0  0  0  0  0  2  0  0  0  0  0  0
  185.9770  178.9600  141.3540 C   0  0  2  0  0  3  0  0  0  0  0  0
  188.9410  176.5380  141.3760 C   0  0  0  0  0  2  0  0  0  0  0  0
  187.1440  178.4210  143.4460 C   0  0  2  0  0  3  0  0  0  0  0  0
  184.5840  178.0370  143.2840 C   0  0  0  0  0  2  0  0  0  0  0  0
  187.1390  178.5140  139.0950 C   0  0  1  0  0  3  0  0  0  0  0  0
  189.5270  177.6590  143.5620 C   0  0  0  0  0  2  0  0  0  0  0  0
  188.1150  177.4640  144.1350 C   0  0  1  0  0  3  0  0  0  0  0  0
  188.3620  177.9370  141.2490 C   0  0  2  0  0  0  0  0  0  0  0  0
  185.7630  178.5360  144.1400 C   0  0  0  0  0  2  0  0  0  0  0  0
  189.3610  177.7310  147.7270 C   0  0  0  0  0  0  0  0  0  0  0  0
  188.1620  177.9680  148.4070 C   0  0  0  0  0  3  0  0  0  0  0  0
  188.1490  177.6350  145.6250 C   0  0  0  0  0  0  0  0  0  0  0  0
  186.9590  178.0380  147.6990 C   0  0  0  0  0  3  0  0  0  0  0  0
  189.3560  177.5650  146.3400 C   0  0  0  0  0  3  0  0  0  0  0  0
  186.9520  177.8720  146.3120 C   0  0  0  0  0  3  0  0  0  0  0  0
  190.5270  177.6640  148.4130 F   0  0  0  0  0  0  0  0  0  0  0  0
  182.4260  177.9750  140.7170 C   0  0  0  0  0  1  0  0  0  0  0  0
  183.8800  177.6040  140.9380 C   0  0  0  0  0  2  0  0  0  0  0  0
  186.5280  177.1380  138.8190 C   0  0  0  0  0  2  0  0  0  0  0  0
  187.5200  176.1930  136.7050 C   0  0  0  0  0  0  0  0  0  0  0  0
  186.4540  176.8400  137.3540 C   0  0  0  0  0  0  0  0  0  0  0  0
  185.2110  176.8900  135.2690 C   0  0  0  0  0  3  0  0  0  0  0  0
  186.2740  176.2620  134.6180 C   0  0  0  0  0  3  0  0  0  0  0  0
  187.4230  175.9130  135.3320 C   0  0  0  0  0  3  0  0  0  0  0  0
  185.3000  177.1750  136.6340 C   0  0  0  0  0  3  0  0  0  0  0  0
  188.6580  175.8320  137.4370 O   0  0  0  0  0  0  0  0  0  0  0  0
  189.9560  176.3250  137.1370 C   0  0  0  0  0  2  0  0  0  0  0  0
  190.9050  175.9560  138.2570 C   0  0  0  0  0  1  0  0  0  0  0  0
  1 24  1  6  0  0  0
  1 10  1  0  0  0  0
  2  5  1  6  0  0  0
  2  7  1  0  0  0  0
  3  9  1  0  0  0  0
  4 12  1  0  0  0  0
  6 14  1  0  0  0  0
  7  1  1  0  0  0  0
  7  3  1  0  0  0  0
  8  4  1  0  0  0  0
  9 13  1  0  0  0  0
  9 15  1  0  0  0  0
 10 15  1  0  0  0  0
 11  6  1  0  0  0  0
 11  2  1  0  0  0  0
 12 13  1  0  0  0  0
 13 18  1  0  0  0  0
 14  8  1  0  0  0  0
 14  3  1  0  0  0  0
 14  4  1  0  0  0  0
 16 17  1  0  0  0  0
 16 22  1  0  0  0  0
 18 21  2  0  0  0  0
 18 20  1  0  0  0  0
 19 17  2  0  0  0  0
 20 16  2  0  0  0  0
 21 19  1  0  0  0  0
 23 24  1  0  0  0  0
 25 11  1  0  0  0  0
 26 27  1  0  0  0  0
 26 32  1  0  0  0  0
 27 25  1  0  0  0  0
 28 31  1  0  0  0  0
 29 28  2  0  0  0  0
 29 30  1  0  0  0  0
 30 26  2  0  0  0  0
 31 27  2  0  0  0  0
 33 32  1  0  0  0  0
 33 34  1  0  0  0  0
M  END
>  <MODEL>
7

>  <REMARK>
 VINA RESULT:      -6.6      2.438      4.389
  Name = 
  6 active torsions:
  status: ('A' for Active; 'I' for Inactive)
    1  A    between atoms: C_1  and  C_19
    2  A    between atoms: O_3  and  C_13
    3  A    between atoms: O_3  and  C_17
    4  A    between atoms: C_11  and  C_14
    5  A    between atoms: C_11  and  C_25
    6  A    between atoms: C_12  and  C_28
                            x       y       z     vdW  Elec       q    Type
                         _______ _______ _______ _____ _____    ______ ____

>  <TORSDO>
F 6

$$$$
=
 OpenBabel10262423473D

 34 39  0  0  1  0  0  0  0  0999 V2000
  187.9920  177.0480  137.7770 C   0  0  2  0  0  3  0  0  0  0  0  0
  188.7200  178.7500  139.7050 C   0  0  1  0  0  3  0  0  0  0  0  0
  186.2360  177.9420  139.3680 C   0  0  2  0  0  3  0  0  0  0  0  0
  184.5210  179.1640  141.0000 C   0  0  2  0  0  3  0  0  0  0  0  0
  190.0050  178.3030  139.3870 O   0  0  0  0  0  1  0  0  0  0  0  0
  187.0760  179.2450  141.5240 C   0  0  0  0  0  2  0  0  0  0  0  0
  187.6300  178.1630  138.7810 C   0  0  2  0  0  3  0  0  0  0  0  0
  185.0110  177.8410  141.5540 C   0  0  0  0  0  2  0  0  0  0  0  0
  185.2320  178.2420  138.2600 C   0  0  2  0  0  3  0  0  0  0  0  0
  186.7330  176.4930  137.0720 C   0  0  0  0  0  2  0  0  0  0  0  0
  188.4250  178.5990  141.1960 C   0  0  1  0  0  3  0  0  0  0  0  0
  183.4690  178.9520  139.8910 C   0  0  0  0  0  2  0  0  0  0  0  0
  183.8220  177.9570  138.7750 C   0  0  1  0  0  3  0  0  0  0  0  0
  185.9350  178.6740  140.6820 C   0  0  2  0  0  0  0  0  0  0  0  0
  185.5880  177.5130  136.9400 C   0  0  0  0  0  2  0  0  0  0  0  0
  181.1060  179.2370  136.4270 C   0  0  0  0  0  0  0  0  0  0  0  0
  180.8480  178.0910  135.6690 C   0  0  0  0  0  3  0  0  0  0  0  0
  182.7800  178.0210  137.6970 C   0  0  0  0  0  0  0  0  0  0  0  0
  181.5540  176.9120  135.9240 C   0  0  0  0  0  3  0  0  0  0  0  0
  182.0690  179.2040  137.4390 C   0  0  0  0  0  3  0  0  0  0  0  0
  182.5170  176.8760  136.9350 C   0  0  0  0  0  3  0  0  0  0  0  0
  180.4220  180.3810  136.1810 F   0  0  0  0  0  0  0  0  0  0  0  0
  189.8570  175.3940  137.6210 C   0  0  0  0  0  1  0  0  0  0  0  0
  188.7020  175.8910  138.4690 C   0  0  0  0  0  2  0  0  0  0  0  0
  188.5070  177.1390  141.6500 C   0  0  0  0  0  2  0  0  0  0  0  0
  188.9220  177.0800  144.1350 C   0  0  0  0  0  0  0  0  0  0  0  0
  189.4190  176.9680  142.8250 C   0  0  0  0  0  0  0  0  0  0  0  0
  191.6290  176.4780  143.7020 C   0  0  0  0  0  3  0  0  0  0  0  0
  191.1430  176.6050  145.0040 C   0  0  0  0  0  3  0  0  0  0  0  0
  189.7950  176.9020  145.2200 C   0  0  0  0  0  3  0  0  0  0  0  0
  190.7690  176.6560  142.6160 C   0  0  0  0  0  3  0  0  0  0  0  0
  187.5650  177.3590  144.3370 O   0  0  0  0  0  0  0  0  0  0  0  0
  187.0680  177.9510  145.5290 C   0  0  0  0  0  2  0  0  0  0  0  0
  185.7750  178.6780  145.2290 C   0  0  0  0  0  1  0  0  0  0  0  0
  1 24  1  1  0  0  0
  1  7  1  0  0  0  0
  2  5  1  1  0  0  0
  2 11  1  0  0  0  0
  3 14  1  0  0  0  0
  4  8  1  0  0  0  0
  7  3  1  0  0  0  0
  7  2  1  0  0  0  0
  9 13  1  0  0  0  0
  9  3  1  0  0  0  0
 10  1  1  0  0  0  0
 11  6  1  0  0  0  0
 11 25  1  0  0  0  0
 12  4  1  0  0  0  0
 13 12  1  0  0  0  0
 14  4  1  0  0  0  0
 14  6  1  0  0  0  0
 14  8  1  0  0  0  0
 15 10  1  0  0  0  0
 15  9  1  0  0  0  0
 16 20  1  0  0  0  0
 17 19  1  0  0  0  0
 17 16  2  0  0  0  0
 18 13  1  0  0  0  0
 19 21  2  0  0  0  0
 20 18  2  0  0  0  0
 21 18  1  0  0  0  0
 22 16  1  0  0  0  0
 23 24  1  0  0  0  0
 25 27  1  0  0  0  0
 26 32  1  0  0  0  0
 26 30  1  0  0  0  0
 27 26  2  0  0  0  0
 28 29  1  0  0  0  0
 29 30  2  0  0  0  0
 31 27  1  0  0  0  0
 31 28  2  0  0  0  0
 32 33  1  0  0  0  0
 34 33  1  0  0  0  0
M  END
>  <MODEL>
8

>  <REMARK>
 VINA RESULT:      -6.6      2.949      6.587
  Name = 
  6 active torsions:
  status: ('A' for Active; 'I' for Inactive)
    1  A    between atoms: C_1  and  C_19
    2  A    between atoms: O_3  and  C_13
    3  A    between atoms: O_3  and  C_17
    4  A    between atoms: C_11  and  C_14
    5  A    between atoms: C_11  and  C_25
    6  A    between atoms: C_12  and  C_28
                            x       y       z     vdW  Elec       q    Type
                         _______ _______ _______ _____ _____    ______ ____

>  <TORSDO>
F 6

$$$$
=
 OpenBabel10262423473D

 34 39  0  0  1  0  0  0  0  0999 V2000
  186.3200  177.9730  142.2080 C   0  0  2  0  0  3  0  0  0  0  0  0
  187.7250  176.2590  143.7040 C   0  0  1  0  0  3  0  0  0  0  0  0
  188.7360  177.5020  141.6130 C   0  0  2  0  0  3  0  0  0  0  0  0
  191.2110  176.7030  141.0330 C   0  0  2  0  0  3  0  0  0  0  0  0
  186.6740  176.4420  144.6070 O   0  0  0  0  0  1  0  0  0  0  0  0
  190.2040  176.1700  143.3810 C   0  0  0  0  0  2  0  0  0  0  0  0
  187.5040  176.9950  142.3630 C   0  0  2  0  0  3  0  0  0  0  0  0
  191.1880  177.9360  141.9150 C   0  0  0  0  0  2  0  0  0  0  0  0
  188.4490  177.3420  140.1230 C   0  0  2  0  0  3  0  0  0  0  0  0
  186.3780  178.7200  140.8560 C   0  0  0  0  0  2  0  0  0  0  0  0
  189.0790  176.5350  144.3540 C   0  0  1  0  0  3  0  0  0  0  0  0
  190.8740  177.0550  139.5690 C   0  0  0  0  0  2  0  0  0  0  0  0
  189.6220  177.9110  139.3260 C   0  0  1  0  0  3  0  0  0  0  0  0
  190.0810  176.9030  142.0450 C   0  0  2  0  0  0  0  0  0  0  0  0
  187.0690  177.9270  139.7310 C   0  0  0  0  0  2  0  0  0  0  0  0
  189.7460  177.2640  135.5720 C   0  0  0  0  0  0  0  0  0  0  0  0
  188.7900  178.1760  135.1140 C   0  0  0  0  0  3  0  0  0  0  0  0
  189.3460  177.9910  137.8540 C   0  0  0  0  0  0  0  0  0  0  0  0
  188.1130  178.9940  136.0220 C   0  0  0  0  0  3  0  0  0  0  0  0
  190.0250  177.1720  136.9380 C   0  0  0  0  0  3  0  0  0  0  0  0
  188.3900  178.9020  137.3890 C   0  0  0  0  0  3  0  0  0  0  0  0
  190.4030  176.4710  134.6920 F   0  0  0  0  0  0  0  0  0  0  0  0
  184.8910  179.2580  143.8040 C   0  0  0  0  0  1  0  0  0  0  0  0
  186.3090  179.0090  143.3260 C   0  0  0  0  0  2  0  0  0  0  0  0
  189.1850  177.9740  144.8660 C   0  0  0  0  0  2  0  0  0  0  0  0
  189.7380  177.7980  147.3180 C   0  0  0  0  0  0  0  0  0  0  0  0
  188.8020  178.0850  146.3090 C   0  0  0  0  0  0  0  0  0  0  0  0
  187.1470  178.6380  147.9960 C   0  0  0  0  0  3  0  0  0  0  0  0
  188.0670  178.3380  149.0010 C   0  0  0  0  0  3  0  0  0  0  0  0
  189.3580  177.9220  148.6650 C   0  0  0  0  0  3  0  0  0  0  0  0
  187.5130  178.5150  146.6550 C   0  0  0  0  0  3  0  0  0  0  0  0
  191.0330  177.4010  146.9670 O   0  0  0  0  0  0  0  0  0  0  0  0
  191.6730  176.2670  147.5360 C   0  0  0  0  0  2  0  0  0  0  0  0
  192.2580  175.4120  146.4310 C   0  0  0  0  0  1  0  0  0  0  0  0
  1  7  1  0  0  0  0
  1 24  1  1  0  0  0
  2 11  1  0  0  0  0
  2  5  1  1  0  0  0
  3 14  1  0  0  0  0
  3  7  1  0  0  0  0
  4  8  1  0  0  0  0
  4 14  1  0  0  0  0
  6 11  1  0  0  0  0
  7  2  1  0  0  0  0
  8 14  1  0  0  0  0
  9  3  1  0  0  0  0
 10  1  1  0  0  0  0
 11 25  1  0  0  0  0
 12  4  1  0  0  0  0
 13 12  1  0  0  0  0
 13  9  1  0  0  0  0
 14  6  1  0  0  0  0
 15  9  1  0  0  0  0
 15 10  1  0  0  0  0
 16 20  1  0  0  0  0
 17 16  2  0  0  0  0
 17 19  1  0  0  0  0
 18 13  1  0  0  0  0
 19 21  2  0  0  0  0
 20 18  2  0  0  0  0
 21 18  1  0  0  0  0
 22 16  1  0  0  0  0
 24 23  1  0  0  0  0
 25 27  1  0  0  0  0
 26 30  1  0  0  0  0
 27 31  1  0  0  0  0
 27 26  2  0  0  0  0
 28 29  1  0  0  0  0
 30 29  2  0  0  0  0
 31 28  2  0  0  0  0
 32 26  1  0  0  0  0
 32 33  1  0  0  0  0
 34 33  1  0  0  0  0
M  END
>  <MODEL>
9

>  <REMARK>
 VINA RESULT:      -6.6      3.743      8.237
  Name = 
  6 active torsions:
  status: ('A' for Active; 'I' for Inactive)
    1  A    between atoms: C_1  and  C_19
    2  A    between atoms: O_3  and  C_13
    3  A    between atoms: O_3  and  C_17
    4  A    between atoms: C_11  and  C_14
    5  A    between atoms: C_11  and  C_25
    6  A    between atoms: C_12  and  C_28
                            x       y       z     vdW  Elec       q    Type
                         _______ _______ _______ _____ _____    ______ ____

>  <TORSDO>
F 6

$$$$
