=
 OpenBabel10272413413D

 30 34  0  0  1  0  0  0  0  0999 V2000
  190.5720  176.9640  139.1260 C   0  0  0  0  0  0  0  0  0  0  0  0
  193.0270  176.5200  138.5560 C   0  0  0  0  0  0  0  0  0  0  0  0
  190.5210  175.5190  135.0980 C   0  0  0  0  0  2  0  0  0  0  0  0
  189.3180  177.5580  138.7650 C   0  0  0  0  0  0  0  0  0  0  0  0
  190.8050  176.5700  140.4620 C   0  0  0  0  0  3  0  0  0  0  0  0
  187.8510  177.5050  142.1580 N   0  0  0  0  0  0  0  0  0  0  0  0
  188.6270  177.3870  141.0690 C   0  0  0  0  0  0  0  0  0  0  0  0
  189.8460  176.5350  142.7110 N   0  0  0  0  0  2  0  0  0  0  0  0
  189.5860  176.6710  135.2780 C   0  0  0  0  0  0  0  0  0  0  0  0
  189.8110  176.8100  141.4000 C   0  0  0  0  0  0  0  0  0  0  0  0
  188.3300  177.7740  139.7610 C   0  0  0  0  0  0  0  0  0  0  0  0
  193.8760  175.3560  138.1060 C   0  0  0  0  0  2  0  0  0  0  0  0
  188.2000  176.8920  144.5520 C   0  0  0  0  0  1  0  0  0  0  0  0
  193.5980  177.5270  139.1090 N   0  0  0  0  0  2  0  0  0  0  0  0
  191.6640  175.7160  136.0760 C   0  0  2  0  0  3  0  0  0  0  0  0
  194.0840  175.3560  136.5850 C   0  0  0  0  0  2  0  0  0  0  0  0
  188.6330  176.9720  143.1320 C   0  0  0  0  0  0  0  0  0  0  0  0
  191.5980  176.6510  138.0680 C   0  0  1  0  0  3  0  0  0  0  0  0
  189.0130  177.9500  137.3360 C   0  0  0  0  0  2  0  0  0  0  0  0
  189.5940  177.6110  134.4410 O   0  0  0  0  0  0  0  0  0  0  0  0
  188.8030  176.7850  136.4740 N   0  0  0  0  0  0  0  0  0  0  0  0
  192.8680  174.8290  135.8110 C   0  0  0  0  0  2  0  0  0  0  0  0
  191.2110  175.5020  137.3780 O   0  0  0  0  0  0  0  0  0  0  0  0
  187.3420  175.0670  135.7690 O   0  0  0  0  0  0  0  0  0  0  0  0
  187.9270  175.6880  136.8940 C   0  0  2  0  0  3  0  0  0  0  0  0
  186.5070  175.9240  136.5050 C   0  0  0  0  0  0  0  0  0  0  0  0
  186.0880  177.1130  135.6560 C   0  0  0  0  0  1  0  0  0  0  0  0
  185.4440  175.1430  137.2450 C   0  0  0  0  0  1  0  0  0  0  0  0
  186.5690  179.1420  140.5490 O   0  0  0  0  0  1  0  0  0  0  0  0
  187.0160  178.4160  139.4460 C   0  0  0  0  0  2  0  0  0  0  0  0
  1  5  1  0  0  0  0
  2 14  2  0  0  0  0
  3  9  1  0  0  0  0
  4  1  2  0  0  0  0
  4 11  1  0  0  0  0
  5 10  2  0  0  0  0
  6 17  2  0  0  0  0
  7 10  1  0  0  0  0
  7  6  1  0  0  0  0
  8 17  1  0  0  0  0
  9 21  1  0  0  0  0
 10  8  1  0  0  0  0
 11  7  2  0  0  0  0
 12  2  1  0  0  0  0
 15  3  1  6  0  0  0
 15 23  1  0  0  0  0
 16 12  1  0  0  0  0
 17 13  1  0  0  0  0
 18 23  1  1  0  0  0
 18  2  1  0  0  0  0
 18  1  1  0  0  0  0
 19  4  1  0  0  0  0
 20  9  2  0  0  0  0
 21 19  1  0  0  0  0
 22 15  1  0  0  0  0
 22 16  1  0  0  0  0
 24 26  1  0  0  0  0
 24 25  1  0  0  0  0
 25 21  1  6  0  0  0
 26 25  1  0  0  0  0
 26 28  1  0  0  0  0
 27 26  1  0  0  0  0
 30 11  1  0  0  0  0
 30 29  1  0  0  0  0
M  END
>  <MODEL>
1

>  <REMARK>
 VINA RESULT:      -6.9      0.000      0.000
  Name = 
  2 active torsions:
  status: ('A' for Active; 'I' for Inactive)
    1  A    between atoms: C_10  and  N_25
    2  A    between atoms: C_13  and  C_30
                            x       y       z     vdW  Elec       q    Type
                         _______ _______ _______ _____ _____    ______ ____

>  <TORSDO>
F 2

$$$$
=
 OpenBabel10272413413D

 30 34  0  0  1  0  0  0  0  0999 V2000
  186.6860  177.4500  137.4820 C   0  0  0  0  0  0  0  0  0  0  0  0
  189.0240  178.2760  138.1170 C   0  0  0  0  0  0  0  0  0  0  0  0
  189.2480  174.0780  136.8610 C   0  0  0  0  0  2  0  0  0  0  0  0
  185.8360  176.7820  136.5410 C   0  0  0  0  0  0  0  0  0  0  0  0
  186.1190  178.2650  138.4870 C   0  0  0  0  0  3  0  0  0  0  0  0
  182.6490  178.1280  137.8430 N   0  0  0  0  0  0  0  0  0  0  0  0
  183.9300  177.8060  137.6050 C   0  0  0  0  0  0  0  0  0  0  0  0
  184.0180  179.1660  139.3530 N   0  0  0  0  0  2  0  0  0  0  0  0
  188.2530  174.2210  135.7550 C   0  0  0  0  0  0  0  0  0  0  0  0
  184.7410  178.4220  138.5040 C   0  0  0  0  0  0  0  0  0  0  0  0
  184.4310  176.9680  136.6070 C   0  0  0  0  0  0  0  0  0  0  0  0
  190.1140  177.9010  139.0910 C   0  0  0  0  0  2  0  0  0  0  0  0
  181.5670  179.5960  139.5480 C   0  0  0  0  0  1  0  0  0  0  0  0
  189.0130  179.4590  137.6230 N   0  0  0  0  0  2  0  0  0  0  0  0
  189.5380  175.4740  137.3810 C   0  0  2  0  0  3  0  0  0  0  0  0
  191.1910  177.0260  138.4340 C   0  0  0  0  0  2  0  0  0  0  0  0
  182.7510  178.9550  138.9150 C   0  0  0  0  0  0  0  0  0  0  0  0
  188.1720  177.1960  137.4800 C   0  0  1  0  0  3  0  0  0  0  0  0
  186.4020  175.8630  135.4800 C   0  0  0  0  0  2  0  0  0  0  0  0
  188.6410  174.1380  134.5600 O   0  0  0  0  0  0  0  0  0  0  0  0
  186.9030  174.6070  136.0440 N   0  0  0  0  0  0  0  0  0  0  0  0
  190.7630  175.5600  138.2760 C   0  0  0  0  0  2  0  0  0  0  0  0
  188.4270  175.9590  138.0720 O   0  0  0  0  0  0  0  0  0  0  0  0
  186.3320  172.4560  136.8370 O   0  0  0  0  0  0  0  0  0  0  0  0
  186.1000  173.8400  137.0000 C   0  0  2  0  0  3  0  0  0  0  0  0
  185.1220  172.9460  136.3180 C   0  0  0  0  0  0  0  0  0  0  0  0
  185.0880  172.7840  134.8080 C   0  0  0  0  0  1  0  0  0  0  0  0
  183.9440  172.4550  137.1320 C   0  0  0  0  0  1  0  0  0  0  0  0
  183.2280  177.1960  134.5830 O   0  0  0  0  0  1  0  0  0  0  0  0
  183.4990  176.3190  135.6320 C   0  0  0  0  0  2  0  0  0  0  0  0
  1  5  1  0  0  0  0
  2 12  1  0  0  0  0
  4 11  1  0  0  0  0
  4  1  2  0  0  0  0
  5 10  2  0  0  0  0
  6 17  2  0  0  0  0
  7  6  1  0  0  0  0
  7 10  1  0  0  0  0
  9 21  1  0  0  0  0
  9  3  1  0  0  0  0
 10  8  1  0  0  0  0
 11  7  2  0  0  0  0
 14  2  2  0  0  0  0
 15  3  1  1  0  0  0
 15 23  1  0  0  0  0
 15 22  1  0  0  0  0
 16 12  1  0  0  0  0
 17  8  1  0  0  0  0
 17 13  1  0  0  0  0
 18  1  1  1  0  0  0
 18 23  1  0  0  0  0
 18  2  1  0  0  0  0
 19 21  1  0  0  0  0
 19  4  1  0  0  0  0
 20  9  2  0  0  0  0
 22 16  1  0  0  0  0
 24 25  1  0  0  0  0
 25 21  1  6  0  0  0
 26 24  1  0  0  0  0
 26 25  1  0  0  0  0
 26 28  1  0  0  0  0
 27 26  1  0  0  0  0
 29 30  1  0  0  0  0
 30 11  1  0  0  0  0
M  END
>  <MODEL>
2

>  <REMARK>
 VINA RESULT:      -6.5      3.072      4.837
  Name = 
  2 active torsions:
  status: ('A' for Active; 'I' for Inactive)
    1  A    between atoms: C_10  and  N_25
    2  A    between atoms: C_13  and  C_30
                            x       y       z     vdW  Elec       q    Type
                         _______ _______ _______ _____ _____    ______ ____

>  <TORSDO>
F 2

$$$$
=
 OpenBabel10272413413D

 30 34  0  0  1  0  0  0  0  0999 V2000
  187.4870  177.9870  139.1220 C   0  0  0  0  0  0  0  0  0  0  0  0
  186.8790  178.4560  141.5640 C   0  0  0  0  0  0  0  0  0  0  0  0
  190.7830  176.4630  141.3880 C   0  0  0  0  0  2  0  0  0  0  0  0
  188.4510  178.0620  138.0630 C   0  0  0  0  0  0  0  0  0  0  0  0
  186.1270  177.7600  138.8210 C   0  0  0  0  0  3  0  0  0  0  0  0
  186.0450  177.6090  135.2920 N   0  0  0  0  0  0  0  0  0  0  0  0
  186.6630  177.7420  136.4770 C   0  0  0  0  0  0  0  0  0  0  0  0
  184.5270  177.4660  136.9960 N   0  0  0  0  0  2  0  0  0  0  0  0
  191.2480  177.1960  140.1710 C   0  0  0  0  0  0  0  0  0  0  0  0
  185.7590  177.6550  137.4870 C   0  0  0  0  0  0  0  0  0  0  0  0
  188.0250  177.9390  136.7150 C   0  0  0  0  0  0  0  0  0  0  0  0
  186.6870  177.6690  142.8370 C   0  0  0  0  0  2  0  0  0  0  0  0
  183.6540  177.2660  134.6660 C   0  0  0  0  0  1  0  0  0  0  0  0
  186.3570  179.6230  141.4710 N   0  0  0  0  0  2  0  0  0  0  0  0
  189.4810  177.1070  141.8250 C   0  0  2  0  0  3  0  0  0  0  0  0
  187.9480  177.6850  143.7130 C   0  0  0  0  0  2  0  0  0  0  0  0
  184.7480  177.4420  135.6580 C   0  0  0  0  0  0  0  0  0  0  0  0
  187.9330  178.0320  140.5610 C   0  0  1  0  0  3  0  0  0  0  0  0
  189.9240  178.2570  138.3480 C   0  0  0  0  0  2  0  0  0  0  0  0
  192.1780  178.0380  140.2740 O   0  0  0  0  0  0  0  0  0  0  0  0
  190.5380  177.0620  138.9320 N   0  0  0  0  0  0  0  0  0  0  0  0
  189.0330  176.7160  143.2230 C   0  0  0  0  0  2  0  0  0  0  0  0
  188.4720  176.7930  140.9130 O   0  0  0  0  0  0  0  0  0  0  0  0
  191.4570  174.9300  138.4920 O   0  0  0  0  0  0  0  0  0  0  0  0
  190.3070  175.7370  138.3500 C   0  0  2  0  0  3  0  0  0  0  0  0
  191.2270  175.4590  137.2110 C   0  0  0  0  0  0  0  0  0  0  0  0
  192.3450  176.4110  136.8210 C   0  0  0  0  0  1  0  0  0  0  0  0
  190.8220  174.3710  136.2400 C   0  0  0  0  0  1  0  0  0  0  0  0
  189.0280  176.8240  134.8860 O   0  0  0  0  0  1  0  0  0  0  0  0
  188.9820  178.0380  135.5700 C   0  0  0  0  0  2  0  0  0  0  0  0
  2 12  1  0  0  0  0
  4 19  1  0  0  0  0
  4  1  2  0  0  0  0
  5  1  1  0  0  0  0
  6 17  2  0  0  0  0
  6  7  1  0  0  0  0
  7 11  2  0  0  0  0
  7 10  1  0  0  0  0
  8 10  1  0  0  0  0
  9 20  2  0  0  0  0
  9  3  1  0  0  0  0
 10  5  2  0  0  0  0
 11  4  1  0  0  0  0
 12 16  1  0  0  0  0
 13 17  1  0  0  0  0
 14  2  2  0  0  0  0
 15  3  1  6  0  0  0
 15 22  1  0  0  0  0
 17  8  1  0  0  0  0
 18  1  1  6  0  0  0
 18 23  1  0  0  0  0
 18  2  1  0  0  0  0
 19 21  1  0  0  0  0
 21  9  1  0  0  0  0
 22 16  1  0  0  0  0
 23 15  1  0  0  0  0
 25 24  1  0  0  0  0
 25 21  1  1  0  0  0
 26 25  1  0  0  0  0
 26 24  1  0  0  0  0
 27 26  1  0  0  0  0
 28 26  1  0  0  0  0
 29 30  1  0  0  0  0
 30 11  1  0  0  0  0
M  END
>  <MODEL>
3

>  <REMARK>
 VINA RESULT:      -6.4      1.961      6.213
  Name = 
  2 active torsions:
  status: ('A' for Active; 'I' for Inactive)
    1  A    between atoms: C_10  and  N_25
    2  A    between atoms: C_13  and  C_30
                            x       y       z     vdW  Elec       q    Type
                         _______ _______ _______ _____ _____    ______ ____

>  <TORSDO>
F 2

$$$$
=
 OpenBabel10272413413D

 30 34  0  0  1  0  0  0  0  0999 V2000
  186.2360  178.2850  138.9900 C   0  0  0  0  0  0  0  0  0  0  0  0
  188.5740  178.2200  137.9500 C   0  0  0  0  0  0  0  0  0  0  0  0
  185.8180  175.8510  135.4940 C   0  0  0  0  0  2  0  0  0  0  0  0
  184.8280  178.4920  138.8250 C   0  0  0  0  0  0  0  0  0  0  0  0
  186.8050  178.3130  140.2810 C   0  0  0  0  0  3  0  0  0  0  0  0
  184.0750  179.0350  142.4040 N   0  0  0  0  0  0  0  0  0  0  0  0
  184.6410  178.7960  141.2090 C   0  0  0  0  0  0  0  0  0  0  0  0
  186.3200  178.6750  142.6500 N   0  0  0  0  0  2  0  0  0  0  0  0
  184.6670  176.7920  135.6460 C   0  0  0  0  0  0  0  0  0  0  0  0
  185.9740  178.5820  141.3590 C   0  0  0  0  0  0  0  0  0  0  0  0
  184.0180  178.7550  139.9610 C   0  0  0  0  0  0  0  0  0  0  0  0
  189.5970  177.1790  137.5660 C   0  0  0  0  0  2  0  0  0  0  0  0
  185.0060  179.1600  144.7160 C   0  0  0  0  0  1  0  0  0  0  0  0
  188.9570  179.4320  138.1220 N   0  0  0  0  0  2  0  0  0  0  0  0
  187.0310  176.5290  136.1020 C   0  0  2  0  0  3  0  0  0  0  0  0
  189.5140  176.8210  136.0750 C   0  0  0  0  0  2  0  0  0  0  0  0
  185.1340  178.9490  143.2490 C   0  0  0  0  0  0  0  0  0  0  0  0
  187.0960  177.9220  137.8060 C   0  0  1  0  0  3  0  0  0  0  0  0
  184.1730  178.4230  137.4620 C   0  0  0  0  0  2  0  0  0  0  0  0
  184.2780  177.4590  134.6520 O   0  0  0  0  0  0  0  0  0  0  0  0
  184.1160  177.0540  136.9440 N   0  0  0  0  0  0  0  0  0  0  0  0
  188.3540  175.8700  135.7470 C   0  0  0  0  0  2  0  0  0  0  0  0
  186.8970  176.5770  137.4900 O   0  0  0  0  0  0  0  0  0  0  0  0
  183.0120  174.9650  136.9980 O   0  0  0  0  0  0  0  0  0  0  0  0
  183.6460  175.9510  137.7860 C   0  0  2  0  0  3  0  0  0  0  0  0
  182.1630  175.8030  137.7390 C   0  0  0  0  0  0  0  0  0  0  0  0
  181.2960  176.6350  136.8090 C   0  0  0  0  0  1  0  0  0  0  0  0
  181.5040  175.0440  138.8700 C   0  0  0  0  0  1  0  0  0  0  0  0
  181.8420  177.9860  140.4800 O   0  0  0  0  0  1  0  0  0  0  0  0
  182.5480  179.0070  139.8440 C   0  0  0  0  0  2  0  0  0  0  0  0
  1  5  1  0  0  0  0
  2 14  2  0  0  0  0
  3  9  1  0  0  0  0
  4  1  2  0  0  0  0
  4 11  1  0  0  0  0
  5 10  2  0  0  0  0
  6 17  2  0  0  0  0
  7 10  1  0  0  0  0
  7  6  1  0  0  0  0
  8 17  1  0  0  0  0
  9 21  1  0  0  0  0
 10  8  1  0  0  0  0
 11  7  2  0  0  0  0
 12  2  1  0  0  0  0
 15  3  1  6  0  0  0
 15 23  1  0  0  0  0
 16 12  1  0  0  0  0
 17 13  1  0  0  0  0
 18 23  1  1  0  0  0
 18  2  1  0  0  0  0
 18  1  1  0  0  0  0
 19  4  1  0  0  0  0
 20  9  2  0  0  0  0
 21 19  1  0  0  0  0
 22 16  1  0  0  0  0
 22 15  1  0  0  0  0
 24 26  1  0  0  0  0
 24 25  1  0  0  0  0
 25 21  1  6  0  0  0
 26 25  1  0  0  0  0
 26 28  1  0  0  0  0
 27 26  1  0  0  0  0
 30 11  1  0  0  0  0
 30 29  1  0  0  0  0
M  END
>  <MODEL>
4

>  <REMARK>
 VINA RESULT:      -6.3      3.037      4.578
  Name = 
  2 active torsions:
  status: ('A' for Active; 'I' for Inactive)
    1  A    between atoms: C_10  and  N_25
    2  A    between atoms: C_13  and  C_30
                            x       y       z     vdW  Elec       q    Type
                         _______ _______ _______ _____ _____    ______ ____

>  <TORSDO>
F 2

$$$$
=
 OpenBabel10272413413D

 30 34  0  0  1  0  0  0  0  0999 V2000
  184.9160  178.6900  139.8790 C   0  0  0  0  0  0  0  0  0  0  0  0
  182.4470  179.3470  139.7280 C   0  0  0  0  0  0  0  0  0  0  0  0
  183.5050  178.5990  143.9190 C   0  0  0  0  0  2  0  0  0  0  0  0
  186.1970  178.8740  140.4940 C   0  0  0  0  0  0  0  0  0  0  0  0
  184.8210  178.0250  138.6380 C   0  0  0  0  0  3  0  0  0  0  0  0
  188.1730  177.2870  137.8020 N   0  0  0  0  0  0  0  0  0  0  0  0
  187.2130  177.7860  138.5970 C   0  0  0  0  0  0  0  0  0  0  0  0
  186.1180  176.9770  136.8490 N   0  0  0  0  0  2  0  0  0  0  0  0
  184.8580  179.2290  143.8250 C   0  0  0  0  0  0  0  0  0  0  0  0
  185.9930  177.6010  138.0290 C   0  0  0  0  0  0  0  0  0  0  0  0
  187.3670  178.4130  139.8350 C   0  0  0  0  0  0  0  0  0  0  0  0
  181.1100  178.7550  140.1030 C   0  0  0  0  0  2  0  0  0  0  0  0
  188.1030  176.1530  135.5800 C   0  0  0  0  0  1  0  0  0  0  0  0
  182.4890  180.2760  138.8460 N   0  0  0  0  0  2  0  0  0  0  0  0
  182.7880  178.8900  142.6150 C   0  0  2  0  0  3  0  0  0  0  0  0
  180.6100  179.2850  141.4540 C   0  0  0  0  0  2  0  0  0  0  0  0
  187.4600  176.8040  136.7530 C   0  0  0  0  0  0  0  0  0  0  0  0
  183.6590  179.0970  140.6040 C   0  0  1  0  0  3  0  0  0  0  0  0
  186.3360  179.5400  141.8460 C   0  0  0  0  0  2  0  0  0  0  0  0
  185.0770  180.3140  144.4250 O   0  0  0  0  0  0  0  0  0  0  0  0
  185.8440  178.6920  142.9350 N   0  0  0  0  0  0  0  0  0  0  0  0
  181.2940  178.6160  142.6540 C   0  0  0  0  0  2  0  0  0  0  0  0
  183.3660  178.1480  141.5840 O   0  0  0  0  0  0  0  0  0  0  0  0
  186.4340  176.9110  144.3720 O   0  0  0  0  0  0  0  0  0  0  0  0
  186.2350  177.2820  143.0240 C   0  0  2  0  0  3  0  0  0  0  0  0
  187.5960  177.1140  143.6080 C   0  0  0  0  0  0  0  0  0  0  0  0
  188.3920  178.2870  144.1560 C   0  0  0  0  0  1  0  0  0  0  0  0
  188.3080  175.8050  143.3460 C   0  0  0  0  0  1  0  0  0  0  0  0
  189.3450  177.3660  140.6000 O   0  0  0  0  0  1  0  0  0  0  0  0
  188.7320  178.6050  140.4170 C   0  0  0  0  0  2  0  0  0  0  0  0
  1  4  1  0  0  0  0
  1 18  1  0  0  0  0
  2 12  1  0  0  0  0
  4 19  1  0  0  0  0
  5  1  2  0  0  0  0
  6  7  1  0  0  0  0
  7 11  1  0  0  0  0
  8 10  1  0  0  0  0
  9  3  1  0  0  0  0
  9 20  2  0  0  0  0
 10  7  2  0  0  0  0
 10  5  1  0  0  0  0
 11 30  1  0  0  0  0
 11  4  2  0  0  0  0
 12 16  1  0  0  0  0
 13 17  1  0  0  0  0
 14  2  2  0  0  0  0
 15 22  1  1  0  0  0
 15  3  1  0  0  0  0
 16 22  1  0  0  0  0
 17  8  1  0  0  0  0
 17  6  2  0  0  0  0
 18  2  1  6  0  0  0
 18 23  1  0  0  0  0
 19 21  1  0  0  0  0
 21  9  1  0  0  0  0
 23 15  1  0  0  0  0
 25 21  1  1  0  0  0
 25 26  1  0  0  0  0
 25 24  1  0  0  0  0
 26 27  1  0  0  0  0
 26 24  1  0  0  0  0
 28 26  1  0  0  0  0
 30 29  1  0  0  0  0
M  END
>  <MODEL>
5

>  <REMARK>
 VINA RESULT:      -6.2      3.629      8.606
  Name = 
  2 active torsions:
  status: ('A' for Active; 'I' for Inactive)
    1  A    between atoms: C_10  and  N_25
    2  A    between atoms: C_13  and  C_30
                            x       y       z     vdW  Elec       q    Type
                         _______ _______ _______ _____ _____    ______ ____

>  <TORSDO>
F 2

$$$$
=
 OpenBabel10272413413D

 30 34  0  0  1  0  0  0  0  0999 V2000
  184.9320  178.0730  140.8470 C   0  0  0  0  0  0  0  0  0  0  0  0
  185.3990  178.0440  143.3630 C   0  0  0  0  0  0  0  0  0  0  0  0
  181.2630  179.3230  142.6600 C   0  0  0  0  0  2  0  0  0  0  0  0
  184.0840  177.6980  139.7540 C   0  0  0  0  0  0  0  0  0  0  0  0
  186.2620  178.4780  140.5980 C   0  0  0  0  0  3  0  0  0  0  0  0
  186.6140  178.1630  137.0980 N   0  0  0  0  0  0  0  0  0  0  0  0
  185.9270  178.0920  138.2490 C   0  0  0  0  0  0  0  0  0  0  0  0
  187.9440  178.7840  138.8510 N   0  0  0  0  0  2  0  0  0  0  0  0
  181.0200  178.3670  141.5380 C   0  0  0  0  0  0  0  0  0  0  0  0
  186.7190  178.4620  139.2890 C   0  0  0  0  0  0  0  0  0  0  0  0
  184.5970  177.7070  138.4300 C   0  0  0  0  0  0  0  0  0  0  0  0
  185.3600  179.0170  144.5160 C   0  0  0  0  0  2  0  0  0  0  0  0
  188.9670  178.8090  136.5740 C   0  0  0  0  0  1  0  0  0  0  0  0
  186.1020  176.9770  143.4740 N   0  0  0  0  0  2  0  0  0  0  0  0
  182.6080  178.9680  143.2650 C   0  0  2  0  0  3  0  0  0  0  0  0
  184.0490  178.9120  145.3070 C   0  0  0  0  0  2  0  0  0  0  0  0
  187.8340  178.5900  137.5130 C   0  0  0  0  0  0  0  0  0  0  0  0
  184.3800  178.1500  142.2470 C   0  0  1  0  0  3  0  0  0  0  0  0
  182.6400  177.3030  139.9740 C   0  0  0  0  0  2  0  0  0  0  0  0
  180.2260  177.4040  141.7060 O   0  0  0  0  0  0  0  0  0  0  0  0
  181.8020  178.4480  140.3380 N   0  0  0  0  0  0  0  0  0  0  0  0
  182.8710  179.6130  144.6150 C   0  0  0  0  0  2  0  0  0  0  0  0
  183.6280  179.3180  142.3800 O   0  0  0  0  0  0  0  0  0  0  0  0
  180.6230  180.3600  139.6030 O   0  0  0  0  0  0  0  0  0  0  0  0
  181.8730  179.7010  139.5830 C   0  0  2  0  0  3  0  0  0  0  0  0
  180.9550  179.7000  138.4080 C   0  0  0  0  0  0  0  0  0  0  0  0
  179.9820  178.5630  138.1430 C   0  0  0  0  0  1  0  0  0  0  0  0
  181.2400  180.6920  137.3020 C   0  0  0  0  0  1  0  0  0  0  0  0
  183.9500  175.9390  136.9980 O   0  0  0  0  0  1  0  0  0  0  0  0
  183.7660  177.2970  137.2560 C   0  0  0  0  0  2  0  0  0  0  0  0
  2 14  2  0  0  0  0
  2 12  1  0  0  0  0
  4 19  1  0  0  0  0
  4  1  2  0  0  0  0
  5  1  1  0  0  0  0
  6 17  2  0  0  0  0
  6  7  1  0  0  0  0
  7 11  2  0  0  0  0
  7 10  1  0  0  0  0
  8 10  1  0  0  0  0
  9 20  2  0  0  0  0
  9  3  1  0  0  0  0
 10  5  2  0  0  0  0
 11  4  1  0  0  0  0
 12 16  1  0  0  0  0
 13 17  1  0  0  0  0
 15  3  1  6  0  0  0
 15 22  1  0  0  0  0
 17  8  1  0  0  0  0
 18  1  1  6  0  0  0
 18 23  1  0  0  0  0
 18  2  1  0  0  0  0
 19 21  1  0  0  0  0
 21  9  1  0  0  0  0
 22 16  1  0  0  0  0
 23 15  1  0  0  0  0
 25 24  1  0  0  0  0
 25 21  1  1  0  0  0
 26 25  1  0  0  0  0
 26 24  1  0  0  0  0
 27 26  1  0  0  0  0
 28 26  1  0  0  0  0
 29 30  1  0  0  0  0
 30 11  1  0  0  0  0
M  END
>  <MODEL>
6

>  <REMARK>
 VINA RESULT:      -6.1      4.447      8.455
  Name = 
  2 active torsions:
  status: ('A' for Active; 'I' for Inactive)
    1  A    between atoms: C_10  and  N_25
    2  A    between atoms: C_13  and  C_30
                            x       y       z     vdW  Elec       q    Type
                         _______ _______ _______ _____ _____    ______ ____

>  <TORSDO>
F 2

$$$$
=
 OpenBabel10272413413D

 30 34  0  0  1  0  0  0  0  0999 V2000
  187.4780  177.7250  139.0540 C   0  0  0  0  0  0  0  0  0  0  0  0
  189.9080  177.0580  138.6000 C   0  0  0  0  0  0  0  0  0  0  0  0
  187.3070  175.2580  135.5610 C   0  0  0  0  0  2  0  0  0  0  0  0
  186.2380  178.2450  138.5590 C   0  0  0  0  0  0  0  0  0  0  0  0
  187.7240  177.6950  140.4440 C   0  0  0  0  0  3  0  0  0  0  0  0
  184.8330  179.1540  141.8550 N   0  0  0  0  0  0  0  0  0  0  0  0
  185.5840  178.7220  140.8300 C   0  0  0  0  0  0  0  0  0  0  0  0
  186.8060  178.2970  142.6290 N   0  0  0  0  0  2  0  0  0  0  0  0
  186.4120  176.4490  135.4340 C   0  0  0  0  0  0  0  0  0  0  0  0
  186.7550  178.2120  141.2920 C   0  0  0  0  0  0  0  0  0  0  0  0
  185.2750  178.7540  139.4690 C   0  0  0  0  0  0  0  0  0  0  0  0
  190.7100  175.7870  138.4710 C   0  0  0  0  0  2  0  0  0  0  0  0
  185.2070  179.1920  144.3230 C   0  0  0  0  0  1  0  0  0  0  0  0
  190.5200  178.1550  138.8570 N   0  0  0  0  0  2  0  0  0  0  0  0
  188.4730  175.6700  136.4390 C   0  0  2  0  0  3  0  0  0  0  0  0
  190.8900  175.3730  137.0040 C   0  0  0  0  0  2  0  0  0  0  0  0
  185.6160  178.8730  142.9290 C   0  0  0  0  0  0  0  0  0  0  0  0
  188.4750  177.1050  138.1090 C   0  0  1  0  0  3  0  0  0  0  0  0
  185.9190  178.2520  137.0800 C   0  0  0  0  0  2  0  0  0  0  0  0
  186.4340  177.1300  134.3750 O   0  0  0  0  0  0  0  0  0  0  0  0
  185.6550  176.9070  136.5630 N   0  0  0  0  0  0  0  0  0  0  0  0
  189.6440  174.7010  136.4100 C   0  0  0  0  0  2  0  0  0  0  0  0
  188.0380  175.8270  137.7550 O   0  0  0  0  0  0  0  0  0  0  0  0
  184.0250  175.2090  136.3480 O   0  0  0  0  0  0  0  0  0  0  0  0
  184.7530  175.9940  137.2700 C   0  0  2  0  0  3  0  0  0  0  0  0
  183.3220  176.2640  136.9530 C   0  0  0  0  0  0  0  0  0  0  0  0
  182.9030  177.2880  135.9110 C   0  0  0  0  0  1  0  0  0  0  0  0
  182.2840  175.7400  137.9210 C   0  0  0  0  0  1  0  0  0  0  0  0
  184.1070  180.7140  138.8460 O   0  0  0  0  0  1  0  0  0  0  0  0
  183.9770  179.3350  139.0060 C   0  0  0  0  0  2  0  0  0  0  0  0
  1  5  1  0  0  0  0
  2 14  2  0  0  0  0
  4  1  2  0  0  0  0
  4 11  1  0  0  0  0
  5 10  2  0  0  0  0
  6 17  2  0  0  0  0
  7 10  1  0  0  0  0
  7  6  1  0  0  0  0
  8 17  1  0  0  0  0
  9  3  1  0  0  0  0
  9 21  1  0  0  0  0
 10  8  1  0  0  0  0
 11  7  2  0  0  0  0
 12  2  1  0  0  0  0
 15  3  1  6  0  0  0
 15 23  1  0  0  0  0
 16 12  1  0  0  0  0
 17 13  1  0  0  0  0
 18 23  1  1  0  0  0
 18  2  1  0  0  0  0
 18  1  1  0  0  0  0
 19  4  1  0  0  0  0
 20  9  2  0  0  0  0
 21 19  1  0  0  0  0
 22 15  1  0  0  0  0
 22 16  1  0  0  0  0
 24 26  1  0  0  0  0
 24 25  1  0  0  0  0
 25 21  1  6  0  0  0
 26 25  1  0  0  0  0
 26 28  1  0  0  0  0
 27 26  1  0  0  0  0
 29 30  1  0  0  0  0
 30 11  1  0  0  0  0
M  END
>  <MODEL>
7

>  <REMARK>
 VINA RESULT:      -6.1      2.328      3.279
  Name = 
  2 active torsions:
  status: ('A' for Active; 'I' for Inactive)
    1  A    between atoms: C_10  and  N_25
    2  A    between atoms: C_13  and  C_30
                            x       y       z     vdW  Elec       q    Type
                         _______ _______ _______ _____ _____    ______ ____

>  <TORSDO>
F 2

$$$$
=
 OpenBabel10272413413D

 30 34  0  0  1  0  0  0  0  0999 V2000
  188.6390  177.3770  139.5310 C   0  0  0  0  0  0  0  0  0  0  0  0
  190.9480  176.7460  138.6240 C   0  0  0  0  0  0  0  0  0  0  0  0
  187.8910  175.7970  135.6240 C   0  0  0  0  0  2  0  0  0  0  0  0
  187.3850  178.0420  139.3330 C   0  0  0  0  0  0  0  0  0  0  0  0
  189.0460  177.0150  140.8340 C   0  0  0  0  0  3  0  0  0  0  0  0
  186.4450  178.2100  142.9050 N   0  0  0  0  0  0  0  0  0  0  0  0
  187.0390  178.0010  141.7190 C   0  0  0  0  0  0  0  0  0  0  0  0
  188.4370  177.1260  143.1990 N   0  0  0  0  0  2  0  0  0  0  0  0
  187.0680  177.0160  135.8890 C   0  0  0  0  0  0  0  0  0  0  0  0
  188.2210  177.3560  141.8970 C   0  0  0  0  0  0  0  0  0  0  0  0
  186.5730  178.3600  140.4530 C   0  0  0  0  0  0  0  0  0  0  0  0
  191.6440  175.5120  138.1070 C   0  0  0  0  0  2  0  0  0  0  0  0
  187.1130  177.6600  145.2460 C   0  0  0  0  0  1  0  0  0  0  0  0
  191.6570  177.7310  139.0400 N   0  0  0  0  0  2  0  0  0  0  0  0
  189.1780  175.9510  136.4130 C   0  0  2  0  0  3  0  0  0  0  0  0
  191.6210  175.4440  136.5730 C   0  0  0  0  0  2  0  0  0  0  0  0
  187.3310  177.6600  143.7750 C   0  0  0  0  0  0  0  0  0  0  0  0
  189.4730  176.9570  138.3480 C   0  0  1  0  0  3  0  0  0  0  0  0
  186.8930  178.4040  137.9490 C   0  0  0  0  0  2  0  0  0  0  0  0
  187.0080  177.9230  135.0180 O   0  0  0  0  0  0  0  0  0  0  0  0
  186.4830  177.2260  137.1810 N   0  0  0  0  0  0  0  0  0  0  0  0
  190.2710  174.9740  136.0120 C   0  0  0  0  0  2  0  0  0  0  0  0
  188.9150  175.8130  137.7760 O   0  0  0  0  0  0  0  0  0  0  0  0
  184.8810  175.5370  136.7700 O   0  0  0  0  0  0  0  0  0  0  0  0
  185.6130  176.2070  137.7760 C   0  0  2  0  0  3  0  0  0  0  0  0
  184.1710  176.4850  137.5240 C   0  0  0  0  0  0  0  0  0  0  0  0
  183.7100  177.6300  136.6370 C   0  0  0  0  0  1  0  0  0  0  0  0
  183.1640  175.8130  138.4320 C   0  0  0  0  0  1  0  0  0  0  0  0
  184.2170  178.2120  140.6020 O   0  0  0  0  0  1  0  0  0  0  0  0
  185.2690  179.0790  140.3080 C   0  0  0  0  0  2  0  0  0  0  0  0
  1  5  1  0  0  0  0
  2 14  2  0  0  0  0
  3  9  1  0  0  0  0
  4  1  2  0  0  0  0
  4 11  1  0  0  0  0
  5 10  2  0  0  0  0
  6 17  2  0  0  0  0
  7 10  1  0  0  0  0
  7  6  1  0  0  0  0
  8 17  1  0  0  0  0
  9 21  1  0  0  0  0
 10  8  1  0  0  0  0
 11  7  2  0  0  0  0
 12  2  1  0  0  0  0
 15  3  1  6  0  0  0
 15 23  1  0  0  0  0
 16 12  1  0  0  0  0
 17 13  1  0  0  0  0
 18 23  1  1  0  0  0
 18  2  1  0  0  0  0
 18  1  1  0  0  0  0
 19  4  1  0  0  0  0
 20  9  2  0  0  0  0
 21 19  1  0  0  0  0
 22 15  1  0  0  0  0
 22 16  1  0  0  0  0
 24 26  1  0  0  0  0
 24 25  1  0  0  0  0
 25 21  1  6  0  0  0
 26 25  1  0  0  0  0
 26 28  1  0  0  0  0
 27 26  1  0  0  0  0
 30 11  1  0  0  0  0
 30 29  1  0  0  0  0
M  END
>  <MODEL>
8

>  <REMARK>
 VINA RESULT:      -5.9      1.684      2.255
  Name = 
  2 active torsions:
  status: ('A' for Active; 'I' for Inactive)
    1  A    between atoms: C_10  and  N_25
    2  A    between atoms: C_13  and  C_30
                            x       y       z     vdW  Elec       q    Type
                         _______ _______ _______ _____ _____    ______ ____

>  <TORSDO>
F 2

$$$$
=
 OpenBabel10272413413D

 30 34  0  0  1  0  0  0  0  0999 V2000
  190.7750  177.0060  138.8210 C   0  0  0  0  0  0  0  0  0  0  0  0
  193.2770  176.7560  139.2950 C   0  0  0  0  0  0  0  0  0  0  0  0
  192.0940  173.9160  136.1690 C   0  0  0  0  0  2  0  0  0  0  0  0
  189.7190  177.1620  137.8640 C   0  0  0  0  0  0  0  0  0  0  0  0
  190.5400  177.2980  140.1820 C   0  0  0  0  0  3  0  0  0  0  0  0
  187.1860  178.4040  140.2540 N   0  0  0  0  0  0  0  0  0  0  0  0
  188.2860  177.9360  139.6420 C   0  0  0  0  0  0  0  0  0  0  0  0
  188.8740  178.1230  141.7700 N   0  0  0  0  0  2  0  0  0  0  0  0
  191.1540  174.8580  135.4880 C   0  0  0  0  0  0  0  0  0  0  0  0
  189.2860  177.7700  140.5450 C   0  0  0  0  0  0  0  0  0  0  0  0
  188.4510  177.6400  138.2880 C   0  0  0  0  0  0  0  0  0  0  0  0
  194.2270  175.6690  139.7340 C   0  0  0  0  0  2  0  0  0  0  0  0
  186.7010  179.0000  142.6290 C   0  0  0  0  0  1  0  0  0  0  0  0
  193.6270  177.9810  139.4410 N   0  0  0  0  0  2  0  0  0  0  0  0
  192.8360  174.7140  137.2240 C   0  0  2  0  0  3  0  0  0  0  0  0
  194.9400  175.0180  138.5390 C   0  0  0  0  0  2  0  0  0  0  0  0
  187.5910  178.5010  141.5460 C   0  0  0  0  0  0  0  0  0  0  0  0
  192.0990  176.4210  138.4030 C   0  0  1  0  0  3  0  0  0  0  0  0
  189.9170  176.8150  136.4050 C   0  0  0  0  0  2  0  0  0  0  0  0
  191.4470  175.3090  134.3490 O   0  0  0  0  0  0  0  0  0  0  0  0
  190.0110  175.3700  136.1870 N   0  0  0  0  0  0  0  0  0  0  0  0
  194.0590  174.0100  137.7880 C   0  0  0  0  0  2  0  0  0  0  0  0
  191.9680  175.0380  138.2660 O   0  0  0  0  0  0  0  0  0  0  0  0
  188.7480  173.3910  135.9140 O   0  0  0  0  0  0  0  0  0  0  0  0
  189.0440  174.4530  136.7970 C   0  0  2  0  0  3  0  0  0  0  0  0
  187.7690  174.3920  136.0270 C   0  0  0  0  0  0  0  0  0  0  0  0
  187.5890  175.1100  134.7000 C   0  0  0  0  0  1  0  0  0  0  0  0
  186.5440  173.8740  136.7490 C   0  0  0  0  0  1  0  0  0  0  0  0
  187.2980  179.1810  136.9130 O   0  0  0  0  0  1  0  0  0  0  0  0
  187.3230  177.8490  137.3280 C   0  0  0  0  0  2  0  0  0  0  0  0
  1  5  1  0  0  0  0
  2 14  2  0  0  0  0
  2 12  1  0  0  0  0
  4 11  1  0  0  0  0
  4  1  2  0  0  0  0
  5 10  2  0  0  0  0
  6 17  2  0  0  0  0
  7  6  1  0  0  0  0
  7 10  1  0  0  0  0
  9  3  1  0  0  0  0
  9 21  1  0  0  0  0
 10  8  1  0  0  0  0
 11  7  2  0  0  0  0
 15  3  1  6  0  0  0
 15 22  1  0  0  0  0
 15 23  1  0  0  0  0
 16 12  1  0  0  0  0
 17  8  1  0  0  0  0
 17 13  1  0  0  0  0
 18 23  1  1  0  0  0
 18  1  1  0  0  0  0
 18  2  1  0  0  0  0
 19  4  1  0  0  0  0
 20  9  2  0  0  0  0
 21 19  1  0  0  0  0
 22 16  1  0  0  0  0
 24 26  1  0  0  0  0
 24 25  1  0  0  0  0
 25 21  1  6  0  0  0
 26 28  1  0  0  0  0
 26 25  1  0  0  0  0
 27 26  1  0  0  0  0
 29 30  1  0  0  0  0
 30 11  1  0  0  0  0
M  END
>  <MODEL>
9

>  <REMARK>
 VINA RESULT:      -5.8      1.709      2.018
  Name = 
  2 active torsions:
  status: ('A' for Active; 'I' for Inactive)
    1  A    between atoms: C_10  and  N_25
    2  A    between atoms: C_13  and  C_30
                            x       y       z     vdW  Elec       q    Type
                         _______ _______ _______ _____ _____    ______ ____

>  <TORSDO>
F 2

$$$$
