=
 OpenBabel10272413113D

 32 36  0  0  1  0  0  0  0  0999 V2000
  189.2830  177.3070  140.4640 N   0  0  0  0  0  0  0  0  0  0  0  0
  187.4640  178.1450  141.5320 C   0  0  0  0  0  0  0  0  0  0  0  0
  188.7580  176.5760  142.8350 C   0  0  0  0  0  3  0  0  0  0  0  0
  184.5750  179.3600  143.5110 C   0  0  0  0  0  3  0  0  0  0  0  0
  188.5230  177.2980  141.6620 C   0  0  0  0  0  0  0  0  0  0  0  0
  185.8530  177.7730  144.8300 C   0  0  0  0  0  3  0  0  0  0  0  0
  186.7510  177.6110  143.7720 C   0  0  0  0  0  0  0  0  0  0  0  0
  187.8520  176.7390  143.8980 C   0  0  0  0  0  3  0  0  0  0  0  0
  187.4850  178.7400  140.2810 O   0  0  0  0  0  0  0  0  0  0  0  0
  188.6260  178.2520  139.5540 C   0  0  2  0  0  3  0  0  0  0  0  0
  186.5500  178.3330  142.5660 C   0  0  0  0  0  0  0  0  0  0  0  0
  184.7680  178.6450  144.6990 C   0  0  0  0  0  3  0  0  0  0  0  0
  185.4640  179.2050  142.4430 C   0  0  0  0  0  3  0  0  0  0  0  0
  188.1310  177.3960  135.8690 C   0  0  0  0  0  0  0  0  0  0  0  0
  188.4170  177.8980  134.6420 F   0  0  0  0  0  0  0  0  0  0  0  0
  188.1960  177.5530  138.2950 C   0  0  0  0  0  0  0  0  0  0  0  0
  187.4600  176.1750  135.9680 C   0  0  0  0  0  3  0  0  0  0  0  0
  187.5290  176.3220  138.3790 C   0  0  0  0  0  3  0  0  0  0  0  0
  188.5060  178.0900  137.0300 C   0  0  0  0  0  0  0  0  0  0  0  0
  189.2340  179.3890  136.9050 C   0  0  0  0  0  1  0  0  0  0  0  0
  187.1550  175.6300  137.2250 C   0  0  0  0  0  0  0  0  0  0  0  0
  185.0880  174.2710  137.1630 C   0  0  0  0  0  1  0  0  0  0  0  0
  186.4900  174.4080  137.3540 O   0  0  0  0  0  0  0  0  0  0  0  0
  191.6760  177.4500  140.9570 C   0  0  0  0  0  2  0  0  0  0  0  0
  190.5850  176.6900  140.2310 C   0  0  2  0  0  3  0  0  0  0  0  0
  190.8980  176.6840  138.8080 N   0  0  0  0  0  0  0  0  0  0  0  0
  192.3440  176.8200  138.7380 C   0  0  0  0  0  2  0  0  0  0  0  0
  192.7860  177.6110  139.9480 C   0  0  0  0  0  2  0  0  0  0  0  0
  190.5700  175.3610  138.3050 C   0  0  0  0  0  2  0  0  0  0  0  0
  191.0470  175.2290  136.8760 C   0  0  0  0  0  2  0  0  0  0  0  0
  190.4530  173.9810  136.2590 C   0  0  0  0  0  2  0  0  0  0  0  0
  189.7430  173.2760  137.2320 O   0  0  0  0  0  1  0  0  0  0  0  0
  1  5  1  0  0  0  0
  2  5  2  0  0  0  0
  2 11  1  0  0  0  0
  3  8  2  0  0  0  0
  4 12  1  0  0  0  0
  5  3  1  0  0  0  0
  7  8  1  0  0  0  0
  7  6  1  0  0  0  0
  9  2  1  0  0  0  0
 10 16  1  6  0  0  0
 10  9  1  0  0  0  0
 10  1  1  0  0  0  0
 11  7  2  0  0  0  0
 12  6  2  0  0  0  0
 13 11  1  0  0  0  0
 13  4  2  0  0  0  0
 14 17  2  0  0  0  0
 14 19  1  0  0  0  0
 15 14  1  0  0  0  0
 16 18  1  0  0  0  0
 17 21  1  0  0  0  0
 19 16  2  0  0  0  0
 20 19  1  0  0  0  0
 21 23  1  0  0  0  0
 21 18  2  0  0  0  0
 22 23  1  0  0  0  0
 25  1  1  6  0  0  0
 25 24  1  0  0  0  0
 26 25  1  0  0  0  0
 27 26  1  0  0  0  0
 27 28  1  0  0  0  0
 28 24  1  0  0  0  0
 29 26  1  0  0  0  0
 30 29  1  0  0  0  0
 31 30  1  0  0  0  0
 31 32  1  0  0  0  0
M  END
>  <MODEL>
1

>  <REMARK>
 VINA RESULT:      -7.3      0.000      0.000
  Name = 
  6 active torsions:
  status: ('A' for Active; 'I' for Inactive)
    1  A    between atoms: N_1  and  C_5
    2  A    between atoms: C_13  and  C_18
    3  A    between atoms: N_14  and  C_29
    4  A    between atoms: O_15  and  C_26
    5  A    between atoms: C_16  and  C_27
    6  A    between atoms: C_18  and  C_29
                            x       y       z     vdW  Elec       q    Type
                         _______ _______ _______ _____ _____    ______ ____

>  <TORSDO>
F 6

$$$$
=
 OpenBabel10272413113D

 32 36  0  0  1  0  0  0  0  0999 V2000
  189.9380  177.3150  142.3900 N   0  0  0  0  0  0  0  0  0  0  0  0
  190.0680  176.5010  140.2760 C   0  0  0  0  0  0  0  0  0  0  0  0
  191.9940  177.7750  140.9810 C   0  0  0  0  0  3  0  0  0  0  0  0
  190.5470  175.2860  136.8070 C   0  0  0  0  0  3  0  0  0  0  0  0
  190.7290  177.2330  141.2150 C   0  0  0  0  0  0  0  0  0  0  0  0
  192.4850  176.5770  137.4910 C   0  0  0  0  0  3  0  0  0  0  0  0
  191.9010  176.7990  138.7400 C   0  0  0  0  0  0  0  0  0  0  0  0
  192.5800  177.5520  139.7210 C   0  0  0  0  0  3  0  0  0  0  0  0
  188.8500  176.0730  140.7810 O   0  0  0  0  0  0  0  0  0  0  0  0
  188.7120  176.5540  142.1290 C   0  0  2  0  0  3  0  0  0  0  0  0
  190.6190  176.2570  139.0200 C   0  0  0  0  0  0  0  0  0  0  0  0
  191.8080  175.8220  136.5270 C   0  0  0  0  0  3  0  0  0  0  0  0
  189.9490  175.5020  138.0530 C   0  0  0  0  0  3  0  0  0  0  0  0
  185.8010  178.5270  143.6080 C   0  0  0  0  0  0  0  0  0  0  0  0
  185.1990  178.7450  144.8040 F   0  0  0  0  0  0  0  0  0  0  0  0
  187.5070  177.4430  142.2560 C   0  0  0  0  0  0  0  0  0  0  0  0
  185.3180  179.1800  142.4710 C   0  0  0  0  0  3  0  0  0  0  0  0
  187.0160  178.1110  141.1250 C   0  0  0  0  0  3  0  0  0  0  0  0
  186.8980  177.6590  143.5090 C   0  0  0  0  0  0  0  0  0  0  0  0
  187.4090  176.9770  144.7380 C   0  0  0  0  0  1  0  0  0  0  0  0
  185.9240  178.9750  141.2220 C   0  0  0  0  0  0  0  0  0  0  0  0
  184.4640  179.0670  139.2260 C   0  0  0  0  0  1  0  0  0  0  0  0
  185.4660  179.6190  140.0700 O   0  0  0  0  0  0  0  0  0  0  0  0
  190.2890  179.3610  143.6860 C   0  0  0  0  0  2  0  0  0  0  0  0
  190.3300  177.8470  143.6920 C   0  0  2  0  0  3  0  0  0  0  0  0
  191.6820  177.4250  144.0290 N   0  0  0  0  0  0  0  0  0  0  0  0
  192.2380  178.5190  144.8090 C   0  0  0  0  0  2  0  0  0  0  0  0
  191.5800  179.7960  144.3360 C   0  0  0  0  0  2  0  0  0  0  0  0
  191.5640  176.2840  144.9200 C   0  0  0  0  0  2  0  0  0  0  0  0
  191.1850  176.7590  146.3060 C   0  0  0  0  0  2  0  0  0  0  0  0
  191.8290  175.8610  147.3390 C   0  0  0  0  0  2  0  0  0  0  0  0
  192.5420  176.6400  148.2510 O   0  0  0  0  0  1  0  0  0  0  0  0
  2  9  1  0  0  0  0
  2  5  1  0  0  0  0
  3  5  2  0  0  0  0
  4 13  2  0  0  0  0
  5  1  1  0  0  0  0
  6  7  1  0  0  0  0
  7 11  1  0  0  0  0
  7  8  2  0  0  0  0
  8  3  1  0  0  0  0
  9 10  1  0  0  0  0
 10 16  1  6  0  0  0
 10  1  1  0  0  0  0
 11  2  2  0  0  0  0
 12  4  1  0  0  0  0
 12  6  2  0  0  0  0
 13 11  1  0  0  0  0
 14 15  1  0  0  0  0
 16 19  2  0  0  0  0
 17 14  2  0  0  0  0
 18 21  2  0  0  0  0
 18 16  1  0  0  0  0
 19 14  1  0  0  0  0
 19 20  1  0  0  0  0
 21 17  1  0  0  0  0
 22 23  1  0  0  0  0
 23 21  1  0  0  0  0
 24 25  1  0  0  0  0
 24 28  1  0  0  0  0
 25  1  1  6  0  0  0
 25 26  1  0  0  0  0
 26 27  1  0  0  0  0
 26 29  1  0  0  0  0
 28 27  1  0  0  0  0
 29 30  1  0  0  0  0
 30 31  1  0  0  0  0
 31 32  1  0  0  0  0
M  END
>  <MODEL>
2

>  <REMARK>
 VINA RESULT:      -6.5      3.425      6.963
  Name = 
  6 active torsions:
  status: ('A' for Active; 'I' for Inactive)
    1  A    between atoms: N_1  and  C_5
    2  A    between atoms: C_13  and  C_18
    3  A    between atoms: N_14  and  C_29
    4  A    between atoms: O_15  and  C_26
    5  A    between atoms: C_16  and  C_27
    6  A    between atoms: C_18  and  C_29
                            x       y       z     vdW  Elec       q    Type
                         _______ _______ _______ _____ _____    ______ ____

>  <TORSDO>
F 6

$$$$
=
 OpenBabel10272413113D

 32 36  0  0  1  0  0  0  0  0999 V2000
  185.8910  178.6300  140.4300 N   0  0  0  0  0  0  0  0  0  0  0  0
  185.5450  178.6630  142.6720 C   0  0  0  0  0  0  0  0  0  0  0  0
  187.5440  177.4960  141.9830 C   0  0  0  0  0  3  0  0  0  0  0  0
  185.2320  178.5750  146.3640 C   0  0  0  0  0  3  0  0  0  0  0  0
  186.3860  178.2220  141.6960 C   0  0  0  0  0  0  0  0  0  0  0  0
  187.2370  177.3840  145.6910 C   0  0  0  0  0  3  0  0  0  0  0  0
  186.9570  177.6630  144.3510 C   0  0  0  0  0  0  0  0  0  0  0  0
  187.8230  177.2150  143.3320 C   0  0  0  0  0  3  0  0  0  0  0  0
  184.4940  179.3680  142.1080 O   0  0  0  0  0  0  0  0  0  0  0  0
  184.6610  179.3880  140.6810 C   0  0  2  0  0  3  0  0  0  0  0  0
  185.7930  178.4060  144.0180 C   0  0  0  0  0  0  0  0  0  0  0  0
  186.3750  177.8390  146.6950 C   0  0  0  0  0  3  0  0  0  0  0  0
  184.9370  178.8590  145.0270 C   0  0  0  0  0  3  0  0  0  0  0  0
  181.6790  178.7830  138.3790 C   0  0  0  0  0  0  0  0  0  0  0  0
  180.9370  179.4370  137.4510 F   0  0  0  0  0  0  0  0  0  0  0  0
  183.4940  178.7340  139.9970 C   0  0  0  0  0  0  0  0  0  0  0  0
  181.3810  177.4500  138.6760 C   0  0  0  0  0  3  0  0  0  0  0  0
  183.1880  177.3940  140.2800 C   0  0  0  0  0  3  0  0  0  0  0  0
  182.7380  179.4300  139.0330 C   0  0  0  0  0  0  0  0  0  0  0  0
  183.0500  180.8520  138.6940 C   0  0  0  0  0  1  0  0  0  0  0  0
  182.1350  176.7480  139.6290 C   0  0  0  0  0  0  0  0  0  0  0  0
  180.5440  174.8850  139.9770 C   0  0  0  0  0  1  0  0  0  0  0  0
  181.8630  175.4140  139.9420 O   0  0  0  0  0  0  0  0  0  0  0  0
  185.6160  177.9870  138.0840 C   0  0  0  0  0  2  0  0  0  0  0  0
  186.5620  178.5290  139.1370 C   0  0  2  0  0  3  0  0  0  0  0  0
  187.7100  177.6370  139.2260 N   0  0  0  0  0  0  0  0  0  0  0  0
  187.8020  177.0060  137.9200 C   0  0  0  0  0  2  0  0  0  0  0  0
  186.4030  176.9280  137.3510 C   0  0  0  0  0  2  0  0  0  0  0  0
  188.8880  178.4720  139.3800 C   0  0  0  0  0  2  0  0  0  0  0  0
  190.1280  177.6640  139.0680 C   0  0  0  0  0  2  0  0  0  0  0  0
  190.8230  177.2890  140.3590 C   0  0  0  0  0  2  0  0  0  0  0  0
  192.2040  177.3080  140.1640 O   0  0  0  0  0  1  0  0  0  0  0  0
  1 10  1  0  0  0  0
  1  5  1  0  0  0  0
  2 11  1  0  0  0  0
  3  8  2  0  0  0  0
  4 12  1  0  0  0  0
  5  3  1  0  0  0  0
  5  2  2  0  0  0  0
  6 12  2  0  0  0  0
  7  6  1  0  0  0  0
  8  7  1  0  0  0  0
  9  2  1  0  0  0  0
 10 16  1  6  0  0  0
 10  9  1  0  0  0  0
 11  7  2  0  0  0  0
 11 13  1  0  0  0  0
 13  4  2  0  0  0  0
 14 17  2  0  0  0  0
 14 19  1  0  0  0  0
 15 14  1  0  0  0  0
 16 18  1  0  0  0  0
 17 21  1  0  0  0  0
 19 16  2  0  0  0  0
 20 19  1  0  0  0  0
 21 23  1  0  0  0  0
 21 18  2  0  0  0  0
 23 22  1  0  0  0  0
 25 24  1  6  0  0  0
 25 26  1  0  0  0  0
 25  1  1  0  0  0  0
 26 29  1  0  0  0  0
 27 26  1  0  0  0  0
 28 27  1  0  0  0  0
 28 24  1  0  0  0  0
 30 29  1  0  0  0  0
 30 31  1  0  0  0  0
 32 31  1  0  0  0  0
M  END
>  <MODEL>
3

>  <REMARK>
 VINA RESULT:      -6.5      3.334      4.688
  Name = 
  6 active torsions:
  status: ('A' for Active; 'I' for Inactive)
    1  A    between atoms: N_1  and  C_5
    2  A    between atoms: C_13  and  C_18
    3  A    between atoms: N_14  and  C_29
    4  A    between atoms: O_15  and  C_26
    5  A    between atoms: C_16  and  C_27
    6  A    between atoms: C_18  and  C_29
                            x       y       z     vdW  Elec       q    Type
                         _______ _______ _______ _____ _____    ______ ____

>  <TORSDO>
F 6

$$$$
=
 OpenBabel10272413113D

 32 36  0  0  1  0  0  0  0  0999 V2000
  183.5040  177.7380  138.9970 N   0  0  0  0  0  0  0  0  0  0  0  0
  185.5720  178.1480  138.1570 C   0  0  0  0  0  0  0  0  0  0  0  0
  184.4920  176.1870  137.2520 C   0  0  0  0  0  3  0  0  0  0  0  0
  188.9120  178.5880  136.6110 C   0  0  0  0  0  3  0  0  0  0  0  0
  184.5110  177.2960  138.1000 C   0  0  0  0  0  0  0  0  0  0  0  0
  187.8500  176.6040  135.7010 C   0  0  0  0  0  3  0  0  0  0  0  0
  186.7290  176.8320  136.5030 C   0  0  0  0  0  0  0  0  0  0  0  0
  185.6230  175.9580  136.4480 C   0  0  0  0  0  3  0  0  0  0  0  0
  185.3140  179.1650  139.0620 O   0  0  0  0  0  0  0  0  0  0  0  0
  184.0070  178.9640  139.6270 C   0  0  2  0  0  3  0  0  0  0  0  0
  186.7060  177.9540  137.3720 C   0  0  0  0  0  0  0  0  0  0  0  0
  188.9390  177.4810  135.7570 C   0  0  0  0  0  3  0  0  0  0  0  0
  187.7970  178.8270  137.4210 C   0  0  0  0  0  3  0  0  0  0  0  0
  183.0450  178.7410  143.3120 C   0  0  0  0  0  0  0  0  0  0  0  0
  181.9590  178.8940  144.1110 F   0  0  0  0  0  0  0  0  0  0  0  0
  184.0910  178.7900  141.1170 C   0  0  0  0  0  0  0  0  0  0  0  0
  184.2650  178.3680  143.8830 C   0  0  0  0  0  3  0  0  0  0  0  0
  185.3070  178.4070  141.7020 C   0  0  0  0  0  3  0  0  0  0  0  0
  182.9500  178.9510  141.9280 C   0  0  0  0  0  0  0  0  0  0  0  0
  181.6340  179.3380  141.3340 C   0  0  0  0  0  1  0  0  0  0  0  0
  185.4030  178.1990  143.0800 C   0  0  0  0  0  0  0  0  0  0  0  0
  186.8500  177.6840  145.0210 C   0  0  0  0  0  1  0  0  0  0  0  0
  186.6340  177.8200  143.6220 O   0  0  0  0  0  0  0  0  0  0  0  0
  182.1500  175.7730  139.5410 C   0  0  0  0  0  2  0  0  0  0  0  0
  182.1410  177.2300  139.1270 C   0  0  2  0  0  3  0  0  0  0  0  0
  181.4330  177.3440  137.8600 N   0  0  0  0  0  0  0  0  0  0  0  0
  180.5200  176.2130  137.8330 C   0  0  0  0  0  2  0  0  0  0  0  0
  181.1550  175.0960  138.6310 C   0  0  0  0  0  2  0  0  0  0  0  0
  180.6200  178.5460  137.9320 C   0  0  0  0  0  2  0  0  0  0  0  0
  181.2610  179.6420  137.1090 C   0  0  0  0  0  2  0  0  0  0  0  0
  180.8850  180.9900  137.6870 C   0  0  0  0  0  2  0  0  0  0  0  0
  181.9510  181.4870  138.4370 O   0  0  0  0  0  1  0  0  0  0  0  0
  1 10  1  0  0  0  0
  2  9  1  0  0  0  0
  3  5  2  0  0  0  0
  4 13  2  0  0  0  0
  5  2  1  0  0  0  0
  5  1  1  0  0  0  0
  6 12  2  0  0  0  0
  6  7  1  0  0  0  0
  7 11  1  0  0  0  0
  8  7  2  0  0  0  0
  8  3  1  0  0  0  0
  9 10  1  0  0  0  0
 10 16  1  1  0  0  0
 11 13  1  0  0  0  0
 11  2  2  0  0  0  0
 12  4  1  0  0  0  0
 14 17  1  0  0  0  0
 14 15  1  0  0  0  0
 16 18  2  0  0  0  0
 16 19  1  0  0  0  0
 18 21  1  0  0  0  0
 19 14  2  0  0  0  0
 20 19  1  0  0  0  0
 21 23  1  0  0  0  0
 21 17  2  0  0  0  0
 23 22  1  0  0  0  0
 25  1  1  6  0  0  0
 25 24  1  0  0  0  0
 26 29  1  0  0  0  0
 26 25  1  0  0  0  0
 27 26  1  0  0  0  0
 27 28  1  0  0  0  0
 28 24  1  0  0  0  0
 30 31  1  0  0  0  0
 30 29  1  0  0  0  0
 31 32  1  0  0  0  0
M  END
>  <MODEL>
4

>  <REMARK>
 VINA RESULT:      -6.5      4.255      8.420
  Name = 
  6 active torsions:
  status: ('A' for Active; 'I' for Inactive)
    1  A    between atoms: N_1  and  C_5
    2  A    between atoms: C_13  and  C_18
    3  A    between atoms: N_14  and  C_29
    4  A    between atoms: O_15  and  C_26
    5  A    between atoms: C_16  and  C_27
    6  A    between atoms: C_18  and  C_29
                            x       y       z     vdW  Elec       q    Type
                         _______ _______ _______ _____ _____    ______ ____

>  <TORSDO>
F 6

$$$$
=
 OpenBabel10272413113D

 32 36  0  0  1  0  0  0  0  0999 V2000
  188.5890  177.8510  139.2190 N   0  0  0  0  0  0  0  0  0  0  0  0
  187.8870  177.8800  141.3770 C   0  0  0  0  0  0  0  0  0  0  0  0
  190.1200  177.0190  141.0600 C   0  0  0  0  0  3  0  0  0  0  0  0
  187.0030  177.8280  144.9760 C   0  0  0  0  0  3  0  0  0  0  0  0
  188.9290  177.5520  140.5640 C   0  0  0  0  0  0  0  0  0  0  0  0
  189.2430  176.9430  144.6770 C   0  0  0  0  0  3  0  0  0  0  0  0
  189.1430  177.1460  143.2980 C   0  0  0  0  0  0  0  0  0  0  0  0
  190.2180  176.8140  142.4480 C   0  0  0  0  0  3  0  0  0  0  0  0
  186.8470  178.4040  140.6250 O   0  0  0  0  0  0  0  0  0  0  0  0
  187.2360  178.4180  139.2410 C   0  0  2  0  0  3  0  0  0  0  0  0
  187.9510  177.6940  142.7560 C   0  0  0  0  0  0  0  0  0  0  0  0
  188.1740  177.2830  145.5130 C   0  0  0  0  0  3  0  0  0  0  0  0
  186.8870  178.0330  143.5980 C   0  0  0  0  0  3  0  0  0  0  0  0
  184.1740  177.2530  137.2850 C   0  0  0  0  0  0  0  0  0  0  0  0
  182.9260  177.6770  136.9660 F   0  0  0  0  0  0  0  0  0  0  0  0
  186.3030  177.5770  138.4160 C   0  0  0  0  0  0  0  0  0  0  0  0
  184.6240  176.0230  136.7980 C   0  0  0  0  0  3  0  0  0  0  0  0
  186.7430  176.3440  137.9130 C   0  0  0  0  0  3  0  0  0  0  0  0
  185.0110  178.0380  138.0930 C   0  0  0  0  0  0  0  0  0  0  0  0
  184.5180  179.3570  138.5960 C   0  0  0  0  0  1  0  0  0  0  0  0
  185.9120  175.5610  137.1090 C   0  0  0  0  0  0  0  0  0  0  0  0
  186.0600  173.0950  137.2350 C   0  0  0  0  0  1  0  0  0  0  0  0
  186.3890  174.3390  136.6310 O   0  0  0  0  0  0  0  0  0  0  0  0
  188.9820  178.8010  136.9980 C   0  0  0  0  0  2  0  0  0  0  0  0
  189.4650  177.8260  138.0520 C   0  0  2  0  0  3  0  0  0  0  0  0
  189.4940  176.4930  137.4660 N   0  0  0  0  0  0  0  0  0  0  0  0
  189.6710  176.7100  136.0390 C   0  0  0  0  0  2  0  0  0  0  0  0
  189.0330  178.0380  135.6980 C   0  0  0  0  0  2  0  0  0  0  0  0
  190.6980  175.8400  137.9500 C   0  0  0  0  0  2  0  0  0  0  0  0
  191.9160  176.5390  137.3860 C   0  0  0  0  0  2  0  0  0  0  0  0
  193.1560  176.0400  138.0950 C   0  0  0  0  0  2  0  0  0  0  0  0
  193.4800  176.9130  139.1340 O   0  0  0  0  0  1  0  0  0  0  0  0
  1 10  1  0  0  0  0
  1  5  1  0  0  0  0
  2 11  1  0  0  0  0
  3  8  2  0  0  0  0
  4 12  1  0  0  0  0
  5  3  1  0  0  0  0
  5  2  2  0  0  0  0
  6 12  2  0  0  0  0
  7  6  1  0  0  0  0
  8  7  1  0  0  0  0
  9  2  1  0  0  0  0
 10 16  1  6  0  0  0
 10  9  1  0  0  0  0
 11  7  2  0  0  0  0
 11 13  1  0  0  0  0
 13  4  2  0  0  0  0
 14 19  1  0  0  0  0
 15 14  1  0  0  0  0
 17 21  1  0  0  0  0
 17 14  2  0  0  0  0
 18 16  1  0  0  0  0
 19 16  2  0  0  0  0
 19 20  1  0  0  0  0
 21 18  2  0  0  0  0
 23 21  1  0  0  0  0
 23 22  1  0  0  0  0
 25 24  1  6  0  0  0
 25  1  1  0  0  0  0
 26 29  1  0  0  0  0
 26 25  1  0  0  0  0
 27 26  1  0  0  0  0
 28 27  1  0  0  0  0
 28 24  1  0  0  0  0
 30 29  1  0  0  0  0
 30 31  1  0  0  0  0
 31 32  1  0  0  0  0
M  END
>  <MODEL>
5

>  <REMARK>
 VINA RESULT:      -6.5      2.142      3.115
  Name = 
  6 active torsions:
  status: ('A' for Active; 'I' for Inactive)
    1  A    between atoms: N_1  and  C_5
    2  A    between atoms: C_13  and  C_18
    3  A    between atoms: N_14  and  C_29
    4  A    between atoms: O_15  and  C_26
    5  A    between atoms: C_16  and  C_27
    6  A    between atoms: C_18  and  C_29
                            x       y       z     vdW  Elec       q    Type
                         _______ _______ _______ _____ _____    ______ ____

>  <TORSDO>
F 6

$$$$
=
 OpenBabel10272413113D

 32 36  0  0  1  0  0  0  0  0999 V2000
  186.2030  178.5060  139.8770 N   0  0  0  0  0  0  0  0  0  0  0  0
  185.4910  178.6130  142.0290 C   0  0  0  0  0  0  0  0  0  0  0  0
  187.7140  177.7100  141.7510 C   0  0  0  0  0  3  0  0  0  0  0  0
  184.5900  178.6850  145.6230 C   0  0  0  0  0  3  0  0  0  0  0  0
  186.5320  178.2450  141.2320 C   0  0  0  0  0  0  0  0  0  0  0  0
  186.8190  177.7600  145.3640 C   0  0  0  0  0  3  0  0  0  0  0  0
  186.7280  177.9210  143.9790 C   0  0  0  0  0  0  0  0  0  0  0  0
  187.8020  177.5470  143.1450 C   0  0  0  0  0  3  0  0  0  0  0  0
  184.4620  179.1260  141.2560 O   0  0  0  0  0  0  0  0  0  0  0  0
  184.8580  179.0920  139.8740 C   0  0  2  0  0  3  0  0  0  0  0  0
  185.5460  178.4690  143.4130 C   0  0  0  0  0  0  0  0  0  0  0  0
  185.7510  178.1420  146.1830 C   0  0  0  0  0  3  0  0  0  0  0  0
  184.4840  178.8490  144.2390 C   0  0  0  0  0  3  0  0  0  0  0  0
  181.9740  177.9990  137.6270 C   0  0  0  0  0  0  0  0  0  0  0  0
  180.9060  178.5290  136.9820 F   0  0  0  0  0  0  0  0  0  0  0  0
  183.9170  178.2390  139.0710 C   0  0  0  0  0  0  0  0  0  0  0  0
  182.2360  176.6320  137.5070 C   0  0  0  0  0  3  0  0  0  0  0  0
  184.1720  176.8660  138.9350 C   0  0  0  0  0  3  0  0  0  0  0  0
  182.8140  178.8100  138.4060 C   0  0  0  0  0  0  0  0  0  0  0  0
  182.5260  180.2730  138.5140 C   0  0  0  0  0  1  0  0  0  0  0  0
  183.3370  176.0570  138.1600 C   0  0  0  0  0  0  0  0  0  0  0  0
  184.8080  174.2050  137.4320 C   0  0  0  0  0  1  0  0  0  0  0  0
  183.6260  174.6950  138.0530 O   0  0  0  0  0  0  0  0  0  0  0  0
  186.3700  178.9150  137.4700 C   0  0  0  0  0  2  0  0  0  0  0  0
  187.0840  178.4310  138.7160 C   0  0  2  0  0  3  0  0  0  0  0  0
  187.5180  177.0590  138.4930 N   0  0  0  0  0  0  0  0  0  0  0  0
  187.6680  176.9380  137.0510 C   0  0  0  0  0  2  0  0  0  0  0  0
  186.6820  177.8880  136.4100 C   0  0  0  0  0  2  0  0  0  0  0  0
  188.8450  176.9320  139.0710 C   0  0  0  0  0  2  0  0  0  0  0  0
  189.8890  177.2130  138.0130 C   0  0  0  0  0  2  0  0  0  0  0  0
  191.1430  176.4230  138.3210 C   0  0  0  0  0  2  0  0  0  0  0  0
  190.8410  175.0610  138.3360 O   0  0  0  0  0  1  0  0  0  0  0  0
  1  5  1  0  0  0  0
  2 11  1  0  0  0  0
  3  8  2  0  0  0  0
  4 12  1  0  0  0  0
  5  3  1  0  0  0  0
  5  2  2  0  0  0  0
  6 12  2  0  0  0  0
  7  6  1  0  0  0  0
  8  7  1  0  0  0  0
  9  2  1  0  0  0  0
 10 16  1  6  0  0  0
 10  1  1  0  0  0  0
 10  9  1  0  0  0  0
 11  7  2  0  0  0  0
 11 13  1  0  0  0  0
 13  4  2  0  0  0  0
 14 19  1  0  0  0  0
 15 14  1  0  0  0  0
 17 14  2  0  0  0  0
 17 21  1  0  0  0  0
 18 16  1  0  0  0  0
 19 20  1  0  0  0  0
 19 16  2  0  0  0  0
 21 18  2  0  0  0  0
 22 23  1  0  0  0  0
 23 21  1  0  0  0  0
 25 24  1  6  0  0  0
 25  1  1  0  0  0  0
 26 25  1  0  0  0  0
 26 29  1  0  0  0  0
 27 26  1  0  0  0  0
 28 27  1  0  0  0  0
 28 24  1  0  0  0  0
 30 31  1  0  0  0  0
 30 29  1  0  0  0  0
 31 32  1  0  0  0  0
M  END
>  <MODEL>
6

>  <REMARK>
 VINA RESULT:      -6.2      2.842      4.008
  Name = 
  6 active torsions:
  status: ('A' for Active; 'I' for Inactive)
    1  A    between atoms: N_1  and  C_5
    2  A    between atoms: C_13  and  C_18
    3  A    between atoms: N_14  and  C_29
    4  A    between atoms: O_15  and  C_26
    5  A    between atoms: C_16  and  C_27
    6  A    between atoms: C_18  and  C_29
                            x       y       z     vdW  Elec       q    Type
                         _______ _______ _______ _____ _____    ______ ____

>  <TORSDO>
F 6

$$$$
=
 OpenBabel10272413113D

 32 36  0  0  1  0  0  0  0  0999 V2000
  185.6600  178.1240  138.5390 N   0  0  0  0  0  0  0  0  0  0  0  0
  184.3630  178.4470  140.3720 C   0  0  0  0  0  0  0  0  0  0  0  0
  186.7370  178.4100  140.8160 C   0  0  0  0  0  3  0  0  0  0  0  0
  182.4900  178.9980  143.5230 C   0  0  0  0  0  3  0  0  0  0  0  0
  185.6500  178.3260  139.9430 C   0  0  0  0  0  0  0  0  0  0  0  0
  184.8710  178.9480  143.9920 C   0  0  0  0  0  3  0  0  0  0  0  0
  185.1370  178.7400  142.6360 C   0  0  0  0  0  0  0  0  0  0  0  0
  186.4660  178.6180  142.1810 C   0  0  0  0  0  3  0  0  0  0  0  0
  183.4940  178.3430  139.2980 O   0  0  0  0  0  0  0  0  0  0  0  0
  184.2610  178.1430  138.0990 C   0  0  2  0  0  3  0  0  0  0  0  0
  184.0590  178.6570  141.7160 C   0  0  0  0  0  0  0  0  0  0  0  0
  183.5500  179.0760  144.4330 C   0  0  0  0  0  3  0  0  0  0  0  0
  182.7420  178.7870  142.1640 C   0  0  0  0  0  3  0  0  0  0  0  0
  182.7090  175.5730  135.7450 C   0  0  0  0  0  0  0  0  0  0  0  0
  181.8400  175.5120  134.7050 F   0  0  0  0  0  0  0  0  0  0  0  0
  183.9000  176.8390  137.4460 C   0  0  0  0  0  0  0  0  0  0  0  0
  183.3210  174.3990  136.1930 C   0  0  0  0  0  3  0  0  0  0  0  0
  184.5130  175.6540  137.8800 C   0  0  0  0  0  3  0  0  0  0  0  0
  182.9970  176.7980  136.3640 C   0  0  0  0  0  0  0  0  0  0  0  0
  182.3420  178.0450  135.8640 C   0  0  0  0  0  1  0  0  0  0  0  0
  184.2270  174.4340  137.2640 C   0  0  0  0  0  0  0  0  0  0  0  0
  186.1780  172.9140  137.3460 C   0  0  0  0  0  1  0  0  0  0  0  0
  184.8580  173.2770  137.7300 O   0  0  0  0  0  0  0  0  0  0  0  0
  186.4600  178.7340  136.3080 C   0  0  0  0  0  2  0  0  0  0  0  0
  186.8170  178.1230  137.6470 C   0  0  2  0  0  3  0  0  0  0  0  0
  187.2840  176.7620  137.4220 N   0  0  0  0  0  0  0  0  0  0  0  0
  187.8080  176.7610  136.0660 C   0  0  0  0  0  2  0  0  0  0  0  0
  187.0330  177.7920  135.2770 C   0  0  0  0  0  2  0  0  0  0  0  0
  188.4100  176.5450  138.3140 C   0  0  0  0  0  2  0  0  0  0  0  0
  189.4070  177.6720  138.1570 C   0  0  0  0  0  2  0  0  0  0  0  0
  190.6800  177.3260  138.8990 C   0  0  0  0  0  2  0  0  0  0  0  0
  190.4800  176.1630  139.6440 O   0  0  0  0  0  1  0  0  0  0  0  0
  1  5  1  0  0  0  0
  2 11  1  0  0  0  0
  3  8  2  0  0  0  0
  4 12  1  0  0  0  0
  5  2  2  0  0  0  0
  5  3  1  0  0  0  0
  6 12  2  0  0  0  0
  7  6  1  0  0  0  0
  8  7  1  0  0  0  0
  9  2  1  0  0  0  0
 10 16  1  1  0  0  0
 10  1  1  0  0  0  0
 10  9  1  0  0  0  0
 11 13  1  0  0  0  0
 11  7  2  0  0  0  0
 13  4  2  0  0  0  0
 14 17  2  0  0  0  0
 14 19  1  0  0  0  0
 15 14  1  0  0  0  0
 16 18  1  0  0  0  0
 17 21  1  0  0  0  0
 19 16  2  0  0  0  0
 20 19  1  0  0  0  0
 21 23  1  0  0  0  0
 21 18  2  0  0  0  0
 22 23  1  0  0  0  0
 25 24  1  6  0  0  0
 25  1  1  0  0  0  0
 26 25  1  0  0  0  0
 26 29  1  0  0  0  0
 27 26  1  0  0  0  0
 28 27  1  0  0  0  0
 28 24  1  0  0  0  0
 30 29  1  0  0  0  0
 30 31  1  0  0  0  0
 31 32  1  0  0  0  0
M  END
>  <MODEL>
7

>  <REMARK>
 VINA RESULT:      -6.2      2.714      4.257
  Name = 
  6 active torsions:
  status: ('A' for Active; 'I' for Inactive)
    1  A    between atoms: N_1  and  C_5
    2  A    between atoms: C_13  and  C_18
    3  A    between atoms: N_14  and  C_29
    4  A    between atoms: O_15  and  C_26
    5  A    between atoms: C_16  and  C_27
    6  A    between atoms: C_18  and  C_29
                            x       y       z     vdW  Elec       q    Type
                         _______ _______ _______ _____ _____    ______ ____

>  <TORSDO>
F 6

$$$$
=
 OpenBabel10272413113D

 32 36  0  0  1  0  0  0  0  0999 V2000
  188.6370  177.4640  141.6830 N   0  0  0  0  0  0  0  0  0  0  0  0
  186.7250  178.3990  142.4680 C   0  0  0  0  0  0  0  0  0  0  0  0
  187.7710  176.8360  143.9810 C   0  0  0  0  0  3  0  0  0  0  0  0
  183.6430  179.7800  143.9970 C   0  0  0  0  0  3  0  0  0  0  0  0
  187.7230  177.5230  142.7660 C   0  0  0  0  0  0  0  0  0  0  0  0
  184.6710  178.1990  145.5260 C   0  0  0  0  0  3  0  0  0  0  0  0
  185.6960  177.9690  144.6050 C   0  0  0  0  0  0  0  0  0  0  0  0
  186.7370  177.0670  144.9060 C   0  0  0  0  0  3  0  0  0  0  0  0
  186.9370  178.9480  141.2130 O   0  0  0  0  0  0  0  0  0  0  0  0
  188.1450  178.3970  140.6640 C   0  0  2  0  0  3  0  0  0  0  0  0
  185.6870  178.6550  143.3620 C   0  0  0  0  0  0  0  0  0  0  0  0
  183.6470  179.1020  145.2210 C   0  0  0  0  0  3  0  0  0  0  0  0
  184.6610  179.5580  143.0640 C   0  0  0  0  0  3  0  0  0  0  0  0
  186.4340  177.2130  137.4650 C   0  0  0  0  0  0  0  0  0  0  0  0
  185.2770  177.3940  136.7810 F   0  0  0  0  0  0  0  0  0  0  0  0
  187.8630  177.6680  139.3800 C   0  0  0  0  0  0  0  0  0  0  0  0
  187.4110  176.3620  136.9410 C   0  0  0  0  0  3  0  0  0  0  0  0
  188.8380  176.8170  138.8380 C   0  0  0  0  0  3  0  0  0  0  0  0
  186.6550  177.8730  138.6830 C   0  0  0  0  0  0  0  0  0  0  0  0
  185.6040  178.7890  139.2230 C   0  0  0  0  0  1  0  0  0  0  0  0
  188.6190  176.1600  137.6260 C   0  0  0  0  0  0  0  0  0  0  0  0
  190.3650  175.6270  135.9540 C   0  0  0  0  0  1  0  0  0  0  0  0
  189.6160  175.3190  137.1230 O   0  0  0  0  0  0  0  0  0  0  0  0
  190.0510  175.7930  142.7780 C   0  0  0  0  0  2  0  0  0  0  0  0
  189.9350  176.7950  141.6480 C   0  0  2  0  0  3  0  0  0  0  0  0
  191.0110  177.7660  141.7820 N   0  0  0  0  0  0  0  0  0  0  0  0
  192.0680  177.0650  142.4920 C   0  0  0  0  0  2  0  0  0  0  0  0
  191.4120  176.0350  143.3840 C   0  0  0  0  0  2  0  0  0  0  0  0
  191.5070  178.0410  140.4440 C   0  0  0  0  0  2  0  0  0  0  0  0
  192.7440  177.2100  140.1800 C   0  0  0  0  0  2  0  0  0  0  0  0
  192.6210  176.5380  138.8300 C   0  0  0  0  0  2  0  0  0  0  0  0
  193.8480  176.5980  138.1690 O   0  0  0  0  0  1  0  0  0  0  0  0
  1  5  1  0  0  0  0
  2  5  2  0  0  0  0
  2 11  1  0  0  0  0
  3  8  2  0  0  0  0
  4 12  1  0  0  0  0
  5  3  1  0  0  0  0
  7  8  1  0  0  0  0
  7  6  1  0  0  0  0
  9  2  1  0  0  0  0
 10 16  1  6  0  0  0
 10  9  1  0  0  0  0
 10  1  1  0  0  0  0
 11  7  2  0  0  0  0
 12  6  2  0  0  0  0
 13 11  1  0  0  0  0
 13  4  2  0  0  0  0
 14 19  1  0  0  0  0
 15 14  1  0  0  0  0
 17 14  2  0  0  0  0
 17 21  1  0  0  0  0
 18 16  1  0  0  0  0
 19 20  1  0  0  0  0
 19 16  2  0  0  0  0
 21 18  2  0  0  0  0
 22 23  1  0  0  0  0
 23 21  1  0  0  0  0
 24 28  1  0  0  0  0
 25  1  1  1  0  0  0
 25 26  1  0  0  0  0
 25 24  1  0  0  0  0
 26 27  1  0  0  0  0
 27 28  1  0  0  0  0
 29 26  1  0  0  0  0
 30 29  1  0  0  0  0
 31 30  1  0  0  0  0
 32 31  1  0  0  0  0
M  END
>  <MODEL>
8

>  <REMARK>
 VINA RESULT:      -6.2      1.788      2.767
  Name = 
  6 active torsions:
  status: ('A' for Active; 'I' for Inactive)
    1  A    between atoms: N_1  and  C_5
    2  A    between atoms: C_13  and  C_18
    3  A    between atoms: N_14  and  C_29
    4  A    between atoms: O_15  and  C_26
    5  A    between atoms: C_16  and  C_27
    6  A    between atoms: C_18  and  C_29
                            x       y       z     vdW  Elec       q    Type
                         _______ _______ _______ _____ _____    ______ ____

>  <TORSDO>
F 6

$$$$
=
 OpenBabel10272413113D

 32 36  0  0  1  0  0  0  0  0999 V2000
  186.3900  178.3140  140.1900 N   0  0  0  0  0  0  0  0  0  0  0  0
  185.7580  178.6320  142.3460 C   0  0  0  0  0  0  0  0  0  0  0  0
  187.7500  177.2960  142.0710 C   0  0  0  0  0  3  0  0  0  0  0  0
  184.9630  179.0030  145.9470 C   0  0  0  0  0  3  0  0  0  0  0  0
  186.6880  178.0380  141.5490 C   0  0  0  0  0  0  0  0  0  0  0  0
  186.9580  177.6440  145.6920 C   0  0  0  0  0  3  0  0  0  0  0  0
  186.8720  177.7740  144.3030 C   0  0  0  0  0  0  0  0  0  0  0  0
  187.8330  177.1650  143.4690 C   0  0  0  0  0  3  0  0  0  0  0  0
  184.8360  179.3150  141.5680 O   0  0  0  0  0  0  0  0  0  0  0  0
  185.1890  179.1560  140.1840 C   0  0  2  0  0  3  0  0  0  0  0  0
  185.8120  178.5270  143.7340 C   0  0  0  0  0  0  0  0  0  0  0  0
  186.0040  178.2580  146.5110 C   0  0  0  0  0  3  0  0  0  0  0  0
  184.8630  179.1390  144.5590 C   0  0  0  0  0  3  0  0  0  0  0  0
  182.0890  178.5870  138.0320 C   0  0  0  0  0  0  0  0  0  0  0  0
  181.1240  179.2970  137.3970 F   0  0  0  0  0  0  0  0  0  0  0  0
  184.0800  178.4820  139.4250 C   0  0  0  0  0  0  0  0  0  0  0  0
  182.0820  177.1920  137.9430 C   0  0  0  0  0  3  0  0  0  0  0  0
  184.0650  177.0830  139.3200 C   0  0  0  0  0  3  0  0  0  0  0  0
  183.0890  179.2390  138.7700 C   0  0  0  0  0  0  0  0  0  0  0  0
  183.0890  180.7320  138.8450 C   0  0  0  0  0  1  0  0  0  0  0  0
  183.0700  176.4320  138.5860 C   0  0  0  0  0  0  0  0  0  0  0  0
  182.6880  174.3250  137.3460 C   0  0  0  0  0  1  0  0  0  0  0  0
  183.0910  175.0370  138.5090 O   0  0  0  0  0  0  0  0  0  0  0  0
  188.6700  178.3420  139.3010 C   0  0  0  0  0  2  0  0  0  0  0  0
  187.2150  178.0260  139.0200 C   0  0  2  0  0  3  0  0  0  0  0  0
  186.7820  178.8260  137.8830 N   0  0  0  0  0  0  0  0  0  0  0  0
  187.9930  179.0870  137.1200 C   0  0  0  0  0  2  0  0  0  0  0  0
  189.1480  179.1140  138.0960 C   0  0  0  0  0  2  0  0  0  0  0  0
  185.9370  177.9770  137.0620 C   0  0  0  0  0  2  0  0  0  0  0  0
  186.7850  176.9280  136.3750 C   0  0  0  0  0  2  0  0  0  0  0  0
  186.0300  175.6170  136.3360 C   0  0  0  0  0  2  0  0  0  0  0  0
  186.5020  174.7790  137.3460 O   0  0  0  0  0  1  0  0  0  0  0  0
  1  5  1  0  0  0  0
  2 11  1  0  0  0  0
  3  8  2  0  0  0  0
  4 12  1  0  0  0  0
  5  3  1  0  0  0  0
  5  2  2  0  0  0  0
  6 12  2  0  0  0  0
  7  6  1  0  0  0  0
  8  7  1  0  0  0  0
  9  2  1  0  0  0  0
 10 16  1  6  0  0  0
 10  1  1  0  0  0  0
 10  9  1  0  0  0  0
 11  7  2  0  0  0  0
 11 13  1  0  0  0  0
 13  4  2  0  0  0  0
 14 19  1  0  0  0  0
 15 14  1  0  0  0  0
 17 14  2  0  0  0  0
 17 21  1  0  0  0  0
 18 16  1  0  0  0  0
 19 20  1  0  0  0  0
 19 16  2  0  0  0  0
 21 18  2  0  0  0  0
 22 23  1  0  0  0  0
 23 21  1  0  0  0  0
 25 24  1  1  0  0  0
 25  1  1  0  0  0  0
 26 25  1  0  0  0  0
 27 26  1  0  0  0  0
 27 28  1  0  0  0  0
 28 24  1  0  0  0  0
 29 26  1  0  0  0  0
 30 29  1  0  0  0  0
 31 30  1  0  0  0  0
 31 32  1  0  0  0  0
M  END
>  <MODEL>
9

>  <REMARK>
 VINA RESULT:      -6.1      2.899      4.071
  Name = 
  6 active torsions:
  status: ('A' for Active; 'I' for Inactive)
    1  A    between atoms: N_1  and  C_5
    2  A    between atoms: C_13  and  C_18
    3  A    between atoms: N_14  and  C_29
    4  A    between atoms: O_15  and  C_26
    5  A    between atoms: C_16  and  C_27
    6  A    between atoms: C_18  and  C_29
                            x       y       z     vdW  Elec       q    Type
                         _______ _______ _______ _____ _____    ______ ____

>  <TORSDO>
F 6

$$$$
