=
 OpenBabel10272401513D

 28 31  0  0  1  0  0  0  0  0999 V2000
  189.6630  178.1560  143.1540 C   0  0  2  0  0  3  0  0  0  0  0  0
  191.1480  176.0880  146.6140 C   0  0  0  0  0  1  0  0  0  0  0  0
  186.7320  178.1270  144.2140 C   0  0  2  0  0  3  0  0  0  0  0  0
  189.2080  177.1740  145.4760 C   0  0  2  0  0  3  0  0  0  0  0  0
  187.4930  176.9350  143.6300 C   0  0  0  0  0  2  0  0  0  0  0  0
  191.6170  177.5450  144.6540 C   0  0  0  0  0  2  0  0  0  0  0  0
  188.4190  178.3530  146.0480 C   0  0  0  0  0  2  0  0  0  0  0  0
  190.6920  177.3150  145.8520 C   0  0  2  0  0  3  0  0  0  0  0  0
  186.9340  178.2130  145.7270 C   0  0  0  0  0  2  0  0  0  0  0  0
  191.0280  178.5930  143.7160 C   0  0  0  0  0  2  0  0  0  0  0  0
  188.9840  177.0290  143.9560 C   0  0  1  0  0  3  0  0  0  0  0  0
  184.9410  177.7390  142.5900 C   0  0  0  0  0  3  0  0  0  0  0  0
  183.1420  179.1000  144.6630 C   0  0  0  0  0  3  0  0  0  0  0  0
  182.8250  178.9230  142.1960 C   0  0  0  0  0  0  0  0  0  0  0  0
  185.2780  178.0820  143.8400 C   0  0  0  0  0  0  0  0  0  0  0  0
  184.6020  178.1230  146.3130 C   0  0  0  0  0  1  0  0  0  0  0  0
  182.6110  179.5390  143.3580 C   0  0  0  0  0  3  0  0  0  0  0  0
  184.2770  178.4200  144.8890 C   0  0  0  0  0  0  0  0  0  0  0  0
  182.2370  179.4960  140.9570 C   0  0  0  0  0  1  0  0  0  0  0  0
  183.5330  177.6130  142.1170 C   0  0  0  0  0  2  0  0  0  0  0  0
  189.7570  177.8150  141.7320 N   0  0  0  0  0  0  0  0  0  0  0  0
  190.7280  176.9510  141.3100 C   0  0  0  0  0  3  0  0  0  0  0  0
  188.9370  178.0130  139.4850 C   0  0  0  0  0  0  0  0  0  0  0  0
  190.8300  176.5980  139.9640 C   0  0  0  0  0  3  0  0  0  0  0  0
  187.9630  179.1400  141.2360 O   0  0  0  0  0  0  0  0  0  0  0  0
  188.8620  178.3480  140.8420 C   0  0  0  0  0  0  0  0  0  0  0  0
  188.0580  178.5330  138.5930 F   0  0  0  0  0  0  0  0  0  0  0  0
  189.9270  177.1350  139.0490 C   0  0  0  0  0  3  0  0  0  0  0  0
  1 21  1  6  0  0  0
  1 10  1  0  0  0  0
  1 11  1  0  0  0  0
  3 15  1  1  0  0  0
  3  9  1  0  0  0  0
  4  8  1  0  0  0  0
  4  7  1  6  0  0  0
  5  3  1  0  0  0  0
  6  8  1  0  0  0  0
  8  2  1  6  0  0  0
  9  7  1  0  0  0  0
 10  6  1  0  0  0  0
 11  5  1  1  0  0  0
 11  4  1  0  0  0  0
 12 15  2  0  0  0  0
 13 18  2  0  0  0  0
 14 17  2  0  0  0  0
 15 18  1  0  0  0  0
 17 13  1  0  0  0  0
 18 16  1  0  0  0  0
 19 14  1  0  0  0  0
 20 14  1  0  0  0  0
 20 12  1  0  0  0  0
 22 21  1  0  0  0  0
 23 26  1  0  0  0  0
 24 22  2  0  0  0  0
 26 25  2  0  0  0  0
 26 21  1  0  0  0  0
 27 23  1  0  0  0  0
 28 23  2  0  0  0  0
 28 24  1  0  0  0  0
M  END
>  <MODEL>
1

>  <REMARK>
 VINA RESULT:      -9.1      0.000      0.000
  Name = 
  2 active torsions:
  status: ('A' for Active; 'I' for Inactive)
    1  A    between atoms: C_1  and  N_2
    2  A    between atoms: C_10  and  C_13
                            x       y       z     vdW  Elec       q    Type
                         _______ _______ _______ _____ _____    ______ ____

>  <TORSDO>
F 2

$$$$
=
 OpenBabel10272401513D

 28 31  0  0  1  0  0  0  0  0999 V2000
  188.3580  178.1650  144.4370 C   0  0  2  0  0  3  0  0  0  0  0  0
  187.7570  176.4700  148.3380 C   0  0  0  0  0  1  0  0  0  0  0  0
  185.3200  178.7580  144.0680 C   0  0  2  0  0  3  0  0  0  0  0  0
  186.7620  177.6470  146.3740 C   0  0  2  0  0  3  0  0  0  0  0  0
  185.9890  177.3850  143.9770 C   0  0  0  0  0  2  0  0  0  0  0  0
  189.3100  177.5070  146.6950 C   0  0  0  0  0  2  0  0  0  0  0  0
  186.0700  179.0100  146.4400 C   0  0  0  0  0  2  0  0  0  0  0  0
  187.9370  177.6160  147.3640 C   0  0  2  0  0  3  0  0  0  0  0  0
  184.8710  179.0510  145.4990 C   0  0  0  0  0  2  0  0  0  0  0  0
  189.4100  178.4700  145.5170 C   0  0  0  0  0  2  0  0  0  0  0  0
  187.1830  177.2980  144.9310 C   0  0  1  0  0  3  0  0  0  0  0  0
  182.9630  179.1650  143.5420 C   0  0  0  0  0  3  0  0  0  0  0  0
  183.6770  178.0670  140.7730 C   0  0  0  0  0  3  0  0  0  0  0  0
  181.4590  178.1080  141.9120 C   0  0  0  0  0  0  0  0  0  0  0  0
  184.1900  178.8790  143.0850 C   0  0  0  0  0  0  0  0  0  0  0  0
  185.8500  179.0430  141.1390 C   0  0  0  0  0  1  0  0  0  0  0  0
  182.3060  177.5830  141.0270 C   0  0  0  0  0  3  0  0  0  0  0  0
  184.4950  178.6790  141.6420 C   0  0  0  0  0  0  0  0  0  0  0  0
  180.1120  177.4990  142.0700 C   0  0  0  0  0  1  0  0  0  0  0  0
  181.7760  179.3580  142.6610 C   0  0  0  0  0  2  0  0  0  0  0  0
  188.9750  177.5910  143.2380 N   0  0  0  0  0  0  0  0  0  0  0  0
  189.5800  176.3690  143.3120 C   0  0  0  0  0  3  0  0  0  0  0  0
  189.5000  177.7250  140.9010 C   0  0  0  0  0  0  0  0  0  0  0  0
  190.1620  175.7930  142.1830 C   0  0  0  0  0  3  0  0  0  0  0  0
  188.3600  179.4010  141.9850 O   0  0  0  0  0  0  0  0  0  0  0  0
  188.9250  178.2750  142.0520 C   0  0  0  0  0  0  0  0  0  0  0  0
  189.4580  178.3900  139.7190 F   0  0  0  0  0  0  0  0  0  0  0  0
  190.1200  176.4790  140.9710 C   0  0  0  0  0  3  0  0  0  0  0  0
  1 21  1  6  0  0  0
  1 11  1  0  0  0  0
  1 10  1  0  0  0  0
  3 15  1  6  0  0  0
  3  9  1  0  0  0  0
  4  7  1  6  0  0  0
  4  8  1  0  0  0  0
  5  3  1  0  0  0  0
  6  8  1  0  0  0  0
  8  2  1  1  0  0  0
  9  7  1  0  0  0  0
 10  6  1  0  0  0  0
 11  5  1  6  0  0  0
 11  4  1  0  0  0  0
 13 17  1  0  0  0  0
 13 18  2  0  0  0  0
 14 19  1  0  0  0  0
 14 20  1  0  0  0  0
 15 12  2  0  0  0  0
 16 18  1  0  0  0  0
 17 14  2  0  0  0  0
 18 15  1  0  0  0  0
 20 12  1  0  0  0  0
 21 22  1  0  0  0  0
 23 28  2  0  0  0  0
 23 26  1  0  0  0  0
 24 22  2  0  0  0  0
 25 26  2  0  0  0  0
 26 21  1  0  0  0  0
 27 23  1  0  0  0  0
 28 24  1  0  0  0  0
M  END
>  <MODEL>
2

>  <REMARK>
 VINA RESULT:      -9.0      1.509      2.612
  Name = 
  2 active torsions:
  status: ('A' for Active; 'I' for Inactive)
    1  A    between atoms: C_1  and  N_2
    2  A    between atoms: C_10  and  C_13
                            x       y       z     vdW  Elec       q    Type
                         _______ _______ _______ _____ _____    ______ ____

>  <TORSDO>
F 2

$$$$
=
 OpenBabel10272401513D

 28 31  0  0  1  0  0  0  0  0999 V2000
  189.8900  176.9510  137.4060 C   0  0  2  0  0  3  0  0  0  0  0  0
  192.9150  174.0590  136.4380 C   0  0  0  0  0  1  0  0  0  0  0  0
  191.0350  177.4050  140.2700 C   0  0  2  0  0  3  0  0  0  0  0  0
  192.0380  175.7250  138.0780 C   0  0  2  0  0  3  0  0  0  0  0  0
  190.2390  176.1870  139.7990 C   0  0  0  0  0  2  0  0  0  0  0  0
  191.2010  175.6780  135.6460 C   0  0  0  0  0  2  0  0  0  0  0  0
  192.8200  176.9410  138.5800 C   0  0  0  0  0  2  0  0  0  0  0  0
  192.3780  175.4660  136.6010 C   0  0  2  0  0  3  0  0  0  0  0  0
  192.5330  177.1920  140.0570 C   0  0  0  0  0  2  0  0  0  0  0  0
  190.4660  176.9720  135.9800 C   0  0  0  0  0  2  0  0  0  0  0  0
  190.5230  175.8880  138.3250 C   0  0  1  0  0  3  0  0  0  0  0  0
  191.7160  177.9100  142.5680 C   0  0  0  0  0  3  0  0  0  0  0  0
  188.7540  177.5110  143.2400 C   0  0  0  0  0  3  0  0  0  0  0  0
  190.7400  177.2630  144.7270 C   0  0  0  0  0  0  0  0  0  0  0  0
  190.7110  177.7510  141.6960 C   0  0  0  0  0  0  0  0  0  0  0  0
  188.3170  178.3870  141.0370 C   0  0  0  0  0  1  0  0  0  0  0  0
  189.4800  176.9710  144.4050 C   0  0  0  0  0  3  0  0  0  0  0  0
  189.2780  177.9030  142.0690 C   0  0  0  0  0  0  0  0  0  0  0  0
  191.3450  176.6250  145.9260 C   0  0  0  0  0  1  0  0  0  0  0  0
  191.5210  178.3000  143.9930 C   0  0  0  0  0  2  0  0  0  0  0  0
  188.4290  176.8380  137.3900 N   0  0  0  0  0  0  0  0  0  0  0  0
  187.8510  175.6190  137.1720 C   0  0  0  0  0  3  0  0  0  0  0  0
  186.2610  177.8420  137.6110 C   0  0  0  0  0  0  0  0  0  0  0  0
  186.4630  175.4800  137.1660 C   0  0  0  0  0  3  0  0  0  0  0  0
  188.1930  179.0700  137.8180 O   0  0  0  0  0  0  0  0  0  0  0  0
  187.6560  177.9470  137.6110 C   0  0  0  0  0  0  0  0  0  0  0  0
  185.4830  178.9310  137.8280 F   0  0  0  0  0  0  0  0  0  0  0  0
  185.6660  176.6010  137.3870 C   0  0  0  0  0  3  0  0  0  0  0  0
  1 10  1  6  0  0  0
  1 11  1  0  0  0  0
  3 15  1  1  0  0  0
  4 11  1  0  0  0  0
  4  7  1  6  0  0  0
  5  3  1  0  0  0  0
  6 10  1  0  0  0  0
  6  8  1  0  0  0  0
  7  9  1  0  0  0  0
  8  2  1  1  0  0  0
  8  4  1  0  0  0  0
  9  3  1  0  0  0  0
 11  5  1  1  0  0  0
 12 20  1  0  0  0  0
 13 17  1  0  0  0  0
 14 19  1  0  0  0  0
 15 18  1  0  0  0  0
 15 12  2  0  0  0  0
 16 18  1  0  0  0  0
 17 14  2  0  0  0  0
 18 13  2  0  0  0  0
 20 14  1  0  0  0  0
 21  1  1  0  0  0  0
 21 26  1  0  0  0  0
 22 21  1  0  0  0  0
 23 27  1  0  0  0  0
 24 22  2  0  0  0  0
 24 28  1  0  0  0  0
 26 23  1  0  0  0  0
 26 25  2  0  0  0  0
 28 23  2  0  0  0  0
M  END
>  <MODEL>
3

>  <REMARK>
 VINA RESULT:      -9.0      3.356      6.880
  Name = 
  2 active torsions:
  status: ('A' for Active; 'I' for Inactive)
    1  A    between atoms: C_1  and  N_2
    2  A    between atoms: C_10  and  C_13
                            x       y       z     vdW  Elec       q    Type
                         _______ _______ _______ _____ _____    ______ ____

>  <TORSDO>
F 2

$$$$
=
 OpenBabel10272401513D

 28 31  0  0  1  0  0  0  0  0999 V2000
  188.9550  178.3090  143.2860 C   0  0  2  0  0  3  0  0  0  0  0  0
  189.6800  176.4750  147.1030 C   0  0  0  0  0  1  0  0  0  0  0  0
  185.8650  178.2960  143.7050 C   0  0  2  0  0  3  0  0  0  0  0  0
  188.0220  177.4600  145.5170 C   0  0  2  0  0  3  0  0  0  0  0  0
  186.7360  177.0840  143.3690 C   0  0  0  0  0  2  0  0  0  0  0  0
  190.5480  177.8200  145.2000 C   0  0  0  0  0  2  0  0  0  0  0  0
  187.1250  178.6590  145.8350 C   0  0  0  0  0  2  0  0  0  0  0  0
  189.3920  177.6480  146.1880 C   0  0  2  0  0  3  0  0  0  0  0  0
  185.7430  178.4750  145.2170 C   0  0  0  0  0  2  0  0  0  0  0  0
  190.1680  178.8000  144.0950 C   0  0  0  0  0  2  0  0  0  0  0  0
  188.1250  177.2210  143.9960 C   0  0  1  0  0  3  0  0  0  0  0  0
  184.4530  177.7280  141.7860 C   0  0  0  0  0  3  0  0  0  0  0  0
  182.2820  179.2980  143.2710 C   0  0  0  0  0  3  0  0  0  0  0  0
  182.4920  178.8540  140.8260 C   0  0  0  0  0  0  0  0  0  0  0  0
  184.5230  178.2060  143.0360 C   0  0  0  0  0  0  0  0  0  0  0  0
  183.3380  178.5110  145.2890 C   0  0  0  0  0  1  0  0  0  0  0  0
  182.0490  179.5910  141.8430 C   0  0  0  0  0  3  0  0  0  0  0  0
  183.3290  178.6510  143.8050 C   0  0  0  0  0  0  0  0  0  0  0  0
  182.1920  179.2880  139.4360 C   0  0  0  0  0  1  0  0  0  0  0  0
  183.1760  177.5460  141.0390 C   0  0  0  0  0  2  0  0  0  0  0  0
  189.3480  177.8850  141.9400 N   0  0  0  0  0  0  0  0  0  0  0  0
  190.3610  176.9810  141.7880 C   0  0  0  0  0  3  0  0  0  0  0  0
  189.0470  177.9670  139.5610 C   0  0  0  0  0  0  0  0  0  0  0  0
  190.7460  176.5490  140.5190 C   0  0  0  0  0  3  0  0  0  0  0  0
  187.7460  179.2100  140.9920 O   0  0  0  0  0  0  0  0  0  0  0  0
  188.6850  178.3810  140.8480 C   0  0  0  0  0  0  0  0  0  0  0  0
  188.4010  178.4500  138.4710 F   0  0  0  0  0  0  0  0  0  0  0  0
  190.0830  177.0480  139.4000 C   0  0  0  0  0  3  0  0  0  0  0  0
  1 21  1  6  0  0  0
  1 11  1  0  0  0  0
  1 10  1  0  0  0  0
  3 15  1  1  0  0  0
  3  9  1  0  0  0  0
  4  7  1  6  0  0  0
  4  8  1  0  0  0  0
  5  3  1  0  0  0  0
  6  8  1  0  0  0  0
  8  2  1  6  0  0  0
  9  7  1  0  0  0  0
 10  6  1  0  0  0  0
 11  5  1  6  0  0  0
 11  4  1  0  0  0  0
 12 15  2  0  0  0  0
 13 18  2  0  0  0  0
 14 20  1  0  0  0  0
 14 17  2  0  0  0  0
 15 18  1  0  0  0  0
 17 13  1  0  0  0  0
 18 16  1  0  0  0  0
 19 14  1  0  0  0  0
 20 12  1  0  0  0  0
 22 21  1  0  0  0  0
 23 26  1  0  0  0  0
 24 22  2  0  0  0  0
 26 25  2  0  0  0  0
 26 21  1  0  0  0  0
 27 23  1  0  0  0  0
 28 23  2  0  0  0  0
 28 24  1  0  0  0  0
M  END
>  <MODEL>
4

>  <REMARK>
 VINA RESULT:      -8.9      0.856      1.107
  Name = 
  2 active torsions:
  status: ('A' for Active; 'I' for Inactive)
    1  A    between atoms: C_1  and  N_2
    2  A    between atoms: C_10  and  C_13
                            x       y       z     vdW  Elec       q    Type
                         _______ _______ _______ _____ _____    ______ ____

>  <TORSDO>
F 2

$$$$
=
 OpenBabel10272401513D

 28 31  0  0  1  0  0  0  0  0999 V2000
  188.5260  178.3090  139.8160 C   0  0  2  0  0  3  0  0  0  0  0  0
  191.6130  175.8040  138.1890 C   0  0  0  0  0  1  0  0  0  0  0  0
  189.2370  177.5280  142.7490 C   0  0  2  0  0  3  0  0  0  0  0  0
  190.5290  176.7630  140.2230 C   0  0  2  0  0  3  0  0  0  0  0  0
  188.5000  176.6520  141.7350 C   0  0  0  0  0  2  0  0  0  0  0  0
  190.0650  177.7270  137.8840 C   0  0  0  0  0  2  0  0  0  0  0  0
  191.2470  177.6250  141.2630 C   0  0  0  0  0  2  0  0  0  0  0  0
  191.0820  177.0730  138.8230 C   0  0  2  0  0  3  0  0  0  0  0  0
  190.7470  177.3030  142.6670 C   0  0  0  0  0  2  0  0  0  0  0  0
  189.3100  178.8400  138.6030 C   0  0  0  0  0  2  0  0  0  0  0  0
  188.9970  176.9290  140.3140 C   0  0  1  0  0  3  0  0  0  0  0  0
  187.3840  177.2540  144.3260 C   0  0  0  0  0  3  0  0  0  0  0  0
  189.5200  177.6700  146.4820 C   0  0  0  0  0  3  0  0  0  0  0  0
  187.0650  178.0880  146.6150 C   0  0  0  0  0  0  0  0  0  0  0  0
  188.7090  177.3150  144.1400 C   0  0  0  0  0  0  0  0  0  0  0  0
  191.0290  176.5830  144.9490 C   0  0  0  0  0  1  0  0  0  0  0  0
  188.3120  178.3290  147.0170 C   0  0  0  0  0  3  0  0  0  0  0  0
  189.6940  177.1770  145.2470 C   0  0  0  0  0  0  0  0  0  0  0  0
  185.9470  178.8460  147.2360 C   0  0  0  0  0  1  0  0  0  0  0  0
  186.7450  176.9980  145.6490 C   0  0  0  0  0  2  0  0  0  0  0  0
  187.0830  178.3200  139.5650 N   0  0  0  0  0  0  0  0  0  0  0  0
  186.6020  177.8340  138.3830 C   0  0  0  0  0  3  0  0  0  0  0  0
  184.8470  178.7980  140.2930 C   0  0  0  0  0  0  0  0  0  0  0  0
  185.2310  177.8190  138.1230 C   0  0  0  0  0  3  0  0  0  0  0  0
  186.6740  179.2420  141.6160 O   0  0  0  0  0  0  0  0  0  0  0  0
  186.2270  178.7990  140.5220 C   0  0  0  0  0  0  0  0  0  0  0  0
  183.9880  179.2690  141.2320 F   0  0  0  0  0  0  0  0  0  0  0  0
  184.3510  178.3060  139.0870 C   0  0  0  0  0  3  0  0  0  0  0  0
  1 10  1  6  0  0  0
  1 11  1  0  0  0  0
  3 15  1  1  0  0  0
  4 11  1  0  0  0  0
  4  7  1  1  0  0  0
  5  3  1  0  0  0  0
  6 10  1  0  0  0  0
  6  8  1  0  0  0  0
  7  9  1  0  0  0  0
  8  2  1  6  0  0  0
  8  4  1  0  0  0  0
  9  3  1  0  0  0  0
 11  5  1  1  0  0  0
 12 20  1  0  0  0  0
 13 17  1  0  0  0  0
 14 17  2  0  0  0  0
 14 19  1  0  0  0  0
 15 12  2  0  0  0  0
 15 18  1  0  0  0  0
 16 18  1  0  0  0  0
 18 13  2  0  0  0  0
 20 14  1  0  0  0  0
 21  1  1  0  0  0  0
 21 26  1  0  0  0  0
 22 21  1  0  0  0  0
 23 26  1  0  0  0  0
 23 27  1  0  0  0  0
 24 22  2  0  0  0  0
 24 28  1  0  0  0  0
 26 25  2  0  0  0  0
 28 23  2  0  0  0  0
M  END
>  <MODEL>
5

>  <REMARK>
 VINA RESULT:      -8.8      2.155      5.305
  Name = 
  2 active torsions:
  status: ('A' for Active; 'I' for Inactive)
    1  A    between atoms: C_1  and  N_2
    2  A    between atoms: C_10  and  C_13
                            x       y       z     vdW  Elec       q    Type
                         _______ _______ _______ _____ _____    ______ ____

>  <TORSDO>
F 2

$$$$
=
 OpenBabel10272401513D

 28 31  0  0  1  0  0  0  0  0999 V2000
  186.9520  176.4510  136.6040 C   0  0  2  0  0  3  0  0  0  0  0  0
  190.7150  176.5920  134.5360 C   0  0  0  0  0  1  0  0  0  0  0  0
  188.0700  178.0350  139.0460 C   0  0  2  0  0  3  0  0  0  0  0  0
  189.3640  177.3110  136.5090 C   0  0  2  0  0  3  0  0  0  0  0  0
  188.3580  176.5700  138.7110 C   0  0  0  0  0  2  0  0  0  0  0  0
  188.2490  176.2910  134.4280 C   0  0  0  0  0  2  0  0  0  0  0  0
  189.0780  178.7690  136.8770 C   0  0  0  0  0  2  0  0  0  0  0  0
  189.3830  177.1590  134.9790 C   0  0  2  0  0  3  0  0  0  0  0  0
  189.0990  178.9550  138.3910 C   0  0  0  0  0  2  0  0  0  0  0  0
  186.9220  176.6650  135.0810 C   0  0  0  0  0  2  0  0  0  0  0  0
  188.3720  176.3510  137.1970 C   0  0  1  0  0  3  0  0  0  0  0  0
  189.1180  178.2850  141.2450 C   0  0  0  0  0  3  0  0  0  0  0  0
  186.2780  177.9270  142.3330 C   0  0  0  0  0  3  0  0  0  0  0  0
  188.4520  177.4630  143.4620 C   0  0  0  0  0  0  0  0  0  0  0  0
  187.9850  178.2480  140.5300 C   0  0  0  0  0  0  0  0  0  0  0  0
  185.5530  179.0300  140.3170 C   0  0  0  0  0  1  0  0  0  0  0  0
  187.1450  177.2490  143.3160 C   0  0  0  0  0  3  0  0  0  0  0  0
  186.6360  178.4140  141.1360 C   0  0  0  0  0  0  0  0  0  0  0  0
  189.2000  176.6890  144.4870 C   0  0  0  0  0  1  0  0  0  0  0  0
  189.1630  178.5390  142.7130 C   0  0  0  0  0  2  0  0  0  0  0  0
  186.1290  175.3050  136.9990 N   0  0  0  0  0  0  0  0  0  0  0  0
  186.6860  174.0580  137.0410 C   0  0  0  0  0  3  0  0  0  0  0  0
  184.0290  174.4050  137.7310 C   0  0  0  0  0  0  0  0  0  0  0  0
  185.9290  172.9520  137.4270 C   0  0  0  0  0  3  0  0  0  0  0  0
  184.3050  176.6470  137.3050 O   0  0  0  0  0  0  0  0  0  0  0  0
  184.8150  175.4940  137.3400 C   0  0  0  0  0  0  0  0  0  0  0  0
  182.7270  174.5770  138.0710 F   0  0  0  0  0  0  0  0  0  0  0  0
  184.5910  173.1310  137.7730 C   0  0  0  0  0  3  0  0  0  0  0  0
  1 10  1  6  0  0  0
  1 21  1  0  0  0  0
  1 11  1  0  0  0  0
  3 15  1  1  0  0  0
  4  7  1  6  0  0  0
  4 11  1  0  0  0  0
  5  3  1  0  0  0  0
  6  8  1  0  0  0  0
  6 10  1  0  0  0  0
  7  9  1  0  0  0  0
  8  2  1  1  0  0  0
  8  4  1  0  0  0  0
  9  3  1  0  0  0  0
 11  5  1  1  0  0  0
 12 20  1  0  0  0  0
 13 17  1  0  0  0  0
 14 19  1  0  0  0  0
 15 18  1  0  0  0  0
 15 12  2  0  0  0  0
 16 18  1  0  0  0  0
 17 14  2  0  0  0  0
 18 13  2  0  0  0  0
 20 14  1  0  0  0  0
 21 22  1  0  0  0  0
 21 26  1  0  0  0  0
 22 24  2  0  0  0  0
 23 28  2  0  0  0  0
 23 27  1  0  0  0  0
 24 28  1  0  0  0  0
 25 26  2  0  0  0  0
 26 23  1  0  0  0  0
M  END
>  <MODEL>
6

>  <REMARK>
 VINA RESULT:      -8.3      3.899      7.226
  Name = 
  2 active torsions:
  status: ('A' for Active; 'I' for Inactive)
    1  A    between atoms: C_1  and  N_2
    2  A    between atoms: C_10  and  C_13
                            x       y       z     vdW  Elec       q    Type
                         _______ _______ _______ _____ _____    ______ ____

>  <TORSDO>
F 2

$$$$
=
 OpenBabel10272401513D

 28 31  0  0  1  0  0  0  0  0999 V2000
  188.1610  177.0440  145.5140 C   0  0  2  0  0  3  0  0  0  0  0  0
  191.6390  177.6440  147.9630 C   0  0  0  0  0  1  0  0  0  0  0  0
  189.8340  177.0450  142.8840 C   0  0  2  0  0  3  0  0  0  0  0  0
  190.7110  177.2310  145.6820 C   0  0  2  0  0  3  0  0  0  0  0  0
  189.4800  178.2700  143.7290 C   0  0  0  0  0  2  0  0  0  0  0  0
  189.2760  176.8890  147.7890 C   0  0  0  0  0  2  0  0  0  0  0  0
  191.0640  176.0250  144.8090 C   0  0  0  0  0  2  0  0  0  0  0  0
  190.6680  176.8040  147.1580 C   0  0  2  0  0  3  0  0  0  0  0  0
  191.1570  176.4330  143.3420 C   0  0  0  0  0  2  0  0  0  0  0  0
  188.2280  176.2920  146.8550 C   0  0  0  0  0  2  0  0  0  0  0  0
  189.4040  177.9040  145.2130 C   0  0  1  0  0  3  0  0  0  0  0  0
  188.6910  177.7180  140.8250 C   0  0  0  0  0  3  0  0  0  0  0  0
  191.2880  176.8800  139.4350 C   0  0  0  0  0  3  0  0  0  0  0  0
  188.9810  176.9900  138.4970 C   0  0  0  0  0  0  0  0  0  0  0  0
  189.8430  177.3770  141.4190 C   0  0  0  0  0  0  0  0  0  0  0  0
  192.3950  177.6100  141.4480 C   0  0  0  0  0  1  0  0  0  0  0  0
  190.2180  176.4950  138.4950 C   0  0  0  0  0  3  0  0  0  0  0  0
  191.1420  177.3150  140.6960 C   0  0  0  0  0  0  0  0  0  0  0  0
  188.0020  176.4910  137.4960 C   0  0  0  0  0  1  0  0  0  0  0  0
  188.5830  178.1150  139.3930 C   0  0  0  0  0  2  0  0  0  0  0  0
  186.9300  177.8320  145.4060 N   0  0  0  0  0  0  0  0  0  0  0  0
  186.5650  178.6540  146.4330 C   0  0  0  0  0  3  0  0  0  0  0  0
  184.9990  178.5130  144.1550 C   0  0  0  0  0  0  0  0  0  0  0  0
  185.4050  179.4260  146.3490 C   0  0  0  0  0  3  0  0  0  0  0  0
  186.5110  176.9960  143.3200 O   0  0  0  0  0  0  0  0  0  0  0  0
  186.1680  177.7520  144.2700 C   0  0  0  0  0  0  0  0  0  0  0  0
  184.2350  178.4440  143.0370 F   0  0  0  0  0  0  0  0  0  0  0  0
  184.6200  179.3520  145.2010 C   0  0  0  0  0  3  0  0  0  0  0  0
  1 21  1  1  0  0  0
  1 10  1  0  0  0  0
  3 15  1  6  0  0  0
  3  9  1  0  0  0  0
  3  5  1  0  0  0  0
  4  7  1  6  0  0  0
  4  8  1  0  0  0  0
  8  6  1  0  0  0  0
  8  2  1  1  0  0  0
  9  7  1  0  0  0  0
 10  6  1  0  0  0  0
 11  5  1  6  0  0  0
 11  1  1  0  0  0  0
 11  4  1  0  0  0  0
 12 15  2  0  0  0  0
 13 18  2  0  0  0  0
 14 20  1  0  0  0  0
 17 14  2  0  0  0  0
 17 13  1  0  0  0  0
 18 15  1  0  0  0  0
 18 16  1  0  0  0  0
 19 14  1  0  0  0  0
 20 12  1  0  0  0  0
 21 22  1  0  0  0  0
 23 26  1  0  0  0  0
 23 28  2  0  0  0  0
 24 22  2  0  0  0  0
 25 26  2  0  0  0  0
 26 21  1  0  0  0  0
 27 23  1  0  0  0  0
 28 24  1  0  0  0  0
M  END
>  <MODEL>
7

>  <REMARK>
 VINA RESULT:      -8.0      2.199      5.869
  Name = 
  2 active torsions:
  status: ('A' for Active; 'I' for Inactive)
    1  A    between atoms: C_1  and  N_2
    2  A    between atoms: C_10  and  C_13
                            x       y       z     vdW  Elec       q    Type
                         _______ _______ _______ _____ _____    ______ ____

>  <TORSDO>
F 2

$$$$
=
 OpenBabel10272401513D

 28 31  0  0  1  0  0  0  0  0999 V2000
  188.5770  178.3960  140.5700 C   0  0  2  0  0  3  0  0  0  0  0  0
  190.8800  175.9800  137.8650 C   0  0  0  0  0  1  0  0  0  0  0  0
  190.0560  177.2640  143.0690 C   0  0  2  0  0  3  0  0  0  0  0  0
  190.5020  176.7420  140.2120 C   0  0  2  0  0  3  0  0  0  0  0  0
  188.9990  176.5350  142.2390 C   0  0  0  0  0  2  0  0  0  0  0  0
  189.4440  177.9790  138.2210 C   0  0  0  0  0  2  0  0  0  0  0  0
  191.5480  177.4560  141.0710 C   0  0  0  0  0  2  0  0  0  0  0  0
  190.6440  177.1880  138.7480 C   0  0  2  0  0  3  0  0  0  0  0  0
  191.4580  176.9950  142.5220 C   0  0  0  0  0  2  0  0  0  0  0  0
  189.0080  179.0310  139.2360 C   0  0  0  0  0  2  0  0  0  0  0  0
  189.0780  176.9520  140.7700 C   0  0  1  0  0  3  0  0  0  0  0  0
  188.8250  177.2470  145.1860 C   0  0  0  0  0  3  0  0  0  0  0  0
  191.5050  176.4290  146.4220 C   0  0  0  0  0  3  0  0  0  0  0  0
  189.5740  177.5790  147.5010 C   0  0  0  0  0  0  0  0  0  0  0  0
  189.9430  176.9150  144.5260 C   0  0  0  0  0  0  0  0  0  0  0  0
  191.9250  175.3020  144.3330 C   0  0  0  0  0  1  0  0  0  0  0  0
  190.8750  177.3000  147.4330 C   0  0  0  0  0  3  0  0  0  0  0  0
  191.0860  176.2090  145.1670 C   0  0  0  0  0  0  0  0  0  0  0  0
  189.0870  178.4910  148.5690 C   0  0  0  0  0  1  0  0  0  0  0  0
  188.5770  176.9110  146.6170 C   0  0  0  0  0  2  0  0  0  0  0  0
  187.1270  178.4880  140.7600 N   0  0  0  0  0  0  0  0  0  0  0  0
  186.6190  178.5870  142.0240 C   0  0  0  0  0  3  0  0  0  0  0  0
  184.9110  178.5940  139.8460 C   0  0  0  0  0  0  0  0  0  0  0  0
  185.2440  178.6910  142.2330 C   0  0  0  0  0  3  0  0  0  0  0  0
  186.7680  178.4060  138.5040 O   0  0  0  0  0  0  0  0  0  0  0  0
  186.2960  178.4920  139.6710 C   0  0  0  0  0  0  0  0  0  0  0  0
  184.0760  178.6000  138.7780 F   0  0  0  0  0  0  0  0  0  0  0  0
  184.3870  178.6930  141.1340 C   0  0  0  0  0  3  0  0  0  0  0  0
  1 10  1  6  0  0  0
  1 21  1  0  0  0  0
  1 11  1  0  0  0  0
  3 15  1  1  0  0  0
  4 11  1  0  0  0  0
  4  7  1  1  0  0  0
  5  3  1  0  0  0  0
  6  8  1  0  0  0  0
  6 10  1  0  0  0  0
  7  9  1  0  0  0  0
  8  2  1  6  0  0  0
  8  4  1  0  0  0  0
  9  3  1  0  0  0  0
 11  5  1  1  0  0  0
 12 20  1  0  0  0  0
 13 17  1  0  0  0  0
 14 19  1  0  0  0  0
 15 18  1  0  0  0  0
 15 12  2  0  0  0  0
 16 18  1  0  0  0  0
 17 14  2  0  0  0  0
 18 13  2  0  0  0  0
 20 14  1  0  0  0  0
 21 22  1  0  0  0  0
 22 24  2  0  0  0  0
 23 28  2  0  0  0  0
 25 26  2  0  0  0  0
 26 23  1  0  0  0  0
 26 21  1  0  0  0  0
 27 23  1  0  0  0  0
 28 24  1  0  0  0  0
M  END
>  <MODEL>
8

>  <REMARK>
 VINA RESULT:      -7.9      2.100      6.115
  Name = 
  2 active torsions:
  status: ('A' for Active; 'I' for Inactive)
    1  A    between atoms: C_1  and  N_2
    2  A    between atoms: C_10  and  C_13
                            x       y       z     vdW  Elec       q    Type
                         _______ _______ _______ _____ _____    ______ ____

>  <TORSDO>
F 2

$$$$
=
 OpenBabel10272401513D

 28 31  0  0  1  0  0  0  0  0999 V2000
  186.5610  178.7690  144.8880 C   0  0  2  0  0  3  0  0  0  0  0  0
  182.4480  178.0060  143.9100 C   0  0  0  0  0  1  0  0  0  0  0  0
  187.4480  178.6220  141.9030 C   0  0  2  0  0  3  0  0  0  0  0  0
  184.7660  178.4330  143.0890 C   0  0  2  0  0  3  0  0  0  0  0  0
  187.0750  177.4350  142.7930 C   0  0  0  0  0  2  0  0  0  0  0  0
  184.1090  178.8970  145.5320 C   0  0  0  0  0  2  0  0  0  0  0  0
  185.1630  179.6000  142.1830 C   0  0  0  0  0  2  0  0  0  0  0  0
  183.6700  178.8870  144.0650 C   0  0  2  0  0  3  0  0  0  0  0  0
  186.2190  179.1620  141.1730 C   0  0  0  0  0  2  0  0  0  0  0  0
  185.4860  179.5380  145.6740 C   0  0  0  0  0  2  0  0  0  0  0  0
  185.9950  177.8310  143.8030 C   0  0  1  0  0  3  0  0  0  0  0  0
  188.3250  178.3240  139.6360 C   0  0  0  0  0  3  0  0  0  0  0  0
  190.6610  176.9090  141.0220 C   0  0  0  0  0  3  0  0  0  0  0  0
  189.8290  176.6280  138.6890 C   0  0  0  0  0  0  0  0  0  0  0  0
  188.5570  178.2650  140.9540 C   0  0  0  0  0  0  0  0  0  0  0  0
  190.2810  178.4430  142.8420 C   0  0  0  0  0  1  0  0  0  0  0  0
  190.4630  176.1630  139.7640 C   0  0  0  0  0  3  0  0  0  0  0  0
  189.8680  177.8640  141.5320 C   0  0  0  0  0  0  0  0  0  0  0  0
  189.6920  175.7500  137.4970 C   0  0  0  0  0  1  0  0  0  0  0  0
  189.3580  178.0400  138.6000 C   0  0  0  0  0  2  0  0  0  0  0  0
  187.4700  178.0540  145.7870 N   0  0  0  0  0  0  0  0  0  0  0  0
  188.5720  177.4310  145.2740 C   0  0  0  0  0  3  0  0  0  0  0  0
  188.0920  177.3630  147.9990 C   0  0  0  0  0  0  0  0  0  0  0  0
  189.4620  176.7560  146.1100 C   0  0  0  0  0  3  0  0  0  0  0  0
  186.2030  178.6130  147.6060 O   0  0  0  0  0  0  0  0  0  0  0  0
  187.2190  178.0320  147.1340 C   0  0  0  0  0  0  0  0  0  0  0  0
  187.8570  177.3330  149.3340 F   0  0  0  0  0  0  0  0  0  0  0  0
  189.2170  176.7240  147.4810 C   0  0  0  0  0  3  0  0  0  0  0  0
  1 10  1  1  0  0  0
  1 21  1  0  0  0  0
  3 15  1  6  0  0  0
  3  5  1  0  0  0  0
  4  7  1  1  0  0  0
  4 11  1  0  0  0  0
  4  8  1  0  0  0  0
  6 10  1  0  0  0  0
  8  2  1  1  0  0  0
  8  6  1  0  0  0  0
  9  3  1  0  0  0  0
  9  7  1  0  0  0  0
 11  5  1  6  0  0  0
 11  1  1  0  0  0  0
 12 15  2  0  0  0  0
 13 18  2  0  0  0  0
 14 17  2  0  0  0  0
 15 18  1  0  0  0  0
 17 13  1  0  0  0  0
 18 16  1  0  0  0  0
 19 14  1  0  0  0  0
 20 14  1  0  0  0  0
 20 12  1  0  0  0  0
 21 26  1  0  0  0  0
 22 21  1  0  0  0  0
 22 24  2  0  0  0  0
 23 27  1  0  0  0  0
 24 28  1  0  0  0  0
 26 25  2  0  0  0  0
 26 23  1  0  0  0  0
 28 23  2  0  0  0  0
M  END
>  <MODEL>
9

>  <REMARK>
 VINA RESULT:      -7.7      2.851      6.694
  Name = 
  2 active torsions:
  status: ('A' for Active; 'I' for Inactive)
    1  A    between atoms: C_1  and  N_2
    2  A    between atoms: C_10  and  C_13
                            x       y       z     vdW  Elec       q    Type
                         _______ _______ _______ _____ _____    ______ ____

>  <TORSDO>
F 2

$$$$
