=
 OpenBabel10272400493D

 25 27  0  0  1  0  0  0  0  0999 V2000
  189.2620  177.3440  145.8330 C   0  0  0  0  0  0  0  0  0  0  0  0
  187.9640  177.6260  145.5870 C   0  0  0  0  0  0  0  0  0  0  0  0
  188.8580  177.6990  148.3250 C   0  0  0  0  0  3  0  0  0  0  0  0
  187.5730  177.9500  148.0880 C   0  0  0  0  0  3  0  0  0  0  0  0
  185.8910  178.7680  146.4080 C   0  0  0  0  0  0  0  0  0  0  0  0
  185.3650  179.4190  147.2980 O   0  0  0  0  0  0  0  0  0  0  0  0
  187.4740  177.7560  144.1640 C   0  0  0  0  0  2  0  0  0  0  0  0
  189.7460  177.2910  147.2340 C   0  0  0  0  0  0  0  0  0  0  0  0
  190.9280  176.9450  147.4970 O   0  0  0  0  0  0  0  0  0  0  0  0
  185.4220  178.9620  144.9930 C   0  0  0  0  0  2  0  0  0  0  0  0
  185.9500  177.8590  144.0780 C   0  0  1  0  0  3  0  0  0  0  0  0
  186.9570  177.7430  146.7250 C   0  0  1  0  0  3  0  0  0  0  0  0
  190.2240  177.1340  144.6920 C   0  0  1  0  0  3  0  0  0  0  0  0
  191.4870  176.9930  142.1870 C   0  0  0  0  0  2  0  0  0  0  0  0
  189.6400  176.2570  143.6160 C   0  0  0  0  0  3  0  0  0  0  0  0
  190.2460  176.1830  142.4270 C   0  0  0  0  0  3  0  0  0  0  0  0
  191.2640  178.4190  142.6950 C   0  0  0  0  0  2  0  0  0  0  0  0
  190.7820  178.4680  144.1590 C   0  0  0  0  0  2  0  0  0  0  0  0
  185.5200  178.1380  142.6500 C   0  0  0  0  0  2  0  0  0  0  0  0
  186.9430  178.6850  141.6590 S   0  0  0  0  0  0  0  0  0  0  0  0
  185.9590  178.6850  140.1330 C   0  0  0  0  0  2  0  0  0  0  0  0
  186.8180  178.4070  138.9950 N   0  0  0  0  0  2  0  0  0  0  0  0
  188.1370  178.1030  139.5210 C   0  0  0  0  0  2  0  0  0  0  0  0
  189.1800  178.3860  138.4610 C   0  0  0  0  0  2  0  0  0  0  0  0
  188.8870  179.5930  137.8300 O   0  0  0  0  0  1  0  0  0  0  0  0
  1  8  1  0  0  0  0
  2  1  2  0  0  0  0
  2 12  1  0  0  0  0
  4  3  2  0  0  0  0
  5 12  1  0  0  0  0
  5  6  2  0  0  0  0
  7  2  1  0  0  0  0
  8  9  2  0  0  0  0
  8  3  1  0  0  0  0
 10  5  1  0  0  0  0
 11 19  1  6  0  0  0
 11  7  1  0  0  0  0
 11 10  1  0  0  0  0
 12  4  1  1  0  0  0
 13  1  1  1  0  0  0
 14 16  1  0  0  0  0
 14 17  1  0  0  0  0
 15 13  1  0  0  0  0
 16 15  2  0  0  0  0
 17 18  1  0  0  0  0
 18 13  1  0  0  0  0
 20 19  1  0  0  0  0
 21 20  1  0  0  0  0
 22 23  1  0  0  0  0
 22 21  1  0  0  0  0
 24 23  1  0  0  0  0
 25 24  1  0  0  0  0
M  END
>  <MODEL>
1

>  <REMARK>
 VINA RESULT:      -9.0      0.000      0.000
  Name = 
  7 active torsions:
  status: ('A' for Active; 'I' for Inactive)
    1  A    between atoms: C_1  and  C_5
    2  A    between atoms: C_2  and  C_12
    3  A    between atoms: C_6  and  S_15
    4  A    between atoms: C_6  and  C_23
    5  A    between atoms: C_12  and  N_25
    6  A    between atoms: S_15  and  C_21
    7  A    between atoms: C_21  and  N_25
                            x       y       z     vdW  Elec       q    Type
                         _______ _______ _______ _____ _____    ______ ____

>  <TORSDO>
F 7

$$$$
=
 OpenBabel10272400493D

 25 27  0  0  1  0  0  0  0  0999 V2000
  188.6470  177.5270  145.1510 C   0  0  0  0  0  0  0  0  0  0  0  0
  187.3260  177.7030  144.9320 C   0  0  0  0  0  0  0  0  0  0  0  0
  188.2150  177.5000  147.6640 C   0  0  0  0  0  3  0  0  0  0  0  0
  186.9100  177.6450  147.4480 C   0  0  0  0  0  3  0  0  0  0  0  0
  185.1470  178.5020  145.8740 C   0  0  0  0  0  0  0  0  0  0  0  0
  184.5590  178.9690  146.8380 O   0  0  0  0  0  0  0  0  0  0  0  0
  186.8200  177.9710  143.5330 C   0  0  0  0  0  2  0  0  0  0  0  0
  189.1380  177.3370  146.5390 C   0  0  0  0  0  0  0  0  0  0  0  0
  190.3500  177.0840  146.7660 O   0  0  0  0  0  0  0  0  0  0  0  0
  184.6560  178.8340  144.4930 C   0  0  0  0  0  2  0  0  0  0  0  0
  185.2940  177.9250  143.4450 C   0  0  1  0  0  3  0  0  0  0  0  0
  186.3150  177.5600  146.0640 C   0  0  1  0  0  3  0  0  0  0  0  0
  189.6220  177.5730  144.0040 C   0  0  1  0  0  3  0  0  0  0  0  0
  191.9110  177.5810  142.3750 C   0  0  0  0  0  2  0  0  0  0  0  0
  190.6600  178.6500  144.1880 C   0  0  0  0  0  3  0  0  0  0  0  0
  191.7440  178.6580  143.4070 C   0  0  0  0  0  3  0  0  0  0  0  0
  191.6000  176.2230  143.0090 C   0  0  0  0  0  2  0  0  0  0  0  0
  190.2260  176.1860  143.7070 C   0  0  0  0  0  2  0  0  0  0  0  0
  184.8330  178.3470  142.0620 C   0  0  0  0  0  2  0  0  0  0  0  0
  186.2650  178.7330  141.0110 S   0  0  0  0  0  0  0  0  0  0  0  0
  185.2690  178.6030  139.4990 C   0  0  0  0  0  2  0  0  0  0  0  0
  186.1260  178.7350  138.3330 N   0  0  0  0  0  2  0  0  0  0  0  0
  187.3390  177.9860  138.6090 C   0  0  0  0  0  2  0  0  0  0  0  0
  188.3730  178.2880  137.5450 C   0  0  0  0  0  2  0  0  0  0  0  0
  188.9000  179.5600  137.7590 O   0  0  0  0  0  1  0  0  0  0  0  0
  1  8  1  0  0  0  0
  2  1  2  0  0  0  0
  2 12  1  0  0  0  0
  4  3  2  0  0  0  0
  5 12  1  0  0  0  0
  5  6  2  0  0  0  0
  7  2  1  0  0  0  0
  8  9  2  0  0  0  0
  8  3  1  0  0  0  0
 10  5  1  0  0  0  0
 11 19  1  6  0  0  0
 11  7  1  0  0  0  0
 11 10  1  0  0  0  0
 12  4  1  1  0  0  0
 13 15  1  0  0  0  0
 13  1  1  1  0  0  0
 14 17  1  0  0  0  0
 14 16  1  0  0  0  0
 16 15  2  0  0  0  0
 17 18  1  0  0  0  0
 18 13  1  0  0  0  0
 20 19  1  0  0  0  0
 21 20  1  0  0  0  0
 22 23  1  0  0  0  0
 22 21  1  0  0  0  0
 24 25  1  0  0  0  0
 24 23  1  0  0  0  0
M  END
>  <MODEL>
2

>  <REMARK>
 VINA RESULT:      -8.7      0.902      1.358
  Name = 
  7 active torsions:
  status: ('A' for Active; 'I' for Inactive)
    1  A    between atoms: C_1  and  C_5
    2  A    between atoms: C_2  and  C_12
    3  A    between atoms: C_6  and  S_15
    4  A    between atoms: C_6  and  C_23
    5  A    between atoms: C_12  and  N_25
    6  A    between atoms: S_15  and  C_21
    7  A    between atoms: C_21  and  N_25
                            x       y       z     vdW  Elec       q    Type
                         _______ _______ _______ _____ _____    ______ ____

>  <TORSDO>
F 7

$$$$
=
 OpenBabel10272400493D

 25 27  0  0  1  0  0  0  0  0999 V2000
  188.8500  177.5500  145.1700 C   0  0  0  0  0  0  0  0  0  0  0  0
  187.5150  177.7590  145.1860 C   0  0  0  0  0  0  0  0  0  0  0  0
  188.8710  177.5460  147.7200 C   0  0  0  0  0  3  0  0  0  0  0  0
  187.5520  177.7230  147.7370 C   0  0  0  0  0  3  0  0  0  0  0  0
  185.5580  178.6180  146.4940 C   0  0  0  0  0  0  0  0  0  0  0  0
  185.1620  179.1040  147.5420 O   0  0  0  0  0  0  0  0  0  0  0  0
  186.7750  178.0330  143.8980 C   0  0  0  0  0  2  0  0  0  0  0  0
  189.5740  177.3540  146.4500 C   0  0  0  0  0  0  0  0  0  0  0  0
  190.8010  177.0710  146.4600 O   0  0  0  0  0  0  0  0  0  0  0  0
  184.8380  178.9560  145.2190 C   0  0  0  0  0  2  0  0  0  0  0  0
  185.2570  178.0260  144.0830 C   0  0  1  0  0  3  0  0  0  0  0  0
  186.7180  177.6470  146.4820 C   0  0  1  0  0  3  0  0  0  0  0  0
  189.6060  177.5670  143.8670 C   0  0  1  0  0  3  0  0  0  0  0  0
  191.5500  177.4080  141.8460 C   0  0  0  0  0  2  0  0  0  0  0  0
  190.8110  178.4680  143.9260 C   0  0  0  0  0  3  0  0  0  0  0  0
  191.7310  178.3980  142.9590 C   0  0  0  0  0  3  0  0  0  0  0  0
  191.1510  176.0540  142.4360 C   0  0  0  0  0  2  0  0  0  0  0  0
  189.9300  176.1420  143.3730 C   0  0  0  0  0  2  0  0  0  0  0  0
  184.5680  178.4530  142.8000 C   0  0  0  0  0  2  0  0  0  0  0  0
  185.7930  179.0350  141.5900 S   0  0  0  0  0  0  0  0  0  0  0  0
  184.6680  178.7140  140.2020 C   0  0  0  0  0  2  0  0  0  0  0  0
  184.5540  179.9040  139.3760 N   0  0  0  0  0  2  0  0  0  0  0  0
  183.1760  179.9790  138.9250 C   0  0  0  0  0  2  0  0  0  0  0  0
  182.3080  179.1070  139.8070 C   0  0  0  0  0  2  0  0  0  0  0  0
  180.9930  179.1440  139.3470 O   0  0  0  0  0  1  0  0  0  0  0  0
  1  2  2  0  0  0  0
  1  8  1  0  0  0  0
  2 12  1  0  0  0  0
  3  4  2  0  0  0  0
  5  6  2  0  0  0  0
  7 11  1  0  0  0  0
  7  2  1  0  0  0  0
  8  9  2  0  0  0  0
  8  3  1  0  0  0  0
 10  5  1  0  0  0  0
 11 19  1  6  0  0  0
 11 10  1  0  0  0  0
 12  5  1  0  0  0  0
 12  4  1  1  0  0  0
 13 15  1  0  0  0  0
 13  1  1  1  0  0  0
 14 17  1  0  0  0  0
 14 16  1  0  0  0  0
 16 15  2  0  0  0  0
 17 18  1  0  0  0  0
 18 13  1  0  0  0  0
 20 19  1  0  0  0  0
 21 20  1  0  0  0  0
 22 21  1  0  0  0  0
 23 22  1  0  0  0  0
 23 24  1  0  0  0  0
 25 24  1  0  0  0  0
M  END
>  <MODEL>
3

>  <REMARK>
 VINA RESULT:      -8.5      2.149      2.739
  Name = 
  7 active torsions:
  status: ('A' for Active; 'I' for Inactive)
    1  A    between atoms: C_1  and  C_5
    2  A    between atoms: C_2  and  C_12
    3  A    between atoms: C_6  and  S_15
    4  A    between atoms: C_6  and  C_23
    5  A    between atoms: C_12  and  N_25
    6  A    between atoms: S_15  and  C_21
    7  A    between atoms: C_21  and  N_25
                            x       y       z     vdW  Elec       q    Type
                         _______ _______ _______ _____ _____    ______ ____

>  <TORSDO>
F 7

$$$$
=
 OpenBabel10272400493D

 25 27  0  0  1  0  0  0  0  0999 V2000
  187.0320  177.9640  145.7670 C   0  0  0  0  0  0  0  0  0  0  0  0
  188.3170  177.6530  145.4920 C   0  0  0  0  0  0  0  0  0  0  0  0
  187.6500  178.3130  148.2160 C   0  0  0  0  0  3  0  0  0  0  0  0
  188.9220  178.0340  147.9420 C   0  0  0  0  0  3  0  0  0  0  0  0
  190.4980  176.8220  146.4030 C   0  0  0  0  0  0  0  0  0  0  0  0
  191.1220  176.4510  147.3850 O   0  0  0  0  0  0  0  0  0  0  0  0
  188.6970  177.1480  144.1190 C   0  0  0  0  0  2  0  0  0  0  0  0
  186.6610  178.3890  147.1400 C   0  0  0  0  0  0  0  0  0  0  0  0
  185.4890  178.7680  147.4040 O   0  0  0  0  0  0  0  0  0  0  0  0
  190.8600  176.2580  145.0570 C   0  0  0  0  0  2  0  0  0  0  0  0
  190.2120  177.0570  143.9290 C   0  0  1  0  0  3  0  0  0  0  0  0
  189.4170  177.8720  146.5250 C   0  0  1  0  0  3  0  0  0  0  0  0
  185.9730  177.8340  144.7040 C   0  0  1  0  0  3  0  0  0  0  0  0
  184.0970  178.2810  142.6620 C   0  0  0  0  0  2  0  0  0  0  0  0
  184.8000  178.7430  144.9600 C   0  0  0  0  0  3  0  0  0  0  0  0
  183.9030  178.9480  143.9910 C   0  0  0  0  0  3  0  0  0  0  0  0
  185.5520  178.4490  142.2200 C   0  0  0  0  0  2  0  0  0  0  0  0
  186.5620  177.9800  143.2860 C   0  0  0  0  0  2  0  0  0  0  0  0
  190.5370  176.4070  142.5970 C   0  0  0  0  0  2  0  0  0  0  0  0
  191.5610  177.5170  141.5860 S   0  0  0  0  0  0  0  0  0  0  0  0
  190.5030  177.2710  140.1320 C   0  0  0  0  0  2  0  0  0  0  0  0
  189.1060  177.2960  140.5310 N   0  0  0  0  0  2  0  0  0  0  0  0
  188.4290  178.2340  139.6530 C   0  0  0  0  0  2  0  0  0  0  0  0
  189.1820  178.3340  138.3440 C   0  0  0  0  0  2  0  0  0  0  0  0
  188.9680  179.5890  137.7790 O   0  0  0  0  0  1  0  0  0  0  0  0
  1  8  1  0  0  0  0
  2  1  2  0  0  0  0
  2 12  1  0  0  0  0
  4  3  2  0  0  0  0
  5 12  1  0  0  0  0
  5  6  2  0  0  0  0
  7  2  1  0  0  0  0
  8  9  2  0  0  0  0
  8  3  1  0  0  0  0
 10  5  1  0  0  0  0
 11 19  1  6  0  0  0
 11  7  1  0  0  0  0
 11 10  1  0  0  0  0
 12  4  1  1  0  0  0
 13 15  1  0  0  0  0
 13  1  1  1  0  0  0
 14 16  1  0  0  0  0
 16 15  2  0  0  0  0
 17 14  1  0  0  0  0
 17 18  1  0  0  0  0
 18 13  1  0  0  0  0
 20 19  1  0  0  0  0
 21 22  1  0  0  0  0
 21 20  1  0  0  0  0
 23 22  1  0  0  0  0
 24 23  1  0  0  0  0
 25 24  1  0  0  0  0
M  END
>  <MODEL>
4

>  <REMARK>
 VINA RESULT:      -8.2      1.471      4.356
  Name = 
  7 active torsions:
  status: ('A' for Active; 'I' for Inactive)
    1  A    between atoms: C_1  and  C_5
    2  A    between atoms: C_2  and  C_12
    3  A    between atoms: C_6  and  S_15
    4  A    between atoms: C_6  and  C_23
    5  A    between atoms: C_12  and  N_25
    6  A    between atoms: S_15  and  C_21
    7  A    between atoms: C_21  and  N_25
                            x       y       z     vdW  Elec       q    Type
                         _______ _______ _______ _____ _____    ______ ____

>  <TORSDO>
F 7

$$$$
=
 OpenBabel10272400493D

 25 27  0  0  1  0  0  0  0  0999 V2000
  189.6170  176.9300  144.4330 C   0  0  0  0  0  0  0  0  0  0  0  0
  188.8190  177.1880  145.4920 C   0  0  0  0  0  0  0  0  0  0  0  0
  191.6070  176.6790  146.0070 C   0  0  0  0  0  3  0  0  0  0  0  0
  190.8170  176.9060  147.0530 C   0  0  0  0  0  3  0  0  0  0  0  0
  188.6990  177.9930  147.8610 C   0  0  0  0  0  0  0  0  0  0  0  0
  189.3130  178.3910  148.8390 O   0  0  0  0  0  0  0  0  0  0  0  0
  187.3850  177.6140  145.2740 C   0  0  0  0  0  2  0  0  0  0  0  0
  191.0410  176.5830  144.6600 C   0  0  0  0  0  0  0  0  0  0  0  0
  191.7860  176.2530  143.6990 O   0  0  0  0  0  0  0  0  0  0  0  0
  187.2950  178.4800  147.6390 C   0  0  0  0  0  2  0  0  0  0  0  0
  186.5820  177.6480  146.5750 C   0  0  1  0  0  3  0  0  0  0  0  0
  189.3160  176.9830  146.9190 C   0  0  1  0  0  3  0  0  0  0  0  0
  189.0790  177.0420  143.0300 C   0  0  1  0  0  3  0  0  0  0  0  0
  188.5980  177.7100  140.3450 C   0  0  0  0  0  2  0  0  0  0  0  0
  188.7320  178.4630  142.6700 C   0  0  0  0  0  3  0  0  0  0  0  0
  188.4950  178.7780  141.3940 C   0  0  0  0  0  3  0  0  0  0  0  0
  189.8810  176.9070  140.5680 C   0  0  0  0  0  2  0  0  0  0  0  0
  190.0050  176.3590  142.0040 C   0  0  0  0  0  2  0  0  0  0  0  0
  185.2000  178.2230  146.3260 C   0  0  0  0  0  2  0  0  0  0  0  0
  185.2020  179.2370  144.8170 S   0  0  0  0  0  0  0  0  0  0  0  0
  183.4870  178.7820  144.4340 C   0  0  0  0  0  2  0  0  0  0  0  0
  183.2840  178.7970  142.9950 N   0  0  0  0  0  2  0  0  0  0  0  0
  184.5910  178.9470  142.3820 C   0  0  0  0  0  2  0  0  0  0  0  0
  184.5010  178.6090  140.9100 C   0  0  0  0  0  2  0  0  0  0  0  0
  185.2330  179.5390  140.1730 O   0  0  0  0  0  1  0  0  0  0  0  0
  1  8  1  0  0  0  0
  1  2  2  0  0  0  0
  2 12  1  0  0  0  0
  3  4  2  0  0  0  0
  5  6  2  0  0  0  0
  7  2  1  0  0  0  0
  7 11  1  0  0  0  0
  8  3  1  0  0  0  0
  9  8  2  0  0  0  0
 10  5  1  0  0  0  0
 11 19  1  6  0  0  0
 11 10  1  0  0  0  0
 12  4  1  6  0  0  0
 12  5  1  0  0  0  0
 13  1  1  1  0  0  0
 14 17  1  0  0  0  0
 14 16  1  0  0  0  0
 15 13  1  0  0  0  0
 16 15  2  0  0  0  0
 17 18  1  0  0  0  0
 18 13  1  0  0  0  0
 20 19  1  0  0  0  0
 21 20  1  0  0  0  0
 22 21  1  0  0  0  0
 23 22  1  0  0  0  0
 24 23  1  0  0  0  0
 25 24  1  0  0  0  0
M  END
>  <MODEL>
5

>  <REMARK>
 VINA RESULT:      -8.1      2.198      3.518
  Name = 
  7 active torsions:
  status: ('A' for Active; 'I' for Inactive)
    1  A    between atoms: C_1  and  C_5
    2  A    between atoms: C_2  and  C_12
    3  A    between atoms: C_6  and  S_15
    4  A    between atoms: C_6  and  C_23
    5  A    between atoms: C_12  and  N_25
    6  A    between atoms: S_15  and  C_21
    7  A    between atoms: C_21  and  N_25
                            x       y       z     vdW  Elec       q    Type
                         _______ _______ _______ _____ _____    ______ ____

>  <TORSDO>
F 7

$$$$
=
 OpenBabel10272400493D

 25 27  0  0  1  0  0  0  0  0999 V2000
  185.5100  178.1630  145.0140 C   0  0  0  0  0  0  0  0  0  0  0  0
  186.0650  178.0280  143.7910 C   0  0  0  0  0  0  0  0  0  0  0  0
  183.4570  179.2400  143.9520 C   0  0  0  0  0  3  0  0  0  0  0  0
  183.9910  179.0820  142.7430 C   0  0  0  0  0  3  0  0  0  0  0  0
  186.1210  178.8550  141.4260 C   0  0  0  0  0  0  0  0  0  0  0  0
  185.6560  179.6260  140.6010 O   0  0  0  0  0  0  0  0  0  0  0  0
  187.4910  177.5440  143.6560 C   0  0  0  0  0  2  0  0  0  0  0  0
  184.1350  178.7070  145.1350 C   0  0  0  0  0  0  0  0  0  0  0  0
  183.5580  178.7630  146.2540 O   0  0  0  0  0  0  0  0  0  0  0  0
  187.5600  178.4380  141.3000 C   0  0  0  0  0  2  0  0  0  0  0  0
  187.8720  177.2470  142.2040 C   0  0  1  0  0  3  0  0  0  0  0  0
  185.2540  178.2840  142.5260 C   0  0  1  0  0  3  0  0  0  0  0  0
  186.2950  177.8110  146.2500 C   0  0  1  0  0  3  0  0  0  0  0  0
  188.2340  177.5820  148.2690 C   0  0  0  0  0  2  0  0  0  0  0  0
  187.6530  177.2500  145.9150 C   0  0  0  0  0  3  0  0  0  0  0  0
  188.5710  177.1330  146.8780 C   0  0  0  0  0  3  0  0  0  0  0  0
  187.5570  178.9530  148.2070 C   0  0  0  0  0  2  0  0  0  0  0  0
  186.3480  178.9830  147.2510 C   0  0  0  0  0  2  0  0  0  0  0  0
  189.3490  176.9120  142.1060 C   0  0  0  0  0  2  0  0  0  0  0  0
  190.3140  177.9860  143.2090 S   0  0  0  0  0  0  0  0  0  0  0  0
  191.7510  176.8790  143.1330 C   0  0  0  0  0  2  0  0  0  0  0  0
  191.7320  175.9710  144.2670 N   0  0  0  0  0  2  0  0  0  0  0  0
  191.6620  176.7870  145.4650 C   0  0  0  0  0  2  0  0  0  0  0  0
  192.0650  175.9580  146.6660 C   0  0  0  0  0  2  0  0  0  0  0  0
  192.0640  176.7590  147.8060 O   0  0  0  0  0  1  0  0  0  0  0  0
  1  8  1  0  0  0  0
  2  1  2  0  0  0  0
  3  8  1  0  0  0  0
  4  3  2  0  0  0  0
  5 12  1  0  0  0  0
  6  5  2  0  0  0  0
  7  2  1  0  0  0  0
  8  9  2  0  0  0  0
 10  5  1  0  0  0  0
 10 11  1  0  0  0  0
 11 19  1  1  0  0  0
 11  7  1  0  0  0  0
 12  4  1  1  0  0  0
 12  2  1  0  0  0  0
 13  1  1  6  0  0  0
 13 18  1  0  0  0  0
 15 13  1  0  0  0  0
 15 16  2  0  0  0  0
 16 14  1  0  0  0  0
 17 14  1  0  0  0  0
 18 17  1  0  0  0  0
 19 20  1  0  0  0  0
 21 20  1  0  0  0  0
 21 22  1  0  0  0  0
 22 23  1  0  0  0  0
 23 24  1  0  0  0  0
 24 25  1  0  0  0  0
M  END
>  <MODEL>
6

>  <REMARK>
 VINA RESULT:      -8.0      2.325      5.956
  Name = 
  7 active torsions:
  status: ('A' for Active; 'I' for Inactive)
    1  A    between atoms: C_1  and  C_5
    2  A    between atoms: C_2  and  C_12
    3  A    between atoms: C_6  and  S_15
    4  A    between atoms: C_6  and  C_23
    5  A    between atoms: C_12  and  N_25
    6  A    between atoms: S_15  and  C_21
    7  A    between atoms: C_21  and  N_25
                            x       y       z     vdW  Elec       q    Type
                         _______ _______ _______ _____ _____    ______ ____

>  <TORSDO>
F 7

$$$$
=
 OpenBabel10272400493D

 25 27  0  0  1  0  0  0  0  0999 V2000
  187.7830  177.6150  145.2290 C   0  0  0  0  0  0  0  0  0  0  0  0
  186.8740  177.9870  144.3030 C   0  0  0  0  0  0  0  0  0  0  0  0
  186.1490  178.2590  147.0780 C   0  0  0  0  0  3  0  0  0  0  0  0
  185.2410  178.5990  146.1660 C   0  0  0  0  0  3  0  0  0  0  0  0
  184.8570  179.3900  143.8110 C   0  0  0  0  0  0  0  0  0  0  0  0
  184.0250  180.1730  144.2420 O   0  0  0  0  0  0  0  0  0  0  0  0
  187.2500  178.0140  142.8400 C   0  0  0  0  0  2  0  0  0  0  0  0
  187.4220  177.6630  146.6680 C   0  0  0  0  0  0  0  0  0  0  0  0
  188.2170  177.2400  147.5480 O   0  0  0  0  0  0  0  0  0  0  0  0
  185.2560  179.4800  142.3640 C   0  0  0  0  0  2  0  0  0  0  0  0
  186.0430  178.2450  141.9290 C   0  0  1  0  0  3  0  0  0  0  0  0
  185.4370  178.3110  144.6970 C   0  0  1  0  0  3  0  0  0  0  0  0
  189.1700  177.2030  144.8110 C   0  0  1  0  0  3  0  0  0  0  0  0
  191.5520  176.6880  143.4140 C   0  0  0  0  0  2  0  0  0  0  0  0
  189.1490  176.2680  143.6300 C   0  0  0  0  0  3  0  0  0  0  0  0
  190.2840  176.0170  142.9710 C   0  0  0  0  0  3  0  0  0  0  0  0
  191.2780  178.1740  143.6540 C   0  0  0  0  0  2  0  0  0  0  0  0
  190.0960  178.4200  144.6120 C   0  0  0  0  0  2  0  0  0  0  0  0
  186.4940  178.4140  140.4900 C   0  0  0  0  0  2  0  0  0  0  0  0
  188.2890  178.1660  140.3580 S   0  0  0  0  0  0  0  0  0  0  0  0
  188.2140  178.1320  138.5440 C   0  0  0  0  0  2  0  0  0  0  0  0
  189.1550  177.1500  138.0320 N   0  0  0  0  0  2  0  0  0  0  0  0
  190.1670  176.9560  139.0540 C   0  0  0  0  0  2  0  0  0  0  0  0
  191.3120  176.1470  138.4830 C   0  0  0  0  0  2  0  0  0  0  0  0
  190.8470  174.8920  138.0960 O   0  0  0  0  0  1  0  0  0  0  0  0
  1  8  1  0  0  0  0
  2 12  1  0  0  0  0
  2  1  2  0  0  0  0
  4  3  2  0  0  0  0
  5  6  2  0  0  0  0
  5 12  1  0  0  0  0
  7  2  1  0  0  0  0
  8  3  1  0  0  0  0
  8  9  2  0  0  0  0
 10  5  1  0  0  0  0
 11 19  1  6  0  0  0
 11 10  1  0  0  0  0
 11  7  1  0  0  0  0
 12  4  1  1  0  0  0
 13  1  1  6  0  0  0
 14 17  1  0  0  0  0
 15 13  1  0  0  0  0
 16 14  1  0  0  0  0
 16 15  2  0  0  0  0
 17 18  1  0  0  0  0
 18 13  1  0  0  0  0
 20 19  1  0  0  0  0
 21 20  1  0  0  0  0
 22 21  1  0  0  0  0
 22 23  1  0  0  0  0
 24 23  1  0  0  0  0
 25 24  1  0  0  0  0
M  END
>  <MODEL>
7

>  <REMARK>
 VINA RESULT:      -8.0      1.843      2.447
  Name = 
  7 active torsions:
  status: ('A' for Active; 'I' for Inactive)
    1  A    between atoms: C_1  and  C_5
    2  A    between atoms: C_2  and  C_12
    3  A    between atoms: C_6  and  S_15
    4  A    between atoms: C_6  and  C_23
    5  A    between atoms: C_12  and  N_25
    6  A    between atoms: S_15  and  C_21
    7  A    between atoms: C_21  and  N_25
                            x       y       z     vdW  Elec       q    Type
                         _______ _______ _______ _____ _____    ______ ____

>  <TORSDO>
F 7

$$$$
=
 OpenBabel10272400493D

 25 27  0  0  1  0  0  0  0  0999 V2000
  187.6440  177.6760  145.6650 C   0  0  0  0  0  0  0  0  0  0  0  0
  188.7750  177.4570  144.9610 C   0  0  0  0  0  0  0  0  0  0  0  0
  188.9810  177.5480  147.8330 C   0  0  0  0  0  3  0  0  0  0  0  0
  190.1000  177.3600  147.1390 C   0  0  0  0  0  3  0  0  0  0  0  0
  191.0970  176.5160  144.9910 C   0  0  0  0  0  0  0  0  0  0  0  0
  191.9730  175.9730  145.6460 O   0  0  0  0  0  0  0  0  0  0  0  0
  188.7080  177.2450  143.4660 C   0  0  0  0  0  2  0  0  0  0  0  0
  187.7180  177.8110  147.1410 C   0  0  0  0  0  0  0  0  0  0  0  0
  186.6940  178.1030  147.8150 O   0  0  0  0  0  0  0  0  0  0  0  0
  191.0180  176.2390  143.5150 C   0  0  0  0  0  2  0  0  0  0  0  0
  190.0920  177.2310  142.8150 C   0  0  1  0  0  3  0  0  0  0  0  0
  190.1420  177.4950  145.6360 C   0  0  1  0  0  3  0  0  0  0  0  0
  186.3110  177.7340  144.9660 C   0  0  1  0  0  3  0  0  0  0  0  0
  183.9540  178.5280  143.6610 C   0  0  0  0  0  2  0  0  0  0  0  0
  185.3390  178.6390  145.6770 C   0  0  0  0  0  3  0  0  0  0  0  0
  184.2140  179.0090  145.0580 C   0  0  0  0  0  3  0  0  0  0  0  0
  185.2210  178.7060  142.8230 C   0  0  0  0  0  2  0  0  0  0  0  0
  186.4630  178.0570  143.4660 C   0  0  0  0  0  2  0  0  0  0  0  0
  189.9780  176.8650  141.3460 C   0  0  0  0  0  2  0  0  0  0  0  0
  188.6360  177.8080  140.5630 S   0  0  0  0  0  0  0  0  0  0  0  0
  189.6280  178.1020  139.0720 C   0  0  0  0  0  2  0  0  0  0  0  0
  189.0000  179.1320  138.2600 N   0  0  0  0  0  2  0  0  0  0  0  0
  188.8950  178.6050  136.9110 C   0  0  0  0  0  2  0  0  0  0  0  0
  187.4370  178.5260  136.5130 C   0  0  0  0  0  2  0  0  0  0  0  0
  186.6380  178.8690  137.6020 O   0  0  0  0  0  1  0  0  0  0  0  0
  1  8  1  0  0  0  0
  2 12  1  0  0  0  0
  2  1  2  0  0  0  0
  4  3  2  0  0  0  0
  5 12  1  0  0  0  0
  5  6  2  0  0  0  0
  7  2  1  0  0  0  0
  8  9  2  0  0  0  0
  8  3  1  0  0  0  0
 10  5  1  0  0  0  0
 11 19  1  6  0  0  0
 11  7  1  0  0  0  0
 11 10  1  0  0  0  0
 12  4  1  1  0  0  0
 13  1  1  1  0  0  0
 13 15  1  0  0  0  0
 14 16  1  0  0  0  0
 16 15  2  0  0  0  0
 17 18  1  0  0  0  0
 17 14  1  0  0  0  0
 18 13  1  0  0  0  0
 20 19  1  0  0  0  0
 21 20  1  0  0  0  0
 22 21  1  0  0  0  0
 23 22  1  0  0  0  0
 24 23  1  0  0  0  0
 24 25  1  0  0  0  0
M  END
>  <MODEL>
8

>  <REMARK>
 VINA RESULT:      -8.0      1.502      4.397
  Name = 
  7 active torsions:
  status: ('A' for Active; 'I' for Inactive)
    1  A    between atoms: C_1  and  C_5
    2  A    between atoms: C_2  and  C_12
    3  A    between atoms: C_6  and  S_15
    4  A    between atoms: C_6  and  C_23
    5  A    between atoms: C_12  and  N_25
    6  A    between atoms: S_15  and  C_21
    7  A    between atoms: C_21  and  N_25
                            x       y       z     vdW  Elec       q    Type
                         _______ _______ _______ _____ _____    ______ ____

>  <TORSDO>
F 7

$$$$
=
 OpenBabel10272400493D

 25 27  0  0  1  0  0  0  0  0999 V2000
  187.6520  177.6810  145.7730 C   0  0  0  0  0  0  0  0  0  0  0  0
  188.8220  177.4410  145.1430 C   0  0  0  0  0  0  0  0  0  0  0  0
  188.8630  177.6520  148.0160 C   0  0  0  0  0  3  0  0  0  0  0  0
  190.0210  177.4420  147.3960 C   0  0  0  0  0  3  0  0  0  0  0  0
  191.1430  176.5180  145.3440 C   0  0  0  0  0  0  0  0  0  0  0  0
  191.9820  176.0080  146.0710 O   0  0  0  0  0  0  0  0  0  0  0  0
  188.8410  177.1660  143.6570 C   0  0  0  0  0  2  0  0  0  0  0  0
  187.6400  177.8770  147.2430 C   0  0  0  0  0  0  0  0  0  0  0  0
  186.5780  178.1890  147.8450 O   0  0  0  0  0  0  0  0  0  0  0  0
  191.1490  176.1790  143.8800 C   0  0  0  0  0  2  0  0  0  0  0  0
  190.2600  177.1350  143.0870 C   0  0  1  0  0  3  0  0  0  0  0  0
  190.1480  177.5150  145.8930 C   0  0  1  0  0  3  0  0  0  0  0  0
  186.3610  177.7010  144.9970 C   0  0  1  0  0  3  0  0  0  0  0  0
  184.1110  178.4130  143.4730 C   0  0  0  0  0  2  0  0  0  0  0  0
  185.3940  178.7240  145.5340 C   0  0  0  0  0  3  0  0  0  0  0  0
  184.3200  179.0560  144.8130 C   0  0  0  0  0  3  0  0  0  0  0  0
  185.4270  178.4370  142.6920 C   0  0  0  0  0  2  0  0  0  0  0  0
  186.6040  177.8270  143.4800 C   0  0  0  0  0  2  0  0  0  0  0  0
  190.2320  176.7080  141.6310 C   0  0  0  0  0  2  0  0  0  0  0  0
  188.9860  177.6650  140.7170 S   0  0  0  0  0  0  0  0  0  0  0  0
  189.9900  177.6460  139.2040 C   0  0  0  0  0  2  0  0  0  0  0  0
  190.9810  176.5860  139.2850 N   0  0  0  0  0  2  0  0  0  0  0  0
  191.5460  176.4290  137.9570 C   0  0  0  0  0  2  0  0  0  0  0  0
  193.0530  176.3260  138.0590 C   0  0  0  0  0  2  0  0  0  0  0  0
  193.4820  176.9280  139.2400 O   0  0  0  0  0  1  0  0  0  0  0  0
  1  8  1  0  0  0  0
  2  1  2  0  0  0  0
  2 12  1  0  0  0  0
  4  3  2  0  0  0  0
  5 12  1  0  0  0  0
  5  6  2  0  0  0  0
  7  2  1  0  0  0  0
  8  9  2  0  0  0  0
  8  3  1  0  0  0  0
 10  5  1  0  0  0  0
 11 19  1  6  0  0  0
 11  7  1  0  0  0  0
 11 10  1  0  0  0  0
 12  4  1  1  0  0  0
 13 15  1  0  0  0  0
 13  1  1  1  0  0  0
 14 16  1  0  0  0  0
 16 15  2  0  0  0  0
 17 14  1  0  0  0  0
 17 18  1  0  0  0  0
 18 13  1  0  0  0  0
 20 19  1  0  0  0  0
 21 22  1  0  0  0  0
 21 20  1  0  0  0  0
 23 24  1  0  0  0  0
 23 22  1  0  0  0  0
 24 25  1  0  0  0  0
M  END
>  <MODEL>
9

>  <REMARK>
 VINA RESULT:      -7.8      2.114      4.653
  Name = 
  7 active torsions:
  status: ('A' for Active; 'I' for Inactive)
    1  A    between atoms: C_1  and  C_5
    2  A    between atoms: C_2  and  C_12
    3  A    between atoms: C_6  and  S_15
    4  A    between atoms: C_6  and  C_23
    5  A    between atoms: C_12  and  N_25
    6  A    between atoms: S_15  and  C_21
    7  A    between atoms: C_21  and  N_25
                            x       y       z     vdW  Elec       q    Type
                         _______ _______ _______ _____ _____    ______ ____

>  <TORSDO>
F 7

$$$$
