=
 OpenBabel10272400593D

 27 31  0  0  1  0  0  0  0  0999 V2000
  187.8770  176.4840  143.6030 N   0  0  0  0  0  0  0  0  0  0  0  0
  186.5710  178.4520  143.5540 C   0  0  1  0  0  3  0  0  0  0  0  0
  186.8810  178.4420  141.1630 N   0  0  0  0  0  2  0  0  0  0  0  0
  182.1790  179.2670  143.4430 C   0  0  0  0  0  3  0  0  0  0  0  0
  181.3090  177.7760  141.7080 F   0  0  0  0  0  0  0  0  0  0  0  0
  185.5740  179.1220  144.3950 C   0  0  0  0  0  3  0  0  0  0  0  0
  183.6100  178.2330  141.7130 C   0  0  0  0  0  0  0  0  0  0  0  0
  189.9620  178.2780  139.3390 N   0  0  0  0  0  0  0  0  0  0  0  0
  183.8110  177.2250  140.2850 Cl  0  0  0  0  0  0  0  0  0  0  0  0
  190.6010  177.2070  139.8660 C   0  0  0  0  0  3  0  0  0  0  0  0
  184.7660  179.0770  142.2010 C   0  0  2  0  0  3  0  0  0  0  0  0
  187.6280  177.7210  144.0880 C   0  0  0  0  0  0  0  0  0  0  0  0
  182.3820  178.4110  142.2420 C   0  0  0  0  0  0  0  0  0  0  0  0
  183.2190  179.7620  144.1250 C   0  0  0  0  0  3  0  0  0  0  0  0
  188.3450  176.1310  142.4340 O   0  0  0  0  0  0  0  0  0  0  0  0
  186.0910  178.3890  142.2550 C   0  0  2  0  0  3  0  0  0  0  0  0
  188.7620  178.6870  139.8210 C   0  0  0  0  0  3  0  0  0  0  0  0
  184.5600  179.4630  143.6240 C   0  0  0  0  0  0  0  0  0  0  0  0
  190.0270  176.5130  140.9270 C   0  0  0  0  0  3  0  0  0  0  0  0
  188.8130  176.9280  141.4870 C   0  0  0  0  0  0  0  0  0  0  0  0
  188.1530  178.0530  140.9120 C   0  0  0  0  0  0  0  0  0  0  0  0
  188.5290  177.5060  148.2970 C   0  0  0  0  0  3  0  0  0  0  0  0
  187.9550  177.9540  145.5370 C   0  0  2  0  0  3  0  0  0  0  0  0
  189.2540  177.2390  145.9180 C   0  0  0  0  0  2  0  0  0  0  0  0
  189.5010  177.2580  147.4060 C   0  0  0  0  0  3  0  0  0  0  0  0
  187.1310  177.8950  147.8850 C   0  0  0  0  0  2  0  0  0  0  0  0
  186.8210  177.4840  146.4480 C   0  0  0  0  0  2  0  0  0  0  0  0
  1 12  2  0  0  0  0
  2 12  1  0  0  0  0
  2  6  1  1  0  0  0
  4 14  2  0  0  0  0
  5 13  1  0  0  0  0
  7 13  2  0  0  0  0
  8 17  2  0  0  0  0
  8 10  1  0  0  0  0
  9  7  1  0  0  0  0
 10 19  2  0  0  0  0
 11  7  1  1  0  0  0
 11 16  1  0  0  0  0
 11 18  1  0  0  0  0
 13  4  1  0  0  0  0
 15  1  1  0  0  0  0
 16  3  1  6  0  0  0
 16  2  1  0  0  0  0
 17 21  1  0  0  0  0
 18 14  1  0  0  0  0
 18  6  2  0  0  0  0
 19 20  1  0  0  0  0
 20 15  1  0  0  0  0
 21  3  1  0  0  0  0
 21 20  2  0  0  0  0
 23 12  1  6  0  0  0
 23 24  1  0  0  0  0
 23 27  1  0  0  0  0
 24 25  1  0  0  0  0
 25 22  2  0  0  0  0
 26 22  1  0  0  0  0
 27 26  1  0  0  0  0
M  END
>  <MODEL>
1

>  <REMARK>
 VINA RESULT:      -9.3      0.000      0.000
  Name = 
  1 active torsions:
  status: ('A' for Active; 'I' for Inactive)
    1  A    between atoms: C_9  and  C_15
                            x       y       z     vdW  Elec       q    Type
                         _______ _______ _______ _____ _____    ______ ____

>  <TORSDO>
F 1

$$$$
=
 OpenBabel10272400593D

 27 31  0  0  1  0  0  0  0  0999 V2000
  186.7500  179.3000  141.7570 N   0  0  0  0  0  0  0  0  0  0  0  0
  186.9030  177.5840  143.3740 C   0  0  0  0  0  0  0  0  0  0  0  0
  189.1310  177.1790  142.5430 N   0  0  0  0  0  2  0  0  0  0  0  0
  188.0050  177.4820  147.7030 C   0  0  0  0  0  3  0  0  0  0  0  0
  190.0540  178.8110  147.8600 F   0  0  0  0  0  0  0  0  0  0  0  0
  186.2670  177.2200  144.6440 C   0  0  0  0  0  3  0  0  0  0  0  0
  189.4310  177.9940  145.7500 C   0  0  0  0  0  0  0  0  0  0  0  0
  190.1430  176.5640  139.1610 N   0  0  0  0  0  0  0  0  0  0  0  0
  190.8670  178.7270  145.0460 Cl  0  0  0  0  0  0  0  0  0  0  0  0
  189.5950  177.5850  138.4600 C   0  0  0  0  0  3  0  0  0  0  0  0
  188.5830  177.0600  144.9180 C   0  0  2  0  0  3  0  0  0  0  0  0
  186.2090  178.2080  142.3420 C   0  0  0  0  0  0  0  0  0  0  0  0
  189.2050  178.1000  147.0760 C   0  0  0  0  0  0  0  0  0  0  0  0
  187.0370  176.9360  146.9570 C   0  0  0  0  0  3  0  0  0  0  0  0
  187.7990  179.3890  140.9810 O   0  0  0  0  0  0  0  0  0  0  0  0
  188.2800  177.5250  143.5310 C   0  0  2  0  0  3  0  0  0  0  0  0
  189.9310  176.4310  140.4930 C   0  0  0  0  0  3  0  0  0  0  0  0
  187.2220  176.9330  145.5070 C   0  0  1  0  0  3  0  0  0  0  0  0
  188.7920  178.5160  139.1110 C   0  0  0  0  0  3  0  0  0  0  0  0
  188.5080  178.3920  140.4770 C   0  0  0  0  0  0  0  0  0  0  0  0
  189.1000  177.3150  141.1960 C   0  0  0  0  0  0  0  0  0  0  0  0
  181.9510  178.8460  142.1420 C   0  0  0  0  0  3  0  0  0  0  0  0
  184.7070  178.1490  142.3980 C   0  0  2  0  0  3  0  0  0  0  0  0
  184.1090  178.3080  140.9980 C   0  0  0  0  0  2  0  0  0  0  0  0
  182.6110  178.4810  141.0330 C   0  0  0  0  0  3  0  0  0  0  0  0
  182.6350  179.0110  143.4760 C   0  0  0  0  0  2  0  0  0  0  0  0
  184.1400  179.2220  143.3270 C   0  0  0  0  0  2  0  0  0  0  0  0
  1 12  2  0  0  0  0
  2 16  1  0  0  0  0
  2  6  2  0  0  0  0
  7 13  2  0  0  0  0
  8 17  1  0  0  0  0
  9  7  1  0  0  0  0
 10 19  1  0  0  0  0
 10  8  2  0  0  0  0
 11 18  1  0  0  0  0
 11  7  1  1  0  0  0
 12  2  1  0  0  0  0
 13  4  1  0  0  0  0
 13  5  1  0  0  0  0
 14  4  2  0  0  0  0
 15  1  1  0  0  0  0
 16  3  1  6  0  0  0
 16 11  1  0  0  0  0
 17 21  2  0  0  0  0
 18  6  1  6  0  0  0
 18 14  1  0  0  0  0
 19 20  2  0  0  0  0
 20 15  1  0  0  0  0
 20 21  1  0  0  0  0
 21  3  1  0  0  0  0
 22 26  1  0  0  0  0
 23 12  1  6  0  0  0
 23 27  1  0  0  0  0
 24 25  1  0  0  0  0
 24 23  1  0  0  0  0
 25 22  2  0  0  0  0
 27 26  1  0  0  0  0
M  END
>  <MODEL>
2

>  <REMARK>
 VINA RESULT:      -8.8      2.912      5.522
  Name = 
  1 active torsions:
  status: ('A' for Active; 'I' for Inactive)
    1  A    between atoms: C_9  and  C_15
                            x       y       z     vdW  Elec       q    Type
                         _______ _______ _______ _____ _____    ______ ____

>  <TORSDO>
F 1

$$$$
=
 OpenBabel10272400593D

 27 31  0  0  1  0  0  0  0  0999 V2000
  187.2010  176.8280  143.3560 N   0  0  0  0  0  0  0  0  0  0  0  0
  187.3220  178.2660  141.4850 C   0  0  0  0  0  0  0  0  0  0  0  0
  189.7060  177.9010  141.5230 N   0  0  0  0  0  2  0  0  0  0  0  0
  186.8410  177.6860  137.0810 C   0  0  0  0  0  3  0  0  0  0  0  0
  188.1800  175.7050  136.5600 F   0  0  0  0  0  0  0  0  0  0  0  0
  186.4380  178.7500  140.4210 C   0  0  0  0  0  3  0  0  0  0  0  0
  188.6120  176.8250  138.5750 C   0  0  0  0  0  0  0  0  0  0  0  0
  191.9580  178.3310  144.2770 N   0  0  0  0  0  0  0  0  0  0  0  0
  189.8920  175.6750  138.9380 Cl  0  0  0  0  0  0  0  0  0  0  0  0
  191.3910  177.6220  145.2820 C   0  0  0  0  0  3  0  0  0  0  0  0
  188.4430  178.0530  139.4410 C   0  0  2  0  0  3  0  0  0  0  0  0
  186.8650  178.0000  142.7730 C   0  0  0  0  0  0  0  0  0  0  0  0
  187.9230  176.7210  137.4200 C   0  0  0  0  0  0  0  0  0  0  0  0
  186.4140  178.5890  137.9710 C   0  0  0  0  0  3  0  0  0  0  0  0
  188.3670  176.4200  143.7850 O   0  0  0  0  0  0  0  0  0  0  0  0
  188.5040  177.8180  140.9150 C   0  0  2  0  0  3  0  0  0  0  0  0
  191.3540  178.4440  143.0690 C   0  0  0  0  0  3  0  0  0  0  0  0
  187.0760  178.6200  139.2740 C   0  0  1  0  0  3  0  0  0  0  0  0
  190.1630  177.0000  145.0810 C   0  0  0  0  0  3  0  0  0  0  0  0
  189.4820  177.1270  143.8640 C   0  0  0  0  0  0  0  0  0  0  0  0
  190.0980  177.8730  142.8190 C   0  0  0  0  0  0  0  0  0  0  0  0
  182.8900  178.8740  144.1900 C   0  0  0  0  0  3  0  0  0  0  0  0
  185.5370  178.5890  143.1600 C   0  0  2  0  0  3  0  0  0  0  0  0
  185.3110  178.4640  144.6680 C   0  0  0  0  0  2  0  0  0  0  0  0
  183.9040  178.8330  145.0680 C   0  0  0  0  0  3  0  0  0  0  0  0
  183.0890  178.6600  142.7100 C   0  0  0  0  0  2  0  0  0  0  0  0
  184.3880  177.9170  142.4080 C   0  0  0  0  0  2  0  0  0  0  0  0
  1 15  1  0  0  0  0
  2 12  1  0  0  0  0
  3 21  1  0  0  0  0
  4 13  1  0  0  0  0
  4 14  2  0  0  0  0
  5 13  1  0  0  0  0
  6  2  2  0  0  0  0
  7  9  1  0  0  0  0
  8 10  1  0  0  0  0
 11  7  1  6  0  0  0
 11 16  1  0  0  0  0
 12  1  2  0  0  0  0
 13  7  2  0  0  0  0
 15 20  1  0  0  0  0
 16  2  1  1  0  0  0
 16  3  1  0  0  0  0
 17  8  2  0  0  0  0
 18 14  1  6  0  0  0
 18 11  1  0  0  0  0
 18  6  1  0  0  0  0
 19 10  2  0  0  0  0
 20 19  1  0  0  0  0
 21 17  1  0  0  0  0
 21 20  2  0  0  0  0
 22 25  2  0  0  0  0
 23 12  1  1  0  0  0
 23 24  1  0  0  0  0
 24 25  1  0  0  0  0
 26 22  1  0  0  0  0
 27 26  1  0  0  0  0
 27 23  1  0  0  0  0
M  END
>  <MODEL>
3

>  <REMARK>
 VINA RESULT:      -8.4      2.887      5.133
  Name = 
  1 active torsions:
  status: ('A' for Active; 'I' for Inactive)
    1  A    between atoms: C_9  and  C_15
                            x       y       z     vdW  Elec       q    Type
                         _______ _______ _______ _____ _____    ______ ____

>  <TORSDO>
F 1

$$$$
=
 OpenBabel10272400593D

 27 31  0  0  1  0  0  0  0  0999 V2000
  186.7010  179.1570  141.0610 N   0  0  0  0  0  0  0  0  0  0  0  0
  187.3840  177.4480  142.5420 C   0  0  1  0  0  3  0  0  0  0  0  0
  189.0530  176.8730  140.9000 N   0  0  0  0  0  2  0  0  0  0  0  0
  190.1320  177.2970  146.0620 C   0  0  0  0  0  3  0  0  0  0  0  0
  192.1510  178.4720  145.3310 F   0  0  0  0  0  0  0  0  0  0  0  0
  187.2920  177.1420  143.9730 C   0  0  0  0  0  3  0  0  0  0  0  0
  190.6770  177.6880  143.6830 C   0  0  0  0  0  0  0  0  0  0  0  0
  188.5700  176.1580  137.4210 N   0  0  0  0  0  0  0  0  0  0  0  0
  191.7490  178.3070  142.4330 Cl  0  0  0  0  0  0  0  0  0  0  0  0
  187.8530  177.2120  136.9640 C   0  0  0  0  0  3  0  0  0  0  0  0
  189.5060  176.8120  143.2970 C   0  0  2  0  0  3  0  0  0  0  0  0
  186.3730  178.1130  141.8550 C   0  0  0  0  0  0  0  0  0  0  0  0
  191.0140  177.8200  144.9820 C   0  0  0  0  0  0  0  0  0  0  0  0
  188.9120  176.8180  145.7890 C   0  0  0  0  0  3  0  0  0  0  0  0
  187.3500  179.1630  139.9260 O   0  0  0  0  0  0  0  0  0  0  0  0
  188.6990  177.2880  142.1330 C   0  0  2  0  0  3  0  0  0  0  0  0
  188.9070  176.0520  138.7310 C   0  0  0  0  0  3  0  0  0  0  0  0
  188.4940  176.7910  144.3880 C   0  0  0  0  0  0  0  0  0  0  0  0
  187.4440  178.2040  137.8480 C   0  0  0  0  0  3  0  0  0  0  0  0
  187.7280  178.1130  139.2160 C   0  0  0  0  0  0  0  0  0  0  0  0
  188.4890  177.0000  139.6750 C   0  0  0  0  0  0  0  0  0  0  0  0
  182.4310  179.0450  143.3290 C   0  0  0  0  0  3  0  0  0  0  0  0
  185.0220  178.1660  142.5120 C   0  0  2  0  0  3  0  0  0  0  0  0
  183.9150  178.2900  141.4620 C   0  0  0  0  0  2  0  0  0  0  0  0
  182.5690  178.5720  142.0810 C   0  0  0  0  0  3  0  0  0  0  0  0
  183.6040  179.2340  144.2580 C   0  0  0  0  0  2  0  0  0  0  0  0
  184.9270  179.3270  143.5020 C   0  0  0  0  0  2  0  0  0  0  0  0
  1 12  2  0  0  0  0
  2  6  1  1  0  0  0
  6 18  2  0  0  0  0
  7 13  2  0  0  0  0
  8 17  1  0  0  0  0
  9  7  1  0  0  0  0
 10  8  2  0  0  0  0
 10 19  1  0  0  0  0
 11  7  1  1  0  0  0
 11 18  1  0  0  0  0
 12  2  1  0  0  0  0
 13  5  1  0  0  0  0
 13  4  1  0  0  0  0
 14  4  2  0  0  0  0
 15  1  1  0  0  0  0
 16  3  1  6  0  0  0
 16  2  1  0  0  0  0
 16 11  1  0  0  0  0
 17 21  2  0  0  0  0
 18 14  1  0  0  0  0
 19 20  2  0  0  0  0
 20 21  1  0  0  0  0
 20 15  1  0  0  0  0
 21  3  1  0  0  0  0
 22 26  1  0  0  0  0
 23 12  1  6  0  0  0
 23 27  1  0  0  0  0
 24 25  1  0  0  0  0
 24 23  1  0  0  0  0
 25 22  2  0  0  0  0
 27 26  1  0  0  0  0
M  END
>  <MODEL>
4

>  <REMARK>
 VINA RESULT:      -8.3      3.239      5.728
  Name = 
  1 active torsions:
  status: ('A' for Active; 'I' for Inactive)
    1  A    between atoms: C_9  and  C_15
                            x       y       z     vdW  Elec       q    Type
                         _______ _______ _______ _____ _____    ______ ____

>  <TORSDO>
F 1

$$$$
=
 OpenBabel10272400593D

 27 31  0  0  1  0  0  0  0  0999 V2000
  187.0190  179.7100  141.3390 N   0  0  0  0  0  0  0  0  0  0  0  0
  186.7370  177.9550  142.8960 C   0  0  1  0  0  3  0  0  0  0  0  0
  188.8850  177.1380  142.1650 N   0  0  0  0  0  2  0  0  0  0  0  0
  187.5440  177.5190  147.2690 C   0  0  0  0  0  3  0  0  0  0  0  0
  189.8020  178.4100  147.5810 F   0  0  0  0  0  0  0  0  0  0  0  0
  185.9690  177.6910  144.1160 C   0  0  0  0  0  3  0  0  0  0  0  0
  189.1540  177.7900  145.4130 C   0  0  0  0  0  0  0  0  0  0  0  0
  189.9520  176.4250  138.8190 N   0  0  0  0  0  0  0  0  0  0  0  0
  190.7440  178.2420  144.8110 Cl  0  0  0  0  0  0  0  0  0  0  0  0
  189.6570  177.5530  138.1310 C   0  0  0  0  0  3  0  0  0  0  0  0
  188.1880  177.0660  144.5030 C   0  0  2  0  0  3  0  0  0  0  0  0
  186.2400  178.7320  141.8530 C   0  0  0  0  0  0  0  0  0  0  0  0
  188.8770  177.9030  146.7280 C   0  0  0  0  0  0  0  0  0  0  0  0
  186.5330  177.1970  146.4540 C   0  0  0  0  0  3  0  0  0  0  0  0
  188.1080  179.6100  140.6220 O   0  0  0  0  0  0  0  0  0  0  0  0
  188.0630  177.6190  143.1210 C   0  0  2  0  0  3  0  0  0  0  0  0
  189.6400  176.3010  140.1330 C   0  0  0  0  0  3  0  0  0  0  0  0
  186.7970  177.1970  145.0150 C   0  0  0  0  0  0  0  0  0  0  0  0
  189.0170  178.6070  138.7740 C   0  0  0  0  0  3  0  0  0  0  0  0
  188.6350  178.5060  140.1180 C   0  0  0  0  0  0  0  0  0  0  0  0
  188.9600  177.3130  140.8250 C   0  0  0  0  0  0  0  0  0  0  0  0
  181.9520  178.6900  142.2850 C   0  0  0  0  0  3  0  0  0  0  0  0
  184.7560  178.9720  141.8290 C   0  0  2  0  0  3  0  0  0  0  0  0
  184.2140  179.1420  143.2510 C   0  0  0  0  0  2  0  0  0  0  0  0
  182.7070  179.1590  143.2900 C   0  0  0  0  0  3  0  0  0  0  0  0
  182.5430  178.2040  140.9850 C   0  0  0  0  0  2  0  0  0  0  0  0
  184.0170  177.8320  141.1280 C   0  0  0  0  0  2  0  0  0  0  0  0
  1 12  2  0  0  0  0
  2 16  1  0  0  0  0
  2  6  1  1  0  0  0
  6 18  2  0  0  0  0
  7 13  2  0  0  0  0
  8 17  1  0  0  0  0
  9  7  1  0  0  0  0
 10 19  1  0  0  0  0
 10  8  2  0  0  0  0
 11 18  1  1  0  0  0
 11  7  1  0  0  0  0
 12  2  1  0  0  0  0
 13  4  1  0  0  0  0
 13  5  1  0  0  0  0
 14  4  2  0  0  0  0
 15  1  1  0  0  0  0
 16  3  1  6  0  0  0
 16 11  1  0  0  0  0
 17 21  2  0  0  0  0
 18 14  1  0  0  0  0
 19 20  2  0  0  0  0
 20 15  1  0  0  0  0
 20 21  1  0  0  0  0
 21  3  1  0  0  0  0
 22 25  2  0  0  0  0
 23 12  1  1  0  0  0
 23 24  1  0  0  0  0
 24 25  1  0  0  0  0
 26 27  1  0  0  0  0
 26 22  1  0  0  0  0
 27 23  1  0  0  0  0
M  END
>  <MODEL>
5

>  <REMARK>
 VINA RESULT:      -7.8      2.854      5.391
  Name = 
  1 active torsions:
  status: ('A' for Active; 'I' for Inactive)
    1  A    between atoms: C_9  and  C_15
                            x       y       z     vdW  Elec       q    Type
                         _______ _______ _______ _____ _____    ______ ____

>  <TORSDO>
F 1

$$$$
=
 OpenBabel10272400593D

 27 31  0  0  1  0  0  0  0  0999 V2000
  188.7600  176.2370  143.0700 N   0  0  0  0  0  0  0  0  0  0  0  0
  187.5920  178.2220  143.5980 C   0  0  1  0  0  3  0  0  0  0  0  0
  187.2490  178.4950  141.2270 N   0  0  0  0  0  2  0  0  0  0  0  0
  183.3800  179.1310  144.7790 C   0  0  0  0  0  3  0  0  0  0  0  0
  182.0010  177.8780  143.1920 F   0  0  0  0  0  0  0  0  0  0  0  0
  186.8930  178.8050  144.7480 C   0  0  0  0  0  3  0  0  0  0  0  0
  184.2390  178.2860  142.6210 C   0  0  0  0  0  0  0  0  0  0  0  0
  189.7150  178.4920  138.6270 N   0  0  0  0  0  0  0  0  0  0  0  0
  183.9970  177.4540  141.0890 Cl  0  0  0  0  0  0  0  0  0  0  0  0
  190.4160  177.3530  138.8380 C   0  0  0  0  0  3  0  0  0  0  0  0
  185.5260  179.0410  142.8660 C   0  0  2  0  0  3  0  0  0  0  0  0
  188.7150  177.4110  143.7390 C   0  0  0  0  0  0  0  0  0  0  0  0
  183.2090  178.4230  143.4810 C   0  0  0  0  0  0  0  0  0  0  0  0
  184.5890  179.5190  145.2020 C   0  0  0  0  0  3  0  0  0  0  0  0
  188.8790  176.0200  141.7860 O   0  0  0  0  0  0  0  0  0  0  0  0
  186.7790  178.3260  142.4800 C   0  0  2  0  0  3  0  0  0  0  0  0
  188.7110  178.8640  139.4590 C   0  0  0  0  0  3  0  0  0  0  0  0
  185.7290  179.2570  144.3250 C   0  0  0  0  0  0  0  0  0  0  0  0
  190.1130  176.5480  139.9310 C   0  0  0  0  0  3  0  0  0  0  0  0
  189.1160  176.9160  140.8420 C   0  0  0  0  0  0  0  0  0  0  0  0
  188.3860  178.1140  140.5980 C   0  0  0  0  0  0  0  0  0  0  0  0
  190.7220  176.6700  147.4810 C   0  0  0  0  0  3  0  0  0  0  0  0
  189.4300  177.4600  145.0610 C   0  0  2  0  0  3  0  0  0  0  0  0
  190.7650  176.7160  144.9800 C   0  0  0  0  0  2  0  0  0  0  0  0
  191.4080  176.5470  146.3340 C   0  0  0  0  0  3  0  0  0  0  0  0
  189.2750  177.0950  147.5190 C   0  0  0  0  0  2  0  0  0  0  0  0
  188.5750  176.8680  146.1810 C   0  0  0  0  0  2  0  0  0  0  0  0
  1 12  2  0  0  0  0
  2 12  1  0  0  0  0
  2  6  1  1  0  0  0
  4 14  2  0  0  0  0
  5 13  1  0  0  0  0
  7 13  2  0  0  0  0
  8 10  2  0  0  0  0
  8 17  1  0  0  0  0
  9  7  1  0  0  0  0
 10 19  1  0  0  0  0
 11  7  1  1  0  0  0
 11 18  1  0  0  0  0
 13  4  1  0  0  0  0
 15  1  1  0  0  0  0
 16  3  1  6  0  0  0
 16 11  1  0  0  0  0
 16  2  1  0  0  0  0
 17 21  2  0  0  0  0
 18  6  2  0  0  0  0
 18 14  1  0  0  0  0
 19 20  2  0  0  0  0
 20 15  1  0  0  0  0
 21 20  1  0  0  0  0
 21  3  1  0  0  0  0
 22 26  1  0  0  0  0
 23 12  1  6  0  0  0
 23 27  1  0  0  0  0
 24 23  1  0  0  0  0
 24 25  1  0  0  0  0
 25 22  2  0  0  0  0
 27 26  1  0  0  0  0
M  END
>  <MODEL>
6

>  <REMARK>
 VINA RESULT:      -7.7      1.096      1.402
  Name = 
  1 active torsions:
  status: ('A' for Active; 'I' for Inactive)
    1  A    between atoms: C_9  and  C_15
                            x       y       z     vdW  Elec       q    Type
                         _______ _______ _______ _____ _____    ______ ____

>  <TORSDO>
F 1

$$$$
=
 OpenBabel10272400593D

 27 31  0  0  1  0  0  0  0  0999 V2000
  184.5380  176.9490  137.8780 N   0  0  0  0  0  0  0  0  0  0  0  0
  186.0870  178.2730  139.0740 C   0  0  1  0  0  3  0  0  0  0  0  0
  184.1910  179.5180  139.8930 N   0  0  0  0  0  2  0  0  0  0  0  0
  188.1180  177.8730  143.0330 C   0  0  0  0  0  3  0  0  0  0  0  0
  186.3340  177.2590  144.5920 F   0  0  0  0  0  0  0  0  0  0  0  0
  187.4590  178.1610  139.5790 C   0  0  0  0  0  3  0  0  0  0  0  0
  185.7210  178.2310  142.5470 C   0  0  0  0  0  0  0  0  0  0  0  0
  181.5820  181.0710  137.9880 N   0  0  0  0  0  0  0  0  0  0  0  0
  184.0280  178.1440  143.0170 Cl  0  0  0  0  0  0  0  0  0  0  0  0
  181.1380  180.0860  137.1720 C   0  0  0  0  0  3  0  0  0  0  0  0
  186.1130  178.9910  141.3010 C   0  0  2  0  0  3  0  0  0  0  0  0
  185.6780  177.6760  137.8850 C   0  0  0  0  0  0  0  0  0  0  0  0
  186.6770  177.8020  143.3980 C   0  0  0  0  0  0  0  0  0  0  0  0
  188.5040  178.2190  141.7990 C   0  0  0  0  0  3  0  0  0  0  0  0
  183.2990  177.3490  137.9960 O   0  0  0  0  0  0  0  0  0  0  0  0
  185.2700  178.7340  140.0950 C   0  0  2  0  0  3  0  0  0  0  0  0
  182.6210  180.8660  138.8360 C   0  0  0  0  0  3  0  0  0  0  0  0
  187.4600  178.5620  140.8350 C   0  0  0  0  0  0  0  0  0  0  0  0
  181.7570  178.8400  137.1920 C   0  0  0  0  0  3  0  0  0  0  0  0
  182.8620  178.5980  138.0180 C   0  0  0  0  0  0  0  0  0  0  0  0
  183.3080  179.6450  138.8740 C   0  0  0  0  0  0  0  0  0  0  0  0
  188.1000  176.2990  134.5960 C   0  0  0  0  0  3  0  0  0  0  0  0
  186.7580  177.2430  136.9320 C   0  0  2  0  0  3  0  0  0  0  0  0
  186.7340  178.1020  135.6650 C   0  0  0  0  0  2  0  0  0  0  0  0
  187.6470  177.5620  134.5920 C   0  0  0  0  0  3  0  0  0  0  0  0
  187.8250  175.3430  135.7300 C   0  0  0  0  0  2  0  0  0  0  0  0
  186.6160  175.7680  136.5590 C   0  0  0  0  0  2  0  0  0  0  0  0
  1 12  2  0  0  0  0
  1 15  1  0  0  0  0
  2  6  1  1  0  0  0
  2 16  1  0  0  0  0
  4 13  1  0  0  0  0
  6 18  2  0  0  0  0
  7  9  1  0  0  0  0
  7 13  2  0  0  0  0
  8 17  1  0  0  0  0
 10 19  1  0  0  0  0
 10  8  2  0  0  0  0
 11 18  1  6  0  0  0
 11  7  1  0  0  0  0
 12  2  1  0  0  0  0
 13  5  1  0  0  0  0
 14  4  2  0  0  0  0
 15 20  1  0  0  0  0
 16  3  1  6  0  0  0
 16 11  1  0  0  0  0
 17 21  2  0  0  0  0
 18 14  1  0  0  0  0
 19 20  2  0  0  0  0
 20 21  1  0  0  0  0
 21  3  1  0  0  0  0
 22 26  1  0  0  0  0
 23 12  1  1  0  0  0
 24 23  1  0  0  0  0
 25 22  2  0  0  0  0
 25 24  1  0  0  0  0
 26 27  1  0  0  0  0
 27 23  1  0  0  0  0
M  END
>  <MODEL>
7

>  <REMARK>
 VINA RESULT:      -7.5      4.050      7.587
  Name = 
  1 active torsions:
  status: ('A' for Active; 'I' for Inactive)
    1  A    between atoms: C_9  and  C_15
                            x       y       z     vdW  Elec       q    Type
                         _______ _______ _______ _____ _____    ______ ____

>  <TORSDO>
F 1

$$$$
=
 OpenBabel10272400593D

 27 31  0  0  1  0  0  0  0  0999 V2000
  186.0350  176.9820  144.5790 N   0  0  0  0  0  0  0  0  0  0  0  0
  187.2620  178.4020  143.1440 C   0  0  0  0  0  0  0  0  0  0  0  0
  189.1570  177.9980  144.5810 N   0  0  0  0  0  2  0  0  0  0  0  0
  189.4620  177.7960  139.3030 C   0  0  0  0  0  3  0  0  0  0  0  0
  190.8140  175.7880  139.6660 F   0  0  0  0  0  0  0  0  0  0  0  0
  187.1850  178.8930  141.7650 C   0  0  0  0  0  3  0  0  0  0  0  0
  189.9930  176.9180  141.5510 C   0  0  0  0  0  0  0  0  0  0  0  0
  189.3580  178.4130  148.1340 N   0  0  0  0  0  0  0  0  0  0  0  0
  190.7930  175.7490  142.5960 Cl  0  0  0  0  0  0  0  0  0  0  0  0
  188.2950  177.7210  148.6090 C   0  0  0  0  0  3  0  0  0  0  0  0
  189.3680  178.1550  142.1550 C   0  0  2  0  0  3  0  0  0  0  0  0
  186.1290  178.1550  143.9140 C   0  0  0  0  0  0  0  0  0  0  0  0
  190.1170  176.8160  140.2120 C   0  0  0  0  0  0  0  0  0  0  0  0
  188.6080  178.7130  139.7730 C   0  0  0  0  0  3  0  0  0  0  0  0
  186.7150  176.5580  145.6110 O   0  0  0  0  0  0  0  0  0  0  0  0
  188.5440  177.9310  143.3800 C   0  0  2  0  0  3  0  0  0  0  0  0
  189.5850  178.5270  146.8020 C   0  0  0  0  0  3  0  0  0  0  0  0
  188.3740  178.7430  141.2160 C   0  0  1  0  0  3  0  0  0  0  0  0
  187.4120  177.1180  147.7200 C   0  0  0  0  0  3  0  0  0  0  0  0
  187.5810  177.2480  146.3360 C   0  0  0  0  0  0  0  0  0  0  0  0
  188.7090  177.9740  145.8580 C   0  0  0  0  0  0  0  0  0  0  0  0
  182.0840  179.1300  142.7900 C   0  0  0  0  0  3  0  0  0  0  0  0
  184.8390  178.7680  143.4450 C   0  0  2  0  0  3  0  0  0  0  0  0
  183.8030  178.7740  144.5720 C   0  0  0  0  0  2  0  0  0  0  0  0
  182.4310  179.1700  144.0850 C   0  0  0  0  0  3  0  0  0  0  0  0
  183.0660  178.7880  141.6970 C   0  0  0  0  0  2  0  0  0  0  0  0
  184.2770  178.0280  142.2310 C   0  0  0  0  0  2  0  0  0  0  0  0
  1 15  1  0  0  0  0
  2 12  1  0  0  0  0
  3 21  1  0  0  0  0
  4 14  2  0  0  0  0
  4 13  1  0  0  0  0
  5 13  1  0  0  0  0
  6  2  2  0  0  0  0
  7  9  1  0  0  0  0
  8 10  1  0  0  0  0
 11  7  1  6  0  0  0
 11 16  1  0  0  0  0
 12  1  2  0  0  0  0
 13  7  2  0  0  0  0
 15 20  1  0  0  0  0
 16  2  1  1  0  0  0
 16  3  1  0  0  0  0
 17  8  2  0  0  0  0
 18 14  1  6  0  0  0
 18  6  1  0  0  0  0
 18 11  1  0  0  0  0
 19 10  2  0  0  0  0
 20 19  1  0  0  0  0
 21 20  2  0  0  0  0
 21 17  1  0  0  0  0
 22 25  2  0  0  0  0
 23 12  1  1  0  0  0
 23 24  1  0  0  0  0
 25 24  1  0  0  0  0
 26 27  1  0  0  0  0
 26 22  1  0  0  0  0
 27 23  1  0  0  0  0
M  END
>  <MODEL>
8

>  <REMARK>
 VINA RESULT:      -7.4      2.937      6.275
  Name = 
  1 active torsions:
  status: ('A' for Active; 'I' for Inactive)
    1  A    between atoms: C_9  and  C_15
                            x       y       z     vdW  Elec       q    Type
                         _______ _______ _______ _____ _____    ______ ____

>  <TORSDO>
F 1

$$$$
=
 OpenBabel10272400593D

 27 31  0  0  1  0  0  0  0  0999 V2000
  187.3090  176.5370  143.2340 N   0  0  0  0  0  0  0  0  0  0  0  0
  186.8080  178.3220  141.7700 C   0  0  1  0  0  3  0  0  0  0  0  0
  188.8330  177.7520  140.5920 N   0  0  0  0  0  2  0  0  0  0  0  0
  184.2570  178.7340  138.1250 C   0  0  0  0  0  3  0  0  0  0  0  0
  184.8290  176.7990  136.7390 F   0  0  0  0  0  0  0  0  0  0  0  0
  185.6340  179.0960  141.3530 C   0  0  0  0  0  3  0  0  0  0  0  0
  186.3320  177.4250  138.4280 C   0  0  0  0  0  0  0  0  0  0  0  0
  192.1370  177.3920  141.9320 N   0  0  0  0  0  0  0  0  0  0  0  0
  187.4080  176.1180  137.9510 Cl  0  0  0  0  0  0  0  0  0  0  0  0
  191.9820  176.5380  142.9710 C   0  0  0  0  0  3  0  0  0  0  0  0
  186.8020  178.4520  139.4340 C   0  0  2  0  0  3  0  0  0  0  0  0
  186.9570  177.8310  143.0640 C   0  0  0  0  0  0  0  0  0  0  0  0
  185.1820  177.6290  137.7520 C   0  0  0  0  0  0  0  0  0  0  0  0
  184.4560  179.4610  139.2310 C   0  0  0  0  0  3  0  0  0  0  0  0
  188.4480  175.9470  142.9780 O   0  0  0  0  0  0  0  0  0  0  0  0
  187.4930  177.9050  140.6400 C   0  0  2  0  0  3  0  0  0  0  0  0
  191.0750  177.8110  141.2000 C   0  0  0  0  0  3  0  0  0  0  0  0
  185.6380  179.1570  140.0360 C   0  0  0  0  0  0  0  0  0  0  0  0
  190.7100  176.0810  143.3040 C   0  0  0  0  0  3  0  0  0  0  0  0
  189.5800  176.5230  142.6060 C   0  0  0  0  0  0  0  0  0  0  0  0
  189.7670  177.4160  141.5130 C   0  0  0  0  0  0  0  0  0  0  0  0
  184.3100  178.7260  146.3460 C   0  0  0  0  0  3  0  0  0  0  0  0
  186.0850  178.4370  144.1290 C   0  0  2  0  0  3  0  0  0  0  0  0
  186.5630  178.0160  145.5210 C   0  0  0  0  0  2  0  0  0  0  0  0
  185.5900  178.4130  146.6030 C   0  0  0  0  0  3  0  0  0  0  0  0
  183.7630  178.8120  144.9430 C   0  0  0  0  0  2  0  0  0  0  0  0
  184.6210  178.0410  143.9430 C   0  0  0  0  0  2  0  0  0  0  0  0
  2  6  1  6  0  0  0
  2 12  1  0  0  0  0
  3 21  1  0  0  0  0
  4 14  2  0  0  0  0
  5 13  1  0  0  0  0
  8 10  1  0  0  0  0
  9  7  1  0  0  0  0
 10 19  2  0  0  0  0
 11  7  1  6  0  0  0
 11 18  1  0  0  0  0
 11 16  1  0  0  0  0
 12  1  2  0  0  0  0
 13  4  1  0  0  0  0
 13  7  2  0  0  0  0
 14 18  1  0  0  0  0
 15  1  1  0  0  0  0
 16  3  1  1  0  0  0
 16  2  1  0  0  0  0
 17 21  1  0  0  0  0
 17  8  2  0  0  0  0
 18  6  2  0  0  0  0
 20 15  1  0  0  0  0
 20 19  1  0  0  0  0
 21 20  2  0  0  0  0
 22 25  2  0  0  0  0
 23 12  1  6  0  0  0
 23 24  1  0  0  0  0
 24 25  1  0  0  0  0
 26 22  1  0  0  0  0
 27 23  1  0  0  0  0
 27 26  1  0  0  0  0
M  END
>  <MODEL>
9

>  <REMARK>
 VINA RESULT:      -7.4      2.509      3.572
  Name = 
  1 active torsions:
  status: ('A' for Active; 'I' for Inactive)
    1  A    between atoms: C_9  and  C_15
                            x       y       z     vdW  Elec       q    Type
                         _______ _______ _______ _____ _____    ______ ____

>  <TORSDO>
F 1

$$$$
