=
 OpenBabel10272401483D

 28 31  0  0  1  0  0  0  0  0999 V2000
  188.3090  177.2850  145.5750 C   0  0  2  0  0  3  0  0  0  0  0  0
  192.1150  176.0680  146.7390 O   0  0  0  0  0  0  0  0  0  0  0  0
  190.2600  177.1110  142.2760 N   0  0  0  0  0  0  0  0  0  0  0  0
  190.6180  176.4530  144.9780 N   0  0  0  0  0  0  0  0  0  0  0  0
  189.3810  177.7130  143.2830 C   0  0  0  0  0  2  0  0  0  0  0  0
  190.0910  177.1040  147.4030 C   0  0  0  0  0  2  0  0  0  0  0  0
  191.6160  176.1070  144.0030 C   0  0  0  0  0  3  0  0  0  0  0  0
  190.9980  176.5190  146.3680 C   0  0  0  0  0  0  0  0  0  0  0  0
  191.4360  176.4010  142.7130 C   0  0  0  0  0  3  0  0  0  0  0  0
  189.1100  178.4620  146.7050 S   0  0  0  0  0  0  0  0  0  0  0  0
  189.2660  176.7780  144.4860 C   0  0  2  0  0  3  0  0  0  0  0  0
  188.8320  177.8150  140.4850 C   0  0  0  0  0  3  0  0  0  0  0  0
  191.0360  176.7180  138.6710 C   0  0  0  0  0  3  0  0  0  0  0  0
  188.6050  176.9580  138.1990 C   0  0  0  0  0  0  0  0  0  0  0  0
  190.0420  177.3890  140.8770 C   0  0  0  0  0  0  0  0  0  0  0  0
  192.5560  177.5370  140.3530 C   0  0  0  0  0  1  0  0  0  0  0  0
  189.7760  176.3580  137.9920 C   0  0  0  0  0  3  0  0  0  0  0  0
  191.1680  177.2190  139.9080 C   0  0  0  0  0  0  0  0  0  0  0  0
  187.5130  176.5250  137.5270 F   0  0  0  0  0  0  0  0  0  0  0  0
  188.4850  178.1600  139.0760 C   0  0  0  0  0  2  0  0  0  0  0  0
  186.9800  177.7590  145.0550 C   0  0  0  0  0  0  0  0  0  0  0  0
  186.7070  177.7660  143.6790 C   0  0  0  0  0  3  0  0  0  0  0  0
  184.7250  178.5540  145.4840 C   0  0  0  0  0  0  0  0  0  0  0  0
  185.4560  178.1700  143.2080 C   0  0  0  0  0  3  0  0  0  0  0  0
  186.2160  178.1330  147.2960 F   0  0  0  0  0  0  0  0  0  0  0  0
  185.9780  178.1490  145.9590 C   0  0  0  0  0  0  0  0  0  0  0  0
  183.7560  178.9330  146.3530 F   0  0  0  0  0  0  0  0  0  0  0  0
  184.4650  178.5640  144.1110 C   0  0  0  0  0  3  0  0  0  0  0  0
  1 21  1  6  0  0  0
  1 10  1  0  0  0  0
  3  9  1  0  0  0  0
  3  5  1  0  0  0  0
  4  8  1  0  0  0  0
  7  4  1  0  0  0  0
  8  2  2  0  0  0  0
  8  6  1  0  0  0  0
  9  7  2  0  0  0  0
 10  6  1  0  0  0  0
 11  5  1  6  0  0  0
 11  4  1  0  0  0  0
 11  1  1  0  0  0  0
 12 15  2  0  0  0  0
 13 18  2  0  0  0  0
 14 20  1  0  0  0  0
 15  3  1  0  0  0  0
 17 14  2  0  0  0  0
 17 13  1  0  0  0  0
 18 16  1  0  0  0  0
 18 15  1  0  0  0  0
 19 14  1  0  0  0  0
 20 12  1  0  0  0  0
 21 26  1  0  0  0  0
 22 21  2  0  0  0  0
 23 26  2  0  0  0  0
 23 27  1  0  0  0  0
 24 22  1  0  0  0  0
 24 28  2  0  0  0  0
 26 25  1  0  0  0  0
 28 23  1  0  0  0  0
M  END
>  <MODEL>
1

>  <REMARK>
 VINA RESULT:      -9.5      0.000      0.000
  Name = 
  2 active torsions:
  status: ('A' for Active; 'I' for Inactive)
    1  A    between atoms: C_1  and  C_2
    2  A    between atoms: N_10  and  C_13
                            x       y       z     vdW  Elec       q    Type
                         _______ _______ _______ _____ _____    ______ ____

>  <TORSDO>
F 2

$$$$
=
 OpenBabel10272401483D

 28 31  0  0  1  0  0  0  0  0999 V2000
  190.5130  176.2750  137.2040 C   0  0  2  0  0  3  0  0  0  0  0  0
  194.5990  175.8200  137.8590 O   0  0  0  0  0  0  0  0  0  0  0  0
  190.9660  177.2780  140.8790 N   0  0  0  0  0  0  0  0  0  0  0  0
  192.5480  176.6250  138.6590 N   0  0  0  0  0  0  0  0  0  0  0  0
  190.3570  176.5730  139.7480 C   0  0  0  0  0  2  0  0  0  0  0  0
  192.7340  175.1890  136.5410 C   0  0  0  0  0  2  0  0  0  0  0  0
  193.1560  177.0640  139.8860 C   0  0  0  0  0  3  0  0  0  0  0  0
  193.3480  175.8840  137.7140 C   0  0  0  0  0  0  0  0  0  0  0  0
  192.4020  177.3960  140.9360 C   0  0  0  0  0  3  0  0  0  0  0  0
  191.0800  174.5670  136.9560 S   0  0  0  0  0  0  0  0  0  0  0  0
  191.1150  176.9120  138.4660 C   0  0  2  0  0  3  0  0  0  0  0  0
  190.7300  177.8540  143.1930 C   0  0  0  0  0  3  0  0  0  0  0  0
  187.7310  177.5650  142.6700 C   0  0  0  0  0  3  0  0  0  0  0  0
  188.9750  177.2800  144.8060 C   0  0  0  0  0  0  0  0  0  0  0  0
  190.1470  177.6800  141.9970 C   0  0  0  0  0  0  0  0  0  0  0  0
  188.2200  178.4900  140.4990 C   0  0  0  0  0  1  0  0  0  0  0  0
  187.9310  177.0090  144.0220 C   0  0  0  0  0  3  0  0  0  0  0  0
  188.6840  177.9140  141.7940 C   0  0  0  0  0  0  0  0  0  0  0  0
  189.0560  176.6930  146.0230 F   0  0  0  0  0  0  0  0  0  0  0  0
  190.0020  178.2920  144.4200 C   0  0  0  0  0  2  0  0  0  0  0  0
  189.0230  176.4390  137.0820 C   0  0  0  0  0  0  0  0  0  0  0  0
  188.1690  175.3290  137.1560 C   0  0  0  0  0  3  0  0  0  0  0  0
  187.0860  177.8890  136.8720 C   0  0  0  0  0  0  0  0  0  0  0  0
  186.7840  175.4970  137.0820 C   0  0  0  0  0  3  0  0  0  0  0  0
  189.2830  178.8140  136.8910 F   0  0  0  0  0  0  0  0  0  0  0  0
  188.4750  177.7250  136.9470 C   0  0  0  0  0  0  0  0  0  0  0  0
  186.5520  179.1290  136.7400 F   0  0  0  0  0  0  0  0  0  0  0  0
  186.2440  176.7760  136.9400 C   0  0  0  0  0  3  0  0  0  0  0  0
  1 21  1  1  0  0  0
  1 11  1  0  0  0  0
  3  9  1  0  0  0  0
  3 15  1  0  0  0  0
  4  7  1  0  0  0  0
  5  3  1  0  0  0  0
  6 10  1  0  0  0  0
  6  8  1  0  0  0  0
  7  9  2  0  0  0  0
  8  2  2  0  0  0  0
  8  4  1  0  0  0  0
 10  1  1  0  0  0  0
 11  4  1  0  0  0  0
 11  5  1  1  0  0  0
 12 20  1  0  0  0  0
 13 17  1  0  0  0  0
 14 19  1  0  0  0  0
 15 12  2  0  0  0  0
 16 18  1  0  0  0  0
 17 14  2  0  0  0  0
 18 15  1  0  0  0  0
 18 13  2  0  0  0  0
 20 14  1  0  0  0  0
 21 22  1  0  0  0  0
 23 28  2  0  0  0  0
 23 26  1  0  0  0  0
 24 22  2  0  0  0  0
 25 26  1  0  0  0  0
 26 21  2  0  0  0  0
 27 23  1  0  0  0  0
 28 24  1  0  0  0  0
M  END
>  <MODEL>
2

>  <REMARK>
 VINA RESULT:      -9.5      3.561      7.271
  Name = 
  2 active torsions:
  status: ('A' for Active; 'I' for Inactive)
    1  A    between atoms: C_1  and  C_2
    2  A    between atoms: N_10  and  C_13
                            x       y       z     vdW  Elec       q    Type
                         _______ _______ _______ _____ _____    ______ ____

>  <TORSDO>
F 2

$$$$
=
 OpenBabel10272401483D

 28 31  0  0  1  0  0  0  0  0999 V2000
  189.4930  177.5090  143.5190 C   0  0  2  0  0  3  0  0  0  0  0  0
  192.5290  177.3150  140.6780 O   0  0  0  0  0  0  0  0  0  0  0  0
  187.6700  178.0900  140.1930 N   0  0  0  0  0  0  0  0  0  0  0  0
  190.2260  177.3840  141.1040 N   0  0  0  0  0  0  0  0  0  0  0  0
  188.0330  178.3600  141.5870 C   0  0  0  0  0  2  0  0  0  0  0  0
  191.9800  177.7090  142.9480 C   0  0  0  0  0  2  0  0  0  0  0  0
  189.9270  177.3890  139.6980 C   0  0  0  0  0  3  0  0  0  0  0  0
  191.6040  177.4640  141.5220 C   0  0  0  0  0  0  0  0  0  0  0  0
  188.7040  177.7040  139.2650 C   0  0  0  0  0  3  0  0  0  0  0  0
  190.7630  178.7860  143.7570 S   0  0  0  0  0  0  0  0  0  0  0  0
  189.0890  177.3560  142.0440 C   0  0  2  0  0  3  0  0  0  0  0  0
  185.4330  178.8380  140.6130 C   0  0  0  0  0  3  0  0  0  0  0  0
  184.8350  177.7180  137.8320 C   0  0  0  0  0  3  0  0  0  0  0  0
  183.2890  178.0090  139.7600 C   0  0  0  0  0  0  0  0  0  0  0  0
  186.3350  178.3860  139.7310 C   0  0  0  0  0  0  0  0  0  0  0  0
  187.0450  178.4910  137.2610 C   0  0  0  0  0  1  0  0  0  0  0  0
  183.6410  177.3890  138.6340 C   0  0  0  0  0  3  0  0  0  0  0  0
  185.9990  178.2040  138.2850 C   0  0  0  0  0  0  0  0  0  0  0  0
  182.1780  177.6030  140.4180 F   0  0  0  0  0  0  0  0  0  0  0  0
  184.0300  179.2040  140.2600 C   0  0  0  0  0  2  0  0  0  0  0  0
  188.3310  177.6310  144.4650 C   0  0  0  0  0  0  0  0  0  0  0  0
  187.0200  177.7590  143.9820 C   0  0  0  0  0  3  0  0  0  0  0  0
  187.4710  177.6340  146.7370 C   0  0  0  0  0  0  0  0  0  0  0  0
  185.9440  177.8320  144.8690 C   0  0  0  0  0  3  0  0  0  0  0  0
  189.8110  177.4190  146.3380 F   0  0  0  0  0  0  0  0  0  0  0  0
  188.5520  177.5600  145.8500 C   0  0  0  0  0  0  0  0  0  0  0  0
  187.6800  177.5690  148.0750 F   0  0  0  0  0  0  0  0  0  0  0  0
  186.1690  177.7690  146.2460 C   0  0  0  0  0  3  0  0  0  0  0  0
  1 10  1  0  0  0  0
  1 21  1  1  0  0  0
  2  8  2  0  0  0  0
  3  5  1  0  0  0  0
  4  8  1  0  0  0  0
  4 11  1  0  0  0  0
  6 10  1  0  0  0  0
  7  4  1  0  0  0  0
  8  6  1  0  0  0  0
  9  7  2  0  0  0  0
  9  3  1  0  0  0  0
 11  5  1  6  0  0  0
 11  1  1  0  0  0  0
 13 18  2  0  0  0  0
 13 17  1  0  0  0  0
 14 20  1  0  0  0  0
 14 19  1  0  0  0  0
 15  3  1  0  0  0  0
 15 12  2  0  0  0  0
 16 18  1  0  0  0  0
 17 14  2  0  0  0  0
 18 15  1  0  0  0  0
 20 12  1  0  0  0  0
 21 26  1  0  0  0  0
 22 21  2  0  0  0  0
 22 24  1  0  0  0  0
 23 27  1  0  0  0  0
 24 28  2  0  0  0  0
 26 25  1  0  0  0  0
 26 23  2  0  0  0  0
 28 23  1  0  0  0  0
M  END
>  <MODEL>
3

>  <REMARK>
 VINA RESULT:      -9.3      2.843      4.326
  Name = 
  2 active torsions:
  status: ('A' for Active; 'I' for Inactive)
    1  A    between atoms: C_1  and  C_2
    2  A    between atoms: N_10  and  C_13
                            x       y       z     vdW  Elec       q    Type
                         _______ _______ _______ _____ _____    ______ ____

>  <TORSDO>
F 2

$$$$
=
 OpenBabel10272401483D

 28 31  0  0  1  0  0  0  0  0999 V2000
  188.2220  177.3010  144.3740 C   0  0  2  0  0  3  0  0  0  0  0  0
  192.0380  176.0750  143.2520 O   0  0  0  0  0  0  0  0  0  0  0  0
  188.2160  177.6750  140.5560 N   0  0  0  0  0  0  0  0  0  0  0  0
  189.8710  176.6510  142.5740 N   0  0  0  0  0  0  0  0  0  0  0  0
  187.9960  178.0920  141.9430 C   0  0  0  0  0  2  0  0  0  0  0  0
  190.6770  176.9270  144.9940 C   0  0  0  0  0  2  0  0  0  0  0  0
  190.2200  176.4860  141.1890 C   0  0  0  0  0  3  0  0  0  0  0  0
  190.9070  176.5320  143.5700 C   0  0  0  0  0  0  0  0  0  0  0  0
  189.4210  176.9550  140.2280 C   0  0  0  0  0  3  0  0  0  0  0  0
  189.5330  178.3330  145.0930 S   0  0  0  0  0  0  0  0  0  0  0  0
  188.4710  176.9920  142.8900 C   0  0  2  0  0  3  0  0  0  0  0  0
  186.0520  178.4080  139.8330 C   0  0  0  0  0  3  0  0  0  0  0  0
  187.1770  178.0370  137.0140 C   0  0  0  0  0  3  0  0  0  0  0  0
  184.8110  177.9220  137.7750 C   0  0  0  0  0  0  0  0  0  0  0  0
  187.3280  178.1420  139.5180 C   0  0  0  0  0  0  0  0  0  0  0  0
  189.2560  178.8150  137.9540 C   0  0  0  0  0  1  0  0  0  0  0  0
  185.7770  177.5810  136.9230 C   0  0  0  0  0  3  0  0  0  0  0  0
  187.8540  178.3380  138.1320 C   0  0  0  0  0  0  0  0  0  0  0  0
  183.5650  177.4230  137.5960 F   0  0  0  0  0  0  0  0  0  0  0  0
  185.0420  178.9200  138.8610 C   0  0  0  0  0  2  0  0  0  0  0  0
  186.8340  177.7930  144.6760 C   0  0  0  0  0  0  0  0  0  0  0  0
  185.9600  178.1600  143.6410 C   0  0  0  0  0  3  0  0  0  0  0  0
  185.0800  178.2560  146.2920 C   0  0  0  0  0  0  0  0  0  0  0  0
  184.6590  178.5780  143.9300 C   0  0  0  0  0  3  0  0  0  0  0  0
  187.2090  177.4680  147.0200 F   0  0  0  0  0  0  0  0  0  0  0  0
  186.3850  177.8350  146.0060 C   0  0  0  0  0  0  0  0  0  0  0  0
  184.6430  178.3000  147.5750 F   0  0  0  0  0  0  0  0  0  0  0  0
  184.2200  178.6260  145.2550 C   0  0  0  0  0  3  0  0  0  0  0  0
  1 21  1  6  0  0  0
  1 10  1  0  0  0  0
  2  8  2  0  0  0  0
  3  5  1  0  0  0  0
  4 11  1  0  0  0  0
  4  8  1  0  0  0  0
  6 10  1  0  0  0  0
  7  4  1  0  0  0  0
  8  6  1  0  0  0  0
  9  3  1  0  0  0  0
  9  7  2  0  0  0  0
 11  5  1  6  0  0  0
 11  1  1  0  0  0  0
 13 18  2  0  0  0  0
 14 20  1  0  0  0  0
 15 12  2  0  0  0  0
 15  3  1  0  0  0  0
 16 18  1  0  0  0  0
 17 13  1  0  0  0  0
 17 14  2  0  0  0  0
 18 15  1  0  0  0  0
 19 14  1  0  0  0  0
 20 12  1  0  0  0  0
 21 26  1  0  0  0  0
 22 24  1  0  0  0  0
 22 21  2  0  0  0  0
 23 27  1  0  0  0  0
 24 28  2  0  0  0  0
 26 23  2  0  0  0  0
 26 25  1  0  0  0  0
 28 23  1  0  0  0  0
M  END
>  <MODEL>
4

>  <REMARK>
 VINA RESULT:      -9.3      1.984      2.772
  Name = 
  2 active torsions:
  status: ('A' for Active; 'I' for Inactive)
    1  A    between atoms: C_1  and  C_2
    2  A    between atoms: N_10  and  C_13
                            x       y       z     vdW  Elec       q    Type
                         _______ _______ _______ _____ _____    ______ ____

>  <TORSDO>
F 2

$$$$
=
 OpenBabel10272401483D

 28 31  0  0  1  0  0  0  0  0999 V2000
  188.9250  178.0820  140.2850 C   0  0  2  0  0  3  0  0  0  0  0  0
  192.9810  177.1820  140.5510 O   0  0  0  0  0  0  0  0  0  0  0  0
  189.4660  177.3990  144.0220 N   0  0  0  0  0  0  0  0  0  0  0  0
  190.9890  177.6730  141.6840 N   0  0  0  0  0  0  0  0  0  0  0  0
  188.8070  177.2750  142.7190 C   0  0  0  0  0  2  0  0  0  0  0  0
  191.0710  177.2690  139.1520 C   0  0  0  0  0  2  0  0  0  0  0  0
  191.6320  177.5160  142.9600 C   0  0  0  0  0  3  0  0  0  0  0  0
  191.7350  177.3660  140.4880 C   0  0  0  0  0  0  0  0  0  0  0  0
  190.9070  177.4070  144.0760 C   0  0  0  0  0  3  0  0  0  0  0  0
  189.3860  176.6160  139.3170 S   0  0  0  0  0  0  0  0  0  0  0  0
  189.5740  178.0890  141.6780 C   0  0  2  0  0  3  0  0  0  0  0  0
  187.3450  177.3790  145.1360 C   0  0  0  0  0  3  0  0  0  0  0  0
  188.9930  177.7920  147.6790 C   0  0  0  0  0  3  0  0  0  0  0  0
  186.6340  178.4440  147.2270 C   0  0  0  0  0  0  0  0  0  0  0  0
  188.6820  177.3280  145.2310 C   0  0  0  0  0  0  0  0  0  0  0  0
  190.6220  176.3660  146.6200 C   0  0  0  0  0  1  0  0  0  0  0  0
  187.7860  178.6180  147.8750 C   0  0  0  0  0  3  0  0  0  0  0  0
  189.3730  177.1780  146.5490 C   0  0  0  0  0  0  0  0  0  0  0  0
  185.6000  179.2800  147.4810 F   0  0  0  0  0  0  0  0  0  0  0  0
  186.4220  177.2890  146.3050 C   0  0  0  0  0  2  0  0  0  0  0  0
  187.4470  178.3590  140.2940 C   0  0  0  0  0  0  0  0  0  0  0  0
  186.8010  178.7810  141.4650 C   0  0  0  0  0  3  0  0  0  0  0  0
  185.3440  178.5410  139.0930 C   0  0  0  0  0  0  0  0  0  0  0  0
  185.4350  179.0740  141.4520 C   0  0  0  0  0  3  0  0  0  0  0  0
  187.3230  177.8570  137.9530 F   0  0  0  0  0  0  0  0  0  0  0  0
  186.7130  178.2470  139.1020 C   0  0  0  0  0  0  0  0  0  0  0  0
  184.6300  178.4330  137.9450 F   0  0  0  0  0  0  0  0  0  0  0  0
  184.7070  178.9540  140.2670 C   0  0  0  0  0  3  0  0  0  0  0  0
  1 21  1  1  0  0  0
  1 11  1  0  0  0  0
  3  9  1  0  0  0  0
  3 15  1  0  0  0  0
  4  7  1  0  0  0  0
  5  3  1  0  0  0  0
  6 10  1  0  0  0  0
  6  8  1  0  0  0  0
  7  9  2  0  0  0  0
  8  2  2  0  0  0  0
  8  4  1  0  0  0  0
 10  1  1  0  0  0  0
 11  4  1  0  0  0  0
 11  5  1  1  0  0  0
 12 15  2  0  0  0  0
 12 20  1  0  0  0  0
 13 17  1  0  0  0  0
 14 19  1  0  0  0  0
 14 17  2  0  0  0  0
 15 18  1  0  0  0  0
 18 16  1  0  0  0  0
 18 13  2  0  0  0  0
 20 14  1  0  0  0  0
 21 22  1  0  0  0  0
 23 26  1  0  0  0  0
 23 28  2  0  0  0  0
 24 22  2  0  0  0  0
 25 26  1  0  0  0  0
 26 21  2  0  0  0  0
 27 23  1  0  0  0  0
 28 24  1  0  0  0  0
M  END
>  <MODEL>
5

>  <REMARK>
 VINA RESULT:      -9.2      2.493      6.401
  Name = 
  2 active torsions:
  status: ('A' for Active; 'I' for Inactive)
    1  A    between atoms: C_1  and  C_2
    2  A    between atoms: N_10  and  C_13
                            x       y       z     vdW  Elec       q    Type
                         _______ _______ _______ _____ _____    ______ ____

>  <TORSDO>
F 2

$$$$
=
 OpenBabel10272401483D

 28 31  0  0  1  0  0  0  0  0999 V2000
  190.1940  177.1280  143.2790 C   0  0  2  0  0  3  0  0  0  0  0  0
  191.1920  177.2270  139.2390 O   0  0  0  0  0  0  0  0  0  0  0  0
  187.0060  178.4240  141.5830 N   0  0  0  0  0  0  0  0  0  0  0  0
  189.5080  177.3850  140.8610 N   0  0  0  0  0  0  0  0  0  0  0  0
  188.0900  178.4140  142.5700 C   0  0  0  0  0  2  0  0  0  0  0  0
  191.9970  177.2460  141.4670 C   0  0  0  0  0  2  0  0  0  0  0  0
  188.5160  177.6630  139.8590 C   0  0  0  0  0  3  0  0  0  0  0  0
  190.8910  177.2890  140.4620 C   0  0  0  0  0  0  0  0  0  0  0  0
  187.3170  178.1370  140.2050 C   0  0  0  0  0  3  0  0  0  0  0  0
  191.5810  178.2460  142.9230 S   0  0  0  0  0  0  0  0  0  0  0  0
  189.0530  177.2700  142.2600 C   0  0  2  0  0  3  0  0  0  0  0  0
  185.5100  179.3470  143.2110 C   0  0  0  0  0  3  0  0  0  0  0  0
  183.3170  178.5630  141.2300 C   0  0  0  0  0  3  0  0  0  0  0  0
  183.1660  178.8190  143.7000 C   0  0  0  0  0  0  0  0  0  0  0  0
  185.6960  178.8930  141.9630 C   0  0  0  0  0  0  0  0  0  0  0  0
  184.9140  179.1630  139.5270 C   0  0  0  0  0  1  0  0  0  0  0  0
  182.7420  178.2770  142.5590 C   0  0  0  0  0  3  0  0  0  0  0  0
  184.5900  178.8850  140.9560 C   0  0  0  0  0  0  0  0  0  0  0  0
  182.5680  178.4640  144.8620 F   0  0  0  0  0  0  0  0  0  0  0  0
  184.2140  179.8820  143.7210 C   0  0  0  0  0  2  0  0  0  0  0  0
  189.7450  177.1610  144.7140 C   0  0  0  0  0  0  0  0  0  0  0  0
  188.3980  177.3740  145.0410 C   0  0  0  0  0  3  0  0  0  0  0  0
  190.2580  176.9130  147.0750 C   0  0  0  0  0  0  0  0  0  0  0  0
  187.9840  177.3640  146.3750 C   0  0  0  0  0  3  0  0  0  0  0  0
  191.9810  176.6970  145.4420 F   0  0  0  0  0  0  0  0  0  0  0  0
  190.6750  176.9220  145.7390 C   0  0  0  0  0  0  0  0  0  0  0  0
  191.1520  176.6850  148.0680 F   0  0  0  0  0  0  0  0  0  0  0  0
  188.9140  177.1330  147.3910 C   0  0  0  0  0  3  0  0  0  0  0  0
  1 21  1  1  0  0  0
  2  8  2  0  0  0  0
  3 15  1  0  0  0  0
  3  5  1  0  0  0  0
  4 11  1  0  0  0  0
  6 10  1  0  0  0  0
  7  9  2  0  0  0  0
  7  4  1  0  0  0  0
  8  4  1  0  0  0  0
  8  6  1  0  0  0  0
  9  3  1  0  0  0  0
 10  1  1  0  0  0  0
 11  5  1  1  0  0  0
 11  1  1  0  0  0  0
 12 20  1  0  0  0  0
 13 17  1  0  0  0  0
 14 20  1  0  0  0  0
 14 19  1  0  0  0  0
 15 12  2  0  0  0  0
 16 18  1  0  0  0  0
 17 14  2  0  0  0  0
 18 13  2  0  0  0  0
 18 15  1  0  0  0  0
 21 22  2  0  0  0  0
 21 26  1  0  0  0  0
 22 24  1  0  0  0  0
 23 28  1  0  0  0  0
 23 27  1  0  0  0  0
 24 28  2  0  0  0  0
 25 26  1  0  0  0  0
 26 23  2  0  0  0  0
M  END
>  <MODEL>
6

>  <REMARK>
 VINA RESULT:      -9.1      2.995      5.869
  Name = 
  2 active torsions:
  status: ('A' for Active; 'I' for Inactive)
    1  A    between atoms: C_1  and  C_2
    2  A    between atoms: N_10  and  C_13
                            x       y       z     vdW  Elec       q    Type
                         _______ _______ _______ _____ _____    ______ ____

>  <TORSDO>
F 2

$$$$
=
 OpenBabel10272401483D

 28 31  0  0  1  0  0  0  0  0999 V2000
  184.4520  178.7970  141.0100 C   0  0  2  0  0  3  0  0  0  0  0  0
  187.1280  178.6470  137.8260 O   0  0  0  0  0  0  0  0  0  0  0  0
  187.7470  177.6980  142.6390 N   0  0  0  0  0  0  0  0  0  0  0  0
  186.8170  178.5870  140.1480 N   0  0  0  0  0  0  0  0  0  0  0  0
  186.3120  177.6410  142.3480 C   0  0  0  0  0  2  0  0  0  0  0  0
  184.8570  178.5740  138.4930 C   0  0  0  0  0  2  0  0  0  0  0  0
  188.2210  178.3710  140.3690 C   0  0  0  0  0  3  0  0  0  0  0  0
  186.3210  178.6010  138.7930 C   0  0  0  0  0  0  0  0  0  0  0  0
  188.6660  177.9690  141.5610 C   0  0  0  0  0  3  0  0  0  0  0  0
  183.9630  177.5980  139.7360 S   0  0  0  0  0  0  0  0  0  0  0  0
  185.9520  178.7250  141.3350 C   0  0  2  0  0  3  0  0  0  0  0  0
  187.4580  177.5410  145.0120 C   0  0  0  0  0  3  0  0  0  0  0  0
  190.4400  176.8650  145.0490 C   0  0  0  0  0  3  0  0  0  0  0  0
  189.0540  177.9000  146.8380 C   0  0  0  0  0  0  0  0  0  0  0  0
  188.2310  177.3080  143.9410 C   0  0  0  0  0  0  0  0  0  0  0  0
  190.0030  175.7110  142.9790 C   0  0  0  0  0  1  0  0  0  0  0  0
  190.2310  177.7070  146.2430 C   0  0  0  0  0  3  0  0  0  0  0  0
  189.5610  176.6360  144.0620 C   0  0  0  0  0  0  0  0  0  0  0  0
  188.9860  178.7110  147.9200 F   0  0  0  0  0  0  0  0  0  0  0  0
  187.8290  177.1640  146.4070 C   0  0  0  0  0  2  0  0  0  0  0  0
  183.5600  178.7870  142.2210 C   0  0  0  0  0  0  0  0  0  0  0  0
  184.1020  178.7920  143.5150 C   0  0  0  0  0  3  0  0  0  0  0  0
  181.3290  178.8590  143.1790 C   0  0  0  0  0  0  0  0  0  0  0  0
  183.2650  178.8230  144.6320 C   0  0  0  0  0  3  0  0  0  0  0  0
  181.6210  178.8430  140.8140 F   0  0  0  0  0  0  0  0  0  0  0  0
  182.1660  178.8290  142.0570 C   0  0  0  0  0  0  0  0  0  0  0  0
  179.9820  178.8970  143.0260 F   0  0  0  0  0  0  0  0  0  0  0  0
  181.8790  178.8570  144.4640 C   0  0  0  0  0  3  0  0  0  0  0  0
  1 11  1  0  0  0  0
  1 21  1  1  0  0  0
  2  8  2  0  0  0  0
  3 15  1  0  0  0  0
  4  7  1  0  0  0  0
  4 11  1  0  0  0  0
  5  3  1  0  0  0  0
  6  8  1  0  0  0  0
  6 10  1  0  0  0  0
  7  9  2  0  0  0  0
  8  4  1  0  0  0  0
  9  3  1  0  0  0  0
 10  1  1  0  0  0  0
 11  5  1  1  0  0  0
 12 20  1  0  0  0  0
 13 17  1  0  0  0  0
 14 19  1  0  0  0  0
 15 18  1  0  0  0  0
 15 12  2  0  0  0  0
 16 18  1  0  0  0  0
 17 14  2  0  0  0  0
 18 13  2  0  0  0  0
 20 14  1  0  0  0  0
 21 22  1  0  0  0  0
 22 24  2  0  0  0  0
 23 28  2  0  0  0  0
 25 26  1  0  0  0  0
 26 21  2  0  0  0  0
 26 23  1  0  0  0  0
 27 23  1  0  0  0  0
 28 24  1  0  0  0  0
M  END
>  <MODEL>
7

>  <REMARK>
 VINA RESULT:      -9.1      3.687      6.411
  Name = 
  2 active torsions:
  status: ('A' for Active; 'I' for Inactive)
    1  A    between atoms: C_1  and  C_2
    2  A    between atoms: N_10  and  C_13
                            x       y       z     vdW  Elec       q    Type
                         _______ _______ _______ _____ _____    ______ ____

>  <TORSDO>
F 2

$$$$
=
 OpenBabel10272401483D

 28 31  0  0  1  0  0  0  0  0999 V2000
  186.6280  177.6680  145.3270 C   0  0  2  0  0  3  0  0  0  0  0  0
  190.0290  176.5930  147.4700 O   0  0  0  0  0  0  0  0  0  0  0  0
  189.3590  177.4270  142.6430 N   0  0  0  0  0  0  0  0  0  0  0  0
  189.0260  176.8760  145.3720 N   0  0  0  0  0  0  0  0  0  0  0  0
  188.2430  178.0410  143.3670 C   0  0  0  0  0  2  0  0  0  0  0  0
  187.8860  177.5990  147.5540 C   0  0  0  0  0  2  0  0  0  0  0  0
  190.2460  176.5210  144.6990 C   0  0  0  0  0  3  0  0  0  0  0  0
  189.0370  177.0010  146.8090 C   0  0  0  0  0  0  0  0  0  0  0  0
  190.3960  176.7640  143.3950 C   0  0  0  0  0  3  0  0  0  0  0  0
  187.0940  178.9040  146.5730 S   0  0  0  0  0  0  0  0  0  0  0  0
  187.8400  177.1480  144.5380 C   0  0  2  0  0  3  0  0  0  0  0  0
  188.4490  178.1120  140.5360 C   0  0  0  0  0  3  0  0  0  0  0  0
  190.9600  176.8300  139.3520 C   0  0  0  0  0  3  0  0  0  0  0  0
  188.7320  177.1600  138.2940 C   0  0  0  0  0  0  0  0  0  0  0  0
  189.5020  177.6490  141.2250 C   0  0  0  0  0  0  0  0  0  0  0  0
  192.0720  177.6550  141.3240 C   0  0  0  0  0  1  0  0  0  0  0  0
  189.8830  176.4970  138.3990 C   0  0  0  0  0  3  0  0  0  0  0  0
  190.8170  177.3820  140.5660 C   0  0  0  0  0  0  0  0  0  0  0  0
  187.8120  176.7470  137.3900 F   0  0  0  0  0  0  0  0  0  0  0  0
  188.4720  178.4070  139.0730 C   0  0  0  0  0  2  0  0  0  0  0  0
  185.4680  178.0880  144.4660 C   0  0  0  0  0  0  0  0  0  0  0  0
  185.5740  178.0870  143.0660 C   0  0  0  0  0  3  0  0  0  0  0  0
  183.1500  178.7870  144.2690 C   0  0  0  0  0  0  0  0  0  0  0  0
  184.4780  178.4400  142.2750 C   0  0  0  0  0  3  0  0  0  0  0  0
  184.1180  178.4220  146.4170 F   0  0  0  0  0  0  0  0  0  0  0  0
  184.2460  178.4320  145.0660 C   0  0  0  0  0  0  0  0  0  0  0  0
  181.9690  179.1230  144.8440 F   0  0  0  0  0  0  0  0  0  0  0  0
  183.2670  178.7890  142.8760 C   0  0  0  0  0  3  0  0  0  0  0  0
  1 21  1  6  0  0  0
  1 10  1  0  0  0  0
  3  5  1  0  0  0  0
  3  9  1  0  0  0  0
  4  8  1  0  0  0  0
  7  4  1  0  0  0  0
  8  2  2  0  0  0  0
  8  6  1  0  0  0  0
  9  7  2  0  0  0  0
 10  6  1  0  0  0  0
 11  5  1  6  0  0  0
 11  1  1  0  0  0  0
 11  4  1  0  0  0  0
 12 15  2  0  0  0  0
 13 18  2  0  0  0  0
 14 17  2  0  0  0  0
 14 20  1  0  0  0  0
 15  3  1  0  0  0  0
 17 13  1  0  0  0  0
 18 15  1  0  0  0  0
 18 16  1  0  0  0  0
 19 14  1  0  0  0  0
 20 12  1  0  0  0  0
 21 26  1  0  0  0  0
 22 21  2  0  0  0  0
 23 27  1  0  0  0  0
 23 26  2  0  0  0  0
 24 28  2  0  0  0  0
 24 22  1  0  0  0  0
 26 25  1  0  0  0  0
 28 23  1  0  0  0  0
M  END
>  <MODEL>
8

>  <REMARK>
 VINA RESULT:      -9.0      1.233      1.525
  Name = 
  2 active torsions:
  status: ('A' for Active; 'I' for Inactive)
    1  A    between atoms: C_1  and  C_2
    2  A    between atoms: N_10  and  C_13
                            x       y       z     vdW  Elec       q    Type
                         _______ _______ _______ _____ _____    ______ ____

>  <TORSDO>
F 2

$$$$
=
 OpenBabel10272401483D

 28 31  0  0  1  0  0  0  0  0999 V2000
  182.1950  178.0020  139.9360 C   0  0  2  0  0  3  0  0  0  0  0  0
  180.2130  180.0490  142.9700 O   0  0  0  0  0  0  0  0  0  0  0  0
  184.9030  178.5290  142.6010 N   0  0  0  0  0  0  0  0  0  0  0  0
  182.1420  178.9010  142.2960 N   0  0  0  0  0  0  0  0  0  0  0  0
  184.3280  178.5490  141.2540 C   0  0  0  0  0  2  0  0  0  0  0  0
  180.2540  179.5020  140.6650 C   0  0  0  0  0  2  0  0  0  0  0  0
  182.7760  179.1460  143.5620 C   0  0  0  0  0  3  0  0  0  0  0  0
  180.8590  179.5060  142.0330 C   0  0  0  0  0  0  0  0  0  0  0  0
  184.0870  178.9480  143.7140 C   0  0  0  0  0  3  0  0  0  0  0  0
  181.5430  179.6080  139.3920 S   0  0  0  0  0  0  0  0  0  0  0  0
  182.8750  178.0830  141.3110 C   0  0  2  0  0  3  0  0  0  0  0  0
  187.1550  178.6030  141.7860 C   0  0  0  0  0  3  0  0  0  0  0  0
  187.7700  176.7420  144.1330 C   0  0  0  0  0  3  0  0  0  0  0  0
  188.9690  176.9630  141.9640 C   0  0  0  0  0  0  0  0  0  0  0  0
  186.3120  178.2700  142.7750 C   0  0  0  0  0  0  0  0  0  0  0  0
  186.1140  178.0230  145.3270 C   0  0  0  0  0  1  0  0  0  0  0  0
  188.6130  176.2450  143.0290 C   0  0  0  0  0  3  0  0  0  0  0  0
  186.7990  177.6630  144.0520 C   0  0  0  0  0  0  0  0  0  0  0  0
  189.7330  176.3890  141.0060 F   0  0  0  0  0  0  0  0  0  0  0  0
  188.6340  178.4130  141.8500 C   0  0  0  0  0  2  0  0  0  0  0  0
  183.0100  177.2960  138.8870 C   0  0  0  0  0  0  0  0  0  0  0  0
  183.8780  178.0120  138.0480 C   0  0  0  0  0  3  0  0  0  0  0  0
  183.7310  175.2290  137.8340 C   0  0  0  0  0  0  0  0  0  0  0  0
  184.6610  177.3420  137.1050 C   0  0  0  0  0  3  0  0  0  0  0  0
  182.1260  175.1840  139.5960 F   0  0  0  0  0  0  0  0  0  0  0  0
  182.9450  175.8970  138.7820 C   0  0  0  0  0  0  0  0  0  0  0  0
  183.6700  173.8790  137.7270 F   0  0  0  0  0  0  0  0  0  0  0  0
  184.5870  175.9510  136.9990 C   0  0  0  0  0  3  0  0  0  0  0  0
  1 21  1  6  0  0  0
  1 11  1  0  0  0  0
  3 15  1  0  0  0  0
  3  9  1  0  0  0  0
  4  7  1  0  0  0  0
  5  3  1  0  0  0  0
  6  8  1  0  0  0  0
  7  9  2  0  0  0  0
  8  4  1  0  0  0  0
  8  2  2  0  0  0  0
 10  1  1  0  0  0  0
 10  6  1  0  0  0  0
 11  5  1  6  0  0  0
 11  4  1  0  0  0  0
 12 20  1  0  0  0  0
 12 15  2  0  0  0  0
 14 17  2  0  0  0  0
 15 18  1  0  0  0  0
 17 13  1  0  0  0  0
 18 13  2  0  0  0  0
 18 16  1  0  0  0  0
 19 14  1  0  0  0  0
 20 14  1  0  0  0  0
 22 21  2  0  0  0  0
 23 26  2  0  0  0  0
 24 22  1  0  0  0  0
 26 21  1  0  0  0  0
 26 25  1  0  0  0  0
 27 23  1  0  0  0  0
 28 24  2  0  0  0  0
 28 23  1  0  0  0  0
M  END
>  <MODEL>
9

>  <REMARK>
 VINA RESULT:      -8.8      5.015      7.845
  Name = 
  2 active torsions:
  status: ('A' for Active; 'I' for Inactive)
    1  A    between atoms: C_1  and  C_2
    2  A    between atoms: N_10  and  C_13
                            x       y       z     vdW  Elec       q    Type
                         _______ _______ _______ _____ _____    ______ ____

>  <TORSDO>
F 2

$$$$
