=
 OpenBabel10272414533D

 37 41  0  0  1  0  0  0  0  0999 V2000
  190.2470  177.3070  136.5450 N   0  0  0  0  0  0  0  0  0  0  0  0
  186.6460  178.1780  139.4390 C   0  0  0  0  0  3  0  0  0  0  0  0
  190.4780  176.1920  138.7420 C   0  0  0  0  0  2  0  0  0  0  0  0
  184.7300  175.4200  136.8180 C   0  0  0  0  0  3  0  0  0  0  0  0
  187.7560  177.1570  139.3090 C   0  0  2  0  0  3  0  0  0  0  0  0
  185.7520  176.3130  137.1490 C   0  0  0  0  0  0  0  0  0  0  0  0
  188.9340  177.4500  140.2190 C   0  0  0  0  0  0  0  0  0  0  0  0
  185.4570  177.7810  137.2210 C   0  0  0  0  0  2  0  0  0  0  0  0
  187.0540  175.8380  137.3700 C   0  0  0  0  0  0  0  0  0  0  0  0
  186.2790  173.5700  136.9910 C   0  0  0  0  0  3  0  0  0  0  0  0
  185.6130  178.3980  138.5930 C   0  0  0  0  0  0  0  0  0  0  0  0
  187.3040  174.4590  137.3210 C   0  0  0  0  0  3  0  0  0  0  0  0
  190.3450  177.3590  139.7030 C   0  0  0  0  0  2  0  0  0  0  0  0
  188.0880  176.8130  137.8490 C   0  0  2  0  0  3  0  0  0  0  0  0
  184.9890  174.0430  136.7320 C   0  0  0  0  0  0  0  0  0  0  0  0
  189.9030  175.9120  136.2120 C   0  0  2  0  0  3  0  0  0  0  0  0
  189.5640  176.4400  137.5460 C   0  0  1  0  0  0  0  0  0  0  0  0
  188.7040  177.7180  141.5120 C   0  0  0  0  0  3  0  0  0  0  0  0
  183.9870  173.1270  136.4000 O   0  0  0  0  0  0  0  0  0  0  0  0
  184.0110  171.7740  136.8330 C   0  0  0  0  0  1  0  0  0  0  0  0
  184.5750  179.5930  140.3570 O   0  0  0  0  0  1  0  0  0  0  0  0
  184.6160  179.4440  138.9700 C   0  0  0  0  0  2  0  0  0  0  0  0
  189.3310  178.1360  135.7690 C   0  0  0  0  0  2  0  0  0  0  0  0
  187.5590  177.4330  134.3500 O   0  0  0  0  0  1  0  0  0  0  0  0
  188.9460  177.4130  134.4940 C   0  0  0  0  0  2  0  0  0  0  0  0
  191.1680  175.0670  136.1890 C   0  0  0  0  0  2  0  0  0  0  0  0
  192.2440  175.7890  135.4060 C   0  0  0  0  0  2  0  0  0  0  0  0
  194.1300  174.6610  136.5350 C   0  0  0  0  0  1  0  0  0  0  0  0
  193.4560  175.9940  136.2880 C   0  0  0  0  0  2  0  0  0  0  0  0
  189.7950  177.9830  142.5040 C   0  0  0  0  0  2  0  0  0  0  0  0
  190.1700  177.7480  144.9680 C   0  0  0  0  0  3  0  0  0  0  0  0
  189.2790  177.8060  143.8900 C   0  0  0  0  0  0  0  0  0  0  0  0
  187.9040  177.6700  144.1140 C   0  0  0  0  0  3  0  0  0  0  0  0
  186.0910  177.3560  145.6290 F   0  0  0  0  0  0  0  0  0  0  0  0
  188.3120  177.4330  146.4890 C   0  0  0  0  0  3  0  0  0  0  0  0
  187.4220  177.4850  145.4130 C   0  0  0  0  0  0  0  0  0  0  0  0
  189.6870  177.5640  146.2660 C   0  0  0  0  0  3  0  0  0  0  0  0
  1 17  1  0  0  0  0
  3 13  1  0  0  0  0
  4  6  1  0  0  0  0
  5  2  1  6  0  0  0
  5  7  1  0  0  0  0
  6  8  1  0  0  0  0
  6  9  2  0  0  0  0
  7 18  2  0  0  0  0
  8 11  1  0  0  0  0
 10 12  2  0  0  0  0
 11 22  1  0  0  0  0
 11  2  2  0  0  0  0
 12  9  1  0  0  0  0
 13  7  1  0  0  0  0
 14  9  1  1  0  0  0
 14  5  1  0  0  0  0
 15  4  2  0  0  0  0
 15 10  1  0  0  0  0
 16 26  1  1  0  0  0
 16  1  1  0  0  0  0
 16 17  1  0  0  0  0
 17 14  1  0  0  0  0
 17  3  1  1  0  0  0
 18 30  1  0  0  0  0
 19 15  1  0  0  0  0
 19 20  1  0  0  0  0
 22 21  1  0  0  0  0
 23  1  1  0  0  0  0
 24 25  1  0  0  0  0
 25 23  1  0  0  0  0
 27 26  1  0  0  0  0
 27 29  1  0  0  0  0
 29 28  1  0  0  0  0
 30 32  1  0  0  0  0
 31 37  1  0  0  0  0
 32 33  1  0  0  0  0
 32 31  2  0  0  0  0
 33 36  2  0  0  0  0
 36 34  1  0  0  0  0
 36 35  1  0  0  0  0
 37 35  2  0  0  0  0
M  END
>  <MODEL>
1

>  <REMARK>
 VINA RESULT:      -6.6      0.000      0.000
  Name = 
  9 active torsions:
  status: ('A' for Active; 'I' for Inactive)
    1  A    between atoms: N_1  and  C_5
    2  A    between atoms: O_3  and  C_32
    3  A    between atoms: C_5  and  C_23
    4  A    between atoms: C_6  and  C_31
    5  A    between atoms: C_17  and  C_26
    6  A    between atoms: C_17  and  C_33
    7  A    between atoms: C_24  and  C_28
    8  A    between atoms: C_26  and  C_34
    9  A    between atoms: C_31  and  C_37
                            x       y       z     vdW  Elec       q    Type
                         _______ _______ _______ _____ _____    ______ ____

>  <TORSDO>
F 9

$$$$
=
 OpenBabel10272414533D

 37 41  0  0  1  0  0  0  0  0999 V2000
  190.1940  177.1250  136.3920 N   0  0  0  0  0  0  0  0  0  0  0  0
  186.6450  178.0660  139.3280 C   0  0  0  0  0  3  0  0  0  0  0  0
  190.4950  176.1150  138.6310 C   0  0  0  0  0  2  0  0  0  0  0  0
  184.7200  175.1600  136.8800 C   0  0  0  0  0  3  0  0  0  0  0  0
  187.7700  177.0580  139.2180 C   0  0  2  0  0  3  0  0  0  0  0  0
  185.7330  176.0840  137.1460 C   0  0  0  0  0  0  0  0  0  0  0  0
  188.9630  177.4130  140.0860 C   0  0  0  0  0  0  0  0  0  0  0  0
  185.4130  177.5490  137.1590 C   0  0  0  0  0  2  0  0  0  0  0  0
  187.0480  175.6420  137.3570 C   0  0  0  0  0  0  0  0  0  0  0  0
  186.3050  173.3450  137.0990 C   0  0  0  0  0  3  0  0  0  0  0  0
  185.5900  178.2300  138.4980 C   0  0  0  0  0  0  0  0  0  0  0  0
  187.3220  174.2660  137.3650 C   0  0  0  0  0  3  0  0  0  0  0  0
  190.3640  177.3220  139.5420 C   0  0  0  0  0  2  0  0  0  0  0  0
  188.0750  176.6550  137.7680 C   0  0  2  0  0  3  0  0  0  0  0  0
  185.0010  173.7850  136.8500 C   0  0  0  0  0  0  0  0  0  0  0  0
  189.8680  175.7110  136.1310 C   0  0  2  0  0  3  0  0  0  0  0  0
  189.5500  176.2930  137.4480 C   0  0  1  0  0  0  0  0  0  0  0  0
  188.7580  177.7350  141.3710 C   0  0  0  0  0  3  0  0  0  0  0  0
  184.0090  172.8380  136.5830 O   0  0  0  0  0  0  0  0  0  0  0  0
  184.3020  171.5410  136.0790 C   0  0  0  0  0  1  0  0  0  0  0  0
  184.8410  179.7820  140.1250 O   0  0  0  0  0  1  0  0  0  0  0  0
  184.5830  179.2740  138.8500 C   0  0  0  0  0  2  0  0  0  0  0  0
  189.2460  177.9020  135.6010 C   0  0  0  0  0  2  0  0  0  0  0  0
  187.5040  176.8850  134.3470 O   0  0  0  0  0  1  0  0  0  0  0  0
  188.8750  177.1320  134.3500 C   0  0  0  0  0  2  0  0  0  0  0  0
  191.1470  174.8870  136.1160 C   0  0  0  0  0  2  0  0  0  0  0  0
  191.0860  173.8800  134.9860 C   0  0  0  0  0  2  0  0  0  0  0  0
  189.1980  172.2900  134.8690 C   0  0  0  0  0  1  0  0  0  0  0  0
  189.6480  173.7000  134.5510 C   0  0  0  0  0  2  0  0  0  0  0  0
  189.8660  178.0630  142.3240 C   0  0  0  0  0  2  0  0  0  0  0  0
  188.0790  177.6700  144.0320 C   0  0  0  0  0  3  0  0  0  0  0  0
  189.4390  177.7780  143.7220 C   0  0  0  0  0  0  0  0  0  0  0  0
  190.3980  177.6450  144.7340 C   0  0  0  0  0  3  0  0  0  0  0  0
  190.9240  177.2640  147.0270 F   0  0  0  0  0  0  0  0  0  0  0  0
  188.6370  177.2830  146.3570 C   0  0  0  0  0  3  0  0  0  0  0  0
  189.9960  177.3960  146.0490 C   0  0  0  0  0  0  0  0  0  0  0  0
  187.6780  177.4210  145.3470 C   0  0  0  0  0  3  0  0  0  0  0  0
  1 17  1  0  0  0  0
  3 13  1  0  0  0  0
  4  6  1  0  0  0  0
  5  2  1  6  0  0  0
  5  7  1  0  0  0  0
  6  8  1  0  0  0  0
  6  9  2  0  0  0  0
  7 18  2  0  0  0  0
  8 11  1  0  0  0  0
  9 12  1  0  0  0  0
 10 12  2  0  0  0  0
 11 22  1  0  0  0  0
 11  2  2  0  0  0  0
 13  7  1  0  0  0  0
 14  9  1  1  0  0  0
 14  5  1  0  0  0  0
 15  4  2  0  0  0  0
 15 10  1  0  0  0  0
 16 26  1  1  0  0  0
 16  1  1  0  0  0  0
 16 17  1  0  0  0  0
 17 14  1  0  0  0  0
 17  3  1  1  0  0  0
 18 30  1  0  0  0  0
 19 15  1  0  0  0  0
 20 19  1  0  0  0  0
 22 21  1  0  0  0  0
 23  1  1  0  0  0  0
 24 25  1  0  0  0  0
 25 23  1  0  0  0  0
 27 26  1  0  0  0  0
 29 28  1  0  0  0  0
 29 27  1  0  0  0  0
 30 32  1  0  0  0  0
 31 37  1  0  0  0  0
 32 31  2  0  0  0  0
 32 33  1  0  0  0  0
 33 36  2  0  0  0  0
 36 35  1  0  0  0  0
 36 34  1  0  0  0  0
 37 35  2  0  0  0  0
M  END
>  <MODEL>
2

>  <REMARK>
 VINA RESULT:      -6.5      1.178      1.743
  Name = 
  9 active torsions:
  status: ('A' for Active; 'I' for Inactive)
    1  A    between atoms: N_1  and  C_5
    2  A    between atoms: O_3  and  C_32
    3  A    between atoms: C_5  and  C_23
    4  A    between atoms: C_6  and  C_31
    5  A    between atoms: C_17  and  C_26
    6  A    between atoms: C_17  and  C_33
    7  A    between atoms: C_24  and  C_28
    8  A    between atoms: C_26  and  C_34
    9  A    between atoms: C_31  and  C_37
                            x       y       z     vdW  Elec       q    Type
                         _______ _______ _______ _____ _____    ______ ____

>  <TORSDO>
F 9

$$$$
=
 OpenBabel10272414533D

 37 41  0  0  1  0  0  0  0  0999 V2000
  189.6600  175.6900  135.3410 N   0  0  0  0  0  0  0  0  0  0  0  0
  186.8960  177.7170  138.5580 C   0  0  0  0  0  3  0  0  0  0  0  0
  190.2170  175.0200  137.6570 C   0  0  0  0  0  2  0  0  0  0  0  0
  184.1410  174.8450  137.0400 C   0  0  0  0  0  3  0  0  0  0  0  0
  187.8190  176.5200  138.4700 C   0  0  2  0  0  3  0  0  0  0  0  0
  185.3120  175.6030  136.9640 C   0  0  0  0  0  0  0  0  0  0  0  0
  189.1910  176.7910  139.0580 C   0  0  0  0  0  0  0  0  0  0  0  0
  185.2210  177.0830  136.7470 C   0  0  0  0  0  2  0  0  0  0  0  0
  186.5620  174.9720  137.0490 C   0  0  0  0  0  0  0  0  0  0  0  0
  185.4520  172.8350  137.3540 C   0  0  0  0  0  3  0  0  0  0  0  0
  185.7410  177.9300  137.8870 C   0  0  0  0  0  0  0  0  0  0  0  0
  186.6260  173.5900  137.2770 C   0  0  0  0  0  3  0  0  0  0  0  0
  190.4370  176.3640  138.3290 C   0  0  0  0  0  2  0  0  0  0  0  0
  187.7870  175.8380  137.0930 C   0  0  2  0  0  3  0  0  0  0  0  0
  184.2050  173.4550  137.2310 C   0  0  0  0  0  0  0  0  0  0  0  0
  189.0850  174.3340  135.4090 C   0  0  2  0  0  3  0  0  0  0  0  0
  189.1060  175.1710  136.6230 C   0  0  1  0  0  0  0  0  0  0  0  0
  189.2780  177.3500  140.2730 C   0  0  0  0  0  3  0  0  0  0  0  0
  183.0510  172.6710  137.3080 O   0  0  0  0  0  0  0  0  0  0  0  0
  183.0380  171.2900  136.9700 C   0  0  0  0  0  1  0  0  0  0  0  0
  185.1420  179.5330  139.5260 O   0  0  0  0  0  1  0  0  0  0  0  0
  184.9830  179.1810  138.1850 C   0  0  0  0  0  2  0  0  0  0  0  0
  188.7080  176.4860  134.5740 C   0  0  0  0  0  2  0  0  0  0  0  0
  189.1580  178.4820  135.7800 O   0  0  0  0  0  1  0  0  0  0  0  0
  189.1840  177.9220  134.5040 C   0  0  0  0  0  2  0  0  0  0  0  0
  190.2030  173.3030  135.3530 C   0  0  0  0  0  2  0  0  0  0  0  0
  191.2470  173.7440  134.3490 C   0  0  0  0  0  2  0  0  0  0  0  0
  193.1180  173.7300  135.9640 C   0  0  0  0  0  1  0  0  0  0  0  0
  192.5760  173.1080  134.6950 C   0  0  0  0  0  2  0  0  0  0  0  0
  190.5790  177.6250  140.9610 C   0  0  0  0  0  2  0  0  0  0  0  0
  191.4450  177.9890  143.2820 C   0  0  0  0  0  3  0  0  0  0  0  0
  190.3810  177.6520  142.4380 C   0  0  0  0  0  0  0  0  0  0  0  0
  189.1370  177.3130  142.9830 C   0  0  0  0  0  3  0  0  0  0  0  0
  187.7520  176.9940  144.8970 F   0  0  0  0  0  0  0  0  0  0  0  0
  190.0190  177.6620  145.2120 C   0  0  0  0  0  3  0  0  0  0  0  0
  188.9570  177.3200  144.3690 C   0  0  0  0  0  0  0  0  0  0  0  0
  191.2630  177.9960  144.6670 C   0  0  0  0  0  3  0  0  0  0  0  0
  1 16  1  0  0  0  0
  1 17  1  0  0  0  0
  3 13  1  0  0  0  0
  4 15  1  0  0  0  0
  5  2  1  6  0  0  0
  5  7  1  0  0  0  0
  6  4  2  0  0  0  0
  6  9  1  0  0  0  0
  7 18  2  0  0  0  0
  8  6  1  0  0  0  0
  8 11  1  0  0  0  0
  9 12  2  0  0  0  0
 11 22  1  0  0  0  0
 11  2  2  0  0  0  0
 12 10  1  0  0  0  0
 13  7  1  0  0  0  0
 14  9  1  1  0  0  0
 14  5  1  0  0  0  0
 15 19  1  0  0  0  0
 15 10  2  0  0  0  0
 16 26  1  1  0  0  0
 16 17  1  0  0  0  0
 17 14  1  0  0  0  0
 17  3  1  1  0  0  0
 18 30  1  0  0  0  0
 20 19  1  0  0  0  0
 22 21  1  0  0  0  0
 23  1  1  0  0  0  0
 25 23  1  0  0  0  0
 25 24  1  0  0  0  0
 27 29  1  0  0  0  0
 27 26  1  0  0  0  0
 29 28  1  0  0  0  0
 30 32  1  0  0  0  0
 31 37  1  0  0  0  0
 32 33  1  0  0  0  0
 32 31  2  0  0  0  0
 33 36  2  0  0  0  0
 36 34  1  0  0  0  0
 36 35  1  0  0  0  0
 37 35  2  0  0  0  0
M  END
>  <MODEL>
3

>  <REMARK>
 VINA RESULT:      -5.8      1.339      1.668
  Name = 
  9 active torsions:
  status: ('A' for Active; 'I' for Inactive)
    1  A    between atoms: N_1  and  C_5
    2  A    between atoms: O_3  and  C_32
    3  A    between atoms: C_5  and  C_23
    4  A    between atoms: C_6  and  C_31
    5  A    between atoms: C_17  and  C_26
    6  A    between atoms: C_17  and  C_33
    7  A    between atoms: C_24  and  C_28
    8  A    between atoms: C_26  and  C_34
    9  A    between atoms: C_31  and  C_37
                            x       y       z     vdW  Elec       q    Type
                         _______ _______ _______ _____ _____    ______ ____

>  <TORSDO>
F 9

$$$$
=
 OpenBabel10272414533D

 37 41  0  0  1  0  0  0  0  0999 V2000
  187.8750  176.7270  135.9300 N   0  0  0  0  0  0  0  0  0  0  0  0
  183.4670  177.4850  137.3760 C   0  0  0  0  0  3  0  0  0  0  0  0
  187.6480  176.7100  138.3940 C   0  0  0  0  0  2  0  0  0  0  0  0
  183.0370  173.4630  136.0420 C   0  0  0  0  0  3  0  0  0  0  0  0
  184.7460  176.9050  137.9410 C   0  0  2  0  0  3  0  0  0  0  0  0
  183.7080  174.6870  136.0990 C   0  0  0  0  0  0  0  0  0  0  0  0
  185.5070  177.8920  138.8070 C   0  0  0  0  0  0  0  0  0  0  0  0
  183.1140  175.8870  135.4240 C   0  0  0  0  0  2  0  0  0  0  0  0
  184.9480  174.7780  136.7470 C   0  0  0  0  0  0  0  0  0  0  0  0
  184.8010  172.4270  137.3340 C   0  0  0  0  0  3  0  0  0  0  0  0
  182.7180  177.0130  136.3540 C   0  0  0  0  0  0  0  0  0  0  0  0
  185.4750  173.6500  137.3930 C   0  0  0  0  0  3  0  0  0  0  0  0
  186.9960  178.0560  138.6590 C   0  0  0  0  0  2  0  0  0  0  0  0
  185.5690  176.1350  136.8970 C   0  0  2  0  0  3  0  0  0  0  0  0
  183.5820  172.3240  136.6560 C   0  0  0  0  0  0  0  0  0  0  0  0
  187.9380  175.2840  136.2280 C   0  0  2  0  0  3  0  0  0  0  0  0
  187.1100  176.1610  137.0760 C   0  0  1  0  0  0  0  0  0  0  0  0
  184.8460  178.5630  139.7610 C   0  0  0  0  0  3  0  0  0  0  0  0
  182.9360  171.0860  136.6120 O   0  0  0  0  0  0  0  0  0  0  0  0
  183.4960  169.9510  135.9660 C   0  0  0  0  0  1  0  0  0  0  0  0
  181.6250  178.4420  134.8130 O   0  0  0  0  0  1  0  0  0  0  0  0
  181.4640  177.7470  136.0120 C   0  0  0  0  0  2  0  0  0  0  0  0
  187.0900  176.8430  134.7050 C   0  0  0  0  0  2  0  0  0  0  0  0
  187.1170  179.0870  135.4860 O   0  0  0  0  0  1  0  0  0  0  0  0
  186.9160  178.3050  134.3490 C   0  0  0  0  0  2  0  0  0  0  0  0
  189.2940  174.9470  136.8310 C   0  0  0  0  0  2  0  0  0  0  0  0
  189.5350  173.4550  136.7290 C   0  0  0  0  0  2  0  0  0  0  0  0
  188.1730  171.5800  135.8740 C   0  0  0  0  0  1  0  0  0  0  0  0
  188.8040  172.9100  135.5220 C   0  0  0  0  0  2  0  0  0  0  0  0
  185.5070  179.5300  140.6950 C   0  0  0  0  0  2  0  0  0  0  0  0
  186.8290  178.1190  142.2840 C   0  0  0  0  0  3  0  0  0  0  0  0
  185.6960  178.9010  142.0320 C   0  0  0  0  0  0  0  0  0  0  0  0
  184.7270  179.0690  143.0280 C   0  0  0  0  0  3  0  0  0  0  0  0
  183.9600  178.6280  145.2420 F   0  0  0  0  0  0  0  0  0  0  0  0
  186.0310  177.6860  144.5300 C   0  0  0  0  0  3  0  0  0  0  0  0
  184.8970  178.4630  144.2760 C   0  0  0  0  0  0  0  0  0  0  0  0
  186.9970  177.5130  143.5320 C   0  0  0  0  0  3  0  0  0  0  0  0
  1 16  1  0  0  0  0
  1 17  1  0  0  0  0
  3 13  1  0  0  0  0
  4  6  2  0  0  0  0
  4 15  1  0  0  0  0
  5  2  1  6  0  0  0
  5  7  1  0  0  0  0
  6  9  1  0  0  0  0
  7 18  2  0  0  0  0
  8  6  1  0  0  0  0
  8 11  1  0  0  0  0
  9 12  2  0  0  0  0
 10 12  1  0  0  0  0
 11  2  2  0  0  0  0
 13  7  1  0  0  0  0
 14  9  1  1  0  0  0
 14 17  1  0  0  0  0
 14  5  1  0  0  0  0
 15 10  2  0  0  0  0
 16 26  1  1  0  0  0
 16 17  1  0  0  0  0
 17  3  1  1  0  0  0
 18 30  1  0  0  0  0
 19 15  1  0  0  0  0
 20 19  1  0  0  0  0
 21 22  1  0  0  0  0
 22 11  1  0  0  0  0
 23  1  1  0  0  0  0
 25 23  1  0  0  0  0
 25 24  1  0  0  0  0
 27 26  1  0  0  0  0
 29 28  1  0  0  0  0
 29 27  1  0  0  0  0
 30 32  1  0  0  0  0
 31 37  1  0  0  0  0
 32 31  2  0  0  0  0
 32 33  1  0  0  0  0
 33 36  2  0  0  0  0
 36 35  1  0  0  0  0
 36 34  1  0  0  0  0
 37 35  2  0  0  0  0
M  END
>  <MODEL>
4

>  <REMARK>
 VINA RESULT:      -5.4      2.418      3.535
  Name = 
  9 active torsions:
  status: ('A' for Active; 'I' for Inactive)
    1  A    between atoms: N_1  and  C_5
    2  A    between atoms: O_3  and  C_32
    3  A    between atoms: C_5  and  C_23
    4  A    between atoms: C_6  and  C_31
    5  A    between atoms: C_17  and  C_26
    6  A    between atoms: C_17  and  C_33
    7  A    between atoms: C_24  and  C_28
    8  A    between atoms: C_26  and  C_34
    9  A    between atoms: C_31  and  C_37
                            x       y       z     vdW  Elec       q    Type
                         _______ _______ _______ _____ _____    ______ ____

>  <TORSDO>
F 9

$$$$
=
 OpenBabel10272414533D

 37 41  0  0  1  0  0  0  0  0999 V2000
  189.0520  176.6660  135.4880 N   0  0  0  0  0  0  0  0  0  0  0  0
  185.6100  177.7680  138.4950 C   0  0  0  0  0  3  0  0  0  0  0  0
  189.6290  176.1740  137.8440 C   0  0  0  0  0  2  0  0  0  0  0  0
  183.9270  174.2220  136.8390 C   0  0  0  0  0  3  0  0  0  0  0  0
  186.8480  176.8960  138.4810 C   0  0  2  0  0  3  0  0  0  0  0  0
  184.8250  175.2920  136.8290 C   0  0  0  0  0  0  0  0  0  0  0  0
  188.0380  177.5550  139.1530 C   0  0  0  0  0  0  0  0  0  0  0  0
  184.3170  176.6820  136.5870 C   0  0  0  0  0  2  0  0  0  0  0  0
  186.1980  175.0570  137.0020 C   0  0  0  0  0  0  0  0  0  0  0  0
  185.7480  172.6850  137.2610 C   0  0  0  0  0  3  0  0  0  0  0  0
  184.4900  177.6360  137.7480 C   0  0  0  0  0  0  0  0  0  0  0  0
  186.6500  173.7530  137.2510 C   0  0  0  0  0  3  0  0  0  0  0  0
  189.4000  177.5180  138.5120 C   0  0  0  0  0  2  0  0  0  0  0  0
  187.1080  176.2440  137.1140 C   0  0  2  0  0  3  0  0  0  0  0  0
  184.3840  172.9120  137.0510 C   0  0  0  0  0  0  0  0  0  0  0  0
  188.8980  175.2010  135.5360 C   0  0  2  0  0  3  0  0  0  0  0  0
  188.5930  175.9980  136.7380 C   0  0  1  0  0  0  0  0  0  0  0  0
  187.8770  178.1050  140.3640 C   0  0  0  0  0  3  0  0  0  0  0  0
  183.5090  171.8220  137.0620 O   0  0  0  0  0  0  0  0  0  0  0  0
  183.7000  170.6770  136.2420 C   0  0  0  0  0  1  0  0  0  0  0  0
  182.3020  178.3150  137.1430 O   0  0  0  0  0  1  0  0  0  0  0  0
  183.3800  178.6070  137.9810 C   0  0  0  0  0  2  0  0  0  0  0  0
  187.9600  177.1520  134.6510 C   0  0  0  0  0  2  0  0  0  0  0  0
  186.4470  178.9590  134.3570 O   0  0  0  0  0  1  0  0  0  0  0  0
  187.4890  178.4990  135.1600 C   0  0  0  0  0  2  0  0  0  0  0  0
  190.2710  174.5440  135.5650 C   0  0  0  0  0  2  0  0  0  0  0  0
  190.1230  173.0790  135.9160 C   0  0  0  0  0  2  0  0  0  0  0  0
  188.4560  171.4700  135.0560 C   0  0  0  0  0  1  0  0  0  0  0  0
  189.6600  172.3140  134.6950 C   0  0  0  0  0  2  0  0  0  0  0  0
  188.9930  178.7460  141.1310 C   0  0  0  0  0  2  0  0  0  0  0  0
  190.0840  178.4250  143.3610 C   0  0  0  0  0  3  0  0  0  0  0  0
  188.9430  178.3190  142.5580 C   0  0  0  0  0  0  0  0  0  0  0  0
  187.7630  177.7840  143.0880 C   0  0  0  0  0  3  0  0  0  0  0  0
  186.5790  176.8520  144.9350 F   0  0  0  0  0  0  0  0  0  0  0  0
  188.8610  177.4780  145.2250 C   0  0  0  0  0  3  0  0  0  0  0  0
  187.7220  177.3660  144.4210 C   0  0  0  0  0  0  0  0  0  0  0  0
  190.0420  178.0070  144.6940 C   0  0  0  0  0  3  0  0  0  0  0  0
  1 16  1  0  0  0  0
  1 17  1  0  0  0  0
  3 13  1  0  0  0  0
  4 15  1  0  0  0  0
  5  2  1  6  0  0  0
  5  7  1  0  0  0  0
  6  4  2  0  0  0  0
  6  9  1  0  0  0  0
  7 18  2  0  0  0  0
  8  6  1  0  0  0  0
  8 11  1  0  0  0  0
  9 12  2  0  0  0  0
 11 22  1  0  0  0  0
 11  2  2  0  0  0  0
 12 10  1  0  0  0  0
 13  7  1  0  0  0  0
 14  9  1  1  0  0  0
 14  5  1  0  0  0  0
 15 19  1  0  0  0  0
 15 10  2  0  0  0  0
 16 26  1  1  0  0  0
 16 17  1  0  0  0  0
 17 14  1  0  0  0  0
 17  3  1  1  0  0  0
 18 30  1  0  0  0  0
 20 19  1  0  0  0  0
 21 22  1  0  0  0  0
 23 25  1  0  0  0  0
 23  1  1  0  0  0  0
 24 25  1  0  0  0  0
 26 27  1  0  0  0  0
 29 28  1  0  0  0  0
 29 27  1  0  0  0  0
 30 32  1  0  0  0  0
 31 37  1  0  0  0  0
 32 33  1  0  0  0  0
 32 31  2  0  0  0  0
 33 36  2  0  0  0  0
 36 34  1  0  0  0  0
 36 35  1  0  0  0  0
 37 35  2  0  0  0  0
M  END
>  <MODEL>
5

>  <REMARK>
 VINA RESULT:      -5.1      1.632      2.179
  Name = 
  9 active torsions:
  status: ('A' for Active; 'I' for Inactive)
    1  A    between atoms: N_1  and  C_5
    2  A    between atoms: O_3  and  C_32
    3  A    between atoms: C_5  and  C_23
    4  A    between atoms: C_6  and  C_31
    5  A    between atoms: C_17  and  C_26
    6  A    between atoms: C_17  and  C_33
    7  A    between atoms: C_24  and  C_28
    8  A    between atoms: C_26  and  C_34
    9  A    between atoms: C_31  and  C_37
                            x       y       z     vdW  Elec       q    Type
                         _______ _______ _______ _____ _____    ______ ____

>  <TORSDO>
F 9

$$$$
=
 OpenBabel10272414533D

 37 41  0  0  1  0  0  0  0  0999 V2000
  188.4730  177.4450  136.2990 N   0  0  0  0  0  0  0  0  0  0  0  0
  184.0010  177.6740  137.7300 C   0  0  0  0  0  3  0  0  0  0  0  0
  188.2200  177.1230  138.7390 C   0  0  0  0  0  2  0  0  0  0  0  0
  183.9190  173.8140  135.9310 C   0  0  0  0  0  3  0  0  0  0  0  0
  185.3170  177.1360  138.2510 C   0  0  2  0  0  3  0  0  0  0  0  0
  184.4860  175.0730  136.1430 C   0  0  0  0  0  0  0  0  0  0  0  0
  185.9840  178.0730  139.2410 C   0  0  0  0  0  0  0  0  0  0  0  0
  183.8040  176.2920  135.5990 C   0  0  0  0  0  2  0  0  0  0  0  0
  185.7070  175.1860  136.8240 C   0  0  0  0  0  0  0  0  0  0  0  0
  185.7460  172.7790  137.1320 C   0  0  0  0  0  3  0  0  0  0  0  0
  183.3060  177.2660  136.6440 C   0  0  0  0  0  0  0  0  0  0  0  0
  186.3170  174.0360  137.3460 C   0  0  0  0  0  3  0  0  0  0  0  0
  187.4560  178.3720  139.1440 C   0  0  0  0  0  2  0  0  0  0  0  0
  186.2120  176.5630  137.1420 C   0  0  2  0  0  3  0  0  0  0  0  0
  184.5480  172.6590  136.4210 C   0  0  0  0  0  0  0  0  0  0  0  0
  188.6510  175.9870  136.4310 C   0  0  2  0  0  3  0  0  0  0  0  0
  187.7440  176.6900  137.3560 C   0  0  1  0  0  0  0  0  0  0  0  0
  185.2590  178.5730  140.2520 C   0  0  0  0  0  3  0  0  0  0  0  0
  184.0060  171.3870  136.2210 O   0  0  0  0  0  0  0  0  0  0  0  0
  182.6630  171.0640  136.5550 C   0  0  0  0  0  1  0  0  0  0  0  0
  180.9570  177.2180  136.9560 O   0  0  0  0  0  1  0  0  0  0  0  0
  182.0000  177.9320  136.3630 C   0  0  0  0  0  2  0  0  0  0  0  0
  187.6960  177.6410  135.0800 C   0  0  0  0  0  2  0  0  0  0  0  0
  187.4810  179.7100  136.2270 O   0  0  0  0  0  1  0  0  0  0  0  0
  187.0410  179.0070  135.1070 C   0  0  0  0  0  2  0  0  0  0  0  0
  190.0230  175.6920  137.0190 C   0  0  0  0  0  2  0  0  0  0  0  0
  190.2550  174.1960  137.0320 C   0  0  0  0  0  2  0  0  0  0  0  0
  192.4910  174.9900  137.7210 C   0  0  0  0  0  1  0  0  0  0  0  0
  191.7410  173.9170  136.9600 C   0  0  0  0  0  2  0  0  0  0  0  0
  185.8270  179.4740  141.3050 C   0  0  0  0  0  2  0  0  0  0  0  0
  185.2350  178.8220  143.6480 C   0  0  0  0  0  3  0  0  0  0  0  0
  186.0940  178.7000  142.5500 C   0  0  0  0  0  0  0  0  0  0  0  0
  187.2200  177.8730  142.6320 C   0  0  0  0  0  3  0  0  0  0  0  0
  188.5680  176.3580  143.8860 F   0  0  0  0  0  0  0  0  0  0  0  0
  186.6180  177.2790  144.9030 C   0  0  0  0  0  3  0  0  0  0  0  0
  187.4800  177.1610  143.8070 C   0  0  0  0  0  0  0  0  0  0  0  0
  185.4960  178.1100  144.8220 C   0  0  0  0  0  3  0  0  0  0  0  0
  1 16  1  0  0  0  0
  1 17  1  0  0  0  0
  3 13  1  0  0  0  0
  4  6  2  0  0  0  0
  4 15  1  0  0  0  0
  5  2  1  6  0  0  0
  5  7  1  0  0  0  0
  6  9  1  0  0  0  0
  7 18  2  0  0  0  0
  8  6  1  0  0  0  0
  8 11  1  0  0  0  0
  9 12  2  0  0  0  0
 10 12  1  0  0  0  0
 11  2  2  0  0  0  0
 13  7  1  0  0  0  0
 14  9  1  1  0  0  0
 14 17  1  0  0  0  0
 14  5  1  0  0  0  0
 15 10  2  0  0  0  0
 16 26  1  1  0  0  0
 16 17  1  0  0  0  0
 17  3  1  1  0  0  0
 18 30  1  0  0  0  0
 19 15  1  0  0  0  0
 19 20  1  0  0  0  0
 22 11  1  0  0  0  0
 22 21  1  0  0  0  0
 23 25  1  0  0  0  0
 23  1  1  0  0  0  0
 25 24  1  0  0  0  0
 26 27  1  0  0  0  0
 29 27  1  0  0  0  0
 29 28  1  0  0  0  0
 30 32  1  0  0  0  0
 31 37  1  0  0  0  0
 32 33  1  0  0  0  0
 32 31  2  0  0  0  0
 33 36  2  0  0  0  0
 36 34  1  0  0  0  0
 36 35  1  0  0  0  0
 37 35  2  0  0  0  0
M  END
>  <MODEL>
6

>  <REMARK>
 VINA RESULT:      -4.9      1.943      2.831
  Name = 
  9 active torsions:
  status: ('A' for Active; 'I' for Inactive)
    1  A    between atoms: N_1  and  C_5
    2  A    between atoms: O_3  and  C_32
    3  A    between atoms: C_5  and  C_23
    4  A    between atoms: C_6  and  C_31
    5  A    between atoms: C_17  and  C_26
    6  A    between atoms: C_17  and  C_33
    7  A    between atoms: C_24  and  C_28
    8  A    between atoms: C_26  and  C_34
    9  A    between atoms: C_31  and  C_37
                            x       y       z     vdW  Elec       q    Type
                         _______ _______ _______ _____ _____    ______ ____

>  <TORSDO>
F 9

$$$$
=
 OpenBabel10272414533D

 37 41  0  0  1  0  0  0  0  0999 V2000
  188.1480  178.4610  136.8740 N   0  0  0  0  0  0  0  0  0  0  0  0
  184.1220  178.2980  139.2970 C   0  0  0  0  0  3  0  0  0  0  0  0
  188.4000  177.4130  139.1020 C   0  0  0  0  0  2  0  0  0  0  0  0
  183.3400  175.1710  136.5110 C   0  0  0  0  0  3  0  0  0  0  0  0
  185.4710  177.6100  139.3200 C   0  0  2  0  0  3  0  0  0  0  0  0
  184.0400  176.2990  136.9480 C   0  0  0  0  0  0  0  0  0  0  0  0
  186.4090  178.1920  140.3600 C   0  0  0  0  0  0  0  0  0  0  0  0
  183.3590  177.6340  136.9590 C   0  0  0  0  0  2  0  0  0  0  0  0
  185.3850  176.1840  137.3330 C   0  0  0  0  0  0  0  0  0  0  0  0
  185.2930  173.7970  136.9020 C   0  0  0  0  0  3  0  0  0  0  0  0
  183.1790  178.2480  138.3300 C   0  0  0  0  0  0  0  0  0  0  0  0
  185.9970  174.9220  137.3390 C   0  0  0  0  0  3  0  0  0  0  0  0
  187.8460  178.4880  140.0200 C   0  0  0  0  0  2  0  0  0  0  0  0
  186.0570  177.3910  137.9170 C   0  0  2  0  0  3  0  0  0  0  0  0
  183.9650  173.9140  136.4820 C   0  0  0  0  0  0  0  0  0  0  0  0
  188.2300  177.0310  136.5270 C   0  0  2  0  0  3  0  0  0  0  0  0
  187.6040  177.4290  137.8010 C   0  0  1  0  0  0  0  0  0  0  0  0
  185.9630  178.3690  141.6120 C   0  0  0  0  0  3  0  0  0  0  0  0
  183.2900  172.7700  136.0460 O   0  0  0  0  0  0  0  0  0  0  0  0
  182.8370  171.7610  136.9390 C   0  0  0  0  0  1  0  0  0  0  0  0
  181.8870  180.1710  137.8300 O   0  0  0  0  0  1  0  0  0  0  0  0
  181.9010  178.9850  138.5650 C   0  0  0  0  0  2  0  0  0  0  0  0
  187.1450  179.0290  135.9790 C   0  0  0  0  0  2  0  0  0  0  0  0
  185.9870  177.7240  134.3660 O   0  0  0  0  0  1  0  0  0  0  0  0
  187.2110  178.3340  134.6350 C   0  0  0  0  0  2  0  0  0  0  0  0
  189.6680  176.5530  136.6710 C   0  0  0  0  0  2  0  0  0  0  0  0
  189.8080  175.1790  136.0500 C   0  0  0  0  0  2  0  0  0  0  0  0
  191.7670  174.6100  137.4440 C   0  0  0  0  0  1  0  0  0  0  0  0
  190.3510  174.2140  137.0820 C   0  0  0  0  0  2  0  0  0  0  0  0
  186.8150  178.8990  142.7230 C   0  0  0  0  0  2  0  0  0  0  0  0
  184.7380  178.9320  144.1180 C   0  0  0  0  0  3  0  0  0  0  0  0
  186.1190  178.7270  144.0280 C   0  0  0  0  0  0  0  0  0  0  0  0
  186.8500  178.3860  145.1730 C   0  0  0  0  0  3  0  0  0  0  0  0
  186.9060  177.9110  147.5080 F   0  0  0  0  0  0  0  0  0  0  0  0
  184.8180  178.4430  146.4900 C   0  0  0  0  0  3  0  0  0  0  0  0
  186.1990  178.2430  146.4010 C   0  0  0  0  0  0  0  0  0  0  0  0
  184.0880  178.7880  145.3470 C   0  0  0  0  0  3  0  0  0  0  0  0
  1 17  1  0  0  0  0
  3 13  1  0  0  0  0
  4  6  1  0  0  0  0
  5  2  1  6  0  0  0
  5  7  1  0  0  0  0
  6  8  1  0  0  0  0
  6  9  2  0  0  0  0
  7 18  2  0  0  0  0
  8 11  1  0  0  0  0
  9 12  1  0  0  0  0
 10 12  2  0  0  0  0
 11 22  1  0  0  0  0
 11  2  2  0  0  0  0
 13  7  1  0  0  0  0
 14  9  1  1  0  0  0
 14  5  1  0  0  0  0
 15  4  2  0  0  0  0
 15 10  1  0  0  0  0
 16 26  1  1  0  0  0
 16  1  1  0  0  0  0
 16 17  1  0  0  0  0
 17 14  1  0  0  0  0
 17  3  1  1  0  0  0
 18 30  1  0  0  0  0
 19 15  1  0  0  0  0
 19 20  1  0  0  0  0
 21 22  1  0  0  0  0
 23  1  1  0  0  0  0
 24 25  1  0  0  0  0
 25 23  1  0  0  0  0
 27 26  1  0  0  0  0
 27 29  1  0  0  0  0
 29 28  1  0  0  0  0
 30 32  1  0  0  0  0
 31 37  1  0  0  0  0
 32 31  2  0  0  0  0
 32 33  1  0  0  0  0
 33 36  2  0  0  0  0
 36 35  1  0  0  0  0
 36 34  1  0  0  0  0
 37 35  2  0  0  0  0
M  END
>  <MODEL>
7

>  <REMARK>
 VINA RESULT:      -4.8      1.888      2.645
  Name = 
  9 active torsions:
  status: ('A' for Active; 'I' for Inactive)
    1  A    between atoms: N_1  and  C_5
    2  A    between atoms: O_3  and  C_32
    3  A    between atoms: C_5  and  C_23
    4  A    between atoms: C_6  and  C_31
    5  A    between atoms: C_17  and  C_26
    6  A    between atoms: C_17  and  C_33
    7  A    between atoms: C_24  and  C_28
    8  A    between atoms: C_26  and  C_34
    9  A    between atoms: C_31  and  C_37
                            x       y       z     vdW  Elec       q    Type
                         _______ _______ _______ _____ _____    ______ ____

>  <TORSDO>
F 9

$$$$
=
 OpenBabel10272414533D

 37 41  0  0  1  0  0  0  0  0999 V2000
  187.9190  177.7310  135.8200 N   0  0  0  0  0  0  0  0  0  0  0  0
  190.9010  174.4220  137.3220 C   0  0  0  0  0  3  0  0  0  0  0  0
  186.7730  175.7460  136.7520 C   0  0  0  0  0  2  0  0  0  0  0  0
  191.3680  177.2190  140.5010 C   0  0  0  0  0  3  0  0  0  0  0  0
  189.4490  174.7980  137.5290 C   0  0  2  0  0  3  0  0  0  0  0  0
  190.9680  176.8600  139.2110 C   0  0  0  0  0  0  0  0  0  0  0  0
  188.5010  173.9680  136.6830 C   0  0  0  0  0  0  0  0  0  0  0  0
  192.0060  176.5540  138.1740 C   0  0  0  0  0  2  0  0  0  0  0  0
  189.6040  176.8310  138.8830 C   0  0  0  0  0  0  0  0  0  0  0  0
  189.0520  177.4550  141.1630 C   0  0  0  0  0  3  0  0  0  0  0  0
  192.0010  175.1280  137.6670 C   0  0  0  0  0  0  0  0  0  0  0  0
  188.6480  177.0970  139.8740 C   0  0  0  0  0  3  0  0  0  0  0  0
  187.3730  174.6210  135.9280 C   0  0  0  0  0  2  0  0  0  0  0  0
  189.2160  176.3160  137.5280 C   0  0  2  0  0  3  0  0  0  0  0  0
  190.4120  177.5220  141.4830 C   0  0  0  0  0  0  0  0  0  0  0  0
  187.4860  178.2250  137.1410 C   0  0  2  0  0  3  0  0  0  0  0  0
  187.8470  176.8040  136.9840 C   0  0  1  0  0  0  0  0  0  0  0  0
  188.6340  172.6340  136.6760 C   0  0  0  0  0  3  0  0  0  0  0  0
  190.7820  177.8870  142.7800 O   0  0  0  0  0  0  0  0  0  0  0  0
  190.2470  177.2580  143.9370 C   0  0  0  0  0  1  0  0  0  0  0  0
  194.3490  175.3170  137.9230 O   0  0  0  0  0  1  0  0  0  0  0  0
  193.3350  174.5170  137.3940 C   0  0  0  0  0  2  0  0  0  0  0  0
  189.2480  178.2940  135.6030 C   0  0  0  0  0  2  0  0  0  0  0  0
  190.8510  176.7940  134.6940 O   0  0  0  0  0  1  0  0  0  0  0  0
  189.8520  177.7020  134.3460 C   0  0  0  0  0  2  0  0  0  0  0  0
  185.9870  178.4860  137.1220 C   0  0  0  0  0  2  0  0  0  0  0  0
  185.4550  178.4770  138.5390 C   0  0  0  0  0  2  0  0  0  0  0  0
  183.6140  176.9530  137.9130 C   0  0  0  0  0  1  0  0  0  0  0  0
  183.9530  178.3020  138.5110 C   0  0  0  0  0  2  0  0  0  0  0  0
  187.7300  171.7210  135.9080 C   0  0  0  0  0  2  0  0  0  0  0  0
  185.9110  172.3920  137.4910 C   0  0  0  0  0  3  0  0  0  0  0  0
  186.3060  172.0540  136.1920 C   0  0  0  0  0  0  0  0  0  0  0  0
  185.3560  172.0010  135.1650 C   0  0  0  0  0  3  0  0  0  0  0  0
  183.0980  172.2480  134.4410 F   0  0  0  0  0  0  0  0  0  0  0  0
  183.6230  172.6380  136.7340 C   0  0  0  0  0  3  0  0  0  0  0  0
  184.0170  172.2960  135.4360 C   0  0  0  0  0  0  0  0  0  0  0  0
  184.5710  172.6860  137.7610 C   0  0  0  0  0  3  0  0  0  0  0  0
  1 17  1  0  0  0  0
  1 16  1  0  0  0  0
  2 11  2  0  0  0  0
  4 15  1  0  0  0  0
  5  2  1  6  0  0  0
  6  4  2  0  0  0  0
  7  5  1  0  0  0  0
  8  6  1  0  0  0  0
  9  6  1  0  0  0  0
  9 12  2  0  0  0  0
 10 15  2  0  0  0  0
 11  8  1  0  0  0  0
 12 10  1  0  0  0  0
 13  7  1  0  0  0  0
 13  3  1  0  0  0  0
 14  5  1  0  0  0  0
 14  9  1  1  0  0  0
 15 19  1  0  0  0  0
 16 26  1  6  0  0  0
 17  3  1  1  0  0  0
 17 16  1  0  0  0  0
 17 14  1  0  0  0  0
 18  7  2  0  0  0  0
 19 20  1  0  0  0  0
 22 11  1  0  0  0  0
 22 21  1  0  0  0  0
 23  1  1  0  0  0  0
 25 24  1  0  0  0  0
 25 23  1  0  0  0  0
 26 27  1  0  0  0  0
 28 29  1  0  0  0  0
 29 27  1  0  0  0  0
 30 32  1  0  0  0  0
 30 18  1  0  0  0  0
 31 37  1  0  0  0  0
 32 31  2  0  0  0  0
 33 36  2  0  0  0  0
 33 32  1  0  0  0  0
 34 36  1  0  0  0  0
 35 37  2  0  0  0  0
 36 35  1  0  0  0  0
M  END
>  <MODEL>
8

>  <REMARK>
 VINA RESULT:      -4.8      3.135      7.830
  Name = 
  9 active torsions:
  status: ('A' for Active; 'I' for Inactive)
    1  A    between atoms: N_1  and  C_5
    2  A    between atoms: O_3  and  C_32
    3  A    between atoms: C_5  and  C_23
    4  A    between atoms: C_6  and  C_31
    5  A    between atoms: C_17  and  C_26
    6  A    between atoms: C_17  and  C_33
    7  A    between atoms: C_24  and  C_28
    8  A    between atoms: C_26  and  C_34
    9  A    between atoms: C_31  and  C_37
                            x       y       z     vdW  Elec       q    Type
                         _______ _______ _______ _____ _____    ______ ____

>  <TORSDO>
F 9

$$$$
=
 OpenBabel10272414533D

 37 41  0  0  1  0  0  0  0  0999 V2000
  185.9240  174.0620  136.7590 N   0  0  0  0  0  0  0  0  0  0  0  0
  188.3050  177.3010  139.1960 C   0  0  0  0  0  3  0  0  0  0  0  0
  185.2390  176.3770  136.2190 C   0  0  0  0  0  2  0  0  0  0  0  0
  191.3430  176.2040  136.4190 C   0  0  0  0  0  3  0  0  0  0  0  0
  187.4690  177.2400  137.9350 C   0  0  2  0  0  3  0  0  0  0  0  0
  190.1350  175.9880  137.0870 C   0  0  0  0  0  0  0  0  0  0  0  0
  186.0430  177.7070  138.1520 C   0  0  0  0  0  0  0  0  0  0  0  0
  190.1480  175.6650  138.5510 C   0  0  0  0  0  2  0  0  0  0  0  0
  188.9250  176.0330  136.3800 C   0  0  0  0  0  0  0  0  0  0  0  0
  190.1420  176.5760  134.3510 C   0  0  0  0  0  3  0  0  0  0  0  0
  189.4900  176.6980  139.4400 C   0  0  0  0  0  0  0  0  0  0  0  0
  188.9320  176.3600  135.0160 C   0  0  0  0  0  3  0  0  0  0  0  0
  184.8840  176.9280  137.5880 C   0  0  0  0  0  2  0  0  0  0  0  0
  187.6480  175.9250  137.1600 C   0  0  2  0  0  3  0  0  0  0  0  0
  191.3540  176.4950  135.0460 C   0  0  0  0  0  0  0  0  0  0  0  0
  186.5780  174.2730  135.4540 C   0  0  2  0  0  3  0  0  0  0  0  0
  186.4120  175.4150  136.3710 C   0  0  1  0  0  0  0  0  0  0  0  0
  185.8290  178.8680  138.7880 C   0  0  0  0  0  3  0  0  0  0  0  0
  192.5460  176.7110  134.3500 O   0  0  0  0  0  0  0  0  0  0  0  0
  193.7980  176.2080  134.7980 C   0  0  0  0  0  1  0  0  0  0  0  0
  191.3660  177.5990  140.5730 O   0  0  0  0  0  1  0  0  0  0  0  0
  190.1430  176.9530  140.7580 C   0  0  0  0  0  2  0  0  0  0  0  0
  186.8790  173.3050  137.5610 C   0  0  0  0  0  2  0  0  0  0  0  0
  188.7360  171.9930  136.8730 O   0  0  0  0  0  1  0  0  0  0  0  0
  187.3490  172.0920  136.7830 C   0  0  0  0  0  2  0  0  0  0  0  0
  185.5350  174.2170  134.3460 C   0  0  0  0  0  2  0  0  0  0  0  0
  184.7540  172.9240  134.4530 C   0  0  0  0  0  2  0  0  0  0  0  0
  182.8630  172.4170  135.9610 C   0  0  0  0  0  1  0  0  0  0  0  0
  183.3070  173.2370  134.7680 C   0  0  0  0  0  2  0  0  0  0  0  0
  184.4650  179.4400  139.0210 C   0  0  0  0  0  2  0  0  0  0  0  0
  182.6860  179.0030  140.7260 C   0  0  0  0  0  3  0  0  0  0  0  0
  184.0390  179.1910  140.4260 C   0  0  0  0  0  0  0  0  0  0  0  0
  184.9900  179.1740  141.4530 C   0  0  0  0  0  3  0  0  0  0  0  0
  185.5100  178.9400  143.7680 F   0  0  0  0  0  0  0  0  0  0  0  0
  183.2360  178.7660  143.0730 C   0  0  0  0  0  3  0  0  0  0  0  0
  184.5890  178.9590  142.7750 C   0  0  0  0  0  0  0  0  0  0  0  0
  182.2850  178.7880  142.0480 C   0  0  0  0  0  3  0  0  0  0  0  0
  1 23  1  0  0  0  0
  2 11  2  0  0  0  0
  3 13  1  0  0  0  0
  4  6  1  0  0  0  0
  5  7  1  0  0  0  0
  5  2  1  1  0  0  0
  6  8  1  0  0  0  0
  7 18  2  0  0  0  0
  8 11  1  0  0  0  0
  9  6  2  0  0  0  0
 10 12  2  0  0  0  0
 10 15  1  0  0  0  0
 11 22  1  0  0  0  0
 12  9  1  0  0  0  0
 13  7  1  0  0  0  0
 14  9  1  6  0  0  0
 14  5  1  0  0  0  0
 15  4  2  0  0  0  0
 16 26  1  6  0  0  0
 16 17  1  0  0  0  0
 16  1  1  0  0  0  0
 17  3  1  6  0  0  0
 17  1  1  0  0  0  0
 17 14  1  0  0  0  0
 18 30  1  0  0  0  0
 19 20  1  0  0  0  0
 19 15  1  0  0  0  0
 21 22  1  0  0  0  0
 25 24  1  0  0  0  0
 25 23  1  0  0  0  0
 26 27  1  0  0  0  0
 27 29  1  0  0  0  0
 29 28  1  0  0  0  0
 30 32  1  0  0  0  0
 31 37  1  0  0  0  0
 32 31  2  0  0  0  0
 32 33  1  0  0  0  0
 33 36  2  0  0  0  0
 36 35  1  0  0  0  0
 36 34  1  0  0  0  0
 37 35  2  0  0  0  0
M  END
>  <MODEL>
9

>  <REMARK>
 VINA RESULT:      -4.6      2.854      6.227
  Name = 
  9 active torsions:
  status: ('A' for Active; 'I' for Inactive)
    1  A    between atoms: N_1  and  C_5
    2  A    between atoms: O_3  and  C_32
    3  A    between atoms: C_5  and  C_23
    4  A    between atoms: C_6  and  C_31
    5  A    between atoms: C_17  and  C_26
    6  A    between atoms: C_17  and  C_33
    7  A    between atoms: C_24  and  C_28
    8  A    between atoms: C_26  and  C_34
    9  A    between atoms: C_31  and  C_37
                            x       y       z     vdW  Elec       q    Type
                         _______ _______ _______ _____ _____    ______ ____

>  <TORSDO>
F 9

$$$$
