=
 OpenBabel10262423493D

 34 37  0  0  1  0  0  0  0  0999 V2000
  187.2840  176.8450  138.0100 C   0  0  1  0  0  3  0  0  0  0  0  0
  186.9540  172.5430  135.7440 C   0  0  2  0  0  3  0  0  0  0  0  0
  184.2200  175.7490  136.7120 C   0  0  1  0  0  3  0  0  0  0  0  0
  185.7290  172.7370  138.4730 O   0  0  0  0  0  1  0  0  0  0  0  0
  187.5060  179.1860  137.3710 O   0  0  0  0  0  1  0  0  0  0  0  0
  186.6090  174.8950  136.6190 N   0  0  0  0  0  0  0  0  0  0  0  0
  187.7290  175.5390  137.3250 C   0  0  1  0  0  3  0  0  0  0  0  0
  185.6020  171.8520  135.5970 C   0  0  0  0  0  2  0  0  0  0  0  0
  184.8380  173.3830  137.6160 C   0  0  2  0  0  3  0  0  0  0  0  0
  188.2660  177.2540  139.1020 C   0  0  0  0  0  1  0  0  0  0  0  0
  186.9810  174.5130  134.3470 O   0  0  0  0  0  0  0  0  0  0  0  0
  184.8280  176.9870  136.0240 C   0  0  1  0  0  0  0  0  0  0  0  0
  186.9570  177.9570  136.9950 C   0  0  2  0  0  3  0  0  0  0  0  0
  186.8670  174.0290  135.5040 C   0  0  0  0  0  0  0  0  0  0  0  0
  185.1660  176.8970  134.5870 C   0  0  0  0  0  2  0  0  0  0  0  0
  183.9740  177.4980  135.0290 O   0  0  0  0  0  0  0  0  0  0  0  0
  184.4640  172.4850  136.4150 C   0  0  1  0  0  3  0  0  0  0  0  0
  185.3100  174.8240  137.3120 C   0  0  2  0  0  3  0  0  0  0  0  0
  185.4510  178.1180  136.8380 C   0  0  0  0  0  2  0  0  0  0  0  0
  183.0680  177.6910  139.7360 C   0  0  0  0  0  0  0  0  0  0  0  0
  181.6240  177.8530  139.4770 C   0  0  0  0  0  3  0  0  0  0  0  0
  183.1810  176.1760  137.7790 C   0  0  1  0  0  3  0  0  0  0  0  0
  181.1080  177.4850  138.3010 C   0  0  0  0  0  3  0  0  0  0  0  0
  183.8150  176.9440  138.9170 C   0  0  0  0  0  3  0  0  0  0  0  0
  182.0080  176.9860  137.2040 C   0  0  0  0  0  2  0  0  0  0  0  0
  183.6950  178.3750  140.8960 C   0  0  0  0  0  1  0  0  0  0  0  0
  189.3410  172.1570  135.5130 C   0  0  0  0  0  1  0  0  0  0  0  0
  188.0130  171.8300  135.0080 N   0  0  0  0  0  0  0  0  0  0  0  0
  187.8190  170.3940  135.1420 C   0  0  0  0  0  1  0  0  0  0  0  0
  183.3660  173.0260  135.5560 C   0  0  0  0  0  0  0  0  0  0  0  0
  182.0820  173.1380  136.0720 O   0  0  0  0  0  1  0  0  0  0  0  0
  183.6000  173.4100  134.3790 O   0  0  0  0  0  0  0  0  0  0  0  0
  188.9440  175.7630  136.4170 C   0  0  0  0  0  2  0  0  0  0  0  0
  190.2010  175.2260  137.0720 C   0  0  0  0  0  1  0  0  0  0  0  0
  1 10  1  1  0  0  0
  2 28  1  6  0  0  0
  3 18  1  0  0  0  0
  3 22  1  1  0  0  0
  6  7  1  0  0  0  0
  7 33  1  6  0  0  0
  7  1  1  0  0  0  0
  8  2  1  0  0  0  0
  8 17  1  0  0  0  0
  9  4  1  6  0  0  0
 11 14  2  0  0  0  0
 12 15  1  6  0  0  0
 12  3  1  0  0  0  0
 12 19  1  0  0  0  0
 13  5  1  1  0  0  0
 13  1  1  0  0  0  0
 14  2  1  0  0  0  0
 14  6  1  0  0  0  0
 15 16  1  0  0  0  0
 16 12  1  0  0  0  0
 17 30  1  6  0  0  0
 17  9  1  0  0  0  0
 18  6  1  6  0  0  0
 18  9  1  0  0  0  0
 19 13  1  0  0  0  0
 20 26  1  0  0  0  0
 21 20  1  0  0  0  0
 22 25  1  6  0  0  0
 22 24  1  0  0  0  0
 23 21  2  0  0  0  0
 24 20  2  0  0  0  0
 25 23  1  0  0  0  0
 28 29  1  0  0  0  0
 28 27  1  0  0  0  0
 30 31  1  0  0  0  0
 32 30  2  0  0  0  0
 33 34  1  0  0  0  0
M  END
>  <MODEL>
1

>  <REMARK>
 VINA RESULT:      -4.3      0.000      0.000
  Name = 
  4 active torsions:
  status: ('A' for Active; 'I' for Inactive)
    1  A    between atoms: C_2  and  C_15
    2  A    between atoms: C_3  and  N_14
    3  A    between atoms: C_4  and  C_12
    4  A    between atoms: C_13  and  C_29
                            x       y       z     vdW  Elec       q    Type
                         _______ _______ _______ _____ _____    ______ ____

>  <TORSDO>
F 4

$$$$
=
 OpenBabel10262423493D

 34 37  0  0  1  0  0  0  0  0999 V2000
  187.8510  176.6520  138.0320 C   0  0  1  0  0  3  0  0  0  0  0  0
  186.9760  172.4480  135.7280 C   0  0  2  0  0  3  0  0  0  0  0  0
  184.6900  175.9930  136.6730 C   0  0  1  0  0  3  0  0  0  0  0  0
  185.7410  172.7930  138.4370 O   0  0  0  0  0  1  0  0  0  0  0  0
  188.4030  178.9430  137.4150 O   0  0  0  0  0  1  0  0  0  0  0  0
  186.9410  174.8200  136.6150 N   0  0  0  0  0  0  0  0  0  0  0  0
  188.1250  175.3010  137.3460 C   0  0  1  0  0  3  0  0  0  0  0  0
  185.5460  171.9490  135.5530 C   0  0  0  0  0  2  0  0  0  0  0  0
  184.9620  173.5600  137.5690 C   0  0  2  0  0  3  0  0  0  0  0  0
  188.8600  176.9170  139.1450 C   0  0  0  0  0  1  0  0  0  0  0  0
  187.2980  174.4020  134.3470 O   0  0  0  0  0  0  0  0  0  0  0  0
  185.4740  177.1400  136.0050 C   0  0  1  0  0  0  0  0  0  0  0  0
  187.6980  177.8030  137.0210 C   0  0  2  0  0  3  0  0  0  0  0  0
  187.0990  173.9330  135.4980 C   0  0  0  0  0  0  0  0  0  0  0  0
  185.8230  177.0120  134.5740 C   0  0  0  0  0  2  0  0  0  0  0  0
  184.7160  177.7680  135.0000 O   0  0  0  0  0  0  0  0  0  0  0  0
  184.4910  172.7270  136.3560 C   0  0  1  0  0  3  0  0  0  0  0  0
  185.6330  174.9240  137.2850 C   0  0  2  0  0  3  0  0  0  0  0  0
  186.2310  178.1700  136.8390 C   0  0  0  0  0  2  0  0  0  0  0  0
  181.5290  177.7450  137.7610 C   0  0  0  0  0  0  0  0  0  0  0  0
  181.2430  177.1060  139.0600 C   0  0  0  0  0  3  0  0  0  0  0  0
  183.7000  176.5520  137.7260 C   0  0  1  0  0  3  0  0  0  0  0  0
  181.9620  176.0540  139.4620 C   0  0  0  0  0  3  0  0  0  0  0  0
  182.6570  177.4540  137.1060 C   0  0  0  0  0  3  0  0  0  0  0  0
  183.0050  175.4600  138.5550 C   0  0  0  0  0  2  0  0  0  0  0  0
  180.5530  178.6960  137.1700 C   0  0  0  0  0  1  0  0  0  0  0  0
  189.3060  171.8090  135.4730 C   0  0  0  0  0  1  0  0  0  0  0  0
  187.9410  171.6000  135.0050 N   0  0  0  0  0  0  0  0  0  0  0  0
  187.6040  170.1980  135.2020 C   0  0  0  0  0  1  0  0  0  0  0  0
  183.4930  173.4180  135.4810 C   0  0  0  0  0  0  0  0  0  0  0  0
  182.1940  173.6060  135.9370 O   0  0  0  0  0  1  0  0  0  0  0  0
  183.8250  173.8580  134.3490 O   0  0  0  0  0  0  0  0  0  0  0  0
  189.3760  175.3610  136.4600 C   0  0  0  0  0  2  0  0  0  0  0  0
  190.5320  174.6440  137.1270 C   0  0  0  0  0  1  0  0  0  0  0  0
  1 10  1  1  0  0  0
  2 28  1  6  0  0  0
  3 18  1  0  0  0  0
  3 22  1  1  0  0  0
  6  7  1  0  0  0  0
  7 33  1  6  0  0  0
  7  1  1  0  0  0  0
  8  2  1  0  0  0  0
  8 17  1  0  0  0  0
  9  4  1  6  0  0  0
 11 14  2  0  0  0  0
 12 15  1  6  0  0  0
 12  3  1  0  0  0  0
 12 19  1  0  0  0  0
 13  5  1  1  0  0  0
 13  1  1  0  0  0  0
 14  2  1  0  0  0  0
 14  6  1  0  0  0  0
 15 16  1  0  0  0  0
 16 12  1  0  0  0  0
 17 30  1  6  0  0  0
 17  9  1  0  0  0  0
 18  6  1  6  0  0  0
 18  9  1  0  0  0  0
 19 13  1  0  0  0  0
 20 21  1  0  0  0  0
 21 23  2  0  0  0  0
 22 24  1  6  0  0  0
 22 25  1  0  0  0  0
 24 20  2  0  0  0  0
 25 23  1  0  0  0  0
 26 20  1  0  0  0  0
 28 29  1  0  0  0  0
 28 27  1  0  0  0  0
 30 31  1  0  0  0  0
 32 30  2  0  0  0  0
 33 34  1  0  0  0  0
M  END
>  <MODEL>
2

>  <REMARK>
 VINA RESULT:      -4.3      0.869      1.246
  Name = 
  4 active torsions:
  status: ('A' for Active; 'I' for Inactive)
    1  A    between atoms: C_2  and  C_15
    2  A    between atoms: C_3  and  N_14
    3  A    between atoms: C_4  and  C_12
    4  A    between atoms: C_13  and  C_29
                            x       y       z     vdW  Elec       q    Type
                         _______ _______ _______ _____ _____    ______ ____

>  <TORSDO>
F 4

$$$$
=
 OpenBabel10262423493D

 34 37  0  0  1  0  0  0  0  0999 V2000
  189.0760  176.8720  140.3960 C   0  0  1  0  0  3  0  0  0  0  0  0
  191.4760  175.4770  136.3900 C   0  0  2  0  0  3  0  0  0  0  0  0
  187.3630  176.3680  137.3820 C   0  0  1  0  0  3  0  0  0  0  0  0
  189.7440  173.4230  137.7190 O   0  0  0  0  0  1  0  0  0  0  0  0
  188.2270  178.9550  141.3320 O   0  0  0  0  0  1  0  0  0  0  0  0
  189.8080  176.3800  138.0690 N   0  0  0  0  0  0  0  0  0  0  0  0
  190.2590  176.5660  139.4580 C   0  0  1  0  0  3  0  0  0  0  0  0
  190.7290  174.8150  135.2370 C   0  0  0  0  0  2  0  0  0  0  0  0
  188.8670  174.2670  137.0360 C   0  0  2  0  0  3  0  0  0  0  0  0
  189.4440  176.5980  141.8500 C   0  0  0  0  0  1  0  0  0  0  0  0
  190.8210  177.7980  136.5170 O   0  0  0  0  0  0  0  0  0  0  0  0
  187.4020  177.8240  137.8890 C   0  0  1  0  0  0  0  0  0  0  0  0
  188.4720  178.2660  140.1420 C   0  0  2  0  0  3  0  0  0  0  0  0
  190.7100  176.6330  136.9820 C   0  0  0  0  0  0  0  0  0  0  0  0
  188.0520  178.8460  137.0400 C   0  0  0  0  0  2  0  0  0  0  0  0
  186.6560  178.6810  137.0590 O   0  0  0  0  0  0  0  0  0  0  0  0
  189.2780  174.4190  135.5540 C   0  0  1  0  0  3  0  0  0  0  0  0
  188.6040  175.5600  137.8420 C   0  0  2  0  0  3  0  0  0  0  0  0
  187.1700  178.1550  139.3610 C   0  0  0  0  0  2  0  0  0  0  0  0
  183.6250  175.8580  137.2920 C   0  0  0  0  0  0  0  0  0  0  0  0
  183.4940  174.4200  137.5980 C   0  0  0  0  0  3  0  0  0  0  0  0
  186.0420  175.6790  137.8060 C   0  0  1  0  0  3  0  0  0  0  0  0
  184.5820  173.6470  137.6650 C   0  0  0  0  0  3  0  0  0  0  0  0
  184.8240  176.4460  137.3410 C   0  0  0  0  0  3  0  0  0  0  0  0
  185.9360  174.2180  137.3420 C   0  0  0  0  0  2  0  0  0  0  0  0
  182.4270  176.6470  136.9100 C   0  0  0  0  0  1  0  0  0  0  0  0
  193.8030  175.0580  136.9470 C   0  0  0  0  0  1  0  0  0  0  0  0
  192.8840  175.7430  136.0460 N   0  0  0  0  0  0  0  0  0  0  0  0
  193.1510  175.2840  134.6910 C   0  0  0  0  0  1  0  0  0  0  0  0
  188.2820  175.1490  134.7080 C   0  0  0  0  0  0  0  0  0  0  0  0
  187.0980  174.5200  134.3460 O   0  0  0  0  0  1  0  0  0  0  0  0
  188.4930  176.3370  134.3460 O   0  0  0  0  0  0  0  0  0  0  0  0
  191.3640  177.6220  139.5790 C   0  0  0  0  0  2  0  0  0  0  0  0
  192.6840  176.9690  139.9360 C   0  0  0  0  0  1  0  0  0  0  0  0
  1 10  1  1  0  0  0
  2 28  1  6  0  0  0
  2 14  1  0  0  0  0
  3 22  1  1  0  0  0
  3 18  1  0  0  0  0
  3 12  1  0  0  0  0
  6  7  1  0  0  0  0
  7 33  1  6  0  0  0
  7  1  1  0  0  0  0
  8 17  1  0  0  0  0
  8  2  1  0  0  0  0
  9  4  1  1  0  0  0
  9 18  1  0  0  0  0
 11 14  2  0  0  0  0
 12 15  1  6  0  0  0
 12 19  1  0  0  0  0
 13  1  1  0  0  0  0
 13  5  1  1  0  0  0
 14  6  1  0  0  0  0
 15 16  1  0  0  0  0
 16 12  1  0  0  0  0
 17 30  1  1  0  0  0
 17  9  1  0  0  0  0
 18  6  1  6  0  0  0
 19 13  1  0  0  0  0
 20 24  2  0  0  0  0
 20 21  1  0  0  0  0
 21 23  2  0  0  0  0
 22 24  1  6  0  0  0
 25 23  1  0  0  0  0
 25 22  1  0  0  0  0
 26 20  1  0  0  0  0
 28 27  1  0  0  0  0
 29 28  1  0  0  0  0
 31 30  1  0  0  0  0
 32 30  2  0  0  0  0
 33 34  1  0  0  0  0
M  END
>  <MODEL>
3

>  <REMARK>
 VINA RESULT:      -3.5      2.653      4.507
  Name = 
  4 active torsions:
  status: ('A' for Active; 'I' for Inactive)
    1  A    between atoms: C_2  and  C_15
    2  A    between atoms: C_3  and  N_14
    3  A    between atoms: C_4  and  C_12
    4  A    between atoms: C_13  and  C_29
                            x       y       z     vdW  Elec       q    Type
                         _______ _______ _______ _____ _____    ______ ____

>  <TORSDO>
F 4

$$$$
=
 OpenBabel10262423493D

 34 37  0  0  1  0  0  0  0  0999 V2000
  181.9210  179.1770  136.8900 C   0  0  1  0  0  3  0  0  0  0  0  0
  181.8930  174.3700  136.0870 C   0  0  2  0  0  3  0  0  0  0  0  0
  184.6550  177.2010  137.8350 C   0  0  1  0  0  3  0  0  0  0  0  0
  183.6900  176.0260  134.3500 O   0  0  0  0  0  1  0  0  0  0  0  0
  181.4750  180.6770  138.7580 O   0  0  0  0  0  1  0  0  0  0  0  0
  182.3380  176.7240  136.9110 N   0  0  0  0  0  0  0  0  0  0  0  0
  181.3820  177.7790  136.5350 C   0  0  1  0  0  3  0  0  0  0  0  0
  183.2020  173.5890  136.0500 C   0  0  0  0  0  2  0  0  0  0  0  0
  184.3420  175.9300  135.5800 C   0  0  2  0  0  3  0  0  0  0  0  0
  181.1940  180.2620  136.1020 C   0  0  0  0  0  1  0  0  0  0  0  0
  181.4810  175.1010  138.3520 O   0  0  0  0  0  0  0  0  0  0  0  0
  183.8620  177.8370  138.9940 C   0  0  1  0  0  0  0  0  0  0  0  0
  181.9700  179.4170  138.4100 C   0  0  2  0  0  3  0  0  0  0  0  0
  181.8690  175.3980  137.1910 C   0  0  0  0  0  0  0  0  0  0  0  0
  183.2150  176.9420  139.9770 C   0  0  0  0  0  2  0  0  0  0  0  0
  184.4530  177.5550  140.2400 O   0  0  0  0  0  0  0  0  0  0  0  0
  184.4700  174.4580  136.0330 C   0  0  1  0  0  3  0  0  0  0  0  0
  183.7610  176.9430  136.5940 C   0  0  2  0  0  3  0  0  0  0  0  0
  183.3960  179.2890  138.9300 C   0  0  0  0  0  2  0  0  0  0  0  0
  188.2430  178.3040  138.2160 C   0  0  0  0  0  0  0  0  0  0  0  0
  188.5820  178.7560  136.8530 C   0  0  0  0  0  3  0  0  0  0  0  0
  185.8900  178.0670  137.4810 C   0  0  1  0  0  3  0  0  0  0  0  0
  187.7270  178.5530  135.8470 C   0  0  0  0  0  3  0  0  0  0  0  0
  186.9930  177.9340  138.5060 C   0  0  0  0  0  3  0  0  0  0  0  0
  186.4550  177.7830  136.0800 C   0  0  0  0  0  2  0  0  0  0  0  0
  189.2970  178.2420  139.2600 C   0  0  0  0  0  1  0  0  0  0  0  0
  180.2790  173.2840  134.6330 C   0  0  0  0  0  1  0  0  0  0  0  0
  180.7230  173.4780  136.0090 N   0  0  0  0  0  0  0  0  0  0  0  0
  181.0640  172.1760  136.5620 C   0  0  0  0  0  1  0  0  0  0  0  0
  185.3270  174.2550  137.2420 C   0  0  0  0  0  0  0  0  0  0  0  0
  186.6610  174.6420  137.2110 O   0  0  0  0  0  0  0  0  0  0  0  0
  184.8450  173.7650  138.2980 O   0  0  0  0  0  1  0  0  0  0  0  0
  179.9870  177.5440  137.1260 C   0  0  0  0  0  2  0  0  0  0  0  0
  180.0000  177.7790  138.6230 C   0  0  0  0  0  1  0  0  0  0  0  0
  1 10  1  6  0  0  0
  1 13  1  0  0  0  0
  2 28  1  1  0  0  0
  2 14  1  0  0  0  0
  3 22  1  6  0  0  0
  3 12  1  0  0  0  0
  6 14  1  0  0  0  0
  7  1  1  0  0  0  0
  7  6  1  0  0  0  0
  7 33  1  1  0  0  0
  8  2  1  0  0  0  0
  9  4  1  6  0  0  0
  9 17  1  0  0  0  0
  9 18  1  0  0  0  0
 12 19  1  6  0  0  0
 12 15  1  0  0  0  0
 12 16  1  0  0  0  0
 13  5  1  6  0  0  0
 13 19  1  0  0  0  0
 14 11  2  0  0  0  0
 15 16  1  0  0  0  0
 17  8  1  0  0  0  0
 17 30  1  1  0  0  0
 18  6  1  1  0  0  0
 18  3  1  0  0  0  0
 20 24  2  0  0  0  0
 20 26  1  0  0  0  0
 21 20  1  0  0  0  0
 22 25  1  6  0  0  0
 22 24  1  0  0  0  0
 23 25  1  0  0  0  0
 23 21  2  0  0  0  0
 27 28  1  0  0  0  0
 28 29  1  0  0  0  0
 30 32  1  0  0  0  0
 31 30  2  0  0  0  0
 33 34  1  0  0  0  0
M  END
>  <MODEL>
4

>  <REMARK>
 VINA RESULT:      -2.6      2.757      5.807
  Name = 
  4 active torsions:
  status: ('A' for Active; 'I' for Inactive)
    1  A    between atoms: C_2  and  C_15
    2  A    between atoms: C_3  and  N_14
    3  A    between atoms: C_4  and  C_12
    4  A    between atoms: C_13  and  C_29
                            x       y       z     vdW  Elec       q    Type
                         _______ _______ _______ _____ _____    ______ ____

>  <TORSDO>
F 4

$$$$
=
 OpenBabel10262423493D

 34 37  0  0  1  0  0  0  0  0999 V2000
  184.3860  177.5310  135.8840 C   0  0  1  0  0  3  0  0  0  0  0  0
  184.4800  178.4510  140.6680 C   0  0  2  0  0  3  0  0  0  0  0  0
  181.4400  178.3410  137.5970 C   0  0  1  0  0  3  0  0  0  0  0  0
  184.0640  180.7930  138.8450 O   0  0  0  0  0  1  0  0  0  0  0  0
  183.8480  175.6440  134.4400 O   0  0  0  0  0  1  0  0  0  0  0  0
  183.8390  177.8770  138.2870 N   0  0  0  0  0  0  0  0  0  0  0  0
  184.9220  177.6120  137.3250 C   0  0  1  0  0  3  0  0  0  0  0  0
  183.3500  179.2400  141.3230 C   0  0  0  0  0  2  0  0  0  0  0  0
  182.8390  180.1260  138.8830 C   0  0  2  0  0  3  0  0  0  0  0  0
  185.5070  177.7350  134.8690 C   0  0  0  0  0  1  0  0  0  0  0  0
  183.6370  176.2930  139.9890 O   0  0  0  0  0  0  0  0  0  0  0  0
  181.5130  176.9050  137.0430 C   0  0  1  0  0  0  0  0  0  0  0  0
  183.5300  176.2740  135.6460 C   0  0  2  0  0  3  0  0  0  0  0  0
  183.9740  177.4590  139.6530 C   0  0  0  0  0  0  0  0  0  0  0  0
  181.4440  175.7780  137.9990 C   0  0  0  0  0  2  0  0  0  0  0  0
  180.3160  176.2000  137.2720 O   0  0  0  0  0  0  0  0  0  0  0  0
  182.3710  179.8980  140.3380 C   0  0  1  0  0  3  0  0  0  0  0  0
  182.8450  178.9050  137.9330 C   0  0  2  0  0  3  0  0  0  0  0  0
  182.0480  176.6240  135.6410 C   0  0  0  0  0  2  0  0  0  0  0  0
  180.2130  181.6830  136.3440 C   0  0  0  0  0  0  0  0  0  0  0  0
  180.1190  181.4600  134.8880 C   0  0  0  0  0  3  0  0  0  0  0  0
  180.6720  179.2640  136.6180 C   0  0  1  0  0  3  0  0  0  0  0  0
  180.5880  180.3300  134.3510 C   0  0  0  0  0  3  0  0  0  0  0  0
  180.5180  180.6680  137.1580 C   0  0  0  0  0  3  0  0  0  0  0  0
  181.2950  179.3200  135.2130 C   0  0  0  0  0  2  0  0  0  0  0  0
  179.9870  183.0400  136.9030 C   0  0  0  0  0  1  0  0  0  0  0  0
  186.7230  178.5960  141.5910 C   0  0  0  0  0  1  0  0  0  0  0  0
  185.4290  177.9280  141.6670 N   0  0  0  0  0  0  0  0  0  0  0  0
  184.8930  178.1320  143.0050 C   0  0  0  0  0  1  0  0  0  0  0  0
  180.9790  179.3660  140.4640 C   0  0  0  0  0  0  0  0  0  0  0  0
  180.7810  178.0310  140.7930 O   0  0  0  0  0  1  0  0  0  0  0  0
  179.9840  180.1220  140.3050 O   0  0  0  0  0  0  0  0  0  0  0  0
  185.7410  176.3690  137.6930 C   0  0  0  0  0  2  0  0  0  0  0  0
  187.2240  176.6690  137.6130 C   0  0  0  0  0  1  0  0  0  0  0  0
  1 10  1  6  0  0  0
  1  7  1  0  0  0  0
  2  8  1  0  0  0  0
  2 28  1  1  0  0  0
  3 22  1  6  0  0  0
  3 18  1  0  0  0  0
  6 14  1  0  0  0  0
  7 33  1  1  0  0  0
  7  6  1  0  0  0  0
  9  4  1  1  0  0  0
  9 17  1  0  0  0  0
 12 19  1  6  0  0  0
 12 16  1  0  0  0  0
 12  3  1  0  0  0  0
 12 15  1  0  0  0  0
 13  5  1  6  0  0  0
 13  1  1  0  0  0  0
 14 11  2  0  0  0  0
 14  2  1  0  0  0  0
 16 15  1  0  0  0  0
 17 30  1  6  0  0  0
 17  8  1  0  0  0  0
 18  6  1  1  0  0  0
 18  9  1  0  0  0  0
 19 13  1  0  0  0  0
 20 26  1  0  0  0  0
 20 24  2  0  0  0  0
 21 20  1  0  0  0  0
 22 25  1  6  0  0  0
 22 24  1  0  0  0  0
 23 21  2  0  0  0  0
 23 25  1  0  0  0  0
 27 28  1  0  0  0  0
 28 29  1  0  0  0  0
 30 31  1  0  0  0  0
 32 30  2  0  0  0  0
 34 33  1  0  0  0  0
M  END
>  <MODEL>
5

>  <REMARK>
 VINA RESULT:      -2.5      3.381      6.439
  Name = 
  4 active torsions:
  status: ('A' for Active; 'I' for Inactive)
    1  A    between atoms: C_2  and  C_15
    2  A    between atoms: C_3  and  N_14
    3  A    between atoms: C_4  and  C_12
    4  A    between atoms: C_13  and  C_29
                            x       y       z     vdW  Elec       q    Type
                         _______ _______ _______ _____ _____    ______ ____

>  <TORSDO>
F 4

$$$$
=
 OpenBabel10262423493D

 34 37  0  0  1  0  0  0  0  0999 V2000
  189.1540  176.9260  140.5050 C   0  0  1  0  0  3  0  0  0  0  0  0
  191.2480  174.8810  136.6080 C   0  0  2  0  0  3  0  0  0  0  0  0
  187.5430  176.9650  137.3940 C   0  0  1  0  0  3  0  0  0  0  0  0
  188.9070  173.4400  137.8030 O   0  0  0  0  0  1  0  0  0  0  0  0
  188.9170  179.1660  141.4330 O   0  0  0  0  0  1  0  0  0  0  0  0
  189.8350  176.2400  138.2110 N   0  0  0  0  0  0  0  0  0  0  0  0
  190.2410  176.2800  139.6260 C   0  0  1  0  0  3  0  0  0  0  0  0
  190.4030  174.4750  135.4040 C   0  0  0  0  0  2  0  0  0  0  0  0
  188.3640  174.5100  137.0900 C   0  0  2  0  0  3  0  0  0  0  0  0
  189.3400  176.5510  141.9710 C   0  0  0  0  0  1  0  0  0  0  0  0
  191.3130  177.2910  136.7420 O   0  0  0  0  0  0  0  0  0  0  0  0
  187.9870  178.3410  137.9300 C   0  0  1  0  0  0  0  0  0  0  0  0
  189.0120  178.4370  140.2440 C   0  0  2  0  0  3  0  0  0  0  0  0
  190.8310  176.2120  137.1790 C   0  0  0  0  0  0  0  0  0  0  0  0
  188.9610  179.1220  137.1360 C   0  0  0  0  0  2  0  0  0  0  0  0
  187.5800  179.3840  137.0770 O   0  0  0  0  0  0  0  0  0  0  0  0
  188.8840  174.5340  135.6350 C   0  0  1  0  0  3  0  0  0  0  0  0
  188.4560  175.8200  137.9060 C   0  0  2  0  0  3  0  0  0  0  0  0
  187.7820  178.7240  139.3930 C   0  0  0  0  0  2  0  0  0  0  0  0
  184.0720  178.0100  138.4450 C   0  0  0  0  0  0  0  0  0  0  0  0
  183.2210  177.0170  137.7630 C   0  0  0  0  0  3  0  0  0  0  0  0
  186.0530  176.7040  137.7350 C   0  0  1  0  0  3  0  0  0  0  0  0
  183.7580  176.1640  136.8850 C   0  0  0  0  0  3  0  0  0  0  0  0
  185.4030  177.8980  138.3970 C   0  0  0  0  0  3  0  0  0  0  0  0
  185.2140  176.2710  136.5220 C   0  0  0  0  0  2  0  0  0  0  0  0
  183.4490  179.1480  139.1700 C   0  0  0  0  0  1  0  0  0  0  0  0
  193.3710  174.0600  137.4550 C   0  0  0  0  0  1  0  0  0  0  0  0
  192.6880  174.7120  136.3440 N   0  0  0  0  0  0  0  0  0  0  0  0
  192.8750  173.8950  135.1550 C   0  0  0  0  0  1  0  0  0  0  0  0
  188.2030  175.5300  134.7510 C   0  0  0  0  0  0  0  0  0  0  0  0
  188.8860  176.6690  134.3460 O   0  0  0  0  0  1  0  0  0  0  0  0
  187.0270  175.3320  134.3460 O   0  0  0  0  0  0  0  0  0  0  0  0
  191.6040  176.9550  139.8250 C   0  0  0  0  0  2  0  0  0  0  0  0
  191.8300  177.2700  141.2900 C   0  0  0  0  0  1  0  0  0  0  0  0
  1 10  1  1  0  0  0
  2 28  1  6  0  0  0
  2 14  1  0  0  0  0
  3 22  1  1  0  0  0
  3 18  1  0  0  0  0
  3 12  1  0  0  0  0
  6  7  1  0  0  0  0
  7 33  1  6  0  0  0
  7  1  1  0  0  0  0
  8 17  1  0  0  0  0
  8  2  1  0  0  0  0
  9  4  1  1  0  0  0
  9 18  1  0  0  0  0
 11 14  2  0  0  0  0
 12 15  1  6  0  0  0
 12 19  1  0  0  0  0
 13  1  1  0  0  0  0
 13  5  1  1  0  0  0
 14  6  1  0  0  0  0
 16 15  1  0  0  0  0
 16 12  1  0  0  0  0
 17 30  1  1  0  0  0
 17  9  1  0  0  0  0
 18  6  1  6  0  0  0
 19 13  1  0  0  0  0
 20 26  1  0  0  0  0
 21 20  1  0  0  0  0
 22 25  1  6  0  0  0
 22 24  1  0  0  0  0
 23 21  2  0  0  0  0
 24 20  2  0  0  0  0
 25 23  1  0  0  0  0
 28 27  1  0  0  0  0
 29 28  1  0  0  0  0
 31 30  1  0  0  0  0
 32 30  2  0  0  0  0
 33 34  1  0  0  0  0
M  END
>  <MODEL>
6

>  <REMARK>
 VINA RESULT:      -2.0      2.708      4.307
  Name = 
  4 active torsions:
  status: ('A' for Active; 'I' for Inactive)
    1  A    between atoms: C_2  and  C_15
    2  A    between atoms: C_3  and  N_14
    3  A    between atoms: C_4  and  C_12
    4  A    between atoms: C_13  and  C_29
                            x       y       z     vdW  Elec       q    Type
                         _______ _______ _______ _____ _____    ______ ____

>  <TORSDO>
F 4

$$$$
=
 OpenBabel10262423493D

 34 37  0  0  1  0  0  0  0  0999 V2000
  190.6610  176.7570  140.4290 C   0  0  1  0  0  3  0  0  0  0  0  0
  186.5370  177.9360  142.7410 C   0  0  2  0  0  3  0  0  0  0  0  0
  190.6660  177.3570  143.8810 C   0  0  1  0  0  3  0  0  0  0  0  0
  187.6190  175.1820  143.2170 O   0  0  0  0  0  1  0  0  0  0  0  0
  192.5960  177.9280  139.5220 O   0  0  0  0  0  1  0  0  0  0  0  0
  188.9410  177.5730  142.0310 N   0  0  0  0  0  0  0  0  0  0  0  0
  189.1960  177.1840  140.6340 C   0  0  1  0  0  3  0  0  0  0  0  0
  186.4170  177.7430  144.2490 C   0  0  0  0  0  2  0  0  0  0  0  0
  188.4210  176.0370  143.9760 C   0  0  2  0  0  3  0  0  0  0  0  0
  190.8190  175.9240  139.1610 C   0  0  0  0  0  1  0  0  0  0  0  0
  188.0930  179.7300  142.3020 O   0  0  0  0  0  0  0  0  0  0  0  0
  191.4430  178.3800  143.0270 C   0  0  1  0  0  0  0  0  0  0  0  0
  191.6380  177.9420  140.5400 C   0  0  2  0  0  3  0  0  0  0  0  0
  187.8800  178.4890  142.3370 C   0  0  0  0  0  0  0  0  0  0  0  0
  191.0040  179.7920  143.0510 C   0  0  0  0  0  2  0  0  0  0  0  0
  192.0850  179.3410  143.8290 O   0  0  0  0  0  0  0  0  0  0  0  0
  187.5650  176.9440  144.8870 C   0  0  1  0  0  3  0  0  0  0  0  0
  189.4940  176.7150  143.0940 C   0  0  2  0  0  3  0  0  0  0  0  0
  192.3510  177.9300  141.8860 C   0  0  0  0  0  2  0  0  0  0  0  0
  192.2510  175.3600  146.6640 C   0  0  0  0  0  0  0  0  0  0  0  0
  192.5630  174.0810  145.9980 C   0  0  0  0  0  3  0  0  0  0  0  0
  191.6280  176.2840  144.4510 C   0  0  1  0  0  3  0  0  0  0  0  0
  192.1270  173.8470  144.7570 C   0  0  0  0  0  3  0  0  0  0  0  0
  191.7660  176.3840  145.9540 C   0  0  0  0  0  3  0  0  0  0  0  0
  191.2400  174.8470  144.0660 C   0  0  0  0  0  2  0  0  0  0  0  0
  192.4550  175.5040  148.1280 C   0  0  0  0  0  1  0  0  0  0  0  0
  184.9850  178.0990  140.8790 C   0  0  0  0  0  1  0  0  0  0  0  0
  185.3590  178.6280  142.1850 N   0  0  0  0  0  0  0  0  0  0  0  0
  184.2260  178.4620  143.0830 C   0  0  0  0  0  1  0  0  0  0  0  0
  188.3520  177.7500  145.8730 C   0  0  0  0  0  0  0  0  0  0  0  0
  188.5540  177.2580  147.1560 O   0  0  0  0  0  1  0  0  0  0  0  0
  188.8580  178.8550  145.5420 O   0  0  0  0  0  0  0  0  0  0  0  0
  188.7800  178.2730  139.6370 C   0  0  0  0  0  2  0  0  0  0  0  0
  187.8300  177.7070  138.6000 C   0  0  0  0  0  1  0  0  0  0  0  0
  1 10  1  6  0  0  0
  1 13  1  0  0  0  0
  1  7  1  0  0  0  0
  2 28  1  1  0  0  0
  2  8  1  0  0  0  0
  3 22  1  6  0  0  0
  6 14  1  0  0  0  0
  7 33  1  6  0  0  0
  7  6  1  0  0  0  0
  8 17  1  0  0  0  0
  9  4  1  6  0  0  0
  9 17  1  0  0  0  0
 11 14  2  0  0  0  0
 12 19  1  6  0  0  0
 12 15  1  0  0  0  0
 12 16  1  0  0  0  0
 12  3  1  0  0  0  0
 13  5  1  6  0  0  0
 13 19  1  0  0  0  0
 14  2  1  0  0  0  0
 15 16  1  0  0  0  0
 17 30  1  6  0  0  0
 18  6  1  1  0  0  0
 18  3  1  0  0  0  0
 18  9  1  0  0  0  0
 20 26  1  0  0  0  0
 21 20  1  0  0  0  0
 22 25  1  1  0  0  0
 22 24  1  0  0  0  0
 23 21  2  0  0  0  0
 24 20  2  0  0  0  0
 25 23  1  0  0  0  0
 27 28  1  0  0  0  0
 28 29  1  0  0  0  0
 30 31  1  0  0  0  0
 32 30  2  0  0  0  0
 34 33  1  0  0  0  0
M  END
>  <MODEL>
7

>  <REMARK>
 VINA RESULT:      -1.7      5.883      9.611
  Name = 
  4 active torsions:
  status: ('A' for Active; 'I' for Inactive)
    1  A    between atoms: C_2  and  C_15
    2  A    between atoms: C_3  and  N_14
    3  A    between atoms: C_4  and  C_12
    4  A    between atoms: C_13  and  C_29
                            x       y       z     vdW  Elec       q    Type
                         _______ _______ _______ _____ _____    ______ ____

>  <TORSDO>
F 4

$$$$
=
 OpenBabel10262423493D

 34 37  0  0  1  0  0  0  0  0999 V2000
  188.6810  175.1350  137.0610 C   0  0  1  0  0  3  0  0  0  0  0  0
  184.2150  176.6620  135.8480 C   0  0  2  0  0  3  0  0  0  0  0  0
  187.4200  178.1420  138.3430 C   0  0  1  0  0  3  0  0  0  0  0  0
  184.5840  175.6270  138.6360 O   0  0  0  0  0  1  0  0  0  0  0  0
  190.9720  175.5880  136.3660 O   0  0  0  0  0  1  0  0  0  0  0  0
  186.6180  176.4550  136.6240 N   0  0  0  0  0  0  0  0  0  0  0  0
  187.3390  175.2100  136.3110 C   0  0  1  0  0  3  0  0  0  0  0  0
  183.4840  177.6750  136.7220 C   0  0  0  0  0  2  0  0  0  0  0  0
  185.1440  176.9050  138.6340 C   0  0  2  0  0  3  0  0  0  0  0  0
  189.1940  173.7000  137.1280 C   0  0  0  0  0  1  0  0  0  0  0  0
  186.0750  177.7600  134.7670 O   0  0  0  0  0  0  0  0  0  0  0  0
  188.6180  178.2790  137.3820 C   0  0  1  0  0  0  0  0  0  0  0  0
  189.7060  176.1550  136.5320 C   0  0  2  0  0  3  0  0  0  0  0  0
  185.6770  176.9940  135.6840 C   0  0  0  0  0  0  0  0  0  0  0  0
  188.4280  179.0430  136.1290 C   0  0  0  0  0  2  0  0  0  0  0  0
  189.0330  179.6190  137.2600 O   0  0  0  0  0  0  0  0  0  0  0  0
  184.1500  177.9510  138.0800 C   0  0  1  0  0  3  0  0  0  0  0  0
  186.5690  176.8830  138.0330 C   0  0  2  0  0  3  0  0  0  0  0  0
  189.8200  177.3440  137.4770 C   0  0  0  0  0  2  0  0  0  0  0  0
  186.9010  178.0870  142.0810 C   0  0  0  0  0  0  0  0  0  0  0  0
  188.1340  177.4370  142.5630 C   0  0  0  0  0  3  0  0  0  0  0  0
  187.9020  178.1580  139.8160 C   0  0  1  0  0  3  0  0  0  0  0  0
  188.9980  176.9080  141.6910 C   0  0  0  0  0  3  0  0  0  0  0  0
  186.7640  178.3860  140.7860 C   0  0  0  0  0  3  0  0  0  0  0  0
  188.6760  176.8940  140.2220 C   0  0  0  0  0  2  0  0  0  0  0  0
  185.8010  178.3910  143.0320 C   0  0  0  0  0  1  0  0  0  0  0  0
  183.1860  174.9570  134.4570 C   0  0  0  0  0  1  0  0  0  0  0  0
  183.4740  176.3790  134.6060 N   0  0  0  0  0  0  0  0  0  0  0  0
  182.2090  177.0980  134.6170 C   0  0  0  0  0  1  0  0  0  0  0  0
  184.6000  179.3700  138.2260 C   0  0  0  0  0  0  0  0  0  0  0  0
  184.0950  180.1470  139.2610 O   0  0  0  0  0  1  0  0  0  0  0  0
  185.4530  179.8590  137.4390 O   0  0  0  0  0  0  0  0  0  0  0  0
  187.5220  175.0020  134.8030 C   0  0  0  0  0  2  0  0  0  0  0  0
  186.7890  173.7560  134.3470 C   0  0  0  0  0  1  0  0  0  0  0  0
  1 10  1  6  0  0  0
  2 28  1  6  0  0  0
  2  8  1  0  0  0  0
  3 22  1  1  0  0  0
  7 33  1  6  0  0  0
  7  6  1  0  0  0  0
  7  1  1  0  0  0  0
  8 17  1  0  0  0  0
  9  4  1  6  0  0  0
 11 14  2  0  0  0  0
 12 15  1  6  0  0  0
 12 19  1  0  0  0  0
 12  3  1  0  0  0  0
 13  5  1  1  0  0  0
 13  1  1  0  0  0  0
 13 19  1  0  0  0  0
 14  2  1  0  0  0  0
 14  6  1  0  0  0  0
 15 16  1  0  0  0  0
 16 12  1  0  0  0  0
 17 30  1  6  0  0  0
 17  9  1  0  0  0  0
 18  6  1  6  0  0  0
 18  3  1  0  0  0  0
 18  9  1  0  0  0  0
 20 21  1  0  0  0  0
 20 26  1  0  0  0  0
 22 25  1  1  0  0  0
 22 24  1  0  0  0  0
 23 21  2  0  0  0  0
 24 20  2  0  0  0  0
 25 23  1  0  0  0  0
 27 28  1  0  0  0  0
 28 29  1  0  0  0  0
 30 31  1  0  0  0  0
 32 30  2  0  0  0  0
 34 33  1  0  0  0  0
M  END
>  <MODEL>
8

>  <REMARK>
 VINA RESULT:      -1.5      2.500      5.239
  Name = 
  4 active torsions:
  status: ('A' for Active; 'I' for Inactive)
    1  A    between atoms: C_2  and  C_15
    2  A    between atoms: C_3  and  N_14
    3  A    between atoms: C_4  and  C_12
    4  A    between atoms: C_13  and  C_29
                            x       y       z     vdW  Elec       q    Type
                         _______ _______ _______ _____ _____    ______ ____

>  <TORSDO>
F 4

$$$$
