=
 OpenBabel10272400323D

 31 35  0  0  1  0  0  0  0  0999 V2000
  191.0260  177.2410  144.3870 C   0  0  0  0  0  0  0  0  0  0  0  0
  187.7300  177.6560  142.6080 C   0  0  2  0  0  3  0  0  0  0  0  0
  186.8290  178.1050  143.7640 C   0  0  2  0  0  3  0  0  0  0  0  0
  185.8690  177.3470  146.0400 C   0  0  0  0  0  2  0  0  0  0  0  0
  189.2080  177.5760  142.8950 C   0  0  0  0  0  0  0  0  0  0  0  0
  191.9260  177.2040  143.3180 C   0  0  0  0  0  3  0  0  0  0  0  0
  186.8280  177.0530  144.8820 C   0  0  0  0  0  2  0  0  0  0  0  0
  188.3550  178.1260  140.2400 C   0  0  0  0  0  0  0  0  0  0  0  0
  191.4990  177.0830  145.7190 N   0  0  0  0  0  1  0  0  0  0  0  0
  185.4690  179.2660  142.1120 O   0  0  0  0  0  0  0  0  0  0  0  0
  185.7990  178.8310  146.4170 C   0  0  0  0  0  2  0  0  0  0  0  0
  189.5730  177.7110  140.4610 N   0  0  0  0  0  0  0  0  0  0  0  0
  187.5060  178.5720  141.4040 C   0  0  1  0  0  3  0  0  0  0  0  0
  187.8860  178.3100  138.9010 N   0  0  0  0  0  2  0  0  0  0  0  0
  189.6960  177.4110  144.1560 N   0  0  0  0  0  0  0  0  0  0  0  0
  185.1010  179.7200  145.3720 C   0  0  0  0  0  2  0  0  0  0  0  0
  190.0850  177.5420  141.7950 C   0  0  0  0  0  0  0  0  0  0  0  0
  191.4490  177.3530  142.0140 C   0  0  0  0  0  3  0  0  0  0  0  0
  186.0790  178.5890  141.0980 N   0  0  0  0  0  2  0  0  0  0  0  0
  185.4030  178.3790  143.2070 C   0  0  2  0  0  3  0  0  0  0  0  0
  184.4180  178.9350  144.2470 C   0  0  0  0  0  2  0  0  0  0  0  0
  189.0190  176.5840  137.8040 O   0  0  0  0  0  1  0  0  0  0  0  0
  188.6680  177.9340  137.7310 C   0  0  1  0  0  3  0  0  0  0  0  0
  186.2930  176.1320  135.0320 C   0  0  1  0  0  3  0  0  0  0  0  0
  186.3660  178.0330  136.6260 C   0  0  0  0  0  2  0  0  0  0  0  0
  189.5630  177.7470  134.8220 O   0  0  0  0  0  0  0  0  0  0  0  0
  185.9540  174.6670  134.8540 C   0  0  0  0  0  1  0  0  0  0  0  0
  185.9620  176.5720  136.4510 C   0  0  0  0  0  2  0  0  0  0  0  0
  188.4280  177.4570  135.2840 C   0  0  0  0  0  0  0  0  0  0  0  0
  187.8800  178.2320  136.4520 C   0  0  2  0  0  3  0  0  0  0  0  0
  187.7050  176.3500  134.7380 N   0  0  0  0  0  2  0  0  0  0  0  0
  1  9  1  0  0  0  0
  2  5  1  1  0  0  0
  2  3  1  0  0  0  0
  3  7  1  1  0  0  0
  4 11  1  0  0  0  0
  5 15  2  0  0  0  0
  6  1  2  0  0  0  0
  7  4  1  0  0  0  0
  8 12  2  0  0  0  0
 10 20  1  0  0  0  0
 12 17  1  0  0  0  0
 13  8  1  6  0  0  0
 13  2  1  0  0  0  0
 14  8  1  0  0  0  0
 15  1  1  0  0  0  0
 16 11  1  0  0  0  0
 17 18  2  0  0  0  0
 17  5  1  0  0  0  0
 18  6  1  0  0  0  0
 19 13  1  0  0  0  0
 19 10  1  0  0  0  0
 20  3  1  0  0  0  0
 20 21  1  1  0  0  0
 21 16  1  0  0  0  0
 23 22  1  1  0  0  0
 23 14  1  0  0  0  0
 24 27  1  1  0  0  0
 24 28  1  0  0  0  0
 26 29  2  0  0  0  0
 28 25  1  0  0  0  0
 29 30  1  0  0  0  0
 30 25  1  0  0  0  0
 30 23  1  1  0  0  0
 31 24  1  0  0  0  0
 31 29  1  0  0  0  0
M  END
>  <MODEL>
1

>  <REMARK>
 VINA RESULT:      -9.6      0.000      0.000
  Name = 
  2 active torsions:
  status: ('A' for Active; 'I' for Inactive)
    1  A    between atoms: C_9  and  C_22
    2  A    between atoms: C_9  and  N_23
                            x       y       z     vdW  Elec       q    Type
                         _______ _______ _______ _____ _____    ______ ____

>  <TORSDO>
F 2

$$$$
=
 OpenBabel10272400323D

 31 35  0  0  1  0  0  0  0  0999 V2000
  190.4200  176.9040  146.0250 C   0  0  0  0  0  0  0  0  0  0  0  0
  188.1370  177.1270  143.0350 C   0  0  2  0  0  3  0  0  0  0  0  0
  186.9880  177.9650  143.6070 C   0  0  2  0  0  3  0  0  0  0  0  0
  185.1440  177.9680  145.4180 C   0  0  0  0  0  2  0  0  0  0  0  0
  189.3660  176.9860  143.8990 C   0  0  0  0  0  0  0  0  0  0  0  0
  191.6180  176.4840  145.4400 C   0  0  0  0  0  3  0  0  0  0  0  0
  186.3770  177.2710  144.8330 C   0  0  0  0  0  2  0  0  0  0  0  0
  189.6520  176.8550  141.0730 C   0  0  0  0  0  0  0  0  0  0  0  0
  190.3420  177.0780  147.4350 N   0  0  0  0  0  1  0  0  0  0  0  0
  186.5720  178.7470  141.3400 O   0  0  0  0  0  0  0  0  0  0  0  0
  185.2380  179.4980  145.4000 C   0  0  0  0  0  2  0  0  0  0  0  0
  190.6000  176.4020  141.8460 N   0  0  0  0  0  0  0  0  0  0  0  0
  188.5460  177.6880  141.6730 C   0  0  1  0  0  3  0  0  0  0  0  0
  189.7420  176.7040  139.6530 N   0  0  0  0  0  2  0  0  0  0  0  0
  189.3240  177.1320  145.2520 N   0  0  0  0  0  0  0  0  0  0  0  0
  185.1530  180.1250  143.9970 C   0  0  0  0  0  2  0  0  0  0  0  0
  190.5540  176.5620  143.2760 C   0  0  0  0  0  0  0  0  0  0  0  0
  191.6820  176.3090  144.0560 C   0  0  0  0  0  3  0  0  0  0  0  0
  187.3590  177.7590  140.8280 N   0  0  0  0  0  2  0  0  0  0  0  0
  185.9420  178.2110  142.4830 C   0  0  2  0  0  3  0  0  0  0  0  0
  184.7800  179.1280  142.8950 C   0  0  0  0  0  2  0  0  0  0  0  0
  190.2490  174.9320  138.2150 O   0  0  0  0  0  1  0  0  0  0  0  0
  190.8020  175.9440  139.0050 C   0  0  1  0  0  3  0  0  0  0  0  0
  193.8940  175.8490  136.4360 C   0  0  1  0  0  3  0  0  0  0  0  0
  191.5490  176.6320  136.6600 C   0  0  0  0  0  2  0  0  0  0  0  0
  193.4270  177.3000  139.7560 O   0  0  0  0  0  0  0  0  0  0  0  0
  194.7910  174.6990  136.0290 C   0  0  0  0  0  1  0  0  0  0  0  0
  192.4370  175.4840  136.1890 C   0  0  0  0  0  2  0  0  0  0  0  0
  193.1170  176.8220  138.6330 C   0  0  0  0  0  0  0  0  0  0  0  0
  191.6860  176.8760  138.1710 C   0  0  2  0  0  3  0  0  0  0  0  0
  194.1160  176.1730  137.8410 N   0  0  0  0  0  2  0  0  0  0  0  0
  1  9  1  0  0  0  0
  2  3  1  0  0  0  0
  2  5  1  1  0  0  0
  3  7  1  1  0  0  0
  5 15  1  0  0  0  0
  6  1  1  0  0  0  0
  7  4  1  0  0  0  0
  8 13  1  0  0  0  0
  8 12  2  0  0  0  0
 10 20  1  0  0  0  0
 11  4  1  0  0  0  0
 12 17  1  0  0  0  0
 13 19  1  6  0  0  0
 13  2  1  0  0  0  0
 14  8  1  0  0  0  0
 15  1  2  0  0  0  0
 16 11  1  0  0  0  0
 17  5  2  0  0  0  0
 17 18  1  0  0  0  0
 18  6  2  0  0  0  0
 19 10  1  0  0  0  0
 20 21  1  1  0  0  0
 20  3  1  0  0  0  0
 21 16  1  0  0  0  0
 23 22  1  6  0  0  0
 23 14  1  0  0  0  0
 24 27  1  1  0  0  0
 24 31  1  0  0  0  0
 25 30  1  0  0  0  0
 28 24  1  0  0  0  0
 28 25  1  0  0  0  0
 29 26  2  0  0  0  0
 30 29  1  0  0  0  0
 30 23  1  1  0  0  0
 31 29  1  0  0  0  0
M  END
>  <MODEL>
2

>  <REMARK>
 VINA RESULT:      -9.5      2.869      3.697
  Name = 
  2 active torsions:
  status: ('A' for Active; 'I' for Inactive)
    1  A    between atoms: C_9  and  C_22
    2  A    between atoms: C_9  and  N_23
                            x       y       z     vdW  Elec       q    Type
                         _______ _______ _______ _____ _____    ______ ____

>  <TORSDO>
F 2

$$$$
=
 OpenBabel10272400323D

 31 35  0  0  1  0  0  0  0  0999 V2000
  186.5790  178.1270  147.1210 C   0  0  0  0  0  0  0  0  0  0  0  0
  188.0510  178.2620  143.6540 C   0  0  2  0  0  3  0  0  0  0  0  0
  189.3940  177.5580  143.8800 C   0  0  2  0  0  3  0  0  0  0  0  0
  191.6200  177.7390  145.1790 C   0  0  0  0  0  2  0  0  0  0  0  0
  187.0700  178.2280  144.7990 C   0  0  0  0  0  0  0  0  0  0  0  0
  185.2330  178.4100  146.8710 C   0  0  0  0  0  3  0  0  0  0  0  0
  190.2090  178.2920  144.9540 C   0  0  0  0  0  2  0  0  0  0  0  0
  186.0730  178.3920  142.1420 C   0  0  0  0  0  0  0  0  0  0  0  0
  187.0270  177.9290  148.4560 N   0  0  0  0  0  1  0  0  0  0  0  0
  189.3160  176.8900  141.5410 O   0  0  0  0  0  0  0  0  0  0  0  0
  191.6990  176.2100  145.1020 C   0  0  0  0  0  2  0  0  0  0  0  0
  185.3030  178.7050  143.1480 N   0  0  0  0  0  0  0  0  0  0  0  0
  187.3800  177.6880  142.4060 C   0  0  1  0  0  3  0  0  0  0  0  0
  185.6140  178.5660  140.7980 N   0  0  0  0  0  2  0  0  0  0  0  0
  187.4650  178.0550  146.0910 N   0  0  0  0  0  0  0  0  0  0  0  0
  191.5010  175.6330  143.6890 C   0  0  0  0  0  2  0  0  0  0  0  0
  185.7230  178.5180  144.5110 C   0  0  0  0  0  0  0  0  0  0  0  0
  184.8050  178.6090  145.5570 C   0  0  0  0  0  3  0  0  0  0  0  0
  188.3190  177.7860  141.2930 N   0  0  0  0  0  2  0  0  0  0  0  0
  190.1460  177.4710  142.5220 C   0  0  2  0  0  3  0  0  0  0  0  0
  191.4710  176.6950  142.5850 C   0  0  0  0  0  2  0  0  0  0  0  0
  184.4830  179.9750  139.3140 O   0  0  0  0  0  1  0  0  0  0  0  0
  184.3460  179.2050  140.4720 C   0  0  1  0  0  3  0  0  0  0  0  0
  180.8440  178.6020  138.5900 C   0  0  1  0  0  3  0  0  0  0  0  0
  183.1190  177.6470  138.8610 C   0  0  0  0  0  2  0  0  0  0  0  0
  181.8080  178.7840  142.1090 O   0  0  0  0  0  0  0  0  0  0  0  0
  179.9820  179.5640  137.8000 C   0  0  0  0  0  1  0  0  0  0  0  0
  182.2530  178.5760  138.0150 C   0  0  0  0  0  2  0  0  0  0  0  0
  181.9390  178.6370  140.8650 C   0  0  0  0  0  0  0  0  0  0  0  0
  183.2490  178.1490  140.3080 C   0  0  2  0  0  3  0  0  0  0  0  0
  180.8650  178.9990  139.9940 N   0  0  0  0  0  2  0  0  0  0  0  0
  1  9  1  0  0  0  0
  2  3  1  0  0  0  0
  2  5  1  1  0  0  0
  3  7  1  1  0  0  0
  5 15  1  0  0  0  0
  6  1  1  0  0  0  0
  7  4  1  0  0  0  0
  8 13  1  0  0  0  0
  8 12  2  0  0  0  0
 10 20  1  0  0  0  0
 11  4  1  0  0  0  0
 12 17  1  0  0  0  0
 13 19  1  6  0  0  0
 13  2  1  0  0  0  0
 14  8  1  0  0  0  0
 15  1  2  0  0  0  0
 16 11  1  0  0  0  0
 17  5  2  0  0  0  0
 17 18  1  0  0  0  0
 18  6  2  0  0  0  0
 19 10  1  0  0  0  0
 20 21  1  1  0  0  0
 20  3  1  0  0  0  0
 21 16  1  0  0  0  0
 23 22  1  6  0  0  0
 23 14  1  0  0  0  0
 24 27  1  6  0  0  0
 24 31  1  0  0  0  0
 25 30  1  0  0  0  0
 28 24  1  0  0  0  0
 28 25  1  0  0  0  0
 29 26  2  0  0  0  0
 30 23  1  6  0  0  0
 30 29  1  0  0  0  0
 31 29  1  0  0  0  0
M  END
>  <MODEL>
3

>  <REMARK>
 VINA RESULT:      -9.4      3.393      5.829
  Name = 
  2 active torsions:
  status: ('A' for Active; 'I' for Inactive)
    1  A    between atoms: C_9  and  C_22
    2  A    between atoms: C_9  and  N_23
                            x       y       z     vdW  Elec       q    Type
                         _______ _______ _______ _____ _____    ______ ____

>  <TORSDO>
F 2

$$$$
=
 OpenBabel10272400323D

 31 35  0  0  1  0  0  0  0  0999 V2000
  191.0620  177.3220  144.4620 C   0  0  0  0  0  0  0  0  0  0  0  0
  187.6710  177.6580  142.8510 C   0  0  2  0  0  3  0  0  0  0  0  0
  186.8200  178.0900  144.0510 C   0  0  2  0  0  3  0  0  0  0  0  0
  185.9940  177.3160  146.3740 C   0  0  0  0  0  2  0  0  0  0  0  0
  189.1640  177.6120  143.0640 C   0  0  0  0  0  0  0  0  0  0  0  0
  191.9070  177.3030  143.3480 C   0  0  0  0  0  3  0  0  0  0  0  0
  186.9000  177.0410  145.1690 C   0  0  0  0  0  2  0  0  0  0  0  0
  188.1650  178.1370  140.4540 C   0  0  0  0  0  0  0  0  0  0  0  0
  191.6050  177.1780  145.7680 N   0  0  0  0  0  1  0  0  0  0  0  0
  185.3520  179.2160  142.4680 O   0  0  0  0  0  0  0  0  0  0  0  0
  185.9090  178.7990  146.7510 C   0  0  0  0  0  2  0  0  0  0  0  0
  189.4020  177.7500  140.6140 N   0  0  0  0  0  0  0  0  0  0  0  0
  187.3660  178.5660  141.6590 C   0  0  1  0  0  3  0  0  0  0  0  0
  187.6250  178.3070  139.1400 N   0  0  0  0  0  2  0  0  0  0  0  0
  189.7180  177.4620  144.2980 N   0  0  0  0  0  0  0  0  0  0  0  0
  185.1400  179.6690  145.7420 C   0  0  0  0  0  2  0  0  0  0  0  0
  189.9840  177.5950  141.9200 C   0  0  0  0  0  0  0  0  0  0  0  0
  191.3620  177.4380  142.0700 C   0  0  0  0  0  3  0  0  0  0  0  0
  185.9250  178.5500  141.4260 N   0  0  0  0  0  2  0  0  0  0  0  0
  185.3620  178.3300  143.5670 C   0  0  2  0  0  3  0  0  0  0  0  0
  184.4190  178.8660  144.6540 C   0  0  0  0  0  2  0  0  0  0  0  0
  189.3620  178.8840  137.6860 O   0  0  0  0  0  1  0  0  0  0  0  0
  188.3550  177.9470  137.9320 C   0  0  1  0  0  3  0  0  0  0  0  0
  190.3590  175.1750  135.8170 C   0  0  1  0  0  3  0  0  0  0  0  0
  190.4630  176.5020  137.9120 C   0  0  0  0  0  2  0  0  0  0  0  0
  187.0440  175.2560  137.3500 O   0  0  0  0  0  0  0  0  0  0  0  0
  190.7140  175.1380  134.3460 C   0  0  0  0  0  1  0  0  0  0  0  0
  190.8830  176.4590  136.4460 C   0  0  0  0  0  2  0  0  0  0  0  0
  188.2430  175.5750  137.1370 C   0  0  0  0  0  0  0  0  0  0  0  0
  188.9340  176.5350  138.0670 C   0  0  2  0  0  3  0  0  0  0  0  0
  188.9130  175.0730  135.9770 N   0  0  0  0  0  2  0  0  0  0  0  0
  1  9  1  0  0  0  0
  2  5  1  1  0  0  0
  2  3  1  0  0  0  0
  3  7  1  1  0  0  0
  4 11  1  0  0  0  0
  5 15  2  0  0  0  0
  6  1  2  0  0  0  0
  7  4  1  0  0  0  0
  8 12  2  0  0  0  0
 10 20  1  0  0  0  0
 12 17  1  0  0  0  0
 13  8  1  6  0  0  0
 13  2  1  0  0  0  0
 14  8  1  0  0  0  0
 15  1  1  0  0  0  0
 16 11  1  0  0  0  0
 17 18  2  0  0  0  0
 17  5  1  0  0  0  0
 18  6  1  0  0  0  0
 19 13  1  0  0  0  0
 19 10  1  0  0  0  0
 20  3  1  0  0  0  0
 20 21  1  1  0  0  0
 21 16  1  0  0  0  0
 23 22  1  1  0  0  0
 23 14  1  0  0  0  0
 24 27  1  6  0  0  0
 24 31  1  0  0  0  0
 24 28  1  0  0  0  0
 25 30  1  0  0  0  0
 28 25  1  0  0  0  0
 29 26  2  0  0  0  0
 29 30  1  0  0  0  0
 30 23  1  6  0  0  0
 31 29  1  0  0  0  0
M  END
>  <MODEL>
4

>  <REMARK>
 VINA RESULT:      -9.2      1.427      2.053
  Name = 
  2 active torsions:
  status: ('A' for Active; 'I' for Inactive)
    1  A    between atoms: C_9  and  C_22
    2  A    between atoms: C_9  and  N_23
                            x       y       z     vdW  Elec       q    Type
                         _______ _______ _______ _____ _____    ______ ____

>  <TORSDO>
F 2

$$$$
=
 OpenBabel10272400323D

 31 35  0  0  1  0  0  0  0  0999 V2000
  185.1280  178.3240  144.7310 C   0  0  0  0  0  0  0  0  0  0  0  0
  188.7510  177.9520  143.7620 C   0  0  2  0  0  3  0  0  0  0  0  0
  189.3510  177.4250  145.0710 C   0  0  2  0  0  3  0  0  0  0  0  0
  189.7450  178.0400  147.5490 C   0  0  0  0  0  2  0  0  0  0  0  0
  187.2470  178.0410  143.6960 C   0  0  0  0  0  0  0  0  0  0  0  0
  184.5080  178.4350  143.4830 C   0  0  0  0  0  3  0  0  0  0  0  0
  189.0900  178.4130  146.2160 C   0  0  0  0  0  2  0  0  0  0  0  0
  188.7040  177.6240  141.2900 C   0  0  0  0  0  0  0  0  0  0  0  0
  184.3530  178.4160  145.9200 N   0  0  0  0  0  1  0  0  0  0  0  0
  191.0600  176.3340  143.7240 O   0  0  0  0  0  0  0  0  0  0  0  0
  189.7190  176.5360  147.8460 C   0  0  0  0  0  2  0  0  0  0  0  0
  187.4700  178.0460  141.2410 N   0  0  0  0  0  0  0  0  0  0  0  0
  189.2520  177.1000  142.5950 C   0  0  1  0  0  3  0  0  0  0  0  0
  189.4770  177.5060  140.0920 N   0  0  0  0  0  2  0  0  0  0  0  0
  186.4750  178.1440  144.8130 N   0  0  0  0  0  0  0  0  0  0  0  0
  190.6420  175.6950  146.9470 C   0  0  0  0  0  2  0  0  0  0  0  0
  186.6570  178.1510  142.4230 C   0  0  0  0  0  0  0  0  0  0  0  0
  185.2800  178.3500  142.3230 C   0  0  0  0  0  3  0  0  0  0  0  0
  190.7100  177.0760  142.6350 N   0  0  0  0  0  2  0  0  0  0  0  0
  190.8670  177.1580  144.8530 C   0  0  2  0  0  3  0  0  0  0  0  0
  191.5750  176.5290  146.0620 C   0  0  0  0  0  2  0  0  0  0  0  0
  188.9820  179.3550  138.7500 O   0  0  0  0  0  1  0  0  0  0  0  0
  188.9970  177.9580  138.7940 C   0  0  1  0  0  3  0  0  0  0  0  0
  189.5990  174.5500  136.7460 C   0  0  1  0  0  3  0  0  0  0  0  0
  189.0560  176.9530  136.4450 C   0  0  0  0  0  2  0  0  0  0  0  0
  191.6890  176.5410  138.9860 O   0  0  0  0  0  0  0  0  0  0  0  0
  189.0350  173.1630  136.9710 C   0  0  0  0  0  1  0  0  0  0  0  0
  188.4650  175.5560  136.6110 C   0  0  0  0  0  2  0  0  0  0  0  0
  190.7480  176.2710  138.1950 C   0  0  0  0  0  0  0  0  0  0  0  0
  189.8700  177.3790  137.6770 C   0  0  2  0  0  3  0  0  0  0  0  0
  190.4810  174.9080  137.8520 N   0  0  0  0  0  2  0  0  0  0  0  0
  1 15  1  0  0  0  0
  1  9  1  0  0  0  0
  2  5  1  1  0  0  0
  2  3  1  0  0  0  0
  3  7  1  1  0  0  0
  4 11  1  0  0  0  0
  5 15  2  0  0  0  0
  6  1  2  0  0  0  0
  7  4  1  0  0  0  0
 10 20  1  0  0  0  0
 12  8  2  0  0  0  0
 12 17  1  0  0  0  0
 13  8  1  6  0  0  0
 13 19  1  0  0  0  0
 13  2  1  0  0  0  0
 14  8  1  0  0  0  0
 16 11  1  0  0  0  0
 17  5  1  0  0  0  0
 18 17  2  0  0  0  0
 18  6  1  0  0  0  0
 19 10  1  0  0  0  0
 20  3  1  0  0  0  0
 20 21  1  1  0  0  0
 21 16  1  0  0  0  0
 23 22  1  1  0  0  0
 23 14  1  0  0  0  0
 24 27  1  1  0  0  0
 24 31  1  0  0  0  0
 25 28  1  0  0  0  0
 25 30  1  0  0  0  0
 28 24  1  0  0  0  0
 29 26  2  0  0  0  0
 30 29  1  0  0  0  0
 30 23  1  1  0  0  0
 31 29  1  0  0  0  0
M  END
>  <MODEL>
5

>  <REMARK>
 VINA RESULT:      -9.1      2.662      4.494
  Name = 
  2 active torsions:
  status: ('A' for Active; 'I' for Inactive)
    1  A    between atoms: C_9  and  C_22
    2  A    between atoms: C_9  and  N_23
                            x       y       z     vdW  Elec       q    Type
                         _______ _______ _______ _____ _____    ______ ____

>  <TORSDO>
F 2

$$$$
=
 OpenBabel10272400323D

 31 35  0  0  1  0  0  0  0  0999 V2000
  185.4990  178.4070  143.9650 C   0  0  0  0  0  0  0  0  0  0  0  0
  188.5430  178.3050  141.7460 C   0  0  2  0  0  3  0  0  0  0  0  0
  189.5790  177.6960  142.6990 C   0  0  2  0  0  3  0  0  0  0  0  0
  190.8210  178.1110  144.9260 C   0  0  0  0  0  2  0  0  0  0  0  0
  187.1130  178.3240  142.2240 C   0  0  0  0  0  0  0  0  0  0  0  0
  184.4720  178.5950  143.0340 C   0  0  0  0  0  3  0  0  0  0  0  0
  189.7270  178.5660  143.9550 C   0  0  0  0  0  2  0  0  0  0  0  0
  187.6230  178.1930  139.4310 C   0  0  0  0  0  0  0  0  0  0  0  0
  185.1970  178.3560  145.3540 N   0  0  0  0  0  1  0  0  0  0  0  0
  190.7120  176.8150  140.7330 O   0  0  0  0  0  0  0  0  0  0  0  0
  190.9260  176.5870  145.0610 C   0  0  0  0  0  2  0  0  0  0  0  0
  186.4460  178.5550  139.8630 N   0  0  0  0  0  0  0  0  0  0  0  0
  188.6080  177.5850  140.3980 C   0  0  1  0  0  3  0  0  0  0  0  0
  187.9200  178.2200  138.0310 N   0  0  0  0  0  2  0  0  0  0  0  0
  186.7880  178.2900  143.5470 N   0  0  0  0  0  0  0  0  0  0  0  0
  191.4810  175.8760  143.8150 C   0  0  0  0  0  2  0  0  0  0  0  0
  186.1060  178.5140  141.2600 C   0  0  0  0  0  0  0  0  0  0  0  0
  184.7810  178.6520  141.6740 C   0  0  0  0  0  3  0  0  0  0  0  0
  189.9850  177.6310  139.9180 N   0  0  0  0  0  2  0  0  0  0  0  0
  190.9210  177.5260  141.9340 C   0  0  2  0  0  3  0  0  0  0  0  0
  192.0240  176.8300  142.7460 C   0  0  0  0  0  2  0  0  0  0  0  0
  187.4550  180.0040  136.5940 O   0  0  0  0  0  1  0  0  0  0  0  0
  187.0010  178.7590  137.0390 C   0  0  1  0  0  3  0  0  0  0  0  0
  186.5000  174.8380  136.3000 C   0  0  1  0  0  3  0  0  0  0  0  0
  185.4870  177.0630  135.8710 C   0  0  0  0  0  2  0  0  0  0  0  0
  189.1480  177.2270  135.5090 O   0  0  0  0  0  0  0  0  0  0  0  0
  186.5520  173.6530  137.2400 C   0  0  0  0  0  1  0  0  0  0  0  0
  185.4810  175.8530  136.7990 C   0  0  0  0  0  2  0  0  0  0  0  0
  188.0020  176.8120  135.8230 C   0  0  0  0  0  0  0  0  0  0  0  0
  186.8480  177.7780  135.8730 C   0  0  2  0  0  3  0  0  0  0  0  0
  187.8240  175.4420  136.1950 N   0  0  0  0  0  2  0  0  0  0  0  0
  1  9  1  0  0  0  0
  2  5  1  1  0  0  0
  2  3  1  0  0  0  0
  3  7  1  1  0  0  0
  4 11  1  0  0  0  0
  5 15  2  0  0  0  0
  6  1  2  0  0  0  0
  7  4  1  0  0  0  0
  8 12  2  0  0  0  0
 10 20  1  0  0  0  0
 12 17  1  0  0  0  0
 13  8  1  6  0  0  0
 13  2  1  0  0  0  0
 14  8  1  0  0  0  0
 15  1  1  0  0  0  0
 16 11  1  0  0  0  0
 17 18  2  0  0  0  0
 17  5  1  0  0  0  0
 18  6  1  0  0  0  0
 19 13  1  0  0  0  0
 19 10  1  0  0  0  0
 20  3  1  0  0  0  0
 20 21  1  1  0  0  0
 21 16  1  0  0  0  0
 23 22  1  6  0  0  0
 23 14  1  0  0  0  0
 24 28  1  0  0  0  0
 24 27  1  1  0  0  0
 25 30  1  0  0  0  0
 25 28  1  0  0  0  0
 26 29  2  0  0  0  0
 29 30  1  0  0  0  0
 29 31  1  0  0  0  0
 30 23  1  1  0  0  0
 31 24  1  0  0  0  0
M  END
>  <MODEL>
6

>  <REMARK>
 VINA RESULT:      -9.0      2.023      4.231
  Name = 
  2 active torsions:
  status: ('A' for Active; 'I' for Inactive)
    1  A    between atoms: C_9  and  C_22
    2  A    between atoms: C_9  and  N_23
                            x       y       z     vdW  Elec       q    Type
                         _______ _______ _______ _____ _____    ______ ____

>  <TORSDO>
F 2

$$$$
=
 OpenBabel10272400323D

 31 35  0  0  1  0  0  0  0  0999 V2000
  189.6190  177.7500  141.6630 C   0  0  0  0  0  0  0  0  0  0  0  0
  186.0320  178.0920  142.7670 C   0  0  2  0  0  3  0  0  0  0  0  0
  186.2040  178.2100  144.2860 C   0  0  2  0  0  3  0  0  0  0  0  0
  187.0570  176.9350  146.3650 C   0  0  0  0  0  2  0  0  0  0  0  0
  187.2920  178.1370  141.9390 C   0  0  0  0  0  0  0  0  0  0  0  0
  189.5240  178.0180  140.2940 C   0  0  0  0  0  3  0  0  0  0  0  0
  186.9320  176.9770  144.8380 C   0  0  0  0  0  2  0  0  0  0  0  0
  184.8620  179.0630  140.7890 C   0  0  0  0  0  0  0  0  0  0  0  0
  190.8750  177.4050  142.2340 N   0  0  0  0  0  1  0  0  0  0  0  0
  184.1320  179.4870  144.3140 O   0  0  0  0  0  0  0  0  0  0  0  0
  187.3320  178.3050  146.9950 C   0  0  0  0  0  2  0  0  0  0  0  0
  185.8740  178.7620  140.0220 N   0  0  0  0  0  0  0  0  0  0  0  0
  185.0770  179.1820  142.2780 C   0  0  1  0  0  3  0  0  0  0  0  0
  183.6050  179.4350  140.2170 N   0  0  0  0  0  2  0  0  0  0  0  0
  188.5090  177.8000  142.4480 N   0  0  0  0  0  0  0  0  0  0  0  0
  186.1450  179.2830  146.9360 C   0  0  0  0  0  2  0  0  0  0  0  0
  187.1590  178.4110  140.5650 C   0  0  0  0  0  0  0  0  0  0  0  0
  188.2850  178.3480  139.7440 C   0  0  0  0  0  3  0  0  0  0  0  0
  183.8390  179.0860  143.0440 N   0  0  0  0  0  2  0  0  0  0  0  0
  184.8040  178.4110  144.9320 C   0  0  2  0  0  3  0  0  0  0  0  0
  184.8400  178.6440  146.4500 C   0  0  0  0  0  2  0  0  0  0  0  0
  183.9150  178.2270  138.2390 O   0  0  0  0  0  1  0  0  0  0  0  0
  183.3410  179.3780  138.7860 C   0  0  1  0  0  3  0  0  0  0  0  0
  180.6960  179.8460  135.7920 C   0  0  1  0  0  3  0  0  0  0  0  0
  181.3550  178.2850  137.6060 C   0  0  0  0  0  2  0  0  0  0  0  0
  181.4400  181.7630  138.8120 O   0  0  0  0  0  0  0  0  0  0  0  0
  180.9170  180.2430  134.3480 C   0  0  0  0  0  1  0  0  0  0  0  0
  181.5470  178.6310  136.1320 C   0  0  0  0  0  2  0  0  0  0  0  0
  181.4040  180.7760  138.0320 C   0  0  0  0  0  0  0  0  0  0  0  0
  181.8320  179.4200  138.5260 C   0  0  2  0  0  3  0  0  0  0  0  0
  181.0230  180.9680  136.6660 N   0  0  0  0  0  2  0  0  0  0  0  0
  1  9  1  0  0  0  0
  1 15  1  0  0  0  0
  2  5  1  6  0  0  0
  2  3  1  0  0  0  0
  3  7  1  1  0  0  0
  3 20  1  0  0  0  0
  4 11  1  0  0  0  0
  5 15  2  0  0  0  0
  6  1  2  0  0  0  0
  7  4  1  0  0  0  0
 10 20  1  0  0  0  0
 12 17  1  0  0  0  0
 12  8  2  0  0  0  0
 13  8  1  6  0  0  0
 13  2  1  0  0  0  0
 13 19  1  0  0  0  0
 14  8  1  0  0  0  0
 16 11  1  0  0  0  0
 17  5  1  0  0  0  0
 18  6  1  0  0  0  0
 18 17  2  0  0  0  0
 19 10  1  0  0  0  0
 20 21  1  1  0  0  0
 21 16  1  0  0  0  0
 23 22  1  1  0  0  0
 23 14  1  0  0  0  0
 24 27  1  6  0  0  0
 24 28  1  0  0  0  0
 24 31  1  0  0  0  0
 25 30  1  0  0  0  0
 28 25  1  0  0  0  0
 29 30  1  0  0  0  0
 29 26  2  0  0  0  0
 30 23  1  6  0  0  0
 31 29  1  0  0  0  0
M  END
>  <MODEL>
7

>  <REMARK>
 VINA RESULT:      -8.8      3.397      4.608
  Name = 
  2 active torsions:
  status: ('A' for Active; 'I' for Inactive)
    1  A    between atoms: C_9  and  C_22
    2  A    between atoms: C_9  and  N_23
                            x       y       z     vdW  Elec       q    Type
                         _______ _______ _______ _____ _____    ______ ____

>  <TORSDO>
F 2

$$$$
=
 OpenBabel10272400323D

 31 35  0  0  1  0  0  0  0  0999 V2000
  186.8610  178.3640  138.2720 C   0  0  0  0  0  0  0  0  0  0  0  0
  184.0550  179.0770  140.6840 C   0  0  2  0  0  3  0  0  0  0  0  0
  182.8330  178.8340  139.7900 C   0  0  2  0  0  3  0  0  0  0  0  0
  181.6420  179.6780  137.6580 C   0  0  0  0  0  2  0  0  0  0  0  0
  185.3970  178.6920  140.1130 C   0  0  0  0  0  0  0  0  0  0  0  0
  187.9490  178.2080  139.1360 C   0  0  0  0  0  3  0  0  0  0  0  0
  182.8760  179.7560  138.5640 C   0  0  0  0  0  2  0  0  0  0  0  0
  185.0320  178.6130  142.9310 C   0  0  0  0  0  0  0  0  0  0  0  0
  187.0540  178.2780  136.8650 N   0  0  0  0  0  1  0  0  0  0  0  0
  181.6050  178.2520  141.8100 O   0  0  0  0  0  0  0  0  0  0  0  0
  181.0840  178.2590  137.5020 C   0  0  0  0  0  2  0  0  0  0  0  0
  186.2370  178.6290  142.4300 N   0  0  0  0  0  0  0  0  0  0  0  0
  183.8580  178.3570  142.0190 C   0  0  1  0  0  3  0  0  0  0  0  0
  184.8370  178.6730  144.3470 N   0  0  0  0  0  2  0  0  0  0  0  0
  185.6210  178.6140  138.7720 N   0  0  0  0  0  0  0  0  0  0  0  0
  180.4170  177.6950  138.7680 C   0  0  0  0  0  2  0  0  0  0  0  0
  186.4690  178.5430  141.0120 C   0  0  0  0  0  0  0  0  0  0  0  0
  187.7490  178.3010  140.5150 C   0  0  0  0  0  3  0  0  0  0  0  0
  182.5860  178.7870  142.5900 N   0  0  0  0  0  2  0  0  0  0  0  0
  181.5460  179.0370  140.6390 C   0  0  2  0  0  3  0  0  0  0  0  0
  180.2420  178.7260  139.8890 C   0  0  0  0  0  2  0  0  0  0  0  0
  185.5430  179.7910  146.2760 O   0  0  0  0  0  1  0  0  0  0  0  0
  185.9300  178.8810  145.2870 C   0  0  1  0  0  3  0  0  0  0  0  0
  188.8690  177.2600  147.5030 C   0  0  1  0  0  3  0  0  0  0  0  0
  186.4090  177.5860  147.4380 C   0  0  0  0  0  2  0  0  0  0  0  0
  187.6730  176.6790  144.1000 O   0  0  0  0  0  0  0  0  0  0  0  0
  190.1930  177.8450  147.9470 C   0  0  0  0  0  1  0  0  0  0  0  0
  187.7270  178.1630  147.9470 C   0  0  0  0  0  2  0  0  0  0  0  0
  187.6500  177.0610  145.2990 C   0  0  0  0  0  0  0  0  0  0  0  0
  186.3590  177.5450  145.9020 C   0  0  2  0  0  3  0  0  0  0  0  0
  188.8660  177.0960  146.0530 N   0  0  0  0  0  2  0  0  0  0  0  0
  1 15  2  0  0  0  0
  1  6  1  0  0  0  0
  2  5  1  6  0  0  0
  2 13  1  0  0  0  0
  3  7  1  6  0  0  0
  3 20  1  0  0  0  0
  3  2  1  0  0  0  0
  4  7  1  0  0  0  0
  5 17  2  0  0  0  0
  6 18  2  0  0  0  0
  8 14  1  0  0  0  0
  9  1  1  0  0  0  0
 10 19  1  0  0  0  0
 11  4  1  0  0  0  0
 11 16  1  0  0  0  0
 12  8  2  0  0  0  0
 13 19  1  1  0  0  0
 13  8  1  0  0  0  0
 14 23  1  0  0  0  0
 15  5  1  0  0  0  0
 16 21  1  0  0  0  0
 17 12  1  0  0  0  0
 18 17  1  0  0  0  0
 20 21  1  6  0  0  0
 20 10  1  0  0  0  0
 23 22  1  1  0  0  0
 24 27  1  6  0  0  0
 24 28  1  0  0  0  0
 25 28  1  0  0  0  0
 26 29  2  0  0  0  0
 29 30  1  0  0  0  0
 29 31  1  0  0  0  0
 30 23  1  6  0  0  0
 30 25  1  0  0  0  0
 31 24  1  0  0  0  0
M  END
>  <MODEL>
8

>  <REMARK>
 VINA RESULT:      -8.6      3.338      8.110
  Name = 
  2 active torsions:
  status: ('A' for Active; 'I' for Inactive)
    1  A    between atoms: C_9  and  C_22
    2  A    between atoms: C_9  and  N_23
                            x       y       z     vdW  Elec       q    Type
                         _______ _______ _______ _____ _____    ______ ____

>  <TORSDO>
F 2

$$$$
=
 OpenBabel10272400323D

 31 35  0  0  1  0  0  0  0  0999 V2000
  187.6600  177.5660  135.7460 C   0  0  0  0  0  0  0  0  0  0  0  0
  190.4540  176.3300  137.9510 C   0  0  2  0  0  3  0  0  0  0  0  0
  191.5960  176.2070  136.9350 C   0  0  2  0  0  3  0  0  0  0  0  0
  192.3140  174.9680  134.7850 C   0  0  0  0  0  2  0  0  0  0  0  0
  189.1900  176.9980  137.4710 C   0  0  0  0  0  0  0  0  0  0  0  0
  186.7400  178.0390  136.6860 C   0  0  0  0  0  3  0  0  0  0  0  0
  191.2020  175.2530  135.8000 C   0  0  0  0  0  2  0  0  0  0  0  0
  189.8620  177.1560  140.2290 C   0  0  0  0  0  0  0  0  0  0  0  0
  187.3440  177.6110  134.3590 N   0  0  0  0  0  1  0  0  0  0  0  0
  193.1360  176.5900  138.7810 O   0  0  0  0  0  0  0  0  0  0  0  0
  193.1760  176.1930  134.4600 C   0  0  0  0  0  2  0  0  0  0  0  0
  188.6420  177.4070  139.8390 N   0  0  0  0  0  0  0  0  0  0  0  0
  190.9590  177.0570  139.1980 C   0  0  1  0  0  3  0  0  0  0  0  0
  190.1870  177.1360  141.6220 N   0  0  0  0  0  2  0  0  0  0  0  0
  188.8500  177.0480  136.1530 N   0  0  0  0  0  0  0  0  0  0  0  0
  194.0910  176.6500  135.6100 C   0  0  0  0  0  2  0  0  0  0  0  0
  188.2880  177.4620  138.4460 C   0  0  0  0  0  0  0  0  0  0  0  0
  187.0570  177.9820  138.0450 C   0  0  0  0  0  3  0  0  0  0  0  0
  192.1450  176.3620  139.6880 N   0  0  0  0  0  2  0  0  0  0  0  0
  192.8790  175.7450  137.6800 C   0  0  2  0  0  3  0  0  0  0  0  0
  194.1320  175.6780  136.7940 C   0  0  0  0  0  2  0  0  0  0  0  0
  188.8400  175.9970  143.1570 O   0  0  0  0  0  1  0  0  0  0  0  0
  189.1830  177.2620  142.6690 C   0  0  1  0  0  3  0  0  0  0  0  0
  191.2540  177.0930  146.1120 C   0  0  1  0  0  3  0  0  0  0  0  0
  191.2360  178.1800  143.8820 C   0  0  0  0  0  2  0  0  0  0  0  0
  187.8320  178.0670  145.2810 O   0  0  0  0  0  0  0  0  0  0  0  0
  191.7230  175.8950  146.9120 C   0  0  0  0  0  1  0  0  0  0  0  0
  191.7690  176.9970  144.6830 C   0  0  0  0  0  2  0  0  0  0  0  0
  189.0550  177.8220  145.1070 C   0  0  0  0  0  0  0  0  0  0  0  0
  189.7020  178.1650  143.7920 C   0  0  2  0  0  3  0  0  0  0  0  0
  189.7960  177.1580  146.1340 N   0  0  0  0  0  2  0  0  0  0  0  0
  1 15  2  0  0  0  0
  1  6  1  0  0  0  0
  2  5  1  6  0  0  0
  2 13  1  0  0  0  0
  3  7  1  6  0  0  0
  3 20  1  0  0  0  0
  3  2  1  0  0  0  0
  4  7  1  0  0  0  0
  5 17  2  0  0  0  0
  6 18  2  0  0  0  0
  8 14  1  0  0  0  0
  9  1  1  0  0  0  0
 10 19  1  0  0  0  0
 11  4  1  0  0  0  0
 11 16  1  0  0  0  0
 12  8  2  0  0  0  0
 13 19  1  1  0  0  0
 13  8  1  0  0  0  0
 14 23  1  0  0  0  0
 15  5  1  0  0  0  0
 16 21  1  0  0  0  0
 17 12  1  0  0  0  0
 18 17  1  0  0  0  0
 20 21  1  6  0  0  0
 20 10  1  0  0  0  0
 23 22  1  1  0  0  0
 24 31  1  0  0  0  0
 24 27  1  1  0  0  0
 25 28  1  0  0  0  0
 28 24  1  0  0  0  0
 29 26  2  0  0  0  0
 29 31  1  0  0  0  0
 30 23  1  6  0  0  0
 30 25  1  0  0  0  0
 30 29  1  0  0  0  0
M  END
>  <MODEL>
9

>  <REMARK>
 VINA RESULT:      -8.6      3.024      9.151
  Name = 
  2 active torsions:
  status: ('A' for Active; 'I' for Inactive)
    1  A    between atoms: C_9  and  C_22
    2  A    between atoms: C_9  and  N_23
                            x       y       z     vdW  Elec       q    Type
                         _______ _______ _______ _____ _____    ______ ____

>  <TORSDO>
F 2

$$$$
