=
 OpenBabel10272402053D

 32 36  0  0  1  0  0  0  0  0999 V2000
  187.0540  178.7090  142.7340 C   0  0  1  0  0  3  0  0  0  0  0  0
  188.9330  177.1370  142.5280 N   0  0  2  0  0  0  0  0  0  0  0  0
  185.7640  179.0310  143.4680 C   0  0  0  0  0  2  0  0  0  0  0  0
  187.5960  177.3300  143.1000 C   0  0  1  0  0  3  0  0  0  0  0  0
  189.8940  178.2060  142.8830 C   0  0  1  0  0  3  0  0  0  0  0  0
  188.7740  177.1490  141.0640 C   0  0  1  0  0  3  0  0  0  0  0  0
  192.4570  177.4220  140.3890 C   0  0  0  0  0  0  0  0  0  0  0  0
  191.2930  177.4860  140.9770 C   0  0  0  0  0  0  0  0  0  0  0  0
  189.8100  178.7240  144.3310 C   0  0  2  0  0  3  0  0  0  0  0  0
  187.5150  176.9540  144.5920 C   0  0  1  0  0  3  0  0  0  0  0  0
  191.2960  177.8090  142.4440 C   0  0  0  0  0  2  0  0  0  0  0  0
  188.8190  176.5470  145.2870 C   0  0  0  0  0  2  0  0  0  0  0  0
  186.4460  177.6410  145.4520 C   0  0  0  0  0  2  0  0  0  0  0  0
  188.2770  178.4570  140.5780 N   0  0  0  0  0  2  0  0  0  0  0  0
  190.7680  179.6930  144.5620 F   0  0  0  0  0  0  0  0  0  0  0  0
  186.9940  178.8340  141.2050 C   0  0  1  0  0  3  0  0  0  0  0  0
  190.0990  176.7530  140.3830 C   0  0  2  0  0  3  0  0  0  0  0  0
  189.8620  177.6590  145.4230 C   0  0  0  0  0  2  0  0  0  0  0  0
  186.0730  179.0400  144.9600 C   0  0  0  0  0  2  0  0  0  0  0  0
  193.5600  177.3600  139.8310 O   0  0  0  0  0  0  0  0  0  0  0  0
  184.1680  178.9970  138.6650 C   0  0  2  0  0  3  0  0  0  0  0  0
  183.9780  180.3410  138.9860 O   0  0  0  0  0  1  0  0  0  0  0  0
  183.3200  177.8350  140.6630 C   0  0  0  0  0  3  0  0  0  0  0  0
  185.7800  178.1730  140.5280 C   0  0  1  0  0  3  0  0  0  0  0  0
  183.1410  178.1550  139.3740 C   0  0  0  0  0  0  0  0  0  0  0  0
  184.5230  178.3560  141.3880 C   0  0  0  0  0  2  0  0  0  0  0  0
  185.5970  178.5750  139.0430 C   0  0  1  0  0  3  0  0  0  0  0  0
  186.0070  177.5220  138.2240 O   0  0  0  0  0  1  0  0  0  0  0  0
  181.9830  177.6010  138.6130 C   0  0  0  0  0  2  0  0  0  0  0  0
  181.0840  178.6210  138.3030 O   0  0  0  0  0  1  0  0  0  0  0  0
  190.2380  175.6570  138.2560 O   0  0  0  0  0  1  0  0  0  0  0  0
  189.9880  176.8870  138.8640 C   0  0  0  0  0  2  0  0  0  0  0  0
  1  4  1  0  0  0  0
  1  3  1  1  0  0  0
  2  5  1  0  0  0  0
  2  4  1  0  0  0  0
  3 19  1  0  0  0  0
  4 10  1  0  0  0  0
  5  9  1  0  0  0  0
  6  2  1  0  0  0  0
  7  8  2  0  0  0  0
  8 11  1  0  0  0  0
  9 15  1  0  0  0  0
  9 18  1  0  0  0  0
 10 12  1  0  0  0  0
 10 13  1  0  0  0  0
 11  5  1  0  0  0  0
 12 18  1  0  0  0  0
 14  6  1  0  0  0  0
 14 16  1  0  0  0  0
 16  1  1  0  0  0  0
 17  8  1  0  0  0  0
 17  6  1  0  0  0  0
 19 13  1  0  0  0  0
 20  7  2  0  0  0  0
 21 22  1  0  0  0  0
 21 27  1  0  0  0  0
 21 25  1  0  0  0  0
 23 26  1  0  0  0  0
 24 16  1  0  0  0  0
 24 26  1  0  0  0  0
 25 23  2  0  0  0  0
 27 24  1  0  0  0  0
 28 27  1  0  0  0  0
 29 25  1  0  0  0  0
 30 29  1  0  0  0  0
 31 32  1  0  0  0  0
 32 17  1  0  0  0  0
M  END
>  <MODEL>
1

>  <REMARK>
 VINA RESULT:      -8.1      0.000      0.000
  Name = 
  3 active torsions:
  status: ('A' for Active; 'I' for Inactive)
    1  A    between atoms: C_7  and  C_19
    2  A    between atoms: C_16  and  C_27
    3  A    between atoms: C_28  and  C_32
                            x       y       z     vdW  Elec       q    Type
                         _______ _______ _______ _____ _____    ______ ____

>  <TORSDO>
F 3

$$$$
=
 OpenBabel10272402053D

 32 36  0  0  1  0  0  0  0  0999 V2000
  187.5530  178.4940  141.2610 C   0  0  1  0  0  3  0  0  0  0  0  0
  189.4350  176.9700  141.6860 N   0  0  2  0  0  0  0  0  0  0  0  0
  186.1230  178.8530  141.6250 C   0  0  0  0  0  2  0  0  0  0  0  0
  187.9980  177.1810  141.8980 C   0  0  1  0  0  3  0  0  0  0  0  0
  190.2760  178.1010  142.1400 C   0  0  1  0  0  3  0  0  0  0  0  0
  189.6330  176.8200  140.2350 C   0  0  1  0  0  3  0  0  0  0  0  0
  193.3690  177.1350  140.4340 C   0  0  0  0  0  0  0  0  0  0  0  0
  192.0970  177.2250  140.7160 C   0  0  0  0  0  0  0  0  0  0  0  0
  189.8430  178.7680  143.4580 C   0  0  2  0  0  3  0  0  0  0  0  0
  187.5620  176.9650  143.3590 C   0  0  1  0  0  3  0  0  0  0  0  0
  191.7440  177.7030  142.0960 C   0  0  0  0  0  2  0  0  0  0  0  0
  188.6620  176.6760  144.3870 C   0  0  0  0  0  2  0  0  0  0  0  0
  186.3140  177.7050  143.8570 C   0  0  0  0  0  2  0  0  0  0  0  0
  189.2620  178.0520  139.5020 N   0  0  0  0  0  2  0  0  0  0  0  0
  190.7130  179.7860  143.8020 F   0  0  0  0  0  0  0  0  0  0  0  0
  187.8630  178.4530  139.7580 C   0  0  1  0  0  3  0  0  0  0  0  0
  191.0850  176.3950  139.9400 C   0  0  2  0  0  3  0  0  0  0  0  0
  189.6360  177.8280  144.6430 C   0  0  0  0  0  2  0  0  0  0  0  0
  186.0640  179.0310  143.1370 C   0  0  0  0  0  2  0  0  0  0  0  0
  194.5740  177.0490  140.1670 O   0  0  0  0  0  0  0  0  0  0  0  0
  186.6490  177.3820  136.3170 C   0  0  2  0  0  3  0  0  0  0  0  0
  186.9780  178.6450  135.8250 O   0  0  0  0  0  1  0  0  0  0  0  0
  184.6690  177.8380  137.7070 C   0  0  0  0  0  3  0  0  0  0  0  0
  186.8510  177.6850  138.8890 C   0  0  1  0  0  3  0  0  0  0  0  0
  185.1690  177.3090  136.5820 C   0  0  0  0  0  0  0  0  0  0  0  0
  185.5900  178.5290  138.6650 C   0  0  0  0  0  2  0  0  0  0  0  0
  187.4610  177.0980  137.5910 C   0  0  1  0  0  3  0  0  0  0  0  0
  187.6330  175.7220  137.7410 O   0  0  0  0  0  1  0  0  0  0  0  0
  184.2830  176.5640  135.6400 C   0  0  0  0  0  2  0  0  0  0  0  0
  184.7900  175.2840  135.4200 O   0  0  0  0  0  1  0  0  0  0  0  0
  190.9700  175.1230  137.9110 O   0  0  0  0  0  1  0  0  0  0  0  0
  191.3420  176.3620  138.4330 C   0  0  0  0  0  2  0  0  0  0  0  0
  1  3  1  6  0  0  0
  1  4  1  0  0  0  0
  2  4  1  0  0  0  0
  2  5  1  0  0  0  0
  3 19  1  0  0  0  0
  4 10  1  0  0  0  0
  5  9  1  0  0  0  0
  6  2  1  0  0  0  0
  7  8  2  0  0  0  0
  8 11  1  0  0  0  0
  9 15  1  0  0  0  0
  9 18  1  0  0  0  0
 10 13  1  0  0  0  0
 10 12  1  0  0  0  0
 11  5  1  0  0  0  0
 12 18  1  0  0  0  0
 14 16  1  0  0  0  0
 14  6  1  0  0  0  0
 16  1  1  0  0  0  0
 17  6  1  0  0  0  0
 17  8  1  0  0  0  0
 19 13  1  0  0  0  0
 20  7  2  0  0  0  0
 21 25  1  0  0  0  0
 21 27  1  0  0  0  0
 22 21  1  0  0  0  0
 23 26  1  0  0  0  0
 24 16  1  0  0  0  0
 25 23  2  0  0  0  0
 26 24  1  0  0  0  0
 27 28  1  0  0  0  0
 27 24  1  0  0  0  0
 29 25  1  0  0  0  0
 30 29  1  0  0  0  0
 31 32  1  0  0  0  0
 32 17  1  0  0  0  0
M  END
>  <MODEL>
2

>  <REMARK>
 VINA RESULT:      -8.1      1.889      2.295
  Name = 
  3 active torsions:
  status: ('A' for Active; 'I' for Inactive)
    1  A    between atoms: C_7  and  C_19
    2  A    between atoms: C_16  and  C_27
    3  A    between atoms: C_28  and  C_32
                            x       y       z     vdW  Elec       q    Type
                         _______ _______ _______ _____ _____    ______ ____

>  <TORSDO>
F 3

$$$$
=
 OpenBabel10272402053D

 32 36  0  0  1  0  0  0  0  0999 V2000
  190.9980  177.6710  140.1030 C   0  0  1  0  0  3  0  0  0  0  0  0
  188.6880  177.0070  139.5850 N   0  0  2  0  0  0  0  0  0  0  0  0
  192.4600  177.2610  140.0590 C   0  0  0  0  0  2  0  0  0  0  0  0
  190.0670  176.5240  139.7210 C   0  0  1  0  0  3  0  0  0  0  0  0
  188.5470  178.1500  138.6540 C   0  0  1  0  0  3  0  0  0  0  0  0
  188.2650  177.4640  140.9190 C   0  0  1  0  0  3  0  0  0  0  0  0
  185.1820  179.1920  139.6520 C   0  0  0  0  0  0  0  0  0  0  0  0
  186.3680  178.6500  139.7090 C   0  0  0  0  0  0  0  0  0  0  0  0
  189.4030  178.0800  137.3760 C   0  0  2  0  0  3  0  0  0  0  0  0
  190.5260  175.6570  138.5330 C   0  0  1  0  0  3  0  0  0  0  0  0
  187.0730  178.4320  138.4000 C   0  0  0  0  0  2  0  0  0  0  0  0
  189.5570  175.5090  137.3550 C   0  0  0  0  0  2  0  0  0  0  0  0
  192.0260  175.5980  138.2190 C   0  0  0  0  0  2  0  0  0  0  0  0
  189.0820  178.6060  141.3910 N   0  0  0  0  0  2  0  0  0  0  0  0
  189.1700  179.1760  136.5670 F   0  0  0  0  0  0  0  0  0  0  0  0
  190.5230  178.2820  141.4280 C   0  0  1  0  0  3  0  0  0  0  0  0
  186.7610  177.8030  140.9110 C   0  0  2  0  0  3  0  0  0  0  0  0
  189.2850  176.7920  136.5660 C   0  0  0  0  0  2  0  0  0  0  0  0
  192.7840  176.8640  138.6230 C   0  0  0  0  0  2  0  0  0  0  0  0
  184.0570  179.7070  139.5990 O   0  0  0  0  0  0  0  0  0  0  0  0
  189.5900  176.7990  144.8040 C   0  0  2  0  0  3  0  0  0  0  0  0
  188.7650  177.8990  145.0410 O   0  0  0  0  0  1  0  0  0  0  0  0
  191.8480  177.7610  145.0010 C   0  0  0  0  0  3  0  0  0  0  0  0
  190.9340  177.5210  142.7010 C   0  0  1  0  0  3  0  0  0  0  0  0
  190.8970  176.9790  145.5290 C   0  0  0  0  0  0  0  0  0  0  0  0
  191.5770  178.4770  143.7120 C   0  0  0  0  0  2  0  0  0  0  0  0
  189.8070  176.6360  143.2910 C   0  0  1  0  0  3  0  0  0  0  0  0
  190.0660  175.2970  142.9960 O   0  0  0  0  0  1  0  0  0  0  0  0
  191.1630  176.2090  146.7790 C   0  0  0  0  0  2  0  0  0  0  0  0
  191.9120  176.9830  147.6660 O   0  0  0  0  0  1  0  0  0  0  0  0
  186.2570  177.4000  143.2190 O   0  0  0  0  0  1  0  0  0  0  0  0
  186.3350  178.4020  142.2510 C   0  0  0  0  0  2  0  0  0  0  0  0
  1  3  1  1  0  0  0
  1 16  1  0  0  0  0
  2  4  1  0  0  0  0
  2  6  1  0  0  0  0
  4  1  1  0  0  0  0
  5  2  1  0  0  0  0
  6 14  1  0  0  0  0
  7  8  2  0  0  0  0
  8 17  1  0  0  0  0
  9  5  1  0  0  0  0
 10  4  1  0  0  0  0
 11  5  1  0  0  0  0
 11  8  1  0  0  0  0
 12 10  1  0  0  0  0
 13 10  1  0  0  0  0
 13 19  1  0  0  0  0
 14 16  1  0  0  0  0
 15  9  1  0  0  0  0
 16 24  1  0  0  0  0
 17  6  1  0  0  0  0
 17 32  1  0  0  0  0
 18 12  1  0  0  0  0
 18  9  1  0  0  0  0
 19  3  1  0  0  0  0
 20  7  2  0  0  0  0
 21 22  1  0  0  0  0
 21 25  1  0  0  0  0
 23 25  2  0  0  0  0
 24 27  1  0  0  0  0
 24 26  1  0  0  0  0
 25 29  1  0  0  0  0
 26 23  1  0  0  0  0
 27 21  1  0  0  0  0
 28 27  1  0  0  0  0
 29 30  1  0  0  0  0
 32 31  1  0  0  0  0
M  END
>  <MODEL>
3

>  <REMARK>
 VINA RESULT:      -7.4      3.016      7.471
  Name = 
  3 active torsions:
  status: ('A' for Active; 'I' for Inactive)
    1  A    between atoms: C_7  and  C_19
    2  A    between atoms: C_16  and  C_27
    3  A    between atoms: C_28  and  C_32
                            x       y       z     vdW  Elec       q    Type
                         _______ _______ _______ _____ _____    ______ ____

>  <TORSDO>
F 3

$$$$
=
 OpenBabel10272402053D

 32 36  0  0  1  0  0  0  0  0999 V2000
  183.7740  178.3890  138.4810 C   0  0  1  0  0  3  0  0  0  0  0  0
  183.3770  177.4820  140.7320 N   0  0  2  0  0  0  0  0  0  0  0  0
  183.5680  178.1800  136.9910 C   0  0  0  0  0  2  0  0  0  0  0  0
  183.3480  177.1710  139.2970 C   0  0  1  0  0  3  0  0  0  0  0  0
  182.5870  178.6800  141.0980 C   0  0  1  0  0  3  0  0  0  0  0  0
  184.7820  177.7500  141.0810 C   0  0  1  0  0  3  0  0  0  0  0  0
  183.9600  179.1730  144.4560 C   0  0  0  0  0  0  0  0  0  0  0  0
  183.8630  178.7870  143.2120 C   0  0  0  0  0  0  0  0  0  0  0  0
  181.2440  178.8440  140.3630 C   0  0  2  0  0  3  0  0  0  0  0  0
  182.0410  176.4900  138.8500 C   0  0  1  0  0  3  0  0  0  0  0  0
  182.4850  178.7890  142.6120 C   0  0  0  0  0  2  0  0  0  0  0  0
  180.9360  176.3290  139.9000 C   0  0  0  0  0  2  0  0  0  0  0  0
  181.6030  176.6580  137.3900 C   0  0  0  0  0  2  0  0  0  0  0  0
  185.3050  178.9380  140.3680 N   0  0  0  0  0  2  0  0  0  0  0  0
  180.5780  179.9730  140.8020 F   0  0  0  0  0  0  0  0  0  0  0  0
  185.1900  178.8040  138.9010 C   0  0  1  0  0  3  0  0  0  0  0  0
  184.9320  177.8890  142.6080 C   0  0  2  0  0  3  0  0  0  0  0  0
  180.3130  177.6350  140.3990 C   0  0  0  0  0  2  0  0  0  0  0  0
  182.0770  177.9670  136.7580 C   0  0  0  0  0  2  0  0  0  0  0  0
  184.0530  179.5390  145.6350 O   0  0  0  0  0  0  0  0  0  0  0  0
  188.8240  178.5640  137.8010 C   0  0  2  0  0  3  0  0  0  0  0  0
  188.7560  179.8810  137.3460 O   0  0  0  0  0  1  0  0  0  0  0  0
  187.4550  177.3480  136.1550 C   0  0  0  0  0  3  0  0  0  0  0  0
  186.3370  177.9840  138.2830 C   0  0  1  0  0  3  0  0  0  0  0  0
  188.6750  177.6170  136.6410 C   0  0  0  0  0  0  0  0  0  0  0  0
  186.2610  178.0290  136.7520 C   0  0  0  0  0  2  0  0  0  0  0  0
  187.7340  178.3290  138.8590 C   0  0  1  0  0  3  0  0  0  0  0  0
  188.1370  177.3180  139.7330 O   0  0  0  0  0  1  0  0  0  0  0  0
  189.8730  176.9080  136.1040 C   0  0  0  0  0  2  0  0  0  0  0  0
  190.8200  176.7400  137.1140 O   0  0  0  0  0  1  0  0  0  0  0  0
  187.1910  177.1770  142.9730 O   0  0  0  0  0  1  0  0  0  0  0  0
  186.3580  178.2960  142.9760 C   0  0  0  0  0  2  0  0  0  0  0  0
  1  3  1  6  0  0  0
  1 16  1  0  0  0  0
  1  4  1  0  0  0  0
  2  6  1  0  0  0  0
  2  5  1  0  0  0  0
  4  2  1  0  0  0  0
  5 11  1  0  0  0  0
  6 17  1  0  0  0  0
  7 20  2  0  0  0  0
  8  7  2  0  0  0  0
  9 18  1  0  0  0  0
  9 15  1  0  0  0  0
  9  5  1  0  0  0  0
 10  4  1  0  0  0  0
 10 12  1  0  0  0  0
 11  8  1  0  0  0  0
 12 18  1  0  0  0  0
 13 10  1  0  0  0  0
 14  6  1  0  0  0  0
 16 14  1  0  0  0  0
 17 32  1  0  0  0  0
 17  8  1  0  0  0  0
 19  3  1  0  0  0  0
 19 13  1  0  0  0  0
 21 27  1  0  0  0  0
 22 21  1  0  0  0  0
 23 25  2  0  0  0  0
 23 26  1  0  0  0  0
 24 27  1  0  0  0  0
 24 16  1  0  0  0  0
 25 21  1  0  0  0  0
 26 24  1  0  0  0  0
 27 28  1  0  0  0  0
 29 25  1  0  0  0  0
 29 30  1  0  0  0  0
 31 32  1  0  0  0  0
M  END
>  <MODEL>
4

>  <REMARK>
 VINA RESULT:      -7.1      3.666      7.247
  Name = 
  3 active torsions:
  status: ('A' for Active; 'I' for Inactive)
    1  A    between atoms: C_7  and  C_19
    2  A    between atoms: C_16  and  C_27
    3  A    between atoms: C_28  and  C_32
                            x       y       z     vdW  Elec       q    Type
                         _______ _______ _______ _____ _____    ______ ____

>  <TORSDO>
F 3

$$$$
=
 OpenBabel10272402053D

 32 36  0  0  1  0  0  0  0  0999 V2000
  188.7600  176.7920  138.3630 C   0  0  1  0  0  3  0  0  0  0  0  0
  190.5360  176.6740  136.6670 N   0  0  2  0  0  0  0  0  0  0  0  0
  187.5920  177.6010  138.9010 C   0  0  0  0  0  2  0  0  0  0  0  0
  189.5450  177.5530  137.2980 C   0  0  1  0  0  3  0  0  0  0  0  0
  189.9610  175.4230  136.1210 C   0  0  1  0  0  3  0  0  0  0  0  0
  191.5020  176.3010  137.7140 C   0  0  1  0  0  3  0  0  0  0  0  0
  193.0970  173.5900  135.6640 C   0  0  0  0  0  0  0  0  0  0  0  0
  192.2370  174.4580  136.1230 C   0  0  0  0  0  0  0  0  0  0  0  0
  188.5930  175.5650  135.4280 C   0  0  2  0  0  3  0  0  0  0  0  0
  188.7010  178.3440  136.2810 C   0  0  1  0  0  3  0  0  0  0  0  0
  191.0060  174.6910  135.2920 C   0  0  0  0  0  2  0  0  0  0  0  0
  188.9220  178.0390  134.7950 C   0  0  0  0  0  2  0  0  0  0  0  0
  187.2970  178.7950  136.7040 C   0  0  0  0  0  2  0  0  0  0  0  0
  190.8590  175.5240  138.7990 N   0  0  0  0  0  2  0  0  0  0  0  0
  188.1660  174.3470  134.9300 F   0  0  0  0  0  0  0  0  0  0  0  0
  189.7360  176.2570  139.4190 C   0  0  1  0  0  3  0  0  0  0  0  0
  192.6890  175.5390  137.0930 C   0  0  2  0  0  3  0  0  0  0  0  0
  188.5040  176.6380  134.3460 C   0  0  0  0  0  2  0  0  0  0  0  0
  186.6460  177.8740  137.7370 C   0  0  0  0  0  2  0  0  0  0  0  0
  193.9140  172.7670  135.2300 O   0  0  0  0  0  0  0  0  0  0  0  0
  191.5490  176.9950  142.6800 C   0  0  2  0  0  3  0  0  0  0  0  0
  191.0440  175.8070  143.2110 O   0  0  0  0  0  1  0  0  0  0  0  0
  189.5560  178.4370  142.5820 C   0  0  0  0  0  3  0  0  0  0  0  0
  190.1950  177.2730  140.4800 C   0  0  1  0  0  3  0  0  0  0  0  0
  190.7280  178.1590  143.1680 C   0  0  0  0  0  0  0  0  0  0  0  0
  189.0620  177.5570  141.4740 C   0  0  0  0  0  2  0  0  0  0  0  0
  191.5480  176.9130  141.1450 C   0  0  1  0  0  3  0  0  0  0  0  0
  192.5500  177.7360  140.6310 O   0  0  0  0  0  1  0  0  0  0  0  0
  191.2690  179.0530  144.2330 C   0  0  0  0  0  2  0  0  0  0  0  0
  191.9800  178.3020  145.1700 O   0  0  0  0  0  1  0  0  0  0  0  0
  194.9470  175.4020  137.8870 O   0  0  0  0  0  1  0  0  0  0  0  0
  193.6350  175.0320  138.1820 C   0  0  0  0  0  2  0  0  0  0  0  0
  1  3  1  1  0  0  0
  1 16  1  0  0  0  0
  2  4  1  0  0  0  0
  2  6  1  0  0  0  0
  4  1  1  0  0  0  0
  5  2  1  0  0  0  0
  6 14  1  0  0  0  0
  7  8  2  0  0  0  0
  8 17  1  0  0  0  0
  9  5  1  0  0  0  0
 10 13  1  0  0  0  0
 10  4  1  0  0  0  0
 11  5  1  0  0  0  0
 11  8  1  0  0  0  0
 12 10  1  0  0  0  0
 13 19  1  0  0  0  0
 14 16  1  0  0  0  0
 15  9  1  0  0  0  0
 16 24  1  0  0  0  0
 17  6  1  0  0  0  0
 17 32  1  0  0  0  0
 18 12  1  0  0  0  0
 18  9  1  0  0  0  0
 19  3  1  0  0  0  0
 20  7  2  0  0  0  0
 21 25  1  0  0  0  0
 21 22  1  0  0  0  0
 23 25  2  0  0  0  0
 24 27  1  0  0  0  0
 24 26  1  0  0  0  0
 25 29  1  0  0  0  0
 26 23  1  0  0  0  0
 27 21  1  0  0  0  0
 28 27  1  0  0  0  0
 29 30  1  0  0  0  0
 31 32  1  0  0  0  0
M  END
>  <MODEL>
5

>  <REMARK>
 VINA RESULT:      -7.0      4.474      7.555
  Name = 
  3 active torsions:
  status: ('A' for Active; 'I' for Inactive)
    1  A    between atoms: C_7  and  C_19
    2  A    between atoms: C_16  and  C_27
    3  A    between atoms: C_28  and  C_32
                            x       y       z     vdW  Elec       q    Type
                         _______ _______ _______ _____ _____    ______ ____

>  <TORSDO>
F 3

$$$$
=
 OpenBabel10272402053D

 32 36  0  0  1  0  0  0  0  0999 V2000
  185.3200  179.1330  140.8060 C   0  0  1  0  0  3  0  0  0  0  0  0
  185.1320  177.7720  142.8450 N   0  0  2  0  0  0  0  0  0  0  0  0
  184.7000  179.4680  139.4610 C   0  0  0  0  0  2  0  0  0  0  0  0
  184.6410  177.9400  141.4730 C   0  0  1  0  0  3  0  0  0  0  0  0
  185.0130  178.9930  143.6750 C   0  0  1  0  0  3  0  0  0  0  0  0
  186.5630  177.4380  142.7460 C   0  0  1  0  0  3  0  0  0  0  0  0
  187.2210  177.9570  146.4060 C   0  0  0  0  0  0  0  0  0  0  0  0
  186.6820  178.0230  145.2180 C   0  0  0  0  0  0  0  0  0  0  0  0
  183.7220  179.8090  143.4780 C   0  0  2  0  0  3  0  0  0  0  0  0
  183.1040  177.9010  141.3700 C   0  0  1  0  0  3  0  0  0  0  0  0
  185.3270  178.6640  145.1270 C   0  0  0  0  0  2  0  0  0  0  0  0
  182.3140  177.8060  142.6790 C   0  0  0  0  0  2  0  0  0  0  0  0
  182.4410  178.6410  140.2010 C   0  0  0  0  0  2  0  0  0  0  0  0
  187.3410  178.5420  142.1370 N   0  0  0  0  0  2  0  0  0  0  0  0
  183.7010  180.9050  144.3200 F   0  0  0  0  0  0  0  0  0  0  0  0
  186.8380  178.9050  140.7970 C   0  0  1  0  0  3  0  0  0  0  0  0
  187.1140  177.0490  144.1320 C   0  0  2  0  0  3  0  0  0  0  0  0
  182.4160  179.0280  143.5960 C   0  0  0  0  0  2  0  0  0  0  0  0
  183.2430  179.8440  139.7060 C   0  0  0  0  0  2  0  0  0  0  0  0
  187.7320  177.8950  147.5310 O   0  0  0  0  0  0  0  0  0  0  0  0
  189.2210  178.3010  137.8950 C   0  0  2  0  0  3  0  0  0  0  0  0
  189.0450  179.6260  137.4950 O   0  0  0  0  0  1  0  0  0  0  0  0
  187.0600  177.2690  137.3240 C   0  0  0  0  0  3  0  0  0  0  0  0
  187.3670  177.9800  139.6860 C   0  0  1  0  0  3  0  0  0  0  0  0
  188.3650  177.3970  137.0480 C   0  0  0  0  0  0  0  0  0  0  0  0
  186.4660  178.0610  138.4480 C   0  0  0  0  0  2  0  0  0  0  0  0
  188.8760  178.1640  139.3860 C   0  0  1  0  0  3  0  0  0  0  0  0
  189.5910  177.1000  139.9370 O   0  0  0  0  0  1  0  0  0  0  0  0
  188.9930  176.5750  135.9730 C   0  0  0  0  0  2  0  0  0  0  0  0
  190.3820  176.6120  136.0940 O   0  0  0  0  0  1  0  0  0  0  0  0
  188.9250  175.8340  143.1360 O   0  0  0  0  0  1  0  0  0  0  0  0
  188.6250  176.8260  144.0700 C   0  0  0  0  0  2  0  0  0  0  0  0
  1  3  1  6  0  0  0
  1  4  1  0  0  0  0
  2  5  1  0  0  0  0
  3 19  1  0  0  0  0
  4  2  1  0  0  0  0
  5 11  1  0  0  0  0
  6  2  1  0  0  0  0
  6 17  1  0  0  0  0
  7 20  2  0  0  0  0
  8  7  2  0  0  0  0
  9 18  1  0  0  0  0
  9  5  1  0  0  0  0
  9 15  1  0  0  0  0
 10  4  1  0  0  0  0
 10 12  1  0  0  0  0
 11  8  1  0  0  0  0
 12 18  1  0  0  0  0
 13 10  1  0  0  0  0
 14  6  1  0  0  0  0
 16  1  1  0  0  0  0
 16 14  1  0  0  0  0
 17  8  1  0  0  0  0
 19 13  1  0  0  0  0
 21 27  1  0  0  0  0
 22 21  1  0  0  0  0
 23 26  1  0  0  0  0
 24 16  1  0  0  0  0
 25 23  2  0  0  0  0
 25 21  1  0  0  0  0
 26 24  1  0  0  0  0
 27 24  1  0  0  0  0
 27 28  1  0  0  0  0
 29 30  1  0  0  0  0
 29 25  1  0  0  0  0
 31 32  1  0  0  0  0
 32 17  1  0  0  0  0
M  END
>  <MODEL>
6

>  <REMARK>
 VINA RESULT:      -6.9      2.943      5.668
  Name = 
  3 active torsions:
  status: ('A' for Active; 'I' for Inactive)
    1  A    between atoms: C_7  and  C_19
    2  A    between atoms: C_16  and  C_27
    3  A    between atoms: C_28  and  C_32
                            x       y       z     vdW  Elec       q    Type
                         _______ _______ _______ _____ _____    ______ ____

>  <TORSDO>
F 3

$$$$
=
 OpenBabel10272402053D

 32 36  0  0  1  0  0  0  0  0999 V2000
  189.5930  177.4040  138.5330 C   0  0  1  0  0  3  0  0  0  0  0  0
  187.1550  177.1050  138.4290 N   0  0  2  0  0  0  0  0  0  0  0  0
  190.9470  176.7620  138.2840 C   0  0  0  0  0  2  0  0  0  0  0  0
  188.4460  176.4090  138.3750 C   0  0  1  0  0  3  0  0  0  0  0  0
  187.0380  178.2200  137.4620 C   0  0  1  0  0  3  0  0  0  0  0  0
  187.0340  177.6730  139.7820 C   0  0  1  0  0  3  0  0  0  0  0  0
  184.0860  179.8290  138.9110 C   0  0  0  0  0  0  0  0  0  0  0  0
  185.1680  179.1040  138.8140 C   0  0  0  0  0  0  0  0  0  0  0  0
  187.6500  177.9640  136.0720 C   0  0  2  0  0  3  0  0  0  0  0  0
  188.5630  175.4370  137.1870 C   0  0  1  0  0  3  0  0  0  0  0  0
  185.6040  178.7270  137.4260 C   0  0  0  0  0  2  0  0  0  0  0  0
  187.4010  175.4040  136.1880 C   0  0  0  0  0  2  0  0  0  0  0  0
  189.9630  175.1240  136.6450 C   0  0  0  0  0  2  0  0  0  0  0  0
  188.0840  178.6840  140.0460 N   0  0  0  0  0  2  0  0  0  0  0  0
  187.4580  179.0540  135.2420 F   0  0  0  0  0  0  0  0  0  0  0  0
  189.4440  178.1330  139.8750 C   0  0  1  0  0  3  0  0  0  0  0  0
  185.6200  178.2500  139.9890 C   0  0  2  0  0  3  0  0  0  0  0  0
  187.2020  176.6830  135.3730 C   0  0  0  0  0  2  0  0  0  0  0  0
  190.9630  176.2650  136.8430 C   0  0  0  0  0  2  0  0  0  0  0  0
  183.0610  180.5170  139.0040 O   0  0  0  0  0  0  0  0  0  0  0  0
  190.0470  178.0020  143.6280 C   0  0  2  0  0  3  0  0  0  0  0  0
  190.4440  179.3390  143.5950 O   0  0  0  0  0  1  0  0  0  0  0  0
  191.9210  176.8500  142.5220 C   0  0  0  0  0  3  0  0  0  0  0  0
  189.9380  177.3630  141.1120 C   0  0  1  0  0  3  0  0  0  0  0  0
  191.2610  177.1120  143.6580 C   0  0  0  0  0  0  0  0  0  0  0  0
  191.4610  177.4830  141.2440 C   0  0  0  0  0  2  0  0  0  0  0  0
  189.1600  177.6980  142.4100 C   0  0  1  0  0  3  0  0  0  0  0  0
  188.2890  176.6510  142.7120 O   0  0  0  0  0  1  0  0  0  0  0  0
  191.6620  176.4490  144.9330 C   0  0  0  0  0  2  0  0  0  0  0  0
  191.7460  177.3930  145.9570 O   0  0  0  0  0  1  0  0  0  0  0  0
  185.2190  178.0370  142.3430 O   0  0  0  0  0  1  0  0  0  0  0  0
  185.5190  178.9600  141.3400 C   0  0  0  0  0  2  0  0  0  0  0  0
  1  3  1  1  0  0  0
  1 16  1  0  0  0  0
  2  6  1  0  0  0  0
  4  2  1  0  0  0  0
  4  1  1  0  0  0  0
  5  2  1  0  0  0  0
  6 17  1  0  0  0  0
  6 14  1  0  0  0  0
  7 20  2  0  0  0  0
  8  7  2  0  0  0  0
  8 17  1  0  0  0  0
  9  5  1  0  0  0  0
 10  4  1  0  0  0  0
 11  5  1  0  0  0  0
 11  8  1  0  0  0  0
 12 10  1  0  0  0  0
 13 19  1  0  0  0  0
 13 10  1  0  0  0  0
 15  9  1  0  0  0  0
 16 14  1  0  0  0  0
 16 24  1  0  0  0  0
 17 32  1  0  0  0  0
 18  9  1  0  0  0  0
 18 12  1  0  0  0  0
 19  3  1  0  0  0  0
 21 25  1  0  0  0  0
 22 21  1  0  0  0  0
 23 25  2  0  0  0  0
 24 26  1  0  0  0  0
 24 27  1  0  0  0  0
 25 29  1  0  0  0  0
 26 23  1  0  0  0  0
 27 28  1  0  0  0  0
 27 21  1  0  0  0  0
 29 30  1  0  0  0  0
 32 31  1  0  0  0  0
M  END
>  <MODEL>
7

>  <REMARK>
 VINA RESULT:      -6.8      3.155      7.738
  Name = 
  3 active torsions:
  status: ('A' for Active; 'I' for Inactive)
    1  A    between atoms: C_7  and  C_19
    2  A    between atoms: C_16  and  C_27
    3  A    between atoms: C_28  and  C_32
                            x       y       z     vdW  Elec       q    Type
                         _______ _______ _______ _____ _____    ______ ____

>  <TORSDO>
F 3

$$$$
=
 OpenBabel10272402053D

 32 36  0  0  1  0  0  0  0  0999 V2000
  187.4460  174.3220  135.2280 C   0  0  1  0  0  3  0  0  0  0  0  0
  186.4790  175.1100  137.3460 N   0  0  2  0  0  0  0  0  0  0  0  0
  187.8680  173.1090  134.4160 C   0  0  0  0  0  2  0  0  0  0  0  0
  187.0640  173.9540  136.6590 C   0  0  1  0  0  3  0  0  0  0  0  0
  185.3390  175.7200  136.6240 C   0  0  1  0  0  3  0  0  0  0  0  0
  187.5390  176.1280  137.4440 C   0  0  1  0  0  3  0  0  0  0  0  0
  185.1950  178.8690  138.4840 C   0  0  0  0  0  0  0  0  0  0  0  0
  185.6660  177.7640  137.9730 C   0  0  0  0  0  0  0  0  0  0  0  0
  184.3710  174.7290  135.9500 C   0  0  2  0  0  3  0  0  0  0  0  0
  186.2310  172.6680  136.8190 C   0  0  1  0  0  3  0  0  0  0  0  0
  184.6570  176.7520  137.5090 C   0  0  0  0  0  2  0  0  0  0  0  0
  184.8930  172.7840  137.5550 C   0  0  0  0  0  2  0  0  0  0  0  0
  186.3410  171.5970  135.7260 C   0  0  0  0  0  2  0  0  0  0  0  0
  187.9780  176.5920  136.1080 N   0  0  0  0  0  2  0  0  0  0  0  0
  183.3310  175.4010  135.3340 F   0  0  0  0  0  0  0  0  0  0  0  0
  188.4540  175.4800  135.2600 C   0  0  1  0  0  3  0  0  0  0  0  0
  187.0700  177.2990  138.3300 C   0  0  2  0  0  3  0  0  0  0  0  0
  183.8250  173.6190  136.8450 C   0  0  0  0  0  2  0  0  0  0  0  0
  186.6740  172.1650  134.3460 C   0  0  0  0  0  2  0  0  0  0  0  0
  184.7490  179.9170  138.9690 O   0  0  0  0  0  0  0  0  0  0  0  0
  191.4880  175.6130  137.5490 C   0  0  2  0  0  3  0  0  0  0  0  0
  191.1880  176.9430  137.8440 O   0  0  0  0  0  1  0  0  0  0  0  0
  192.2910  175.7360  135.2250 C   0  0  0  0  0  3  0  0  0  0  0  0
  189.9130  175.0860  135.5510 C   0  0  1  0  0  3  0  0  0  0  0  0
  192.5850  175.5540  136.5200 C   0  0  0  0  0  0  0  0  0  0  0  0
  190.8770  176.0350  134.8290 C   0  0  0  0  0  2  0  0  0  0  0  0
  190.2200  174.8960  137.0580 C   0  0  1  0  0  3  0  0  0  0  0  0
  190.3100  173.5330  137.3440 O   0  0  0  0  0  1  0  0  0  0  0  0
  193.9730  175.1970  136.9350 C   0  0  0  0  0  2  0  0  0  0  0  0
  193.9410  174.1470  137.8520 O   0  0  0  0  0  1  0  0  0  0  0  0
  188.4400  178.7600  139.6480 O   0  0  0  0  0  1  0  0  0  0  0  0
  188.1080  178.4210  138.3350 C   0  0  0  0  0  2  0  0  0  0  0  0
  1  3  1  1  0  0  0
  1 16  1  0  0  0  0
  1  4  1  0  0  0  0
  2  6  1  0  0  0  0
  4 10  1  0  0  0  0
  4  2  1  0  0  0  0
  5  2  1  0  0  0  0
  5 11  1  0  0  0  0
  6 17  1  0  0  0  0
  7 20  2  0  0  0  0
  8 17  1  0  0  0  0
  8  7  2  0  0  0  0
  9  5  1  0  0  0  0
  9 18  1  0  0  0  0
 10 12  1  0  0  0  0
 11  8  1  0  0  0  0
 13 10  1  0  0  0  0
 14  6  1  0  0  0  0
 15  9  1  0  0  0  0
 16 24  1  0  0  0  0
 16 14  1  0  0  0  0
 17 32  1  0  0  0  0
 18 12  1  0  0  0  0
 19  3  1  0  0  0  0
 19 13  1  0  0  0  0
 21 22  1  0  0  0  0
 23 25  2  0  0  0  0
 24 27  1  0  0  0  0
 25 29  1  0  0  0  0
 25 21  1  0  0  0  0
 26 23  1  0  0  0  0
 26 24  1  0  0  0  0
 27 28  1  0  0  0  0
 27 21  1  0  0  0  0
 29 30  1  0  0  0  0
 32 31  1  0  0  0  0
M  END
>  <MODEL>
8

>  <REMARK>
 VINA RESULT:      -6.7      4.866      8.828
  Name = 
  3 active torsions:
  status: ('A' for Active; 'I' for Inactive)
    1  A    between atoms: C_7  and  C_19
    2  A    between atoms: C_16  and  C_27
    3  A    between atoms: C_28  and  C_32
                            x       y       z     vdW  Elec       q    Type
                         _______ _______ _______ _____ _____    ______ ____

>  <TORSDO>
F 3

$$$$
=
 OpenBabel10272402053D

 32 36  0  0  1  0  0  0  0  0999 V2000
  188.4690  177.9660  140.5710 C   0  0  1  0  0  3  0  0  0  0  0  0
  190.2480  176.3080  140.2070 N   0  0  2  0  0  0  0  0  0  0  0  0
  187.2690  178.3530  141.4180 C   0  0  0  0  0  2  0  0  0  0  0  0
  188.9800  176.5660  140.9000 C   0  0  1  0  0  3  0  0  0  0  0  0
  191.2850  177.3340  140.4610 C   0  0  1  0  0  3  0  0  0  0  0  0
  189.9540  176.3190  138.7640 C   0  0  1  0  0  3  0  0  0  0  0  0
  193.5660  176.4170  137.7480 C   0  0  0  0  0  0  0  0  0  0  0  0
  192.4660  176.5380  138.4410 C   0  0  0  0  0  0  0  0  0  0  0  0
  191.3600  177.8630  141.9050 C   0  0  2  0  0  3  0  0  0  0  0  0
  189.0210  176.2040  142.3960 C   0  0  1  0  0  3  0  0  0  0  0  0
  192.6200  176.8690  139.8980 C   0  0  0  0  0  2  0  0  0  0  0  0
  190.3650  175.7410  142.9710 C   0  0  0  0  0  2  0  0  0  0  0  0
  188.0700  176.9440  143.3450 C   0  0  0  0  0  2  0  0  0  0  0  0
  189.4730  177.6450  138.3140 N   0  0  0  0  0  2  0  0  0  0  0  0
  192.3790  178.7890  142.0360 F   0  0  0  0  0  0  0  0  0  0  0  0
  188.2730  178.0850  139.0530 C   0  0  1  0  0  3  0  0  0  0  0  0
  191.1900  175.8580  137.9680 C   0  0  2  0  0  3  0  0  0  0  0  0
  191.4660  176.8030  142.9980 C   0  0  0  0  0  2  0  0  0  0  0  0
  187.7170  178.3560  142.8750 C   0  0  0  0  0  2  0  0  0  0  0  0
  194.6080  176.3010  137.0910 O   0  0  0  0  0  0  0  0  0  0  0  0
  186.1510  177.0480  136.0720 C   0  0  2  0  0  3  0  0  0  0  0  0
  186.5830  178.1850  135.3890 O   0  0  0  0  0  1  0  0  0  0  0  0
  184.6450  177.9800  137.7820 C   0  0  0  0  0  3  0  0  0  0  0  0
  186.9720  177.4770  138.4990 C   0  0  1  0  0  3  0  0  0  0  0  0
  184.7790  177.2890  136.6420 C   0  0  0  0  0  0  0  0  0  0  0  0
  185.8650  178.5370  138.4490 C   0  0  0  0  0  2  0  0  0  0  0  0
  187.1620  176.6950  137.1750 C   0  0  1  0  0  3  0  0  0  0  0  0
  187.1140  175.3250  137.4340 O   0  0  0  0  0  1  0  0  0  0  0  0
  183.5860  176.6730  135.9890 C   0  0  0  0  0  2  0  0  0  0  0  0
  183.9940  175.7550  135.0200 O   0  0  0  0  0  1  0  0  0  0  0  0
  190.1420  174.9370  136.0180 O   0  0  0  0  0  1  0  0  0  0  0  0
  190.9430  175.9880  136.4650 C   0  0  0  0  0  2  0  0  0  0  0  0
  1  4  1  0  0  0  0
  1  3  1  1  0  0  0
  2  5  1  0  0  0  0
  2  4  1  0  0  0  0
  3 19  1  0  0  0  0
  4 10  1  0  0  0  0
  5  9  1  0  0  0  0
  6  2  1  0  0  0  0
  7  8  2  0  0  0  0
  8 11  1  0  0  0  0
  9 15  1  0  0  0  0
  9 18  1  0  0  0  0
 10 12  1  0  0  0  0
 10 13  1  0  0  0  0
 11  5  1  0  0  0  0
 12 18  1  0  0  0  0
 14  6  1  0  0  0  0
 14 16  1  0  0  0  0
 16  1  1  0  0  0  0
 17  8  1  0  0  0  0
 17  6  1  0  0  0  0
 19 13  1  0  0  0  0
 20  7  2  0  0  0  0
 21 25  1  0  0  0  0
 21 27  1  0  0  0  0
 22 21  1  0  0  0  0
 23 26  1  0  0  0  0
 24 16  1  0  0  0  0
 25 23  2  0  0  0  0
 26 24  1  0  0  0  0
 27 28  1  0  0  0  0
 27 24  1  0  0  0  0
 29 25  1  0  0  0  0
 30 29  1  0  0  0  0
 31 32  1  0  0  0  0
 32 17  1  0  0  0  0
M  END
>  <MODEL>
9

>  <REMARK>
 VINA RESULT:      -6.6      2.393      3.094
  Name = 
  3 active torsions:
  status: ('A' for Active; 'I' for Inactive)
    1  A    between atoms: C_7  and  C_19
    2  A    between atoms: C_16  and  C_27
    3  A    between atoms: C_28  and  C_32
                            x       y       z     vdW  Elec       q    Type
                         _______ _______ _______ _____ _____    ______ ____

>  <TORSDO>
F 3

$$$$
