=
 OpenBabel10272401543D

 28 32  0  0  0  0  0  0  0  0999 V2000
  187.5340  178.2130  140.9590 C   0  0  0  0  0  0  0  0  0  0  0  0
  190.5190  176.8990  144.8250 C   0  0  0  0  0  3  0  0  0  0  0  0
  184.6080  178.6140  144.8430 N   0  0  0  0  0  1  0  0  0  0  0  0
  189.0450  177.1070  146.7300 C   0  0  0  0  0  0  0  0  0  0  0  0
  188.1970  177.6160  144.5110 C   0  0  0  0  0  0  0  0  0  0  0  0
  191.3310  176.4050  147.0020 C   0  0  0  0  0  0  0  0  0  0  0  0
  189.2540  177.2100  145.3390 C   0  0  0  0  0  0  0  0  0  0  0  0
  186.7780  177.8010  146.4420 N   0  0  0  0  0  0  0  0  0  0  0  0
  190.0880  176.7020  147.5640 C   0  0  0  0  0  3  0  0  0  0  0  0
  186.0780  178.4140  142.8900 C   0  0  0  0  0  0  0  0  0  0  0  0
  188.3610  177.7270  143.1650 N   0  0  0  0  0  0  0  0  0  0  0  0
  187.7920  177.4090  147.2610 C   0  0  0  0  0  3  0  0  0  0  0  0
  185.2300  178.8960  140.7230 C   0  0  0  0  0  3  0  0  0  0  0  0
  185.8810  178.3130  144.2740 C   0  0  0  0  0  0  0  0  0  0  0  0
  185.0620  178.7970  142.0690 N   0  0  0  0  0  0  0  0  0  0  0  0
  192.6520  175.8960  148.0320 Cl  0  0  0  0  0  0  0  0  0  0  0  0
  191.5190  176.5070  145.6580 N   0  0  0  0  0  0  0  0  0  0  0  0
  186.9440  177.9100  145.0950 C   0  0  0  0  0  0  0  0  0  0  0  0
  186.4680  178.6030  140.1460 C   0  0  0  0  0  3  0  0  0  0  0  0
  187.3450  178.1120  142.3460 C   0  0  0  0  0  0  0  0  0  0  0  0
  188.8500  177.8840  140.3230 C   0  0  0  0  0  2  0  0  0  0  0  0
  188.7220  177.8250  138.8370 C   0  0  0  0  0  0  0  0  0  0  0  0
  188.5230  177.7060  136.0480 C   0  0  0  0  0  0  0  0  0  0  0  0
  188.3320  176.6350  138.2120 C   0  0  0  0  0  3  0  0  0  0  0  0
  189.0170  178.9540  138.0640 C   0  0  0  0  0  3  0  0  0  0  0  0
  188.9170  178.8950  136.6710 C   0  0  0  0  0  3  0  0  0  0  0  0
  188.4260  177.6500  134.6980 F   0  0  0  0  0  0  0  0  0  0  0  0
  188.2320  176.5770  136.8180 C   0  0  0  0  0  3  0  0  0  0  0  0
  1 20  1  0  0  0  0
  2  7  2  0  0  0  0
  2 17  1  0  0  0  0
  4 12  1  0  0  0  0
  4  9  2  0  0  0  0
  5 18  1  0  0  0  0
  5  7  1  0  0  0  0
  6  9  1  0  0  0  0
  6 16  1  0  0  0  0
  7  4  1  0  0  0  0
  8 12  2  0  0  0  0
 10 14  1  0  0  0  0
 11  5  2  0  0  0  0
 13 15  2  0  0  0  0
 14  3  1  0  0  0  0
 14 18  2  0  0  0  0
 15 10  1  0  0  0  0
 17  6  2  0  0  0  0
 18  8  1  0  0  0  0
 19 13  1  0  0  0  0
 19  1  2  0  0  0  0
 20 10  2  0  0  0  0
 20 11  1  0  0  0  0
 21  1  1  0  0  0  0
 22 21  1  0  0  0  0
 23 26  2  0  0  0  0
 23 28  1  0  0  0  0
 24 22  1  0  0  0  0
 25 22  2  0  0  0  0
 26 25  1  0  0  0  0
 27 23  1  0  0  0  0
 28 24  2  0  0  0  0
M  END
>  <MODEL>
1

>  <REMARK>
 VINA RESULT:      -9.8      0.000      0.000
  Name = 
  2 active torsions:
  status: ('A' for Active; 'I' for Inactive)
    1  A    between atoms: C_1  and  C_2
    2  A    between atoms: C_2  and  C_3
                            x       y       z     vdW  Elec       q    Type
                         _______ _______ _______ _____ _____    ______ ____

>  <TORSDO>
F 2

$$$$
=
 OpenBabel10272401543D

 28 32  0  0  0  0  0  0  0  0999 V2000
  189.8950  177.0830  142.5500 C   0  0  0  0  0  0  0  0  0  0  0  0
  185.0260  178.4370  142.7560 C   0  0  0  0  0  3  0  0  0  0  0  0
  188.9740  177.2910  147.3380 N   0  0  0  0  0  1  0  0  0  0  0  0
  184.6000  178.5320  145.1340 C   0  0  0  0  0  0  0  0  0  0  0  0
  186.8150  177.9160  144.3480 C   0  0  0  0  0  0  0  0  0  0  0  0
  182.8660  179.0370  143.5430 C   0  0  0  0  0  0  0  0  0  0  0  0
  185.4920  178.2910  144.0690 C   0  0  0  0  0  0  0  0  0  0  0  0
  186.3320  178.0310  146.7000 N   0  0  0  0  0  0  0  0  0  0  0  0
  183.2820  178.9060  144.8700 C   0  0  0  0  0  3  0  0  0  0  0  0
  189.4380  177.1850  144.9320 C   0  0  0  0  0  0  0  0  0  0  0  0
  187.7040  177.6760  143.3460 N   0  0  0  0  0  0  0  0  0  0  0  0
  185.0460  178.3940  146.4490 C   0  0  0  0  0  3  0  0  0  0  0  0
  191.6140  176.6010  144.1760 C   0  0  0  0  0  3  0  0  0  0  0  0
  188.5420  177.4220  145.9840 C   0  0  0  0  0  0  0  0  0  0  0  0
  190.7280  176.8300  145.1830 N   0  0  0  0  0  0  0  0  0  0  0  0
  181.2170  179.5060  143.1910 Cl  0  0  0  0  0  0  0  0  0  0  0  0
  183.7380  178.8030  142.5240 N   0  0  0  0  0  0  0  0  0  0  0  0
  187.2210  177.7920  145.6960 C   0  0  0  0  0  0  0  0  0  0  0  0
  191.2130  176.7260  142.8440 C   0  0  0  0  0  3  0  0  0  0  0  0
  188.9920  177.3190  143.5990 C   0  0  0  0  0  0  0  0  0  0  0  0
  189.4850  177.2310  141.1170 C   0  0  0  0  0  2  0  0  0  0  0  0
  190.6380  176.9720  140.2050 C   0  0  0  0  0  0  0  0  0  0  0  0
  192.7870  176.5170  138.4710 C   0  0  0  0  0  0  0  0  0  0  0  0
  191.8890  177.5370  140.4760 C   0  0  0  0  0  3  0  0  0  0  0  0
  190.4630  176.1830  139.0620 C   0  0  0  0  0  3  0  0  0  0  0  0
  191.5360  175.9550  138.1970 C   0  0  0  0  0  3  0  0  0  0  0  0
  193.8260  176.2950  137.6320 F   0  0  0  0  0  0  0  0  0  0  0  0
  192.9630  177.3090  139.6090 C   0  0  0  0  0  3  0  0  0  0  0  0
  1 19  2  0  0  0  0
  1 20  1  0  0  0  0
  2  7  1  0  0  0  0
  4 12  1  0  0  0  0
  5 18  1  0  0  0  0
  6  9  2  0  0  0  0
  7  5  1  0  0  0  0
  7  4  2  0  0  0  0
  9  4  1  0  0  0  0
 10 15  1  0  0  0  0
 10 14  1  0  0  0  0
 11 20  1  0  0  0  0
 11  5  2  0  0  0  0
 12  8  2  0  0  0  0
 13 15  2  0  0  0  0
 14  3  1  0  0  0  0
 16  6  1  0  0  0  0
 17  2  2  0  0  0  0
 17  6  1  0  0  0  0
 18 14  2  0  0  0  0
 18  8  1  0  0  0  0
 19 13  1  0  0  0  0
 20 10  2  0  0  0  0
 21  1  1  0  0  0  0
 22 24  1  0  0  0  0
 22 21  1  0  0  0  0
 23 28  1  0  0  0  0
 25 22  2  0  0  0  0
 26 23  2  0  0  0  0
 26 25  1  0  0  0  0
 27 23  1  0  0  0  0
 28 24  2  0  0  0  0
M  END
>  <MODEL>
2

>  <REMARK>
 VINA RESULT:      -9.6      3.411      5.474
  Name = 
  2 active torsions:
  status: ('A' for Active; 'I' for Inactive)
    1  A    between atoms: C_1  and  C_2
    2  A    between atoms: C_2  and  C_3
                            x       y       z     vdW  Elec       q    Type
                         _______ _______ _______ _____ _____    ______ ____

>  <TORSDO>
F 2

$$$$
=
 OpenBabel10272401543D

 28 32  0  0  0  0  0  0  0  0999 V2000
  189.6210  177.6960  139.2380 C   0  0  0  0  0  0  0  0  0  0  0  0
  189.0290  177.2510  144.2410 C   0  0  0  0  0  3  0  0  0  0  0  0
  185.0230  179.1570  139.9750 N   0  0  0  0  0  1  0  0  0  0  0  0
  186.7490  177.9800  144.5750 C   0  0  0  0  0  0  0  0  0  0  0  0
  187.6730  177.9630  142.3290 C   0  0  0  0  0  0  0  0  0  0  0  0
  188.1080  177.2740  146.4320 C   0  0  0  0  0  0  0  0  0  0  0  0
  187.8280  177.7300  143.7030 C   0  0  0  0  0  0  0  0  0  0  0  0
  185.4110  178.6740  142.7220 N   0  0  0  0  0  0  0  0  0  0  0  0
  186.8890  177.7510  145.9440 C   0  0  0  0  0  3  0  0  0  0  0  0
  187.3340  178.4250  139.6040 C   0  0  0  0  0  0  0  0  0  0  0  0
  188.6930  177.7330  141.4570 N   0  0  0  0  0  0  0  0  0  0  0  0
  185.5430  178.4550  144.0580 C   0  0  0  0  0  3  0  0  0  0  0  0
  188.2200  178.3940  137.3990 C   0  0  0  0  0  3  0  0  0  0  0  0
  186.2680  178.6740  140.4790 C   0  0  0  0  0  0  0  0  0  0  0  0
  187.2000  178.6350  138.2650 N   0  0  0  0  0  0  0  0  0  0  0  0
  188.3050  176.9800  148.1460 Cl  0  0  0  0  0  0  0  0  0  0  0  0
  189.1420  177.0350  145.5790 N   0  0  0  0  0  0  0  0  0  0  0  0
  186.4320  178.4420  141.8510 C   0  0  0  0  0  0  0  0  0  0  0  0
  189.4460  177.9180  137.8710 C   0  0  0  0  0  3  0  0  0  0  0  0
  188.5570  177.9470  140.1200 C   0  0  0  0  0  0  0  0  0  0  0  0
  190.9340  177.1680  139.7270 C   0  0  0  0  0  2  0  0  0  0  0  0
  191.5810  176.3100  138.6900 C   0  0  0  0  0  0  0  0  0  0  0  0
  192.8120  174.6810  136.7760 C   0  0  0  0  0  0  0  0  0  0  0  0
  190.9080  175.1920  138.1830 C   0  0  0  0  0  3  0  0  0  0  0  0
  192.8720  176.6090  138.2400 C   0  0  0  0  0  3  0  0  0  0  0  0
  193.4870  175.7960  137.2840 C   0  0  0  0  0  3  0  0  0  0  0  0
  193.4070  173.8940  135.8490 F   0  0  0  0  0  0  0  0  0  0  0  0
  191.5230  174.3790  137.2260 C   0  0  0  0  0  3  0  0  0  0  0  0
  1 21  1  0  0  0  0
  1 20  1  0  0  0  0
  2 17  1  0  0  0  0
  3 14  1  0  0  0  0
  4  9  2  0  0  0  0
  5  7  1  0  0  0  0
  6 16  1  0  0  0  0
  7  2  2  0  0  0  0
  7  4  1  0  0  0  0
  8 12  2  0  0  0  0
  9  6  1  0  0  0  0
 10 20  2  0  0  0  0
 10 14  1  0  0  0  0
 11  5  2  0  0  0  0
 12  4  1  0  0  0  0
 13 19  1  0  0  0  0
 13 15  2  0  0  0  0
 14 18  2  0  0  0  0
 15 10  1  0  0  0  0
 17  6  2  0  0  0  0
 18  5  1  0  0  0  0
 18  8  1  0  0  0  0
 19  1  2  0  0  0  0
 20 11  1  0  0  0  0
 22 21  1  0  0  0  0
 23 28  2  0  0  0  0
 23 26  1  0  0  0  0
 24 22  2  0  0  0  0
 25 22  1  0  0  0  0
 26 25  2  0  0  0  0
 27 23  1  0  0  0  0
 28 24  1  0  0  0  0
M  END
>  <MODEL>
3

>  <REMARK>
 VINA RESULT:      -9.3      2.774      3.784
  Name = 
  2 active torsions:
  status: ('A' for Active; 'I' for Inactive)
    1  A    between atoms: C_1  and  C_2
    2  A    between atoms: C_2  and  C_3
                            x       y       z     vdW  Elec       q    Type
                         _______ _______ _______ _____ _____    ______ ____

>  <TORSDO>
F 2

$$$$
=
 OpenBabel10272401543D

 28 32  0  0  0  0  0  0  0  0999 V2000
  187.0850  177.6140  143.6440 C   0  0  0  0  0  0  0  0  0  0  0  0
  190.3060  176.6550  139.8650 C   0  0  0  0  0  3  0  0  0  0  0  0
  184.8570  179.5140  139.7400 N   0  0  0  0  0  1  0  0  0  0  0  0
  189.1780  177.6050  137.9490 C   0  0  0  0  0  0  0  0  0  0  0  0
  188.1220  177.7330  140.1330 C   0  0  0  0  0  0  0  0  0  0  0  0
  191.3240  176.5380  137.7200 C   0  0  0  0  0  0  0  0  0  0  0  0
  189.2000  177.3280  139.3320 C   0  0  0  0  0  0  0  0  0  0  0  0
  187.0510  178.6630  138.1930 N   0  0  0  0  0  0  0  0  0  0  0  0
  190.2440  177.2080  137.1410 C   0  0  0  0  0  3  0  0  0  0  0  0
  185.9750  178.5590  141.7020 C   0  0  0  0  0  0  0  0  0  0  0  0
  188.1090  177.4840  141.4710 N   0  0  0  0  0  0  0  0  0  0  0  0
  188.0870  178.2770  137.3990 C   0  0  0  0  0  3  0  0  0  0  0  0
  184.9410  178.7090  143.8370 C   0  0  0  0  0  3  0  0  0  0  0  0
  185.9610  178.8250  140.3260 C   0  0  0  0  0  0  0  0  0  0  0  0
  184.9440  178.9530  142.4990 N   0  0  0  0  0  0  0  0  0  0  0  0
  192.6710  176.0330  136.7240 Cl  0  0  0  0  0  0  0  0  0  0  0  0
  191.3330  176.2780  139.0570 N   0  0  0  0  0  0  0  0  0  0  0  0
  187.0390  178.4130  139.5320 C   0  0  0  0  0  0  0  0  0  0  0  0
  186.0120  178.0380  144.4310 C   0  0  0  0  0  3  0  0  0  0  0  0
  187.0750  177.8760  142.2650 C   0  0  0  0  0  0  0  0  0  0  0  0
  188.2350  176.9140  144.2990 C   0  0  0  0  0  2  0  0  0  0  0  0
  188.3630  177.3250  145.7280 C   0  0  0  0  0  0  0  0  0  0  0  0
  188.5960  178.0570  148.4190 C   0  0  0  0  0  0  0  0  0  0  0  0
  189.6200  177.3410  146.3450 C   0  0  0  0  0  3  0  0  0  0  0  0
  187.2230  177.6710  146.4620 C   0  0  0  0  0  3  0  0  0  0  0  0
  187.3390  178.0380  147.8060 C   0  0  0  0  0  3  0  0  0  0  0  0
  188.7080  178.4130  149.7210 F   0  0  0  0  0  0  0  0  0  0  0  0
  189.7360  177.7080  147.6890 C   0  0  0  0  0  3  0  0  0  0  0  0
  1 21  1  0  0  0  0
  1 19  1  0  0  0  0
  3 14  1  0  0  0  0
  4  7  2  0  0  0  0
  5 11  2  0  0  0  0
  6 17  1  0  0  0  0
  7  2  1  0  0  0  0
  7  5  1  0  0  0  0
  8 18  1  0  0  0  0
  9  6  2  0  0  0  0
  9  4  1  0  0  0  0
 10 20  1  0  0  0  0
 10 15  2  0  0  0  0
 11 20  1  0  0  0  0
 12  4  1  0  0  0  0
 12  8  2  0  0  0  0
 13 19  2  0  0  0  0
 14 10  1  0  0  0  0
 15 13  1  0  0  0  0
 16  6  1  0  0  0  0
 17  2  2  0  0  0  0
 18  5  1  0  0  0  0
 18 14  2  0  0  0  0
 20  1  2  0  0  0  0
 21 22  1  0  0  0  0
 22 24  2  0  0  0  0
 22 25  1  0  0  0  0
 23 27  1  0  0  0  0
 24 28  1  0  0  0  0
 25 26  2  0  0  0  0
 26 23  1  0  0  0  0
 28 23  2  0  0  0  0
M  END
>  <MODEL>
4

>  <REMARK>
 VINA RESULT:      -9.1      3.987      7.661
  Name = 
  2 active torsions:
  status: ('A' for Active; 'I' for Inactive)
    1  A    between atoms: C_1  and  C_2
    2  A    between atoms: C_2  and  C_3
                            x       y       z     vdW  Elec       q    Type
                         _______ _______ _______ _____ _____    ______ ____

>  <TORSDO>
F 2

$$$$
=
 OpenBabel10272401543D

 28 32  0  0  0  0  0  0  0  0999 V2000
  190.2130  177.4690  139.0910 C   0  0  0  0  0  0  0  0  0  0  0  0
  191.3510  176.6660  143.9530 C   0  0  0  0  0  3  0  0  0  0  0  0
  186.1270  178.7330  141.4390 N   0  0  0  0  0  1  0  0  0  0  0  0
  189.3130  177.2990  145.0880 C   0  0  0  0  0  0  0  0  0  0  0  0
  189.4240  177.4640  142.6670 C   0  0  0  0  0  0  0  0  0  0  0  0
  191.2240  176.5110  146.3210 C   0  0  0  0  0  0  0  0  0  0  0  0
  190.0350  177.1430  143.8880 C   0  0  0  0  0  0  0  0  0  0  0  0
  187.4230  178.0760  143.8510 N   0  0  0  0  0  0  0  0  0  0  0  0
  189.9100  176.9810  146.3090 C   0  0  0  0  0  3  0  0  0  0  0  0
  188.1800  178.0990  140.2580 C   0  0  0  0  0  0  0  0  0  0  0  0
  190.0900  177.3260  141.4890 N   0  0  0  0  0  0  0  0  0  0  0  0
  188.0000  177.7700  145.0450 C   0  0  0  0  0  3  0  0  0  0  0  0
  188.2690  178.2460  137.8880 C   0  0  0  0  0  3  0  0  0  0  0  0
  187.4710  178.2550  141.4570 C   0  0  0  0  0  0  0  0  0  0  0  0
  187.6000  178.3960  139.0620 N   0  0  0  0  0  0  0  0  0  0  0  0
  191.9910  176.1070  147.8410 Cl  0  0  0  0  0  0  0  0  0  0  0  0
  191.9110  176.3630  145.1540 N   0  0  0  0  0  0  0  0  0  0  0  0
  188.0910  177.9360  142.6720 C   0  0  0  0  0  0  0  0  0  0  0  0
  189.5850  177.7780  137.8820 C   0  0  0  0  0  3  0  0  0  0  0  0
  189.5090  177.6260  140.2950 C   0  0  0  0  0  0  0  0  0  0  0  0
  191.6180  176.9510  139.0670 C   0  0  0  0  0  2  0  0  0  0  0  0
  191.8090  175.9830  137.9470 C   0  0  0  0  0  0  0  0  0  0  0  0
  192.1960  174.1500  135.8670 C   0  0  0  0  0  0  0  0  0  0  0  0
  191.0010  174.8430  137.8570 C   0  0  0  0  0  3  0  0  0  0  0  0
  192.8130  176.2020  136.9960 C   0  0  0  0  0  3  0  0  0  0  0  0
  193.0060  175.2870  135.9570 C   0  0  0  0  0  3  0  0  0  0  0  0
  192.3830  173.2650  134.8600 F   0  0  0  0  0  0  0  0  0  0  0  0
  191.1940  173.9280  136.8170 C   0  0  0  0  0  3  0  0  0  0  0  0
  1 20  1  0  0  0  0
  2 17  1  0  0  0  0
  3 14  1  0  0  0  0
  4  9  2  0  0  0  0
  5 18  1  0  0  0  0
  5  7  1  0  0  0  0
  6 16  1  0  0  0  0
  7  2  2  0  0  0  0
  7  4  1  0  0  0  0
  8 12  2  0  0  0  0
  9  6  1  0  0  0  0
 10 20  2  0  0  0  0
 10 14  1  0  0  0  0
 11  5  2  0  0  0  0
 12  4  1  0  0  0  0
 13 15  2  0  0  0  0
 14 18  2  0  0  0  0
 15 10  1  0  0  0  0
 17  6  2  0  0  0  0
 18  8  1  0  0  0  0
 19 13  1  0  0  0  0
 19  1  2  0  0  0  0
 20 11  1  0  0  0  0
 21  1  1  0  0  0  0
 22 21  1  0  0  0  0
 23 26  2  0  0  0  0
 23 28  1  0  0  0  0
 24 22  1  0  0  0  0
 25 22  2  0  0  0  0
 26 25  1  0  0  0  0
 27 23  1  0  0  0  0
 28 24  2  0  0  0  0
M  END
>  <MODEL>
5

>  <REMARK>
 VINA RESULT:      -9.1      2.631      3.328
  Name = 
  2 active torsions:
  status: ('A' for Active; 'I' for Inactive)
    1  A    between atoms: C_1  and  C_2
    2  A    between atoms: C_2  and  C_3
                            x       y       z     vdW  Elec       q    Type
                         _______ _______ _______ _____ _____    ______ ____

>  <TORSDO>
F 2

$$$$
=
 OpenBabel10272401543D

 28 32  0  0  0  0  0  0  0  0999 V2000
  184.1910  178.8250  142.6780 C   0  0  0  0  0  0  0  0  0  0  0  0
  188.6470  177.7400  140.5470 C   0  0  0  0  0  3  0  0  0  0  0  0
  187.0130  177.6450  146.4800 N   0  0  0  0  0  1  0  0  0  0  0  0
  190.0210  177.1610  142.4490 C   0  0  0  0  0  0  0  0  0  0  0  0
  187.7060  177.8030  142.8080 C   0  0  0  0  0  0  0  0  0  0  0  0
  190.9140  177.1110  140.2150 C   0  0  0  0  0  0  0  0  0  0  0  0
  188.7760  177.5740  141.9310 C   0  0  0  0  0  0  0  0  0  0  0  0
  189.1190  177.2130  144.6600 N   0  0  0  0  0  0  0  0  0  0  0  0
  191.0930  176.9290  141.5880 C   0  0  0  0  0  3  0  0  0  0  0  0
  185.5940  178.2390  144.5710 C   0  0  0  0  0  0  0  0  0  0  0  0
  186.4900  178.2010  142.3440 N   0  0  0  0  0  0  0  0  0  0  0  0
  190.1690  176.9870  143.8260 C   0  0  0  0  0  3  0  0  0  0  0  0
  183.3250  178.8460  144.9320 C   0  0  0  0  0  3  0  0  0  0  0  0
  186.8370  177.8340  145.0770 C   0  0  0  0  0  0  0  0  0  0  0  0
  184.5400  178.4570  145.4040 N   0  0  0  0  0  0  0  0  0  0  0  0
  192.2470  176.8240  139.1170 Cl  0  0  0  0  0  0  0  0  0  0  0  0
  189.7070  177.5080  139.7270 N   0  0  0  0  0  0  0  0  0  0  0  0
  187.9030  177.6110  144.1940 C   0  0  0  0  0  0  0  0  0  0  0  0
  183.1300  179.0330  143.5620 C   0  0  0  0  0  3  0  0  0  0  0  0
  185.4380  178.4200  143.1790 C   0  0  0  0  0  0  0  0  0  0  0  0
  183.9610  179.0120  141.2100 C   0  0  0  0  0  2  0  0  0  0  0  0
  182.9100  178.0750  140.7140 C   0  0  0  0  0  0  0  0  0  0  0  0
  180.9370  176.3410  139.7480 C   0  0  0  0  0  0  0  0  0  0  0  0
  183.2740  176.8800  140.0840 C   0  0  0  0  0  3  0  0  0  0  0  0
  181.5560  178.4030  140.8550 C   0  0  0  0  0  3  0  0  0  0  0  0
  180.5710  177.5370  140.3730 C   0  0  0  0  0  3  0  0  0  0  0  0
  179.9820  175.5010  139.2820 F   0  0  0  0  0  0  0  0  0  0  0  0
  182.2880  176.0130  139.6020 C   0  0  0  0  0  3  0  0  0  0  0  0
  1 20  2  0  0  0  0
  1 19  1  0  0  0  0
  2  7  1  0  0  0  0
  4 12  1  0  0  0  0
  5 18  1  0  0  0  0
  6  9  2  0  0  0  0
  7  4  2  0  0  0  0
  7  5  1  0  0  0  0
  9  4  1  0  0  0  0
 10 14  1  0  0  0  0
 10 15  2  0  0  0  0
 11  5  2  0  0  0  0
 11 20  1  0  0  0  0
 12  8  2  0  0  0  0
 13 15  1  0  0  0  0
 14  3  1  0  0  0  0
 16  6  1  0  0  0  0
 17  6  1  0  0  0  0
 17  2  2  0  0  0  0
 18  8  1  0  0  0  0
 18 14  2  0  0  0  0
 19 13  2  0  0  0  0
 20 10  1  0  0  0  0
 21  1  1  0  0  0  0
 22 25  1  0  0  0  0
 22 21  1  0  0  0  0
 23 26  1  0  0  0  0
 24 22  2  0  0  0  0
 26 25  2  0  0  0  0
 27 23  1  0  0  0  0
 28 23  2  0  0  0  0
 28 24  1  0  0  0  0
M  END
>  <MODEL>
6

>  <REMARK>
 VINA RESULT:      -9.0      3.474      5.468
  Name = 
  2 active torsions:
  status: ('A' for Active; 'I' for Inactive)
    1  A    between atoms: C_1  and  C_2
    2  A    between atoms: C_2  and  C_3
                            x       y       z     vdW  Elec       q    Type
                         _______ _______ _______ _____ _____    ______ ____

>  <TORSDO>
F 2

$$$$
=
 OpenBabel10272401543D

 28 32  0  0  0  0  0  0  0  0999 V2000
  183.4480  178.5210  141.1150 C   0  0  0  0  0  0  0  0  0  0  0  0
  188.1960  177.2370  142.2920 C   0  0  0  0  0  3  0  0  0  0  0  0
  183.5760  178.9640  145.9730 N   0  0  0  0  0  1  0  0  0  0  0  0
  188.2290  177.4660  144.6980 C   0  0  0  0  0  0  0  0  0  0  0  0
  186.1820  177.9560  143.4860 C   0  0  0  0  0  0  0  0  0  0  0  0
  190.1910  176.7620  143.4930 C   0  0  0  0  0  0  0  0  0  0  0  0
  187.5260  177.5560  143.4790 C   0  0  0  0  0  0  0  0  0  0  0  0
  186.2730  178.1620  145.8790 N   0  0  0  0  0  0  0  0  0  0  0  0
  189.5660  177.0670  144.7040 C   0  0  0  0  0  3  0  0  0  0  0  0
  183.5110  178.7430  143.5320 C   0  0  0  0  0  0  0  0  0  0  0  0
  185.4710  178.0530  142.3300 N   0  0  0  0  0  0  0  0  0  0  0  0
  187.5780  177.7760  145.8920 C   0  0  0  0  0  3  0  0  0  0  0  0
  181.4960  179.2060  142.3600 C   0  0  0  0  0  3  0  0  0  0  0  0
  184.2200  178.6550  144.7370 C   0  0  0  0  0  0  0  0  0  0  0  0
  182.2020  179.1200  143.5190 N   0  0  0  0  0  0  0  0  0  0  0  0
  191.8670  176.2600  143.4800 Cl  0  0  0  0  0  0  0  0  0  0  0  0
  189.5000  176.8510  142.3240 N   0  0  0  0  0  0  0  0  0  0  0  0
  185.5640  178.2580  144.7210 C   0  0  0  0  0  0  0  0  0  0  0  0
  182.1060  178.9060  141.1400 C   0  0  0  0  0  3  0  0  0  0  0  0
  184.1640  178.4330  142.3190 C   0  0  0  0  0  0  0  0  0  0  0  0
  184.0830  178.1840  139.8010 C   0  0  0  0  0  2  0  0  0  0  0  0
  183.1800  177.3250  138.9790 C   0  0  0  0  0  0  0  0  0  0  0  0
  181.4540  175.7330  137.4560 C   0  0  0  0  0  0  0  0  0  0  0  0
  182.8480  177.7020  137.6730 C   0  0  0  0  0  3  0  0  0  0  0  0
  182.6420  176.1530  139.5240 C   0  0  0  0  0  3  0  0  0  0  0  0
  181.7810  175.3580  138.7630 C   0  0  0  0  0  3  0  0  0  0  0  0
  180.6200  174.9620  136.7190 F   0  0  0  0  0  0  0  0  0  0  0  0
  181.9860  176.9050  136.9110 C   0  0  0  0  0  3  0  0  0  0  0  0
  1 19  2  0  0  0  0
  1 20  1  0  0  0  0
  2 17  2  0  0  0  0
  2  7  1  0  0  0  0
  4  9  1  0  0  0  0
  4 12  1  0  0  0  0
  5 18  1  0  0  0  0
  6  9  2  0  0  0  0
  7  5  1  0  0  0  0
  7  4  2  0  0  0  0
  8 12  2  0  0  0  0
 10 14  1  0  0  0  0
 11  5  2  0  0  0  0
 13 15  2  0  0  0  0
 14  3  1  0  0  0  0
 15 10  1  0  0  0  0
 16  6  1  0  0  0  0
 17  6  1  0  0  0  0
 18 14  2  0  0  0  0
 18  8  1  0  0  0  0
 19 13  1  0  0  0  0
 20 11  1  0  0  0  0
 20 10  2  0  0  0  0
 21  1  1  0  0  0  0
 22 25  1  0  0  0  0
 22 21  1  0  0  0  0
 23 26  1  0  0  0  0
 24 22  2  0  0  0  0
 26 25  2  0  0  0  0
 27 23  1  0  0  0  0
 28 23  2  0  0  0  0
 28 24  1  0  0  0  0
M  END
>  <MODEL>
7

>  <REMARK>
 VINA RESULT:      -8.8      3.314      4.472
  Name = 
  2 active torsions:
  status: ('A' for Active; 'I' for Inactive)
    1  A    between atoms: C_1  and  C_2
    2  A    between atoms: C_2  and  C_3
                            x       y       z     vdW  Elec       q    Type
                         _______ _______ _______ _____ _____    ______ ____

>  <TORSDO>
F 2

$$$$
=
 OpenBabel10272401543D

 28 32  0  0  0  0  0  0  0  0999 V2000
  189.6980  177.9230  139.7020 C   0  0  0  0  0  0  0  0  0  0  0  0
  185.1640  178.6320  141.8280 C   0  0  0  0  0  3  0  0  0  0  0  0
  190.4840  176.9320  144.4150 N   0  0  0  0  0  1  0  0  0  0  0  0
  185.5830  178.1340  144.1560 C   0  0  0  0  0  0  0  0  0  0  0  0
  187.4070  177.9700  142.5590 C   0  0  0  0  0  0  0  0  0  0  0  0
  183.3920  178.7870  143.4040 C   0  0  0  0  0  0  0  0  0  0  0  0
  186.0590  178.2450  142.8330 C   0  0  0  0  0  0  0  0  0  0  0  0
  187.7650  177.4920  144.8870 N   0  0  0  0  0  0  0  0  0  0  0  0
  184.2460  178.4070  144.4420 C   0  0  0  0  0  3  0  0  0  0  0  0
  190.0900  177.4290  142.0460 C   0  0  0  0  0  0  0  0  0  0  0  0
  187.9010  178.0670  141.2950 N   0  0  0  0  0  0  0  0  0  0  0  0
  186.4600  177.7540  145.1720 C   0  0  0  0  0  3  0  0  0  0  0  0
  191.8860  177.2840  140.4970 C   0  0  0  0  0  3  0  0  0  0  0  0
  189.6070  177.3170  143.3570 C   0  0  0  0  0  0  0  0  0  0  0  0
  191.3970  177.1760  141.7620 N   0  0  0  0  0  0  0  0  0  0  0  0
  181.7100  179.1330  143.7420 Cl  0  0  0  0  0  0  0  0  0  0  0  0
  183.8640  178.8910  142.1310 N   0  0  0  0  0  0  0  0  0  0  0  0
  188.2580  177.5900  143.6220 C   0  0  0  0  0  0  0  0  0  0  0  0
  191.0460  177.6620  139.4480 C   0  0  0  0  0  3  0  0  0  0  0  0
  189.2080  177.8110  141.0130 C   0  0  0  0  0  0  0  0  0  0  0  0
  188.8140  178.3460  138.5700 C   0  0  0  0  0  2  0  0  0  0  0  0
  188.8030  177.3140  137.4900 C   0  0  0  0  0  0  0  0  0  0  0  0
  188.7450  175.3930  135.4560 C   0  0  0  0  0  0  0  0  0  0  0  0
  189.3440  177.6070  136.2330 C   0  0  0  0  0  3  0  0  0  0  0  0
  188.2290  176.0600  137.7260 C   0  0  0  0  0  3  0  0  0  0  0  0
  188.2010  175.1000  136.7110 C   0  0  0  0  0  3  0  0  0  0  0  0
  188.7180  174.4620  134.4730 F   0  0  0  0  0  0  0  0  0  0  0  0
  189.3150  176.6470  135.2170 C   0  0  0  0  0  3  0  0  0  0  0  0
  1 20  1  0  0  0  0
  2 17  2  0  0  0  0
  2  7  1  0  0  0  0
  4  9  1  0  0  0  0
  4 12  1  0  0  0  0
  5  7  1  0  0  0  0
  5 18  1  0  0  0  0
  6 16  1  0  0  0  0
  6  9  2  0  0  0  0
  7  4  2  0  0  0  0
  8 12  2  0  0  0  0
 10 14  1  0  0  0  0
 11  5  2  0  0  0  0
 13 15  2  0  0  0  0
 14 18  2  0  0  0  0
 14  3  1  0  0  0  0
 15 10  1  0  0  0  0
 17  6  1  0  0  0  0
 18  8  1  0  0  0  0
 19  1  2  0  0  0  0
 19 13  1  0  0  0  0
 20 11  1  0  0  0  0
 20 10  2  0  0  0  0
 21  1  1  0  0  0  0
 22 25  1  0  0  0  0
 22 21  1  0  0  0  0
 23 26  1  0  0  0  0
 24 22  2  0  0  0  0
 26 25  2  0  0  0  0
 27 23  1  0  0  0  0
 28 23  2  0  0  0  0
 28 24  1  0  0  0  0
M  END
>  <MODEL>
8

>  <REMARK>
 VINA RESULT:      -8.8      3.001      5.013
  Name = 
  2 active torsions:
  status: ('A' for Active; 'I' for Inactive)
    1  A    between atoms: C_1  and  C_2
    2  A    between atoms: C_2  and  C_3
                            x       y       z     vdW  Elec       q    Type
                         _______ _______ _______ _____ _____    ______ ____

>  <TORSDO>
F 2

$$$$
=
 OpenBabel10272401543D

 28 32  0  0  0  0  0  0  0  0999 V2000
  189.1850  178.1360  146.1260 C   0  0  0  0  0  0  0  0  0  0  0  0
  187.2040  178.4540  141.4830 C   0  0  0  0  0  3  0  0  0  0  0  0
  184.3760  178.2440  146.9460 N   0  0  0  0  0  1  0  0  0  0  0  0
  184.8270  178.5050  141.9210 C   0  0  0  0  0  0  0  0  0  0  0  0
  186.3750  178.3480  143.7860 C   0  0  0  0  0  0  0  0  0  0  0  0
  185.6750  178.6080  139.6710 C   0  0  0  0  0  0  0  0  0  0  0  0
  186.1490  178.4340  142.4050 C   0  0  0  0  0  0  0  0  0  0  0  0
  184.0010  178.4070  144.1600 N   0  0  0  0  0  0  0  0  0  0  0  0
  184.5900  178.5930  140.5490 C   0  0  0  0  0  3  0  0  0  0  0  0
  186.7930  178.1880  146.5350 C   0  0  0  0  0  0  0  0  0  0  0  0
  187.6370  178.2780  144.2900 N   0  0  0  0  0  0  0  0  0  0  0  0
  183.7630  178.4900  142.8230 C   0  0  0  0  0  3  0  0  0  0  0  0
  188.2970  178.0540  148.3700 C   0  0  0  0  0  3  0  0  0  0  0  0
  185.4820  178.2550  146.0440 C   0  0  0  0  0  0  0  0  0  0  0  0
  187.0330  178.1150  147.8730 N   0  0  0  0  0  0  0  0  0  0  0  0
  185.3990  178.7170  137.9460 Cl  0  0  0  0  0  0  0  0  0  0  0  0
  186.9470  178.5390  140.1510 N   0  0  0  0  0  0  0  0  0  0  0  0
  185.2650  178.3370  144.6620 C   0  0  0  0  0  0  0  0  0  0  0  0
  189.3940  178.0670  147.5050 C   0  0  0  0  0  3  0  0  0  0  0  0
  187.8740  178.2010  145.6280 C   0  0  0  0  0  0  0  0  0  0  0  0
  190.3710  178.1670  145.2120 C   0  0  0  0  0  2  0  0  0  0  0  0
  191.0460  176.8360  145.1710 C   0  0  0  0  0  0  0  0  0  0  0  0
  192.3450  174.3590  145.0790 C   0  0  0  0  0  0  0  0  0  0  0  0
  191.6680  176.3280  146.3170 C   0  0  0  0  0  3  0  0  0  0  0  0
  191.0790  176.1050  143.9780 C   0  0  0  0  0  3  0  0  0  0  0  0
  191.7270  174.8670  143.9320 C   0  0  0  0  0  3  0  0  0  0  0  0
  192.9710  173.1590  145.0340 F   0  0  0  0  0  0  0  0  0  0  0  0
  192.3160  175.0890  146.2710 C   0  0  0  0  0  3  0  0  0  0  0  0
  1 19  1  0  0  0  0
  2  7  1  0  0  0  0
  4  7  2  0  0  0  0
  4 12  1  0  0  0  0
  5 11  2  0  0  0  0
  5 18  1  0  0  0  0
  6 17  1  0  0  0  0
  6  9  2  0  0  0  0
  7  5  1  0  0  0  0
  8 18  1  0  0  0  0
  9  4  1  0  0  0  0
 10 15  2  0  0  0  0
 11 20  1  0  0  0  0
 12  8  2  0  0  0  0
 14 10  1  0  0  0  0
 14  3  1  0  0  0  0
 15 13  1  0  0  0  0
 16  6  1  0  0  0  0
 17  2  2  0  0  0  0
 18 14  2  0  0  0  0
 19 13  2  0  0  0  0
 20  1  2  0  0  0  0
 20 10  1  0  0  0  0
 21  1  1  0  0  0  0
 22 21  1  0  0  0  0
 22 24  1  0  0  0  0
 23 28  1  0  0  0  0
 25 22  2  0  0  0  0
 26 25  1  0  0  0  0
 26 23  2  0  0  0  0
 27 23  1  0  0  0  0
 28 24  2  0  0  0  0
M  END
>  <MODEL>
9

>  <REMARK>
 VINA RESULT:      -8.7      4.039      7.090
  Name = 
  2 active torsions:
  status: ('A' for Active; 'I' for Inactive)
    1  A    between atoms: C_1  and  C_2
    2  A    between atoms: C_2  and  C_3
                            x       y       z     vdW  Elec       q    Type
                         _______ _______ _______ _____ _____    ______ ____

>  <TORSDO>
F 2

$$$$
