=
 OpenBabel10272402033D

 28 30  0  0  1  0  0  0  0  0999 V2000
  187.7680  179.0770  137.2940 C   0  0  0  0  0  1  0  0  0  0  0  0
  190.5050  176.7980  138.6100 N   0  0  0  0  0  0  0  0  0  0  0  0
  189.7980  177.0930  136.2410 C   0  0  0  0  0  1  0  0  0  0  0  0
  188.3190  178.3590  139.6070 C   0  0  2  0  0  3  0  0  0  0  0  0
  190.4500  177.1530  140.0230 C   0  0  0  0  0  2  0  0  0  0  0  0
  186.9990  178.5700  140.0200 O   0  0  0  0  0  1  0  0  0  0  0  0
  188.3480  177.9450  138.1270 C   0  0  1  0  0  0  0  0  0  0  0  0
  187.5620  176.8020  137.9480 O   0  0  0  0  0  1  0  0  0  0  0  0
  189.7940  177.6710  137.6590 C   0  0  1  0  0  3  0  0  0  0  0  0
  189.0050  177.3090  140.4950 C   0  0  1  0  0  3  0  0  0  0  0  0
  188.9160  177.6900  141.9880 C   0  0  2  0  0  3  0  0  0  0  0  0
  190.2990  177.7780  142.6990 C   0  0  2  0  0  3  0  0  0  0  0  0
  189.5100  176.8790  145.0130 C   0  0  0  0  0  2  0  0  0  0  0  0
  188.5600  177.8860  144.7850 O   0  0  0  0  0  0  0  0  0  0  0  0
  187.4930  177.2950  144.0840 C   0  0  0  0  0  2  0  0  0  0  0  0
  190.7390  175.3930  143.4030 C   0  0  0  0  0  1  0  0  0  0  0  0
  187.9000  176.7800  142.6940 C   0  0  0  0  0  2  0  0  0  0  0  0
  190.5520  176.8200  143.8820 C   0  0  1  0  0  3  0  0  0  0  0  0
  190.5430  179.0960  143.0970 O   0  0  0  0  0  0  0  0  0  0  0  0
  191.7170  179.0400  143.8460 C   0  0  0  0  0  1  0  0  0  0  0  0
  192.8960  176.5500  138.2730 N   0  0  0  0  0  0  0  0  0  0  0  0
  191.4790  174.6890  137.7790 C   0  0  0  0  0  0  0  0  0  0  0  0
  193.8740  174.5070  137.5230 C   0  0  0  0  0  0  0  0  0  0  0  0
  191.6420  176.0160  138.2070 C   0  0  0  0  0  0  0  0  0  0  0  0
  192.6040  173.9360  137.4380 C   0  0  0  0  0  3  0  0  0  0  0  0
  190.2150  174.1210  137.6800 O   0  0  0  0  0  1  0  0  0  0  0  0
  194.9990  173.7630  137.1900 O   0  0  0  0  0  1  0  0  0  0  0  0
  194.0020  175.8310  137.9400 C   0  0  0  0  0  3  0  0  0  0  0  0
  2  5  1  0  0  0  0
  4  6  1  1  0  0  0
  4 10  1  0  0  0  0
  7  1  1  6  0  0  0
  7  4  1  0  0  0  0
  8  7  1  0  0  0  0
  9  3  1  6  0  0  0
  9  7  1  0  0  0  0
  9  2  1  0  0  0  0
 10  5  1  6  0  0  0
 10 11  1  0  0  0  0
 11 17  1  1  0  0  0
 11 12  1  0  0  0  0
 12 19  1  1  0  0  0
 12 18  1  0  0  0  0
 14 13  1  0  0  0  0
 15 14  1  0  0  0  0
 17 15  1  0  0  0  0
 18 16  1  6  0  0  0
 18 13  1  0  0  0  0
 19 20  1  0  0  0  0
 22 24  2  0  0  0  0
 23 28  1  0  0  0  0
 24 21  1  0  0  0  0
 24  2  1  0  0  0  0
 25 23  2  0  0  0  0
 25 22  1  0  0  0  0
 26 22  1  0  0  0  0
 27 23  1  0  0  0  0
 28 21  2  0  0  0  0
M  END
>  <MODEL>
1

>  <REMARK>
 VINA RESULT:      -7.3      0.000      0.000
  Name = 
  3 active torsions:
  status: ('A' for Active; 'I' for Inactive)
    1  A    between atoms: C_1  and  C_27
    2  A    between atoms: O_2  and  C_3
    3  A    between atoms: N_10  and  C_13
                            x       y       z     vdW  Elec       q    Type
                         _______ _______ _______ _____ _____    ______ ____

>  <TORSDO>
F 3

$$$$
=
 OpenBabel10272402033D

 28 30  0  0  1  0  0  0  0  0999 V2000
  185.6850  179.5080  146.9830 C   0  0  0  0  0  1  0  0  0  0  0  0
  185.5300  178.2980  143.3880 N   0  0  0  0  0  0  0  0  0  0  0  0
  183.7340  179.4510  144.6690 C   0  0  0  0  0  1  0  0  0  0  0  0
  187.1920  178.0050  145.7040 C   0  0  2  0  0  3  0  0  0  0  0  0
  186.8940  177.8010  143.2470 C   0  0  0  0  0  2  0  0  0  0  0  0
  187.6250  177.3850  146.8810 O   0  0  0  0  0  1  0  0  0  0  0  0
  185.7390  178.4820  145.8630 C   0  0  1  0  0  0  0  0  0  0  0  0
  184.9280  177.3960  146.2020 O   0  0  0  0  0  1  0  0  0  0  0  0
  185.2290  179.1370  144.5610 C   0  0  1  0  0  3  0  0  0  0  0  0
  187.3400  177.0570  144.5030 C   0  0  1  0  0  3  0  0  0  0  0  0
  188.7840  176.5220  144.3850 C   0  0  2  0  0  3  0  0  0  0  0  0
  189.8020  177.2470  145.3140 C   0  0  2  0  0  3  0  0  0  0  0  0
  191.8330  177.1370  143.6870 C   0  0  0  0  0  2  0  0  0  0  0  0
  191.4250  175.7950  143.6890 O   0  0  0  0  0  0  0  0  0  0  0  0
  190.4730  175.6520  142.6630 C   0  0  0  0  0  2  0  0  0  0  0  0
  190.5040  179.2520  143.9490 C   0  0  0  0  0  1  0  0  0  0  0  0
  189.1990  176.4770  142.9080 C   0  0  0  0  0  2  0  0  0  0  0  0
  190.9760  177.9880  144.6410 C   0  0  1  0  0  3  0  0  0  0  0  0
  190.2930  176.3510  146.2680 O   0  0  0  0  0  0  0  0  0  0  0  0
  191.0010  177.1360  147.1770 C   0  0  0  0  0  1  0  0  0  0  0  0
  183.5310  177.8680  142.0810 N   0  0  0  0  0  0  0  0  0  0  0  0
  185.3040  179.1140  141.0700 C   0  0  0  0  0  0  0  0  0  0  0  0
  183.2590  178.6890  139.8560 C   0  0  0  0  0  0  0  0  0  0  0  0
  184.7790  178.4120  142.1680 C   0  0  0  0  0  0  0  0  0  0  0  0
  184.5350  179.2500  139.9130 C   0  0  0  0  0  3  0  0  0  0  0  0
  186.5790  179.6630  141.1180 O   0  0  0  0  0  1  0  0  0  0  0  0
  182.4860  178.8230  138.7110 O   0  0  0  0  0  1  0  0  0  0  0  0
  182.7700  177.9880  140.9590 C   0  0  0  0  0  3  0  0  0  0  0  0
  2  9  1  0  0  0  0
  4  7  1  0  0  0  0
  4  6  1  1  0  0  0
  5  2  1  0  0  0  0
  7  8  1  0  0  0  0
  7  1  1  1  0  0  0
  9  3  1  1  0  0  0
  9  7  1  0  0  0  0
 10  5  1  6  0  0  0
 10  4  1  0  0  0  0
 11 17  1  6  0  0  0
 11 10  1  0  0  0  0
 11 12  1  0  0  0  0
 12 19  1  1  0  0  0
 13 14  1  0  0  0  0
 13 18  1  0  0  0  0
 15 17  1  0  0  0  0
 15 14  1  0  0  0  0
 18 16  1  6  0  0  0
 18 12  1  0  0  0  0
 19 20  1  0  0  0  0
 21 24  1  0  0  0  0
 22 26  1  0  0  0  0
 22 24  2  0  0  0  0
 23 25  2  0  0  0  0
 23 28  1  0  0  0  0
 24  2  1  0  0  0  0
 25 22  1  0  0  0  0
 27 23  1  0  0  0  0
 28 21  2  0  0  0  0
M  END
>  <MODEL>
2

>  <REMARK>
 VINA RESULT:      -6.9      4.540      7.469
  Name = 
  3 active torsions:
  status: ('A' for Active; 'I' for Inactive)
    1  A    between atoms: C_1  and  C_27
    2  A    between atoms: O_2  and  C_3
    3  A    between atoms: N_10  and  C_13
                            x       y       z     vdW  Elec       q    Type
                         _______ _______ _______ _____ _____    ______ ____

>  <TORSDO>
F 3

$$$$
=
 OpenBabel10272402033D

 28 30  0  0  1  0  0  0  0  0999 V2000
  191.6660  177.6830  141.8030 C   0  0  0  0  0  1  0  0  0  0  0  0
  187.8800  177.9600  141.8470 N   0  0  0  0  0  0  0  0  0  0  0  0
  189.4020  177.7920  143.8090 C   0  0  0  0  0  1  0  0  0  0  0  0
  189.9940  177.4470  139.9820 C   0  0  2  0  0  3  0  0  0  0  0  0
  187.6350  178.0940  140.4150 C   0  0  0  0  0  2  0  0  0  0  0  0
  190.8630  176.6340  139.2460 O   0  0  0  0  0  1  0  0  0  0  0  0
  190.2410  177.2560  141.4870 C   0  0  1  0  0  0  0  0  0  0  0  0
  190.0890  175.9060  141.8160 O   0  0  0  0  0  1  0  0  0  0  0  0
  189.2660  178.1180  142.3200 C   0  0  1  0  0  3  0  0  0  0  0  0
  188.5310  177.1510  139.6150 C   0  0  1  0  0  3  0  0  0  0  0  0
  188.2970  177.2740  138.0930 C   0  0  2  0  0  3  0  0  0  0  0  0
  187.1930  178.3020  137.7080 C   0  0  2  0  0  3  0  0  0  0  0  0
  186.2670  176.9990  135.6520 C   0  0  0  0  0  2  0  0  0  0  0  0
  187.6390  177.0130  135.3580 O   0  0  0  0  0  0  0  0  0  0  0  0
  188.1990  175.8680  135.9520 C   0  0  0  0  0  2  0  0  0  0  0  0
  185.0660  176.9490  137.8570 C   0  0  0  0  0  1  0  0  0  0  0  0
  188.0990  175.8780  137.4860 C   0  0  0  0  0  2  0  0  0  0  0  0
  185.9600  177.7690  136.9480 C   0  0  1  0  0  3  0  0  0  0  0  0
  187.7620  179.3650  137.0000 O   0  0  0  0  0  0  0  0  0  0  0  0
  189.1340  179.2580  137.2210 C   0  0  0  0  0  1  0  0  0  0  0  0
  186.7280  177.7530  143.9730 N   0  0  0  0  0  0  0  0  0  0  0  0
  185.7030  179.0510  142.2470 C   0  0  0  0  0  0  0  0  0  0  0  0
  184.6480  178.8400  144.4100 C   0  0  0  0  0  0  0  0  0  0  0  0
  186.7580  178.2420  142.7000 C   0  0  0  0  0  0  0  0  0  0  0  0
  184.6480  179.3490  143.1100 C   0  0  0  0  0  3  0  0  0  0  0  0
  185.6920  179.5490  140.9490 O   0  0  0  0  0  1  0  0  0  0  0  0
  183.6040  179.1340  145.2770 O   0  0  0  0  0  1  0  0  0  0  0  0
  185.7040  178.0290  144.8260 C   0  0  0  0  0  3  0  0  0  0  0  0
  2  9  1  0  0  0  0
  2 24  1  0  0  0  0
  4  6  1  6  0  0  0
  4  7  1  0  0  0  0
  5  2  1  0  0  0  0
  7  1  1  1  0  0  0
  7  8  1  0  0  0  0
  7  9  1  0  0  0  0
  9  3  1  1  0  0  0
 10  4  1  0  0  0  0
 10  5  1  1  0  0  0
 11 17  1  1  0  0  0
 11 10  1  0  0  0  0
 12 19  1  6  0  0  0
 12 11  1  0  0  0  0
 13 18  1  0  0  0  0
 14 13  1  0  0  0  0
 14 15  1  0  0  0  0
 15 17  1  0  0  0  0
 18 12  1  0  0  0  0
 18 16  1  1  0  0  0
 19 20  1  0  0  0  0
 21 28  1  0  0  0  0
 22 24  1  0  0  0  0
 22 25  2  0  0  0  0
 23 28  2  0  0  0  0
 23 27  1  0  0  0  0
 24 21  2  0  0  0  0
 25 23  1  0  0  0  0
 26 22  1  0  0  0  0
M  END
>  <MODEL>
3

>  <REMARK>
 VINA RESULT:      -6.5      3.103      7.674
  Name = 
  3 active torsions:
  status: ('A' for Active; 'I' for Inactive)
    1  A    between atoms: C_1  and  C_27
    2  A    between atoms: O_2  and  C_3
    3  A    between atoms: N_10  and  C_13
                            x       y       z     vdW  Elec       q    Type
                         _______ _______ _______ _____ _____    ______ ____

>  <TORSDO>
F 3

$$$$
=
 OpenBabel10272402033D

 28 30  0  0  1  0  0  0  0  0999 V2000
  184.1750  178.1700  141.8330 C   0  0  0  0  0  1  0  0  0  0  0  0
  187.9450  177.8830  142.1860 N   0  0  0  0  0  0  0  0  0  0  0  0
  186.2890  178.2990  143.9970 C   0  0  0  0  0  1  0  0  0  0  0  0
  185.9760  178.1710  140.1230 C   0  0  2  0  0  3  0  0  0  0  0  0
  188.2890  177.5720  140.8030 C   0  0  0  0  0  2  0  0  0  0  0  0
  185.1720  178.8910  139.2320 O   0  0  0  0  0  1  0  0  0  0  0  0
  185.6240  178.5480  141.5720 C   0  0  1  0  0  0  0  0  0  0  0  0
  185.7710  179.9270  141.7430 O   0  0  0  0  0  1  0  0  0  0  0  0
  186.5260  177.7910  142.5730 C   0  0  1  0  0  3  0  0  0  0  0  0
  187.4660  178.4130  139.8300 C   0  0  1  0  0  3  0  0  0  0  0  0
  187.8060  178.1020  138.3560 C   0  0  2  0  0  3  0  0  0  0  0  0
  187.9840  176.5840  138.0590 C   0  0  2  0  0  3  0  0  0  0  0  0
  189.8680  176.8410  136.2790 C   0  0  0  0  0  2  0  0  0  0  0  0
  188.9120  177.7400  135.7810 O   0  0  0  0  0  0  0  0  0  0  0  0
  189.1700  178.9880  136.3750 C   0  0  0  0  0  2  0  0  0  0  0  0
  190.4070  176.1640  138.6360 C   0  0  0  0  0  1  0  0  0  0  0  0
  188.9820  178.9770  137.9010 C   0  0  0  0  0  2  0  0  0  0  0  0
  189.3610  176.1190  137.5390 C   0  0  1  0  0  3  0  0  0  0  0  0
  186.9790  176.1500  137.1900 O   0  0  0  0  0  0  0  0  0  0  0  0
  187.0960  174.7620  137.1590 C   0  0  0  0  0  1  0  0  0  0  0  0
  189.7640  178.7670  143.5280 N   0  0  0  0  0  0  0  0  0  0  0  0
  189.2280  176.4450  143.7270 C   0  0  0  0  0  0  0  0  0  0  0  0
  190.9890  177.4150  145.0670 C   0  0  0  0  0  0  0  0  0  0  0  0
  188.9990  177.7040  143.1460 C   0  0  0  0  0  0  0  0  0  0  0  0
  190.2270  176.3080  144.6910 C   0  0  0  0  0  3  0  0  0  0  0  0
  188.4820  175.3370  143.3460 O   0  0  0  0  0  1  0  0  0  0  0  0
  191.9820  177.2880  146.0290 O   0  0  0  0  0  1  0  0  0  0  0  0
  190.7450  178.6490  144.4630 C   0  0  0  0  0  3  0  0  0  0  0  0
  2  9  1  0  0  0  0
  2 24  1  0  0  0  0
  4  6  1  6  0  0  0
  4  7  1  0  0  0  0
  5  2  1  0  0  0  0
  7  8  1  0  0  0  0
  7  1  1  1  0  0  0
  7  9  1  0  0  0  0
  9  3  1  1  0  0  0
 10  4  1  0  0  0  0
 10  5  1  1  0  0  0
 11 17  1  1  0  0  0
 11 10  1  0  0  0  0
 12 19  1  6  0  0  0
 12 11  1  0  0  0  0
 13 18  1  0  0  0  0
 14 13  1  0  0  0  0
 14 15  1  0  0  0  0
 15 17  1  0  0  0  0
 18 12  1  0  0  0  0
 18 16  1  1  0  0  0
 20 19  1  0  0  0  0
 21 28  1  0  0  0  0
 22 25  2  0  0  0  0
 23 27  1  0  0  0  0
 24 21  2  0  0  0  0
 24 22  1  0  0  0  0
 25 23  1  0  0  0  0
 26 22  1  0  0  0  0
 28 23  2  0  0  0  0
M  END
>  <MODEL>
4

>  <REMARK>
 VINA RESULT:      -6.4      2.863      6.508
  Name = 
  3 active torsions:
  status: ('A' for Active; 'I' for Inactive)
    1  A    between atoms: C_1  and  C_27
    2  A    between atoms: O_2  and  C_3
    3  A    between atoms: N_10  and  C_13
                            x       y       z     vdW  Elec       q    Type
                         _______ _______ _______ _____ _____    ______ ____

>  <TORSDO>
F 3

$$$$
=
 OpenBabel10272402033D

 28 30  0  0  1  0  0  0  0  0999 V2000
  186.8830  178.1620  137.6030 C   0  0  0  0  0  1  0  0  0  0  0  0
  189.7800  176.9950  139.7620 N   0  0  0  0  0  0  0  0  0  0  0  0
  187.9210  178.5120  140.4250 C   0  0  0  0  0  1  0  0  0  0  0  0
  189.0010  177.0110  137.0040 C   0  0  2  0  0  3  0  0  0  0  0  0
  190.4340  176.0980  138.8160 C   0  0  0  0  0  2  0  0  0  0  0  0
  188.9520  177.5300  135.7060 O   0  0  0  0  0  1  0  0  0  0  0  0
  188.3440  177.9920  137.9890 C   0  0  1  0  0  0  0  0  0  0  0  0
  188.9820  179.2330  137.9040 O   0  0  0  0  0  1  0  0  0  0  0  0
  188.4190  177.4560  139.4350 C   0  0  1  0  0  3  0  0  0  0  0  0
  190.4500  176.6980  137.4110 C   0  0  1  0  0  3  0  0  0  0  0  0
  191.1340  175.7680  136.3860 C   0  0  2  0  0  3  0  0  0  0  0  0
  191.4570  174.3500  136.9410 C   0  0  2  0  0  3  0  0  0  0  0  0
  193.6810  174.0090  135.6280 C   0  0  0  0  0  2  0  0  0  0  0  0
  192.8160  174.3820  134.5880 O   0  0  0  0  0  0  0  0  0  0  0  0
  192.8640  175.7840  134.4950 C   0  0  0  0  0  2  0  0  0  0  0  0
  193.7030  174.6630  138.0530 C   0  0  0  0  0  1  0  0  0  0  0  0
  192.3330  176.4880  135.7540 C   0  0  0  0  0  2  0  0  0  0  0  0
  192.9390  173.9210  136.9740 C   0  0  1  0  0  3  0  0  0  0  0  0
  190.7020  173.3910  136.2600 O   0  0  0  0  0  0  0  0  0  0  0  0
  189.5070  173.2940  136.9710 C   0  0  0  0  0  1  0  0  0  0  0  0
  189.4160  176.4120  142.0900 N   0  0  0  0  0  0  0  0  0  0  0  0
  191.5450  177.2990  141.4590 C   0  0  0  0  0  0  0  0  0  0  0  0
  191.1200  176.6440  143.7450 C   0  0  0  0  0  0  0  0  0  0  0  0
  190.2380  176.9090  141.1220 C   0  0  0  0  0  0  0  0  0  0  0  0
  191.9820  177.1620  142.7780 C   0  0  0  0  0  3  0  0  0  0  0  0
  192.4020  177.8280  140.5010 O   0  0  0  0  0  1  0  0  0  0  0  0
  191.5480  176.5000  145.0580 O   0  0  0  0  0  1  0  0  0  0  0  0
  189.8250  176.2770  143.3810 C   0  0  0  0  0  3  0  0  0  0  0  0
  2 24  1  0  0  0  0
  4  6  1  6  0  0  0
  4 10  1  0  0  0  0
  4  7  1  0  0  0  0
  5  2  1  0  0  0  0
  7  1  1  6  0  0  0
  7  9  1  0  0  0  0
  8  7  1  0  0  0  0
  9  2  1  0  0  0  0
  9  3  1  1  0  0  0
 10  5  1  1  0  0  0
 11 17  1  1  0  0  0
 11 12  1  0  0  0  0
 11 10  1  0  0  0  0
 12 19  1  6  0  0  0
 12 18  1  0  0  0  0
 13 18  1  0  0  0  0
 14 13  1  0  0  0  0
 15 14  1  0  0  0  0
 15 17  1  0  0  0  0
 18 16  1  1  0  0  0
 19 20  1  0  0  0  0
 21 28  1  0  0  0  0
 22 25  2  0  0  0  0
 23 27  1  0  0  0  0
 24 22  1  0  0  0  0
 24 21  2  0  0  0  0
 25 23  1  0  0  0  0
 26 22  1  0  0  0  0
 28 23  2  0  0  0  0
M  END
>  <MODEL>
5

>  <REMARK>
 VINA RESULT:      -6.3      2.061      6.491
  Name = 
  3 active torsions:
  status: ('A' for Active; 'I' for Inactive)
    1  A    between atoms: C_1  and  C_27
    2  A    between atoms: O_2  and  C_3
    3  A    between atoms: N_10  and  C_13
                            x       y       z     vdW  Elec       q    Type
                         _______ _______ _______ _____ _____    ______ ____

>  <TORSDO>
F 3

$$$$
=
 OpenBabel10272402033D

 28 30  0  0  1  0  0  0  0  0999 V2000
  191.9020  177.2060  142.3520 C   0  0  0  0  0  1  0  0  0  0  0  0
  188.2370  177.8620  143.0940 N   0  0  0  0  0  0  0  0  0  0  0  0
  189.9370  176.8970  144.6340 C   0  0  0  0  0  1  0  0  0  0  0  0
  190.0090  177.7620  140.8440 C   0  0  2  0  0  3  0  0  0  0  0  0
  187.8470  178.4830  141.8320 C   0  0  0  0  0  2  0  0  0  0  0  0
  190.6480  177.1460  139.7620 O   0  0  0  0  0  1  0  0  0  0  0  0
  190.4010  177.0630  142.1550 C   0  0  1  0  0  0  0  0  0  0  0  0
  190.0820  175.7050  142.0730 O   0  0  0  0  0  1  0  0  0  0  0  0
  189.6770  177.7050  143.3600 C   0  0  1  0  0  3  0  0  0  0  0  0
  188.4840  177.7630  140.6460 C   0  0  1  0  0  3  0  0  0  0  0  0
  188.0930  178.4010  139.2960 C   0  0  2  0  0  3  0  0  0  0  0  0
  186.7650  177.8470  138.6990 C   0  0  2  0  0  3  0  0  0  0  0  0
  187.4770  177.9800  136.1970 C   0  0  0  0  0  2  0  0  0  0  0  0
  187.7860  179.2790  136.6270 O   0  0  0  0  0  0  0  0  0  0  0  0
  189.1100  179.2520  137.1020 C   0  0  0  0  0  2  0  0  0  0  0  0
  187.5130  175.7940  137.4340 C   0  0  0  0  0  1  0  0  0  0  0  0
  189.2870  178.3490  138.3330 C   0  0  0  0  0  2  0  0  0  0  0  0
  186.8410  177.1480  137.3250 C   0  0  1  0  0  3  0  0  0  0  0  0
  185.8040  178.8620  138.6620 O   0  0  0  0  0  0  0  0  0  0  0  0
  184.5810  178.2020  138.5550 C   0  0  0  0  0  1  0  0  0  0  0  0
  187.7080  178.0200  145.4570 N   0  0  0  0  0  0  0  0  0  0  0  0
  185.9080  178.0590  143.8840 C   0  0  0  0  0  0  0  0  0  0  0  0
  185.4710  178.2650  146.2510 C   0  0  0  0  0  0  0  0  0  0  0  0
  187.2820  177.9690  144.1620 C   0  0  0  0  0  0  0  0  0  0  0  0
  185.0040  178.2090  144.9370 C   0  0  0  0  0  3  0  0  0  0  0  0
  185.4380  177.9900  142.5780 O   0  0  0  0  0  1  0  0  0  0  0  0
  184.5790  178.4190  147.3040 O   0  0  0  0  0  1  0  0  0  0  0  0
  186.8400  178.1610  146.4960 C   0  0  0  0  0  3  0  0  0  0  0  0
  2  9  1  0  0  0  0
  2 24  1  0  0  0  0
  4  6  1  6  0  0  0
  4  7  1  0  0  0  0
  5  2  1  0  0  0  0
  7  1  1  1  0  0  0
  7  9  1  0  0  0  0
  8  7  1  0  0  0  0
  9  3  1  1  0  0  0
 10  4  1  0  0  0  0
 10  5  1  1  0  0  0
 11 17  1  6  0  0  0
 11 10  1  0  0  0  0
 12 19  1  6  0  0  0
 12 11  1  0  0  0  0
 13 14  1  0  0  0  0
 13 18  1  0  0  0  0
 14 15  1  0  0  0  0
 15 17  1  0  0  0  0
 18 16  1  1  0  0  0
 18 12  1  0  0  0  0
 20 19  1  0  0  0  0
 21 28  1  0  0  0  0
 22 24  1  0  0  0  0
 22 25  2  0  0  0  0
 23 28  2  0  0  0  0
 23 27  1  0  0  0  0
 24 21  2  0  0  0  0
 25 23  1  0  0  0  0
 26 22  1  0  0  0  0
M  END
>  <MODEL>
6

>  <REMARK>
 VINA RESULT:      -6.1      3.326      7.752
  Name = 
  3 active torsions:
  status: ('A' for Active; 'I' for Inactive)
    1  A    between atoms: C_1  and  C_27
    2  A    between atoms: O_2  and  C_3
    3  A    between atoms: N_10  and  C_13
                            x       y       z     vdW  Elec       q    Type
                         _______ _______ _______ _____ _____    ______ ____

>  <TORSDO>
F 3

$$$$
=
 OpenBabel10272402033D

 28 30  0  0  1  0  0  0  0  0999 V2000
  184.8810  179.5320  143.5650 C   0  0  0  0  0  1  0  0  0  0  0  0
  187.1140  178.1170  140.8400 N   0  0  0  0  0  0  0  0  0  0  0  0
  184.9160  179.2480  140.5510 C   0  0  0  0  0  1  0  0  0  0  0  0
  186.8600  178.0370  143.6930 C   0  0  2  0  0  3  0  0  0  0  0  0
  188.2390  177.6800  141.6590 C   0  0  0  0  0  2  0  0  0  0  0  0
  186.4190  177.5070  144.9110 O   0  0  0  0  0  1  0  0  0  0  0  0
  185.6550  178.4490  142.8320 C   0  0  1  0  0  0  0  0  0  0  0  0
  184.8200  177.3450  142.6410 O   0  0  0  0  0  1  0  0  0  0  0  0
  186.1180  179.0040  141.4660 C   0  0  1  0  0  3  0  0  0  0  0  0
  187.7570  177.0310  142.9550 C   0  0  1  0  0  3  0  0  0  0  0  0
  188.9290  176.5630  143.8450 C   0  0  2  0  0  3  0  0  0  0  0  0
  189.2570  177.5380  145.0140 C   0  0  2  0  0  3  0  0  0  0  0  0
  191.8360  177.1670  145.0040 C   0  0  0  0  0  2  0  0  0  0  0  0
  191.3800  175.8400  145.0510 O   0  0  0  0  0  0  0  0  0  0  0  0
  191.2160  175.4130  143.7210 C   0  0  0  0  0  2  0  0  0  0  0  0
  190.8230  179.2090  143.9510 C   0  0  0  0  0  1  0  0  0  0  0  0
  190.1340  176.2020  142.9660 C   0  0  0  0  0  2  0  0  0  0  0  0
  190.6660  178.1670  145.0400 C   0  0  1  0  0  3  0  0  0  0  0  0
  188.9950  176.9130  146.2380 O   0  0  0  0  0  0  0  0  0  0  0  0
  188.9900  177.9420  147.1790 C   0  0  0  0  0  1  0  0  0  0  0  0
  186.2910  177.9960  138.5600 N   0  0  0  0  0  0  0  0  0  0  0  0
  188.6370  178.3000  138.9080 C   0  0  0  0  0  0  0  0  0  0  0  0
  187.7300  178.2250  136.6700 C   0  0  0  0  0  0  0  0  0  0  0  0
  187.3410  178.1240  139.4210 C   0  0  0  0  0  0  0  0  0  0  0  0
  188.8250  178.3510  137.5260 C   0  0  0  0  0  3  0  0  0  0  0  0
  189.7310  178.4130  139.7560 O   0  0  0  0  0  1  0  0  0  0  0  0
  187.9080  178.2780  135.2940 O   0  0  0  0  0  1  0  0  0  0  0  0
  186.4580  178.0380  137.2100 C   0  0  0  0  0  3  0  0  0  0  0  0
  2  9  1  0  0  0  0
  2  5  1  0  0  0  0
  4  6  1  1  0  0  0
  7  1  1  1  0  0  0
  7  4  1  0  0  0  0
  8  7  1  0  0  0  0
  9  3  1  6  0  0  0
  9  7  1  0  0  0  0
 10  5  1  6  0  0  0
 10  4  1  0  0  0  0
 10 11  1  0  0  0  0
 11 17  1  6  0  0  0
 11 12  1  0  0  0  0
 12 18  1  0  0  0  0
 12 19  1  1  0  0  0
 13 18  1  0  0  0  0
 13 14  1  0  0  0  0
 15 14  1  0  0  0  0
 17 15  1  0  0  0  0
 18 16  1  6  0  0  0
 19 20  1  0  0  0  0
 21 24  1  0  0  0  0
 22 24  2  0  0  0  0
 22 26  1  0  0  0  0
 23 28  1  0  0  0  0
 23 25  2  0  0  0  0
 24  2  1  0  0  0  0
 25 22  1  0  0  0  0
 27 23  1  0  0  0  0
 28 21  2  0  0  0  0
M  END
>  <MODEL>
7

>  <REMARK>
 VINA RESULT:      -6.0      3.471      5.026
  Name = 
  3 active torsions:
  status: ('A' for Active; 'I' for Inactive)
    1  A    between atoms: C_1  and  C_27
    2  A    between atoms: O_2  and  C_3
    3  A    between atoms: N_10  and  C_13
                            x       y       z     vdW  Elec       q    Type
                         _______ _______ _______ _____ _____    ______ ____

>  <TORSDO>
F 3

$$$$
=
 OpenBabel10272402033D

 28 30  0  0  1  0  0  0  0  0999 V2000
  183.3570  178.7880  145.4510 C   0  0  0  0  0  1  0  0  0  0  0  0
  185.9480  178.0120  142.7870 N   0  0  0  0  0  0  0  0  0  0  0  0
  186.3500  178.4000  145.2130 C   0  0  0  0  0  1  0  0  0  0  0  0
  183.1940  178.7830  142.9730 C   0  0  2  0  0  3  0  0  0  0  0  0
  185.0630  177.8340  141.6420 C   0  0  0  0  0  2  0  0  0  0  0  0
  182.1350  179.6970  143.0100 O   0  0  0  0  0  1  0  0  0  0  0  0
  184.1350  179.0190  144.1660 C   0  0  1  0  0  0  0  0  0  0  0  0
  184.5920  180.3400  144.1440 O   0  0  0  0  0  1  0  0  0  0  0  0
  185.3330  178.0450  144.1250 C   0  0  1  0  0  3  0  0  0  0  0  0
  183.9500  178.8790  141.6380 C   0  0  1  0  0  3  0  0  0  0  0  0
  182.9940  178.7110  140.4370 C   0  0  2  0  0  3  0  0  0  0  0  0
  183.1070  177.3270  139.7330 C   0  0  2  0  0  3  0  0  0  0  0  0
  182.6670  178.1820  137.3120 C   0  0  0  0  0  2  0  0  0  0  0  0
  181.5790  178.7490  137.9920 O   0  0  0  0  0  0  0  0  0  0  0  0
  181.9970  180.0060  138.4630 C   0  0  0  0  0  2  0  0  0  0  0  0
  184.9980  177.6660  138.0930 C   0  0  0  0  0  1  0  0  0  0  0  0
  183.1340  179.9140  139.4930 C   0  0  0  0  0  2  0  0  0  0  0  0
  183.5300  177.3180  138.2490 C   0  0  1  0  0  3  0  0  0  0  0  0
  181.9120  176.6180  139.8880 O   0  0  0  0  0  0  0  0  0  0  0  0
  182.1130  175.4110  139.2210 C   0  0  0  0  0  1  0  0  0  0  0  0
  187.8420  176.6180  143.3870 N   0  0  0  0  0  0  0  0  0  0  0  0
  188.0910  178.1540  141.5720 C   0  0  0  0  0  0  0  0  0  0  0  0
  189.9090  176.6920  142.1970 C   0  0  0  0  0  0  0  0  0  0  0  0
  187.3100  177.5930  142.5960 C   0  0  0  0  0  0  0  0  0  0  0  0
  189.3950  177.6960  141.3760 C   0  0  0  0  0  3  0  0  0  0  0  0
  187.5870  179.1630  140.7610 O   0  0  0  0  0  1  0  0  0  0  0  0
  191.2040  176.2270  142.0070 O   0  0  0  0  0  1  0  0  0  0  0  0
  189.1130  176.1630  143.2130 C   0  0  0  0  0  3  0  0  0  0  0  0
  2  9  1  0  0  0  0
  4  6  1  6  0  0  0
  4  7  1  0  0  0  0
  5  2  1  0  0  0  0
  7  1  1  1  0  0  0
  8  7  1  0  0  0  0
  9  7  1  0  0  0  0
  9  3  1  1  0  0  0
 10  5  1  1  0  0  0
 10  4  1  0  0  0  0
 11 17  1  6  0  0  0
 11 10  1  0  0  0  0
 12 19  1  6  0  0  0
 12 11  1  0  0  0  0
 13 14  1  0  0  0  0
 13 18  1  0  0  0  0
 14 15  1  0  0  0  0
 15 17  1  0  0  0  0
 18 16  1  1  0  0  0
 18 12  1  0  0  0  0
 20 19  1  0  0  0  0
 22 24  1  0  0  0  0
 23 28  2  0  0  0  0
 24  2  1  0  0  0  0
 24 21  2  0  0  0  0
 25 22  2  0  0  0  0
 25 23  1  0  0  0  0
 26 22  1  0  0  0  0
 27 23  1  0  0  0  0
 28 21  1  0  0  0  0
M  END
>  <MODEL>
8

>  <REMARK>
 VINA RESULT:      -6.0      4.349      7.699
  Name = 
  3 active torsions:
  status: ('A' for Active; 'I' for Inactive)
    1  A    between atoms: C_1  and  C_27
    2  A    between atoms: O_2  and  C_3
    3  A    between atoms: N_10  and  C_13
                            x       y       z     vdW  Elec       q    Type
                         _______ _______ _______ _____ _____    ______ ____

>  <TORSDO>
F 3

$$$$
=
 OpenBabel10272402033D

 28 30  0  0  1  0  0  0  0  0999 V2000
  187.7730  178.5270  147.4070 C   0  0  0  0  0  1  0  0  0  0  0  0
  185.6500  178.1430  144.2830 N   0  0  0  0  0  0  0  0  0  0  0  0
  184.8660  178.6980  146.5790 C   0  0  0  0  0  1  0  0  0  0  0  0
  188.3180  177.5910  145.1720 C   0  0  2  0  0  3  0  0  0  0  0  0
  186.7070  177.8990  143.3070 C   0  0  0  0  0  2  0  0  0  0  0  0
  189.3310  176.7960  145.7180 O   0  0  0  0  0  1  0  0  0  0  0  0
  187.1970  177.7980  146.2040 C   0  0  1  0  0  0  0  0  0  0  0  0
  186.7110  176.5540  146.6170 O   0  0  0  0  0  1  0  0  0  0  0  0
  186.0500  178.6440  145.6090 C   0  0  1  0  0  3  0  0  0  0  0  0
  187.7760  176.9680  143.8760 C   0  0  1  0  0  3  0  0  0  0  0  0
  188.9110  176.6960  142.8650 C   0  0  2  0  0  3  0  0  0  0  0  0
  190.3170  176.5580  143.5220 C   0  0  2  0  0  3  0  0  0  0  0  0
  191.6660  177.6640  141.5870 C   0  0  0  0  0  2  0  0  0  0  0  0
  190.9180  176.7130  140.8760 O   0  0  0  0  0  0  0  0  0  0  0  0
  189.7070  177.3300  140.5130 C   0  0  0  0  0  2  0  0  0  0  0  0
  191.1200  178.9470  143.6760 C   0  0  0  0  0  1  0  0  0  0  0  0
  188.8450  177.7200  141.7240 C   0  0  0  0  0  2  0  0  0  0  0  0
  191.4000  177.5730  143.1000 C   0  0  1  0  0  3  0  0  0  0  0  0
  190.7950  175.2550  143.3470 O   0  0  0  0  0  0  0  0  0  0  0  0
  191.9680  175.1930  144.0960 C   0  0  0  0  0  1  0  0  0  0  0  0
  183.2870  178.6140  144.5700 N   0  0  0  0  0  0  0  0  0  0  0  0
  184.1640  178.5100  142.3480 C   0  0  0  0  0  0  0  0  0  0  0  0
  181.8340  179.0270  142.7220 C   0  0  0  0  0  0  0  0  0  0  0  0
  184.3480  178.4130  143.7370 C   0  0  0  0  0  0  0  0  0  0  0  0
  182.8990  178.8200  141.8450 C   0  0  0  0  0  3  0  0  0  0  0  0
  185.2190  178.2910  141.4710 O   0  0  0  0  0  1  0  0  0  0  0  0
  180.5730  179.3400  142.2310 O   0  0  0  0  0  1  0  0  0  0  0  0
  182.0470  178.9120  144.0960 C   0  0  0  0  0  3  0  0  0  0  0  0
  2  9  1  0  0  0  0
  4  6  1  1  0  0  0
  4  7  1  0  0  0  0
  5  2  1  0  0  0  0
  7  8  1  0  0  0  0
  7  1  1  1  0  0  0
  9  7  1  0  0  0  0
  9  3  1  1  0  0  0
 10  5  1  6  0  0  0
 10  4  1  0  0  0  0
 11 17  1  6  0  0  0
 11 12  1  0  0  0  0
 11 10  1  0  0  0  0
 12 19  1  6  0  0  0
 13 18  1  0  0  0  0
 14 13  1  0  0  0  0
 15 14  1  0  0  0  0
 15 17  1  0  0  0  0
 18 12  1  0  0  0  0
 18 16  1  6  0  0  0
 19 20  1  0  0  0  0
 22 24  1  0  0  0  0
 23 28  2  0  0  0  0
 24  2  1  0  0  0  0
 24 21  2  0  0  0  0
 25 22  2  0  0  0  0
 25 23  1  0  0  0  0
 26 22  1  0  0  0  0
 27 23  1  0  0  0  0
 28 21  1  0  0  0  0
M  END
>  <MODEL>
9

>  <REMARK>
 VINA RESULT:      -6.0      3.867      8.216
  Name = 
  3 active torsions:
  status: ('A' for Active; 'I' for Inactive)
    1  A    between atoms: C_1  and  C_27
    2  A    between atoms: O_2  and  C_3
    3  A    between atoms: N_10  and  C_13
                            x       y       z     vdW  Elec       q    Type
                         _______ _______ _______ _____ _____    ______ ____

>  <TORSDO>
F 3

$$$$
