=
 OpenBabel10272400343D

 31 34  0  0  1  0  0  0  0  0999 V2000
  183.9310  178.8320  145.1620 C   0  0  0  0  0  0  0  0  0  0  0  0
  185.7610  178.1260  141.9010 C   0  0  2  0  0  3  0  0  0  0  0  0
  185.0170  178.8450  140.7740 C   0  0  1  0  0  3  0  0  0  0  0  0
  185.4430  178.3240  143.3420 C   0  0  0  0  0  0  0  0  0  0  0  0
  184.9090  178.4430  146.0840 C   0  0  0  0  0  3  0  0  0  0  0  0
  187.9910  177.3730  142.3400 N   0  0  0  0  0  0  0  0  0  0  0  0
  182.7240  179.2650  145.5980 F   0  0  0  0  0  0  0  0  0  0  0  0
  187.2530  178.5200  140.2150 C   0  0  0  0  0  0  0  0  0  0  0  0
  187.8180  177.4890  143.8090 C   0  0  0  0  0  2  0  0  0  0  0  0
  187.2230  178.4420  141.6960 C   0  0  1  0  0  3  0  0  0  0  0  0
  184.1940  178.7640  143.7920 C   0  0  0  0  0  3  0  0  0  0  0  0
  186.4250  177.9120  144.2690 C   0  0  0  0  0  0  0  0  0  0  0  0
  186.1530  177.9890  145.6380 C   0  0  0  0  0  3  0  0  0  0  0  0
  188.2900  178.4430  139.5060 O   0  0  0  0  0  0  0  0  0  0  0  0
  185.9750  178.8230  139.6750 N   0  0  0  0  0  2  0  0  0  0  0  0
  183.7760  178.0670  140.3570 C   0  0  0  0  0  2  0  0  0  0  0  0
  182.5740  178.9770  140.1590 C   0  0  0  0  0  2  0  0  0  0  0  0
  181.4420  178.5650  141.0370 C   0  0  0  0  0  0  0  0  0  0  0  0
  180.7240  177.4130  140.7480 O   0  0  0  0  0  0  0  0  0  0  0  0
  181.1560  179.2440  142.0570 O   0  0  0  0  0  1  0  0  0  0  0  0
  189.4080  177.6080  142.0970 C   0  0  0  0  0  2  0  0  0  0  0  0
  189.8730  175.3820  142.7080 O   0  0  0  0  0  0  0  0  0  0  0  0
  190.2220  176.5510  142.7670 C   0  0  0  0  0  0  0  0  0  0  0  0
  190.2980  177.0120  146.1450 C   0  0  2  0  0  3  0  0  0  0  0  0
  192.0020  175.7830  144.3710 C   0  0  0  0  0  2  0  0  0  0  0  0
  191.6590  179.4050  143.6750 F   0  0  0  0  0  0  0  0  0  0  0  0
  189.8410  177.3090  147.5580 C   0  0  0  0  0  1  0  0  0  0  0  0
  191.7110  175.8650  146.1890 S   0  0  0  0  0  0  0  0  0  0  0  0
  191.2730  178.2440  144.2640 C   0  0  0  0  0  0  0  0  0  0  0  0
  191.4550  176.9450  143.5240 C   0  0  2  0  0  3  0  0  0  0  0  0
  190.7200  178.2780  145.4790 C   0  0  0  0  0  3  0  0  0  0  0  0
  1  7  1  0  0  0  0
  1  5  1  0  0  0  0
  2  4  1  1  0  0  0
  3 16  1  6  0  0  0
  3  2  1  0  0  0  0
  4 11  1  0  0  0  0
  4 12  2  0  0  0  0
  6  9  1  0  0  0  0
  9 12  1  0  0  0  0
 10  8  1  6  0  0  0
 10  2  1  0  0  0  0
 10  6  1  0  0  0  0
 11  1  2  0  0  0  0
 12 13  1  0  0  0  0
 13  5  2  0  0  0  0
 14  8  2  0  0  0  0
 15  8  1  0  0  0  0
 15  3  1  0  0  0  0
 17 16  1  0  0  0  0
 17 18  1  0  0  0  0
 18 20  1  0  0  0  0
 19 18  2  0  0  0  0
 21  6  1  0  0  0  0
 21 23  1  0  0  0  0
 22 23  2  0  0  0  0
 24 28  1  0  0  0  0
 24 27  1  1  0  0  0
 25 28  1  0  0  0  0
 26 29  1  0  0  0  0
 29 31  2  0  0  0  0
 30 23  1  1  0  0  0
 30 29  1  0  0  0  0
 30 25  1  0  0  0  0
 31 24  1  0  0  0  0
M  END
>  <MODEL>
1

>  <REMARK>
 VINA RESULT:      -9.1      0.000      0.000
  Name = 
  6 active torsions:
  status: ('A' for Active; 'I' for Inactive)
    1  A    between atoms: C_5  and  C_14
    2  A    between atoms: C_9  and  C_22
    3  A    between atoms: C_9  and  C_23
    4  A    between atoms: C_10  and  C_14
    5  A    between atoms: C_10  and  C_18
    6  A    between atoms: N_15  and  C_23
                            x       y       z     vdW  Elec       q    Type
                         _______ _______ _______ _____ _____    ______ ____

>  <TORSDO>
F 6

$$$$
=
 OpenBabel10272400343D

 31 34  0  0  1  0  0  0  0  0999 V2000
  184.9680  178.3870  145.2770 C   0  0  0  0  0  0  0  0  0  0  0  0
  188.3700  177.5870  143.7680 C   0  0  2  0  0  3  0  0  0  0  0  0
  189.1600  176.7660  144.7890 C   0  0  1  0  0  3  0  0  0  0  0  0
  186.9280  177.9240  143.9350 C   0  0  0  0  0  0  0  0  0  0  0  0
  184.2750  178.7840  144.1280 C   0  0  0  0  0  3  0  0  0  0  0  0
  188.3140  177.8600  141.3910 N   0  0  0  0  0  0  0  0  0  0  0  0
  184.3550  178.4210  146.4840 F   0  0  0  0  0  0  0  0  0  0  0  0
  189.9070  176.3410  142.6270 C   0  0  0  0  0  0  0  0  0  0  0  0
  186.8820  178.2450  141.3960 C   0  0  0  0  0  2  0  0  0  0  0  0
  188.5340  176.8710  142.4500 C   0  0  1  0  0  3  0  0  0  0  0  0
  186.2970  177.9660  145.1820 C   0  0  0  0  0  3  0  0  0  0  0  0
  186.2380  178.3410  142.7770 C   0  0  0  0  0  0  0  0  0  0  0  0
  184.9070  178.7570  142.8820 C   0  0  0  0  0  3  0  0  0  0  0  0
  190.6540  175.9380  141.6970 O   0  0  0  0  0  0  0  0  0  0  0  0
  190.2530  176.2140  143.9980 N   0  0  0  0  0  2  0  0  0  0  0  0
  189.7450  177.6630  145.8740 C   0  0  0  0  0  2  0  0  0  0  0  0
  189.9720  176.9080  147.1740 C   0  0  0  0  0  2  0  0  0  0  0  0
  191.4230  176.6530  147.3970 C   0  0  0  0  0  0  0  0  0  0  0  0
  192.0930  175.7240  146.6120 O   0  0  0  0  0  0  0  0  0  0  0  0
  192.0490  177.3000  148.2760 O   0  0  0  0  0  1  0  0  0  0  0  0
  188.5390  177.2190  140.1020 C   0  0  0  0  0  2  0  0  0  0  0  0
  189.0120  179.2730  139.0530 O   0  0  0  0  0  0  0  0  0  0  0  0
  188.3960  178.2200  139.0030 C   0  0  0  0  0  0  0  0  0  0  0  0
  189.4090  176.7200  136.1120 C   0  0  2  0  0  3  0  0  0  0  0  0
  187.2010  176.4150  137.7210 C   0  0  0  0  0  2  0  0  0  0  0  0
  187.3930  179.8170  136.2690 F   0  0  0  0  0  0  0  0  0  0  0  0
  190.2990  176.2590  134.9760 C   0  0  0  0  0  1  0  0  0  0  0  0
  188.0560  175.5270  136.3510 S   0  0  0  0  0  0  0  0  0  0  0  0
  187.9180  178.6060  136.5880 C   0  0  0  0  0  0  0  0  0  0  0  0
  187.4780  177.9220  137.8550 C   0  0  2  0  0  3  0  0  0  0  0  0
  188.8280  178.0540  135.7820 C   0  0  0  0  0  3  0  0  0  0  0  0
  1  7  1  0  0  0  0
  2  4  1  1  0  0  0
  2  3  1  0  0  0  0
  3 16  1  1  0  0  0
  4 11  2  0  0  0  0
  5  1  2  0  0  0  0
  6  9  1  0  0  0  0
  6 10  1  0  0  0  0
  8 15  1  0  0  0  0
  9 12  1  0  0  0  0
 10  8  1  1  0  0  0
 10  2  1  0  0  0  0
 11  1  1  0  0  0  0
 12 13  2  0  0  0  0
 12  4  1  0  0  0  0
 13  5  1  0  0  0  0
 14  8  2  0  0  0  0
 15  3  1  0  0  0  0
 16 17  1  0  0  0  0
 17 18  1  0  0  0  0
 18 20  1  0  0  0  0
 19 18  2  0  0  0  0
 21  6  1  0  0  0  0
 23 22  2  0  0  0  0
 23 21  1  0  0  0  0
 24 27  1  6  0  0  0
 24 28  1  0  0  0  0
 25 30  1  0  0  0  0
 26 29  1  0  0  0  0
 28 25  1  0  0  0  0
 29 30  1  0  0  0  0
 30 23  1  1  0  0  0
 31 24  1  0  0  0  0
 31 29  2  0  0  0  0
M  END
>  <MODEL>
2

>  <REMARK>
 VINA RESULT:      -9.0      3.611      7.185
  Name = 
  6 active torsions:
  status: ('A' for Active; 'I' for Inactive)
    1  A    between atoms: C_5  and  C_14
    2  A    between atoms: C_9  and  C_22
    3  A    between atoms: C_9  and  C_23
    4  A    between atoms: C_10  and  C_14
    5  A    between atoms: C_10  and  C_18
    6  A    between atoms: N_15  and  C_23
                            x       y       z     vdW  Elec       q    Type
                         _______ _______ _______ _____ _____    ______ ____

>  <TORSDO>
F 6

$$$$
=
 OpenBabel10272400343D

 31 34  0  0  1  0  0  0  0  0999 V2000
  185.3010  178.3650  145.8170 C   0  0  0  0  0  0  0  0  0  0  0  0
  188.4610  177.6360  143.8230 C   0  0  2  0  0  3  0  0  0  0  0  0
  189.3920  176.7970  144.7000 C   0  0  1  0  0  3  0  0  0  0  0  0
  187.0550  177.9540  144.2000 C   0  0  0  0  0  0  0  0  0  0  0  0
  184.4510  178.7840  144.7880 C   0  0  0  0  0  3  0  0  0  0  0  0
  188.0680  177.9700  141.4850 N   0  0  0  0  0  0  0  0  0  0  0  0
  184.8640  178.3620  147.0980 F   0  0  0  0  0  0  0  0  0  0  0  0
  189.8290  176.4340  142.4430 C   0  0  0  0  0  0  0  0  0  0  0  0
  186.6490  178.3410  141.7020 C   0  0  0  0  0  2  0  0  0  0  0  0
  188.4410  176.9560  142.4750 C   0  0  1  0  0  3  0  0  0  0  0  0
  186.6060  177.9590  145.5240 C   0  0  0  0  0  3  0  0  0  0  0  0
  186.2060  178.3950  143.1620 C   0  0  0  0  0  0  0  0  0  0  0  0
  184.9010  178.7950  143.4650 C   0  0  0  0  0  3  0  0  0  0  0  0
  190.4390  176.0620  141.4060 O   0  0  0  0  0  0  0  0  0  0  0  0
  190.3650  176.2750  143.7480 N   0  0  0  0  0  2  0  0  0  0  0  0
  190.1190  177.6700  145.7140 C   0  0  0  0  0  2  0  0  0  0  0  0
  190.2230  176.9970  147.0730 C   0  0  0  0  0  2  0  0  0  0  0  0
  191.6100  176.5120  147.3250 C   0  0  0  0  0  0  0  0  0  0  0  0
  192.1690  175.5500  146.4940 O   0  0  0  0  0  0  0  0  0  0  0  0
  192.2850  176.9950  148.2700 O   0  0  0  0  0  1  0  0  0  0  0  0
  188.1130  177.3630  140.1610 C   0  0  0  0  0  2  0  0  0  0  0  0
  188.9650  179.4480  139.4760 O   0  0  0  0  0  0  0  0  0  0  0  0
  188.8350  178.2630  139.2130 C   0  0  0  0  0  0  0  0  0  0  0  0
  186.9030  176.7400  136.8510 C   0  0  2  0  0  3  0  0  0  0  0  0
  188.9720  178.5460  136.7170 C   0  0  0  0  0  2  0  0  0  0  0  0
  190.0380  175.3310  138.2170 F   0  0  0  0  0  0  0  0  0  0  0  0
  185.7570  175.9840  136.2120 C   0  0  0  0  0  1  0  0  0  0  0  0
  187.6460  177.8690  135.6320 S   0  0  0  0  0  0  0  0  0  0  0  0
  189.1000  176.2230  137.8060 C   0  0  0  0  0  0  0  0  0  0  0  0
  189.3770  177.6970  137.9340 C   0  0  2  0  0  3  0  0  0  0  0  0
  187.9410  175.7750  137.3160 C   0  0  0  0  0  3  0  0  0  0  0  0
  1  7  1  0  0  0  0
  2  4  1  1  0  0  0
  2  3  1  0  0  0  0
  3 16  1  1  0  0  0
  4 11  2  0  0  0  0
  5  1  2  0  0  0  0
  6  9  1  0  0  0  0
  6 10  1  0  0  0  0
  8 15  1  0  0  0  0
  9 12  1  0  0  0  0
 10  8  1  6  0  0  0
 10  2  1  0  0  0  0
 11  1  1  0  0  0  0
 12 13  2  0  0  0  0
 12  4  1  0  0  0  0
 13  5  1  0  0  0  0
 14  8  2  0  0  0  0
 15  3  1  0  0  0  0
 16 17  1  0  0  0  0
 17 18  1  0  0  0  0
 18 20  1  0  0  0  0
 19 18  2  0  0  0  0
 21  6  1  0  0  0  0
 23 22  2  0  0  0  0
 23 21  1  0  0  0  0
 24 27  1  6  0  0  0
 24 31  1  0  0  0  0
 25 30  1  0  0  0  0
 28 25  1  0  0  0  0
 28 24  1  0  0  0  0
 29 30  1  0  0  0  0
 29 26  1  0  0  0  0
 30 23  1  1  0  0  0
 31 29  2  0  0  0  0
M  END
>  <MODEL>
3

>  <REMARK>
 VINA RESULT:      -8.9      3.669      7.068
  Name = 
  6 active torsions:
  status: ('A' for Active; 'I' for Inactive)
    1  A    between atoms: C_5  and  C_14
    2  A    between atoms: C_9  and  C_22
    3  A    between atoms: C_9  and  C_23
    4  A    between atoms: C_10  and  C_14
    5  A    between atoms: C_10  and  C_18
    6  A    between atoms: N_15  and  C_23
                            x       y       z     vdW  Elec       q    Type
                         _______ _______ _______ _____ _____    ______ ____

>  <TORSDO>
F 6

$$$$
=
 OpenBabel10272400343D

 31 34  0  0  1  0  0  0  0  0999 V2000
  190.3970  176.9560  146.5120 C   0  0  0  0  0  0  0  0  0  0  0  0
  188.2440  177.4120  143.4060 C   0  0  2  0  0  3  0  0  0  0  0  0
  187.0020  178.2120  143.8030 C   0  0  1  0  0  3  0  0  0  0  0  0
  189.4020  177.2000  144.3190 C   0  0  0  0  0  0  0  0  0  0  0  0
  191.6040  176.5640  145.9210 C   0  0  0  0  0  3  0  0  0  0  0  0
  189.5400  177.0360  141.4290 N   0  0  0  0  0  0  0  0  0  0  0  0
  190.2950  177.0260  147.8600 F   0  0  0  0  0  0  0  0  0  0  0  0
  187.4700  178.4770  141.5390 C   0  0  0  0  0  0  0  0  0  0  0  0
  190.7770  176.7670  142.2020 C   0  0  0  0  0  2  0  0  0  0  0  0
  188.7580  178.0510  142.1390 C   0  0  1  0  0  3  0  0  0  0  0  0
  189.2940  177.2650  145.7110 C   0  0  0  0  0  3  0  0  0  0  0  0
  190.6120  176.7860  143.7200 C   0  0  0  0  0  0  0  0  0  0  0  0
  191.7110  176.4840  144.5290 C   0  0  0  0  0  3  0  0  0  0  0  0
  187.2990  178.7760  140.3280 O   0  0  0  0  0  0  0  0  0  0  0  0
  186.4560  178.6380  142.5210 N   0  0  0  0  0  2  0  0  0  0  0  0
  185.9800  177.3220  144.4990 C   0  0  0  0  0  2  0  0  0  0  0  0
  185.9700  177.5370  146.0040 C   0  0  0  0  0  2  0  0  0  0  0  0
  185.1900  178.7560  146.3640 C   0  0  0  0  0  0  0  0  0  0  0  0
  183.9410  178.9720  145.7980 O   0  0  0  0  0  0  0  0  0  0  0  0
  185.6500  179.5730  147.2030 O   0  0  0  0  0  1  0  0  0  0  0  0
  189.9890  177.5980  140.1620 C   0  0  0  0  0  2  0  0  0  0  0  0
  190.5560  175.6420  138.9810 O   0  0  0  0  0  0  0  0  0  0  0  0
  189.8040  176.6000  139.0670 C   0  0  0  0  0  0  0  0  0  0  0  0
  190.1770  176.1210  135.7110 C   0  0  2  0  0  3  0  0  0  0  0  0
  188.1970  175.4630  137.5010 C   0  0  0  0  0  2  0  0  0  0  0  0
  188.6620  179.1290  137.2410 F   0  0  0  0  0  0  0  0  0  0  0  0
  190.8240  176.0110  134.3460 C   0  0  0  0  0  1  0  0  0  0  0  0
  188.7160  175.0390  135.7850 S   0  0  0  0  0  0  0  0  0  0  0  0
  189.0500  177.8420  137.0430 C   0  0  0  0  0  0  0  0  0  0  0  0
  188.7010  176.8000  138.0720 C   0  0  2  0  0  3  0  0  0  0  0  0
  189.7510  177.5310  135.9500 C   0  0  0  0  0  3  0  0  0  0  0  0
  1  7  1  0  0  0  0
  2  3  1  0  0  0  0
  2  4  1  1  0  0  0
  3 16  1  6  0  0  0
  4 11  1  0  0  0  0
  5  1  1  0  0  0  0
  6 10  1  0  0  0  0
  6  9  1  0  0  0  0
  8 15  1  0  0  0  0
  9 12  1  0  0  0  0
 10  8  1  6  0  0  0
 10  2  1  0  0  0  0
 11  1  2  0  0  0  0
 12  4  2  0  0  0  0
 12 13  1  0  0  0  0
 13  5  2  0  0  0  0
 14  8  2  0  0  0  0
 15  3  1  0  0  0  0
 16 17  1  0  0  0  0
 17 18  1  0  0  0  0
 18 20  1  0  0  0  0
 19 18  2  0  0  0  0
 21  6  1  0  0  0  0
 22 23  2  0  0  0  0
 23 21  1  0  0  0  0
 24 27  1  6  0  0  0
 24 28  1  0  0  0  0
 24 31  1  0  0  0  0
 25 30  1  0  0  0  0
 28 25  1  0  0  0  0
 29 26  1  0  0  0  0
 29 30  1  0  0  0  0
 30 23  1  6  0  0  0
 31 29  2  0  0  0  0
M  END
>  <MODEL>
4

>  <REMARK>
 VINA RESULT:      -8.8      3.871      6.357
  Name = 
  6 active torsions:
  status: ('A' for Active; 'I' for Inactive)
    1  A    between atoms: C_5  and  C_14
    2  A    between atoms: C_9  and  C_22
    3  A    between atoms: C_9  and  C_23
    4  A    between atoms: C_10  and  C_14
    5  A    between atoms: C_10  and  C_18
    6  A    between atoms: N_15  and  C_23
                            x       y       z     vdW  Elec       q    Type
                         _______ _______ _______ _____ _____    ______ ____

>  <TORSDO>
F 6

$$$$
=
 OpenBabel10272400343D

 31 34  0  0  1  0  0  0  0  0999 V2000
  190.4230  177.1800  146.2130 C   0  0  0  0  0  0  0  0  0  0  0  0
  188.1240  177.5320  143.2000 C   0  0  2  0  0  3  0  0  0  0  0  0
  186.8540  178.2560  143.6540 C   0  0  1  0  0  3  0  0  0  0  0  0
  189.3280  177.3820  144.0640 C   0  0  0  0  0  0  0  0  0  0  0  0
  191.6250  176.8640  145.5710 C   0  0  0  0  0  3  0  0  0  0  0  0
  189.3590  177.2480  141.1700 N   0  0  0  0  0  0  0  0  0  0  0  0
  190.3710  177.2340  147.5650 F   0  0  0  0  0  0  0  0  0  0  0  0
  187.2150  178.5650  141.3760 C   0  0  0  0  0  0  0  0  0  0  0  0
  190.6390  177.0460  141.8910 C   0  0  0  0  0  2  0  0  0  0  0  0
  188.5480  178.2110  141.9200 C   0  0  1  0  0  3  0  0  0  0  0  0
  189.2720  177.4300  145.4600 C   0  0  0  0  0  3  0  0  0  0  0  0
  190.5350  177.0440  143.4140 C   0  0  0  0  0  0  0  0  0  0  0  0
  191.6810  176.8010  144.1760 C   0  0  0  0  0  3  0  0  0  0  0  0
  186.9780  178.8630  140.1760 O   0  0  0  0  0  0  0  0  0  0  0  0
  186.2340  178.6590  142.3980 N   0  0  0  0  0  2  0  0  0  0  0  0
  185.9140  177.3030  144.3810 C   0  0  0  0  0  2  0  0  0  0  0  0
  185.9440  177.5120  145.8860 C   0  0  0  0  0  2  0  0  0  0  0  0
  185.1750  178.7290  146.2720 C   0  0  0  0  0  0  0  0  0  0  0  0
  183.9370  178.9780  145.6960 O   0  0  0  0  0  0  0  0  0  0  0  0
  185.6330  179.5160  147.1410 O   0  0  0  0  0  1  0  0  0  0  0  0
  189.7240  177.8450  139.8910 C   0  0  0  0  0  2  0  0  0  0  0  0
  190.3740  175.6720  139.2610 O   0  0  0  0  0  0  0  0  0  0  0  0
  190.0000  176.7730  138.8890 C   0  0  0  0  0  0  0  0  0  0  0  0
  186.9790  176.8290  137.3060 C   0  0  2  0  0  3  0  0  0  0  0  0
  189.1940  178.4550  137.2000 C   0  0  0  0  0  2  0  0  0  0  0  0
  189.9550  175.0090  136.0750 F   0  0  0  0  0  0  0  0  0  0  0  0
  185.5280  176.5410  136.9870 C   0  0  0  0  0  1  0  0  0  0  0  0
  187.4240  178.4830  136.6890 S   0  0  0  0  0  0  0  0  0  0  0  0
  189.1780  175.9370  136.6900 C   0  0  0  0  0  0  0  0  0  0  0  0
  189.8320  177.0740  137.4290 C   0  0  2  0  0  3  0  0  0  0  0  0
  187.8490  175.8140  136.6440 C   0  0  0  0  0  3  0  0  0  0  0  0
  1  7  1  0  0  0  0
  2  3  1  0  0  0  0
  2  4  1  1  0  0  0
  3 16  1  6  0  0  0
  4 11  1  0  0  0  0
  5  1  1  0  0  0  0
  6  9  1  0  0  0  0
  6 10  1  0  0  0  0
  8 15  1  0  0  0  0
  9 12  1  0  0  0  0
 10  8  1  6  0  0  0
 10  2  1  0  0  0  0
 11  1  2  0  0  0  0
 12  4  2  0  0  0  0
 12 13  1  0  0  0  0
 13  5  2  0  0  0  0
 14  8  2  0  0  0  0
 15  3  1  0  0  0  0
 16 17  1  0  0  0  0
 17 18  1  0  0  0  0
 18 20  1  0  0  0  0
 19 18  2  0  0  0  0
 21  6  1  0  0  0  0
 23 22  2  0  0  0  0
 23 21  1  0  0  0  0
 24 27  1  6  0  0  0
 25 30  1  0  0  0  0
 26 29  1  0  0  0  0
 28 25  1  0  0  0  0
 28 24  1  0  0  0  0
 29 30  1  0  0  0  0
 30 23  1  1  0  0  0
 31 29  2  0  0  0  0
 31 24  1  0  0  0  0
M  END
>  <MODEL>
5

>  <REMARK>
 VINA RESULT:      -8.7      3.749      6.256
  Name = 
  6 active torsions:
  status: ('A' for Active; 'I' for Inactive)
    1  A    between atoms: C_5  and  C_14
    2  A    between atoms: C_9  and  C_22
    3  A    between atoms: C_9  and  C_23
    4  A    between atoms: C_10  and  C_14
    5  A    between atoms: C_10  and  C_18
    6  A    between atoms: N_15  and  C_23
                            x       y       z     vdW  Elec       q    Type
                         _______ _______ _______ _____ _____    ______ ____

>  <TORSDO>
F 6

$$$$
=
 OpenBabel10272400343D

 31 34  0  0  1  0  0  0  0  0999 V2000
  190.7850  177.2220  145.3060 C   0  0  0  0  0  0  0  0  0  0  0  0
  187.8540  177.6730  142.9200 C   0  0  2  0  0  3  0  0  0  0  0  0
  186.6940  178.2890  143.7040 C   0  0  1  0  0  3  0  0  0  0  0  0
  189.2260  177.5240  143.4780 C   0  0  0  0  0  0  0  0  0  0  0  0
  191.8220  177.0220  144.3880 C   0  0  0  0  0  3  0  0  0  0  0  0
  188.6090  177.6120  140.6490 N   0  0  0  0  0  0  0  0  0  0  0  0
  191.0370  177.1700  146.6350 F   0  0  0  0  0  0  0  0  0  0  0  0
  186.5190  178.7890  141.4380 C   0  0  0  0  0  0  0  0  0  0  0  0
  190.0250  177.4280  141.0480 C   0  0  0  0  0  2  0  0  0  0  0  0
  187.9530  178.4690  141.6410 C   0  0  1  0  0  3  0  0  0  0  0  0
  189.4860  177.4640  144.8510 C   0  0  0  0  0  3  0  0  0  0  0  0
  190.2670  177.3040  142.5500 C   0  0  0  0  0  0  0  0  0  0  0  0
  191.5640  177.0680  143.0150 C   0  0  0  0  0  3  0  0  0  0  0  0
  186.0070  179.1630  140.3510 O   0  0  0  0  0  0  0  0  0  0  0  0
  185.7920  178.7520  142.6570 N   0  0  0  0  0  2  0  0  0  0  0  0
  185.9780  177.2330  144.5370 C   0  0  0  0  0  2  0  0  0  0  0  0
  186.0690  177.5250  146.0260 C   0  0  0  0  0  2  0  0  0  0  0  0
  185.2080  178.6840  146.3970 C   0  0  0  0  0  0  0  0  0  0  0  0
  183.9250  178.7880  145.8780 O   0  0  0  0  0  0  0  0  0  0  0  0
  185.6320  179.5510  147.2040 O   0  0  0  0  0  1  0  0  0  0  0  0
  188.6530  178.3230  139.3780 C   0  0  0  0  0  2  0  0  0  0  0  0
  187.7440  176.5370  138.1430 O   0  0  0  0  0  0  0  0  0  0  0  0
  188.6510  177.3470  138.2470 C   0  0  0  0  0  0  0  0  0  0  0  0
  189.7190  174.5910  136.5470 C   0  0  2  0  0  3  0  0  0  0  0  0
  189.2810  177.2050  135.8160 C   0  0  0  0  0  2  0  0  0  0  0  0
  191.9420  176.9130  138.3760 F   0  0  0  0  0  0  0  0  0  0  0  0
  189.9900  173.1420  136.1990 C   0  0  0  0  0  1  0  0  0  0  0  0
  189.5420  175.5640  135.0190 S   0  0  0  0  0  0  0  0  0  0  0  0
  190.8940  176.4310  137.6600 C   0  0  0  0  0  0  0  0  0  0  0  0
  189.7810  177.3650  137.2620 C   0  0  2  0  0  3  0  0  0  0  0  0
  190.8590  175.1350  137.3410 C   0  0  0  0  0  3  0  0  0  0  0  0
  1  7  1  0  0  0  0
  2  4  1  1  0  0  0
  2  3  1  0  0  0  0
  3 16  1  1  0  0  0
  4 11  2  0  0  0  0
  5  1  2  0  0  0  0
  6  9  1  0  0  0  0
  6 10  1  0  0  0  0
  8 15  1  0  0  0  0
  9 12  1  0  0  0  0
 10  8  1  6  0  0  0
 10  2  1  0  0  0  0
 11  1  1  0  0  0  0
 12 13  2  0  0  0  0
 12  4  1  0  0  0  0
 13  5  1  0  0  0  0
 14  8  2  0  0  0  0
 15  3  1  0  0  0  0
 16 17  1  0  0  0  0
 17 18  1  0  0  0  0
 18 20  1  0  0  0  0
 19 18  2  0  0  0  0
 21  6  1  0  0  0  0
 22 23  2  0  0  0  0
 23 21  1  0  0  0  0
 24 27  1  6  0  0  0
 24 31  1  0  0  0  0
 25 30  1  0  0  0  0
 28 25  1  0  0  0  0
 28 24  1  0  0  0  0
 29 26  1  0  0  0  0
 30 29  1  0  0  0  0
 30 23  1  1  0  0  0
 31 29  2  0  0  0  0
M  END
>  <MODEL>
6

>  <REMARK>
 VINA RESULT:      -8.5      3.916      6.335
  Name = 
  6 active torsions:
  status: ('A' for Active; 'I' for Inactive)
    1  A    between atoms: C_5  and  C_14
    2  A    between atoms: C_9  and  C_22
    3  A    between atoms: C_9  and  C_23
    4  A    between atoms: C_10  and  C_14
    5  A    between atoms: C_10  and  C_18
    6  A    between atoms: N_15  and  C_23
                            x       y       z     vdW  Elec       q    Type
                         _______ _______ _______ _____ _____    ______ ____

>  <TORSDO>
F 6

$$$$
=
 OpenBabel10272400343D

 31 34  0  0  1  0  0  0  0  0999 V2000
  184.4100  178.4610  143.6550 C   0  0  0  0  0  0  0  0  0  0  0  0
  188.1280  177.7160  143.3210 C   0  0  2  0  0  3  0  0  0  0  0  0
  188.5680  176.9320  144.5590 C   0  0  1  0  0  3  0  0  0  0  0  0
  186.7020  178.0210  143.0140 C   0  0  0  0  0  0  0  0  0  0  0  0
  184.1100  178.8210  142.3360 C   0  0  0  0  0  3  0  0  0  0  0  0
  188.8240  177.9460  141.0420 N   0  0  0  0  0  0  0  0  0  0  0  0
  183.4460  178.5020  144.6040 F   0  0  0  0  0  0  0  0  0  0  0  0
  189.9690  176.4870  142.7550 C   0  0  0  0  0  0  0  0  0  0  0  0
  187.4580  178.2960  140.5830 C   0  0  0  0  0  2  0  0  0  0  0  0
  188.7130  176.9810  142.1390 C   0  0  1  0  0  3  0  0  0  0  0  0
  185.7080  178.0700  143.9960 C   0  0  0  0  0  3  0  0  0  0  0  0
  186.4080  178.4020  141.6870 C   0  0  0  0  0  0  0  0  0  0  0  0
  185.1060  178.7870  141.3560 C   0  0  0  0  0  3  0  0  0  0  0  0
  190.9790  176.0850  142.1190 O   0  0  0  0  0  0  0  0  0  0  0  0
  189.8640  176.3920  144.1680 N   0  0  0  0  0  2  0  0  0  0  0  0
  188.7630  177.8610  145.7500 C   0  0  0  0  0  2  0  0  0  0  0  0
  189.2910  177.1200  146.9680 C   0  0  0  0  0  2  0  0  0  0  0  0
  188.8840  177.8050  148.2280 C   0  0  0  0  0  0  0  0  0  0  0  0
  187.6550  177.5200  148.8060 O   0  0  0  0  0  1  0  0  0  0  0  0
  189.6670  178.6180  148.7840 O   0  0  0  0  0  0  0  0  0  0  0  0
  189.4570  177.2870  139.9060 C   0  0  0  0  0  2  0  0  0  0  0  0
  189.0930  179.3090  138.7560 O   0  0  0  0  0  0  0  0  0  0  0  0
  189.2620  178.1020  138.6710 C   0  0  0  0  0  0  0  0  0  0  0  0
  186.4210  177.1020  137.0700 C   0  0  2  0  0  3  0  0  0  0  0  0
  188.7250  178.3420  136.2240 C   0  0  0  0  0  2  0  0  0  0  0  0
  189.3950  174.9640  137.5900 F   0  0  0  0  0  0  0  0  0  0  0  0
  184.9950  176.6500  136.8380 C   0  0  0  0  0  1  0  0  0  0  0  0
  187.0190  178.0120  135.6120 S   0  0  0  0  0  0  0  0  0  0  0  0
  188.6150  176.0590  137.3980 C   0  0  0  0  0  0  0  0  0  0  0  0
  189.2570  177.4200  137.3350 C   0  0  2  0  0  3  0  0  0  0  0  0
  187.2930  175.9110  137.2900 C   0  0  0  0  0  3  0  0  0  0  0  0
  1 11  1  0  0  0  0
  1  7  1  0  0  0  0
  2  4  1  6  0  0  0
  2  3  1  0  0  0  0
  3 16  1  1  0  0  0
  4 11  2  0  0  0  0
  5  1  2  0  0  0  0
  6 10  1  0  0  0  0
  8 15  1  0  0  0  0
  9  6  1  0  0  0  0
  9 12  1  0  0  0  0
 10  8  1  1  0  0  0
 10  2  1  0  0  0  0
 12  4  1  0  0  0  0
 13 12  2  0  0  0  0
 13  5  1  0  0  0  0
 14  8  2  0  0  0  0
 15  3  1  0  0  0  0
 16 17  1  0  0  0  0
 17 18  1  0  0  0  0
 18 20  2  0  0  0  0
 18 19  1  0  0  0  0
 21  6  1  0  0  0  0
 23 22  2  0  0  0  0
 23 21  1  0  0  0  0
 24 27  1  6  0  0  0
 24 31  1  0  0  0  0
 25 30  1  0  0  0  0
 28 25  1  0  0  0  0
 28 24  1  0  0  0  0
 29 26  1  0  0  0  0
 30 29  1  0  0  0  0
 30 23  1  1  0  0  0
 31 29  2  0  0  0  0
M  END
>  <MODEL>
7

>  <REMARK>
 VINA RESULT:      -8.3      3.723      6.811
  Name = 
  6 active torsions:
  status: ('A' for Active; 'I' for Inactive)
    1  A    between atoms: C_5  and  C_14
    2  A    between atoms: C_9  and  C_22
    3  A    between atoms: C_9  and  C_23
    4  A    between atoms: C_10  and  C_14
    5  A    between atoms: C_10  and  C_18
    6  A    between atoms: N_15  and  C_23
                            x       y       z     vdW  Elec       q    Type
                         _______ _______ _______ _____ _____    ______ ____

>  <TORSDO>
F 6

$$$$
=
 OpenBabel10272400343D

 31 34  0  0  1  0  0  0  0  0999 V2000
  189.7360  177.3350  146.1660 C   0  0  0  0  0  0  0  0  0  0  0  0
  188.4090  177.5630  142.6060 C   0  0  2  0  0  3  0  0  0  0  0  0
  187.1690  178.4600  142.6180 C   0  0  1  0  0  3  0  0  0  0  0  0
  189.3020  177.3940  143.7850 C   0  0  0  0  0  0  0  0  0  0  0  0
  191.0160  176.8260  145.9210 C   0  0  0  0  0  3  0  0  0  0  0  0
  190.1020  176.9200  141.0410 N   0  0  0  0  0  0  0  0  0  0  0  0
  189.3250  177.5520  147.4380 F   0  0  0  0  0  0  0  0  0  0  0  0
  188.1730  178.4620  140.5180 C   0  0  0  0  0  0  0  0  0  0  0  0
  191.1000  176.6750  142.1100 C   0  0  0  0  0  2  0  0  0  0  0  0
  189.2500  178.0410  141.4460 C   0  0  1  0  0  3  0  0  0  0  0  0
  188.8760  177.6100  145.0990 C   0  0  0  0  0  3  0  0  0  0  0  0
  190.5860  176.8620  143.5350 C   0  0  0  0  0  0  0  0  0  0  0  0
  191.4400  176.5950  144.6090 C   0  0  0  0  0  3  0  0  0  0  0  0
  188.3120  178.6400  139.2800 O   0  0  0  0  0  0  0  0  0  0  0  0
  186.9710  178.7740  141.2080 N   0  0  0  0  0  2  0  0  0  0  0  0
  185.9510  177.6980  143.1250 C   0  0  0  0  0  2  0  0  0  0  0  0
  184.7650  178.6180  143.3650 C   0  0  0  0  0  2  0  0  0  0  0  0
  184.6180  178.9330  144.8150 C   0  0  0  0  0  0  0  0  0  0  0  0
  183.3580  179.1560  145.3520 O   0  0  0  0  0  0  0  0  0  0  0  0
  185.6330  178.9680  145.5580 O   0  0  0  0  0  1  0  0  0  0  0  0
  190.8750  177.3230  139.8730 C   0  0  0  0  0  2  0  0  0  0  0  0
  189.9010  175.4100  138.9080 O   0  0  0  0  0  0  0  0  0  0  0  0
  190.6040  176.3930  138.7370 C   0  0  0  0  0  0  0  0  0  0  0  0
  191.8240  173.9660  136.6750 C   0  0  2  0  0  3  0  0  0  0  0  0
  190.3090  176.2190  136.2440 C   0  0  0  0  0  2  0  0  0  0  0  0
  193.6570  177.0430  137.5990 F   0  0  0  0  0  0  0  0  0  0  0  0
  192.4120  172.6520  136.2050 C   0  0  0  0  0  1  0  0  0  0  0  0
  190.7880  174.6770  135.3580 S   0  0  0  0  0  0  0  0  0  0  0  0
  192.6430  176.1850  137.3180 C   0  0  0  0  0  0  0  0  0  0  0  0
  191.2200  176.6720  137.3980 C   0  0  2  0  0  3  0  0  0  0  0  0
  192.9250  174.9200  136.9950 C   0  0  0  0  0  3  0  0  0  0  0  0
  1  7  1  0  0  0  0
  2  3  1  0  0  0  0
  2  4  1  1  0  0  0
  3 16  1  6  0  0  0
  4 11  1  0  0  0  0
  5  1  1  0  0  0  0
  6 10  1  0  0  0  0
  6  9  1  0  0  0  0
  8 15  1  0  0  0  0
  9 12  1  0  0  0  0
 10  8  1  6  0  0  0
 10  2  1  0  0  0  0
 11  1  2  0  0  0  0
 12  4  2  0  0  0  0
 12 13  1  0  0  0  0
 13  5  2  0  0  0  0
 14  8  2  0  0  0  0
 15  3  1  0  0  0  0
 16 17  1  0  0  0  0
 17 18  1  0  0  0  0
 18 19  2  0  0  0  0
 18 20  1  0  0  0  0
 21  6  1  0  0  0  0
 23 22  2  0  0  0  0
 23 21  1  0  0  0  0
 24 27  1  6  0  0  0
 24 31  1  0  0  0  0
 25 30  1  0  0  0  0
 28 25  1  0  0  0  0
 28 24  1  0  0  0  0
 29 30  1  0  0  0  0
 29 26  1  0  0  0  0
 30 23  1  1  0  0  0
 31 29  2  0  0  0  0
M  END
>  <MODEL>
8

>  <REMARK>
 VINA RESULT:      -8.2      4.173      5.931
  Name = 
  6 active torsions:
  status: ('A' for Active; 'I' for Inactive)
    1  A    between atoms: C_5  and  C_14
    2  A    between atoms: C_9  and  C_22
    3  A    between atoms: C_9  and  C_23
    4  A    between atoms: C_10  and  C_14
    5  A    between atoms: C_10  and  C_18
    6  A    between atoms: N_15  and  C_23
                            x       y       z     vdW  Elec       q    Type
                         _______ _______ _______ _____ _____    ______ ____

>  <TORSDO>
F 6

$$$$
=
 OpenBabel10272400343D

 31 34  0  0  1  0  0  0  0  0999 V2000
  191.0820  177.4480  144.2510 C   0  0  0  0  0  0  0  0  0  0  0  0
  187.8010  177.7730  142.3500 C   0  0  2  0  0  3  0  0  0  0  0  0
  186.7590  178.3680  143.3000 C   0  0  1  0  0  3  0  0  0  0  0  0
  189.2480  177.6740  142.6880 C   0  0  0  0  0  0  0  0  0  0  0  0
  191.9680  177.2630  143.1840 C   0  0  0  0  0  3  0  0  0  0  0  0
  188.1920  177.6960  139.9890 N   0  0  0  0  0  0  0  0  0  0  0  0
  191.5410  177.4260  145.5240 F   0  0  0  0  0  0  0  0  0  0  0  0
  186.2160  178.8250  141.0830 C   0  0  0  0  0  0  0  0  0  0  0  0
  189.6580  177.5590  140.1630 C   0  0  0  0  0  2  0  0  0  0  0  0
  187.6730  178.5500  141.0620 C   0  0  1  0  0  3  0  0  0  0  0  0
  189.7210  177.6440  144.0030 C   0  0  0  0  0  3  0  0  0  0  0  0
  190.1370  177.4690  141.6100 C   0  0  0  0  0  0  0  0  0  0  0  0
  191.4970  177.2780  141.8680 C   0  0  0  0  0  3  0  0  0  0  0  0
  185.5280  179.1650  140.0850 O   0  0  0  0  0  0  0  0  0  0  0  0
  185.6900  178.7860  142.4020 N   0  0  0  0  0  2  0  0  0  0  0  0
  186.2160  177.3060  144.2470 C   0  0  0  0  0  2  0  0  0  0  0  0
  186.4590  177.6660  145.7040 C   0  0  0  0  0  2  0  0  0  0  0  0
  185.4940  178.7040  146.1660 C   0  0  0  0  0  0  0  0  0  0  0  0
  184.1870  178.6950  145.6960 O   0  0  0  0  0  0  0  0  0  0  0  0
  185.8540  179.5710  147.0040 O   0  0  0  0  0  1  0  0  0  0  0  0
  188.0140  178.3860  138.7190 C   0  0  0  0  0  2  0  0  0  0  0  0
  186.3870  176.9310  137.8370 O   0  0  0  0  0  0  0  0  0  0  0  0
  187.4890  177.4370  137.6920 C   0  0  0  0  0  0  0  0  0  0  0  0
  188.2560  174.2500  136.7510 C   0  0  2  0  0  3  0  0  0  0  0  0
  187.5020  176.4980  135.3580 C   0  0  0  0  0  2  0  0  0  0  0  0
  190.7280  176.9780  137.1150 F   0  0  0  0  0  0  0  0  0  0  0  0
  188.5140  172.7600  136.8270 C   0  0  0  0  0  1  0  0  0  0  0  0
  187.6500  174.6820  135.0890 S   0  0  0  0  0  0  0  0  0  0  0  0
  189.5640  176.3200  136.8810 C   0  0  0  0  0  0  0  0  0  0  0  0
  188.3360  177.1040  136.5010 C   0  0  2  0  0  3  0  0  0  0  0  0
  189.5240  174.9910  137.0130 C   0  0  0  0  0  3  0  0  0  0  0  0
  1  7  1  0  0  0  0
  2  4  1  1  0  0  0
  2  3  1  0  0  0  0
  3 16  1  1  0  0  0
  4 11  2  0  0  0  0
  5  1  2  0  0  0  0
  6  9  1  0  0  0  0
  6 10  1  0  0  0  0
  8 15  1  0  0  0  0
  9 12  1  0  0  0  0
 10  8  1  6  0  0  0
 10  2  1  0  0  0  0
 11  1  1  0  0  0  0
 12 13  2  0  0  0  0
 12  4  1  0  0  0  0
 13  5  1  0  0  0  0
 14  8  2  0  0  0  0
 15  3  1  0  0  0  0
 16 17  1  0  0  0  0
 17 18  1  0  0  0  0
 18 20  1  0  0  0  0
 19 18  2  0  0  0  0
 21  6  1  0  0  0  0
 23 22  2  0  0  0  0
 23 21  1  0  0  0  0
 24 27  1  6  0  0  0
 24 31  1  0  0  0  0
 25 30  1  0  0  0  0
 28 25  1  0  0  0  0
 28 24  1  0  0  0  0
 29 31  2  0  0  0  0
 29 26  1  0  0  0  0
 30 29  1  0  0  0  0
 30 23  1  1  0  0  0
M  END
>  <MODEL>
9

>  <REMARK>
 VINA RESULT:      -8.2      4.003      6.669
  Name = 
  6 active torsions:
  status: ('A' for Active; 'I' for Inactive)
    1  A    between atoms: C_5  and  C_14
    2  A    between atoms: C_9  and  C_22
    3  A    between atoms: C_9  and  C_23
    4  A    between atoms: C_10  and  C_14
    5  A    between atoms: C_10  and  C_18
    6  A    between atoms: N_15  and  C_23
                            x       y       z     vdW  Elec       q    Type
                         _______ _______ _______ _____ _____    ______ ____

>  <TORSDO>
F 6

$$$$
