=
 OpenBabel10272413333D

 32 36  0  0  0  0  0  0  0  0999 V2000
  182.3560  178.1630  139.9840 C   0  0  0  0  0  2  0  0  0  0  0  0
  186.1250  178.2280  143.2870 C   0  0  0  0  0  0  0  0  0  0  0  0
  189.8720  177.7070  140.1300 C   0  0  0  0  0  3  0  0  0  0  0  0
  190.6200  177.3400  141.1720 C   0  0  0  0  0  3  0  0  0  0  0  0
  183.8710  178.7320  142.5070 C   0  0  0  0  0  0  0  0  0  0  0  0
  185.7170  178.6290  140.9300 C   0  0  0  0  0  3  0  0  0  0  0  0
  183.4870  179.1610  140.0310 C   0  0  0  0  0  2  0  0  0  0  0  0
  188.4710  178.2360  140.2810 C   0  0  0  0  0  2  0  0  0  0  0  0
  186.6180  178.3190  141.9590 C   0  0  0  0  0  0  0  0  0  0  0  0
  187.9230  178.1030  141.6870 C   0  0  0  0  0  0  0  0  0  0  0  0
  188.2960  177.7650  144.1330 N   0  0  0  0  0  0  0  0  0  0  0  0
  179.9960  179.7360  142.8550 S   0  0  0  0  0  0  0  0  0  0  0  0
  181.3100  179.1210  142.0880 C   0  0  0  0  0  0  0  0  0  0  0  0
  184.3600  178.8380  141.1880 C   0  0  0  0  0  0  0  0  0  0  0  0
  182.5010  178.9600  142.8760 N   0  0  0  0  0  2  0  0  0  0  0  0
  181.2150  178.6910  140.7100 N   0  0  0  0  0  0  0  0  0  0  0  0
  190.0990  177.3950  142.5460 C   0  0  0  0  0  3  0  0  0  0  0  0
  188.8390  177.7670  142.7990 C   0  0  0  0  0  0  0  0  0  0  0  0
  184.7670  178.4360  143.5370 C   0  0  0  0  0  3  0  0  0  0  0  0
  186.9130  177.9690  144.2910 N   0  0  0  0  0  0  0  0  0  0  0  0
  191.1210  176.6110  146.2850 C   0  0  0  0  0  0  0  0  0  0  0  0
  190.6620  176.9530  147.5590 C   0  0  0  0  0  3  0  0  0  0  0  0
  188.6230  177.8380  146.5890 C   0  0  0  0  0  0  0  0  0  0  0  0
  188.9680  177.8780  148.9530 F   0  0  0  0  0  0  0  0  0  0  0  0
  189.4140  177.5640  147.7120 C   0  0  0  0  0  0  0  0  0  0  0  0
  190.3370  176.8850  145.1620 C   0  0  0  0  0  3  0  0  0  0  0  0
  192.3270  176.0110  146.1400 F   0  0  0  0  0  0  0  0  0  0  0  0
  187.3920  178.3820  146.7580 F   0  0  0  0  0  0  0  0  0  0  0  0
  189.0930  177.5130  145.3010 C   0  0  0  0  0  0  0  0  0  0  0  0
  179.9820  178.8380  139.9430 C   0  0  0  0  0  2  0  0  0  0  0  0
  180.1560  179.8560  138.8250 C   0  0  0  0  0  2  0  0  0  0  0  0
  180.2110  181.1970  139.3800 N   0  0  0  0  0  1  0  0  0  0  0  0
  1  7  1  0  0  0  0
  1 16  1  0  0  0  0
  2 19  1  0  0  0  0
  2 20  2  0  0  0  0
  3  8  1  0  0  0  0
  3  4  2  0  0  0  0
  4 17  1  0  0  0  0
  5 15  1  0  0  0  0
  5 19  2  0  0  0  0
  6 14  2  0  0  0  0
  6  9  1  0  0  0  0
  7 14  1  0  0  0  0
  8 10  1  0  0  0  0
  9  2  1  0  0  0  0
 10  9  2  0  0  0  0
 10 18  1  0  0  0  0
 11 20  1  0  0  0  0
 11 29  1  0  0  0  0
 13 12  2  0  0  0  0
 13 15  1  0  0  0  0
 14  5  1  0  0  0  0
 16 13  1  0  0  0  0
 17 18  2  0  0  0  0
 18 11  1  0  0  0  0
 21 22  1  0  0  0  0
 22 25  2  0  0  0  0
 23 28  1  0  0  0  0
 23 25  1  0  0  0  0
 25 24  1  0  0  0  0
 26 29  1  0  0  0  0
 26 21  2  0  0  0  0
 27 21  1  0  0  0  0
 29 23  2  0  0  0  0
 30 16  1  0  0  0  0
 31 32  1  0  0  0  0
 31 30  1  0  0  0  0
M  END
>  <MODEL>
1

>  <REMARK>
 VINA RESULT:     -10.2      0.000      0.000
  Name = 
  3 active torsions:
  status: ('A' for Active; 'I' for Inactive)
    1  A    between atoms: C_1  and  C_10
    2  A    between atoms: C_10  and  N_24
    3  A    between atoms: N_16  and  C_32
                            x       y       z     vdW  Elec       q    Type
                         _______ _______ _______ _____ _____    ______ ____

>  <TORSDO>
F 3

$$$$
=
 OpenBabel10272413333D

 32 36  0  0  0  0  0  0  0  0999 V2000
  191.9720  175.6070  138.0750 C   0  0  0  0  0  2  0  0  0  0  0  0
  188.6680  177.5280  141.3170 C   0  0  0  0  0  0  0  0  0  0  0  0
  191.3370  177.0760  145.4350 C   0  0  0  0  0  3  0  0  0  0  0  0
  190.1990  177.2140  146.1160 C   0  0  0  0  0  3  0  0  0  0  0  0
  189.6700  177.2190  139.1160 C   0  0  0  0  0  0  0  0  0  0  0  0
  191.0520  177.1330  141.1130 C   0  0  0  0  0  3  0  0  0  0  0  0
  192.1750  176.8240  138.9430 C   0  0  0  0  0  2  0  0  0  0  0  0
  191.4200  177.2640  143.9440 C   0  0  0  0  0  2  0  0  0  0  0  0
  189.9360  177.3580  141.9320 C   0  0  0  0  0  0  0  0  0  0  0  0
  190.0680  177.4020  143.2750 C   0  0  0  0  0  0  0  0  0  0  0  0
  187.6190  177.8720  143.4210 N   0  0  0  0  0  0  0  0  0  0  0  0
  189.8270  177.2940  135.1020 S   0  0  0  0  0  0  0  0  0  0  0  0
  190.3080  176.8310  136.6010 C   0  0  0  0  0  0  0  0  0  0  0  0
  190.9350  177.0660  139.7230 C   0  0  0  0  0  0  0  0  0  0  0  0
  189.4530  177.1980  137.6960 N   0  0  0  0  0  2  0  0  0  0  0  0
  191.4950  176.0200  136.7680 N   0  0  0  0  0  0  0  0  0  0  0  0
  188.9320  177.5250  145.4360 C   0  0  0  0  0  3  0  0  0  0  0  0
  188.8640  177.6310  144.1040 C   0  0  0  0  0  0  0  0  0  0  0  0
  188.5570  177.4570  139.9270 C   0  0  0  0  0  3  0  0  0  0  0  0
  187.5960  177.7640  142.0180 N   0  0  0  0  0  0  0  0  0  0  0  0
  185.2160  178.5480  146.1980 C   0  0  0  0  0  0  0  0  0  0  0  0
  184.0130  178.6840  145.5020 C   0  0  0  0  0  3  0  0  0  0  0  0
  185.1750  178.2810  143.4120 C   0  0  0  0  0  0  0  0  0  0  0  0
  182.8160  178.6650  143.4440 F   0  0  0  0  0  0  0  0  0  0  0  0
  183.9910  178.5490  144.1110 C   0  0  0  0  0  0  0  0  0  0  0  0
  186.4000  178.2830  145.5050 C   0  0  0  0  0  3  0  0  0  0  0  0
  185.2350  178.6710  147.5480 F   0  0  0  0  0  0  0  0  0  0  0  0
  185.1280  178.0990  142.0680 F   0  0  0  0  0  0  0  0  0  0  0  0
  186.3930  178.1640  144.1090 C   0  0  0  0  0  0  0  0  0  0  0  0
  192.3280  175.6360  135.6320 C   0  0  0  0  0  2  0  0  0  0  0  0
  193.7660  175.4000  136.0700 C   0  0  0  0  0  2  0  0  0  0  0  0
  194.5440  176.6130  135.8910 N   0  0  0  0  0  1  0  0  0  0  0  0
  1  7  1  0  0  0  0
  2  9  1  0  0  0  0
  2 20  2  0  0  0  0
  3  4  2  0  0  0  0
  5 14  1  0  0  0  0
  5 19  2  0  0  0  0
  6  9  1  0  0  0  0
  7 14  1  0  0  0  0
  8  3  1  0  0  0  0
  9 10  2  0  0  0  0
 10  8  1  0  0  0  0
 10 18  1  0  0  0  0
 11 18  1  0  0  0  0
 11 29  1  0  0  0  0
 12 13  2  0  0  0  0
 13 16  1  0  0  0  0
 13 15  1  0  0  0  0
 14  6  2  0  0  0  0
 15  5  1  0  0  0  0
 16  1  1  0  0  0  0
 17  4  1  0  0  0  0
 18 17  2  0  0  0  0
 19  2  1  0  0  0  0
 20 11  1  0  0  0  0
 21 27  1  0  0  0  0
 22 21  2  0  0  0  0
 23 29  1  0  0  0  0
 23 25  2  0  0  0  0
 24 25  1  0  0  0  0
 25 22  1  0  0  0  0
 26 21  1  0  0  0  0
 28 23  1  0  0  0  0
 29 26  2  0  0  0  0
 30 31  1  0  0  0  0
 30 16  1  0  0  0  0
 32 31  1  0  0  0  0
M  END
>  <MODEL>
2

>  <REMARK>
 VINA RESULT:     -10.1      4.274      7.751
  Name = 
  3 active torsions:
  status: ('A' for Active; 'I' for Inactive)
    1  A    between atoms: C_1  and  C_10
    2  A    between atoms: C_10  and  N_24
    3  A    between atoms: N_16  and  C_32
                            x       y       z     vdW  Elec       q    Type
                         _______ _______ _______ _____ _____    ______ ____

>  <TORSDO>
F 3

$$$$
=
 OpenBabel10272413333D

 32 36  0  0  1  0  0  0  0  0999 V2000
  181.2940  180.2060  140.2600 C   0  0  0  0  0  2  0  0  0  0  0  0
  185.6410  178.3070  141.8770 C   0  0  0  0  0  0  0  0  0  0  0  0
  184.8170  178.6190  146.7250 C   0  0  0  0  0  3  0  0  0  0  0  0
  186.1340  178.4970  146.8960 C   0  0  0  0  0  3  0  0  0  0  0  0
  183.8440  178.6310  140.2620 C   0  0  0  0  0  0  0  0  0  0  0  0
  183.3650  178.6470  142.6440 C   0  0  0  0  0  3  0  0  0  0  0  0
  181.4700  178.9690  141.1050 C   0  0  0  0  0  2  0  0  0  0  0  0
  184.1520  178.4570  145.3840 C   0  0  0  0  0  3  0  0  0  0  0  0
  184.7180  178.4350  142.9480 C   0  0  0  0  0  0  0  0  0  0  0  0
  185.1300  178.3630  144.2320 C   0  0  0  0  0  0  0  0  0  0  0  0
  187.4430  177.9510  143.3840 N   0  0  0  0  0  0  0  0  0  0  0  0
  182.1090  178.6260  136.6370 S   0  0  0  0  0  0  0  0  0  0  0  0
  182.2550  179.0500  138.2160 C   0  0  0  0  0  0  0  0  0  0  0  0
  182.9210  178.7430  141.3240 C   0  0  0  0  0  0  0  0  0  0  0  0
  183.4790  178.6840  138.8730 N   0  0  0  0  0  2  0  0  0  0  0  0
  181.2190  179.8290  138.8610 N   0  0  0  0  0  0  0  0  0  0  0  0
  187.0320  178.2290  145.7620 C   0  0  0  0  0  3  0  0  0  0  0  0
  186.5680  178.1490  144.5100 C   0  0  1  0  0  3  0  0  0  0  0  0
  185.1900  178.4060  140.5590 C   0  0  0  0  0  3  0  0  0  0  0  0
  186.9060  178.0840  142.0900 N   0  0  0  0  0  0  0  0  0  0  0  0
  191.1080  178.4980  143.8420 C   0  0  0  0  0  0  0  0  0  0  0  0
  191.6010  177.1950  143.7450 C   0  0  0  0  0  3  0  0  0  0  0  0
  189.3480  176.3660  143.4040 C   0  0  0  0  0  0  0  0  0  0  0  0
  191.2120  174.8700  143.4160 F   0  0  0  0  0  0  0  0  0  0  0  0
  190.7230  176.1300  143.5250 C   0  0  0  0  0  0  0  0  0  0  0  0
  189.7370  178.7380  143.7240 C   0  0  0  0  0  3  0  0  0  0  0  0
  191.9610  179.5310  144.0470 F   0  0  0  0  0  0  0  0  0  0  0  0
  188.5160  175.3280  143.1360 F   0  0  0  0  0  0  0  0  0  0  0  0
  188.8460  177.6760  143.5220 C   0  0  0  0  0  0  0  0  0  0  0  0
  179.9990  180.2130  138.1580 C   0  0  0  0  0  2  0  0  0  0  0  0
  179.9820  181.7080  137.8780 C   0  0  0  0  0  2  0  0  0  0  0  0
  180.0440  181.9460  136.4470 N   0  0  0  0  0  1  0  0  0  0  0  0
  1  7  1  0  0  0  0
  2 20  2  0  0  0  0
  2  9  1  0  0  0  0
  3  4  1  0  0  0  0
  5 19  2  0  0  0  0
  5 14  1  0  0  0  0
  6  9  1  0  0  0  0
  7 14  1  0  0  0  0
  8  3  2  0  0  0  0
  9 10  2  0  0  0  0
 10 18  1  0  0  0  0
 10  8  1  0  0  0  0
 11 29  1  0  0  0  0
 11 18  1  0  0  0  0
 12 13  2  0  0  0  0
 13 16  1  0  0  0  0
 13 15  1  0  0  0  0
 14  6  2  0  0  0  0
 15  5  1  0  0  0  0
 16  1  1  0  0  0  0
 17  4  2  0  0  0  0
 18 17  1  6  0  0  0
 19  2  1  0  0  0  0
 20 11  1  0  0  0  0
 21 27  1  0  0  0  0
 22 21  1  0  0  0  0
 23 29  2  0  0  0  0
 23 25  1  0  0  0  0
 24 25  1  0  0  0  0
 25 22  2  0  0  0  0
 26 21  2  0  0  0  0
 28 23  1  0  0  0  0
 29 26  1  0  0  0  0
 30 16  1  0  0  0  0
 31 30  1  0  0  0  0
 32 31  1  0  0  0  0
M  END
>  <MODEL>
3

>  <REMARK>
 VINA RESULT:     -10.1      2.704      4.010
  Name = 
  3 active torsions:
  status: ('A' for Active; 'I' for Inactive)
    1  A    between atoms: C_1  and  C_10
    2  A    between atoms: C_10  and  N_24
    3  A    between atoms: N_16  and  C_32
                            x       y       z     vdW  Elec       q    Type
                         _______ _______ _______ _____ _____    ______ ____

>  <TORSDO>
F 3

$$$$
=
 OpenBabel10272413333D

 32 36  0  0  1  0  0  0  0  0999 V2000
  188.7870  176.4270  143.9600 C   0  0  0  0  0  2  0  0  0  0  0  0
  185.4260  178.5560  140.9130 C   0  0  0  0  0  0  0  0  0  0  0  0
  181.6060  178.6970  144.0220 C   0  0  0  0  0  3  0  0  0  0  0  0
  180.8220  178.8610  142.9560 C   0  0  0  0  0  3  0  0  0  0  0  0
  187.6780  178.0430  141.6930 C   0  0  0  0  0  0  0  0  0  0  0  0
  185.8500  178.2480  143.2810 C   0  0  0  0  0  3  0  0  0  0  0  0
  188.0840  177.7430  144.1840 C   0  0  0  0  0  2  0  0  0  0  0  0
  183.1090  178.7170  143.9370 C   0  0  0  0  0  3  0  0  0  0  0  0
  184.9410  178.5150  142.2460 C   0  0  0  0  0  0  0  0  0  0  0  0
  183.6340  178.7180  142.5160 C   0  0  0  0  0  0  0  0  0  0  0  0
  183.2680  179.0900  140.0740 N   0  0  0  0  0  0  0  0  0  0  0  0
  191.6690  177.6670  141.4220 S   0  0  0  0  0  0  0  0  0  0  0  0
  190.1920  177.3990  142.0840 C   0  0  0  0  0  0  0  0  0  0  0  0
  187.2030  178.0170  143.0220 C   0  0  0  0  0  0  0  0  0  0  0  0
  189.0550  177.8500  141.3300 N   0  0  0  0  0  2  0  0  0  0  0  0
  190.0700  176.6670  143.3260 N   0  0  0  0  0  0  0  0  0  0  0  0
  181.3860  179.0350  141.6090 C   0  0  0  0  0  3  0  0  0  0  0  0
  182.7060  178.9850  141.3950 C   0  0  1  0  0  3  0  0  0  0  0  0
  186.7790  178.3220  140.6600 C   0  0  0  0  0  3  0  0  0  0  0  0
  184.6410  178.8230  139.9090 N   0  0  0  0  0  0  0  0  0  0  0  0
  181.3150  181.0580  137.5730 C   0  0  0  0  0  0  0  0  0  0  0  0
  180.9110  180.0600  136.6840 C   0  0  0  0  0  3  0  0  0  0  0  0
  182.0580  178.3970  138.0250 C   0  0  0  0  0  0  0  0  0  0  0  0
  180.8680  177.7650  136.0510 F   0  0  0  0  0  0  0  0  0  0  0  0
  181.2800  178.7310  136.9100 C   0  0  0  0  0  0  0  0  0  0  0  0
  182.0940  180.7300  138.6850 C   0  0  0  0  0  3  0  0  0  0  0  0
  180.9490  182.3450  137.3570 F   0  0  0  0  0  0  0  0  0  0  0  0
  182.3620  177.0960  138.2600 F   0  0  0  0  0  0  0  0  0  0  0  0
  182.4850  179.4040  138.9120 C   0  0  0  0  0  0  0  0  0  0  0  0
  191.2430  176.1930  144.0550 C   0  0  0  0  0  2  0  0  0  0  0  0
  191.5920  177.1400  145.1940 C   0  0  0  0  0  2  0  0  0  0  0  0
  191.9870  176.3800  146.3670 N   0  0  0  0  0  1  0  0  0  0  0  0
  1  7  1  0  0  0  0
  2  9  1  0  0  0  0
  4  3  1  0  0  0  0
  5 14  1  0  0  0  0
  8  3  2  0  0  0  0
  9 10  2  0  0  0  0
  9  6  1  0  0  0  0
 10  8  1  0  0  0  0
 11 18  1  0  0  0  0
 12 13  2  0  0  0  0
 13 16  1  0  0  0  0
 14  6  2  0  0  0  0
 14  7  1  0  0  0  0
 15  5  1  0  0  0  0
 15 13  1  0  0  0  0
 16  1  1  0  0  0  0
 16 30  1  0  0  0  0
 17  4  2  0  0  0  0
 18 17  1  6  0  0  0
 18 10  1  0  0  0  0
 19  2  1  0  0  0  0
 19  5  2  0  0  0  0
 20 11  1  0  0  0  0
 20  2  2  0  0  0  0
 21 26  1  0  0  0  0
 22 25  1  0  0  0  0
 22 21  2  0  0  0  0
 23 28  1  0  0  0  0
 23 29  1  0  0  0  0
 24 25  1  0  0  0  0
 25 23  2  0  0  0  0
 26 29  2  0  0  0  0
 27 21  1  0  0  0  0
 29 11  1  0  0  0  0
 30 31  1  0  0  0  0
 31 32  1  0  0  0  0
M  END
>  <MODEL>
4

>  <REMARK>
 VINA RESULT:      -9.8      4.564      9.682
  Name = 
  3 active torsions:
  status: ('A' for Active; 'I' for Inactive)
    1  A    between atoms: C_1  and  C_10
    2  A    between atoms: C_10  and  N_24
    3  A    between atoms: N_16  and  C_32
                            x       y       z     vdW  Elec       q    Type
                         _______ _______ _______ _____ _____    ______ ____

>  <TORSDO>
F 3

$$$$
=
 OpenBabel10272413333D

 32 36  0  0  1  0  0  0  0  0999 V2000
  186.5300  177.5520  143.5940 C   0  0  0  0  0  2  0  0  0  0  0  0
  190.1230  176.6750  140.2120 C   0  0  0  0  0  0  0  0  0  0  0  0
  187.7310  178.2110  136.1880 C   0  0  0  0  0  3  0  0  0  0  0  0
  188.6230  177.5280  135.4700 C   0  0  0  0  0  3  0  0  0  0  0  0
  189.2680  177.1330  142.4490 C   0  0  0  0  0  0  0  0  0  0  0  0
  188.1360  178.0350  140.4970 C   0  0  0  0  0  3  0  0  0  0  0  0
  187.1910  178.5760  142.7060 C   0  0  0  0  0  2  0  0  0  0  0  0
  187.8550  178.3970  137.6760 C   0  0  0  0  0  3  0  0  0  0  0  0
  189.0670  177.4310  139.6400 C   0  0  0  0  0  0  0  0  0  0  0  0
  188.9530  177.5600  138.3000 C   0  0  0  0  0  0  0  0  0  0  0  0
  191.0400  176.2090  138.0710 N   0  0  0  0  0  0  0  0  0  0  0  0
  189.3540  177.2770  146.4630 S   0  0  0  0  0  0  0  0  0  0  0  0
  188.6310  177.2810  144.9900 C   0  0  0  0  0  0  0  0  0  0  0  0
  188.2250  177.8990  141.8840 C   0  0  0  0  0  0  0  0  0  0  0  0
  189.4620  176.9610  143.8620 N   0  0  0  0  0  2  0  0  0  0  0  0
  187.2080  177.5150  144.8770 N   0  0  0  0  0  0  0  0  0  0  0  0
  189.7780  176.8740  136.1040 C   0  0  0  0  0  3  0  0  0  0  0  0
  189.9500  176.8980  137.4310 C   0  0  1  0  0  3  0  0  0  0  0  0
  190.2060  176.5400  141.6000 C   0  0  0  0  0  3  0  0  0  0  0  0
  191.0350  176.1090  139.4750 N   0  0  0  0  0  0  0  0  0  0  0  0
  194.2480  175.7490  136.2160 C   0  0  0  0  0  0  0  0  0  0  0  0
  194.1800  174.3980  135.8680 C   0  0  0  0  0  3  0  0  0  0  0  0
  192.0280  174.2200  136.9700 C   0  0  0  0  0  0  0  0  0  0  0  0
  193.0060  172.3280  135.8850 F   0  0  0  0  0  0  0  0  0  0  0  0
  193.0710  173.6340  136.2420 C   0  0  0  0  0  0  0  0  0  0  0  0
  193.2110  176.3360  136.9440 C   0  0  0  0  0  3  0  0  0  0  0  0
  195.3200  176.4900  135.8450 F   0  0  0  0  0  0  0  0  0  0  0  0
  190.9340  173.4790  137.2790 F   0  0  0  0  0  0  0  0  0  0  0  0
  192.1030  175.5760  137.3400 C   0  0  0  0  0  0  0  0  0  0  0  0
  186.3830  177.8080  146.0450 C   0  0  0  0  0  2  0  0  0  0  0  0
  185.6320  179.1190  145.8650 C   0  0  0  0  0  2  0  0  0  0  0  0
  184.2080  178.9050  146.0580 N   0  0  0  0  0  1  0  0  0  0  0  0
  1 16  1  0  0  0  0
  2 19  1  0  0  0  0
  3  8  2  0  0  0  0
  4 17  2  0  0  0  0
  4  3  1  0  0  0  0
  5 15  1  0  0  0  0
  6 14  2  0  0  0  0
  7  1  1  0  0  0  0
  8 10  1  0  0  0  0
  9  2  1  0  0  0  0
  9  6  1  0  0  0  0
 10  9  2  0  0  0  0
 11 20  1  0  0  0  0
 13 12  2  0  0  0  0
 14  5  1  0  0  0  0
 14  7  1  0  0  0  0
 15 13  1  0  0  0  0
 16 13  1  0  0  0  0
 16 30  1  0  0  0  0
 18 17  1  1  0  0  0
 18 11  1  0  0  0  0
 18 10  1  0  0  0  0
 19  5  2  0  0  0  0
 20  2  2  0  0  0  0
 21 26  1  0  0  0  0
 22 21  2  0  0  0  0
 22 25  1  0  0  0  0
 23 28  1  0  0  0  0
 23 29  1  0  0  0  0
 24 25  1  0  0  0  0
 25 23  2  0  0  0  0
 26 29  2  0  0  0  0
 27 21  1  0  0  0  0
 29 11  1  0  0  0  0
 31 30  1  0  0  0  0
 31 32  1  0  0  0  0
M  END
>  <MODEL>
5

>  <REMARK>
 VINA RESULT:      -9.7      5.218      8.073
  Name = 
  3 active torsions:
  status: ('A' for Active; 'I' for Inactive)
    1  A    between atoms: C_1  and  C_10
    2  A    between atoms: C_10  and  N_24
    3  A    between atoms: N_16  and  C_32
                            x       y       z     vdW  Elec       q    Type
                         _______ _______ _______ _____ _____    ______ ____

>  <TORSDO>
F 3

$$$$
=
 OpenBabel10272413333D

 32 36  0  0  1  0  0  0  0  0999 V2000
  186.5670  177.7250  143.5890 C   0  0  0  0  0  2  0  0  0  0  0  0
  190.0980  176.6250  140.2080 C   0  0  0  0  0  0  0  0  0  0  0  0
  187.7730  178.2330  136.1720 C   0  0  0  0  0  3  0  0  0  0  0  0
  188.6270  177.4960  135.4600 C   0  0  0  0  0  3  0  0  0  0  0  0
  189.2760  177.1530  142.4410 C   0  0  0  0  0  0  0  0  0  0  0  0
  188.1840  178.0890  140.4810 C   0  0  0  0  0  3  0  0  0  0  0  0
  187.2760  178.7040  142.6860 C   0  0  0  0  0  2  0  0  0  0  0  0
  187.9120  178.4300  137.6580 C   0  0  0  0  0  3  0  0  0  0  0  0
  189.0810  177.4270  139.6290 C   0  0  0  0  0  0  0  0  0  0  0  0
  188.9680  177.5460  138.2890 C   0  0  0  0  0  0  0  0  0  0  0  0
  190.9830  176.0870  138.0690 N   0  0  0  0  0  0  0  0  0  0  0  0
  189.3840  177.3410  146.4530 S   0  0  0  0  0  0  0  0  0  0  0  0
  188.6560  177.3640  144.9820 C   0  0  0  0  0  0  0  0  0  0  0  0
  188.2720  177.9650  141.8700 C   0  0  0  0  0  0  0  0  0  0  0  0
  189.4660  176.9890  143.8550 N   0  0  0  0  0  2  0  0  0  0  0  0
  187.2470  177.6700  144.8700 N   0  0  0  0  0  0  0  0  0  0  0  0
  189.7490  176.7930  136.0980 C   0  0  0  0  0  3  0  0  0  0  0  0
  189.9270  176.8230  137.4240 C   0  0  1  0  0  3  0  0  0  0  0  0
  190.1790  176.5030  141.5960 C   0  0  0  0  0  3  0  0  0  0  0  0
  190.9770  176.0050  139.4740 N   0  0  0  0  0  0  0  0  0  0  0  0
  192.8000  173.3510  136.2930 C   0  0  0  0  0  0  0  0  0  0  0  0
  194.0050  173.9780  135.9700 C   0  0  0  0  0  3  0  0  0  0  0  0
  193.2340  176.0150  137.0340 C   0  0  0  0  0  0  0  0  0  0  0  0
  195.4040  175.9030  136.0380 F   0  0  0  0  0  0  0  0  0  0  0  0
  194.2240  175.3080  136.3410 C   0  0  0  0  0  0  0  0  0  0  0  0
  191.8090  174.0540  136.9820 C   0  0  0  0  0  3  0  0  0  0  0  0
  192.5930  172.0590  135.9400 F   0  0  0  0  0  0  0  0  0  0  0  0
  193.4830  177.2880  137.4350 F   0  0  0  0  0  0  0  0  0  0  0  0
  192.0100  175.3930  137.3430 C   0  0  0  0  0  0  0  0  0  0  0  0
  186.4420  178.0170  146.0370 C   0  0  0  0  0  2  0  0  0  0  0  0
  185.5050  179.1750  145.7240 C   0  0  0  0  0  2  0  0  0  0  0  0
  184.1310  178.7850  145.9890 N   0  0  0  0  0  1  0  0  0  0  0  0
  1 16  1  0  0  0  0
  2 19  1  0  0  0  0
  3  8  2  0  0  0  0
  4 17  2  0  0  0  0
  4  3  1  0  0  0  0
  5 15  1  0  0  0  0
  6 14  2  0  0  0  0
  7  1  1  0  0  0  0
  8 10  1  0  0  0  0
  9  2  1  0  0  0  0
  9  6  1  0  0  0  0
 10  9  2  0  0  0  0
 11 20  1  0  0  0  0
 13 12  2  0  0  0  0
 14  5  1  0  0  0  0
 14  7  1  0  0  0  0
 15 13  1  0  0  0  0
 16 13  1  0  0  0  0
 16 30  1  0  0  0  0
 18 17  1  1  0  0  0
 18 11  1  0  0  0  0
 18 10  1  0  0  0  0
 19  5  2  0  0  0  0
 20  2  2  0  0  0  0
 21 26  1  0  0  0  0
 22 21  2  0  0  0  0
 22 25  1  0  0  0  0
 23 29  1  0  0  0  0
 23 28  1  0  0  0  0
 24 25  1  0  0  0  0
 25 23  2  0  0  0  0
 26 29  2  0  0  0  0
 27 21  1  0  0  0  0
 29 11  1  0  0  0  0
 31 32  1  0  0  0  0
 31 30  1  0  0  0  0
M  END
>  <MODEL>
6

>  <REMARK>
 VINA RESULT:      -9.5      5.163      8.058
  Name = 
  3 active torsions:
  status: ('A' for Active; 'I' for Inactive)
    1  A    between atoms: C_1  and  C_10
    2  A    between atoms: C_10  and  N_24
    3  A    between atoms: N_16  and  C_32
                            x       y       z     vdW  Elec       q    Type
                         _______ _______ _______ _____ _____    ______ ____

>  <TORSDO>
F 3

$$$$
=
 OpenBabel10272413333D

 32 36  0  0  1  0  0  0  0  0999 V2000
  187.8330  176.9380  144.9580 C   0  0  0  0  0  2  0  0  0  0  0  0
  184.8600  178.5750  141.2700 C   0  0  0  0  0  0  0  0  0  0  0  0
  180.6000  178.6540  143.7440 C   0  0  0  0  0  3  0  0  0  0  0  0
  179.9830  178.6780  142.5620 C   0  0  0  0  0  3  0  0  0  0  0  0
  186.9910  178.2940  142.4210 C   0  0  0  0  0  0  0  0  0  0  0  0
  184.9270  178.4750  143.6920 C   0  0  0  0  0  3  0  0  0  0  0  0
  187.0210  178.2100  144.9610 C   0  0  0  0  0  2  0  0  0  0  0  0
  182.0930  178.7810  143.8850 C   0  0  0  0  0  3  0  0  0  0  0  0
  184.1770  178.5950  142.5130 C   0  0  0  0  0  0  0  0  0  0  0  0
  182.8320  178.7180  142.5650 C   0  0  0  0  0  0  0  0  0  0  0  0
  182.8310  178.8810  140.0730 N   0  0  0  0  0  0  0  0  0  0  0  0
  190.9910  178.2030  142.7870 S   0  0  0  0  0  0  0  0  0  0  0  0
  189.4480  177.8730  143.2390 C   0  0  0  0  0  0  0  0  0  0  0  0
  186.3160  178.3300  143.6600 C   0  0  0  0  0  0  0  0  0  0  0  0
  188.4160  178.1800  142.2870 N   0  0  0  0  0  2  0  0  0  0  0  0
  189.1810  177.2270  144.5060 N   0  0  0  0  0  0  0  0  0  0  0  0
  180.7390  178.7950  141.3060 C   0  0  0  0  0  3  0  0  0  0  0  0
  182.0760  178.8310  141.2980 C   0  0  1  0  0  3  0  0  0  0  0  0
  186.2480  178.4270  141.2450 C   0  0  0  0  0  3  0  0  0  0  0  0
  184.2260  178.7070  140.1400 N   0  0  0  0  0  0  0  0  0  0  0  0
  181.5690  178.0930  136.6480 C   0  0  0  0  0  0  0  0  0  0  0  0
  181.0810  179.3350  136.2360 C   0  0  0  0  0  3  0  0  0  0  0  0
  181.7460  180.3030  138.3570 C   0  0  0  0  0  0  0  0  0  0  0  0
  180.7110  181.6460  136.6730 F   0  0  0  0  0  0  0  0  0  0  0  0
  181.1710  180.4400  137.0880 C   0  0  0  0  0  0  0  0  0  0  0  0
  182.1410  177.9520  137.9140 C   0  0  0  0  0  3  0  0  0  0  0  0
  181.4890  177.0260  135.8170 F   0  0  0  0  0  0  0  0  0  0  0  0
  181.8750  181.3960  139.1510 F   0  0  0  0  0  0  0  0  0  0  0  0
  182.2200  179.0480  138.7840 C   0  0  0  0  0  0  0  0  0  0  0  0
  190.2530  176.9000  145.4410 C   0  0  0  0  0  2  0  0  0  0  0  0
  189.7330  176.8590  146.8700 C   0  0  0  0  0  2  0  0  0  0  0  0
  190.7570  177.3350  147.7840 N   0  0  0  0  0  1  0  0  0  0  0  0
  1  7  1  0  0  0  0
  2  9  1  0  0  0  0
  3  8  2  0  0  0  0
  4  3  1  0  0  0  0
  5 14  1  0  0  0  0
  9 10  2  0  0  0  0
  9  6  1  0  0  0  0
 10  8  1  0  0  0  0
 11 20  1  0  0  0  0
 11 18  1  0  0  0  0
 12 13  2  0  0  0  0
 13 16  1  0  0  0  0
 14  6  2  0  0  0  0
 14  7  1  0  0  0  0
 15  5  1  0  0  0  0
 15 13  1  0  0  0  0
 16  1  1  0  0  0  0
 16 30  1  0  0  0  0
 17  4  2  0  0  0  0
 18 17  1  6  0  0  0
 18 10  1  0  0  0  0
 19  2  1  0  0  0  0
 19  5  2  0  0  0  0
 20  2  2  0  0  0  0
 21 26  1  0  0  0  0
 22 21  2  0  0  0  0
 22 25  1  0  0  0  0
 23 29  1  0  0  0  0
 23 28  1  0  0  0  0
 24 25  1  0  0  0  0
 25 23  2  0  0  0  0
 26 29  2  0  0  0  0
 27 21  1  0  0  0  0
 29 11  1  0  0  0  0
 30 31  1  0  0  0  0
 31 32  1  0  0  0  0
M  END
>  <MODEL>
7

>  <REMARK>
 VINA RESULT:      -9.3      4.485      9.607
  Name = 
  3 active torsions:
  status: ('A' for Active; 'I' for Inactive)
    1  A    between atoms: C_1  and  C_10
    2  A    between atoms: C_10  and  N_24
    3  A    between atoms: N_16  and  C_32
                            x       y       z     vdW  Elec       q    Type
                         _______ _______ _______ _____ _____    ______ ____

>  <TORSDO>
F 3

$$$$
=
 OpenBabel10272413333D

 32 36  0  0  0  0  0  0  0  0999 V2000
  188.6500  178.3340  137.1100 C   0  0  0  0  0  2  0  0  0  0  0  0
  189.5990  177.1090  141.8760 C   0  0  0  0  0  0  0  0  0  0  0  0
  185.3430  178.5860  143.8720 C   0  0  0  0  0  3  0  0  0  0  0  0
  185.9620  178.5730  145.0530 C   0  0  0  0  0  3  0  0  0  0  0  0
  189.8730  176.9330  139.4600 C   0  0  0  0  0  0  0  0  0  0  0  0
  187.7140  177.5220  140.4070 C   0  0  0  0  0  3  0  0  0  0  0  0
  187.8700  177.3580  137.9550 C   0  0  0  0  0  2  0  0  0  0  0  0
  185.9810  178.0620  142.6140 C   0  0  0  0  0  2  0  0  0  0  0  0
  188.2340  177.4570  141.7080 C   0  0  0  0  0  0  0  0  0  0  0  0
  187.4500  177.7290  142.7740 C   0  0  0  0  0  0  0  0  0  0  0  0
  189.4080  177.2280  144.2410 N   0  0  0  0  0  0  0  0  0  0  0  0
  191.7110  175.9370  136.0290 S   0  0  0  0  0  0  0  0  0  0  0  0
  190.6260  176.7500  136.9530 C   0  0  0  0  0  0  0  0  0  0  0  0
  188.5120  177.2630  139.2900 C   0  0  0  0  0  0  0  0  0  0  0  0
  190.7640  176.6180  138.3770 N   0  0  0  0  0  2  0  0  0  0  0  0
  189.6440  177.6150  136.3350 N   0  0  0  0  0  0  0  0  0  0  0  0
  187.3380  178.0730  145.1920 C   0  0  0  0  0  3  0  0  0  0  0  0
  188.0390  177.6590  144.1300 C   0  0  0  0  0  0  0  0  0  0  0  0
  190.3920  176.8540  140.7550 C   0  0  0  0  0  3  0  0  0  0  0  0
  190.1370  177.0070  143.0570 N   0  0  0  0  0  0  0  0  0  0  0  0
  190.2350  177.6070  147.8630 C   0  0  0  0  0  0  0  0  0  0  0  0
  191.3790  176.8140  147.9740 C   0  0  0  0  0  3  0  0  0  0  0  0
  191.2430  176.2800  145.6130 C   0  0  0  0  0  0  0  0  0  0  0  0
  193.0050  175.3980  146.9650 F   0  0  0  0  0  0  0  0  0  0  0  0
  191.8840  176.1520  146.8510 C   0  0  0  0  0  0  0  0  0  0  0  0
  189.5900  177.7350  146.6300 C   0  0  0  0  0  3  0  0  0  0  0  0
  189.7510  178.2540  148.9510 F   0  0  0  0  0  0  0  0  0  0  0  0
  191.7760  175.6770  144.5210 F   0  0  0  0  0  0  0  0  0  0  0  0
  190.0770  177.0630  145.5010 C   0  0  0  0  0  0  0  0  0  0  0  0
  189.5480  177.7520  134.8850 C   0  0  0  0  0  2  0  0  0  0  0  0
  188.2060  177.2410  134.3800 C   0  0  0  0  0  2  0  0  0  0  0  0
  188.1540  175.7940  134.4880 N   0  0  0  0  0  1  0  0  0  0  0  0
  1  7  1  0  0  0  0
  2 20  2  0  0  0  0
  3  4  2  0  0  0  0
  4 17  1  0  0  0  0
  5 19  2  0  0  0  0
  6  9  1  0  0  0  0
  7 14  1  0  0  0  0
  8 10  1  0  0  0  0
  8  3  1  0  0  0  0
  9  2  1  0  0  0  0
  9 10  2  0  0  0  0
 10 18  1  0  0  0  0
 11 29  1  0  0  0  0
 12 13  2  0  0  0  0
 13 15  1  0  0  0  0
 14  5  1  0  0  0  0
 14  6  2  0  0  0  0
 15  5  1  0  0  0  0
 16 13  1  0  0  0  0
 16  1  1  0  0  0  0
 18 11  1  0  0  0  0
 18 17  2  0  0  0  0
 19  2  1  0  0  0  0
 20 11  1  0  0  0  0
 21 22  1  0  0  0  0
 21 27  1  0  0  0  0
 23 25  1  0  0  0  0
 25 24  1  0  0  0  0
 25 22  2  0  0  0  0
 26 21  2  0  0  0  0
 28 23  1  0  0  0  0
 29 23  2  0  0  0  0
 29 26  1  0  0  0  0
 30 16  1  0  0  0  0
 31 32  1  0  0  0  0
 31 30  1  0  0  0  0
M  END
>  <MODEL>
8

>  <REMARK>
 VINA RESULT:      -9.3      4.466      6.289
  Name = 
  3 active torsions:
  status: ('A' for Active; 'I' for Inactive)
    1  A    between atoms: C_1  and  C_10
    2  A    between atoms: C_10  and  N_24
    3  A    between atoms: N_16  and  C_32
                            x       y       z     vdW  Elec       q    Type
                         _______ _______ _______ _____ _____    ______ ____

>  <TORSDO>
F 3

$$$$
=
 OpenBabel10272413333D

 32 36  0  0  0  0  0  0  0  0999 V2000
  190.5550  178.0030  144.8280 C   0  0  0  0  0  2  0  0  0  0  0  0
  186.6660  178.1080  141.6680 C   0  0  0  0  0  0  0  0  0  0  0  0
  189.1670  177.9750  137.4250 C   0  0  0  0  0  3  0  0  0  0  0  0
  188.0600  178.4210  136.8290 C   0  0  0  0  0  3  0  0  0  0  0  0
  187.7600  177.6600  143.8000 C   0  0  0  0  0  0  0  0  0  0  0  0
  188.9960  177.4390  141.7190 C   0  0  0  0  0  3  0  0  0  0  0  0
  190.2000  176.9470  143.8110 C   0  0  0  0  0  2  0  0  0  0  0  0
  189.2010  177.5640  138.8730 C   0  0  0  0  0  2  0  0  0  0  0  0
  187.8690  177.8170  140.9750 C   0  0  0  0  0  0  0  0  0  0  0  0
  187.9350  177.9100  139.6290 C   0  0  0  0  0  0  0  0  0  0  0  0
  185.5160  178.5300  139.6320 N   0  0  0  0  0  0  0  0  0  0  0  0
  187.9740  176.9670  147.7520 S   0  0  0  0  0  0  0  0  0  0  0  0
  188.5680  177.3920  146.2830 C   0  0  0  0  0  0  0  0  0  0  0  0
  188.9550  177.3550  143.1130 C   0  0  0  0  0  0  0  0  0  0  0  0
  187.6100  177.5720  145.2260 N   0  0  0  0  0  2  0  0  0  0  0  0
  189.9820  177.6490  146.1130 N   0  0  0  0  0  0  0  0  0  0  0  0
  186.7990  178.5750  137.5700 C   0  0  0  0  0  3  0  0  0  0  0  0
  186.7270  178.3220  138.8820 C   0  0  0  0  0  0  0  0  0  0  0  0
  186.6310  178.0240  143.0620 C   0  0  0  0  0  3  0  0  0  0  0  0
  185.5770  178.4400  141.0360 N   0  0  0  0  0  0  0  0  0  0  0  0
  182.5540  180.5390  138.5670 C   0  0  0  0  0  0  0  0  0  0  0  0
  181.7990  179.5840  137.8820 C   0  0  0  0  0  3  0  0  0  0  0  0
  183.4900  177.9100  138.3450 C   0  0  0  0  0  0  0  0  0  0  0  0
  181.5170  177.3460  137.1210 F   0  0  0  0  0  0  0  0  0  0  0  0
  182.2650  178.2710  137.7730 C   0  0  0  0  0  0  0  0  0  0  0  0
  183.7790  180.1840  139.1380 C   0  0  0  0  0  3  0  0  0  0  0  0
  182.0970  181.8100  138.6790 F   0  0  0  0  0  0  0  0  0  0  0  0
  183.9030  176.6190  138.2780 F   0  0  0  0  0  0  0  0  0  0  0  0
  184.2640  178.8750  139.0190 C   0  0  0  0  0  0  0  0  0  0  0  0
  190.9280  177.4880  147.2130 C   0  0  0  0  0  2  0  0  0  0  0  0
  191.6600  176.1580  147.1080 C   0  0  0  0  0  2  0  0  0  0  0  0
  192.7200  176.0960  148.1000 N   0  0  0  0  0  1  0  0  0  0  0  0
  1 16  1  0  0  0  0
  2 19  1  0  0  0  0
  3  8  1  0  0  0  0
  4  3  2  0  0  0  0
  4 17  1  0  0  0  0
  5 15  1  0  0  0  0
  6 14  2  0  0  0  0
  7  1  1  0  0  0  0
  8 10  1  0  0  0  0
  9  2  1  0  0  0  0
  9  6  1  0  0  0  0
 10  9  2  0  0  0  0
 11 20  1  0  0  0  0
 13 12  2  0  0  0  0
 14  5  1  0  0  0  0
 14  7  1  0  0  0  0
 15 13  1  0  0  0  0
 16 13  1  0  0  0  0
 16 30  1  0  0  0  0
 17 18  2  0  0  0  0
 18 10  1  0  0  0  0
 18 11  1  0  0  0  0
 19  5  2  0  0  0  0
 20  2  2  0  0  0  0
 21 27  1  0  0  0  0
 21 26  1  0  0  0  0
 22 21  2  0  0  0  0
 23 29  1  0  0  0  0
 24 25  1  0  0  0  0
 25 22  1  0  0  0  0
 25 23  2  0  0  0  0
 28 23  1  0  0  0  0
 29 26  2  0  0  0  0
 29 11  1  0  0  0  0
 31 30  1  0  0  0  0
 31 32  1  0  0  0  0
M  END
>  <MODEL>
9

>  <REMARK>
 VINA RESULT:      -9.0      4.315      8.880
  Name = 
  3 active torsions:
  status: ('A' for Active; 'I' for Inactive)
    1  A    between atoms: C_1  and  C_10
    2  A    between atoms: C_10  and  N_24
    3  A    between atoms: N_16  and  C_32
                            x       y       z     vdW  Elec       q    Type
                         _______ _______ _______ _____ _____    ______ ____

>  <TORSDO>
F 3

$$$$
