=
 OpenBabel10272414253D

 43 47  0  0  1  0  0  0  0  0999 V2000
  191.4880  176.3110  147.0930 C   0  0  0  0  0  0  0  0  0  0  0  0
  187.3430  177.7960  144.7120 C   0  0  0  0  0  0  0  0  0  0  0  0
  187.9450  178.0160  141.9780 C   0  0  0  0  0  0  0  0  0  0  0  0
  189.2820  176.9960  146.5440 C   0  0  0  0  0  0  0  0  0  0  0  0
  191.8760  176.4020  145.7550 C   0  0  0  0  0  3  0  0  0  0  0  0
  192.5700  175.8500  148.2230 S   0  0  0  0  0  0  0  0  0  0  0  0
  189.6270  177.1020  145.1790 C   0  0  0  0  0  0  0  0  0  0  0  0
  190.2110  176.6070  147.4580 N   0  0  0  0  0  2  0  0  0  0  0  0
  190.9410  176.7990  144.7970 C   0  0  0  0  0  3  0  0  0  0  0  0
  188.9380  177.6210  142.8830 C   0  0  0  0  0  3  0  0  0  0  0  0
  188.6500  177.5050  144.2490 C   0  0  0  0  0  0  0  0  0  0  0  0
  187.0520  177.6810  146.0370 N   0  0  0  0  0  0  0  0  0  0  0  0
  186.3460  178.2050  143.8090 C   0  0  0  0  0  0  0  0  0  0  0  0
  186.6610  178.3030  142.4450 C   0  0  0  0  0  3  0  0  0  0  0  0
  187.9820  177.2920  146.9500 C   0  0  0  0  0  3  0  0  0  0  0  0
  188.2340  178.1500  140.5160 C   0  0  2  0  0  3  0  0  0  0  0  0
  186.9470  178.3270  139.7250 C   0  0  0  0  0  1  0  0  0  0  0  0
  189.0350  176.9520  140.0150 C   0  0  0  0  0  2  0  0  0  0  0  0
  190.2580  177.3720  139.2620 C   0  0  0  0  0  0  0  0  0  0  0  0
  191.3110  177.5480  139.8570 O   0  0  0  0  0  0  0  0  0  0  0  0
  190.2170  177.4370  137.7570 C   0  0  0  0  0  2  0  0  0  0  0  0
  189.4760  176.3460  137.1040 N   0  0  0  0  0  0  0  0  0  0  0  0
  190.5300  175.0540  136.5990 S   0  0  0  0  0  0  0  0  0  0  0  0
  190.3490  173.8500  137.4840 O   0  0  0  0  0  0  0  0  0  0  0  0
  190.2310  174.6750  135.1740 O   0  0  0  0  0  0  0  0  0  0  0  0
  192.2170  175.6140  136.7200 C   0  0  1  0  0  3  0  0  0  0  0  0
  194.2630  176.2200  135.4810 C   0  0  0  0  0  2  0  0  0  0  0  0
  194.4970  174.9410  137.5320 C   0  0  0  0  0  3  0  0  0  0  0  0
  195.0270  175.5790  136.5400 N   0  0  0  0  0  0  0  0  0  0  0  0
  193.0140  174.6940  137.6400 C   0  0  0  0  0  2  0  0  0  0  0  0
  192.8630  175.6290  135.3450 C   0  0  0  0  0  2  0  0  0  0  0  0
  188.7180  176.8320  135.9550 C   0  0  0  0  0  2  0  0  0  0  0  0
  186.9390  175.8380  137.2010 O   0  0  0  0  0  1  0  0  0  0  0  0
  187.2320  176.8360  136.2700 C   0  0  0  0  0  2  0  0  0  0  0  0
  185.0550  178.4750  144.3000 O   0  0  0  0  0  0  0  0  0  0  0  0
  181.4680  178.9530  143.5520 C   0  0  0  0  0  3  0  0  0  0  0  0
  181.4420  178.8520  142.1530 C   0  0  0  0  0  0  0  0  0  0  0  0
  183.8390  178.4890  142.1550 C   0  0  0  0  0  3  0  0  0  0  0  0
  182.6740  178.8210  144.2460 C   0  0  0  0  0  3  0  0  0  0  0  0
  183.8680  178.5820  143.5560 C   0  0  0  0  0  0  0  0  0  0  0  0
  182.6340  178.6200  141.4600 C   0  0  0  0  0  3  0  0  0  0  0  0
  180.2530  178.9800  141.4300 O   0  0  0  0  0  0  0  0  0  0  0  0
  180.1870  178.7970  140.0220 C   0  0  0  0  0  1  0  0  0  0  0  0
  1  8  1  0  0  0  0
  1  6  2  0  0  0  0
  2 12  1  0  0  0  0
  3 14  2  0  0  0  0
  3 10  1  0  0  0  0
  4 15  1  0  0  0  0
  4  8  1  0  0  0  0
  5  1  1  0  0  0  0
  7  4  2  0  0  0  0
  9  7  1  0  0  0  0
  9  5  2  0  0  0  0
 10 11  2  0  0  0  0
 11  2  1  0  0  0  0
 11  7  1  0  0  0  0
 12 15  2  0  0  0  0
 13 35  1  0  0  0  0
 13  2  2  0  0  0  0
 14 13  1  0  0  0  0
 16 17  1  6  0  0  0
 16  3  1  0  0  0  0
 18 16  1  0  0  0  0
 19 20  2  0  0  0  0
 19 18  1  0  0  0  0
 21 19  1  0  0  0  0
 22 21  1  0  0  0  0
 23 22  1  0  0  0  0
 23 24  2  0  0  0  0
 25 23  2  0  0  0  0
 26 23  1  6  0  0  0
 26 30  1  0  0  0  0
 27 29  1  0  0  0  0
 28 30  1  0  0  0  0
 29 28  2  0  0  0  0
 31 27  1  0  0  0  0
 31 26  1  0  0  0  0
 32 34  1  0  0  0  0
 32 22  1  0  0  0  0
 34 33  1  0  0  0  0
 36 39  1  0  0  0  0
 37 36  2  0  0  0  0
 38 40  1  0  0  0  0
 40 39  2  0  0  0  0
 40 35  1  0  0  0  0
 41 37  1  0  0  0  0
 41 38  2  0  0  0  0
 42 37  1  0  0  0  0
 43 42  1  0  0  0  0
M  END
>  <MODEL>
1

>  <REMARK>
 VINA RESULT:      -8.8      0.000      0.000
  Name = 
  12 active torsions:
  status: ('A' for Active; 'I' for Inactive)
    1  A    between atoms: O_1  and  C_34
    2  A    between atoms: O_1  and  C_35
    3  A    between atoms: C_2  and  C_6
    4  A    between atoms: C_2  and  C_13
    5  A    between atoms: C_3  and  N_4
    6  A    between atoms: C_3  and  C_12
    7  A    between atoms: N_4  and  S_14
    8  A    between atoms: N_4  and  C_15
    9  A    between atoms: C_6  and  C_12
   10  A    between atoms: C_11  and  S_14
   11  A    between atoms: C_15  and  C_42
   12  A    between atoms: C_19  and  O_25
                            x       y       z     vdW  Elec       q    Type
                         _______ _______ _______ _____ _____    ______ ____

>  <TORSDO>
F 12

$$$$
=
 OpenBabel10272414253D

 43 47  0  0  1  0  0  0  0  0999 V2000
  191.1420  176.5550  146.5270 C   0  0  0  0  0  0  0  0  0  0  0  0
  189.4370  177.7370  141.9720 C   0  0  0  0  0  0  0  0  0  0  0  0
  186.7310  178.4490  142.2160 C   0  0  0  0  0  0  0  0  0  0  0  0
  190.9240  176.9810  144.2020 C   0  0  0  0  0  0  0  0  0  0  0  0
  189.8020  176.8840  146.7380 C   0  0  0  0  0  3  0  0  0  0  0  0
  192.0760  176.1010  147.7860 S   0  0  0  0  0  0  0  0  0  0  0  0
  189.5650  177.3240  144.3650 C   0  0  0  0  0  0  0  0  0  0  0  0
  191.6720  176.6090  145.2750 N   0  0  0  0  0  2  0  0  0  0  0  0
  189.0130  177.2690  145.6530 C   0  0  0  0  0  3  0  0  0  0  0  0
  187.4580  178.0630  143.3500 C   0  0  0  0  0  3  0  0  0  0  0  0
  188.8090  177.7080  143.2420 C   0  0  0  0  0  0  0  0  0  0  0  0
  190.7510  177.3990  141.8570 N   0  0  0  0  0  0  0  0  0  0  0  0
  188.7090  178.1130  140.8290 C   0  0  0  0  0  0  0  0  0  0  0  0
  187.3590  178.4720  140.9690 C   0  0  0  0  0  3  0  0  0  0  0  0
  191.4980  177.0270  142.9320 C   0  0  0  0  0  3  0  0  0  0  0  0
  185.2870  178.8270  142.3100 C   0  0  2  0  0  3  0  0  0  0  0  0
  184.7240  178.4730  143.6780 C   0  0  0  0  0  1  0  0  0  0  0  0
  184.4850  178.1690  141.1910 C   0  0  0  0  0  2  0  0  0  0  0  0
  183.8630  179.1800  140.2790 C   0  0  0  0  0  0  0  0  0  0  0  0
  184.5720  179.8800  139.5720 O   0  0  0  0  0  0  0  0  0  0  0  0
  182.3640  179.2270  140.1370 C   0  0  0  0  0  2  0  0  0  0  0  0
  181.6540  178.0190  140.5900 N   0  0  0  0  0  0  0  0  0  0  0  0
  181.2590  176.9600  139.2650 S   0  0  0  0  0  0  0  0  0  0  0  0
  180.5980  175.7060  139.7710 O   0  0  0  0  0  0  0  0  0  0  0  0
  180.3330  177.6600  138.3070 O   0  0  0  0  0  0  0  0  0  0  0  0
  182.7630  176.5210  138.4180 C   0  0  1  0  0  3  0  0  0  0  0  0
  184.1560  176.8710  136.4110 C   0  0  0  0  0  2  0  0  0  0  0  0
  183.9370  174.6140  137.2790 C   0  0  0  0  0  3  0  0  0  0  0  0
  184.4630  175.4500  136.4440 N   0  0  0  0  0  0  0  0  0  0  0  0
  182.8510  175.0070  138.2470 C   0  0  0  0  0  2  0  0  0  0  0  0
  182.8060  177.1820  137.0500 C   0  0  0  0  0  2  0  0  0  0  0  0
  180.4370  178.3610  141.3180 C   0  0  0  0  0  2  0  0  0  0  0  0
  180.3470  180.2640  142.7590 O   0  0  0  0  0  1  0  0  0  0  0  0
  180.7850  178.9420  142.6790 C   0  0  0  0  0  2  0  0  0  0  0  0
  189.3660  178.1420  139.5860 O   0  0  0  0  0  0  0  0  0  0  0  0
  189.9220  175.3410  137.2400 C   0  0  0  0  0  3  0  0  0  0  0  0
  188.8270  175.4620  136.3710 C   0  0  0  0  0  0  0  0  0  0  0  0
  188.0660  177.3890  137.6300 C   0  0  0  0  0  3  0  0  0  0  0  0
  190.0850  176.2410  138.2970 C   0  0  0  0  0  3  0  0  0  0  0  0
  189.1640  177.2760  138.4980 C   0  0  0  0  0  0  0  0  0  0  0  0
  187.9020  176.4900  136.5730 C   0  0  0  0  0  3  0  0  0  0  0  0
  188.6350  174.5780  135.3060 O   0  0  0  0  0  0  0  0  0  0  0  0
  187.6110  173.5910  135.3020 C   0  0  0  0  0  1  0  0  0  0  0  0
  1  5  1  0  0  0  0
  1  6  2  0  0  0  0
  2 11  1  0  0  0  0
  3 16  1  0  0  0  0
  3 10  1  0  0  0  0
  4  7  2  0  0  0  0
  4  8  1  0  0  0  0
  7  9  1  0  0  0  0
  8  1  1  0  0  0  0
  9  5  2  0  0  0  0
 11 10  2  0  0  0  0
 11  7  1  0  0  0  0
 12  2  1  0  0  0  0
 12 15  2  0  0  0  0
 13 14  1  0  0  0  0
 13  2  2  0  0  0  0
 14  3  2  0  0  0  0
 15  4  1  0  0  0  0
 16 17  1  1  0  0  0
 18 16  1  0  0  0  0
 19 18  1  0  0  0  0
 20 19  2  0  0  0  0
 21 19  1  0  0  0  0
 21 22  1  0  0  0  0
 22 32  1  0  0  0  0
 23 24  2  0  0  0  0
 23 22  1  0  0  0  0
 25 23  2  0  0  0  0
 26 23  1  6  0  0  0
 27 29  1  0  0  0  0
 27 31  1  0  0  0  0
 28 30  1  0  0  0  0
 29 28  2  0  0  0  0
 30 26  1  0  0  0  0
 31 26  1  0  0  0  0
 32 34  1  0  0  0  0
 34 33  1  0  0  0  0
 35 13  1  0  0  0  0
 36 39  1  0  0  0  0
 37 41  1  0  0  0  0
 37 36  2  0  0  0  0
 38 40  1  0  0  0  0
 39 40  2  0  0  0  0
 40 35  1  0  0  0  0
 41 38  2  0  0  0  0
 42 37  1  0  0  0  0
 43 42  1  0  0  0  0
M  END
>  <MODEL>
2

>  <REMARK>
 VINA RESULT:      -8.6      3.061      7.460
  Name = 
  12 active torsions:
  status: ('A' for Active; 'I' for Inactive)
    1  A    between atoms: O_1  and  C_34
    2  A    between atoms: O_1  and  C_35
    3  A    between atoms: C_2  and  C_6
    4  A    between atoms: C_2  and  C_13
    5  A    between atoms: C_3  and  N_4
    6  A    between atoms: C_3  and  C_12
    7  A    between atoms: N_4  and  S_14
    8  A    between atoms: N_4  and  C_15
    9  A    between atoms: C_6  and  C_12
   10  A    between atoms: C_11  and  S_14
   11  A    between atoms: C_15  and  C_42
   12  A    between atoms: C_19  and  O_25
                            x       y       z     vdW  Elec       q    Type
                         _______ _______ _______ _____ _____    ______ ____

>  <TORSDO>
F 12

$$$$
=
 OpenBabel10272414253D

 43 47  0  0  1  0  0  0  0  0999 V2000
  191.5500  176.3640  147.1030 C   0  0  0  0  0  0  0  0  0  0  0  0
  187.3690  177.7890  144.7460 C   0  0  0  0  0  0  0  0  0  0  0  0
  187.9550  178.0300  142.0100 C   0  0  0  0  0  0  0  0  0  0  0  0
  189.3310  177.0150  146.5660 C   0  0  0  0  0  0  0  0  0  0  0  0
  191.9300  176.4670  145.7630 C   0  0  0  0  0  3  0  0  0  0  0  0
  192.6450  175.9160  148.2260 S   0  0  0  0  0  0  0  0  0  0  0  0
  189.6670  177.1310  145.2000 C   0  0  0  0  0  0  0  0  0  0  0  0
  190.2700  176.6370  147.4740 N   0  0  0  0  0  2  0  0  0  0  0  0
  190.9850  176.8520  144.8110 C   0  0  0  0  0  3  0  0  0  0  0  0
  188.9590  177.6480  142.9090 C   0  0  0  0  0  3  0  0  0  0  0  0
  188.6790  177.5220  144.2760 C   0  0  0  0  0  0  0  0  0  0  0  0
  187.0860  177.6640  146.0730 N   0  0  0  0  0  0  0  0  0  0  0  0
  186.3620  178.1850  143.8490 C   0  0  0  0  0  0  0  0  0  0  0  0
  186.6690  178.2940  142.4840 C   0  0  0  0  0  3  0  0  0  0  0  0
  188.0270  177.2870  146.9800 C   0  0  0  0  0  3  0  0  0  0  0  0
  188.2350  178.1750  140.5480 C   0  0  2  0  0  3  0  0  0  0  0  0
  186.9420  178.3270  139.7630 C   0  0  0  0  0  1  0  0  0  0  0  0
  189.0590  176.9950  140.0400 C   0  0  0  0  0  2  0  0  0  0  0  0
  189.8060  177.3320  138.7870 C   0  0  0  0  0  0  0  0  0  0  0  0
  189.7020  178.4460  138.2970 O   0  0  0  0  0  0  0  0  0  0  0  0
  190.7900  176.3420  138.2210 C   0  0  0  0  0  2  0  0  0  0  0  0
  190.7450  176.1800  136.7590 N   0  0  0  0  0  0  0  0  0  0  0  0
  189.7470  174.8340  136.2830 S   0  0  0  0  0  0  0  0  0  0  0  0
  190.3140  174.1630  135.0610 O   0  0  0  0  0  0  0  0  0  0  0  0
  189.6620  173.8360  137.4060 O   0  0  0  0  0  0  0  0  0  0  0  0
  188.1140  175.4390  135.9060 C   0  0  1  0  0  3  0  0  0  0  0  0
  186.7820  177.3430  135.0750 C   0  0  0  0  0  2  0  0  0  0  0  0
  185.9210  176.0720  136.9560 C   0  0  0  0  0  3  0  0  0  0  0  0
  185.7780  177.0040  136.0710 N   0  0  0  0  0  0  0  0  0  0  0  0
  187.2050  175.3010  137.1240 C   0  0  0  0  0  2  0  0  0  0  0  0
  188.1800  176.9010  135.4950 C   0  0  0  0  0  2  0  0  0  0  0  0
  192.0830  176.0140  136.2010 C   0  0  0  0  0  2  0  0  0  0  0  0
  194.0180  176.8200  137.3460 O   0  0  0  0  0  1  0  0  0  0  0  0
  193.0900  175.7790  137.3150 C   0  0  0  0  0  2  0  0  0  0  0  0
  185.0690  178.4320  144.3480 O   0  0  0  0  0  0  0  0  0  0  0  0
  182.8050  178.5560  141.4300 C   0  0  0  0  0  3  0  0  0  0  0  0
  181.5670  178.8340  142.0280 C   0  0  0  0  0  0  0  0  0  0  0  0
  182.6450  178.8570  144.2000 C   0  0  0  0  0  3  0  0  0  0  0  0
  183.9540  178.4300  142.2150 C   0  0  0  0  0  3  0  0  0  0  0  0
  183.8870  178.5850  143.6040 C   0  0  0  0  0  0  0  0  0  0  0  0
  181.4940  178.9830  143.4170 C   0  0  0  0  0  3  0  0  0  0  0  0
  180.3990  178.9650  141.2720 O   0  0  0  0  0  0  0  0  0  0  0  0
  180.3710  179.6160  140.0090 C   0  0  0  0  0  1  0  0  0  0  0  0
  1  8  1  0  0  0  0
  1  6  2  0  0  0  0
  2 12  1  0  0  0  0
  3 14  2  0  0  0  0
  3 10  1  0  0  0  0
  4 15  1  0  0  0  0
  4  8  1  0  0  0  0
  5  1  1  0  0  0  0
  7  4  2  0  0  0  0
  9  7  1  0  0  0  0
  9  5  2  0  0  0  0
 10 11  2  0  0  0  0
 11  2  1  0  0  0  0
 11  7  1  0  0  0  0
 12 15  2  0  0  0  0
 13 35  1  0  0  0  0
 13  2  2  0  0  0  0
 14 13  1  0  0  0  0
 16 17  1  6  0  0  0
 16  3  1  0  0  0  0
 18 16  1  0  0  0  0
 19 18  1  0  0  0  0
 20 19  2  0  0  0  0
 21 19  1  0  0  0  0
 22 21  1  0  0  0  0
 23 22  1  0  0  0  0
 23 25  2  0  0  0  0
 24 23  2  0  0  0  0
 26 23  1  1  0  0  0
 26 30  1  0  0  0  0
 27 31  1  0  0  0  0
 27 29  1  0  0  0  0
 28 30  1  0  0  0  0
 29 28  2  0  0  0  0
 31 26  1  0  0  0  0
 32 22  1  0  0  0  0
 32 34  1  0  0  0  0
 34 33  1  0  0  0  0
 36 37  2  0  0  0  0
 36 39  1  0  0  0  0
 37 41  1  0  0  0  0
 39 40  2  0  0  0  0
 40 38  1  0  0  0  0
 40 35  1  0  0  0  0
 41 38  2  0  0  0  0
 42 37  1  0  0  0  0
 43 42  1  0  0  0  0
M  END
>  <MODEL>
3

>  <REMARK>
 VINA RESULT:      -8.6      1.129      3.207
  Name = 
  12 active torsions:
  status: ('A' for Active; 'I' for Inactive)
    1  A    between atoms: O_1  and  C_34
    2  A    between atoms: O_1  and  C_35
    3  A    between atoms: C_2  and  C_6
    4  A    between atoms: C_2  and  C_13
    5  A    between atoms: C_3  and  N_4
    6  A    between atoms: C_3  and  C_12
    7  A    between atoms: N_4  and  S_14
    8  A    between atoms: N_4  and  C_15
    9  A    between atoms: C_6  and  C_12
   10  A    between atoms: C_11  and  S_14
   11  A    between atoms: C_15  and  C_42
   12  A    between atoms: C_19  and  O_25
                            x       y       z     vdW  Elec       q    Type
                         _______ _______ _______ _____ _____    ______ ____

>  <TORSDO>
F 12

$$$$
=
 OpenBabel10272414253D

 43 47  0  0  1  0  0  0  0  0999 V2000
  191.5730  176.2780  147.1240 C   0  0  0  0  0  0  0  0  0  0  0  0
  187.4370  177.7550  144.7220 C   0  0  0  0  0  0  0  0  0  0  0  0
  188.0610  178.0050  141.9950 C   0  0  0  0  0  0  0  0  0  0  0  0
  189.3670  176.9520  146.5620 C   0  0  0  0  0  0  0  0  0  0  0  0
  191.9720  176.3840  145.7910 C   0  0  0  0  0  3  0  0  0  0  0  0
  192.6490  175.8140  148.2600 S   0  0  0  0  0  0  0  0  0  0  0  0
  189.7230  177.0730  145.2020 C   0  0  0  0  0  0  0  0  0  0  0  0
  190.2920  176.5610  147.4810 N   0  0  0  0  0  2  0  0  0  0  0  0
  191.0430  176.7830  144.8280 C   0  0  0  0  0  3  0  0  0  0  0  0
  189.0500  177.6080  142.9050 C   0  0  0  0  0  3  0  0  0  0  0  0
  188.7510  177.4770  144.2680 C   0  0  0  0  0  0  0  0  0  0  0  0
  187.1360  177.6250  146.0440 N   0  0  0  0  0  0  0  0  0  0  0  0
  186.4450  178.1640  143.8140 C   0  0  0  0  0  0  0  0  0  0  0  0
  186.7710  178.2780  142.4540 C   0  0  0  0  0  3  0  0  0  0  0  0
  188.0610  177.2340  146.9610 C   0  0  0  0  0  3  0  0  0  0  0  0
  188.3610  178.1550  140.5370 C   0  0  2  0  0  3  0  0  0  0  0  0
  187.0880  178.4100  139.7470 C   0  0  0  0  0  1  0  0  0  0  0  0
  189.1050  176.9290  140.0140 C   0  0  0  0  0  2  0  0  0  0  0  0
  190.4440  177.2870  139.4460 C   0  0  0  0  0  0  0  0  0  0  0  0
  191.3480  177.6350  140.1900 O   0  0  0  0  0  0  0  0  0  0  0  0
  190.7060  177.0790  137.9780 C   0  0  0  0  0  2  0  0  0  0  0  0
  189.5500  176.6120  137.1950 N   0  0  0  0  0  0  0  0  0  0  0  0
  189.7560  174.9730  136.6420 S   0  0  0  0  0  0  0  0  0  0  0  0
  190.6400  174.9340  135.4240 O   0  0  0  0  0  0  0  0  0  0  0  0
  190.3710  174.1370  137.7320 O   0  0  0  0  0  0  0  0  0  0  0  0
  188.1580  174.3090  136.2190 C   0  0  1  0  0  3  0  0  0  0  0  0
  185.7640  174.2110  136.8080 C   0  0  0  0  0  2  0  0  0  0  0  0
  186.8530  172.1670  136.0790 C   0  0  0  0  0  3  0  0  0  0  0  0
  185.7850  172.8060  136.4310 N   0  0  0  0  0  0  0  0  0  0  0  0
  188.2250  172.7870  136.1290 C   0  0  0  0  0  2  0  0  0  0  0  0
  187.1320  174.7030  137.2690 C   0  0  0  0  0  2  0  0  0  0  0  0
  189.2960  177.4820  136.0520 C   0  0  0  0  0  2  0  0  0  0  0  0
  187.1280  178.0710  135.2400 O   0  0  0  0  0  1  0  0  0  0  0  0
  188.0320  178.2940  136.2800 C   0  0  0  0  0  2  0  0  0  0  0  0
  185.1490  178.4200  144.2970 O   0  0  0  0  0  0  0  0  0  0  0  0
  181.6140  179.1330  143.4870 C   0  0  0  0  0  3  0  0  0  0  0  0
  181.5690  178.8740  142.1080 C   0  0  0  0  0  0  0  0  0  0  0  0
  183.9230  178.2960  142.1600 C   0  0  0  0  0  3  0  0  0  0  0  0
  182.8080  178.9730  144.1950 C   0  0  0  0  0  3  0  0  0  0  0  0
  183.9710  178.5480  143.5410 C   0  0  0  0  0  0  0  0  0  0  0  0
  182.7300  178.4560  141.4510 C   0  0  0  0  0  3  0  0  0  0  0  0
  180.3910  179.0260  141.3710 O   0  0  0  0  0  0  0  0  0  0  0  0
  180.3760  179.0770  139.9510 C   0  0  0  0  0  1  0  0  0  0  0  0
  1  8  1  0  0  0  0
  1  6  2  0  0  0  0
  2 12  1  0  0  0  0
  3 14  2  0  0  0  0
  3 10  1  0  0  0  0
  4 15  1  0  0  0  0
  4  8  1  0  0  0  0
  5  1  1  0  0  0  0
  7  4  2  0  0  0  0
  9  7  1  0  0  0  0
  9  5  2  0  0  0  0
 10 11  2  0  0  0  0
 11  2  1  0  0  0  0
 11  7  1  0  0  0  0
 12 15  2  0  0  0  0
 13 35  1  0  0  0  0
 13  2  2  0  0  0  0
 14 13  1  0  0  0  0
 16 17  1  6  0  0  0
 16  3  1  0  0  0  0
 18 16  1  0  0  0  0
 19 18  1  0  0  0  0
 19 20  2  0  0  0  0
 21 19  1  0  0  0  0
 22 21  1  0  0  0  0
 23 22  1  0  0  0  0
 23 25  2  0  0  0  0
 24 23  2  0  0  0  0
 26 23  1  1  0  0  0
 26 31  1  0  0  0  0
 27 31  1  0  0  0  0
 28 30  1  0  0  0  0
 28 29  2  0  0  0  0
 29 27  1  0  0  0  0
 30 26  1  0  0  0  0
 32 34  1  0  0  0  0
 32 22  1  0  0  0  0
 33 34  1  0  0  0  0
 36 39  1  0  0  0  0
 37 36  2  0  0  0  0
 38 40  1  0  0  0  0
 40 39  2  0  0  0  0
 40 35  1  0  0  0  0
 41 37  1  0  0  0  0
 41 38  2  0  0  0  0
 42 37  1  0  0  0  0
 43 42  1  0  0  0  0
M  END
>  <MODEL>
4

>  <REMARK>
 VINA RESULT:      -8.5      1.641      2.856
  Name = 
  12 active torsions:
  status: ('A' for Active; 'I' for Inactive)
    1  A    between atoms: O_1  and  C_34
    2  A    between atoms: O_1  and  C_35
    3  A    between atoms: C_2  and  C_6
    4  A    between atoms: C_2  and  C_13
    5  A    between atoms: C_3  and  N_4
    6  A    between atoms: C_3  and  C_12
    7  A    between atoms: N_4  and  S_14
    8  A    between atoms: N_4  and  C_15
    9  A    between atoms: C_6  and  C_12
   10  A    between atoms: C_11  and  S_14
   11  A    between atoms: C_15  and  C_42
   12  A    between atoms: C_19  and  O_25
                            x       y       z     vdW  Elec       q    Type
                         _______ _______ _______ _____ _____    ______ ____

>  <TORSDO>
F 12

$$$$
=
 OpenBabel10272414253D

 43 47  0  0  1  0  0  0  0  0999 V2000
  191.0710  176.5970  146.3180 C   0  0  0  0  0  0  0  0  0  0  0  0
  189.4540  177.6360  141.6960 C   0  0  0  0  0  0  0  0  0  0  0  0
  186.8110  178.5670  141.8910 C   0  0  0  0  0  0  0  0  0  0  0  0
  190.8820  176.9010  143.9710 C   0  0  0  0  0  0  0  0  0  0  0  0
  189.7610  177.0410  146.5060 C   0  0  0  0  0  3  0  0  0  0  0  0
  191.9700  176.1490  147.6040 S   0  0  0  0  0  0  0  0  0  0  0  0
  189.5540  177.3570  144.1110 C   0  0  0  0  0  0  0  0  0  0  0  0
  191.6010  176.5360  145.0670 N   0  0  0  0  0  2  0  0  0  0  0  0
  189.0010  177.4210  145.3980 C   0  0  0  0  0  3  0  0  0  0  0  0
  187.5080  178.1940  143.0480 C   0  0  0  0  0  3  0  0  0  0  0  0
  188.8280  177.7300  142.9640 C   0  0  0  0  0  0  0  0  0  0  0  0
  190.7380  177.1910  141.6060 N   0  0  0  0  0  0  0  0  0  0  0  0
  188.7540  177.9980  140.5320 C   0  0  0  0  0  0  0  0  0  0  0  0
  187.4370  178.4680  140.6470 C   0  0  0  0  0  3  0  0  0  0  0  0
  191.4550  176.8270  142.7020 C   0  0  0  0  0  3  0  0  0  0  0  0
  185.4010  179.0600  141.9590 C   0  0  2  0  0  3  0  0  0  0  0  0
  184.9040  179.0800  143.3960 C   0  0  0  0  0  1  0  0  0  0  0  0
  184.4930  178.2170  141.0680 C   0  0  0  0  0  2  0  0  0  0  0  0
  183.9410  179.0070  139.9230 C   0  0  0  0  0  0  0  0  0  0  0  0
  184.5400  179.9920  139.5170 O   0  0  0  0  0  0  0  0  0  0  0  0
  182.7280  178.5000  139.1890 C   0  0  0  0  0  2  0  0  0  0  0  0
  182.5300  177.0420  139.2370 N   0  0  0  0  0  0  0  0  0  0  0  0
  182.6020  176.3220  137.6530 S   0  0  0  0  0  0  0  0  0  0  0  0
  181.2430  176.3350  137.0060 O   0  0  0  0  0  0  0  0  0  0  0  0
  183.5730  177.0790  136.7880 O   0  0  0  0  0  0  0  0  0  0  0  0
  183.1480  174.6350  137.8180 C   0  0  1  0  0  3  0  0  0  0  0  0
  185.0750  173.0940  137.7470 C   0  0  0  0  0  2  0  0  0  0  0  0
  182.9810  172.3630  136.7600 C   0  0  0  0  0  3  0  0  0  0  0  0
  184.2030  172.1220  137.1070 N   0  0  0  0  0  0  0  0  0  0  0  0
  182.3550  173.7280  136.8810 C   0  0  0  0  0  2  0  0  0  0  0  0
  184.6270  174.5280  137.4830 C   0  0  0  0  0  2  0  0  0  0  0  0
  181.2610  176.7000  139.8700 C   0  0  0  0  0  2  0  0  0  0  0  0
  180.5040  178.0330  141.7020 O   0  0  0  0  0  1  0  0  0  0  0  0
  180.5350  177.9610  140.3080 C   0  0  0  0  0  2  0  0  0  0  0  0
  189.4090  177.9030  139.2900 O   0  0  0  0  0  0  0  0  0  0  0  0
  189.9810  174.8680  137.2610 C   0  0  0  0  0  3  0  0  0  0  0  0
  188.8910  174.8940  136.3770 C   0  0  0  0  0  0  0  0  0  0  0  0
  188.1210  176.9440  137.4190 C   0  0  0  0  0  3  0  0  0  0  0  0
  190.1370  175.8760  138.2160 C   0  0  0  0  0  3  0  0  0  0  0  0
  189.2150  176.9250  138.3000 C   0  0  0  0  0  0  0  0  0  0  0  0
  187.9640  175.9370  136.4630 C   0  0  0  0  0  3  0  0  0  0  0  0
  188.7050  173.9010  135.4110 O   0  0  0  0  0  0  0  0  0  0  0  0
  189.0060  172.5320  135.6500 C   0  0  0  0  0  1  0  0  0  0  0  0
  1  5  1  0  0  0  0
  1  6  2  0  0  0  0
  2 11  1  0  0  0  0
  3 16  1  0  0  0  0
  3 10  1  0  0  0  0
  4  7  2  0  0  0  0
  4  8  1  0  0  0  0
  7  9  1  0  0  0  0
  8  1  1  0  0  0  0
  9  5  2  0  0  0  0
 11 10  2  0  0  0  0
 11  7  1  0  0  0  0
 12  2  1  0  0  0  0
 12 15  2  0  0  0  0
 13 14  1  0  0  0  0
 13  2  2  0  0  0  0
 14  3  2  0  0  0  0
 15  4  1  0  0  0  0
 16 17  1  1  0  0  0
 18 16  1  0  0  0  0
 19 18  1  0  0  0  0
 20 19  2  0  0  0  0
 21 22  1  0  0  0  0
 21 19  1  0  0  0  0
 22 32  1  0  0  0  0
 23 22  1  0  0  0  0
 24 23  2  0  0  0  0
 25 23  2  0  0  0  0
 26 23  1  6  0  0  0
 28 30  1  0  0  0  0
 28 29  2  0  0  0  0
 29 27  1  0  0  0  0
 30 26  1  0  0  0  0
 31 27  1  0  0  0  0
 31 26  1  0  0  0  0
 32 34  1  0  0  0  0
 34 33  1  0  0  0  0
 35 13  1  0  0  0  0
 36 39  1  0  0  0  0
 37 41  1  0  0  0  0
 37 36  2  0  0  0  0
 38 40  1  0  0  0  0
 39 40  2  0  0  0  0
 40 35  1  0  0  0  0
 41 38  2  0  0  0  0
 42 43  1  0  0  0  0
 42 37  1  0  0  0  0
M  END
>  <MODEL>
5

>  <REMARK>
 VINA RESULT:      -8.5      3.297      7.239
  Name = 
  12 active torsions:
  status: ('A' for Active; 'I' for Inactive)
    1  A    between atoms: O_1  and  C_34
    2  A    between atoms: O_1  and  C_35
    3  A    between atoms: C_2  and  C_6
    4  A    between atoms: C_2  and  C_13
    5  A    between atoms: C_3  and  N_4
    6  A    between atoms: C_3  and  C_12
    7  A    between atoms: N_4  and  S_14
    8  A    between atoms: N_4  and  C_15
    9  A    between atoms: C_6  and  C_12
   10  A    between atoms: C_11  and  S_14
   11  A    between atoms: C_15  and  C_42
   12  A    between atoms: C_19  and  O_25
                            x       y       z     vdW  Elec       q    Type
                         _______ _______ _______ _____ _____    ______ ____

>  <TORSDO>
F 12

$$$$
=
 OpenBabel10272414253D

 43 47  0  0  1  0  0  0  0  0999 V2000
  191.5550  176.2780  147.1900 C   0  0  0  0  0  0  0  0  0  0  0  0
  187.4620  177.7970  144.7410 C   0  0  0  0  0  0  0  0  0  0  0  0
  188.1160  178.0300  142.0200 C   0  0  0  0  0  0  0  0  0  0  0  0
  189.3640  176.9770  146.6030 C   0  0  0  0  0  0  0  0  0  0  0  0
  191.9680  176.3750  145.8590 C   0  0  0  0  0  3  0  0  0  0  0  0
  192.6140  175.8050  148.3370 S   0  0  0  0  0  0  0  0  0  0  0  0
  189.7340  177.0890  145.2460 C   0  0  0  0  0  0  0  0  0  0  0  0
  190.2740  176.5780  147.5320 N   0  0  0  0  0  2  0  0  0  0  0  0
  191.0540  176.7820  144.8860 C   0  0  0  0  0  3  0  0  0  0  0  0
  189.0900  177.6250  142.9410 C   0  0  0  0  0  3  0  0  0  0  0  0
  188.7760  177.5020  144.3010 C   0  0  0  0  0  0  0  0  0  0  0  0
  187.1460  177.6760  146.0600 N   0  0  0  0  0  0  0  0  0  0  0  0
  186.4840  178.2160  143.8220 C   0  0  0  0  0  0  0  0  0  0  0  0
  186.8250  178.3210  142.4650 C   0  0  0  0  0  3  0  0  0  0  0  0
  188.0570  177.2770  146.9880 C   0  0  0  0  0  3  0  0  0  0  0  0
  188.4330  178.1720  140.5650 C   0  0  2  0  0  3  0  0  0  0  0  0
  187.1660  178.4100  139.7570 C   0  0  0  0  0  1  0  0  0  0  0  0
  189.1930  176.9490  140.0600 C   0  0  0  0  0  2  0  0  0  0  0  0
  190.5540  177.3080  139.5490 C   0  0  0  0  0  0  0  0  0  0  0  0
  191.4560  177.5480  140.3370 O   0  0  0  0  0  0  0  0  0  0  0  0
  190.8360  177.2300  138.0720 C   0  0  0  0  0  2  0  0  0  0  0  0
  191.1880  175.8910  137.5710 N   0  0  0  0  0  0  0  0  0  0  0  0
  192.8340  175.8180  137.0070 S   0  0  0  0  0  0  0  0  0  0  0  0
  192.8890  175.9970  135.5130 O   0  0  0  0  0  0  0  0  0  0  0  0
  193.6510  176.8940  137.6690 O   0  0  0  0  0  0  0  0  0  0  0  0
  193.5100  174.2230  137.4240 C   0  0  1  0  0  3  0  0  0  0  0  0
  195.3660  173.0080  138.5040 C   0  0  0  0  0  2  0  0  0  0  0  0
  194.4800  172.1350  136.4200 C   0  0  0  0  0  3  0  0  0  0  0  0
  195.2720  172.0260  137.4360 N   0  0  0  0  0  0  0  0  0  0  0  0
  193.6390  173.3600  136.1720 C   0  0  0  0  0  2  0  0  0  0  0  0
  194.8790  174.3850  138.0630 C   0  0  0  0  0  2  0  0  0  0  0  0
  190.2880  175.4710  136.5010 C   0  0  0  0  0  2  0  0  0  0  0  0
  190.2820  173.0830  136.5340 O   0  0  0  0  0  1  0  0  0  0  0  0
  189.5460  174.2090  136.9050 C   0  0  0  0  0  2  0  0  0  0  0  0
  185.1860  178.4890  144.2910 O   0  0  0  0  0  0  0  0  0  0  0  0
  182.9470  178.4190  141.3520 C   0  0  0  0  0  3  0  0  0  0  0  0
  181.7130  178.7830  141.9120 C   0  0  0  0  0  0  0  0  0  0  0  0
  182.7760  178.9680  144.0830 C   0  0  0  0  0  3  0  0  0  0  0  0
  184.0870  178.3310  142.1560 C   0  0  0  0  0  3  0  0  0  0  0  0
  184.0140  178.6100  143.5250 C   0  0  0  0  0  0  0  0  0  0  0  0
  181.6350  179.0560  143.2810 C   0  0  0  0  0  3  0  0  0  0  0  0
  180.5540  178.8790  141.1360 O   0  0  0  0  0  0  0  0  0  0  0  0
  180.5880  179.0810  139.7290 C   0  0  0  0  0  1  0  0  0  0  0  0
  1  8  1  0  0  0  0
  1  6  2  0  0  0  0
  2 12  1  0  0  0  0
  3 14  2  0  0  0  0
  3 10  1  0  0  0  0
  4 15  1  0  0  0  0
  4  8  1  0  0  0  0
  5  1  1  0  0  0  0
  7  4  2  0  0  0  0
  9  7  1  0  0  0  0
  9  5  2  0  0  0  0
 10 11  2  0  0  0  0
 11  2  1  0  0  0  0
 11  7  1  0  0  0  0
 12 15  2  0  0  0  0
 13 35  1  0  0  0  0
 13  2  2  0  0  0  0
 14 13  1  0  0  0  0
 16 17  1  6  0  0  0
 16  3  1  0  0  0  0
 18 16  1  0  0  0  0
 19 18  1  0  0  0  0
 19 20  2  0  0  0  0
 21 19  1  0  0  0  0
 22 21  1  0  0  0  0
 23 22  1  0  0  0  0
 23 25  2  0  0  0  0
 24 23  2  0  0  0  0
 26 23  1  6  0  0  0
 26 31  1  0  0  0  0
 28 29  2  0  0  0  0
 29 27  1  0  0  0  0
 30 28  1  0  0  0  0
 30 26  1  0  0  0  0
 31 27  1  0  0  0  0
 32 34  1  0  0  0  0
 32 22  1  0  0  0  0
 33 34  1  0  0  0  0
 36 37  2  0  0  0  0
 36 39  1  0  0  0  0
 37 41  1  0  0  0  0
 39 40  2  0  0  0  0
 40 38  1  0  0  0  0
 40 35  1  0  0  0  0
 41 38  2  0  0  0  0
 42 37  1  0  0  0  0
 43 42  1  0  0  0  0
M  END
>  <MODEL>
6

>  <REMARK>
 VINA RESULT:      -8.5      1.415      2.011
  Name = 
  12 active torsions:
  status: ('A' for Active; 'I' for Inactive)
    1  A    between atoms: O_1  and  C_34
    2  A    between atoms: O_1  and  C_35
    3  A    between atoms: C_2  and  C_6
    4  A    between atoms: C_2  and  C_13
    5  A    between atoms: C_3  and  N_4
    6  A    between atoms: C_3  and  C_12
    7  A    between atoms: N_4  and  S_14
    8  A    between atoms: N_4  and  C_15
    9  A    between atoms: C_6  and  C_12
   10  A    between atoms: C_11  and  S_14
   11  A    between atoms: C_15  and  C_42
   12  A    between atoms: C_19  and  O_25
                            x       y       z     vdW  Elec       q    Type
                         _______ _______ _______ _____ _____    ______ ____

>  <TORSDO>
F 12

$$$$
=
 OpenBabel10272414253D

 43 47  0  0  1  0  0  0  0  0999 V2000
  191.9170  176.1660  147.4990 C   0  0  0  0  0  0  0  0  0  0  0  0
  187.8180  177.6100  145.0140 C   0  0  0  0  0  0  0  0  0  0  0  0
  188.3500  177.3990  142.2650 C   0  0  0  0  0  0  0  0  0  0  0  0
  189.7500  176.9310  146.9010 C   0  0  0  0  0  0  0  0  0  0  0  0
  192.2690  176.0400  146.1540 C   0  0  0  0  0  3  0  0  0  0  0  0
  192.9970  175.7880  148.6610 S   0  0  0  0  0  0  0  0  0  0  0  0
  190.0590  176.8190  145.5290 C   0  0  0  0  0  0  0  0  0  0  0  0
  190.6760  176.6050  147.8430 N   0  0  0  0  0  2  0  0  0  0  0  0
  191.3370  176.3680  145.1670 C   0  0  0  0  0  3  0  0  0  0  0  0
  189.3400  177.0610  143.1970 C   0  0  0  0  0  3  0  0  0  0  0  0
  189.0860  177.1600  144.5710 C   0  0  0  0  0  0  0  0  0  0  0  0
  187.5590  177.7040  146.3480 N   0  0  0  0  0  0  0  0  0  0  0  0
  186.8250  177.9610  144.0820 C   0  0  0  0  0  0  0  0  0  0  0  0
  187.1050  177.8440  142.7120 C   0  0  0  0  0  3  0  0  0  0  0  0
  188.4870  177.3780  147.2880 C   0  0  0  0  0  3  0  0  0  0  0  0
  188.6040  177.3050  140.7940 C   0  0  2  0  0  3  0  0  0  0  0  0
  190.0490  176.9180  140.5180 C   0  0  0  0  0  1  0  0  0  0  0  0
  188.2360  178.6140  140.1000 C   0  0  0  0  0  2  0  0  0  0  0  0
  187.2050  178.4120  139.0340 C   0  0  0  0  0  0  0  0  0  0  0  0
  186.0340  178.6710  139.2620 O   0  0  0  0  0  0  0  0  0  0  0  0
  187.6420  178.0260  137.6450 C   0  0  0  0  0  2  0  0  0  0  0  0
  187.6670  176.5790  137.3750 N   0  0  0  0  0  0  0  0  0  0  0  0
  188.9000  176.1520  136.2220 S   0  0  0  0  0  0  0  0  0  0  0  0
  188.4010  175.0840  135.2860 O   0  0  0  0  0  0  0  0  0  0  0  0
  189.3010  177.3650  135.4260 O   0  0  0  0  0  0  0  0  0  0  0  0
  190.3170  175.5310  137.1060 C   0  0  1  0  0  3  0  0  0  0  0  0
  192.6000  176.0170  137.9080 C   0  0  0  0  0  2  0  0  0  0  0  0
  192.1440  173.8100  137.0040 C   0  0  0  0  0  3  0  0  0  0  0  0
  192.9470  174.6420  137.5830 N   0  0  0  0  0  0  0  0  0  0  0  0
  190.7840  174.2120  136.4960 C   0  0  0  0  0  2  0  0  0  0  0  0
  191.4540  176.5390  137.0470 C   0  0  0  0  0  2  0  0  0  0  0  0
  186.3710  176.1050  136.8990 C   0  0  0  0  0  2  0  0  0  0  0  0
  184.4950  176.6920  135.5430 O   0  0  0  0  0  1  0  0  0  0  0  0
  185.6900  177.1820  136.0720 C   0  0  0  0  0  2  0  0  0  0  0  0
  185.5730  178.3940  144.5560 O   0  0  0  0  0  0  0  0  0  0  0  0
  183.3050  178.5110  141.6400 C   0  0  0  0  0  3  0  0  0  0  0  0
  182.0670  178.7860  142.2400 C   0  0  0  0  0  0  0  0  0  0  0  0
  183.1470  178.8130  144.4110 C   0  0  0  0  0  3  0  0  0  0  0  0
  184.4560  178.3880  142.4240 C   0  0  0  0  0  3  0  0  0  0  0  0
  184.3900  178.5440  143.8130 C   0  0  0  0  0  0  0  0  0  0  0  0
  181.9960  178.9360  143.6280 C   0  0  0  0  0  3  0  0  0  0  0  0
  180.8980  178.9140  141.4850 O   0  0  0  0  0  0  0  0  0  0  0  0
  180.9110  179.1050  140.0770 C   0  0  0  0  0  1  0  0  0  0  0  0
  1  8  1  0  0  0  0
  1  6  2  0  0  0  0
  2 12  1  0  0  0  0
  3 14  2  0  0  0  0
  3 10  1  0  0  0  0
  4 15  1  0  0  0  0
  4  8  1  0  0  0  0
  5  1  1  0  0  0  0
  7  4  2  0  0  0  0
  9  7  1  0  0  0  0
  9  5  2  0  0  0  0
 10 11  2  0  0  0  0
 11  2  1  0  0  0  0
 11  7  1  0  0  0  0
 12 15  2  0  0  0  0
 13 35  1  0  0  0  0
 13  2  2  0  0  0  0
 14 13  1  0  0  0  0
 16 17  1  1  0  0  0
 16  3  1  0  0  0  0
 18 16  1  0  0  0  0
 19 20  2  0  0  0  0
 19 18  1  0  0  0  0
 21 19  1  0  0  0  0
 22 21  1  0  0  0  0
 23 22  1  0  0  0  0
 24 23  2  0  0  0  0
 25 23  2  0  0  0  0
 26 23  1  6  0  0  0
 28 29  2  0  0  0  0
 29 27  1  0  0  0  0
 30 28  1  0  0  0  0
 30 26  1  0  0  0  0
 31 26  1  0  0  0  0
 31 27  1  0  0  0  0
 32 22  1  0  0  0  0
 33 34  1  0  0  0  0
 34 32  1  0  0  0  0
 36 37  2  0  0  0  0
 36 39  1  0  0  0  0
 37 41  1  0  0  0  0
 39 40  2  0  0  0  0
 40 38  1  0  0  0  0
 40 35  1  0  0  0  0
 41 38  2  0  0  0  0
 42 37  1  0  0  0  0
 43 42  1  0  0  0  0
M  END
>  <MODEL>
7

>  <REMARK>
 VINA RESULT:      -8.2      1.554      2.043
  Name = 
  12 active torsions:
  status: ('A' for Active; 'I' for Inactive)
    1  A    between atoms: O_1  and  C_34
    2  A    between atoms: O_1  and  C_35
    3  A    between atoms: C_2  and  C_6
    4  A    between atoms: C_2  and  C_13
    5  A    between atoms: C_3  and  N_4
    6  A    between atoms: C_3  and  C_12
    7  A    between atoms: N_4  and  S_14
    8  A    between atoms: N_4  and  C_15
    9  A    between atoms: C_6  and  C_12
   10  A    between atoms: C_11  and  S_14
   11  A    between atoms: C_15  and  C_42
   12  A    between atoms: C_19  and  O_25
                            x       y       z     vdW  Elec       q    Type
                         _______ _______ _______ _____ _____    ______ ____

>  <TORSDO>
F 12

$$$$
=
 OpenBabel10272414253D

 43 47  0  0  1  0  0  0  0  0999 V2000
  191.0100  176.5360  146.4330 C   0  0  0  0  0  0  0  0  0  0  0  0
  188.8660  178.0570  142.1740 C   0  0  0  0  0  0  0  0  0  0  0  0
  186.1820  178.6740  142.7260 C   0  0  0  0  0  0  0  0  0  0  0  0
  190.5680  177.1530  144.1840 C   0  0  0  0  0  0  0  0  0  0  0  0
  189.6900  176.8100  146.7940 C   0  0  0  0  0  3  0  0  0  0  0  0
  192.0650  176.0020  147.5570 S   0  0  0  0  0  0  0  0  0  0  0  0
  189.2240  177.4450  144.5000 C   0  0  0  0  0  0  0  0  0  0  0  0
  191.4200  176.7110  145.1480 N   0  0  0  0  0  2  0  0  0  0  0  0
  188.7950  177.2660  145.8230 C   0  0  0  0  0  3  0  0  0  0  0  0
  187.0180  178.2120  143.7500 C   0  0  0  0  0  3  0  0  0  0  0  0
  188.3600  177.9030  143.4880 C   0  0  0  0  0  0  0  0  0  0  0  0
  190.1700  177.7650  141.9110 N   0  0  0  0  0  0  0  0  0  0  0  0
  188.0270  178.5100  141.1400 C   0  0  0  0  0  0  0  0  0  0  0  0
  186.6900  178.8200  141.4330 C   0  0  0  0  0  3  0  0  0  0  0  0
  191.0200  177.3220  142.8760 C   0  0  0  0  0  3  0  0  0  0  0  0
  184.7460  179.0050  142.9840 C   0  0  2  0  0  3  0  0  0  0  0  0
  184.4570  179.0250  144.4770 C   0  0  0  0  0  1  0  0  0  0  0  0
  183.8300  178.0270  142.2530 C   0  0  0  0  0  2  0  0  0  0  0  0
  182.4270  178.5390  142.1590 C   0  0  0  0  0  0  0  0  0  0  0  0
  181.9900  179.2840  143.0230 O   0  0  0  0  0  0  0  0  0  0  0  0
  181.6130  178.2470  140.9260 C   0  0  0  0  0  2  0  0  0  0  0  0
  182.3430  177.5760  139.8380 N   0  0  0  0  0  0  0  0  0  0  0  0
  182.9510  178.7100  138.6640 S   0  0  0  0  0  0  0  0  0  0  0  0
  184.0970  179.5000  139.2370 O   0  0  0  0  0  0  0  0  0  0  0  0
  183.4150  177.9780  137.4350 O   0  0  0  0  0  0  0  0  0  0  0  0
  181.6390  179.8320  138.2220 C   0  0  1  0  0  3  0  0  0  0  0  0
  180.2160  180.6980  136.4010 C   0  0  0  0  0  2  0  0  0  0  0  0
  181.0640  182.2710  138.0450 C   0  0  0  0  0  3  0  0  0  0  0  0
  180.3260  182.0120  137.0150 N   0  0  0  0  0  0  0  0  0  0  0  0
  181.9870  181.2510  138.6610 C   0  0  0  0  0  2  0  0  0  0  0  0
  181.4180  179.8130  136.7190 C   0  0  0  0  0  2  0  0  0  0  0  0
  181.5050  176.5860  139.1680 C   0  0  0  0  0  2  0  0  0  0  0  0
  179.9840  174.8780  139.8570 O   0  0  0  0  0  1  0  0  0  0  0  0
  180.3220  176.2190  140.0470 C   0  0  0  0  0  2  0  0  0  0  0  0
  188.5650  178.6620  139.8490 O   0  0  0  0  0  0  0  0  0  0  0  0
  189.0610  175.7990  137.5660 C   0  0  0  0  0  3  0  0  0  0  0  0
  188.0700  176.0180  136.5970 C   0  0  0  0  0  0  0  0  0  0  0  0
  187.3870  178.0220  137.7790 C   0  0  0  0  0  3  0  0  0  0  0  0
  189.2120  176.6880  138.6330 C   0  0  0  0  0  3  0  0  0  0  0  0
  188.3830  177.8100  138.7470 C   0  0  0  0  0  0  0  0  0  0  0  0
  187.2360  177.1340  136.7100 C   0  0  0  0  0  3  0  0  0  0  0  0
  187.8930  175.1480  135.5180 O   0  0  0  0  0  0  0  0  0  0  0  0
  188.1740  173.7570  135.6000 C   0  0  0  0  0  1  0  0  0  0  0  0
  1  5  1  0  0  0  0
  1  6  2  0  0  0  0
  2 11  1  0  0  0  0
  3 16  1  0  0  0  0
  3 10  1  0  0  0  0
  4  7  2  0  0  0  0
  4  8  1  0  0  0  0
  7  9  1  0  0  0  0
  8  1  1  0  0  0  0
  9  5  2  0  0  0  0
 11 10  2  0  0  0  0
 11  7  1  0  0  0  0
 12  2  1  0  0  0  0
 12 15  2  0  0  0  0
 13 14  1  0  0  0  0
 13  2  2  0  0  0  0
 14  3  2  0  0  0  0
 15  4  1  0  0  0  0
 16 17  1  1  0  0  0
 18 16  1  0  0  0  0
 19 18  1  0  0  0  0
 19 20  2  0  0  0  0
 21 19  1  0  0  0  0
 22 21  1  0  0  0  0
 23 24  2  0  0  0  0
 23 22  1  0  0  0  0
 25 23  2  0  0  0  0
 26 30  1  0  0  0  0
 26 23  1  6  0  0  0
 27 31  1  0  0  0  0
 27 29  1  0  0  0  0
 28 30  1  0  0  0  0
 29 28  2  0  0  0  0
 31 26  1  0  0  0  0
 32 22  1  0  0  0  0
 32 34  1  0  0  0  0
 33 34  1  0  0  0  0
 35 13  1  0  0  0  0
 36 39  1  0  0  0  0
 37 41  1  0  0  0  0
 37 36  2  0  0  0  0
 38 40  1  0  0  0  0
 39 40  2  0  0  0  0
 40 35  1  0  0  0  0
 41 38  2  0  0  0  0
 42 43  1  0  0  0  0
 42 37  1  0  0  0  0
M  END
>  <MODEL>
8

>  <REMARK>
 VINA RESULT:      -8.2      3.331      7.916
  Name = 
  12 active torsions:
  status: ('A' for Active; 'I' for Inactive)
    1  A    between atoms: O_1  and  C_34
    2  A    between atoms: O_1  and  C_35
    3  A    between atoms: C_2  and  C_6
    4  A    between atoms: C_2  and  C_13
    5  A    between atoms: C_3  and  N_4
    6  A    between atoms: C_3  and  C_12
    7  A    between atoms: N_4  and  S_14
    8  A    between atoms: N_4  and  C_15
    9  A    between atoms: C_6  and  C_12
   10  A    between atoms: C_11  and  S_14
   11  A    between atoms: C_15  and  C_42
   12  A    between atoms: C_19  and  O_25
                            x       y       z     vdW  Elec       q    Type
                         _______ _______ _______ _____ _____    ______ ____

>  <TORSDO>
F 12

$$$$
=
 OpenBabel10272414253D

 43 47  0  0  1  0  0  0  0  0999 V2000
  191.4410  176.2680  146.9250 C   0  0  0  0  0  0  0  0  0  0  0  0
  189.1330  177.9610  142.8180 C   0  0  0  0  0  0  0  0  0  0  0  0
  186.4650  178.5240  143.4920 C   0  0  0  0  0  0  0  0  0  0  0  0
  190.9140  176.9830  144.7240 C   0  0  0  0  0  0  0  0  0  0  0  0
  190.1320  176.5130  147.3440 C   0  0  0  0  0  3  0  0  0  0  0  0
  192.5400  175.6940  147.9860 S   0  0  0  0  0  0  0  0  0  0  0  0
  189.5790  177.2470  145.1000 C   0  0  0  0  0  0  0  0  0  0  0  0
  191.8030  176.5060  145.6360 N   0  0  0  0  0  2  0  0  0  0  0  0
  189.2000  177.0030  146.4280 C   0  0  0  0  0  3  0  0  0  0  0  0
  187.3420  178.0240  144.4640 C   0  0  0  0  0  3  0  0  0  0  0  0
  188.6760  177.7410  144.1410 C   0  0  0  0  0  0  0  0  0  0  0  0
  190.4290  177.6940  142.4960 N   0  0  0  0  0  0  0  0  0  0  0  0
  188.2540  178.4510  141.8370 C   0  0  0  0  0  0  0  0  0  0  0  0
  186.9260  178.7340  142.1910 C   0  0  0  0  0  3  0  0  0  0  0  0
  191.3170  177.2160  143.4090 C   0  0  0  0  0  3  0  0  0  0  0  0
  185.0370  178.8270  143.8160 C   0  0  2  0  0  3  0  0  0  0  0  0
  184.7260  178.4800  145.2630 C   0  0  0  0  0  1  0  0  0  0  0  0
  184.1020  178.0990  142.8550 C   0  0  0  0  0  2  0  0  0  0  0  0
  182.7990  178.8180  142.6890 C   0  0  0  0  0  0  0  0  0  0  0  0
  182.0050  178.8620  143.6160 O   0  0  0  0  0  0  0  0  0  0  0  0
  182.5400  179.6010  141.4280 C   0  0  0  0  0  2  0  0  0  0  0  0
  182.0800  178.8040  140.2790 N   0  0  0  0  0  0  0  0  0  0  0  0
  182.9420  179.2060  138.8200 S   0  0  0  0  0  0  0  0  0  0  0  0
  182.0800  180.0430  137.9120 O   0  0  0  0  0  0  0  0  0  0  0  0
  184.1960  179.9670  139.1580 O   0  0  0  0  0  0  0  0  0  0  0  0
  183.3750  177.6970  137.9790 C   0  0  1  0  0  3  0  0  0  0  0  0
  183.0750  176.3320  135.9450 C   0  0  0  0  0  2  0  0  0  0  0  0
  183.1280  175.2000  138.0920 C   0  0  0  0  0  3  0  0  0  0  0  0
  183.0800  175.1560  136.8000 N   0  0  0  0  0  0  0  0  0  0  0  0
  183.0700  176.4920  138.8640 C   0  0  0  0  0  2  0  0  0  0  0  0
  182.5900  177.5760  136.6830 C   0  0  0  0  0  2  0  0  0  0  0  0
  180.6470  178.9690  140.0590 C   0  0  0  0  0  2  0  0  0  0  0  0
  180.5800  176.6620  140.6750 O   0  0  0  0  0  1  0  0  0  0  0  0
  179.9900  177.6160  139.8440 C   0  0  0  0  0  2  0  0  0  0  0  0
  188.7440  178.6680  140.5360 O   0  0  0  0  0  0  0  0  0  0  0  0
  187.0290  177.2020  137.6080 C   0  0  0  0  0  3  0  0  0  0  0  0
  188.0060  176.3340  137.0970 C   0  0  0  0  0  0  0  0  0  0  0  0
  189.5040  177.0020  138.8830 C   0  0  0  0  0  3  0  0  0  0  0  0
  187.2910  177.9640  138.7500 C   0  0  0  0  0  3  0  0  0  0  0  0
  188.5260  177.8670  139.4020 C   0  0  0  0  0  0  0  0  0  0  0  0
  189.2440  176.2400  137.7420 C   0  0  0  0  0  3  0  0  0  0  0  0
  187.7760  175.5600  135.9570 O   0  0  0  0  0  0  0  0  0  0  0  0
  186.6860  174.6540  135.8510 C   0  0  0  0  0  1  0  0  0  0  0  0
  1  5  1  0  0  0  0
  1  6  2  0  0  0  0
  2 11  1  0  0  0  0
  3 16  1  0  0  0  0
  3 10  1  0  0  0  0
  4  7  2  0  0  0  0
  4  8  1  0  0  0  0
  7  9  1  0  0  0  0
  8  1  1  0  0  0  0
  9  5  2  0  0  0  0
 11 10  2  0  0  0  0
 11  7  1  0  0  0  0
 12  2  1  0  0  0  0
 12 15  2  0  0  0  0
 13 14  1  0  0  0  0
 13  2  2  0  0  0  0
 14  3  2  0  0  0  0
 15  4  1  0  0  0  0
 16 17  1  1  0  0  0
 18 16  1  0  0  0  0
 19 18  1  0  0  0  0
 19 20  2  0  0  0  0
 21 19  1  0  0  0  0
 22 21  1  0  0  0  0
 23 25  2  0  0  0  0
 23 22  1  0  0  0  0
 24 23  2  0  0  0  0
 26 23  1  1  0  0  0
 26 30  1  0  0  0  0
 27 31  1  0  0  0  0
 27 29  1  0  0  0  0
 28 30  1  0  0  0  0
 29 28  2  0  0  0  0
 31 26  1  0  0  0  0
 32 22  1  0  0  0  0
 34 32  1  0  0  0  0
 34 33  1  0  0  0  0
 35 13  1  0  0  0  0
 36 39  1  0  0  0  0
 37 36  2  0  0  0  0
 37 41  1  0  0  0  0
 38 40  1  0  0  0  0
 39 40  2  0  0  0  0
 40 35  1  0  0  0  0
 41 38  2  0  0  0  0
 42 37  1  0  0  0  0
 43 42  1  0  0  0  0
M  END
>  <MODEL>
9

>  <REMARK>
 VINA RESULT:      -8.1      3.003      7.190
  Name = 
  12 active torsions:
  status: ('A' for Active; 'I' for Inactive)
    1  A    between atoms: O_1  and  C_34
    2  A    between atoms: O_1  and  C_35
    3  A    between atoms: C_2  and  C_6
    4  A    between atoms: C_2  and  C_13
    5  A    between atoms: C_3  and  N_4
    6  A    between atoms: C_3  and  C_12
    7  A    between atoms: N_4  and  S_14
    8  A    between atoms: N_4  and  C_15
    9  A    between atoms: C_6  and  C_12
   10  A    between atoms: C_11  and  S_14
   11  A    between atoms: C_15  and  C_42
   12  A    between atoms: C_19  and  O_25
                            x       y       z     vdW  Elec       q    Type
                         _______ _______ _______ _____ _____    ______ ____

>  <TORSDO>
F 12

$$$$
