=
 OpenBabel10272400563D

 25 28  0  0  1  0  0  0  0  0999 V2000
  187.2510  177.3330  145.1670 C   0  0  2  0  0  3  0  0  0  0  0  0
  188.6200  177.9560  144.8460 C   0  0  1  0  0  3  0  0  0  0  0  0
  187.8760  177.4310  147.5310 N   0  0  0  0  0  0  0  0  0  0  0  0
  186.0710  178.0470  144.6020 C   0  0  0  0  0  0  0  0  0  0  0  0
  183.6380  179.2420  143.9940 C   0  0  0  0  0  3  0  0  0  0  0  0
  189.2560  177.3040  147.1530 C   0  0  0  0  0  3  0  0  0  0  0  0
  185.1730  178.3460  145.6090 C   0  0  0  0  0  0  0  0  0  0  0  0
  183.9490  178.9530  145.3330 C   0  0  0  0  0  3  0  0  0  0  0  0
  184.5420  178.9170  142.9650 C   0  0  0  0  0  3  0  0  0  0  0  0
  186.9460  177.4750  146.6280 C   0  0  0  0  0  0  0  0  0  0  0  0
  185.6460  177.9930  146.9000 N   0  0  0  0  0  2  0  0  0  0  0  0
  185.7680  178.3040  143.2640 C   0  0  0  0  0  3  0  0  0  0  0  0
  189.6590  177.5220  145.8880 C   0  0  0  0  0  0  0  0  0  0  0  0
  189.0080  177.6110  143.4350 C   0  0  0  0  0  0  0  0  0  0  0  0
  189.7540  176.0150  141.7670 C   0  0  0  0  0  3  0  0  0  0  0  0
  188.9560  178.6040  142.4520 C   0  0  0  0  0  3  0  0  0  0  0  0
  189.3030  178.3060  141.1320 C   0  0  0  0  0  3  0  0  0  0  0  0
  189.4070  176.3120  143.0870 C   0  0  0  0  0  3  0  0  0  0  0  0
  189.7060  177.0090  140.7810 C   0  0  0  0  0  0  0  0  0  0  0  0
  190.0720  176.6900  139.3920 C   0  0  0  0  0  0  0  0  0  0  0  0
  189.6060  177.4770  138.3450 O   0  0  0  0  0  0  0  0  0  0  0  0
  190.8120  175.7020  139.1380 O   0  0  0  0  0  1  0  0  0  0  0  0
  191.1150  177.5130  145.6090 C   0  0  0  0  0  0  0  0  0  0  0  0
  191.6260  178.3550  144.8250 O   0  0  0  0  0  0  0  0  0  0  0  0
  191.9620  176.5610  146.2470 N   0  0  0  0  0  1  0  0  0  0  0  0
  1  4  1  6  0  0  0
  1 10  1  0  0  0  0
  2 14  1  6  0  0  0
  2  1  1  0  0  0  0
  2 13  1  0  0  0  0
  4  7  1  0  0  0  0
  5  8  1  0  0  0  0
  6  3  1  0  0  0  0
  7 11  1  0  0  0  0
  8  7  2  0  0  0  0
  9 12  1  0  0  0  0
  9  5  2  0  0  0  0
 10 11  1  0  0  0  0
 10  3  2  0  0  0  0
 12  4  2  0  0  0  0
 13  6  2  0  0  0  0
 15 18  2  0  0  0  0
 16 14  2  0  0  0  0
 17 16  1  0  0  0  0
 18 14  1  0  0  0  0
 19 17  2  0  0  0  0
 19 15  1  0  0  0  0
 20 19  1  0  0  0  0
 21 20  2  0  0  0  0
 22 20  1  0  0  0  0
 23 13  1  0  0  0  0
 23 25  1  0  0  0  0
 24 23  2  0  0  0  0
M  END
>  <MODEL>
1

>  <REMARK>
 VINA RESULT:      -9.2      0.000      0.000
  Name = 
  3 active torsions:
  status: ('A' for Active; 'I' for Inactive)
    1  A    between atoms: C_2  and  C_25
    2  A    between atoms: C_3  and  C_6
    3  A    between atoms: C_13  and  C_24
                            x       y       z     vdW  Elec       q    Type
                         _______ _______ _______ _____ _____    ______ ____

>  <TORSDO>
F 3

$$$$
=
 OpenBabel10272400563D

 25 28  0  0  1  0  0  0  0  0999 V2000
  187.2860  178.5210  141.9360 C   0  0  2  0  0  3  0  0  0  0  0  0
  188.0280  177.2980  142.5020 C   0  0  1  0  0  3  0  0  0  0  0  0
  188.3020  178.0070  139.7700 N   0  0  0  0  0  0  0  0  0  0  0  0
  185.8140  178.5430  142.1660 C   0  0  0  0  0  0  0  0  0  0  0  0
  183.0480  178.8010  142.1200 C   0  0  0  0  0  3  0  0  0  0  0  0
  189.4220  177.4220  140.4530 C   0  0  0  0  0  3  0  0  0  0  0  0
  185.1510  178.7040  140.9640 C   0  0  0  0  0  0  0  0  0  0  0  0
  183.7640  178.8270  140.9110 C   0  0  0  0  0  3  0  0  0  0  0  0
  183.7250  178.6620  143.3460 C   0  0  0  0  0  3  0  0  0  0  0  0
  187.3000  178.4890  140.4380 C   0  0  0  0  0  0  0  0  0  0  0  0
  186.0220  178.7020  139.8430 N   0  0  0  0  0  2  0  0  0  0  0  0
  185.1220  178.5410  143.3780 C   0  0  0  0  0  3  0  0  0  0  0  0
  189.3510  177.0870  141.7550 C   0  0  0  0  0  0  0  0  0  0  0  0
  188.1980  177.4590  143.9870 C   0  0  0  0  0  0  0  0  0  0  0  0
  189.4440  178.2650  145.9070 C   0  0  0  0  0  3  0  0  0  0  0  0
  187.2180  176.9490  144.8440 C   0  0  0  0  0  3  0  0  0  0  0  0
  187.3500  177.0940  146.2280 C   0  0  0  0  0  3  0  0  0  0  0  0
  189.3130  178.1210  144.5230 C   0  0  0  0  0  3  0  0  0  0  0  0
  188.4640  177.7520  146.7680 C   0  0  0  0  0  0  0  0  0  0  0  0
  188.6080  177.9070  148.2250 C   0  0  0  0  0  0  0  0  0  0  0  0
  189.8100  178.3440  148.7680 O   0  0  0  0  0  0  0  0  0  0  0  0
  187.6430  177.6460  148.9920 O   0  0  0  0  0  1  0  0  0  0  0  0
  190.4970  176.3580  142.3500 C   0  0  0  0  0  0  0  0  0  0  0  0
  190.3540  175.1920  142.8020 O   0  0  0  0  0  0  0  0  0  0  0  0
  191.7870  176.9630  142.3970 N   0  0  0  0  0  1  0  0  0  0  0  0
  1 10  1  6  0  0  0
  1  4  1  0  0  0  0
  1  2  1  0  0  0  0
  2 14  1  1  0  0  0
  3 10  2  0  0  0  0
  3  6  1  0  0  0  0
  4 12  1  0  0  0  0
  5  9  1  0  0  0  0
  6 13  2  0  0  0  0
  7  4  2  0  0  0  0
  8  7  1  0  0  0  0
  8  5  2  0  0  0  0
  9 12  2  0  0  0  0
 11 10  1  0  0  0  0
 11  7  1  0  0  0  0
 13 23  1  0  0  0  0
 13  2  1  0  0  0  0
 14 18  2  0  0  0  0
 14 16  1  0  0  0  0
 15 19  2  0  0  0  0
 16 17  2  0  0  0  0
 17 19  1  0  0  0  0
 18 15  1  0  0  0  0
 19 20  1  0  0  0  0
 20 21  2  0  0  0  0
 20 22  1  0  0  0  0
 23 25  1  0  0  0  0
 23 24  2  0  0  0  0
M  END
>  <MODEL>
2

>  <REMARK>
 VINA RESULT:      -8.9      2.979      5.435
  Name = 
  3 active torsions:
  status: ('A' for Active; 'I' for Inactive)
    1  A    between atoms: C_2  and  C_25
    2  A    between atoms: C_3  and  C_6
    3  A    between atoms: C_13  and  C_24
                            x       y       z     vdW  Elec       q    Type
                         _______ _______ _______ _____ _____    ______ ____

>  <TORSDO>
F 3

$$$$
=
 OpenBabel10272400563D

 25 28  0  0  1  0  0  0  0  0999 V2000
  186.4080  178.8260  144.8460 C   0  0  2  0  0  3  0  0  0  0  0  0
  185.9660  177.9830  143.6370 C   0  0  1  0  0  3  0  0  0  0  0  0
  184.0450  179.3450  145.2170 N   0  0  0  0  0  0  0  0  0  0  0  0
  187.2570  178.1210  145.8460 C   0  0  0  0  0  0  0  0  0  0  0  0
  188.5810  177.0920  148.0620 C   0  0  0  0  0  3  0  0  0  0  0  0
  183.8090  179.1960  143.8080 C   0  0  0  0  0  3  0  0  0  0  0  0
  186.6970  178.2330  147.1050 C   0  0  0  0  0  0  0  0  0  0  0  0
  187.3350  177.7180  148.2320 C   0  0  0  0  0  3  0  0  0  0  0  0
  189.1630  176.9980  146.7840 C   0  0  0  0  0  3  0  0  0  0  0  0
  185.2270  179.1500  145.7120 C   0  0  0  0  0  0  0  0  0  0  0  0
  185.4370  178.8870  147.0970 N   0  0  0  0  0  2  0  0  0  0  0  0
  188.5060  177.5250  145.6620 C   0  0  0  0  0  3  0  0  0  0  0  0
  184.6990  178.5760  143.0100 C   0  0  0  0  0  0  0  0  0  0  0  0
  187.1100  177.8570  142.6700 C   0  0  0  0  0  0  0  0  0  0  0  0
  188.4340  178.7090  140.8240 C   0  0  0  0  0  3  0  0  0  0  0  0
  187.9470  176.7400  142.7470 C   0  0  0  0  0  3  0  0  0  0  0  0
  189.0230  176.6050  141.8650 C   0  0  0  0  0  3  0  0  0  0  0  0
  187.3580  178.8450  141.7060 C   0  0  0  0  0  3  0  0  0  0  0  0
  189.2720  177.5890  140.8970 C   0  0  0  0  0  0  0  0  0  0  0  0
  190.4030  177.4510  139.9650 C   0  0  0  0  0  0  0  0  0  0  0  0
  190.1790  177.3890  138.5950 O   0  0  0  0  0  0  0  0  0  0  0  0
  191.5840  177.3890  140.4000 O   0  0  0  0  0  1  0  0  0  0  0  0
  184.3180  178.3360  141.5970 C   0  0  0  0  0  0  0  0  0  0  0  0
  183.7590  177.2610  141.2540 O   0  0  0  0  0  0  0  0  0  0  0  0
  184.5600  179.3330  140.6080 N   0  0  0  0  0  1  0  0  0  0  0  0
  1 10  1  1  0  0  0
  1  4  1  0  0  0  0
  2 14  1  6  0  0  0
  2  1  1  0  0  0  0
  3 10  2  0  0  0  0
  4  7  1  0  0  0  0
  5  8  1  0  0  0  0
  6  3  1  0  0  0  0
  7  8  2  0  0  0  0
  9  5  2  0  0  0  0
 10 11  1  0  0  0  0
 11  7  1  0  0  0  0
 12  4  2  0  0  0  0
 12  9  1  0  0  0  0
 13  2  1  0  0  0  0
 13  6  2  0  0  0  0
 14 16  1  0  0  0  0
 15 19  2  0  0  0  0
 15 18  1  0  0  0  0
 17 16  2  0  0  0  0
 18 14  2  0  0  0  0
 19 17  1  0  0  0  0
 20 22  1  0  0  0  0
 20 19  1  0  0  0  0
 21 20  2  0  0  0  0
 23 13  1  0  0  0  0
 24 23  2  0  0  0  0
 25 23  1  0  0  0  0
M  END
>  <MODEL>
3

>  <REMARK>
 VINA RESULT:      -8.7      2.204      4.578
  Name = 
  3 active torsions:
  status: ('A' for Active; 'I' for Inactive)
    1  A    between atoms: C_2  and  C_25
    2  A    between atoms: C_3  and  C_6
    3  A    between atoms: C_13  and  C_24
                            x       y       z     vdW  Elec       q    Type
                         _______ _______ _______ _____ _____    ______ ____

>  <TORSDO>
F 3

$$$$
=
 OpenBabel10272400563D

 25 28  0  0  1  0  0  0  0  0999 V2000
  187.6430  178.5750  141.3750 C   0  0  2  0  0  3  0  0  0  0  0  0
  188.5320  177.3290  141.2180 C   0  0  1  0  0  3  0  0  0  0  0  0
  187.5780  178.7090  138.9320 N   0  0  0  0  0  0  0  0  0  0  0  0
  186.4280  178.3960  142.2180 C   0  0  0  0  0  0  0  0  0  0  0  0
  183.9370  178.3860  143.4470 C   0  0  0  0  0  3  0  0  0  0  0  0
  188.8720  178.0870  138.8810 C   0  0  0  0  0  3  0  0  0  0  0  0
  185.3030  178.7800  141.5120 C   0  0  0  0  0  0  0  0  0  0  0  0
  184.0400  178.7760  142.1020 C   0  0  0  0  0  3  0  0  0  0  0  0
  185.0840  178.0170  144.1730 C   0  0  0  0  0  3  0  0  0  0  0  0
  186.9890  178.9120  140.0690 C   0  0  0  0  0  0  0  0  0  0  0  0
  185.5850  179.1390  140.1680 N   0  0  0  0  0  2  0  0  0  0  0  0
  186.3470  178.0290  143.5620 C   0  0  0  0  0  3  0  0  0  0  0  0
  189.3800  177.4370  139.9450 C   0  0  0  0  0  0  0  0  0  0  0  0
  189.3490  177.1360  142.4660 C   0  0  0  0  0  0  0  0  0  0  0  0
  190.3650  175.7020  144.1390 C   0  0  0  0  0  3  0  0  0  0  0  0
  189.8790  178.2570  143.1120 C   0  0  0  0  0  3  0  0  0  0  0  0
  190.6490  178.1030  144.2680 C   0  0  0  0  0  3  0  0  0  0  0  0
  189.5960  175.8550  142.9820 C   0  0  0  0  0  3  0  0  0  0  0  0
  190.8960  176.8240  144.7900 C   0  0  0  0  0  0  0  0  0  0  0  0
  191.7050  176.6560  146.0080 C   0  0  0  0  0  0  0  0  0  0  0  0
  192.3670  175.4580  146.2500 O   0  0  0  0  0  0  0  0  0  0  0  0
  191.8060  177.5960  146.8410 O   0  0  0  0  0  1  0  0  0  0  0  0
  190.6540  176.7010  139.7680 C   0  0  0  0  0  0  0  0  0  0  0  0
  190.6780  175.5850  139.1840 O   0  0  0  0  0  0  0  0  0  0  0  0
  191.8780  177.2600  140.2360 N   0  0  0  0  0  1  0  0  0  0  0  0
  1 10  1  6  0  0  0
  1  4  1  0  0  0  0
  2  1  1  0  0  0  0
  2 14  1  1  0  0  0
  3 10  2  0  0  0  0
  4 12  1  0  0  0  0
  5  9  1  0  0  0  0
  6  3  1  0  0  0  0
  6 13  2  0  0  0  0
  7  8  1  0  0  0  0
  7  4  2  0  0  0  0
  8  5  2  0  0  0  0
 10 11  1  0  0  0  0
 11  7  1  0  0  0  0
 12  9  2  0  0  0  0
 13  2  1  0  0  0  0
 14 18  2  0  0  0  0
 14 16  1  0  0  0  0
 15 19  2  0  0  0  0
 16 17  2  0  0  0  0
 17 19  1  0  0  0  0
 18 15  1  0  0  0  0
 19 20  1  0  0  0  0
 20 21  2  0  0  0  0
 20 22  1  0  0  0  0
 23 13  1  0  0  0  0
 23 25  1  0  0  0  0
 24 23  2  0  0  0  0
M  END
>  <MODEL>
4

>  <REMARK>
 VINA RESULT:      -8.3      2.849      5.192
  Name = 
  3 active torsions:
  status: ('A' for Active; 'I' for Inactive)
    1  A    between atoms: C_2  and  C_25
    2  A    between atoms: C_3  and  C_6
    3  A    between atoms: C_13  and  C_24
                            x       y       z     vdW  Elec       q    Type
                         _______ _______ _______ _____ _____    ______ ____

>  <TORSDO>
F 3

$$$$
=
 OpenBabel10272400563D

 25 28  0  0  1  0  0  0  0  0999 V2000
  188.7200  178.0160  145.6530 C   0  0  2  0  0  3  0  0  0  0  0  0
  187.6580  177.4330  144.7050 C   0  0  1  0  0  3  0  0  0  0  0  0
  186.9500  178.2510  147.3260 N   0  0  0  0  0  0  0  0  0  0  0  0
  189.9320  177.1740  145.8570 C   0  0  0  0  0  0  0  0  0  0  0  0
  192.1750  175.7830  146.7280 C   0  0  0  0  0  3  0  0  0  0  0  0
  185.9920  178.4030  146.2660 C   0  0  0  0  0  3  0  0  0  0  0  0
  190.1350  176.9570  147.2070 C   0  0  0  0  0  0  0  0  0  0  0  0
  191.2470  176.2550  147.6700 C   0  0  0  0  0  3  0  0  0  0  0  0
  191.9810  176.0240  145.3550 C   0  0  0  0  0  3  0  0  0  0  0  0
  188.2010  178.0440  147.0590 C   0  0  0  0  0  0  0  0  0  0  0  0
  189.1020  177.4950  148.0190 N   0  0  0  0  0  2  0  0  0  0  0  0
  190.8570  176.7350  144.9080 C   0  0  0  0  0  3  0  0  0  0  0  0
  186.2860  178.0490  145.0010 C   0  0  0  0  0  0  0  0  0  0  0  0
  188.1030  177.6170  143.2810 C   0  0  0  0  0  0  0  0  0  0  0  0
  188.4600  179.0170  141.3320 C   0  0  0  0  0  3  0  0  0  0  0  0
  188.6090  176.5190  142.5780 C   0  0  0  0  0  3  0  0  0  0  0  0
  189.0380  176.6680  141.2570 C   0  0  0  0  0  3  0  0  0  0  0  0
  188.0320  178.8700  142.6540 C   0  0  0  0  0  3  0  0  0  0  0  0
  188.9640  177.9180  140.6240 C   0  0  0  0  0  0  0  0  0  0  0  0
  189.4140  178.0790  139.2320 C   0  0  0  0  0  0  0  0  0  0  0  0
  188.9820  179.1630  138.4770 O   0  0  0  0  0  0  0  0  0  0  0  0
  190.1950  177.2380  138.7120 O   0  0  0  0  0  1  0  0  0  0  0  0
  185.1990  178.1020  143.9930 C   0  0  0  0  0  0  0  0  0  0  0  0
  185.2370  177.3730  142.9670 O   0  0  0  0  0  0  0  0  0  0  0  0
  184.0810  178.9640  144.1860 N   0  0  0  0  0  1  0  0  0  0  0  0
  1  4  1  1  0  0  0
  1 10  1  0  0  0  0
  2 14  1  6  0  0  0
  2 13  1  0  0  0  0
  2  1  1  0  0  0  0
  4  7  1  0  0  0  0
  5  8  1  0  0  0  0
  6  3  1  0  0  0  0
  7  8  2  0  0  0  0
  7 11  1  0  0  0  0
  9  5  2  0  0  0  0
 10  3  2  0  0  0  0
 10 11  1  0  0  0  0
 12  9  1  0  0  0  0
 12  4  2  0  0  0  0
 13  6  2  0  0  0  0
 15 18  2  0  0  0  0
 16 14  2  0  0  0  0
 17 16  1  0  0  0  0
 18 14  1  0  0  0  0
 19 17  2  0  0  0  0
 19 15  1  0  0  0  0
 20 19  1  0  0  0  0
 21 20  2  0  0  0  0
 22 20  1  0  0  0  0
 23 25  1  0  0  0  0
 23 13  1  0  0  0  0
 24 23  2  0  0  0  0
M  END
>  <MODEL>
5

>  <REMARK>
 VINA RESULT:      -8.0      1.865      4.666
  Name = 
  3 active torsions:
  status: ('A' for Active; 'I' for Inactive)
    1  A    between atoms: C_2  and  C_25
    2  A    between atoms: C_3  and  C_6
    3  A    between atoms: C_13  and  C_24
                            x       y       z     vdW  Elec       q    Type
                         _______ _______ _______ _____ _____    ______ ____

>  <TORSDO>
F 3

$$$$
=
 OpenBabel10272400563D

 25 28  0  0  1  0  0  0  0  0999 V2000
  187.2640  177.3090  143.9850 C   0  0  2  0  0  3  0  0  0  0  0  0
  186.8280  178.4420  143.0390 C   0  0  1  0  0  3  0  0  0  0  0  0
  189.2120  176.9900  142.5380 N   0  0  0  0  0  0  0  0  0  0  0  0
  187.3650  177.6770  145.4250 C   0  0  0  0  0  0  0  0  0  0  0  0
  187.9620  178.0380  148.1140 C   0  0  0  0  0  3  0  0  0  0  0  0
  188.4420  177.4710  141.4250 C   0  0  0  0  0  3  0  0  0  0  0  0
  188.6190  177.3550  145.9080 C   0  0  0  0  0  0  0  0  0  0  0  0
  188.9480  177.5340  147.2500 C   0  0  0  0  0  3  0  0  0  0  0  0
  186.6770  178.3440  147.6280 C   0  0  0  0  0  3  0  0  0  0  0  0
  188.6930  176.9380  143.7250 C   0  0  0  0  0  0  0  0  0  0  0  0
  189.4940  176.8640  144.9030 N   0  0  0  0  0  2  0  0  0  0  0  0
  186.3650  178.1550  146.2740 C   0  0  0  0  0  3  0  0  0  0  0  0
  187.2930  178.1480  141.6080 C   0  0  0  0  0  0  0  0  0  0  0  0
  185.3430  178.6490  143.1560 C   0  0  0  0  0  0  0  0  0  0  0  0
  183.4270  179.8030  144.0960 C   0  0  0  0  0  3  0  0  0  0  0  0
  184.4830  177.8590  142.3870 C   0  0  0  0  0  3  0  0  0  0  0  0
  183.1000  178.0380  142.4720 C   0  0  0  0  0  3  0  0  0  0  0  0
  184.8110  179.6250  144.0110 C   0  0  0  0  0  3  0  0  0  0  0  0
  182.5630  179.0110  143.3280 C   0  0  0  0  0  0  0  0  0  0  0  0
  181.1070  179.2040  143.4210 C   0  0  0  0  0  0  0  0  0  0  0  0
  180.4960  180.2630  142.7600 O   0  0  0  0  0  0  0  0  0  0  0  0
  180.4010  178.4110  144.1000 O   0  0  0  0  0  1  0  0  0  0  0  0
  186.6330  178.7350  140.4170 C   0  0  0  0  0  0  0  0  0  0  0  0
  185.6720  179.5380  140.5430 O   0  0  0  0  0  0  0  0  0  0  0  0
  187.0950  178.4130  139.1080 N   0  0  0  0  0  1  0  0  0  0  0  0
  1 10  1  6  0  0  0
  1  4  1  0  0  0  0
  2 14  1  6  0  0  0
  2  1  1  0  0  0  0
  3 10  2  0  0  0  0
  4  7  2  0  0  0  0
  4 12  1  0  0  0  0
  6 13  2  0  0  0  0
  6  3  1  0  0  0  0
  7  8  1  0  0  0  0
  8  5  2  0  0  0  0
  9  5  1  0  0  0  0
 10 11  1  0  0  0  0
 11  7  1  0  0  0  0
 12  9  2  0  0  0  0
 13  2  1  0  0  0  0
 14 18  1  0  0  0  0
 16 17  1  0  0  0  0
 16 14  2  0  0  0  0
 17 19  2  0  0  0  0
 18 15  2  0  0  0  0
 19 20  1  0  0  0  0
 19 15  1  0  0  0  0
 20 22  1  0  0  0  0
 21 20  2  0  0  0  0
 23 24  2  0  0  0  0
 23 13  1  0  0  0  0
 25 23  1  0  0  0  0
M  END
>  <MODEL>
6

>  <REMARK>
 VINA RESULT:      -7.9      3.923      6.353
  Name = 
  3 active torsions:
  status: ('A' for Active; 'I' for Inactive)
    1  A    between atoms: C_2  and  C_25
    2  A    between atoms: C_3  and  C_6
    3  A    between atoms: C_13  and  C_24
                            x       y       z     vdW  Elec       q    Type
                         _______ _______ _______ _____ _____    ______ ____

>  <TORSDO>
F 3

$$$$
=
 OpenBabel10272400563D

 25 28  0  0  1  0  0  0  0  0999 V2000
  189.8390  178.0890  144.1540 C   0  0  2  0  0  3  0  0  0  0  0  0
  188.9510  177.2180  145.0590 C   0  0  1  0  0  3  0  0  0  0  0  0
  191.7230  177.4860  145.5940 N   0  0  0  0  0  0  0  0  0  0  0  0
  189.7840  177.7690  142.7000 C   0  0  0  0  0  0  0  0  0  0  0  0
  190.1910  177.2890  139.9930 C   0  0  0  0  0  3  0  0  0  0  0  0
  190.8130  177.3390  146.6950 C   0  0  0  0  0  3  0  0  0  0  0  0
  191.0600  177.5400  142.2180 C   0  0  0  0  0  0  0  0  0  0  0  0
  191.2910  177.2880  140.8670 C   0  0  0  0  0  3  0  0  0  0  0  0
  188.8950  177.5460  140.4790 C   0  0  0  0  0  3  0  0  0  0  0  0
  191.2870  177.8010  144.4140 C   0  0  0  0  0  0  0  0  0  0  0  0
  192.0520  177.5690  143.2340 N   0  0  0  0  0  2  0  0  0  0  0  0
  188.6830  177.7990  141.8420 C   0  0  0  0  0  3  0  0  0  0  0  0
  189.4850  177.2290  146.4970 C   0  0  0  0  0  0  0  0  0  0  0  0
  187.5230  177.6740  144.9480 C   0  0  0  0  0  0  0  0  0  0  0  0
  185.6160  178.9130  145.7950 C   0  0  0  0  0  3  0  0  0  0  0  0
  186.7670  177.2800  143.8400 C   0  0  0  0  0  3  0  0  0  0  0  0
  185.4400  177.6980  143.7090 C   0  0  0  0  0  3  0  0  0  0  0  0
  186.9440  178.4950  145.9260 C   0  0  0  0  0  3  0  0  0  0  0  0
  184.8560  178.5160  144.6870 C   0  0  0  0  0  0  0  0  0  0  0  0
  183.4590  178.9590  144.5550 C   0  0  0  0  0  0  0  0  0  0  0  0
  182.9020  179.1560  143.2960 O   0  0  0  0  0  0  0  0  0  0  0  0
  182.7540  179.1640  145.5790 O   0  0  0  0  0  1  0  0  0  0  0  0
  188.6280  176.9380  147.6700 C   0  0  0  0  0  0  0  0  0  0  0  0
  188.1460  175.7880  147.8460 O   0  0  0  0  0  0  0  0  0  0  0  0
  188.3560  177.9540  148.6320 N   0  0  0  0  0  1  0  0  0  0  0  0
  1  4  1  6  0  0  0
  1 10  1  0  0  0  0
  1  2  1  0  0  0  0
  2 14  1  1  0  0  0
  2 13  1  0  0  0  0
  3  6  1  0  0  0  0
  5  9  2  0  0  0  0
  5  8  1  0  0  0  0
  7  4  1  0  0  0  0
  7 11  1  0  0  0  0
  8  7  2  0  0  0  0
  9 12  1  0  0  0  0
 10  3  2  0  0  0  0
 11 10  1  0  0  0  0
 12  4  2  0  0  0  0
 13  6  2  0  0  0  0
 13 23  1  0  0  0  0
 14 18  1  0  0  0  0
 15 18  2  0  0  0  0
 16 14  2  0  0  0  0
 17 16  1  0  0  0  0
 17 19  2  0  0  0  0
 19 15  1  0  0  0  0
 20 19  1  0  0  0  0
 20 22  1  0  0  0  0
 21 20  2  0  0  0  0
 23 24  2  0  0  0  0
 23 25  1  0  0  0  0
M  END
>  <MODEL>
7

>  <REMARK>
 VINA RESULT:      -7.7      2.962      5.702
  Name = 
  3 active torsions:
  status: ('A' for Active; 'I' for Inactive)
    1  A    between atoms: C_2  and  C_25
    2  A    between atoms: C_3  and  C_6
    3  A    between atoms: C_13  and  C_24
                            x       y       z     vdW  Elec       q    Type
                         _______ _______ _______ _____ _____    ______ ____

>  <TORSDO>
F 3

$$$$
=
 OpenBabel10272400563D

 25 28  0  0  1  0  0  0  0  0999 V2000
  189.2530  177.7180  139.5440 C   0  0  2  0  0  3  0  0  0  0  0  0
  189.2380  176.6780  138.4110 C   0  0  1  0  0  3  0  0  0  0  0  0
  187.1690  178.6060  138.6170 N   0  0  0  0  0  0  0  0  0  0  0  0
  189.3650  177.1650  140.9230 C   0  0  0  0  0  0  0  0  0  0  0  0
  189.2550  176.5260  143.6250 C   0  0  0  0  0  3  0  0  0  0  0  0
  187.5790  178.1610  137.3150 C   0  0  0  0  0  3  0  0  0  0  0  0
  188.3310  177.6400  141.7080 C   0  0  0  0  0  0  0  0  0  0  0  0
  188.2470  177.3270  143.0640 C   0  0  0  0  0  3  0  0  0  0  0  0
  190.3210  176.0620  142.8310 C   0  0  0  0  0  3  0  0  0  0  0  0
  187.9140  178.3830  139.6550 C   0  0  0  0  0  0  0  0  0  0  0  0
  187.3990  178.4290  140.9840 N   0  0  0  0  0  2  0  0  0  0  0  0
  190.3890  176.3890  141.4690 C   0  0  0  0  0  3  0  0  0  0  0  0
  188.5700  177.2630  137.1610 C   0  0  0  0  0  0  0  0  0  0  0  0
  190.6370  176.1840  138.1670 C   0  0  0  0  0  0  0  0  0  0  0  0
  193.0340  176.5510  138.0830 C   0  0  0  0  0  3  0  0  0  0  0  0
  190.8350  174.8480  137.8080 C   0  0  0  0  0  3  0  0  0  0  0  0
  192.1260  174.3630  137.5840 C   0  0  0  0  0  3  0  0  0  0  0  0
  191.7430  177.0360  138.3070 C   0  0  0  0  0  3  0  0  0  0  0  0
  193.2350  175.2130  137.7190 C   0  0  0  0  0  0  0  0  0  0  0  0
  194.5970  174.7080  137.4850 C   0  0  0  0  0  0  0  0  0  0  0  0
  194.9640  173.4460  137.9380 O   0  0  0  0  0  1  0  0  0  0  0  0
  195.4420  175.4130  136.8720 O   0  0  0  0  0  0  0  0  0  0  0  0
  188.8380  176.7480  135.7960 C   0  0  0  0  0  0  0  0  0  0  0  0
  189.6180  177.3580  135.0190 O   0  0  0  0  0  0  0  0  0  0  0  0
  188.2300  175.5380  135.3530 N   0  0  0  0  0  1  0  0  0  0  0  0
  1 10  1  1  0  0  0
  1  4  1  0  0  0  0
  2 14  1  6  0  0  0
  2  1  1  0  0  0  0
  3 10  2  0  0  0  0
  4 12  2  0  0  0  0
  4  7  1  0  0  0  0
  6  3  1  0  0  0  0
  7  8  2  0  0  0  0
  8  5  1  0  0  0  0
  9  5  2  0  0  0  0
 10 11  1  0  0  0  0
 11  7  1  0  0  0  0
 12  9  1  0  0  0  0
 13  6  2  0  0  0  0
 13  2  1  0  0  0  0
 14 18  1  0  0  0  0
 15 18  2  0  0  0  0
 16 14  2  0  0  0  0
 17 19  2  0  0  0  0
 17 16  1  0  0  0  0
 19 15  1  0  0  0  0
 20 19  1  0  0  0  0
 20 21  1  0  0  0  0
 22 20  2  0  0  0  0
 23 13  1  0  0  0  0
 24 23  2  0  0  0  0
 25 23  1  0  0  0  0
M  END
>  <MODEL>
8

>  <REMARK>
 VINA RESULT:      -7.1      4.150      7.031
  Name = 
  3 active torsions:
  status: ('A' for Active; 'I' for Inactive)
    1  A    between atoms: C_2  and  C_25
    2  A    between atoms: C_3  and  C_6
    3  A    between atoms: C_13  and  C_24
                            x       y       z     vdW  Elec       q    Type
                         _______ _______ _______ _____ _____    ______ ____

>  <TORSDO>
F 3

$$$$
=
 OpenBabel10272400563D

 25 28  0  0  1  0  0  0  0  0999 V2000
  189.3530  176.6150  143.1350 C   0  0  2  0  0  3  0  0  0  0  0  0
  188.9330  177.7770  142.2180 C   0  0  1  0  0  3  0  0  0  0  0  0
  191.1710  176.1640  141.5610 N   0  0  0  0  0  0  0  0  0  0  0  0
  189.5770  176.9730  144.5640 C   0  0  0  0  0  0  0  0  0  0  0  0
  190.3790  177.2880  147.2050 C   0  0  0  0  0  3  0  0  0  0  0  0
  190.3630  176.6990  140.5010 C   0  0  0  0  0  3  0  0  0  0  0  0
  190.8360  176.5640  144.9610 C   0  0  0  0  0  0  0  0  0  0  0  0
  191.2670  176.7180  146.2780 C   0  0  0  0  0  3  0  0  0  0  0  0
  189.0890  177.6830  146.8070 C   0  0  0  0  0  3  0  0  0  0  0  0
  190.7320  176.1470  142.7800 C   0  0  0  0  0  0  0  0  0  0  0  0
  191.6040  176.0150  143.9010 N   0  0  0  0  0  2  0  0  0  0  0  0
  188.6730  177.5180  145.4770 C   0  0  0  0  0  3  0  0  0  0  0  0
  189.2780  177.4530  140.7590 C   0  0  0  0  0  0  0  0  0  0  0  0
  187.4780  178.0860  142.4340 C   0  0  0  0  0  0  0  0  0  0  0  0
  185.3350  177.6020  143.4650 C   0  0  0  0  0  3  0  0  0  0  0  0
  186.9150  179.1950  141.7970 C   0  0  0  0  0  3  0  0  0  0  0  0
  185.5670  179.5080  141.9910 C   0  0  0  0  0  3  0  0  0  0  0  0
  186.6840  177.2890  143.2730 C   0  0  0  0  0  3  0  0  0  0  0  0
  184.7680  178.7120  142.8250 C   0  0  0  0  0  0  0  0  0  0  0  0
  183.3470  179.0360  143.0310 C   0  0  0  0  0  0  0  0  0  0  0  0
  182.4180  178.7890  142.0270 O   0  0  0  0  0  0  0  0  0  0  0  0
  182.9590  179.5400  144.1190 O   0  0  0  0  0  1  0  0  0  0  0  0
  188.5810  178.0860  139.6130 C   0  0  0  0  0  0  0  0  0  0  0  0
  188.9810  179.1830  139.1420 O   0  0  0  0  0  0  0  0  0  0  0  0
  187.4590  177.4460  139.0120 N   0  0  0  0  0  1  0  0  0  0  0  0
  1 10  1  6  0  0  0
  1  4  1  0  0  0  0
  2 14  1  6  0  0  0
  2  1  1  0  0  0  0
  3 10  2  0  0  0  0
  4  7  2  0  0  0  0
  4 12  1  0  0  0  0
  6 13  2  0  0  0  0
  6  3  1  0  0  0  0
  7  8  1  0  0  0  0
  8  5  2  0  0  0  0
  9  5  1  0  0  0  0
 10 11  1  0  0  0  0
 11  7  1  0  0  0  0
 12  9  2  0  0  0  0
 13  2  1  0  0  0  0
 14 18  1  0  0  0  0
 16 17  1  0  0  0  0
 16 14  2  0  0  0  0
 17 19  2  0  0  0  0
 18 15  2  0  0  0  0
 19 20  1  0  0  0  0
 19 15  1  0  0  0  0
 20 22  1  0  0  0  0
 21 20  2  0  0  0  0
 23 13  1  0  0  0  0
 24 23  2  0  0  0  0
 25 23  1  0  0  0  0
M  END
>  <MODEL>
9

>  <REMARK>
 VINA RESULT:      -7.1      3.276      6.041
  Name = 
  3 active torsions:
  status: ('A' for Active; 'I' for Inactive)
    1  A    between atoms: C_2  and  C_25
    2  A    between atoms: C_3  and  C_6
    3  A    between atoms: C_13  and  C_24
                            x       y       z     vdW  Elec       q    Type
                         _______ _______ _______ _____ _____    ______ ____

>  <TORSDO>
F 3

$$$$
