=
 OpenBabel10272413403D

 32 36  0  0  1  0  0  0  0  0999 V2000
  184.5930  178.9750  144.1670 C   0  0  1  0  0  3  0  0  0  0  0  0
  188.6470  177.4230  141.5630 C   0  0  1  0  0  3  0  0  0  0  0  0
  189.9950  176.9410  139.4660 C   0  0  0  0  0  0  0  0  0  0  0  0
  191.3020  176.6080  138.8550 C   0  0  0  0  0  0  0  0  0  0  0  0
  186.7490  178.4510  142.2420 C   0  0  1  0  0  3  0  0  0  0  0  0
  187.5230  176.5390  143.6390 C   0  0  0  0  0  2  0  0  0  0  0  0
  193.7490  175.9780  137.7230 N   0  0  0  0  0  0  0  0  0  0  0  0
  185.3630  177.6580  144.1850 C   0  0  0  0  0  2  0  0  0  0  0  0
  188.8550  176.6610  142.8930 C   0  0  2  0  0  3  0  0  0  0  0  0
  189.9640  177.3050  143.7660 C   0  0  2  0  0  3  0  0  0  0  0  0
  191.1840  177.2060  141.6450 C   0  0  2  0  0  3  0  0  0  0  0  0
  192.6090  175.7180  137.0300 C   0  0  0  0  0  3  0  0  0  0  0  0
  184.5520  179.5370  142.7460 C   0  0  0  0  0  2  0  0  0  0  0  0
  186.7810  177.8720  143.6660 C   0  0  2  0  0  3  0  0  0  0  0  0
  191.3660  176.0280  137.5830 C   0  0  0  0  0  3  0  0  0  0  0  0
  185.9700  179.7620  142.2270 C   0  0  0  0  0  2  0  0  0  0  0  0
  191.1460  177.7640  143.0090 N   0  0  0  0  0  0  0  0  0  0  0  0
  192.4920  177.5090  140.9160 C   0  0  0  0  0  2  0  0  0  0  0  0
  188.0620  178.6830  141.8000 O   0  0  0  0  0  0  0  0  0  0  0  0
  188.9230  176.7200  138.8390 O   0  0  0  0  0  0  0  0  0  0  0  0
  193.7190  176.5390  138.9630 C   0  0  0  0  0  3  0  0  0  0  0  0
  189.9650  177.6260  140.8060 C   0  0  2  0  0  3  0  0  0  0  0  0
  192.4990  176.8560  139.5610 C   0  0  0  0  0  0  0  0  0  0  0  0
  190.1640  176.9140  146.1650 N   0  0  0  0  0  1  0  0  0  0  0  0
  190.4210  176.3440  144.8550 C   0  0  0  0  0  2  0  0  0  0  0  0
  191.2320  179.7770  144.3800 C   0  0  0  0  0  1  0  0  0  0  0  0
  191.1200  179.2250  142.9720 C   0  0  0  0  0  2  0  0  0  0  0  0
  183.1830  178.7380  144.6760 C   0  0  0  0  0  2  0  0  0  0  0  0
  180.8690  178.7980  143.6810 C   0  0  0  0  0  0  0  0  0  0  0  0
  182.2160  179.2680  143.7280 N   0  0  0  0  0  2  0  0  0  0  0  0
  179.9860  179.3370  142.7560 O   0  0  0  0  0  0  0  0  0  0  0  0
  180.4750  177.8980  144.4700 O   0  0  0  0  0  1  0  0  0  0  0  0
  1  8  1  0  0  0  0
  1 28  1  6  0  0  0
  2 19  1  1  0  0  0
  2  9  1  0  0  0  0
  4  3  1  0  0  0  0
  4 23  1  0  0  0  0
  5 16  1  1  0  0  0
  5 14  1  0  0  0  0
  7 21  1  0  0  0  0
  9  6  1  1  0  0  0
  9 10  1  0  0  0  0
 10 25  1  1  0  0  0
 11 18  1  6  0  0  0
 11 17  1  0  0  0  0
 12 15  1  0  0  0  0
 12  7  2  0  0  0  0
 13  1  1  0  0  0  0
 14  6  1  6  0  0  0
 14  8  1  0  0  0  0
 15  4  2  0  0  0  0
 16 13  1  0  0  0  0
 17 10  1  0  0  0  0
 19  5  1  0  0  0  0
 20  3  2  0  0  0  0
 21 23  2  0  0  0  0
 22  3  1  6  0  0  0
 22  2  1  0  0  0  0
 22 11  1  0  0  0  0
 23 18  1  0  0  0  0
 25 24  1  0  0  0  0
 27 17  1  0  0  0  0
 27 26  1  0  0  0  0
 29 30  1  0  0  0  0
 29 32  1  0  0  0  0
 30 28  1  0  0  0  0
 31 29  2  0  0  0  0
M  END
>  <MODEL>
1

>  <REMARK>
 VINA RESULT:      -6.9      0.000      0.000
  Name = 
  4 active torsions:
  status: ('A' for Active; 'I' for Inactive)
    1  A    between atoms: C_2  and  C_24
    2  A    between atoms: N_10  and  C_24
    3  A    between atoms: C_13  and  C_15
    4  A    between atoms: C_25  and  N_26
                            x       y       z     vdW  Elec       q    Type
                         _______ _______ _______ _____ _____    ______ ____

>  <TORSDO>
F 4

$$$$
=
 OpenBabel10272413403D

 32 36  0  0  1  0  0  0  0  0999 V2000
  187.6560  178.0660  141.1750 C   0  0  1  0  0  3  0  0  0  0  0  0
  191.1870  176.4230  137.9410 C   0  0  1  0  0  3  0  0  0  0  0  0
  193.5440  175.8260  137.2070 C   0  0  0  0  0  0  0  0  0  0  0  0
  194.4300  175.1780  136.2140 C   0  0  0  0  0  0  0  0  0  0  0  0
  189.9980  176.9580  139.7900 C   0  0  1  0  0  3  0  0  0  0  0  0
  189.1510  177.8760  137.6350 C   0  0  0  0  0  2  0  0  0  0  0  0
  196.0790  173.9680  134.3470 N   0  0  0  0  0  0  0  0  0  0  0  0
  188.0250  178.5180  139.7650 C   0  0  0  0  0  2  0  0  0  0  0  0
  190.0850  176.8720  136.9530 C   0  0  2  0  0  3  0  0  0  0  0  0
  189.3170  175.6660  136.3490 C   0  0  2  0  0  3  0  0  0  0  0  0
  191.6010  174.8730  135.9620 C   0  0  2  0  0  3  0  0  0  0  0  0
  196.5940  174.9160  135.1750 C   0  0  0  0  0  3  0  0  0  0  0  0
  188.9140  177.6500  141.9360 C   0  0  0  0  0  2  0  0  0  0  0  0
  188.7390  177.3930  139.0220 C   0  0  2  0  0  3  0  0  0  0  0  0
  195.7790  175.5370  136.1230 C   0  0  0  0  0  3  0  0  0  0  0  0
  189.6250  176.5170  141.2020 C   0  0  0  0  0  2  0  0  0  0  0  0
  190.1720  174.5140  135.9960 N   0  0  0  0  0  0  0  0  0  0  0  0
  192.4810  173.7520  135.4110 C   0  0  0  0  0  2  0  0  0  0  0  0
  190.6150  175.8930  139.1140 O   0  0  0  0  0  0  0  0  0  0  0  0
  194.0000  176.7000  137.9950 O   0  0  0  0  0  0  0  0  0  0  0  0
  194.7700  173.6000  134.4100 C   0  0  0  0  0  3  0  0  0  0  0  0
  192.1150  175.3680  137.3250 C   0  0  2  0  0  3  0  0  0  0  0  0
  193.9140  174.2010  135.3340 C   0  0  0  0  0  0  0  0  0  0  0  0
  187.1060  175.9580  135.3650 N   0  0  0  0  0  1  0  0  0  0  0  0
  188.5300  176.0890  135.1170 C   0  0  0  0  0  2  0  0  0  0  0  0
  188.4650  173.0490  136.9340 C   0  0  0  0  0  1  0  0  0  0  0  0
  189.9260  173.4530  136.9710 C   0  0  0  0  0  2  0  0  0  0  0  0
  186.9580  179.2020  141.8980 C   0  0  0  0  0  2  0  0  0  0  0  0
  184.5280  179.0760  141.2440 C   0  0  0  0  0  0  0  0  0  0  0  0
  185.5780  178.8400  142.1810 N   0  0  0  0  0  2  0  0  0  0  0  0
  183.2280  178.7120  141.5630 O   0  0  0  0  0  1  0  0  0  0  0  0
  184.7710  179.6140  140.1310 O   0  0  0  0  0  0  0  0  0  0  0  0
  1 28  1  1  0  0  0
  1 13  1  0  0  0  0
  2 19  1  1  0  0  0
  3 20  2  0  0  0  0
  4  3  1  0  0  0  0
  5 16  1  1  0  0  0
  7 21  2  0  0  0  0
  7 12  1  0  0  0  0
  8  1  1  0  0  0  0
  9  6  1  1  0  0  0
  9  2  1  0  0  0  0
 10 25  1  6  0  0  0
 10  9  1  0  0  0  0
 11 18  1  1  0  0  0
 11 17  1  0  0  0  0
 11 22  1  0  0  0  0
 12 15  2  0  0  0  0
 14  6  1  6  0  0  0
 14  8  1  0  0  0  0
 14  5  1  0  0  0  0
 15  4  1  0  0  0  0
 16 13  1  0  0  0  0
 17 10  1  0  0  0  0
 17 27  1  0  0  0  0
 19  5  1  0  0  0  0
 21 23  1  0  0  0  0
 22  3  1  6  0  0  0
 22  2  1  0  0  0  0
 23 18  1  0  0  0  0
 23  4  2  0  0  0  0
 25 24  1  0  0  0  0
 26 27  1  0  0  0  0
 28 30  1  0  0  0  0
 29 31  1  0  0  0  0
 29 30  1  0  0  0  0
 32 29  2  0  0  0  0
M  END
>  <MODEL>
2

>  <REMARK>
 VINA RESULT:      -6.4      3.043      6.068
  Name = 
  4 active torsions:
  status: ('A' for Active; 'I' for Inactive)
    1  A    between atoms: C_2  and  C_24
    2  A    between atoms: N_10  and  C_24
    3  A    between atoms: C_13  and  C_15
    4  A    between atoms: C_25  and  N_26
                            x       y       z     vdW  Elec       q    Type
                         _______ _______ _______ _____ _____    ______ ____

>  <TORSDO>
F 4

$$$$
=
 OpenBabel10272413403D

 32 36  0  0  1  0  0  0  0  0999 V2000
  194.2060  174.2800  135.6890 C   0  0  1  0  0  3  0  0  0  0  0  0
  190.1170  176.1680  138.0000 C   0  0  1  0  0  3  0  0  0  0  0  0
  188.8790  177.5160  139.7600 C   0  0  0  0  0  0  0  0  0  0  0  0
  187.6100  178.1190  140.2260 C   0  0  0  0  0  0  0  0  0  0  0  0
  192.2010  175.8100  137.1960 C   0  0  1  0  0  3  0  0  0  0  0  0
  190.5950  173.9200  136.9670 C   0  0  0  0  0  2  0  0  0  0  0  0
  185.2280  179.2350  141.0930 N   0  0  0  0  0  0  0  0  0  0  0  0
  192.9660  173.6020  136.2650 C   0  0  0  0  0  2  0  0  0  0  0  0
  189.4990  174.9400  137.2900 C   0  0  2  0  0  3  0  0  0  0  0  0
  188.6780  175.3430  136.0370 C   0  0  2  0  0  3  0  0  0  0  0  0
  187.7160  176.9360  137.6290 C   0  0  2  0  0  3  0  0  0  0  0  0
  186.2190  178.9990  141.9940 C   0  0  0  0  0  3  0  0  0  0  0  0
  194.5970  175.4780  136.5550 C   0  0  0  0  0  2  0  0  0  0  0  0
  191.8110  174.5950  136.3400 C   0  0  2  0  0  3  0  0  0  0  0  0
  187.4260  178.4370  141.5770 C   0  0  0  0  0  3  0  0  0  0  0  0
  193.4460  176.4780  136.6210 C   0  0  0  0  0  2  0  0  0  0  0  0
  187.8580  176.5590  136.2110 N   0  0  0  0  0  0  0  0  0  0  0  0
  186.7150  178.0700  137.8440 C   0  0  0  0  0  2  0  0  0  0  0  0
  191.1420  176.7320  137.2140 O   0  0  0  0  0  0  0  0  0  0  0  0
  189.8180  177.2980  140.5740 O   0  0  0  0  0  0  0  0  0  0  0  0
  185.3750  178.9340  139.7740 C   0  0  0  0  0  3  0  0  0  0  0  0
  189.0690  177.2490  138.2910 C   0  0  2  0  0  3  0  0  0  0  0  0
  186.5610  178.3600  139.3120 C   0  0  0  0  0  0  0  0  0  0  0  0
  187.2100  173.5310  136.7500 N   0  0  0  0  0  1  0  0  0  0  0  0
  187.7760  174.2010  135.5930 C   0  0  0  0  0  2  0  0  0  0  0  0
  189.3570  177.0550  134.3550 C   0  0  0  0  0  1  0  0  0  0  0  0
  188.4820  177.6380  135.4470 C   0  0  0  0  0  2  0  0  0  0  0  0
  195.3450  173.2790  135.6350 C   0  0  0  0  0  2  0  0  0  0  0  0
  195.6720  171.9080  137.7240 C   0  0  0  0  0  0  0  0  0  0  0  0
  195.0340  172.1270  136.4660 N   0  0  0  0  0  2  0  0  0  0  0  0
  195.3390  170.7920  138.4780 O   0  0  0  0  0  1  0  0  0  0  0  0
  196.5350  172.7180  138.1550 O   0  0  0  0  0  0  0  0  0  0  0  0
  1 28  1  1  0  0  0
  1  8  1  0  0  0  0
  1 13  1  0  0  0  0
  2 19  1  6  0  0  0
  2 22  1  0  0  0  0
  3  4  1  0  0  0  0
  3 20  2  0  0  0  0
  4 15  1  0  0  0  0
  5 16  1  6  0  0  0
  5 19  1  0  0  0  0
  7 12  1  0  0  0  0
  9  6  1  6  0  0  0
  9  2  1  0  0  0  0
 10 25  1  1  0  0  0
 10 17  1  0  0  0  0
 10  9  1  0  0  0  0
 11 18  1  6  0  0  0
 11 22  1  0  0  0  0
 13 16  1  0  0  0  0
 14  8  1  1  0  0  0
 14  6  1  0  0  0  0
 14  5  1  0  0  0  0
 15 12  2  0  0  0  0
 17 11  1  0  0  0  0
 18 23  1  0  0  0  0
 21  7  2  0  0  0  0
 22  3  1  1  0  0  0
 23 21  1  0  0  0  0
 23  4  2  0  0  0  0
 25 24  1  0  0  0  0
 26 27  1  0  0  0  0
 27 17  1  0  0  0  0
 28 30  1  0  0  0  0
 29 32  2  0  0  0  0
 29 31  1  0  0  0  0
 30 29  1  0  0  0  0
M  END
>  <MODEL>
3

>  <REMARK>
 VINA RESULT:      -6.3      4.179     10.136
  Name = 
  4 active torsions:
  status: ('A' for Active; 'I' for Inactive)
    1  A    between atoms: C_2  and  C_24
    2  A    between atoms: N_10  and  C_24
    3  A    between atoms: C_13  and  C_15
    4  A    between atoms: C_25  and  N_26
                            x       y       z     vdW  Elec       q    Type
                         _______ _______ _______ _____ _____    ______ ____

>  <TORSDO>
F 4

$$$$
=
 OpenBabel10272413403D

 32 36  0  0  1  0  0  0  0  0999 V2000
  193.5570  175.0370  135.4180 C   0  0  1  0  0  3  0  0  0  0  0  0
  190.3720  176.1630  139.1880 C   0  0  1  0  0  3  0  0  0  0  0  0
  189.7270  176.6400  141.5970 C   0  0  0  0  0  0  0  0  0  0  0  0
  188.7130  177.1280  142.5590 C   0  0  0  0  0  0  0  0  0  0  0  0
  192.1910  175.9180  137.8650 C   0  0  1  0  0  3  0  0  0  0  0  0
  190.1460  174.6800  137.1630 C   0  0  0  0  0  2  0  0  0  0  0  0
  186.8060  178.0360  144.3500 N   0  0  0  0  0  0  0  0  0  0  0  0
  192.2630  174.3730  135.8820 C   0  0  0  0  0  2  0  0  0  0  0  0
  189.3880  175.5680  138.1540 C   0  0  2  0  0  3  0  0  0  0  0  0
  188.5530  176.6660  137.4450 C   0  0  2  0  0  3  0  0  0  0  0  0
  188.2140  177.3910  139.7590 C   0  0  2  0  0  3  0  0  0  0  0  0
  187.8040  177.2270  144.7940 C   0  0  0  0  0  3  0  0  0  0  0  0
  194.3340  175.5650  136.6230 C   0  0  0  0  0  2  0  0  0  0  0  0
  191.4100  175.3710  136.6590 C   0  0  2  0  0  3  0  0  0  0  0  0
  188.7750  176.7590  143.9080 C   0  0  0  0  0  3  0  0  0  0  0  0
  193.4880  176.5720  137.3970 C   0  0  0  0  0  2  0  0  0  0  0  0
  188.0900  177.7500  138.3350 N   0  0  0  0  0  0  0  0  0  0  0  0
  187.5620  178.4130  140.6880 C   0  0  0  0  0  2  0  0  0  0  0  0
  191.4060  176.8680  138.5400 O   0  0  0  0  0  0  0  0  0  0  0  0
  190.6700  175.8980  141.9870 O   0  0  0  0  0  0  0  0  0  0  0  0
  186.7170  178.4100  143.0440 C   0  0  0  0  0  3  0  0  0  0  0  0
  189.6700  177.1100  140.1690 C   0  0  2  0  0  3  0  0  0  0  0  0
  187.6590  177.9580  142.1180 C   0  0  0  0  0  0  0  0  0  0  0  0
  186.1890  176.9210  136.9010 N   0  0  0  0  0  1  0  0  0  0  0  0
  187.3470  176.0590  136.7430 C   0  0  0  0  0  2  0  0  0  0  0  0
  189.3570  178.8960  136.5960 C   0  0  0  0  0  1  0  0  0  0  0  0
  188.8700  178.9480  138.0320 C   0  0  0  0  0  2  0  0  0  0  0  0
  194.3940  174.0250  134.6580 C   0  0  0  0  0  2  0  0  0  0  0  0
  195.5580  172.1490  135.8730 C   0  0  0  0  0  0  0  0  0  0  0  0
  194.3720  172.7440  135.3460 N   0  0  0  0  0  2  0  0  0  0  0  0
  195.4820  170.9240  136.5210 O   0  0  0  0  0  1  0  0  0  0  0  0
  196.6720  172.7250  135.7540 O   0  0  0  0  0  0  0  0  0  0  0  0
  1 28  1  1  0  0  0
  1  8  1  0  0  0  0
  1 13  1  0  0  0  0
  2 19  1  6  0  0  0
  2 22  1  0  0  0  0
  3 20  2  0  0  0  0
  3  4  1  0  0  0  0
  4 15  1  0  0  0  0
  5 16  1  6  0  0  0
  5 19  1  0  0  0  0
  7 12  1  0  0  0  0
  9  6  1  6  0  0  0
  9  2  1  0  0  0  0
 10 25  1  1  0  0  0
 10  9  1  0  0  0  0
 10 17  1  0  0  0  0
 11 22  1  0  0  0  0
 11 18  1  1  0  0  0
 13 16  1  0  0  0  0
 14  8  1  1  0  0  0
 14  6  1  0  0  0  0
 14  5  1  0  0  0  0
 15 12  2  0  0  0  0
 17 11  1  0  0  0  0
 18 23  1  0  0  0  0
 21  7  2  0  0  0  0
 22  3  1  1  0  0  0
 23  4  2  0  0  0  0
 23 21  1  0  0  0  0
 25 24  1  0  0  0  0
 26 27  1  0  0  0  0
 27 17  1  0  0  0  0
 28 30  1  0  0  0  0
 29 31  1  0  0  0  0
 30 29  1  0  0  0  0
 32 29  2  0  0  0  0
M  END
>  <MODEL>
4

>  <REMARK>
 VINA RESULT:      -6.2      3.808      9.809
  Name = 
  4 active torsions:
  status: ('A' for Active; 'I' for Inactive)
    1  A    between atoms: C_2  and  C_24
    2  A    between atoms: N_10  and  C_24
    3  A    between atoms: C_13  and  C_15
    4  A    between atoms: C_25  and  N_26
                            x       y       z     vdW  Elec       q    Type
                         _______ _______ _______ _____ _____    ______ ____

>  <TORSDO>
F 4

$$$$
=
 OpenBabel10272413403D

 32 36  0  0  1  0  0  0  0  0999 V2000
  193.2650  175.6170  137.3610 C   0  0  1  0  0  3  0  0  0  0  0  0
  189.6870  177.3750  140.4800 C   0  0  1  0  0  3  0  0  0  0  0  0
  187.3320  178.0680  141.1320 C   0  0  0  0  0  0  0  0  0  0  0  0
  186.3770  178.4420  142.2000 C   0  0  0  0  0  0  0  0  0  0  0  0
  190.8210  176.3150  138.8350 C   0  0  1  0  0  3  0  0  0  0  0  0
  192.0900  178.0380  140.1100 C   0  0  0  0  0  2  0  0  0  0  0  0
  184.6000  179.1470  144.2030 N   0  0  0  0  0  0  0  0  0  0  0  0
  193.1730  176.9070  138.1700 C   0  0  0  0  0  2  0  0  0  0  0  0
  190.9530  177.9760  141.1350 C   0  0  2  0  0  3  0  0  0  0  0  0
  191.3610  177.2140  142.4230 C   0  0  2  0  0  3  0  0  0  0  0  0
  188.9850  177.5300  142.9250 C   0  0  2  0  0  3  0  0  0  0  0  0
  184.3340  179.5090  142.9200 C   0  0  0  0  0  3  0  0  0  0  0  0
  191.8800  175.2230  136.8480 C   0  0  0  0  0  2  0  0  0  0  0  0
  192.2130  176.7260  139.3420 C   0  0  2  0  0  3  0  0  0  0  0  0
  185.2160  179.1620  141.8960 C   0  0  0  0  0  3  0  0  0  0  0  0
  190.9200  175.0300  138.0190 C   0  0  0  0  0  2  0  0  0  0  0  0
  190.2260  176.8210  143.2830 N   0  0  0  0  0  0  0  0  0  0  0  0
  187.8530  177.2870  143.9210 C   0  0  0  0  0  2  0  0  0  0  0  0
  189.9660  176.1090  139.9300 O   0  0  0  0  0  0  0  0  0  0  0  0
  187.1020  178.3800  139.9320 O   0  0  0  0  0  0  0  0  0  0  0  0
  185.7210  178.4490  144.5300 C   0  0  0  0  0  3  0  0  0  0  0  0
  188.5350  177.2340  141.4830 C   0  0  2  0  0  3  0  0  0  0  0  0
  186.6390  178.0900  143.5420 C   0  0  0  0  0  0  0  0  0  0  0  0
  191.6270  179.0180  144.0420 N   0  0  0  0  0  1  0  0  0  0  0  0
  192.3410  178.0340  143.2490 C   0  0  0  0  0  2  0  0  0  0  0  0
  191.2500  174.6600  143.7570 C   0  0  0  0  0  1  0  0  0  0  0  0
  190.0500  175.3740  143.1660 C   0  0  0  0  0  2  0  0  0  0  0  0
  194.2140  175.8230  136.1960 C   0  0  0  0  0  2  0  0  0  0  0  0
  195.7230  177.6500  135.3380 C   0  0  0  0  0  0  0  0  0  0  0  0
  194.6040  177.2220  136.1130 N   0  0  0  0  0  2  0  0  0  0  0  0
  196.0530  178.9970  135.2920 O   0  0  0  0  0  1  0  0  0  0  0  0
  196.4150  176.8150  134.6950 O   0  0  0  0  0  0  0  0  0  0  0  0
  1 28  1  6  0  0  0
  1  8  1  0  0  0  0
  2 19  1  1  0  0  0
  2  9  1  0  0  0  0
  2 22  1  0  0  0  0
  3  4  1  0  0  0  0
  4 23  1  0  0  0  0
  5 16  1  1  0  0  0
  5 14  1  0  0  0  0
  5 19  1  0  0  0  0
  7 21  1  0  0  0  0
  9  6  1  6  0  0  0
  9 10  1  0  0  0  0
 10 25  1  1  0  0  0
 10 17  1  0  0  0  0
 11 17  1  0  0  0  0
 11 18  1  1  0  0  0
 12  7  2  0  0  0  0
 13  1  1  0  0  0  0
 13 16  1  0  0  0  0
 14  8  1  6  0  0  0
 14  6  1  0  0  0  0
 15  4  2  0  0  0  0
 15 12  1  0  0  0  0
 20  3  2  0  0  0  0
 22  3  1  6  0  0  0
 22 11  1  0  0  0  0
 23 18  1  0  0  0  0
 23 21  2  0  0  0  0
 25 24  1  0  0  0  0
 27 17  1  0  0  0  0
 27 26  1  0  0  0  0
 29 30  1  0  0  0  0
 30 28  1  0  0  0  0
 31 29  1  0  0  0  0
 32 29  2  0  0  0  0
M  END
>  <MODEL>
5

>  <REMARK>
 VINA RESULT:      -5.7      2.547      8.935
  Name = 
  4 active torsions:
  status: ('A' for Active; 'I' for Inactive)
    1  A    between atoms: C_2  and  C_24
    2  A    between atoms: N_10  and  C_24
    3  A    between atoms: C_13  and  C_15
    4  A    between atoms: C_25  and  N_26
                            x       y       z     vdW  Elec       q    Type
                         _______ _______ _______ _____ _____    ______ ____

>  <TORSDO>
F 4

$$$$
=
 OpenBabel10272413403D

 32 36  0  0  1  0  0  0  0  0999 V2000
  185.8610  177.9390  143.9570 C   0  0  1  0  0  3  0  0  0  0  0  0
  183.0170  179.7260  140.1700 C   0  0  1  0  0  3  0  0  0  0  0  0
  182.4350  181.3090  138.2700 C   0  0  0  0  0  0  0  0  0  0  0  0
  181.5850  181.6130  137.0980 C   0  0  0  0  0  0  0  0  0  0  0  0
  184.7260  179.1780  141.5470 C   0  0  1  0  0  3  0  0  0  0  0  0
  182.4310  178.7920  142.4350 C   0  0  0  0  0  2  0  0  0  0  0  0
  179.9820  182.1780  134.9110 N   0  0  0  0  0  0  0  0  0  0  0  0
  184.4000  178.3780  143.9090 C   0  0  0  0  0  2  0  0  0  0  0  0
  181.9490  178.9690  140.9930 C   0  0  2  0  0  3  0  0  0  0  0  0
  181.5510  177.6220  140.3330 C   0  0  2  0  0  3  0  0  0  0  0  0
  181.3440  179.0650  138.3650 C   0  0  2  0  0  3  0  0  0  0  0  0
  180.6410  183.1920  135.5320 C   0  0  0  0  0  3  0  0  0  0  0  0
  186.7030  178.8260  143.0400 C   0  0  0  0  0  2  0  0  0  0  0  0
  183.8750  178.3000  142.4790 C   0  0  2  0  0  3  0  0  0  0  0  0
  181.4540  182.9280  136.6360 C   0  0  0  0  0  3  0  0  0  0  0  0
  186.1870  178.7420  141.6070 C   0  0  0  0  0  2  0  0  0  0  0  0
  181.4180  177.6800  138.8630 N   0  0  0  0  0  0  0  0  0  0  0  0
  181.0100  179.1440  136.8770 C   0  0  0  0  0  2  0  0  0  0  0  0
  184.2560  179.0570  140.2290 O   0  0  0  0  0  0  0  0  0  0  0  0
  183.0670  182.2300  138.8570 O   0  0  0  0  0  0  0  0  0  0  0  0
  180.0870  180.8900  135.3390 C   0  0  0  0  0  3  0  0  0  0  0  0
  182.6090  179.8760  138.6990 C   0  0  2  0  0  3  0  0  0  0  0  0
  180.8800  180.5790  136.4450 C   0  0  0  0  0  0  0  0  0  0  0  0
  180.1430  175.6650  140.6920 N   0  0  0  0  0  1  0  0  0  0  0  0
  180.2530  177.0940  140.9240 C   0  0  0  0  0  2  0  0  0  0  0  0
  182.0920  175.6830  137.6400 C   0  0  0  0  0  1  0  0  0  0  0  0
  182.5580  176.9770  138.2780 C   0  0  0  0  0  2  0  0  0  0  0  0
  186.3650  178.0350  145.3850 C   0  0  0  0  0  2  0  0  0  0  0  0
  188.4090  177.3640  146.6970 C   0  0  0  0  0  0  0  0  0  0  0  0
  187.5880  177.2620  145.5340 N   0  0  0  0  0  2  0  0  0  0  0  0
  189.5670  176.6040  146.7890 O   0  0  0  0  0  0  0  0  0  0  0  0
  188.0930  178.1390  147.6390 O   0  0  0  0  0  1  0  0  0  0  0  0
  1 28  1  1  0  0  0
  2 19  1  6  0  0  0
  2  9  1  0  0  0  0
  3 20  2  0  0  0  0
  4  3  1  0  0  0  0
  5 16  1  6  0  0  0
  5 14  1  0  0  0  0
  7 21  2  0  0  0  0
  7 12  1  0  0  0  0
  8  1  1  0  0  0  0
  9  6  1  1  0  0  0
 10 25  1  1  0  0  0
 10  9  1  0  0  0  0
 11 18  1  6  0  0  0
 11 22  1  0  0  0  0
 11 17  1  0  0  0  0
 12 15  2  0  0  0  0
 13  1  1  0  0  0  0
 14  6  1  1  0  0  0
 14  8  1  0  0  0  0
 15  4  1  0  0  0  0
 16 13  1  0  0  0  0
 17 10  1  0  0  0  0
 19  5  1  0  0  0  0
 21 23  1  0  0  0  0
 22  3  1  1  0  0  0
 22  2  1  0  0  0  0
 23 18  1  0  0  0  0
 23  4  2  0  0  0  0
 24 25  1  0  0  0  0
 26 27  1  0  0  0  0
 27 17  1  0  0  0  0
 28 30  1  0  0  0  0
 29 31  2  0  0  0  0
 29 32  1  0  0  0  0
 30 29  1  0  0  0  0
M  END
>  <MODEL>
6

>  <REMARK>
 VINA RESULT:      -5.4      5.134      9.208
  Name = 
  4 active torsions:
  status: ('A' for Active; 'I' for Inactive)
    1  A    between atoms: C_2  and  C_24
    2  A    between atoms: N_10  and  C_24
    3  A    between atoms: C_13  and  C_15
    4  A    between atoms: C_25  and  N_26
                            x       y       z     vdW  Elec       q    Type
                         _______ _______ _______ _____ _____    ______ ____

>  <TORSDO>
F 4

$$$$
=
 OpenBabel10272413403D

 32 36  0  0  1  0  0  0  0  0999 V2000
  192.9830  175.6450  135.9690 C   0  0  1  0  0  3  0  0  0  0  0  0
  188.0390  174.5940  136.2390 C   0  0  1  0  0  3  0  0  0  0  0  0
  186.0100  173.1740  136.8020 C   0  0  0  0  0  0  0  0  0  0  0  0
  184.5410  173.0790  136.9600 C   0  0  0  0  0  0  0  0  0  0  0  0
  190.2730  174.6920  136.5820 C   0  0  1  0  0  3  0  0  0  0  0  0
  189.4380  175.7270  134.4760 C   0  0  0  0  0  2  0  0  0  0  0  0
  181.7920  172.9100  137.2470 N   0  0  0  0  0  0  0  0  0  0  0  0
  191.8930  175.6270  134.9010 C   0  0  0  0  0  2  0  0  0  0  0  0
  188.0430  175.6430  135.1030 C   0  0  2  0  0  3  0  0  0  0  0  0
  187.5290  177.0250  135.5840 C   0  0  2  0  0  3  0  0  0  0  0  0
  185.7260  175.6330  136.4830 C   0  0  2  0  0  3  0  0  0  0  0  0
  182.5110  171.7740  137.0450 C   0  0  0  0  0  3  0  0  0  0  0  0
  192.7370  174.5310  136.9860 C   0  0  0  0  0  2  0  0  0  0  0  0
  190.5220  175.8000  135.5470 C   0  0  2  0  0  3  0  0  0  0  0  0
  183.8970  171.8380  136.8990 C   0  0  0  0  0  3  0  0  0  0  0  0
  191.3700  174.7080  137.6420 C   0  0  0  0  0  2  0  0  0  0  0  0
  186.3680  176.9590  136.4960 N   0  0  0  0  0  0  0  0  0  0  0  0
  184.4140  175.6020  137.2650 C   0  0  0  0  0  2  0  0  0  0  0  0
  189.0260  174.8950  137.1970 O   0  0  0  0  0  0  0  0  0  0  0  0
  186.7010  172.1330  136.6260 O   0  0  0  0  0  0  0  0  0  0  0  0
  182.3890  174.1310  137.3080 C   0  0  0  0  0  3  0  0  0  0  0  0
  186.6780  174.5150  136.9420 C   0  0  2  0  0  3  0  0  0  0  0  0
  183.7720  174.2460  137.1570 C   0  0  0  0  0  0  0  0  0  0  0  0
  185.7370  178.1220  134.3460 N   0  0  0  0  0  1  0  0  0  0  0  0
  187.1720  177.9120  134.4000 C   0  0  0  0  0  2  0  0  0  0  0  0
  188.0500  178.1970  137.7540 C   0  0  0  0  0  1  0  0  0  0  0  0
  186.8300  177.3000  137.8410 C   0  0  0  0  0  2  0  0  0  0  0  0
  194.3350  175.4600  135.3070 C   0  0  0  0  0  2  0  0  0  0  0  0
  196.6660  175.6540  136.2450 C   0  0  0  0  0  0  0  0  0  0  0  0
  195.3390  175.1330  136.3070 N   0  0  0  0  0  2  0  0  0  0  0  0
  197.5860  175.3110  137.2250 O   0  0  0  0  0  1  0  0  0  0  0  0
  197.0100  176.4230  135.3080 O   0  0  0  0  0  0  0  0  0  0  0  0
  1 28  1  6  0  0  0
  1 13  1  0  0  0  0
  2 22  1  0  0  0  0
  2 19  1  1  0  0  0
  3  4  1  0  0  0  0
  4 23  1  0  0  0  0
  5 19  1  0  0  0  0
  5 16  1  1  0  0  0
  7 21  1  0  0  0  0
  8 14  1  0  0  0  0
  8  1  1  0  0  0  0
  9  6  1  1  0  0  0
  9 10  1  0  0  0  0
  9  2  1  0  0  0  0
 10 25  1  6  0  0  0
 10 17  1  0  0  0  0
 11 17  1  0  0  0  0
 11 22  1  0  0  0  0
 11 18  1  1  0  0  0
 12  7  2  0  0  0  0
 13 16  1  0  0  0  0
 14  6  1  6  0  0  0
 14  5  1  0  0  0  0
 15  4  2  0  0  0  0
 15 12  1  0  0  0  0
 17 27  1  0  0  0  0
 20  3  2  0  0  0  0
 22  3  1  6  0  0  0
 23 18  1  0  0  0  0
 23 21  2  0  0  0  0
 24 25  1  0  0  0  0
 26 27  1  0  0  0  0
 28 30  1  0  0  0  0
 29 30  1  0  0  0  0
 29 31  1  0  0  0  0
 32 29  2  0  0  0  0
M  END
>  <MODEL>
7

>  <REMARK>
 VINA RESULT:      -5.2      6.261     10.826
  Name = 
  4 active torsions:
  status: ('A' for Active; 'I' for Inactive)
    1  A    between atoms: C_2  and  C_24
    2  A    between atoms: N_10  and  C_24
    3  A    between atoms: C_13  and  C_15
    4  A    between atoms: C_25  and  N_26
                            x       y       z     vdW  Elec       q    Type
                         _______ _______ _______ _____ _____    ______ ____

>  <TORSDO>
F 4

$$$$
=
 OpenBabel10272413403D

 32 36  0  0  1  0  0  0  0  0999 V2000
  181.0640  178.9390  138.0130 C   0  0  1  0  0  3  0  0  0  0  0  0
  185.6220  176.9490  137.0690 C   0  0  1  0  0  3  0  0  0  0  0  0
  188.1380  176.7210  137.3280 C   0  0  0  0  0  0  0  0  0  0  0  0
  189.3670  175.9370  137.0710 C   0  0  0  0  0  0  0  0  0  0  0  0
  183.8370  177.9680  138.0140 C   0  0  1  0  0  3  0  0  0  0  0  0
  183.6610  177.4810  135.5780 C   0  0  0  0  0  2  0  0  0  0  0  0
  191.6600  174.4660  136.5780 N   0  0  0  0  0  0  0  0  0  0  0  0
  181.8310  178.7410  136.7080 C   0  0  0  0  0  2  0  0  0  0  0  0
  184.8700  176.5600  135.7750 C   0  0  2  0  0  3  0  0  0  0  0  0
  184.4780  175.0590  135.7560 C   0  0  2  0  0  3  0  0  0  0  0  0
  186.8320  174.8130  136.3870 C   0  0  2  0  0  3  0  0  0  0  0  0
  191.7680  175.7920  136.8590 C   0  0  0  0  0  3  0  0  0  0  0  0
  182.0350  179.2880  139.1410 C   0  0  0  0  0  2  0  0  0  0  0  0
  182.8660  177.6320  136.8710 C   0  0  2  0  0  3  0  0  0  0  0  0
  190.6240  176.5500  137.1110 C   0  0  0  0  0  3  0  0  0  0  0  0
  183.0650  178.1760  139.3130 C   0  0  0  0  0  2  0  0  0  0  0  0
  185.5190  174.1520  136.2820 N   0  0  0  0  0  0  0  0  0  0  0  0
  187.9580  173.8430  136.7400 C   0  0  0  0  0  2  0  0  0  0  0  0
  184.7530  176.9160  138.1770 O   0  0  0  0  0  0  0  0  0  0  0  0
  188.2120  177.9500  137.6040 O   0  0  0  0  0  0  0  0  0  0  0  0
  190.4520  173.8420  136.5280 C   0  0  0  0  0  3  0  0  0  0  0  0
  186.8080  176.0160  137.3450 C   0  0  2  0  0  3  0  0  0  0  0  0
  189.2800  174.5620  136.7630 C   0  0  0  0  0  0  0  0  0  0  0  0
  182.7970  173.9860  134.3540 N   0  0  0  0  0  1  0  0  0  0  0  0
  184.1050  174.6150  134.3490 C   0  0  0  0  0  2  0  0  0  0  0  0
  184.2410  172.4120  137.4130 C   0  0  0  0  0  1  0  0  0  0  0  0
  185.0760  173.6650  137.5870 C   0  0  0  0  0  2  0  0  0  0  0  0
  180.0500  180.0530  137.8330 C   0  0  0  0  0  2  0  0  0  0  0  0
  180.6030  182.3550  136.9690 C   0  0  0  0  0  0  0  0  0  0  0  0
  180.4770  180.9470  136.7680 N   0  0  0  0  0  2  0  0  0  0  0  0
  181.0140  183.1640  135.9200 O   0  0  0  0  0  0  0  0  0  0  0  0
  180.3440  182.8680  138.0900 O   0  0  0  0  0  1  0  0  0  0  0  0
  1 28  1  6  0  0  0
  1 13  1  0  0  0  0
  2 22  1  0  0  0  0
  2 19  1  1  0  0  0
  3 20  2  0  0  0  0
  4 15  1  0  0  0  0
  4  3  1  0  0  0  0
  5 19  1  0  0  0  0
  5 16  1  1  0  0  0
  7 12  1  0  0  0  0
  8 14  1  0  0  0  0
  8  1  1  0  0  0  0
  9  6  1  1  0  0  0
  9  2  1  0  0  0  0
 10 25  1  6  0  0  0
 10  9  1  0  0  0  0
 10 17  1  0  0  0  0
 11 18  1  1  0  0  0
 11 22  1  0  0  0  0
 12 15  2  0  0  0  0
 13 16  1  0  0  0  0
 14  6  1  6  0  0  0
 14  5  1  0  0  0  0
 17 11  1  0  0  0  0
 17 27  1  0  0  0  0
 18 23  1  0  0  0  0
 21  7  2  0  0  0  0
 21 23  1  0  0  0  0
 22  3  1  6  0  0  0
 23  4  2  0  0  0  0
 25 24  1  0  0  0  0
 26 27  1  0  0  0  0
 29 32  1  0  0  0  0
 30 29  1  0  0  0  0
 30 28  1  0  0  0  0
 31 29  2  0  0  0  0
M  END
>  <MODEL>
8

>  <REMARK>
 VINA RESULT:      -4.9      5.740      7.388
  Name = 
  4 active torsions:
  status: ('A' for Active; 'I' for Inactive)
    1  A    between atoms: C_2  and  C_24
    2  A    between atoms: N_10  and  C_24
    3  A    between atoms: C_13  and  C_15
    4  A    between atoms: C_25  and  N_26
                            x       y       z     vdW  Elec       q    Type
                         _______ _______ _______ _____ _____    ______ ____

>  <TORSDO>
F 4

$$$$
=
 OpenBabel10272413403D

 32 36  0  0  1  0  0  0  0  0999 V2000
  187.6470  177.4060  136.6660 C   0  0  1  0  0  3  0  0  0  0  0  0
  191.6930  174.3750  136.3950 C   0  0  1  0  0  3  0  0  0  0  0  0
  193.0150  172.3590  135.5980 C   0  0  0  0  0  0  0  0  0  0  0  0
  194.3190  171.6650  135.4960 C   0  0  0  0  0  0  0  0  0  0  0  0
  189.7810  175.5100  135.9720 C   0  0  1  0  0  3  0  0  0  0  0  0
  190.6310  175.6200  138.3120 C   0  0  0  0  0  2  0  0  0  0  0  0
  196.7610  170.3720  135.3180 N   0  0  0  0  0  0  0  0  0  0  0  0
  188.4530  176.6950  137.7490 C   0  0  0  0  0  2  0  0  0  0  0  0
  191.9460  175.0640  137.7560 C   0  0  2  0  0  3  0  0  0  0  0  0
  193.0530  176.1470  137.6650 C   0  0  2  0  0  3  0  0  0  0  0  0
  194.2360  174.3230  136.5380 C   0  0  2  0  0  3  0  0  0  0  0  0
  195.6160  169.6510  135.1900 C   0  0  0  0  0  3  0  0  0  0  0  0
  187.5660  176.5300  135.4160 C   0  0  0  0  0  2  0  0  0  0  0  0
  189.8550  176.3780  137.2390 C   0  0  2  0  0  3  0  0  0  0  0  0
  194.3750  170.2840  135.2770 C   0  0  0  0  0  3  0  0  0  0  0  0
  188.9670  176.2210  134.8960 C   0  0  0  0  0  2  0  0  0  0  0  0
  194.2080  175.7680  136.8260 N   0  0  0  0  0  0  0  0  0  0  0  0
  195.5220  173.8810  135.8420 C   0  0  0  0  0  2  0  0  0  0  0  0
  191.0790  175.2680  135.4930 O   0  0  0  0  0  0  0  0  0  0  0  0
  191.9380  171.7150  135.4700 O   0  0  0  0  0  0  0  0  0  0  0  0
  196.7390  171.7150  135.5350 C   0  0  0  0  0  3  0  0  0  0  0  0
  192.9910  173.8550  135.7650 C   0  0  2  0  0  3  0  0  0  0  0  0
  195.5220  172.3900  135.6390 C   0  0  0  0  0  0  0  0  0  0  0  0
  192.8060  177.6590  139.5620 N   0  0  0  0  0  1  0  0  0  0  0  0
  193.5550  176.5250  139.0500 C   0  0  0  0  0  2  0  0  0  0  0  0
  195.3660  177.4310  135.4710 C   0  0  0  0  0  1  0  0  0  0  0  0
  194.1420  176.5430  135.5890 C   0  0  0  0  0  2  0  0  0  0  0  0
  186.2540  177.7000  137.1900 C   0  0  0  0  0  2  0  0  0  0  0  0
  185.2070  178.7430  139.2310 C   0  0  0  0  0  0  0  0  0  0  0  0
  186.3360  178.5230  138.3860 N   0  0  0  0  0  2  0  0  0  0  0  0
  185.3390  179.5370  140.3610 O   0  0  0  0  0  1  0  0  0  0  0  0
  184.0920  178.2220  138.9600 O   0  0  0  0  0  0  0  0  0  0  0  0
  1 28  1  1  0  0  0
  1  8  1  0  0  0  0
  2 19  1  6  0  0  0
  2  9  1  0  0  0  0
  4  3  1  0  0  0  0
  4 23  1  0  0  0  0
  5 16  1  6  0  0  0
  5 14  1  0  0  0  0
  7 21  1  0  0  0  0
  9  6  1  6  0  0  0
 10  9  1  0  0  0  0
 10 25  1  1  0  0  0
 11 18  1  6  0  0  0
 11 17  1  0  0  0  0
 12 15  1  0  0  0  0
 12  7  2  0  0  0  0
 13  1  1  0  0  0  0
 14  8  1  1  0  0  0
 14  6  1  0  0  0  0
 15  4  2  0  0  0  0
 16 13  1  0  0  0  0
 17 10  1  0  0  0  0
 19  5  1  0  0  0  0
 20  3  2  0  0  0  0
 21 23  2  0  0  0  0
 22  3  1  1  0  0  0
 22  2  1  0  0  0  0
 22 11  1  0  0  0  0
 23 18  1  0  0  0  0
 25 24  1  0  0  0  0
 26 27  1  0  0  0  0
 27 17  1  0  0  0  0
 28 30  1  0  0  0  0
 29 31  1  0  0  0  0
 30 29  1  0  0  0  0
 32 29  2  0  0  0  0
M  END
>  <MODEL>
9

>  <REMARK>
 VINA RESULT:      -4.8      4.525      7.212
  Name = 
  4 active torsions:
  status: ('A' for Active; 'I' for Inactive)
    1  A    between atoms: C_2  and  C_24
    2  A    between atoms: N_10  and  C_24
    3  A    between atoms: C_13  and  C_15
    4  A    between atoms: C_25  and  N_26
                            x       y       z     vdW  Elec       q    Type
                         _______ _______ _______ _____ _____    ______ ____

>  <TORSDO>
F 4

$$$$
