=
 OpenBabel10272415133D

 34 36  0  0  1  0  0  0  0  0999 V2000
  184.9320  178.4570  138.1600 C   0  0  0  0  0  2  0  0  0  0  0  0
  185.1500  178.8110  140.6360 C   0  0  0  0  0  0  0  0  0  0  0  0
  182.4520  178.5230  143.3280 C   0  0  0  0  0  2  0  0  0  0  0  0
  182.4500  177.9550  140.9010 C   0  0  0  0  0  3  0  0  0  0  0  0
  186.3190  179.2580  140.4750 O   0  0  0  0  0  0  0  0  0  0  0  0
  183.0620  177.7990  139.7230 C   0  0  0  0  0  0  0  0  0  0  0  0
  184.3770  178.3600  139.5080 N   0  0  0  0  0  0  0  0  0  0  0  0
  183.0280  179.4860  144.3690 C   0  0  0  0  0  2  0  0  0  0  0  0
  184.5600  179.4290  144.4190 C   0  0  2  0  0  3  0  0  0  0  0  0
  183.0590  178.8190  141.9640 C   0  0  2  0  0  3  0  0  0  0  0  0
  185.1670  179.6380  143.0230 C   0  0  0  0  0  2  0  0  0  0  0  0
  184.5790  178.6450  142.0180 C   0  0  2  0  0  3  0  0  0  0  0  0
  182.7490  175.5040  138.8760 C   0  0  0  0  0  1  0  0  0  0  0  0
  182.4010  176.9650  138.6750 C   0  0  0  0  0  2  0  0  0  0  0  0
  185.0320  178.1250  145.0550 C   0  0  0  0  0  2  0  0  0  0  0  0
  187.0540  177.6730  146.4430 O   0  0  0  0  0  0  0  0  0  0  0  0
  185.5280  179.2550  147.0940 O   0  0  0  0  0  1  0  0  0  0  0  0
  185.8840  178.3940  146.2480 C   0  0  0  0  0  0  0  0  0  0  0  0
  185.9660  177.3630  137.9270 C   0  0  0  0  0  2  0  0  0  0  0  0
  187.7980  174.2920  136.8460 O   0  0  0  0  0  0  0  0  0  0  0  0
  189.3440  178.3150  137.2740 C   0  0  0  0  0  2  0  0  0  0  0  0
  186.8690  177.6920  136.7430 C   0  0  2  0  0  3  0  0  0  0  0  0
  189.4550  175.8080  137.6050 C   0  0  0  0  0  2  0  0  0  0  0  0
  187.4390  176.4780  136.1650 N   0  0  0  0  0  2  0  0  0  0  0  0
  189.5250  177.1770  138.2780 C   0  0  2  0  0  3  0  0  0  0  0  0
  187.8990  178.7780  137.0780 C   0  0  0  0  0  2  0  0  0  0  0  0
  188.1670  175.4930  136.9050 C   0  0  0  0  0  0  0  0  0  0  0  0
  188.6750  177.3140  139.5420 C   0  0  0  0  0  2  0  0  0  0  0  0
  189.5220  177.6710  140.7570 C   0  0  0  0  0  2  0  0  0  0  0  0
  189.1500  176.8100  141.9610 C   0  0  2  0  0  3  0  0  0  0  0  0
  188.0740  177.4880  142.7930 C   0  0  0  0  0  1  0  0  0  0  0  0
  191.5260  177.0610  142.2880 O   0  0  0  0  0  1  0  0  0  0  0  0
  190.3670  176.4950  142.8250 C   0  0  0  0  0  3  0  0  0  0  0  0
  190.5290  175.1130  142.9430 O   0  0  0  0  0  1  0  0  0  0  0  0
  1  7  1  0  0  0  0
  2 12  1  0  0  0  0
  3  8  1  0  0  0  0
  5  2  2  0  0  0  0
  6  4  2  0  0  0  0
  7  6  1  0  0  0  0
  7  2  1  0  0  0  0
  8  9  1  0  0  0  0
  9 15  1  6  0  0  0
 10  4  1  6  0  0  0
 10 12  1  0  0  0  0
 10  3  1  0  0  0  0
 11  9  1  0  0  0  0
 12 11  1  1  0  0  0
 14 13  1  0  0  0  0
 14  6  1  0  0  0  0
 15 18  1  0  0  0  0
 18 16  2  0  0  0  0
 18 17  1  0  0  0  0
 19  1  1  0  0  0  0
 20 27  2  0  0  0  0
 21 25  1  0  0  0  0
 22 26  1  0  0  0  0
 22 19  1  1  0  0  0
 23 25  1  0  0  0  0
 24 22  1  0  0  0  0
 24 27  1  0  0  0  0
 25 28  1  1  0  0  0
 26 21  1  0  0  0  0
 27 23  1  0  0  0  0
 28 29  1  0  0  0  0
 29 30  1  0  0  0  0
 30 31  1  1  0  0  0
 30 33  1  0  0  0  0
 32 33  1  0  0  0  0
 33 34  1  0  0  0  0
M  END
>  <MODEL>
1

>  <REMARK>
 VINA RESULT:      -7.2      0.000      0.000
  Name = 
  10 active torsions:
  status: ('A' for Active; 'I' for Inactive)
    1  A    between atoms: C_7  and  C_15
    2  A    between atoms: C_7  and  C_29
    3  A    between atoms: C_8  and  C_17
    4  A    between atoms: C_10  and  C_17
    5  A    between atoms: C_10  and  N_20
    6  A    between atoms: C_19  and  C_22
    7  A    between atoms: C_24  and  C_25
    8  A    between atoms: C_25  and  C_27
    9  A    between atoms: C_26  and  C_28
   10  A    between atoms: C_26  and  C_29
                            x       y       z     vdW  Elec       q    Type
                         _______ _______ _______ _____ _____    ______ ____

>  <TORSDO>
F 10

$$$$
=
 OpenBabel10272415133D

 34 36  0  0  1  0  0  0  0  0999 V2000
  188.7670  178.1830  138.9850 C   0  0  0  0  0  2  0  0  0  0  0  0
  187.3290  178.3450  141.0370 C   0  0  0  0  0  0  0  0  0  0  0  0
  187.9920  176.9330  144.5260 C   0  0  0  0  0  2  0  0  0  0  0  0
  189.4220  177.0780  142.4900 C   0  0  0  0  0  3  0  0  0  0  0  0
  186.3920  178.8350  140.3480 O   0  0  0  0  0  0  0  0  0  0  0  0
  189.6640  177.4950  141.2420 C   0  0  0  0  0  0  0  0  0  0  0  0
  188.5860  178.0020  140.4240 N   0  0  0  0  0  0  0  0  0  0  0  0
  186.5490  176.7680  145.0120 C   0  0  0  0  0  2  0  0  0  0  0  0
  185.6390  177.8900  144.4970 C   0  0  2  0  0  3  0  0  0  0  0  0
  188.0160  177.0090  143.0060 C   0  0  2  0  0  3  0  0  0  0  0  0
  185.7340  178.0240  142.9700 C   0  0  0  0  0  2  0  0  0  0  0  0
  187.1890  178.2050  142.5270 C   0  0  2  0  0  3  0  0  0  0  0  0
  192.0350  177.5150  141.9240 C   0  0  0  0  0  1  0  0  0  0  0  0
  191.0740  177.5070  140.7510 C   0  0  0  0  0  2  0  0  0  0  0  0
  185.9500  179.2060  145.2040 C   0  0  0  0  0  2  0  0  0  0  0  0
  186.0810  179.9680  147.5750 O   0  0  0  0  0  1  0  0  0  0  0  0
  184.5120  178.4230  146.9370 O   0  0  0  0  0  0  0  0  0  0  0  0
  185.4640  179.1800  146.6130 C   0  0  0  0  0  0  0  0  0  0  0  0
  188.4830  176.8840  138.2430 C   0  0  0  0  0  2  0  0  0  0  0  0
  187.5790  173.5820  136.7460 O   0  0  0  0  0  0  0  0  0  0  0  0
  188.2860  177.3360  134.7070 C   0  0  0  0  0  2  0  0  0  0  0  0
  187.4300  177.0810  137.1560 C   0  0  2  0  0  3  0  0  0  0  0  0
  188.5750  174.8390  135.0010 C   0  0  0  0  0  2  0  0  0  0  0  0
  186.9040  175.7980  136.6970 N   0  0  0  0  0  2  0  0  0  0  0  0
  189.2810  176.1820  134.8230 C   0  0  2  0  0  3  0  0  0  0  0  0
  187.9170  178.0060  136.0330 C   0  0  0  0  0  2  0  0  0  0  0  0
  187.7100  174.7160  136.2200 C   0  0  0  0  0  0  0  0  0  0  0  0
  190.4280  176.4370  135.8000 C   0  0  0  0  0  2  0  0  0  0  0  0
  191.6890  175.6810  135.4020 C   0  0  0  0  0  2  0  0  0  0  0  0
  192.5190  175.3080  136.6270 C   0  0  2  0  0  3  0  0  0  0  0  0
  191.6240  175.0950  137.8360 C   0  0  0  0  0  1  0  0  0  0  0  0
  194.8510  175.9210  136.5670 O   0  0  0  0  0  1  0  0  0  0  0  0
  193.5780  176.3630  136.9330 C   0  0  0  0  0  3  0  0  0  0  0  0
  193.5630  176.6800  138.2920 O   0  0  0  0  0  1  0  0  0  0  0  0
  1  7  1  0  0  0  0
  2 12  1  0  0  0  0
  3  8  1  0  0  0  0
  5  2  2  0  0  0  0
  6  4  2  0  0  0  0
  7  2  1  0  0  0  0
  7  6  1  0  0  0  0
  9  8  1  0  0  0  0
  9 15  1  1  0  0  0
 10  4  1  1  0  0  0
 10  3  1  0  0  0  0
 11  9  1  0  0  0  0
 12 11  1  6  0  0  0
 12 10  1  0  0  0  0
 14  6  1  0  0  0  0
 14 13  1  0  0  0  0
 15 18  1  0  0  0  0
 18 17  2  0  0  0  0
 18 16  1  0  0  0  0
 19  1  1  0  0  0  0
 21 25  1  0  0  0  0
 21 26  1  0  0  0  0
 22 19  1  1  0  0  0
 23 27  1  0  0  0  0
 24 22  1  0  0  0  0
 25 23  1  0  0  0  0
 25 28  1  1  0  0  0
 26 22  1  0  0  0  0
 27 24  1  0  0  0  0
 27 20  2  0  0  0  0
 29 28  1  0  0  0  0
 29 30  1  0  0  0  0
 30 33  1  0  0  0  0
 30 31  1  1  0  0  0
 32 33  1  0  0  0  0
 33 34  1  0  0  0  0
M  END
>  <MODEL>
2

>  <REMARK>
 VINA RESULT:      -7.1      2.659      4.641
  Name = 
  10 active torsions:
  status: ('A' for Active; 'I' for Inactive)
    1  A    between atoms: C_7  and  C_15
    2  A    between atoms: C_7  and  C_29
    3  A    between atoms: C_8  and  C_17
    4  A    between atoms: C_10  and  C_17
    5  A    between atoms: C_10  and  N_20
    6  A    between atoms: C_19  and  C_22
    7  A    between atoms: C_24  and  C_25
    8  A    between atoms: C_25  and  C_27
    9  A    between atoms: C_26  and  C_28
   10  A    between atoms: C_26  and  C_29
                            x       y       z     vdW  Elec       q    Type
                         _______ _______ _______ _____ _____    ______ ____

>  <TORSDO>
F 10

$$$$
=
 OpenBabel10272415133D

 34 36  0  0  1  0  0  0  0  0999 V2000
  187.7980  178.7400  140.9670 C   0  0  0  0  0  2  0  0  0  0  0  0
  189.0290  178.1770  143.0820 C   0  0  0  0  0  0  0  0  0  0  0  0
  187.6000  177.5100  146.5630 C   0  0  0  0  0  2  0  0  0  0  0  0
  186.5060  177.8170  144.3450 C   0  0  0  0  0  3  0  0  0  0  0  0
  190.1290  178.4200  142.5130 O   0  0  0  0  0  0  0  0  0  0  0  0
  186.5470  177.9590  143.0160 C   0  0  0  0  0  0  0  0  0  0  0  0
  187.7900  178.2960  142.3590 N   0  0  0  0  0  0  0  0  0  0  0  0
  188.8000  177.9300  147.4150 C   0  0  0  0  0  2  0  0  0  0  0  0
  190.1330  177.5670  146.7490 C   0  0  2  0  0  3  0  0  0  0  0  0
  187.7110  178.1320  145.1780 C   0  0  2  0  0  3  0  0  0  0  0  0
  190.2050  178.1200  145.3170 C   0  0  0  0  0  2  0  0  0  0  0  0
  188.9980  177.6620  144.4940 C   0  0  2  0  0  3  0  0  0  0  0  0
  184.1780  178.5690  142.6930 C   0  0  0  0  0  1  0  0  0  0  0  0
  185.3110  177.6770  142.2250 C   0  0  0  0  0  2  0  0  0  0  0  0
  190.3640  176.0590  146.7890 C   0  0  0  0  0  2  0  0  0  0  0  0
  192.4780  176.3250  148.0850 O   0  0  0  0  0  1  0  0  0  0  0  0
  192.4160  174.9840  146.2270 O   0  0  0  0  0  0  0  0  0  0  0  0
  191.8040  175.7480  147.0180 C   0  0  0  0  0  0  0  0  0  0  0  0
  188.3110  177.6330  140.0560 C   0  0  0  0  0  2  0  0  0  0  0  0
  187.3360  179.5110  136.9770 O   0  0  0  0  0  0  0  0  0  0  0  0
  190.4110  176.4920  137.4040 C   0  0  0  0  0  2  0  0  0  0  0  0
  189.5620  178.0670  139.3000 C   0  0  2  0  0  3  0  0  0  0  0  0
  188.4380  177.5510  136.2250 C   0  0  0  0  0  2  0  0  0  0  0  0
  189.2250  178.9780  138.2090 N   0  0  0  0  0  2  0  0  0  0  0  0
  189.0160  176.2690  136.8200 C   0  0  2  0  0  3  0  0  0  0  0  0
  190.4370  176.8770  138.8850 C   0  0  0  0  0  2  0  0  0  0  0  0
  188.2690  178.6930  137.1820 C   0  0  0  0  0  0  0  0  0  0  0  0
  188.0650  175.5040  137.7410 C   0  0  0  0  0  2  0  0  0  0  0  0
  186.7090  175.2740  137.0860 C   0  0  0  0  0  2  0  0  0  0  0  0
  186.5230  173.8080  136.7040 C   0  0  2  0  0  3  0  0  0  0  0  0
  186.2200  173.6750  135.2210 C   0  0  0  0  0  1  0  0  0  0  0  0
  184.8140  172.1090  136.8180 O   0  0  0  0  0  1  0  0  0  0  0  0
  185.4240  173.1460  137.5290 C   0  0  0  0  0  3  0  0  0  0  0  0
  184.4650  174.0900  137.8990 O   0  0  0  0  0  1  0  0  0  0  0  0
  1  7  1  0  0  0  0
  2 12  1  0  0  0  0
  3  8  1  0  0  0  0
  5  2  2  0  0  0  0
  6  4  2  0  0  0  0
  7  6  1  0  0  0  0
  7  2  1  0  0  0  0
  9 15  1  6  0  0  0
  9  8  1  0  0  0  0
 10  4  1  6  0  0  0
 10  3  1  0  0  0  0
 11  9  1  0  0  0  0
 12 10  1  0  0  0  0
 12 11  1  1  0  0  0
 14 13  1  0  0  0  0
 14  6  1  0  0  0  0
 15 18  1  0  0  0  0
 17 18  2  0  0  0  0
 18 16  1  0  0  0  0
 19  1  1  0  0  0  0
 20 27  2  0  0  0  0
 21 26  1  0  0  0  0
 22 19  1  6  0  0  0
 23 25  1  0  0  0  0
 23 27  1  0  0  0  0
 24 22  1  0  0  0  0
 25 21  1  0  0  0  0
 25 28  1  1  0  0  0
 26 22  1  0  0  0  0
 27 24  1  0  0  0  0
 29 28  1  0  0  0  0
 30 31  1  6  0  0  0
 30 29  1  0  0  0  0
 30 33  1  0  0  0  0
 32 33  1  0  0  0  0
 33 34  1  0  0  0  0
M  END
>  <MODEL>
3

>  <REMARK>
 VINA RESULT:      -7.0      2.765      5.560
  Name = 
  10 active torsions:
  status: ('A' for Active; 'I' for Inactive)
    1  A    between atoms: C_7  and  C_15
    2  A    between atoms: C_7  and  C_29
    3  A    between atoms: C_8  and  C_17
    4  A    between atoms: C_10  and  C_17
    5  A    between atoms: C_10  and  N_20
    6  A    between atoms: C_19  and  C_22
    7  A    between atoms: C_24  and  C_25
    8  A    between atoms: C_25  and  C_27
    9  A    between atoms: C_26  and  C_28
   10  A    between atoms: C_26  and  C_29
                            x       y       z     vdW  Elec       q    Type
                         _______ _______ _______ _____ _____    ______ ____

>  <TORSDO>
F 10

$$$$
=
 OpenBabel10272415133D

 34 36  0  0  1  0  0  0  0  0999 V2000
  189.6440  178.0240  140.5880 C   0  0  0  0  0  2  0  0  0  0  0  0
  191.3340  176.8630  139.1390 C   0  0  0  0  0  0  0  0  0  0  0  0
  190.7240  174.4580  136.2310 C   0  0  0  0  0  2  0  0  0  0  0  0
  189.1730  175.8730  137.5750 C   0  0  0  0  0  3  0  0  0  0  0  0
  192.2620  177.2540  139.8980 O   0  0  0  0  0  0  0  0  0  0  0  0
  188.9260  176.8140  138.4930 C   0  0  0  0  0  0  0  0  0  0  0  0
  189.9670  177.2280  139.4070 N   0  0  0  0  0  0  0  0  0  0  0  0
  192.0230  173.6510  136.2930 C   0  0  0  0  0  2  0  0  0  0  0  0
  193.2220  174.5210  136.6920 C   0  0  2  0  0  3  0  0  0  0  0  0
  190.4840  175.1470  137.5680 C   0  0  2  0  0  3  0  0  0  0  0  0
  192.9410  175.2850  137.9950 C   0  0  0  0  0  2  0  0  0  0  0  0
  191.6460  176.0930  137.8860 C   0  0  2  0  0  3  0  0  0  0  0  0
  187.3980  178.2610  137.2060 C   0  0  0  0  0  1  0  0  0  0  0  0
  187.5910  177.4840  138.4930 C   0  0  0  0  0  2  0  0  0  0  0  0
  193.6110  175.4600  135.5540 C   0  0  0  0  0  2  0  0  0  0  0  0
  196.0060  175.4370  136.2500 O   0  0  0  0  0  1  0  0  0  0  0  0
  194.9490  177.4180  135.7890 O   0  0  0  0  0  0  0  0  0  0  0  0
  194.8890  176.1630  135.8590 C   0  0  0  0  0  0  0  0  0  0  0  0
  190.0380  177.2810  141.8580 C   0  0  0  0  0  2  0  0  0  0  0  0
  191.9190  174.8870  144.0230 O   0  0  0  0  0  0  0  0  0  0  0  0
  190.5230  178.8630  145.0210 C   0  0  0  0  0  2  0  0  0  0  0  0
  191.1240  178.0260  142.6270 C   0  0  2  0  0  3  0  0  0  0  0  0
  190.8460  176.3990  145.5000 C   0  0  0  0  0  2  0  0  0  0  0  0
  192.0090  177.0940  143.3200 N   0  0  0  0  0  2  0  0  0  0  0  0
  189.8490  177.5530  145.4240 C   0  0  2  0  0  3  0  0  0  0  0  0
  190.5530  179.1380  143.5160 C   0  0  0  0  0  2  0  0  0  0  0  0
  191.5660  176.0770  144.2250 C   0  0  0  0  0  0  0  0  0  0  0  0
  188.5680  177.2420  144.6490 C   0  0  0  0  0  2  0  0  0  0  0  0
  187.3250  177.6910  145.4070 C   0  0  0  0  0  2  0  0  0  0  0  0
  186.1000  177.7050  144.4970 C   0  0  2  0  0  3  0  0  0  0  0  0
  186.5070  177.9400  143.0530 C   0  0  0  0  0  1  0  0  0  0  0  0
  184.9080  179.7310  143.9540 O   0  0  0  0  0  1  0  0  0  0  0  0
  185.0840  178.7550  144.9380 C   0  0  0  0  0  3  0  0  0  0  0  0
  185.4990  179.3560  146.1270 O   0  0  0  0  0  1  0  0  0  0  0  0
  1 19  1  0  0  0  0
  2  7  1  0  0  0  0
  2  5  2  0  0  0  0
  3  8  1  0  0  0  0
  4  6  2  0  0  0  0
  6 14  1  0  0  0  0
  6  7  1  0  0  0  0
  7  1  1  0  0  0  0
  8  9  1  0  0  0  0
  9 15  1  6  0  0  0
  9 11  1  0  0  0  0
 10  3  1  6  0  0  0
 10  4  1  0  0  0  0
 10 12  1  0  0  0  0
 12 11  1  1  0  0  0
 12  2  1  0  0  0  0
 13 14  1  0  0  0  0
 15 18  1  0  0  0  0
 17 18  2  0  0  0  0
 18 16  1  0  0  0  0
 20 27  2  0  0  0  0
 21 25  1  0  0  0  0
 22 19  1  1  0  0  0
 22 24  1  0  0  0  0
 22 26  1  0  0  0  0
 24 27  1  0  0  0  0
 25 28  1  6  0  0  0
 25 23  1  0  0  0  0
 26 21  1  0  0  0  0
 27 23  1  0  0  0  0
 28 29  1  0  0  0  0
 30 31  1  6  0  0  0
 30 33  1  0  0  0  0
 30 29  1  0  0  0  0
 32 33  1  0  0  0  0
 33 34  1  0  0  0  0
M  END
>  <MODEL>
4

>  <REMARK>
 VINA RESULT:      -6.9      3.400      8.661
  Name = 
  10 active torsions:
  status: ('A' for Active; 'I' for Inactive)
    1  A    between atoms: C_7  and  C_15
    2  A    between atoms: C_7  and  C_29
    3  A    between atoms: C_8  and  C_17
    4  A    between atoms: C_10  and  C_17
    5  A    between atoms: C_10  and  N_20
    6  A    between atoms: C_19  and  C_22
    7  A    between atoms: C_24  and  C_25
    8  A    between atoms: C_25  and  C_27
    9  A    between atoms: C_26  and  C_28
   10  A    between atoms: C_26  and  C_29
                            x       y       z     vdW  Elec       q    Type
                         _______ _______ _______ _____ _____    ______ ____

>  <TORSDO>
F 10

$$$$
=
 OpenBabel10272415133D

 34 36  0  0  1  0  0  0  0  0999 V2000
  187.5180  178.8070  143.1770 C   0  0  0  0  0  2  0  0  0  0  0  0
  186.0100  178.7900  141.1690 C   0  0  0  0  0  0  0  0  0  0  0  0
  182.2420  178.1640  141.0280 C   0  0  0  0  0  2  0  0  0  0  0  0
  183.8090  178.4680  142.9430 C   0  0  0  0  0  3  0  0  0  0  0  0
  187.0140  178.8550  140.4080 O   0  0  0  0  0  0  0  0  0  0  0  0
  185.0090  178.7610  143.4530 C   0  0  0  0  0  0  0  0  0  0  0  0
  186.1760  178.7810  142.6000 N   0  0  0  0  0  0  0  0  0  0  0  0
  182.1290  177.6200  139.6020 C   0  0  0  0  0  2  0  0  0  0  0  0
  183.1070  178.3110  138.6440 C   0  0  2  0  0  3  0  0  0  0  0  0
  183.6780  178.0300  141.5160 C   0  0  2  0  0  3  0  0  0  0  0  0
  184.5440  178.2530  139.1830 C   0  0  0  0  0  2  0  0  0  0  0  0
  184.6180  178.8230  140.6020 C   0  0  2  0  0  3  0  0  0  0  0  0
  183.8210  178.7860  145.6140 C   0  0  0  0  0  1  0  0  0  0  0  0
  185.1030  179.1520  144.8920 C   0  0  0  0  0  2  0  0  0  0  0  0
  182.6630  179.7430  138.3590 C   0  0  0  0  0  2  0  0  0  0  0  0
  181.1180  179.1480  136.4950 O   0  0  0  0  0  0  0  0  0  0  0  0
  180.3650  180.3680  138.2840 O   0  0  0  0  0  1  0  0  0  0  0  0
  181.3160  179.7660  137.7220 C   0  0  0  0  0  0  0  0  0  0  0  0
  188.2840  177.5430  142.8070 C   0  0  0  0  0  2  0  0  0  0  0  0
  190.4850  174.5280  142.9690 O   0  0  0  0  0  0  0  0  0  0  0  0
  191.5070  178.6360  143.8840 C   0  0  0  0  0  2  0  0  0  0  0  0
  189.6520  177.8720  142.2190 C   0  0  2  0  0  3  0  0  0  0  0  0
  191.4970  176.1520  144.3690 C   0  0  0  0  0  2  0  0  0  0  0  0
  190.4650  176.6670  142.0750 N   0  0  0  0  0  2  0  0  0  0  0  0
  191.1850  177.5470  144.9060 C   0  0  2  0  0  3  0  0  0  0  0  0
  190.3470  179.0200  142.9620 C   0  0  0  0  0  2  0  0  0  0  0  0
  190.7440  175.7480  143.1360 C   0  0  0  0  0  0  0  0  0  0  0  0
  189.8110  177.6890  145.5630 C   0  0  0  0  0  2  0  0  0  0  0  0
  189.7340  176.9290  146.8810 C   0  0  0  0  0  2  0  0  0  0  0  0
  188.3140  176.9420  147.4420 C   0  0  2  0  0  3  0  0  0  0  0  0
  187.3080  177.2540  146.3470 C   0  0  0  0  0  1  0  0  0  0  0  0
  187.3440  179.0030  148.2340 O   0  0  0  0  0  1  0  0  0  0  0  0
  188.1720  177.9360  148.5910 C   0  0  0  0  0  3  0  0  0  0  0  0
  189.4270  178.4190  148.9660 O   0  0  0  0  0  1  0  0  0  0  0  0
  2  7  1  0  0  0  0
  4  6  2  0  0  0  0
  5  2  2  0  0  0  0
  6 14  1  0  0  0  0
  7  1  1  0  0  0  0
  7  6  1  0  0  0  0
  8  3  1  0  0  0  0
  9 15  1  1  0  0  0
  9 11  1  0  0  0  0
  9  8  1  0  0  0  0
 10  3  1  6  0  0  0
 10  4  1  0  0  0  0
 12 11  1  6  0  0  0
 12  2  1  0  0  0  0
 12 10  1  0  0  0  0
 14 13  1  0  0  0  0
 16 18  2  0  0  0  0
 18 17  1  0  0  0  0
 18 15  1  0  0  0  0
 19  1  1  0  0  0  0
 20 27  2  0  0  0  0
 21 25  1  0  0  0  0
 22 19  1  1  0  0  0
 22 26  1  0  0  0  0
 23 25  1  0  0  0  0
 24 22  1  0  0  0  0
 24 27  1  0  0  0  0
 25 28  1  6  0  0  0
 26 21  1  0  0  0  0
 27 23  1  0  0  0  0
 28 29  1  0  0  0  0
 29 30  1  0  0  0  0
 30 31  1  6  0  0  0
 30 33  1  0  0  0  0
 32 33  1  0  0  0  0
 33 34  1  0  0  0  0
M  END
>  <MODEL>
5

>  <REMARK>
 VINA RESULT:      -6.8      2.815      6.212
  Name = 
  10 active torsions:
  status: ('A' for Active; 'I' for Inactive)
    1  A    between atoms: C_7  and  C_15
    2  A    between atoms: C_7  and  C_29
    3  A    between atoms: C_8  and  C_17
    4  A    between atoms: C_10  and  C_17
    5  A    between atoms: C_10  and  N_20
    6  A    between atoms: C_19  and  C_22
    7  A    between atoms: C_24  and  C_25
    8  A    between atoms: C_25  and  C_27
    9  A    between atoms: C_26  and  C_28
   10  A    between atoms: C_26  and  C_29
                            x       y       z     vdW  Elec       q    Type
                         _______ _______ _______ _____ _____    ______ ____

>  <TORSDO>
F 10

$$$$
=
 OpenBabel10272415133D

 34 36  0  0  1  0  0  0  0  0999 V2000
  188.8850  178.2230  138.7990 C   0  0  0  0  0  2  0  0  0  0  0  0
  187.4480  178.3290  140.8560 C   0  0  0  0  0  0  0  0  0  0  0  0
  188.1770  176.9430  144.3420 C   0  0  0  0  0  2  0  0  0  0  0  0
  189.5930  177.1440  142.3010 C   0  0  0  0  0  3  0  0  0  0  0  0
  186.4910  178.7810  140.1700 O   0  0  0  0  0  0  0  0  0  0  0  0
  189.8150  177.5710  141.0540 C   0  0  0  0  0  0  0  0  0  0  0  0
  188.7160  178.0350  140.2380 N   0  0  0  0  0  0  0  0  0  0  0  0
  186.7430  176.7220  144.8320 C   0  0  0  0  0  2  0  0  0  0  0  0
  185.7880  177.8070  144.3210 C   0  0  2  0  0  3  0  0  0  0  0  0
  188.1940  177.0200  142.8220 C   0  0  2  0  0  3  0  0  0  0  0  0
  185.8730  177.9450  142.7930 C   0  0  0  0  0  2  0  0  0  0  0  0
  187.3180  178.1830  142.3460 C   0  0  2  0  0  3  0  0  0  0  0  0
  192.1890  177.3660  141.6940 C   0  0  0  0  0  1  0  0  0  0  0  0
  191.2230  177.6390  140.5580 C   0  0  0  0  0  2  0  0  0  0  0  0
  186.0490  179.1340  145.0270 C   0  0  0  0  0  2  0  0  0  0  0  0
  185.9810  179.6690  147.4620 O   0  0  0  0  0  1  0  0  0  0  0  0
  184.1430  178.7830  146.4150 O   0  0  0  0  0  0  0  0  0  0  0  0
  185.3310  179.1920  146.3320 C   0  0  0  0  0  0  0  0  0  0  0  0
  188.5030  176.9560  138.0460 C   0  0  0  0  0  2  0  0  0  0  0  0
  187.7900  177.6690  134.4480 O   0  0  0  0  0  0  0  0  0  0  0  0
  189.4280  174.0550  136.1830 C   0  0  0  0  0  2  0  0  0  0  0  0
  189.6550  176.4510  137.1820 C   0  0  2  0  0  3  0  0  0  0  0  0
  187.8550  175.3080  134.6460 C   0  0  0  0  0  2  0  0  0  0  0  0
  189.5080  176.8970  135.7990 N   0  0  0  0  0  2  0  0  0  0  0  0
  187.9770  174.2590  135.7490 C   0  0  2  0  0  3  0  0  0  0  0  0
  189.8870  174.9430  137.3410 C   0  0  0  0  0  2  0  0  0  0  0  0
  188.3410  176.6820  134.9990 C   0  0  0  0  0  0  0  0  0  0  0  0
  186.9930  174.4310  136.9070 C   0  0  0  0  0  2  0  0  0  0  0  0
  186.3720  173.1040  137.3230 C   0  0  0  0  0  2  0  0  0  0  0  0
  184.9090  173.2810  137.7220 C   0  0  2  0  0  3  0  0  0  0  0  0
  184.0860  172.0800  137.2870 C   0  0  0  0  0  1  0  0  0  0  0  0
  183.4100  175.1440  138.0330 O   0  0  0  0  0  1  0  0  0  0  0  0
  184.3190  174.5640  137.1450 C   0  0  0  0  0  3  0  0  0  0  0  0
  183.6860  174.2980  135.9300 O   0  0  0  0  0  1  0  0  0  0  0  0
  1  7  1  0  0  0  0
  2 12  1  0  0  0  0
  3  8  1  0  0  0  0
  5  2  2  0  0  0  0
  6  4  2  0  0  0  0
  7  2  1  0  0  0  0
  7  6  1  0  0  0  0
  9  8  1  0  0  0  0
  9 15  1  1  0  0  0
 10  4  1  1  0  0  0
 10  3  1  0  0  0  0
 11  9  1  0  0  0  0
 12 11  1  6  0  0  0
 12 10  1  0  0  0  0
 14  6  1  0  0  0  0
 14 13  1  0  0  0  0
 15 18  1  0  0  0  0
 18 17  2  0  0  0  0
 18 16  1  0  0  0  0
 19  1  1  0  0  0  0
 20 27  2  0  0  0  0
 21 26  1  0  0  0  0
 22 26  1  0  0  0  0
 22 19  1  1  0  0  0
 23 27  1  0  0  0  0
 23 25  1  0  0  0  0
 24 22  1  0  0  0  0
 25 21  1  0  0  0  0
 25 28  1  1  0  0  0
 27 24  1  0  0  0  0
 28 29  1  0  0  0  0
 29 30  1  0  0  0  0
 30 31  1  6  0  0  0
 33 30  1  0  0  0  0
 33 32  1  0  0  0  0
 34 33  1  0  0  0  0
M  END
>  <MODEL>
6

>  <REMARK>
 VINA RESULT:      -6.7      2.747      5.401
  Name = 
  10 active torsions:
  status: ('A' for Active; 'I' for Inactive)
    1  A    between atoms: C_7  and  C_15
    2  A    between atoms: C_7  and  C_29
    3  A    between atoms: C_8  and  C_17
    4  A    between atoms: C_10  and  C_17
    5  A    between atoms: C_10  and  N_20
    6  A    between atoms: C_19  and  C_22
    7  A    between atoms: C_24  and  C_25
    8  A    between atoms: C_25  and  C_27
    9  A    between atoms: C_26  and  C_28
   10  A    between atoms: C_26  and  C_29
                            x       y       z     vdW  Elec       q    Type
                         _______ _______ _______ _____ _____    ______ ____

>  <TORSDO>
F 10

$$$$
=
 OpenBabel10272415133D

 34 36  0  0  1  0  0  0  0  0999 V2000
  189.3230  178.7130  141.0250 C   0  0  0  0  0  2  0  0  0  0  0  0
  187.4360  178.1460  139.4690 C   0  0  0  0  0  0  0  0  0  0  0  0
  187.6180  176.7050  135.9340 C   0  0  0  0  0  2  0  0  0  0  0  0
  189.3640  177.0700  137.6750 C   0  0  0  0  0  3  0  0  0  0  0  0
  186.6160  178.7000  140.2520 O   0  0  0  0  0  0  0  0  0  0  0  0
  189.7490  177.4010  138.9110 C   0  0  0  0  0  0  0  0  0  0  0  0
  188.8370  178.0890  139.7970 N   0  0  0  0  0  0  0  0  0  0  0  0
  186.3060  177.2550  135.3680 C   0  0  0  0  0  2  0  0  0  0  0  0
  185.1940  177.2880  136.4240 C   0  0  2  0  0  3  0  0  0  0  0  0
  188.0350  177.5220  137.1480 C   0  0  2  0  0  3  0  0  0  0  0  0
  185.6510  178.0370  137.6850 C   0  0  0  0  0  2  0  0  0  0  0  0
  186.9530  177.4450  138.2300 C   0  0  2  0  0  3  0  0  0  0  0  0
  191.9480  176.5360  138.2040 C   0  0  0  0  0  1  0  0  0  0  0  0
  191.0990  176.9680  139.3830 C   0  0  0  0  0  2  0  0  0  0  0  0
  184.7090  175.8770  136.7440 C   0  0  0  0  0  2  0  0  0  0  0  0
  183.1040  175.0660  138.4710 O   0  0  0  0  0  1  0  0  0  0  0  0
  182.4790  176.6850  136.9730 O   0  0  0  0  0  0  0  0  0  0  0  0
  183.3730  175.9100  137.4030 C   0  0  0  0  0  0  0  0  0  0  0  0
  189.8320  177.6560  141.9970 C   0  0  0  0  0  2  0  0  0  0  0  0
  191.4210  174.7480  143.7210 O   0  0  0  0  0  0  0  0  0  0  0  0
  190.9390  178.7910  145.1950 C   0  0  0  0  0  2  0  0  0  0  0  0
  191.1160  178.1050  142.6870 C   0  0  2  0  0  3  0  0  0  0  0  0
  190.8210  176.2740  145.4330 C   0  0  0  0  0  2  0  0  0  0  0  0
  191.8680  176.9600  143.1920 N   0  0  0  0  0  2  0  0  0  0  0  0
  190.0660  177.5940  145.5700 C   0  0  2  0  0  3  0  0  0  0  0  0
  190.8670  179.2070  143.7240 C   0  0  0  0  0  2  0  0  0  0  0  0
  191.3300  175.9560  144.0590 C   0  0  0  0  0  0  0  0  0  0  0  0
  188.6760  177.6060  144.9310 C   0  0  0  0  0  2  0  0  0  0  0  0
  187.5730  177.6640  145.9800 C   0  0  0  0  0  2  0  0  0  0  0  0
  186.2050  177.8570  145.3310 C   0  0  2  0  0  3  0  0  0  0  0  0
  186.3430  178.0110  143.8260 C   0  0  0  0  0  1  0  0  0  0  0  0
  185.9370  179.3570  147.2000 O   0  0  0  0  0  1  0  0  0  0  0  0
  185.4670  179.0550  145.9200 C   0  0  0  0  0  3  0  0  0  0  0  0
  184.0960  178.7990  145.9700 O   0  0  0  0  0  1  0  0  0  0  0  0
  1 19  1  0  0  0  0
  2  7  1  0  0  0  0
  2  5  2  0  0  0  0
  4  6  2  0  0  0  0
  6 14  1  0  0  0  0
  6  7  1  0  0  0  0
  7  1  1  0  0  0  0
  8  3  1  0  0  0  0
  8  9  1  0  0  0  0
  9 15  1  1  0  0  0
  9 11  1  0  0  0  0
 10  3  1  6  0  0  0
 10  4  1  0  0  0  0
 10 12  1  0  0  0  0
 12 11  1  6  0  0  0
 12  2  1  0  0  0  0
 13 14  1  0  0  0  0
 15 18  1  0  0  0  0
 17 18  2  0  0  0  0
 18 16  1  0  0  0  0
 20 27  2  0  0  0  0
 21 25  1  0  0  0  0
 22 19  1  1  0  0  0
 22 24  1  0  0  0  0
 22 26  1  0  0  0  0
 23 25  1  0  0  0  0
 24 27  1  0  0  0  0
 25 28  1  6  0  0  0
 26 21  1  0  0  0  0
 27 23  1  0  0  0  0
 28 29  1  0  0  0  0
 30 31  1  6  0  0  0
 30 33  1  0  0  0  0
 30 29  1  0  0  0  0
 33 34  1  0  0  0  0
 33 32  1  0  0  0  0
M  END
>  <MODEL>
7

>  <REMARK>
 VINA RESULT:      -6.5      2.661      7.289
  Name = 
  10 active torsions:
  status: ('A' for Active; 'I' for Inactive)
    1  A    between atoms: C_7  and  C_15
    2  A    between atoms: C_7  and  C_29
    3  A    between atoms: C_8  and  C_17
    4  A    between atoms: C_10  and  C_17
    5  A    between atoms: C_10  and  N_20
    6  A    between atoms: C_19  and  C_22
    7  A    between atoms: C_24  and  C_25
    8  A    between atoms: C_25  and  C_27
    9  A    between atoms: C_26  and  C_28
   10  A    between atoms: C_26  and  C_29
                            x       y       z     vdW  Elec       q    Type
                         _______ _______ _______ _____ _____    ______ ____

>  <TORSDO>
F 10

$$$$
=
 OpenBabel10272415133D

 34 36  0  0  1  0  0  0  0  0999 V2000
  183.8520  178.2460  138.0690 C   0  0  0  0  0  2  0  0  0  0  0  0
  184.6050  178.6370  140.4320 C   0  0  0  0  0  0  0  0  0  0  0  0
  182.5040  178.6750  143.6250 C   0  0  0  0  0  2  0  0  0  0  0  0
  181.9520  178.0510  141.2760 C   0  0  0  0  0  3  0  0  0  0  0  0
  185.7510  178.9660  140.0190 O   0  0  0  0  0  0  0  0  0  0  0  0
  182.2920  177.8090  140.0060 C   0  0  0  0  0  0  0  0  0  0  0  0
  183.5800  178.2350  139.5050 N   0  0  0  0  0  0  0  0  0  0  0  0
  183.3660  179.6040  144.4850 C   0  0  0  0  0  2  0  0  0  0  0  0
  184.8640  179.4010  144.2250 C   0  0  2  0  0  3  0  0  0  0  0  0
  182.8410  178.8780  142.1540 C   0  0  2  0  0  3  0  0  0  0  0  0
  185.1870  179.5170  142.7280 C   0  0  0  0  0  2  0  0  0  0  0  0
  184.3180  178.5600  141.9060 C   0  0  2  0  0  3  0  0  0  0  0  0
  181.6580  175.5370  139.2820 C   0  0  0  0  0  1  0  0  0  0  0  0
  181.3580  177.0180  139.1500 C   0  0  0  0  0  2  0  0  0  0  0  0
  185.3380  178.0730  144.8090 C   0  0  0  0  0  2  0  0  0  0  0  0
  186.9950  177.4240  146.5560 O   0  0  0  0  0  0  0  0  0  0  0  0
  185.5890  179.2040  146.8920 O   0  0  0  0  0  1  0  0  0  0  0  0
  185.9820  178.2760  146.1380 C   0  0  0  0  0  0  0  0  0  0  0  0
  184.7590  177.0830  137.6880 C   0  0  0  0  0  2  0  0  0  0  0  0
  185.4960  173.4210  137.7620 O   0  0  0  0  0  0  0  0  0  0  0  0
  186.1330  176.2110  134.5110 C   0  0  0  0  0  2  0  0  0  0  0  0
  184.3240  176.4440  136.3740 C   0  0  2  0  0  3  0  0  0  0  0  0
  186.8510  174.3260  136.0400 C   0  0  0  0  0  2  0  0  0  0  0  0
  184.4050  174.9870  136.4470 N   0  0  0  0  0  2  0  0  0  0  0  0
  187.2060  175.6980  135.4700 C   0  0  2  0  0  3  0  0  0  0  0  0
  185.0360  177.0570  135.1620 C   0  0  0  0  0  2  0  0  0  0  0  0
  185.5770  174.2590  136.8270 C   0  0  0  0  0  0  0  0  0  0  0  0
  187.6620  176.7240  136.5080 C   0  0  0  0  0  2  0  0  0  0  0  0
  188.5750  176.1000  137.5570 C   0  0  0  0  0  2  0  0  0  0  0  0
  189.0960  177.1530  138.5310 C   0  0  2  0  0  3  0  0  0  0  0  0
  188.9770  178.5430  137.9320 C   0  0  0  0  0  1  0  0  0  0  0  0
  190.8510  175.5210  138.8000 O   0  0  0  0  0  1  0  0  0  0  0  0
  190.5390  176.8750  138.9410 C   0  0  0  0  0  3  0  0  0  0  0  0
  190.7480  177.2710  140.2630 O   0  0  0  0  0  1  0  0  0  0  0  0
  1  7  1  0  0  0  0
  2 12  1  0  0  0  0
  3  8  1  0  0  0  0
  5  2  2  0  0  0  0
  6  4  2  0  0  0  0
  7  6  1  0  0  0  0
  7  2  1  0  0  0  0
  9  8  1  0  0  0  0
  9 15  1  6  0  0  0
 10  4  1  6  0  0  0
 10  3  1  0  0  0  0
 11  9  1  0  0  0  0
 12 10  1  0  0  0  0
 12 11  1  1  0  0  0
 14 13  1  0  0  0  0
 14  6  1  0  0  0  0
 15 18  1  0  0  0  0
 18 16  2  0  0  0  0
 18 17  1  0  0  0  0
 19  1  1  0  0  0  0
 21 26  1  0  0  0  0
 21 25  1  0  0  0  0
 22 24  1  0  0  0  0
 22 19  1  1  0  0  0
 23 27  1  0  0  0  0
 24 27  1  0  0  0  0
 25 23  1  0  0  0  0
 25 28  1  1  0  0  0
 26 22  1  0  0  0  0
 27 20  2  0  0  0  0
 28 29  1  0  0  0  0
 29 30  1  0  0  0  0
 30 31  1  6  0  0  0
 30 33  1  0  0  0  0
 32 33  1  0  0  0  0
 33 34  1  0  0  0  0
M  END
>  <MODEL>
8

>  <REMARK>
 VINA RESULT:      -6.4      1.670      2.496
  Name = 
  10 active torsions:
  status: ('A' for Active; 'I' for Inactive)
    1  A    between atoms: C_7  and  C_15
    2  A    between atoms: C_7  and  C_29
    3  A    between atoms: C_8  and  C_17
    4  A    between atoms: C_10  and  C_17
    5  A    between atoms: C_10  and  N_20
    6  A    between atoms: C_19  and  C_22
    7  A    between atoms: C_24  and  C_25
    8  A    between atoms: C_25  and  C_27
    9  A    between atoms: C_26  and  C_28
   10  A    between atoms: C_26  and  C_29
                            x       y       z     vdW  Elec       q    Type
                         _______ _______ _______ _____ _____    ______ ____

>  <TORSDO>
F 10

$$$$
=
 OpenBabel10272415133D

 34 36  0  0  1  0  0  0  0  0999 V2000
  191.7600  177.4450  138.7010 C   0  0  0  0  0  2  0  0  0  0  0  0
  191.8520  177.3810  141.2100 C   0  0  0  0  0  0  0  0  0  0  0  0
  188.9720  177.6640  143.7060 C   0  0  0  0  0  2  0  0  0  0  0  0
  189.0080  177.4500  141.2230 C   0  0  0  0  0  3  0  0  0  0  0  0
  193.1120  177.4290  141.1700 O   0  0  0  0  0  0  0  0  0  0  0  0
  189.6420  177.2530  140.0620 C   0  0  0  0  0  0  0  0  0  0  0  0
  191.0820  177.3640  139.9930 N   0  0  0  0  0  0  0  0  0  0  0  0
  189.7310  178.2360  144.9060 C   0  0  0  0  0  2  0  0  0  0  0  0
  191.1510  177.6640  145.0130 C   0  0  2  0  0  3  0  0  0  0  0  0
  189.7640  177.9150  142.4300 C   0  0  2  0  0  3  0  0  0  0  0  0
  191.9180  177.8380  143.6930 C   0  0  0  0  0  2  0  0  0  0  0  0
  191.1350  177.2370  142.5230 C   0  0  2  0  0  3  0  0  0  0  0  0
  188.0590  178.0090  138.3280 C   0  0  0  0  0  1  0  0  0  0  0  0
  188.8450  176.8320  138.8710 C   0  0  0  0  0  2  0  0  0  0  0  0
  191.1140  176.2060  145.4620 C   0  0  0  0  0  2  0  0  0  0  0  0
  191.8460  176.9140  147.7380 O   0  0  0  0  0  1  0  0  0  0  0  0
  192.7270  175.0340  146.7670 O   0  0  0  0  0  0  0  0  0  0  0  0
  191.9340  176.0080  146.6910 C   0  0  0  0  0  0  0  0  0  0  0  0
  192.0050  176.0510  138.1380 C   0  0  0  0  0  2  0  0  0  0  0  0
  189.9430  173.1620  136.9720 O   0  0  0  0  0  0  0  0  0  0  0  0
  193.6990  174.5900  135.3570 C   0  0  0  0  0  2  0  0  0  0  0  0
  191.9400  176.0460  136.6140 C   0  0  2  0  0  3  0  0  0  0  0  0
  192.1360  172.7690  136.1620 C   0  0  0  0  0  2  0  0  0  0  0  0
  190.9770  175.0590  136.1330 N   0  0  0  0  0  2  0  0  0  0  0  0
  193.5260  173.3900  136.2870 C   0  0  2  0  0  3  0  0  0  0  0  0
  193.3290  175.9410  135.9710 C   0  0  0  0  0  2  0  0  0  0  0  0
  190.9880  173.6740  136.4950 C   0  0  0  0  0  0  0  0  0  0  0  0
  193.9900  173.6360  137.7230 C   0  0  0  0  0  2  0  0  0  0  0  0
  195.3730  173.0500  137.9780 C   0  0  0  0  0  2  0  0  0  0  0  0
  196.2220  173.9890  138.8310 C   0  0  2  0  0  3  0  0  0  0  0  0
  195.3580  175.0720  139.4550 C   0  0  0  0  0  1  0  0  0  0  0  0
  198.1650  175.4170  138.8280 O   0  0  0  0  0  1  0  0  0  0  0  0
  197.3540  174.6150  138.0220 C   0  0  0  0  0  3  0  0  0  0  0  0
  196.8330  175.3750  136.9740 O   0  0  0  0  0  1  0  0  0  0  0  0
  1  7  1  0  0  0  0
  2 12  1  0  0  0  0
  3  8  1  0  0  0  0
  5  2  2  0  0  0  0
  6  4  2  0  0  0  0
  7  6  1  0  0  0  0
  7  2  1  0  0  0  0
  8  9  1  0  0  0  0
  9 15  1  6  0  0  0
 10  4  1  6  0  0  0
 10 12  1  0  0  0  0
 10  3  1  0  0  0  0
 11  9  1  0  0  0  0
 12 11  1  1  0  0  0
 13 14  1  0  0  0  0
 14  6  1  0  0  0  0
 15 18  1  0  0  0  0
 18 17  2  0  0  0  0
 18 16  1  0  0  0  0
 19  1  1  0  0  0  0
 21 26  1  0  0  0  0
 21 25  1  0  0  0  0
 22 19  1  1  0  0  0
 23 25  1  0  0  0  0
 23 27  1  0  0  0  0
 24 27  1  0  0  0  0
 24 22  1  0  0  0  0
 25 28  1  1  0  0  0
 26 22  1  0  0  0  0
 27 20  2  0  0  0  0
 28 29  1  0  0  0  0
 29 30  1  0  0  0  0
 30 31  1  6  0  0  0
 33 32  1  0  0  0  0
 33 30  1  0  0  0  0
 34 33  1  0  0  0  0
M  END
>  <MODEL>
9

>  <REMARK>
 VINA RESULT:      -6.3      4.240      6.627
  Name = 
  10 active torsions:
  status: ('A' for Active; 'I' for Inactive)
    1  A    between atoms: C_7  and  C_15
    2  A    between atoms: C_7  and  C_29
    3  A    between atoms: C_8  and  C_17
    4  A    between atoms: C_10  and  C_17
    5  A    between atoms: C_10  and  N_20
    6  A    between atoms: C_19  and  C_22
    7  A    between atoms: C_24  and  C_25
    8  A    between atoms: C_25  and  C_27
    9  A    between atoms: C_26  and  C_28
   10  A    between atoms: C_26  and  C_29
                            x       y       z     vdW  Elec       q    Type
                         _______ _______ _______ _____ _____    ______ ____

>  <TORSDO>
F 10

$$$$
