=
 OpenBabel10272400363D

 31 33  0  0  1  0  0  0  0  0999 V2000
  185.2750  178.5720  140.5230 C   0  0  0  0  0  0  0  0  0  0  0  0
  187.5060  178.3860  139.7940 C   0  0  0  0  0  0  0  0  0  0  0  0
  187.5790  178.4240  141.4740 S   0  0  0  0  0  0  0  0  0  0  0  0
  186.1580  178.4980  139.4240 C   0  0  0  0  0  0  0  0  0  0  0  0
  185.9260  178.5580  141.7660 C   0  0  0  0  0  0  0  0  0  0  0  0
  183.7850  178.6810  140.3680 C   0  0  1  0  0  3  0  0  0  0  0  0
  181.9040  179.8980  139.3070 C   0  0  0  0  0  2  0  0  0  0  0  0
  183.4090  179.6650  139.2650 C   0  0  0  0  0  2  0  0  0  0  0  0
  181.1820  178.6330  139.2160 N   0  0  0  0  0  2  0  0  0  0  0  0
  180.9600  176.4090  139.8670 O   0  0  0  0  0  0  0  0  0  0  0  0
  183.1540  177.3080  140.1340 C   0  0  0  0  0  2  0  0  0  0  0  0
  181.7040  177.4190  139.7680 C   0  0  0  0  0  0  0  0  0  0  0  0
  183.4630  179.1440  144.6030 C   0  0  0  0  0  3  0  0  0  0  0  0
  185.3240  178.6290  143.1210 C   0  0  0  0  0  0  0  0  0  0  0  0
  185.5280  178.2860  145.5220 C   0  0  0  0  0  3  0  0  0  0  0  0
  184.2220  178.7440  145.7050 C   0  0  0  0  0  3  0  0  0  0  0  0
  184.0130  179.0860  143.3190 C   0  0  0  0  0  3  0  0  0  0  0  0
  186.0760  178.2310  144.2370 C   0  0  0  0  0  3  0  0  0  0  0  0
  189.0510  179.0110  138.0320 C   0  0  0  0  0  2  0  0  0  0  0  0
  188.6690  178.1100  138.9280 C   0  0  0  0  0  0  0  0  0  0  0  0
  189.5770  176.9450  139.1930 C   0  0  0  0  0  2  0  0  0  0  0  0
  191.9810  176.7190  139.2710 O   0  0  0  0  0  1  0  0  0  0  0  0
  190.8870  177.3270  139.8890 C   0  0  2  0  0  3  0  0  0  0  0  0
  191.5210  177.7670  143.6960 C   0  0  0  0  0  0  0  0  0  0  0  0
  190.3880  175.9350  141.7530 O   0  0  0  0  0  0  0  0  0  0  0  0
  192.0340  178.6630  144.4150 O   0  0  0  0  0  1  0  0  0  0  0  0
  191.0550  176.5990  144.2880 O   0  0  0  0  0  0  0  0  0  0  0  0
  190.8680  177.0300  141.3560 C   0  0  0  0  0  0  0  0  0  0  0  0
  191.4290  177.9670  142.2830 N   0  0  0  0  0  2  0  0  0  0  0  0
  185.5640  177.4150  137.2740 C   0  0  0  0  0  1  0  0  0  0  0  0
  185.6830  178.5580  138.1080 O   0  0  0  0  0  0  0  0  0  0  0  0
  1  5  2  0  0  0  0
  2  3  1  0  0  0  0
  3  5  1  0  0  0  0
  4  2  2  0  0  0  0
  4  1  1  0  0  0  0
  5 14  1  0  0  0  0
  6  1  1  6  0  0  0
  8  7  1  0  0  0  0
  8  6  1  0  0  0  0
  9  7  1  0  0  0  0
  9 12  1  0  0  0  0
 11  6  1  0  0  0  0
 12 10  2  0  0  0  0
 12 11  1  0  0  0  0
 13 16  1  0  0  0  0
 14 17  1  0  0  0  0
 14 18  2  0  0  0  0
 15 16  2  0  0  0  0
 17 13  2  0  0  0  0
 18 15  1  0  0  0  0
 19 20  2  0  0  0  0
 20 21  1  0  0  0  0
 20  2  1  0  0  0  0
 21 23  1  0  0  0  0
 23 22  1  6  0  0  0
 23 28  1  0  0  0  0
 24 27  2  0  0  0  0
 24 26  1  0  0  0  0
 28 25  2  0  0  0  0
 28 29  1  0  0  0  0
 29 24  1  0  0  0  0
 30 31  1  0  0  0  0
 31  4  1  0  0  0  0
M  END
>  <MODEL>
1

>  <REMARK>
 VINA RESULT:      -8.0      0.000      0.000
  Name = 
  7 active torsions:
  status: ('A' for Active; 'I' for Inactive)
    1  A    between atoms: C_4  and  C_5
    2  A    between atoms: C_9  and  C_15
    3  A    between atoms: C_9  and  C_23
    4  A    between atoms: C_12  and  C_27
    5  A    between atoms: C_19  and  C_22
    6  A    between atoms: C_21  and  O_29
    7  A    between atoms: C_22  and  C_23
                            x       y       z     vdW  Elec       q    Type
                         _______ _______ _______ _____ _____    ______ ____

>  <TORSDO>
F 7

$$$$
=
 OpenBabel10272400363D

 31 33  0  0  1  0  0  0  0  0999 V2000
  189.5410  176.9670  140.6720 C   0  0  0  0  0  0  0  0  0  0  0  0
  188.6140  177.5760  142.7490 C   0  0  0  0  0  0  0  0  0  0  0  0
  187.6980  178.3790  141.5900 S   0  0  0  0  0  0  0  0  0  0  0  0
  189.6090  176.8500  142.0770 C   0  0  0  0  0  0  0  0  0  0  0  0
  188.5160  177.8160  140.2300 C   0  0  0  0  0  0  0  0  0  0  0  0
  190.4950  176.2670  139.7470 C   0  0  1  0  0  3  0  0  0  0  0  0
  190.7550  174.9370  137.6710 C   0  0  0  0  0  2  0  0  0  0  0  0
  189.8030  175.8270  138.4600 C   0  0  0  0  0  2  0  0  0  0  0  0
  192.0240  175.6180  137.4340 N   0  0  0  0  0  2  0  0  0  0  0  0
  193.7630  176.9360  138.2430 O   0  0  0  0  0  0  0  0  0  0  0  0
  191.7190  177.1350  139.4570 C   0  0  0  0  0  2  0  0  0  0  0  0
  192.5750  176.5460  138.3750 C   0  0  0  0  0  0  0  0  0  0  0  0
  186.6200  178.1310  136.9490 C   0  0  0  0  0  3  0  0  0  0  0  0
  188.1580  178.1780  138.8360 C   0  0  0  0  0  0  0  0  0  0  0  0
  188.7300  179.2950  136.7490 C   0  0  0  0  0  3  0  0  0  0  0  0
  187.5160  178.8900  136.1920 C   0  0  0  0  0  3  0  0  0  0  0  0
  186.9400  177.7780  138.2630 C   0  0  0  0  0  3  0  0  0  0  0  0
  189.0490  178.9390  138.0630 C   0  0  0  0  0  3  0  0  0  0  0  0
  189.1280  178.0340  145.0750 C   0  0  0  0  0  2  0  0  0  0  0  0
  188.2750  177.5420  144.1850 C   0  0  0  0  0  0  0  0  0  0  0  0
  186.8930  177.1870  144.6500 C   0  0  0  0  0  2  0  0  0  0  0  0
  186.1500  177.9940  146.8030 O   0  0  0  0  0  1  0  0  0  0  0  0
  186.2010  178.3020  145.4410 C   0  0  2  0  0  3  0  0  0  0  0  0
  183.2990  178.7390  142.8980 C   0  0  0  0  0  0  0  0  0  0  0  0
  183.9780  179.1080  145.6950 O   0  0  0  0  0  0  0  0  0  0  0  0
  183.1500  178.5120  141.6700 O   0  0  0  0  0  0  0  0  0  0  0  0
  182.2530  179.3020  143.6210 O   0  0  0  0  0  1  0  0  0  0  0  0
  184.8390  178.6230  144.9140 C   0  0  0  0  0  0  0  0  0  0  0  0
  184.5410  178.4160  143.5280 N   0  0  0  0  0  2  0  0  0  0  0  0
  191.7790  176.6590  143.2610 C   0  0  0  0  0  1  0  0  0  0  0  0
  190.6090  176.0880  142.6940 O   0  0  0  0  0  0  0  0  0  0  0  0
  1  4  1  0  0  0  0
  2 20  1  0  0  0  0
  3  2  1  0  0  0  0
  4 31  1  0  0  0  0
  4  2  2  0  0  0  0
  5  1  2  0  0  0  0
  5  3  1  0  0  0  0
  6  1  1  1  0  0  0
  7  8  1  0  0  0  0
  8  6  1  0  0  0  0
  9  7  1  0  0  0  0
  9 12  1  0  0  0  0
 10 12  2  0  0  0  0
 11  6  1  0  0  0  0
 12 11  1  0  0  0  0
 13 17  1  0  0  0  0
 14  5  1  0  0  0  0
 15 18  2  0  0  0  0
 16 15  1  0  0  0  0
 16 13  2  0  0  0  0
 17 14  2  0  0  0  0
 18 14  1  0  0  0  0
 20 21  1  0  0  0  0
 20 19  2  0  0  0  0
 21 23  1  0  0  0  0
 23 22  1  1  0  0  0
 24 29  1  0  0  0  0
 24 27  1  0  0  0  0
 26 24  2  0  0  0  0
 28 23  1  0  0  0  0
 28 25  2  0  0  0  0
 29 28  1  0  0  0  0
 31 30  1  0  0  0  0
M  END
>  <MODEL>
2

>  <REMARK>
 VINA RESULT:      -8.0      2.813      7.896
  Name = 
  7 active torsions:
  status: ('A' for Active; 'I' for Inactive)
    1  A    between atoms: C_4  and  C_5
    2  A    between atoms: C_9  and  C_15
    3  A    between atoms: C_9  and  C_23
    4  A    between atoms: C_12  and  C_27
    5  A    between atoms: C_19  and  C_22
    6  A    between atoms: C_21  and  O_29
    7  A    between atoms: C_22  and  C_23
                            x       y       z     vdW  Elec       q    Type
                         _______ _______ _______ _____ _____    ______ ____

>  <TORSDO>
F 7

$$$$
=
 OpenBabel10272400363D

 31 33  0  0  1  0  0  0  0  0999 V2000
  189.2510  177.6240  140.0260 C   0  0  0  0  0  0  0  0  0  0  0  0
  189.7920  177.4690  142.3130 C   0  0  0  0  0  0  0  0  0  0  0  0
  190.9580  176.5640  141.5090 S   0  0  0  0  0  0  0  0  0  0  0  0
  188.9060  177.9750  141.3500 C   0  0  0  0  0  0  0  0  0  0  0  0
  190.3880  176.8070  139.9430 C   0  0  0  0  0  0  0  0  0  0  0  0
  188.4560  178.0640  138.8310 C   0  0  1  0  0  3  0  0  0  0  0  0
  188.4790  179.2850  136.6730 C   0  0  0  0  0  2  0  0  0  0  0  0
  189.3550  178.6600  137.7510 C   0  0  0  0  0  2  0  0  0  0  0  0
  187.5260  178.3100  136.1510 N   0  0  0  0  0  2  0  0  0  0  0  0
  185.9950  176.6040  136.5500 O   0  0  0  0  0  0  0  0  0  0  0  0
  187.6040  176.9190  138.2830 C   0  0  0  0  0  2  0  0  0  0  0  0
  186.9710  177.2760  136.9710 C   0  0  0  0  0  0  0  0  0  0  0  0
  191.0300  174.7160  136.8330 C   0  0  0  0  0  3  0  0  0  0  0  0
  191.0290  176.2430  138.7290 C   0  0  0  0  0  0  0  0  0  0  0  0
  192.9010  176.2090  137.1730 C   0  0  0  0  0  3  0  0  0  0  0  0
  192.2760  175.2050  136.4320 C   0  0  0  0  0  3  0  0  0  0  0  0
  190.4120  175.2330  137.9740 C   0  0  0  0  0  3  0  0  0  0  0  0
  192.2810  176.7240  138.3150 C   0  0  0  0  0  3  0  0  0  0  0  0
  190.4290  178.9000  144.1650 C   0  0  0  0  0  2  0  0  0  0  0  0
  189.8450  177.7810  143.7550 C   0  0  0  0  0  0  0  0  0  0  0  0
  189.0490  176.9910  144.7520 C   0  0  0  0  0  2  0  0  0  0  0  0
  189.6320  176.8590  147.0930 O   0  0  0  0  0  1  0  0  0  0  0  0
  188.9760  177.6390  146.1380 C   0  0  2  0  0  3  0  0  0  0  0  0
  185.2260  178.6130  145.8660 C   0  0  0  0  0  0  0  0  0  0  0  0
  187.2890  177.9330  147.7900 O   0  0  0  0  0  0  0  0  0  0  0  0
  184.4410  178.8740  144.9190 O   0  0  0  0  0  0  0  0  0  0  0  0
  184.7620  178.6770  147.1750 O   0  0  0  0  0  1  0  0  0  0  0  0
  187.5720  177.9350  146.5620 C   0  0  0  0  0  0  0  0  0  0  0  0
  186.5800  178.2560  145.5790 N   0  0  0  0  0  2  0  0  0  0  0  0
  186.5460  178.1730  142.0830 C   0  0  0  0  0  1  0  0  0  0  0  0
  187.7640  178.7380  141.6230 O   0  0  0  0  0  0  0  0  0  0  0  0
  1  4  1  0  0  0  0
  2 20  1  0  0  0  0
  3  2  1  0  0  0  0
  4 31  1  0  0  0  0
  4  2  2  0  0  0  0
  5  1  2  0  0  0  0
  5  3  1  0  0  0  0
  6  1  1  1  0  0  0
  7  8  1  0  0  0  0
  8  6  1  0  0  0  0
  9  7  1  0  0  0  0
  9 12  1  0  0  0  0
 10 12  2  0  0  0  0
 11  6  1  0  0  0  0
 12 11  1  0  0  0  0
 13 17  1  0  0  0  0
 14  5  1  0  0  0  0
 15 18  2  0  0  0  0
 16 13  2  0  0  0  0
 16 15  1  0  0  0  0
 17 14  2  0  0  0  0
 18 14  1  0  0  0  0
 20 19  2  0  0  0  0
 20 21  1  0  0  0  0
 21 23  1  0  0  0  0
 23 28  1  0  0  0  0
 23 22  1  1  0  0  0
 24 27  1  0  0  0  0
 26 24  2  0  0  0  0
 28 25  2  0  0  0  0
 29 24  1  0  0  0  0
 29 28  1  0  0  0  0
 31 30  1  0  0  0  0
M  END
>  <MODEL>
3

>  <REMARK>
 VINA RESULT:      -7.9      3.413      6.985
  Name = 
  7 active torsions:
  status: ('A' for Active; 'I' for Inactive)
    1  A    between atoms: C_4  and  C_5
    2  A    between atoms: C_9  and  C_15
    3  A    between atoms: C_9  and  C_23
    4  A    between atoms: C_12  and  C_27
    5  A    between atoms: C_19  and  C_22
    6  A    between atoms: C_21  and  O_29
    7  A    between atoms: C_22  and  C_23
                            x       y       z     vdW  Elec       q    Type
                         _______ _______ _______ _____ _____    ______ ____

>  <TORSDO>
F 7

$$$$
=
 OpenBabel10272400363D

 31 33  0  0  1  0  0  0  0  0999 V2000
  188.3920  177.9850  141.7720 C   0  0  0  0  0  0  0  0  0  0  0  0
  187.8420  178.1360  139.4870 C   0  0  0  0  0  0  0  0  0  0  0  0
  186.4090  178.4190  140.3180 S   0  0  0  0  0  0  0  0  0  0  0  0
  188.8440  177.8920  140.4380 C   0  0  0  0  0  0  0  0  0  0  0  0
  187.0210  178.2640  141.8790 C   0  0  0  0  0  0  0  0  0  0  0  0
  189.2910  177.7780  142.9560 C   0  0  1  0  0  3  0  0  0  0  0  0
  190.5770  176.1470  144.3110 C   0  0  0  0  0  2  0  0  0  0  0  0
  189.8620  176.3620  142.9840 C   0  0  0  0  0  2  0  0  0  0  0  0
  191.5900  177.1760  144.5250 N   0  0  0  0  0  2  0  0  0  0  0  0
  192.2080  179.4180  144.4380 O   0  0  0  0  0  0  0  0  0  0  0  0
  190.4010  178.8290  142.9960 C   0  0  0  0  0  2  0  0  0  0  0  0
  191.4270  178.5150  144.0430 C   0  0  0  0  0  0  0  0  0  0  0  0
  185.8060  177.9820  145.4710 C   0  0  0  0  0  3  0  0  0  0  0  0
  186.2080  178.4220  143.1110 C   0  0  0  0  0  0  0  0  0  0  0  0
  184.2540  179.3540  144.2240 C   0  0  0  0  0  3  0  0  0  0  0  0
  184.6400  178.7490  145.4220 C   0  0  0  0  0  3  0  0  0  0  0  0
  186.5840  177.8200  144.3210 C   0  0  0  0  0  3  0  0  0  0  0  0
  185.0330  179.1890  143.0750 C   0  0  0  0  0  3  0  0  0  0  0  0
  188.8860  179.1550  137.5490 C   0  0  0  0  0  2  0  0  0  0  0  0
  187.9910  178.2990  138.0280 C   0  0  0  0  0  0  0  0  0  0  0  0
  187.3300  177.3530  137.0670 C   0  0  0  0  0  2  0  0  0  0  0  0
  188.2750  176.7010  134.9410 O   0  0  0  0  0  1  0  0  0  0  0  0
  188.3130  176.4500  136.3150 C   0  0  2  0  0  3  0  0  0  0  0  0
  186.5110  173.1990  137.4410 C   0  0  0  0  0  0  0  0  0  0  0  0
  189.0490  174.1920  136.4460 O   0  0  0  0  0  0  0  0  0  0  0  0
  185.3560  172.9180  137.8510 O   0  0  0  0  0  1  0  0  0  0  0  0
  187.4670  172.1930  137.3480 O   0  0  0  0  0  0  0  0  0  0  0  0
  188.0930  174.9980  136.6000 C   0  0  0  0  0  0  0  0  0  0  0  0
  186.8210  174.5470  137.0800 N   0  0  0  0  0  2  0  0  0  0  0  0
  190.5400  176.4110  139.3990 C   0  0  0  0  0  1  0  0  0  0  0  0
  190.1730  177.5620  140.1450 O   0  0  0  0  0  0  0  0  0  0  0  0
  1  5  2  0  0  0  0
  2  3  1  0  0  0  0
  2  4  2  0  0  0  0
  3  5  1  0  0  0  0
  4  1  1  0  0  0  0
  5 14  1  0  0  0  0
  6  1  1  6  0  0  0
  6  8  1  0  0  0  0
  6 11  1  0  0  0  0
  7  9  1  0  0  0  0
  8  7  1  0  0  0  0
 11 12  1  0  0  0  0
 12 10  2  0  0  0  0
 12  9  1  0  0  0  0
 14 17  1  0  0  0  0
 15 16  2  0  0  0  0
 16 13  1  0  0  0  0
 17 13  2  0  0  0  0
 18 14  2  0  0  0  0
 18 15  1  0  0  0  0
 19 20  2  0  0  0  0
 20  2  1  0  0  0  0
 21 20  1  0  0  0  0
 23 22  1  6  0  0  0
 23 28  1  0  0  0  0
 23 21  1  0  0  0  0
 24 26  1  0  0  0  0
 25 28  2  0  0  0  0
 27 24  2  0  0  0  0
 28 29  1  0  0  0  0
 29 24  1  0  0  0  0
 30 31  1  0  0  0  0
 31  4  1  0  0  0  0
M  END
>  <MODEL>
4

>  <REMARK>
 VINA RESULT:      -7.6      2.893      6.411
  Name = 
  7 active torsions:
  status: ('A' for Active; 'I' for Inactive)
    1  A    between atoms: C_4  and  C_5
    2  A    between atoms: C_9  and  C_15
    3  A    between atoms: C_9  and  C_23
    4  A    between atoms: C_12  and  C_27
    5  A    between atoms: C_19  and  C_22
    6  A    between atoms: C_21  and  O_29
    7  A    between atoms: C_22  and  C_23
                            x       y       z     vdW  Elec       q    Type
                         _______ _______ _______ _____ _____    ______ ____

>  <TORSDO>
F 7

$$$$
=
 OpenBabel10272400363D

 31 33  0  0  1  0  0  0  0  0999 V2000
  188.4960  177.8720  141.4300 C   0  0  0  0  0  0  0  0  0  0  0  0
  187.9680  178.1040  139.1470 C   0  0  0  0  0  0  0  0  0  0  0  0
  186.5400  178.4160  139.9770 S   0  0  0  0  0  0  0  0  0  0  0  0
  188.9540  177.7990  140.0970 C   0  0  0  0  0  0  0  0  0  0  0  0
  187.1350  178.1970  141.5370 C   0  0  0  0  0  0  0  0  0  0  0  0
  189.3790  177.6010  142.6140 C   0  0  1  0  0  3  0  0  0  0  0  0
  190.7580  175.9310  143.8210 C   0  0  0  0  0  2  0  0  0  0  0  0
  190.0610  176.2400  142.5020 C   0  0  0  0  0  2  0  0  0  0  0  0
  191.6780  177.0040  144.1840 N   0  0  0  0  0  2  0  0  0  0  0  0
  192.1140  179.2820  144.3700 O   0  0  0  0  0  0  0  0  0  0  0  0
  190.3980  178.7240  142.8100 C   0  0  0  0  0  2  0  0  0  0  0  0
  191.4200  178.3720  143.8490 C   0  0  0  0  0  0  0  0  0  0  0  0
  185.8930  177.8730  145.1160 C   0  0  0  0  0  3  0  0  0  0  0  0
  186.3190  178.3500  142.7670 C   0  0  0  0  0  0  0  0  0  0  0  0
  184.3830  179.3100  143.8890 C   0  0  0  0  0  3  0  0  0  0  0  0
  184.7470  178.6710  145.0760 C   0  0  0  0  0  3  0  0  0  0  0  0
  186.6730  177.7150  143.9670 C   0  0  0  0  0  3  0  0  0  0  0  0
  185.1640  179.1480  142.7410 C   0  0  0  0  0  3  0  0  0  0  0  0
  189.0090  179.1920  137.2450 C   0  0  0  0  0  2  0  0  0  0  0  0
  188.1330  178.3010  137.6940 C   0  0  0  0  0  0  0  0  0  0  0  0
  187.5140  177.3560  136.7050 C   0  0  0  0  0  2  0  0  0  0  0  0
  188.2150  175.0580  136.4460 O   0  0  0  0  0  1  0  0  0  0  0  0
  187.4150  175.9130  137.2080 C   0  0  2  0  0  3  0  0  0  0  0  0
  184.4420  173.4190  137.3710 C   0  0  0  0  0  0  0  0  0  0  0  0
  185.0590  176.2470  137.1760 O   0  0  0  0  0  0  0  0  0  0  0  0
  184.3320  172.1700  137.4720 O   0  0  0  0  0  1  0  0  0  0  0  0
  183.2960  174.1980  137.2610 O   0  0  0  0  0  0  0  0  0  0  0  0
  186.0040  175.4180  137.2630 C   0  0  0  0  0  0  0  0  0  0  0  0
  185.7420  174.0130  137.3700 N   0  0  0  0  0  2  0  0  0  0  0  0
  190.6030  176.2940  139.0180 C   0  0  0  0  0  1  0  0  0  0  0  0
  190.2730  177.4290  139.8030 O   0  0  0  0  0  0  0  0  0  0  0  0
  1  5  2  0  0  0  0
  2  3  1  0  0  0  0
  2  4  2  0  0  0  0
  3  5  1  0  0  0  0
  4  1  1  0  0  0  0
  5 14  1  0  0  0  0
  6  1  1  6  0  0  0
  6 11  1  0  0  0  0
  7  9  1  0  0  0  0
  8  6  1  0  0  0  0
  8  7  1  0  0  0  0
 11 12  1  0  0  0  0
 12  9  1  0  0  0  0
 12 10  2  0  0  0  0
 14 17  1  0  0  0  0
 15 16  2  0  0  0  0
 16 13  1  0  0  0  0
 17 13  2  0  0  0  0
 18 14  2  0  0  0  0
 18 15  1  0  0  0  0
 19 20  2  0  0  0  0
 20  2  1  0  0  0  0
 21 23  1  0  0  0  0
 21 20  1  0  0  0  0
 23 22  1  6  0  0  0
 23 28  1  0  0  0  0
 24 26  1  0  0  0  0
 25 28  2  0  0  0  0
 27 24  2  0  0  0  0
 28 29  1  0  0  0  0
 29 24  1  0  0  0  0
 30 31  1  0  0  0  0
 31  4  1  0  0  0  0
M  END
>  <MODEL>
5

>  <REMARK>
 VINA RESULT:      -7.5      2.577      6.695
  Name = 
  7 active torsions:
  status: ('A' for Active; 'I' for Inactive)
    1  A    between atoms: C_4  and  C_5
    2  A    between atoms: C_9  and  C_15
    3  A    between atoms: C_9  and  C_23
    4  A    between atoms: C_12  and  C_27
    5  A    between atoms: C_19  and  C_22
    6  A    between atoms: C_21  and  O_29
    7  A    between atoms: C_22  and  C_23
                            x       y       z     vdW  Elec       q    Type
                         _______ _______ _______ _____ _____    ______ ____

>  <TORSDO>
F 7

$$$$
=
 OpenBabel10272400363D

 31 33  0  0  1  0  0  0  0  0999 V2000
  185.5690  178.5270  140.5140 C   0  0  0  0  0  0  0  0  0  0  0  0
  187.8000  178.3000  139.7950 C   0  0  0  0  0  0  0  0  0  0  0  0
  187.8650  178.3280  141.4750 S   0  0  0  0  0  0  0  0  0  0  0  0
  186.4560  178.4410  139.4190 C   0  0  0  0  0  0  0  0  0  0  0  0
  186.2140  178.4940  141.7600 C   0  0  0  0  0  0  0  0  0  0  0  0
  184.0830  178.6670  140.3530 C   0  0  1  0  0  3  0  0  0  0  0  0
  182.2330  179.9000  139.2550 C   0  0  0  0  0  2  0  0  0  0  0  0
  183.7320  179.6300  139.2220 C   0  0  0  0  0  2  0  0  0  0  0  0
  181.4810  178.6500  139.1960 N   0  0  0  0  0  2  0  0  0  0  0  0
  181.2050  176.4510  139.9060 O   0  0  0  0  0  0  0  0  0  0  0  0
  183.4190  177.3040  140.1550 C   0  0  0  0  0  2  0  0  0  0  0  0
  181.9730  177.4390  139.7820 C   0  0  0  0  0  0  0  0  0  0  0  0
  183.7980  179.2250  144.6030 C   0  0  0  0  0  3  0  0  0  0  0  0
  185.6070  178.5710  143.1130 C   0  0  0  0  0  0  0  0  0  0  0  0
  185.7410  178.0970  145.4970 C   0  0  0  0  0  3  0  0  0  0  0  0
  184.4930  178.6910  145.6910 C   0  0  0  0  0  3  0  0  0  0  0  0
  184.3530  179.1640  143.3220 C   0  0  0  0  0  3  0  0  0  0  0  0
  186.2950  178.0390  144.2140 C   0  0  0  0  0  3  0  0  0  0  0  0
  189.2310  178.7910  137.8990 C   0  0  0  0  0  2  0  0  0  0  0  0
  188.9610  178.0040  138.9330 C   0  0  0  0  0  0  0  0  0  0  0  0
  189.9840  176.9800  139.3300 C   0  0  0  0  0  2  0  0  0  0  0  0
  189.9890  175.0350  137.8950 O   0  0  0  0  0  1  0  0  0  0  0  0
  190.6250  176.2540  138.1430 C   0  0  2  0  0  3  0  0  0  0  0  0
  194.1340  174.6120  137.8630 C   0  0  0  0  0  0  0  0  0  0  0  0
  192.7480  176.8900  139.0080 O   0  0  0  0  0  0  0  0  0  0  0  0
  194.5940  173.5880  137.2950 O   0  0  0  0  0  0  0  0  0  0  0  0
  194.9810  175.4150  138.6180 O   0  0  0  0  0  1  0  0  0  0  0  0
  192.0990  176.0640  138.3120 C   0  0  0  0  0  0  0  0  0  0  0  0
  192.7470  174.9310  137.7210 N   0  0  0  0  0  2  0  0  0  0  0  0
  185.8210  177.3780  137.2710 C   0  0  0  0  0  1  0  0  0  0  0  0
  185.9890  178.5170  138.1010 O   0  0  0  0  0  0  0  0  0  0  0  0
  1  5  2  0  0  0  0
  2  3  1  0  0  0  0
  3  5  1  0  0  0  0
  4  2  2  0  0  0  0
  4  1  1  0  0  0  0
  5 14  1  0  0  0  0
  6  1  1  6  0  0  0
  8  7  1  0  0  0  0
  8  6  1  0  0  0  0
  9  7  1  0  0  0  0
  9 12  1  0  0  0  0
 11  6  1  0  0  0  0
 12 10  2  0  0  0  0
 12 11  1  0  0  0  0
 13 16  1  0  0  0  0
 14 17  1  0  0  0  0
 14 18  2  0  0  0  0
 15 16  2  0  0  0  0
 17 13  2  0  0  0  0
 18 15  1  0  0  0  0
 19 20  2  0  0  0  0
 20 21  1  0  0  0  0
 20  2  1  0  0  0  0
 23 22  1  1  0  0  0
 23 28  1  0  0  0  0
 23 21  1  0  0  0  0
 24 27  1  0  0  0  0
 26 24  2  0  0  0  0
 28 25  2  0  0  0  0
 29 24  1  0  0  0  0
 29 28  1  0  0  0  0
 30 31  1  0  0  0  0
 31  4  1  0  0  0  0
M  END
>  <MODEL>
6

>  <REMARK>
 VINA RESULT:      -7.4      2.129      2.870
  Name = 
  7 active torsions:
  status: ('A' for Active; 'I' for Inactive)
    1  A    between atoms: C_4  and  C_5
    2  A    between atoms: C_9  and  C_15
    3  A    between atoms: C_9  and  C_23
    4  A    between atoms: C_12  and  C_27
    5  A    between atoms: C_19  and  C_22
    6  A    between atoms: C_21  and  O_29
    7  A    between atoms: C_22  and  C_23
                            x       y       z     vdW  Elec       q    Type
                         _______ _______ _______ _____ _____    ______ ____

>  <TORSDO>
F 7

$$$$
=
 OpenBabel10272400363D

 31 33  0  0  1  0  0  0  0  0999 V2000
  186.6610  178.2560  142.1570 C   0  0  0  0  0  0  0  0  0  0  0  0
  188.2010  178.1500  140.3780 C   0  0  0  0  0  0  0  0  0  0  0  0
  189.0780  177.7700  141.7610 S   0  0  0  0  0  0  0  0  0  0  0  0
  186.8800  178.4120  140.7710 C   0  0  0  0  0  0  0  0  0  0  0  0
  187.8180  177.9060  142.8700 C   0  0  0  0  0  0  0  0  0  0  0  0
  185.3220  178.4690  142.8020 C   0  0  1  0  0  3  0  0  0  0  0  0
  183.9490  179.9130  144.2770 C   0  0  0  0  0  2  0  0  0  0  0  0
  185.2310  179.8440  143.4590 C   0  0  0  0  0  2  0  0  0  0  0  0
  182.7890  179.5970  143.4500 N   0  0  0  0  0  2  0  0  0  0  0  0
  181.8020  178.2530  141.8260 O   0  0  0  0  0  0  0  0  0  0  0  0
  184.1870  178.2510  141.8010 C   0  0  0  0  0  2  0  0  0  0  0  0
  182.8610  178.6640  142.3660 C   0  0  0  0  0  0  0  0  0  0  0  0
  187.0050  177.3360  146.5400 C   0  0  0  0  0  3  0  0  0  0  0  0
  187.9640  177.6700  144.3280 C   0  0  0  0  0  0  0  0  0  0  0  0
  189.4060  177.3240  146.2580 C   0  0  0  0  0  3  0  0  0  0  0  0
  188.2860  177.2180  147.0840 C   0  0  0  0  0  3  0  0  0  0  0  0
  186.8470  177.5600  145.1700 C   0  0  0  0  0  3  0  0  0  0  0  0
  189.2460  177.5510  144.8880 C   0  0  0  0  0  3  0  0  0  0  0  0
  189.0000  179.1400  138.3140 C   0  0  0  0  0  2  0  0  0  0  0  0
  188.7390  178.0400  139.0080 C   0  0  0  0  0  0  0  0  0  0  0  0
  189.2240  176.7270  138.4660 C   0  0  0  0  0  2  0  0  0  0  0  0
  189.7860  176.7590  136.1160 O   0  0  0  0  0  1  0  0  0  0  0  0
  190.3190  176.8650  137.4030 C   0  0  2  0  0  3  0  0  0  0  0  0
  193.9030  175.3730  137.2740 C   0  0  0  0  0  0  0  0  0  0  0  0
  191.1880  174.7600  138.0920 O   0  0  0  0  0  0  0  0  0  0  0  0
  195.0260  175.7870  136.8860 O   0  0  0  0  0  0  0  0  0  0  0  0
  193.7870  174.0820  137.7760 O   0  0  0  0  0  1  0  0  0  0  0  0
  191.4390  175.8920  137.6000 C   0  0  0  0  0  0  0  0  0  0  0  0
  192.7670  176.2390  137.1910 N   0  0  0  0  0  2  0  0  0  0  0  0
  185.5060  178.1180  138.7280 C   0  0  0  0  0  1  0  0  0  0  0  0
  185.8480  178.8170  139.9150 O   0  0  0  0  0  0  0  0  0  0  0  0
  1  5  2  0  0  0  0
  2  4  2  0  0  0  0
  2  3  1  0  0  0  0
  3  5  1  0  0  0  0
  4  1  1  0  0  0  0
  5 14  1  0  0  0  0
  6  1  1  6  0  0  0
  6  8  1  0  0  0  0
  8  7  1  0  0  0  0
  9  7  1  0  0  0  0
 10 12  2  0  0  0  0
 11 12  1  0  0  0  0
 11  6  1  0  0  0  0
 12  9  1  0  0  0  0
 13 16  1  0  0  0  0
 14 18  2  0  0  0  0
 14 17  1  0  0  0  0
 15 16  2  0  0  0  0
 17 13  2  0  0  0  0
 18 15  1  0  0  0  0
 19 20  2  0  0  0  0
 20  2  1  0  0  0  0
 21 20  1  0  0  0  0
 23 22  1  6  0  0  0
 23 28  1  0  0  0  0
 23 21  1  0  0  0  0
 24 27  1  0  0  0  0
 26 24  2  0  0  0  0
 28 25  2  0  0  0  0
 29 24  1  0  0  0  0
 29 28  1  0  0  0  0
 30 31  1  0  0  0  0
 31  4  1  0  0  0  0
M  END
>  <MODEL>
7

>  <REMARK>
 VINA RESULT:      -7.3      2.903      3.941
  Name = 
  7 active torsions:
  status: ('A' for Active; 'I' for Inactive)
    1  A    between atoms: C_4  and  C_5
    2  A    between atoms: C_9  and  C_15
    3  A    between atoms: C_9  and  C_23
    4  A    between atoms: C_12  and  C_27
    5  A    between atoms: C_19  and  C_22
    6  A    between atoms: C_21  and  O_29
    7  A    between atoms: C_22  and  C_23
                            x       y       z     vdW  Elec       q    Type
                         _______ _______ _______ _____ _____    ______ ____

>  <TORSDO>
F 7

$$$$
=
 OpenBabel10272400363D

 31 33  0  0  1  0  0  0  0  0999 V2000
  188.1940  178.0440  141.0740 C   0  0  0  0  0  0  0  0  0  0  0  0
  188.8000  177.6360  138.8350 C   0  0  0  0  0  0  0  0  0  0  0  0
  190.1440  177.2150  139.7530 S   0  0  0  0  0  0  0  0  0  0  0  0
  187.8100  178.0950  139.7160 C   0  0  0  0  0  0  0  0  0  0  0  0
  189.5030  177.5790  141.2670 C   0  0  0  0  0  0  0  0  0  0  0  0
  187.2910  178.4710  142.1940 C   0  0  1  0  0  3  0  0  0  0  0  0
  185.0830  179.4070  142.8240 C   0  0  0  0  0  2  0  0  0  0  0  0
  185.8810  178.7710  141.6930 C   0  0  0  0  0  2  0  0  0  0  0  0
  185.0990  178.5570  144.0100 N   0  0  0  0  0  2  0  0  0  0  0  0
  186.2910  177.1990  145.4770 O   0  0  0  0  0  0  0  0  0  0  0  0
  187.2770  177.4330  143.3170 C   0  0  0  0  0  2  0  0  0  0  0  0
  186.2260  177.7380  144.3420 C   0  0  0  0  0  0  0  0  0  0  0  0
  191.3000  178.3160  144.5360 C   0  0  0  0  0  3  0  0  0  0  0  0
  190.2380  177.4030  142.5450 C   0  0  0  0  0  0  0  0  0  0  0  0
  191.2610  175.9240  144.1850 C   0  0  0  0  0  3  0  0  0  0  0  0
  191.6260  177.0250  144.9610 C   0  0  0  0  0  3  0  0  0  0  0  0
  190.6100  178.5020  143.3350 C   0  0  0  0  0  3  0  0  0  0  0  0
  190.5720  176.1120  142.9830 C   0  0  0  0  0  3  0  0  0  0  0  0
  188.9860  178.3430  136.5220 C   0  0  0  0  0  2  0  0  0  0  0  0
  188.6830  177.3810  137.3860 C   0  0  0  0  0  0  0  0  0  0  0  0
  188.4630  175.9950  136.8550 C   0  0  0  0  0  2  0  0  0  0  0  0
  189.2140  174.3410  135.2610 O   0  0  0  0  0  1  0  0  0  0  0  0
  189.5980  175.4880  135.9600 C   0  0  2  0  0  3  0  0  0  0  0  0
  193.2860  175.9240  137.0990 C   0  0  0  0  0  0  0  0  0  0  0  0
  190.9260  174.2920  137.5310 O   0  0  0  0  0  0  0  0  0  0  0  0
  194.2160  176.7210  136.8160 O   0  0  0  0  0  0  0  0  0  0  0  0
  193.5190  174.8960  138.0060 O   0  0  0  0  0  1  0  0  0  0  0  0
  190.8670  175.2520  136.7170 C   0  0  0  0  0  0  0  0  0  0  0  0
  192.0060  176.0880  136.4820 N   0  0  0  0  0  2  0  0  0  0  0  0
  185.7510  177.9780  138.3390 C   0  0  0  0  0  1  0  0  0  0  0  0
  186.5560  178.5900  139.3360 O   0  0  0  0  0  0  0  0  0  0  0  0
  1  5  2  0  0  0  0
  2  4  2  0  0  0  0
  2  3  1  0  0  0  0
  3  5  1  0  0  0  0
  4  1  1  0  0  0  0
  5 14  1  0  0  0  0
  6  1  1  6  0  0  0
  6 11  1  0  0  0  0
  7  9  1  0  0  0  0
  8  6  1  0  0  0  0
  8  7  1  0  0  0  0
  9 12  1  0  0  0  0
 11 12  1  0  0  0  0
 12 10  2  0  0  0  0
 13 16  1  0  0  0  0
 14 18  2  0  0  0  0
 14 17  1  0  0  0  0
 15 16  2  0  0  0  0
 17 13  2  0  0  0  0
 18 15  1  0  0  0  0
 19 20  2  0  0  0  0
 20  2  1  0  0  0  0
 21 20  1  0  0  0  0
 23 22  1  1  0  0  0
 23 28  1  0  0  0  0
 23 21  1  0  0  0  0
 24 27  1  0  0  0  0
 26 24  2  0  0  0  0
 28 25  2  0  0  0  0
 29 28  1  0  0  0  0
 29 24  1  0  0  0  0
 30 31  1  0  0  0  0
 31  4  1  0  0  0  0
M  END
>  <MODEL>
8

>  <REMARK>
 VINA RESULT:      -7.2      3.171      5.175
  Name = 
  7 active torsions:
  status: ('A' for Active; 'I' for Inactive)
    1  A    between atoms: C_4  and  C_5
    2  A    between atoms: C_9  and  C_15
    3  A    between atoms: C_9  and  C_23
    4  A    between atoms: C_12  and  C_27
    5  A    between atoms: C_19  and  C_22
    6  A    between atoms: C_21  and  O_29
    7  A    between atoms: C_22  and  C_23
                            x       y       z     vdW  Elec       q    Type
                         _______ _______ _______ _____ _____    ______ ____

>  <TORSDO>
F 7

$$$$
=
 OpenBabel10272400363D

 31 33  0  0  1  0  0  0  0  0999 V2000
  187.6580  177.7130  143.7690 C   0  0  0  0  0  0  0  0  0  0  0  0
  185.5870  178.1990  142.7590 C   0  0  0  0  0  0  0  0  0  0  0  0
  185.3430  178.3950  144.4110 S   0  0  0  0  0  0  0  0  0  0  0  0
  186.9180  177.7990  142.5700 C   0  0  0  0  0  0  0  0  0  0  0  0
  186.9020  178.0060  144.9150 C   0  0  0  0  0  0  0  0  0  0  0  0
  189.1060  177.3190  143.8100 C   0  0  1  0  0  3  0  0  0  0  0  0
  190.8460  175.7640  142.9710 C   0  0  0  0  0  2  0  0  0  0  0  0
  189.4330  176.2830  142.7370 C   0  0  0  0  0  2  0  0  0  0  0  0
  191.8020  176.8660  143.0120 N   0  0  0  0  0  2  0  0  0  0  0  0
  192.3540  179.0030  143.7500 O   0  0  0  0  0  0  0  0  0  0  0  0
  190.0140  178.5440  143.7000 C   0  0  0  0  0  2  0  0  0  0  0  0
  191.4520  178.1570  143.5250 C   0  0  0  0  0  0  0  0  0  0  0  0
  188.8530  177.2760  148.0960 C   0  0  0  0  0  3  0  0  0  0  0  0
  187.3420  178.0070  146.3320 C   0  0  0  0  0  0  0  0  0  0  0  0
  187.0380  178.7860  148.6180 C   0  0  0  0  0  3  0  0  0  0  0  0
  188.1450  178.0390  149.0270 C   0  0  0  0  0  3  0  0  0  0  0  0
  188.4530  177.2610  146.7570 C   0  0  0  0  0  3  0  0  0  0  0  0
  186.6390  178.7680  147.2790 C   0  0  0  0  0  3  0  0  0  0  0  0
  183.2970  178.4130  141.9890 C   0  0  0  0  0  2  0  0  0  0  0  0
  184.5910  178.5640  141.7330 C   0  0  0  0  0  0  0  0  0  0  0  0
  184.9860  179.3230  140.5000 C   0  0  0  0  0  2  0  0  0  0  0  0
  185.6950  178.7900  138.2530 O   0  0  0  0  0  1  0  0  0  0  0  0
  184.6850  178.5810  139.1940 C   0  0  2  0  0  3  0  0  0  0  0  0
  181.5170  180.6770  138.3840 C   0  0  0  0  0  0  0  0  0  0  0  0
  182.6900  178.0490  138.0110 O   0  0  0  0  0  0  0  0  0  0  0  0
  181.1480  181.8570  138.6140 O   0  0  0  0  0  1  0  0  0  0  0  0
  180.6630  179.8130  137.7070 O   0  0  0  0  0  0  0  0  0  0  0  0
  183.3450  178.9320  138.6280 C   0  0  0  0  0  0  0  0  0  0  0  0
  182.8070  180.2440  138.8260 N   0  0  0  0  0  2  0  0  0  0  0  0
  188.2330  178.4190  140.5610 C   0  0  0  0  0  1  0  0  0  0  0  0
  187.4990  177.4830  141.3360 O   0  0  0  0  0  0  0  0  0  0  0  0
  1  5  2  0  0  0  0
  2  3  1  0  0  0  0
  3  5  1  0  0  0  0
  4  2  2  0  0  0  0
  4  1  1  0  0  0  0
  5 14  1  0  0  0  0
  6  1  1  6  0  0  0
  7  9  1  0  0  0  0
  8  7  1  0  0  0  0
  8  6  1  0  0  0  0
  9 12  1  0  0  0  0
 11  6  1  0  0  0  0
 12 11  1  0  0  0  0
 12 10  2  0  0  0  0
 13 16  1  0  0  0  0
 14 17  1  0  0  0  0
 14 18  2  0  0  0  0
 15 16  2  0  0  0  0
 17 13  2  0  0  0  0
 18 15  1  0  0  0  0
 20 19  2  0  0  0  0
 20  2  1  0  0  0  0
 21 20  1  0  0  0  0
 23 22  1  6  0  0  0
 23 21  1  0  0  0  0
 24 26  1  0  0  0  0
 24 29  1  0  0  0  0
 25 28  2  0  0  0  0
 27 24  2  0  0  0  0
 28 29  1  0  0  0  0
 28 23  1  0  0  0  0
 30 31  1  0  0  0  0
 31  4  1  0  0  0  0
M  END
>  <MODEL>
9

>  <REMARK>
 VINA RESULT:      -7.1      2.505      7.605
  Name = 
  7 active torsions:
  status: ('A' for Active; 'I' for Inactive)
    1  A    between atoms: C_4  and  C_5
    2  A    between atoms: C_9  and  C_15
    3  A    between atoms: C_9  and  C_23
    4  A    between atoms: C_12  and  C_27
    5  A    between atoms: C_19  and  C_22
    6  A    between atoms: C_21  and  O_29
    7  A    between atoms: C_22  and  C_23
                            x       y       z     vdW  Elec       q    Type
                         _______ _______ _______ _____ _____    ______ ____

>  <TORSDO>
F 7

$$$$
