=
 OpenBabel10272400593D

 27 30  0  0  1  0  0  0  0  0999 V2000
  189.6130  176.7000  143.6340 N   0  0  0  0  0  0  0  0  0  0  0  0
  190.3610  176.9280  142.4180 C   0  0  0  0  0  0  0  0  0  0  0  0
  191.6380  177.5180  142.4710 C   0  0  0  0  0  3  0  0  0  0  0  0
  190.5620  176.7980  139.9910 C   0  0  0  0  0  0  0  0  0  0  0  0
  191.8360  177.3820  140.0680 C   0  0  0  0  0  3  0  0  0  0  0  0
  189.8380  176.5700  141.1630 C   0  0  0  0  0  3  0  0  0  0  0  0
  192.3690  177.7480  141.3050 C   0  0  0  0  0  3  0  0  0  0  0  0
  190.0190  176.2960  138.6880 C   0  0  2  0  0  3  0  0  0  0  0  0
  190.7970  175.1480  138.2530 N   0  0  0  0  0  1  0  0  0  0  0  0
  189.5050  176.8550  136.4240 O   0  0  0  0  0  0  0  0  0  0  0  0
  188.6760  177.7080  137.1750 C   0  0  0  0  0  2  0  0  0  0  0  0
  190.0510  177.3740  137.6120 C   0  0  1  0  0  3  0  0  0  0  0  0
  191.4130  176.5950  147.4830 C   0  0  0  0  0  3  0  0  0  0  0  0
  190.2310  176.6970  144.9390 C   0  0  0  0  0  0  0  0  0  0  0  0
  189.5850  177.2740  146.0450 C   0  0  0  0  0  3  0  0  0  0  0  0
  190.1760  177.2240  147.3110 C   0  0  0  0  0  3  0  0  0  0  0  0
  192.0560  176.0070  146.3910 C   0  0  0  0  0  3  0  0  0  0  0  0
  191.4660  176.0560  145.1240 C   0  0  0  0  0  3  0  0  0  0  0  0
  188.1850  176.3830  143.5550 C   0  0  0  0  0  2  0  0  0  0  0  0
  187.2950  178.8170  141.3230 Cl  0  0  0  0  0  0  0  0  0  0  0  0
  184.7990  178.9700  144.1740 C   0  0  0  0  0  3  0  0  0  0  0  0
  185.6730  178.6330  145.3460 C   0  0  1  0  0  3  0  0  0  0  0  0
  187.3270  177.6200  143.7870 C   0  0  2  0  0  3  0  0  0  0  0  0
  185.1510  178.6590  142.9170 C   0  0  0  0  0  3  0  0  0  0  0  0
  184.6700  178.3600  146.7860 Cl  0  0  0  0  0  0  0  0  0  0  0  0
  186.5130  177.3980  145.0600 C   0  0  0  0  0  2  0  0  0  0  0  0
  186.4120  177.9030  142.5750 C   0  0  1  0  0  3  0  0  0  0  0  0
  1 14  1  0  0  0  0
  2  3  1  0  0  0  0
  2  1  1  0  0  0  0
  4  5  2  0  0  0  0
  4  6  1  0  0  0  0
  5  7  1  0  0  0  0
  6  2  2  0  0  0  0
  7  3  2  0  0  0  0
  8  9  1  6  0  0  0
  8  4  1  0  0  0  0
 10 11  1  0  0  0  0
 10 12  1  0  0  0  0
 11 12  1  0  0  0  0
 12  8  1  1  0  0  0
 14 18  2  0  0  0  0
 14 15  1  0  0  0  0
 15 16  2  0  0  0  0
 16 13  1  0  0  0  0
 17 13  2  0  0  0  0
 18 17  1  0  0  0  0
 19  1  1  0  0  0  0
 21 22  1  0  0  0  0
 22 25  1  1  0  0  0
 23 19  1  6  0  0  0
 23 26  1  0  0  0  0
 24 21  2  0  0  0  0
 26 22  1  0  0  0  0
 27 20  1  6  0  0  0
 27 24  1  0  0  0  0
 27 23  1  0  0  0  0
M  END
>  <MODEL>
1

>  <REMARK>
 VINA RESULT:      -8.7      0.000      0.000
  Name = 
  6 active torsions:
  status: ('A' for Active; 'I' for Inactive)
    1  A    between atoms: C_1  and  N_15
    2  A    between atoms: C_1  and  C_18
    3  A    between atoms: C_2  and  N_15
    4  A    between atoms: C_8  and  C_14
    5  A    between atoms: C_8  and  C_16
    6  A    between atoms: C_9  and  N_15
                            x       y       z     vdW  Elec       q    Type
                         _______ _______ _______ _____ _____    ______ ____

>  <TORSDO>
F 6

$$$$
=
 OpenBabel10272400593D

 27 30  0  0  1  0  0  0  0  0999 V2000
  186.6610  177.4420  143.8880 N   0  0  0  0  0  0  0  0  0  0  0  0
  185.4100  178.0110  143.4380 C   0  0  0  0  0  0  0  0  0  0  0  0
  184.4880  178.5220  144.3710 C   0  0  0  0  0  3  0  0  0  0  0  0
  183.8730  178.6140  141.6430 C   0  0  0  0  0  0  0  0  0  0  0  0
  182.9720  179.1220  142.5890 C   0  0  0  0  0  3  0  0  0  0  0  0
  185.0860  178.0690  142.0720 C   0  0  0  0  0  3  0  0  0  0  0  0
  183.2750  179.0690  143.9510 C   0  0  0  0  0  3  0  0  0  0  0  0
  183.6190  178.7620  140.1740 C   0  0  2  0  0  3  0  0  0  0  0  0
  184.5420  179.7400  139.6220 N   0  0  0  0  0  1  0  0  0  0  0  0
  182.0250  179.3810  138.5080 O   0  0  0  0  0  0  0  0  0  0  0  0
  181.5000  178.1910  139.0440 C   0  0  0  0  0  2  0  0  0  0  0  0
  182.1860  179.1940  139.8920 C   0  0  1  0  0  3  0  0  0  0  0  0
  190.1200  177.1090  141.4400 C   0  0  0  0  0  3  0  0  0  0  0  0
  187.8160  177.3240  143.0300 C   0  0  0  0  0  0  0  0  0  0  0  0
  188.1610  178.3520  142.1380 C   0  0  0  0  0  3  0  0  0  0  0  0
  189.3080  178.2430  141.3440 C   0  0  0  0  0  3  0  0  0  0  0  0
  189.7910  176.0870  142.3350 C   0  0  0  0  0  3  0  0  0  0  0  0
  188.6450  176.1960  143.1290 C   0  0  0  0  0  3  0  0  0  0  0  0
  186.7570  176.8920  145.2420 C   0  0  0  0  0  2  0  0  0  0  0  0
  186.0060  179.5650  147.2390 Cl  0  0  0  0  0  0  0  0  0  0  0  0
  189.3030  178.1590  148.4760 C   0  0  0  0  0  3  0  0  0  0  0  0
  189.9370  177.7230  147.1870 C   0  0  1  0  0  3  0  0  0  0  0  0
  187.6920  177.7200  146.1150 C   0  0  2  0  0  3  0  0  0  0  0  0
  187.9810  178.3570  148.5820 C   0  0  0  0  0  3  0  0  0  0  0  0
  191.3910  176.7620  147.5260 Cl  0  0  0  0  0  0  0  0  0  0  0  0
  188.9620  176.9070  146.3510 C   0  0  0  0  0  2  0  0  0  0  0  0
  187.0150  178.1080  147.4490 C   0  0  1  0  0  3  0  0  0  0  0  0
  1 19  1  0  0  0  0
  2  1  1  0  0  0  0
  2  3  1  0  0  0  0
  4  6  1  0  0  0  0
  4  5  2  0  0  0  0
  5  7  1  0  0  0  0
  6  2  2  0  0  0  0
  7  3  2  0  0  0  0
  8  9  1  1  0  0  0
  8  4  1  0  0  0  0
 10 11  1  0  0  0  0
 10 12  1  0  0  0  0
 11 12  1  0  0  0  0
 12  8  1  6  0  0  0
 13 17  1  0  0  0  0
 14 18  1  0  0  0  0
 14  1  1  0  0  0  0
 15 14  2  0  0  0  0
 16 13  2  0  0  0  0
 16 15  1  0  0  0  0
 17 18  2  0  0  0  0
 21 24  2  0  0  0  0
 22 25  1  1  0  0  0
 22 21  1  0  0  0  0
 23 19  1  6  0  0  0
 23 26  1  0  0  0  0
 23 27  1  0  0  0  0
 26 22  1  0  0  0  0
 27 20  1  6  0  0  0
 27 24  1  0  0  0  0
M  END
>  <MODEL>
2

>  <REMARK>
 VINA RESULT:      -8.6      3.213      6.144
  Name = 
  6 active torsions:
  status: ('A' for Active; 'I' for Inactive)
    1  A    between atoms: C_1  and  N_15
    2  A    between atoms: C_1  and  C_18
    3  A    between atoms: C_2  and  N_15
    4  A    between atoms: C_8  and  C_14
    5  A    between atoms: C_8  and  C_16
    6  A    between atoms: C_9  and  N_15
                            x       y       z     vdW  Elec       q    Type
                         _______ _______ _______ _____ _____    ______ ____

>  <TORSDO>
F 6

$$$$
=
 OpenBabel10272400593D

 27 30  0  0  1  0  0  0  0  0999 V2000
  189.5170  177.9710  142.3570 N   0  0  0  0  0  0  0  0  0  0  0  0
  190.3000  177.5160  141.2290 C   0  0  0  0  0  0  0  0  0  0  0  0
  191.6980  177.6820  141.2240 C   0  0  0  0  0  3  0  0  0  0  0  0
  190.4530  176.4680  139.0330 C   0  0  0  0  0  0  0  0  0  0  0  0
  191.8450  176.6390  139.0510 C   0  0  0  0  0  3  0  0  0  0  0  0
  189.6930  176.9010  140.1210 C   0  0  0  0  0  3  0  0  0  0  0  0
  192.4650  177.2510  140.1420 C   0  0  0  0  0  3  0  0  0  0  0  0
  189.7810  175.7140  137.9260 C   0  0  2  0  0  3  0  0  0  0  0  0
  190.4910  174.4680  137.6930 N   0  0  0  0  0  1  0  0  0  0  0  0
  189.0830  175.7750  135.6440 O   0  0  0  0  0  0  0  0  0  0  0  0
  188.3320  176.7990  136.2490 C   0  0  0  0  0  2  0  0  0  0  0  0
  189.7350  176.5260  136.6390 C   0  0  1  0  0  3  0  0  0  0  0  0
  185.2770  178.2670  142.2980 C   0  0  0  0  0  3  0  0  0  0  0  0
  188.0750  178.0400  142.3270 C   0  0  0  0  0  0  0  0  0  0  0  0
  187.3020  177.4160  143.3200 C   0  0  0  0  0  3  0  0  0  0  0  0
  185.9080  177.5280  143.3030 C   0  0  0  0  0  3  0  0  0  0  0  0
  186.0400  178.9030  141.3140 C   0  0  0  0  0  3  0  0  0  0  0  0
  187.4330  178.7910  141.3300 C   0  0  0  0  0  3  0  0  0  0  0  0
  190.1990  178.4570  143.5590 C   0  0  0  0  0  2  0  0  0  0  0  0
  191.8810  175.4970  143.8900 Cl  0  0  0  0  0  0  0  0  0  0  0  0
  190.7240  176.5020  147.3590 C   0  0  0  0  0  3  0  0  0  0  0  0
  189.4010  177.1390  147.0530 C   0  0  1  0  0  3  0  0  0  0  0  0
  190.1230  177.4400  144.6910 C   0  0  2  0  0  3  0  0  0  0  0  0
  191.6690  176.3470  146.4190 C   0  0  0  0  0  3  0  0  0  0  0  0
  188.7760  177.9540  148.5020 Cl  0  0  0  0  0  0  0  0  0  0  0  0
  189.5300  178.1380  145.9130 C   0  0  0  0  0  2  0  0  0  0  0  0
  191.5140  176.8440  145.0020 C   0  0  1  0  0  3  0  0  0  0  0  0
  1 19  1  0  0  0  0
  2  1  1  0  0  0  0
  3  2  1  0  0  0  0
  4  5  2  0  0  0  0
  4  6  1  0  0  0  0
  5  7  1  0  0  0  0
  6  2  2  0  0  0  0
  7  3  2  0  0  0  0
  8  9  1  6  0  0  0
  8  4  1  0  0  0  0
 10 11  1  0  0  0  0
 10 12  1  0  0  0  0
 11 12  1  0  0  0  0
 12  8  1  1  0  0  0
 13 16  1  0  0  0  0
 14  1  1  0  0  0  0
 14 15  1  0  0  0  0
 16 15  2  0  0  0  0
 17 18  1  0  0  0  0
 17 13  2  0  0  0  0
 18 14  2  0  0  0  0
 22 21  1  0  0  0  0
 22 25  1  1  0  0  0
 23 19  1  6  0  0  0
 23 27  1  0  0  0  0
 23 26  1  0  0  0  0
 24 21  2  0  0  0  0
 26 22  1  0  0  0  0
 27 20  1  6  0  0  0
 27 24  1  0  0  0  0
M  END
>  <MODEL>
3

>  <REMARK>
 VINA RESULT:      -8.5      1.874      4.325
  Name = 
  6 active torsions:
  status: ('A' for Active; 'I' for Inactive)
    1  A    between atoms: C_1  and  N_15
    2  A    between atoms: C_1  and  C_18
    3  A    between atoms: C_2  and  N_15
    4  A    between atoms: C_8  and  C_14
    5  A    between atoms: C_8  and  C_16
    6  A    between atoms: C_9  and  N_15
                            x       y       z     vdW  Elec       q    Type
                         _______ _______ _______ _____ _____    ______ ____

>  <TORSDO>
F 6

$$$$
=
 OpenBabel10272400593D

 27 30  0  0  1  0  0  0  0  0999 V2000
  187.5370  177.5510  143.6150 N   0  0  0  0  0  0  0  0  0  0  0  0
  186.4690  178.1030  142.8120 C   0  0  0  0  0  0  0  0  0  0  0  0
  186.6600  178.3250  141.4350 C   0  0  0  0  0  3  0  0  0  0  0  0
  184.1980  178.9680  142.5980 C   0  0  0  0  0  0  0  0  0  0  0  0
  184.4090  179.1750  141.2270 C   0  0  0  0  0  3  0  0  0  0  0  0
  185.2240  178.4290  143.3780 C   0  0  0  0  0  3  0  0  0  0  0  0
  185.6400  178.8610  140.6480 C   0  0  0  0  0  3  0  0  0  0  0  0
  182.8520  179.1920  143.2170 C   0  0  2  0  0  3  0  0  0  0  0  0
  182.8450  178.6460  144.5630 N   0  0  0  0  0  1  0  0  0  0  0  0
  180.5470  178.5760  143.1370 O   0  0  0  0  0  0  0  0  0  0  0  0
  180.6720  179.5310  142.1120 C   0  0  0  0  0  2  0  0  0  0  0  0
  181.7430  178.5470  142.3970 C   0  0  1  0  0  3  0  0  0  0  0  0
  191.5580  177.1860  142.2900 C   0  0  0  0  0  3  0  0  0  0  0  0
  188.8950  177.4450  143.1380 C   0  0  0  0  0  0  0  0  0  0  0  0
  189.7770  178.5350  143.2270 C   0  0  0  0  0  3  0  0  0  0  0  0
  191.1040  178.4050  142.8020 C   0  0  0  0  0  3  0  0  0  0  0  0
  190.6900  176.0940  142.2100 C   0  0  0  0  0  3  0  0  0  0  0  0
  189.3650  176.2230  142.6350 C   0  0  0  0  0  3  0  0  0  0  0  0
  187.2330  177.0020  144.9390 C   0  0  0  0  0  2  0  0  0  0  0  0
  185.9810  179.3420  147.0970 Cl  0  0  0  0  0  0  0  0  0  0  0  0
  189.1670  177.9980  148.6550 C   0  0  0  0  0  3  0  0  0  0  0  0
  190.0160  177.7740  147.4380 C   0  0  1  0  0  3  0  0  0  0  0  0
  187.9590  177.7680  146.0380 C   0  0  2  0  0  3  0  0  0  0  0  0
  187.8320  178.0970  148.5780 C   0  0  0  0  0  3  0  0  0  0  0  0
  191.4790  176.8710  147.8830 Cl  0  0  0  0  0  0  0  0  0  0  0  0
  189.2440  177.0140  146.3710 C   0  0  0  0  0  2  0  0  0  0  0  0
  187.0650  177.9370  147.2870 C   0  0  1  0  0  3  0  0  0  0  0  0
  1 19  1  0  0  0  0
  2  6  1  0  0  0  0
  2  1  1  0  0  0  0
  3  2  2  0  0  0  0
  4  8  1  0  0  0  0
  4  6  2  0  0  0  0
  5  4  1  0  0  0  0
  7  5  2  0  0  0  0
  7  3  1  0  0  0  0
  8  9  1  1  0  0  0
 11 12  1  0  0  0  0
 11 10  1  0  0  0  0
 12 10  1  0  0  0  0
 12  8  1  1  0  0  0
 13 16  1  0  0  0  0
 14 15  1  0  0  0  0
 14  1  1  0  0  0  0
 16 15  2  0  0  0  0
 17 13  2  0  0  0  0
 17 18  1  0  0  0  0
 18 14  2  0  0  0  0
 22 25  1  1  0  0  0
 22 21  1  0  0  0  0
 23 19  1  6  0  0  0
 23 26  1  0  0  0  0
 23 27  1  0  0  0  0
 24 21  2  0  0  0  0
 26 22  1  0  0  0  0
 27 20  1  6  0  0  0
 27 24  1  0  0  0  0
M  END
>  <MODEL>
4

>  <REMARK>
 VINA RESULT:      -8.4      3.461      6.295
  Name = 
  6 active torsions:
  status: ('A' for Active; 'I' for Inactive)
    1  A    between atoms: C_1  and  N_15
    2  A    between atoms: C_1  and  C_18
    3  A    between atoms: C_2  and  N_15
    4  A    between atoms: C_8  and  C_14
    5  A    between atoms: C_8  and  C_16
    6  A    between atoms: C_9  and  N_15
                            x       y       z     vdW  Elec       q    Type
                         _______ _______ _______ _____ _____    ______ ____

>  <TORSDO>
F 6

$$$$
=
 OpenBabel10272400593D

 27 30  0  0  1  0  0  0  0  0999 V2000
  188.1790  178.2180  141.4780 N   0  0  0  0  0  0  0  0  0  0  0  0
  186.8060  178.4120  141.8880 C   0  0  0  0  0  0  0  0  0  0  0  0
  185.8000  178.6120  140.9230 C   0  0  0  0  0  3  0  0  0  0  0  0
  185.1160  178.6000  143.6360 C   0  0  0  0  0  0  0  0  0  0  0  0
  184.1300  178.7910  142.6570 C   0  0  0  0  0  3  0  0  0  0  0  0
  186.4430  178.4060  143.2450 C   0  0  0  0  0  3  0  0  0  0  0  0
  184.4720  178.8040  141.3050 C   0  0  0  0  0  3  0  0  0  0  0  0
  184.7550  178.4690  145.0840 C   0  0  2  0  0  3  0  0  0  0  0  0
  183.4530  179.0740  145.3120 N   0  0  0  0  0  1  0  0  0  0  0  0
  185.3740  179.0250  147.3220 O   0  0  0  0  0  0  0  0  0  0  0  0
  186.3830  178.1370  146.9090 C   0  0  0  0  0  2  0  0  0  0  0  0
  185.7910  179.1310  145.9840 C   0  0  1  0  0  3  0  0  0  0  0  0
  191.1680  176.4670  143.9400 C   0  0  0  0  0  3  0  0  0  0  0  0
  189.1710  177.6160  142.3370 C   0  0  0  0  0  0  0  0  0  0  0  0
  189.2530  176.2200  142.4770 C   0  0  0  0  0  3  0  0  0  0  0  0
  190.2470  175.6490  143.2780 C   0  0  0  0  0  3  0  0  0  0  0  0
  191.1020  177.8550  143.7960 C   0  0  0  0  0  3  0  0  0  0  0  0
  190.1080  178.4270  142.9950 C   0  0  0  0  0  3  0  0  0  0  0  0
  188.6180  178.7130  140.1710 C   0  0  0  0  0  2  0  0  0  0  0  0
  186.7120  177.3160  137.6980 Cl  0  0  0  0  0  0  0  0  0  0  0  0
  190.3220  176.4310  136.9400 C   0  0  0  0  0  3  0  0  0  0  0  0
  190.8740  176.2460  138.3230 C   0  0  1  0  0  3  0  0  0  0  0  0
  188.9700  177.5670  139.2300 C   0  0  2  0  0  3  0  0  0  0  0  0
  189.1950  177.1240  136.7150 C   0  0  0  0  0  3  0  0  0  0  0  0
  192.6420  176.0990  138.2510 Cl  0  0  0  0  0  0  0  0  0  0  0  0
  190.4890  177.4120  139.2220 C   0  0  0  0  0  2  0  0  0  0  0  0
  188.4210  177.8200  137.8090 C   0  0  1  0  0  3  0  0  0  0  0  0
  1  2  1  0  0  0  0
  1 14  1  0  0  0  0
  2  6  1  0  0  0  0
  3  7  1  0  0  0  0
  3  2  2  0  0  0  0
  4  8  1  0  0  0  0
  5  4  1  0  0  0  0
  6  4  2  0  0  0  0
  7  5  2  0  0  0  0
  8  9  1  6  0  0  0
 11 10  1  0  0  0  0
 12  8  1  6  0  0  0
 12 11  1  0  0  0  0
 12 10  1  0  0  0  0
 14 15  2  0  0  0  0
 14 18  1  0  0  0  0
 15 16  1  0  0  0  0
 16 13  2  0  0  0  0
 17 13  1  0  0  0  0
 18 17  2  0  0  0  0
 19  1  1  0  0  0  0
 21 22  1  0  0  0  0
 22 25  1  6  0  0  0
 22 26  1  0  0  0  0
 23 19  1  1  0  0  0
 24 21  2  0  0  0  0
 24 27  1  0  0  0  0
 26 23  1  0  0  0  0
 27 20  1  1  0  0  0
 27 23  1  0  0  0  0
M  END
>  <MODEL>
5

>  <REMARK>
 VINA RESULT:      -8.4      3.622      7.106
  Name = 
  6 active torsions:
  status: ('A' for Active; 'I' for Inactive)
    1  A    between atoms: C_1  and  N_15
    2  A    between atoms: C_1  and  C_18
    3  A    between atoms: C_2  and  N_15
    4  A    between atoms: C_8  and  C_14
    5  A    between atoms: C_8  and  C_16
    6  A    between atoms: C_9  and  N_15
                            x       y       z     vdW  Elec       q    Type
                         _______ _______ _______ _____ _____    ______ ____

>  <TORSDO>
F 6

$$$$
=
 OpenBabel10272400593D

 27 30  0  0  1  0  0  0  0  0999 V2000
  187.3550  177.3520  144.6600 N   0  0  0  0  0  0  0  0  0  0  0  0
  186.1000  177.9480  144.2610 C   0  0  0  0  0  0  0  0  0  0  0  0
  185.2850  178.5880  145.2140 C   0  0  0  0  0  3  0  0  0  0  0  0
  184.4480  178.4780  142.5470 C   0  0  0  0  0  0  0  0  0  0  0  0
  183.6550  179.1160  143.5120 C   0  0  0  0  0  3  0  0  0  0  0  0
  185.6640  177.9060  142.9260 C   0  0  0  0  0  3  0  0  0  0  0  0
  184.0690  179.1650  144.8440 C   0  0  0  0  0  3  0  0  0  0  0  0
  184.0780  178.5120  141.0960 C   0  0  2  0  0  3  0  0  0  0  0  0
  184.8580  179.5380  140.4250 N   0  0  0  0  0  1  0  0  0  0  0  0
  182.3050  178.8100  139.5240 O   0  0  0  0  0  0  0  0  0  0  0  0
  181.9390  177.6450  140.2220 C   0  0  0  0  0  2  0  0  0  0  0  0
  182.5930  178.7880  140.9000 C   0  0  1  0  0  3  0  0  0  0  0  0
  189.1080  177.9540  148.4850 C   0  0  0  0  0  3  0  0  0  0  0  0
  187.9540  177.5890  145.9520 C   0  0  0  0  0  0  0  0  0  0  0  0
  187.2340  178.2290  146.9740 C   0  0  0  0  0  3  0  0  0  0  0  0
  187.8110  178.4130  148.2350 C   0  0  0  0  0  3  0  0  0  0  0  0
  189.8260  177.3040  147.4770 C   0  0  0  0  0  3  0  0  0  0  0  0
  189.2500  177.1210  146.2170 C   0  0  0  0  0  3  0  0  0  0  0  0
  188.1010  176.5320  143.7020 C   0  0  0  0  0  2  0  0  0  0  0  0
  191.2970  177.7110  144.0060 Cl  0  0  0  0  0  0  0  0  0  0  0  0
  190.4300  177.8130  140.3150 C   0  0  0  0  0  3  0  0  0  0  0  0
  188.9750  178.1730  140.3670 C   0  0  1  0  0  3  0  0  0  0  0  0
  188.8930  177.3950  142.7280 C   0  0  2  0  0  3  0  0  0  0  0  0
  191.0670  177.2880  141.3730 C   0  0  0  0  0  3  0  0  0  0  0  0
  188.2560  178.0050  138.7510 Cl  0  0  0  0  0  0  0  0  0  0  0  0
  188.2320  177.2890  141.3570 C   0  0  0  0  0  2  0  0  0  0  0  0
  190.3750  176.9610  142.6750 C   0  0  1  0  0  3  0  0  0  0  0  0
  1 14  1  0  0  0  0
  2  1  1  0  0  0  0
  2  3  1  0  0  0  0
  4  6  1  0  0  0  0
  4  5  2  0  0  0  0
  5  7  1  0  0  0  0
  6  2  2  0  0  0  0
  7  3  2  0  0  0  0
  8  9  1  6  0  0  0
  8  4  1  0  0  0  0
 10 11  1  0  0  0  0
 10 12  1  0  0  0  0
 11 12  1  0  0  0  0
 12  8  1  6  0  0  0
 14 18  2  0  0  0  0
 14 15  1  0  0  0  0
 15 16  2  0  0  0  0
 16 13  1  0  0  0  0
 17 13  2  0  0  0  0
 18 17  1  0  0  0  0
 19  1  1  0  0  0  0
 21 22  1  0  0  0  0
 21 24  2  0  0  0  0
 22 25  1  6  0  0  0
 22 26  1  0  0  0  0
 23 19  1  1  0  0  0
 24 27  1  0  0  0  0
 26 23  1  0  0  0  0
 27 23  1  0  0  0  0
 27 20  1  1  0  0  0
M  END
>  <MODEL>
6

>  <REMARK>
 VINA RESULT:      -8.4      3.036      5.817
  Name = 
  6 active torsions:
  status: ('A' for Active; 'I' for Inactive)
    1  A    between atoms: C_1  and  N_15
    2  A    between atoms: C_1  and  C_18
    3  A    between atoms: C_2  and  N_15
    4  A    between atoms: C_8  and  C_14
    5  A    between atoms: C_8  and  C_16
    6  A    between atoms: C_9  and  N_15
                            x       y       z     vdW  Elec       q    Type
                         _______ _______ _______ _____ _____    ______ ____

>  <TORSDO>
F 6

$$$$
=
 OpenBabel10272400593D

 27 30  0  0  1  0  0  0  0  0999 V2000
  188.6440  177.3510  142.2260 N   0  0  0  0  0  0  0  0  0  0  0  0
  189.5700  177.7020  143.2790 C   0  0  0  0  0  0  0  0  0  0  0  0
  190.4410  178.7970  143.1200 C   0  0  0  0  0  3  0  0  0  0  0  0
  190.5250  177.3090  145.4890 C   0  0  0  0  0  0  0  0  0  0  0  0
  191.3800  178.4070  145.3110 C   0  0  0  0  0  3  0  0  0  0  0  0
  189.6240  176.9690  144.4770 C   0  0  0  0  0  3  0  0  0  0  0  0
  191.3430  179.1450  144.1270 C   0  0  0  0  0  3  0  0  0  0  0  0
  190.4690  176.5750  146.7930 C   0  0  2  0  0  3  0  0  0  0  0  0
  189.5060  177.2220  147.6680 N   0  0  0  0  0  1  0  0  0  0  0  0
  191.9370  175.3420  148.2160 O   0  0  0  0  0  0  0  0  0  0  0  0
  192.6160  175.3750  146.9850 C   0  0  0  0  0  2  0  0  0  0  0  0
  191.8310  176.5320  147.4730 C   0  0  1  0  0  3  0  0  0  0  0  0
  189.6870  177.7830  138.1280 C   0  0  0  0  0  3  0  0  0  0  0  0
  188.9720  177.4780  140.8260 C   0  0  0  0  0  0  0  0  0  0  0  0
  188.1990  178.2830  139.9730 C   0  0  0  0  0  3  0  0  0  0  0  0
  188.5550  178.4320  138.6290 C   0  0  0  0  0  3  0  0  0  0  0  0
  190.4700  176.9900  138.9730 C   0  0  0  0  0  3  0  0  0  0  0  0
  190.1140  176.8410  140.3170 C   0  0  0  0  0  3  0  0  0  0  0  0
  187.2880  176.9180  142.5720 C   0  0  0  0  0  2  0  0  0  0  0  0
  185.2390  179.2200  141.0880 Cl  0  0  0  0  0  0  0  0  0  0  0  0
  184.2690  179.0810  144.7510 C   0  0  0  0  0  3  0  0  0  0  0  0
  185.6040  178.8560  145.3990 C   0  0  1  0  0  3  0  0  0  0  0  0
  186.4930  178.0440  143.2220 C   0  0  2  0  0  3  0  0  0  0  0  0
  184.0580  178.8110  143.4540 C   0  0  0  0  0  3  0  0  0  0  0  0
  185.3800  178.4700  147.1180 Cl  0  0  0  0  0  0  0  0  0  0  0  0
  186.3580  177.7290  144.7100 C   0  0  0  0  0  2  0  0  0  0  0  0
  185.1100  178.2100  142.5530 C   0  0  1  0  0  3  0  0  0  0  0  0
  1 19  1  0  0  0  0
  1  2  1  0  0  0  0
  2  6  1  0  0  0  0
  3  2  2  0  0  0  0
  3  7  1  0  0  0  0
  4  8  1  0  0  0  0
  5  4  1  0  0  0  0
  6  4  2  0  0  0  0
  7  5  2  0  0  0  0
  8  9  1  1  0  0  0
 11 12  1  0  0  0  0
 11 10  1  0  0  0  0
 12  8  1  6  0  0  0
 12 10  1  0  0  0  0
 13 16  2  0  0  0  0
 13 17  1  0  0  0  0
 14  1  1  0  0  0  0
 15 14  2  0  0  0  0
 16 15  1  0  0  0  0
 17 18  2  0  0  0  0
 18 14  1  0  0  0  0
 21 22  1  0  0  0  0
 22 25  1  1  0  0  0
 23 19  1  6  0  0  0
 23 26  1  0  0  0  0
 24 21  2  0  0  0  0
 26 22  1  0  0  0  0
 27 20  1  6  0  0  0
 27 23  1  0  0  0  0
 27 24  1  0  0  0  0
M  END
>  <MODEL>
7

>  <REMARK>
 VINA RESULT:      -8.3      2.805      5.911
  Name = 
  6 active torsions:
  status: ('A' for Active; 'I' for Inactive)
    1  A    between atoms: C_1  and  N_15
    2  A    between atoms: C_1  and  C_18
    3  A    between atoms: C_2  and  N_15
    4  A    between atoms: C_8  and  C_14
    5  A    between atoms: C_8  and  C_16
    6  A    between atoms: C_9  and  N_15
                            x       y       z     vdW  Elec       q    Type
                         _______ _______ _______ _____ _____    ______ ____

>  <TORSDO>
F 6

$$$$
=
 OpenBabel10272400593D

 27 30  0  0  1  0  0  0  0  0999 V2000
  188.7550  177.3710  142.2580 N   0  0  0  0  0  0  0  0  0  0  0  0
  189.1060  177.4970  140.8610 C   0  0  0  0  0  0  0  0  0  0  0  0
  188.3650  178.3470  140.0180 C   0  0  0  0  0  3  0  0  0  0  0  0
  190.5150  176.9030  138.9610 C   0  0  0  0  0  0  0  0  0  0  0  0
  189.7670  177.7610  138.1410 C   0  0  0  0  0  3  0  0  0  0  0  0
  190.1850  176.7820  140.3120 C   0  0  0  0  0  3  0  0  0  0  0  0
  188.6900  178.4760  138.6670 C   0  0  0  0  0  3  0  0  0  0  0  0
  191.7420  176.2150  138.4450 C   0  0  2  0  0  3  0  0  0  0  0  0
  192.9230  176.9140  138.9240 N   0  0  0  0  0  1  0  0  0  0  0  0
  192.9770  175.6030  136.4960 O   0  0  0  0  0  0  0  0  0  0  0  0
  191.8510  174.7610  136.4550 C   0  0  0  0  0  2  0  0  0  0  0  0
  191.7600  176.1630  136.9230 C   0  0  1  0  0  3  0  0  0  0  0  0
  191.6070  178.0700  145.3310 C   0  0  0  0  0  3  0  0  0  0  0  0
  189.6980  177.6150  143.3220 C   0  0  0  0  0  0  0  0  0  0  0  0
  189.8720  176.6840  144.3600 C   0  0  0  0  0  3  0  0  0  0  0  0
  190.8220  176.9130  145.3610 C   0  0  0  0  0  3  0  0  0  0  0  0
  191.4490  178.9950  144.2940 C   0  0  0  0  0  3  0  0  0  0  0  0
  190.5000  178.7660  143.2930 C   0  0  0  0  0  3  0  0  0  0  0  0
  187.4150  176.9060  142.6260 C   0  0  0  0  0  2  0  0  0  0  0  0
  185.3800  179.1630  141.0570 Cl  0  0  0  0  0  0  0  0  0  0  0  0
  184.3040  179.0490  144.6920 C   0  0  0  0  0  3  0  0  0  0  0  0
  185.6220  178.8490  145.3810 C   0  0  1  0  0  3  0  0  0  0  0  0
  186.5860  178.0270  143.2390 C   0  0  2  0  0  3  0  0  0  0  0  0
  184.1350  178.7620  143.3920 C   0  0  0  0  0  3  0  0  0  0  0  0
  185.3530  178.4780  147.0960 Cl  0  0  0  0  0  0  0  0  0  0  0  0
  186.4120  177.7260  144.7260 C   0  0  0  0  0  2  0  0  0  0  0  0
  185.2210  178.1670  142.5290 C   0  0  1  0  0  3  0  0  0  0  0  0
  1 19  1  0  0  0  0
  1 14  1  0  0  0  0
  2  1  1  0  0  0  0
  3  2  2  0  0  0  0
  4  6  2  0  0  0  0
  5  7  2  0  0  0  0
  5  4  1  0  0  0  0
  6  2  1  0  0  0  0
  7  3  1  0  0  0  0
  8  9  1  6  0  0  0
  8  4  1  0  0  0  0
 10 12  1  0  0  0  0
 11 10  1  0  0  0  0
 11 12  1  0  0  0  0
 12  8  1  1  0  0  0
 13 16  1  0  0  0  0
 14 15  1  0  0  0  0
 15 16  2  0  0  0  0
 17 13  2  0  0  0  0
 18 14  2  0  0  0  0
 18 17  1  0  0  0  0
 21 22  1  0  0  0  0
 22 25  1  1  0  0  0
 23 19  1  6  0  0  0
 23 26  1  0  0  0  0
 24 21  2  0  0  0  0
 26 22  1  0  0  0  0
 27 20  1  6  0  0  0
 27 23  1  0  0  0  0
 27 24  1  0  0  0  0
M  END
>  <MODEL>
8

>  <REMARK>
 VINA RESULT:      -8.3      1.727      2.427
  Name = 
  6 active torsions:
  status: ('A' for Active; 'I' for Inactive)
    1  A    between atoms: C_1  and  N_15
    2  A    between atoms: C_1  and  C_18
    3  A    between atoms: C_2  and  N_15
    4  A    between atoms: C_8  and  C_14
    5  A    between atoms: C_8  and  C_16
    6  A    between atoms: C_9  and  N_15
                            x       y       z     vdW  Elec       q    Type
                         _______ _______ _______ _____ _____    ______ ____

>  <TORSDO>
F 6

$$$$
=
 OpenBabel10272400593D

 27 30  0  0  1  0  0  0  0  0999 V2000
  188.2730  177.5100  142.5260 N   0  0  0  0  0  0  0  0  0  0  0  0
  188.0680  177.7220  141.1100 C   0  0  0  0  0  0  0  0  0  0  0  0
  189.1080  177.4630  140.1980 C   0  0  0  0  0  3  0  0  0  0  0  0
  186.6490  178.3960  139.2460 C   0  0  0  0  0  0  0  0  0  0  0  0
  187.6970  178.1260  138.3530 C   0  0  0  0  0  3  0  0  0  0  0  0
  186.8390  178.1870  140.6130 C   0  0  0  0  0  3  0  0  0  0  0  0
  188.9260  177.6670  138.8290 C   0  0  0  0  0  3  0  0  0  0  0  0
  185.2880  178.7800  138.7480 C   0  0  2  0  0  3  0  0  0  0  0  0
  184.6830  179.7180  139.6790 N   0  0  0  0  0  1  0  0  0  0  0  0
  183.0450  177.9640  138.7360 O   0  0  0  0  0  0  0  0  0  0  0  0
  183.4880  177.7390  137.4200 C   0  0  0  0  0  2  0  0  0  0  0  0
  184.3850  177.5650  138.5860 C   0  0  1  0  0  3  0  0  0  0  0  0
  192.0090  178.0220  144.4870 C   0  0  0  0  0  3  0  0  0  0  0  0
  189.5560  177.6900  143.1630 C   0  0  0  0  0  0  0  0  0  0  0  0
  190.1030  178.9730  143.3330 C   0  0  0  0  0  3  0  0  0  0  0  0
  191.3260  179.1360  143.9920 C   0  0  0  0  0  3  0  0  0  0  0  0
  191.4650  176.7430  144.3340 C   0  0  0  0  0  3  0  0  0  0  0  0
  190.2430  176.5790  143.6760 C   0  0  0  0  0  3  0  0  0  0  0  0
  187.1650  177.0200  143.3500 C   0  0  0  0  0  2  0  0  0  0  0  0
  184.8680  179.5540  143.4210 Cl  0  0  0  0  0  0  0  0  0  0  0  0
  185.6500  178.6720  147.0260 C   0  0  0  0  0  3  0  0  0  0  0  0
  187.1090  178.3340  146.9350 C   0  0  1  0  0  3  0  0  0  0  0  0
  186.8470  177.9850  144.4850 C   0  0  2  0  0  3  0  0  0  0  0  0
  184.8530  178.6660  145.9460 C   0  0  0  0  0  3  0  0  0  0  0  0
  187.6550  177.6080  148.4610 Cl  0  0  0  0  0  0  0  0  0  0  0  0
  187.3730  177.3760  145.7830 C   0  0  0  0  0  2  0  0  0  0  0  0
  185.3310  178.2690  144.5700 C   0  0  1  0  0  3  0  0  0  0  0  0
  1 14  1  0  0  0  0
  1 19  1  0  0  0  0
  2  1  1  0  0  0  0
  3  2  2  0  0  0  0
  4  6  2  0  0  0  0
  5  7  2  0  0  0  0
  5  4  1  0  0  0  0
  6  2  1  0  0  0  0
  7  3  1  0  0  0  0
  8  4  1  0  0  0  0
  8  9  1  1  0  0  0
 11 12  1  0  0  0  0
 11 10  1  0  0  0  0
 12 10  1  0  0  0  0
 12  8  1  6  0  0  0
 14 15  2  0  0  0  0
 14 18  1  0  0  0  0
 15 16  1  0  0  0  0
 16 13  2  0  0  0  0
 17 13  1  0  0  0  0
 18 17  2  0  0  0  0
 22 21  1  0  0  0  0
 22 25  1  1  0  0  0
 23 19  1  6  0  0  0
 23 27  1  0  0  0  0
 23 26  1  0  0  0  0
 24 21  2  0  0  0  0
 26 22  1  0  0  0  0
 27 20  1  6  0  0  0
 27 24  1  0  0  0  0
M  END
>  <MODEL>
9

>  <REMARK>
 VINA RESULT:      -8.3      2.997      3.827
  Name = 
  6 active torsions:
  status: ('A' for Active; 'I' for Inactive)
    1  A    between atoms: C_1  and  N_15
    2  A    between atoms: C_1  and  C_18
    3  A    between atoms: C_2  and  N_15
    4  A    between atoms: C_8  and  C_14
    5  A    between atoms: C_8  and  C_16
    6  A    between atoms: C_9  and  N_15
                            x       y       z     vdW  Elec       q    Type
                         _______ _______ _______ _____ _____    ______ ____

>  <TORSDO>
F 6

$$$$
