=
 OpenBabel10272400123D

 34 38  0  0  1  0  0  0  0  0999 V2000
  187.5940  177.5100  146.6730 C   0  0  0  0  0  0  0  0  0  0  0  0
  190.0400  177.1190  146.1210 C   0  0  2  0  0  3  0  0  0  0  0  0
  188.2680  177.4990  144.3180 C   0  0  0  0  0  0  0  0  0  0  0  0
  189.0230  176.5350  142.1110 C   0  0  0  0  0  2  0  0  0  0  0  0
  190.1110  176.1330  147.1060 O   0  0  0  0  0  1  0  0  0  0  0  0
  190.6920  177.5360  143.7340 C   0  0  2  0  0  3  0  0  0  0  0  0
  188.5980  177.3500  145.6920 C   0  0  0  0  0  0  0  0  0  0  0  0
  191.6850  177.1420  142.6420 C   0  0  0  0  0  2  0  0  0  0  0  0
  189.7680  177.1280  140.9140 C   0  0  0  0  0  2  0  0  0  0  0  0
  186.9400  177.8460  143.9500 C   0  0  0  0  0  0  0  0  0  0  0  0
  186.2750  177.7590  146.2800 C   0  0  0  0  0  3  0  0  0  0  0  0
  190.9790  176.7240  144.9820 C   0  0  0  0  0  2  0  0  0  0  0  0
  191.1810  177.6240  141.2770 C   0  0  2  0  0  3  0  0  0  0  0  0
  189.3010  177.3020  143.3290 N   0  0  0  0  0  0  0  0  0  0  0  0
  185.9530  177.9170  144.9390 C   0  0  0  0  0  3  0  0  0  0  0  0
  182.6490  178.7560  143.0620 C   0  0  0  0  0  0  0  0  0  0  0  0
  182.2550  178.6390  141.7880 C   0  0  0  0  0  3  0  0  0  0  0  0
  185.0240  178.3230  142.3280 C   0  0  2  0  0  0  0  0  0  0  0  0
  183.1810  178.2150  140.7200 C   0  0  0  0  0  3  0  0  0  0  0  0
  184.0390  178.3740  143.5040 C   0  0  0  0  0  2  0  0  0  0  0  0
  185.9560  179.5060  142.3410 C   0  0  0  0  0  2  0  0  0  0  0  0
  184.4800  178.0480  140.9620 C   0  0  0  0  0  3  0  0  0  0  0  0
  186.5280  178.0990  142.5190 C   0  0  1  0  0  3  0  0  0  0  0  0
  181.6550  179.1620  144.0890 C   0  0  0  0  0  1  0  0  0  0  0  0
  187.9240  177.4190  148.0310 O   0  0  0  0  0  0  0  0  0  0  0  0
  188.2570  178.5510  148.8230 C   0  0  0  0  0  1  0  0  0  0  0  0
  192.1190  177.4390  140.2390 O   0  0  0  0  0  0  0  0  0  0  0  0
  191.4670  176.8510  139.1390 C   0  0  0  0  0  2  0  0  0  0  0  0
  193.7750  176.5870  138.5360 O   0  0  0  0  0  1  0  0  0  0  0  0
  192.4690  176.4830  138.0440 C   0  0  1  0  0  3  0  0  0  0  0  0
  191.9310  175.2290  135.9350 C   0  0  0  0  0  1  0  0  0  0  0  0
  192.2220  175.1000  137.4200 C   0  0  0  0  0  0  0  0  0  0  0  0
  191.1470  174.4660  138.0470 O   0  0  0  0  0  1  0  0  0  0  0  0
  193.4610  174.2400  137.5800 C   0  0  0  0  0  1  0  0  0  0  0  0
  1 25  1  0  0  0  0
  2  5  1  1  0  0  0
  3  7  1  0  0  0  0
  4 14  1  0  0  0  0
  6  8  1  6  0  0  0
  6 12  1  0  0  0  0
  7  2  1  0  0  0  0
  7  1  2  0  0  0  0
  9 13  1  0  0  0  0
  9  4  1  0  0  0  0
 10  3  2  0  0  0  0
 10 15  1  0  0  0  0
 11  1  1  0  0  0  0
 12  2  1  0  0  0  0
 13 27  1  6  0  0  0
 13  8  1  0  0  0  0
 14  6  1  0  0  0  0
 14  3  1  0  0  0  0
 15 11  2  0  0  0  0
 16 20  1  0  0  0  0
 16 24  1  0  0  0  0
 17 16  2  0  0  0  0
 18 22  1  6  0  0  0
 18 21  1  0  0  0  0
 18 23  1  0  0  0  0
 18 20  1  0  0  0  0
 19 22  2  0  0  0  0
 19 17  1  0  0  0  0
 21 23  1  0  0  0  0
 23 10  1  1  0  0  0
 25 26  1  0  0  0  0
 28 27  1  0  0  0  0
 30 29  1  1  0  0  0
 30 28  1  0  0  0  0
 31 32  1  0  0  0  0
 32 34  1  0  0  0  0
 32 30  1  0  0  0  0
 32 33  1  0  0  0  0
M  END
>  <MODEL>
1

>  <REMARK>
 VINA RESULT:      -9.8      0.000      0.000
  Name = 
  6 active torsions:
  status: ('A' for Active; 'I' for Inactive)
    1  A    between atoms: C_1  and  O_6
    2  A    between atoms: O_3  and  C_13
    3  A    between atoms: O_3  and  C_29
    4  A    between atoms: C_13  and  C_33
    5  A    between atoms: C_20  and  C_33
    6  A    between atoms: C_21  and  C_28
                            x       y       z     vdW  Elec       q    Type
                         _______ _______ _______ _____ _____    ______ ____

>  <TORSDO>
F 6

$$$$
=
 OpenBabel10272400123D

 34 38  0  0  1  0  0  0  0  0999 V2000
  186.5670  178.5580  140.1980 C   0  0  0  0  0  0  0  0  0  0  0  0
  187.3410  177.8950  137.8740 C   0  0  2  0  0  3  0  0  0  0  0  0
  188.7790  177.5340  139.9570 C   0  0  0  0  0  0  0  0  0  0  0  0
  191.2190  177.3690  139.3360 C   0  0  0  0  0  2  0  0  0  0  0  0
  186.8090  179.0750  137.3530 O   0  0  0  0  0  1  0  0  0  0  0  0
  189.4190  176.4900  137.7840 C   0  0  2  0  0  3  0  0  0  0  0  0
  187.5820  178.0260  139.3720 C   0  0  0  0  0  0  0  0  0  0  0  0
  190.6250  176.1300  136.9180 C   0  0  0  0  0  2  0  0  0  0  0  0
  192.1360  176.1890  139.0090 C   0  0  0  0  0  2  0  0  0  0  0  0
  188.9240  177.5460  141.3700 C   0  0  0  0  0  0  0  0  0  0  0  0
  186.7720  178.6440  141.5790 C   0  0  0  0  0  3  0  0  0  0  0  0
  188.5880  177.5360  137.0670 C   0  0  0  0  0  2  0  0  0  0  0  0
  191.6800  175.4060  137.7630 C   0  0  2  0  0  3  0  0  0  0  0  0
  189.8160  177.0220  139.0930 N   0  0  0  0  0  0  0  0  0  0  0  0
  187.9370  178.1520  142.1540 C   0  0  0  0  0  3  0  0  0  0  0  0
  188.9370  177.3520  145.8410 C   0  0  0  0  0  0  0  0  0  0  0  0
  190.1200  177.1630  146.4380 C   0  0  0  0  0  3  0  0  0  0  0  0
  190.0540  177.0260  143.6030 C   0  0  2  0  0  0  0  0  0  0  0  0
  191.3720  177.0380  145.6660 C   0  0  0  0  0  3  0  0  0  0  0  0
  188.8170  177.5420  144.3510 C   0  0  0  0  0  2  0  0  0  0  0  0
  189.7640  175.7300  142.8920 C   0  0  0  0  0  2  0  0  0  0  0  0
  191.3570  176.9880  144.3350 C   0  0  0  0  0  3  0  0  0  0  0  0
  190.1300  176.9690  142.0740 C   0  0  1  0  0  3  0  0  0  0  0  0
  187.7200  177.4950  146.6830 C   0  0  0  0  0  1  0  0  0  0  0  0
  185.3620  178.9940  139.6320 O   0  0  0  0  0  0  0  0  0  0  0  0
  184.1300  178.9940  140.3410 C   0  0  0  0  0  1  0  0  0  0  0  0
  192.7530  174.8990  137.0010 O   0  0  0  0  0  0  0  0  0  0  0  0
  193.9030  175.6620  137.2750 C   0  0  0  0  0  2  0  0  0  0  0  0
  196.0800  175.6760  136.2640 O   0  0  0  0  0  1  0  0  0  0  0  0
  195.1720  174.8690  136.9580 C   0  0  1  0  0  3  0  0  0  0  0  0
  195.2680  172.8480  138.4460 C   0  0  0  0  0  1  0  0  0  0  0  0
  195.8290  174.2370  138.1970 C   0  0  0  0  0  0  0  0  0  0  0  0
  195.6130  175.0310  139.3240 O   0  0  0  0  0  1  0  0  0  0  0  0
  197.3230  174.1040  137.9680 C   0  0  0  0  0  1  0  0  0  0  0  0
  1 11  1  0  0  0  0
  2  5  1  6  0  0  0
  2  7  1  0  0  0  0
  3 10  2  0  0  0  0
  6  8  1  6  0  0  0
  6 14  1  0  0  0  0
  7  3  1  0  0  0  0
  7  1  2  0  0  0  0
  8 13  1  0  0  0  0
  9  4  1  0  0  0  0
 10 15  1  0  0  0  0
 11 15  2  0  0  0  0
 12  6  1  0  0  0  0
 12  2  1  0  0  0  0
 13 27  1  6  0  0  0
 13  9  1  0  0  0  0
 14  4  1  0  0  0  0
 14  3  1  0  0  0  0
 16 17  2  0  0  0  0
 16 24  1  0  0  0  0
 18 21  1  1  0  0  0
 18 22  1  0  0  0  0
 18 20  1  0  0  0  0
 19 17  1  0  0  0  0
 20 16  1  0  0  0  0
 22 19  2  0  0  0  0
 23 10  1  6  0  0  0
 23 21  1  0  0  0  0
 23 18  1  0  0  0  0
 25  1  1  0  0  0  0
 25 26  1  0  0  0  0
 27 28  1  0  0  0  0
 30 29  1  1  0  0  0
 30 28  1  0  0  0  0
 30 32  1  0  0  0  0
 32 31  1  0  0  0  0
 32 33  1  0  0  0  0
 34 32  1  0  0  0  0
M  END
>  <MODEL>
2

>  <REMARK>
 VINA RESULT:      -9.3      2.987      6.102
  Name = 
  6 active torsions:
  status: ('A' for Active; 'I' for Inactive)
    1  A    between atoms: C_1  and  O_6
    2  A    between atoms: O_3  and  C_13
    3  A    between atoms: O_3  and  C_29
    4  A    between atoms: C_13  and  C_33
    5  A    between atoms: C_20  and  C_33
    6  A    between atoms: C_21  and  C_28
                            x       y       z     vdW  Elec       q    Type
                         _______ _______ _______ _____ _____    ______ ____

>  <TORSDO>
F 6

$$$$
=
 OpenBabel10272400123D

 34 38  0  0  1  0  0  0  0  0999 V2000
  184.6410  178.5830  142.3240 C   0  0  0  0  0  0  0  0  0  0  0  0
  184.6690  178.7470  139.7920 C   0  0  2  0  0  3  0  0  0  0  0  0
  186.7540  178.1730  141.1540 C   0  0  0  0  0  0  0  0  0  0  0  0
  188.8460  178.7210  139.8540 C   0  0  0  0  0  2  0  0  0  0  0  0
  183.8500  179.8760  139.8490 O   0  0  0  0  0  1  0  0  0  0  0  0
  186.7540  177.9110  138.6740 C   0  0  2  0  0  3  0  0  0  0  0  0
  185.3780  178.5270  141.1200 C   0  0  0  0  0  0  0  0  0  0  0  0
  187.6350  178.0670  137.4360 C   0  0  0  0  0  2  0  0  0  0  0  0
  189.7400  177.9010  138.9210 C   0  0  0  0  0  2  0  0  0  0  0  0
  187.3610  177.8420  142.3950 C   0  0  0  0  0  0  0  0  0  0  0  0
  185.2850  178.3440  143.5420 C   0  0  0  0  0  3  0  0  0  0  0  0
  185.6070  178.8990  138.5960 C   0  0  0  0  0  2  0  0  0  0  0  0
  188.9940  177.3970  137.6710 C   0  0  2  0  0  3  0  0  0  0  0  0
  187.4970  178.1500  139.9170 N   0  0  0  0  0  0  0  0  0  0  0  0
  186.6260  177.9860  143.5760 C   0  0  0  0  0  3  0  0  0  0  0  0
  189.1220  177.2060  146.4610 C   0  0  0  0  0  0  0  0  0  0  0  0
  190.4560  177.1330  146.5400 C   0  0  0  0  0  3  0  0  0  0  0  0
  189.3120  177.2720  143.9460 C   0  0  2  0  0  0  0  0  0  0  0  0
  191.3180  177.2700  145.3500 C   0  0  0  0  0  3  0  0  0  0  0  0
  188.4170  177.5240  145.1670 C   0  0  0  0  0  2  0  0  0  0  0  0
  188.8960  176.0260  143.2090 C   0  0  0  0  0  2  0  0  0  0  0  0
  190.7940  177.3510  144.1270 C   0  0  0  0  0  3  0  0  0  0  0  0
  188.7950  177.3800  142.5070 C   0  0  1  0  0  3  0  0  0  0  0  0
  188.3190  177.0850  147.7050 C   0  0  0  0  0  1  0  0  0  0  0  0
  183.2720  178.8770  142.2910 O   0  0  0  0  0  0  0  0  0  0  0  0
  182.4900  179.0500  143.4650 C   0  0  0  0  0  1  0  0  0  0  0  0
  189.8040  177.3590  136.5170 O   0  0  0  0  0  0  0  0  0  0  0  0
  189.5620  176.1540  135.8320 C   0  0  0  0  0  2  0  0  0  0  0  0
  191.9610  176.1230  135.8550 O   0  0  0  0  0  1  0  0  0  0  0  0
  190.8310  175.3040  135.7560 C   0  0  1  0  0  3  0  0  0  0  0  0
  189.5110  173.5230  136.9370 C   0  0  0  0  0  1  0  0  0  0  0  0
  190.8780  174.1710  136.7950 C   0  0  0  0  0  0  0  0  0  0  0  0
  191.2870  174.6610  138.0360 O   0  0  0  0  0  1  0  0  0  0  0  0
  191.8560  173.1040  136.3410 C   0  0  0  0  0  1  0  0  0  0  0  0
  1 11  1  0  0  0  0
  2  5  1  1  0  0  0
  2  7  1  0  0  0  0
  3 10  2  0  0  0  0
  4 14  1  0  0  0  0
  6  8  1  6  0  0  0
  6 14  1  0  0  0  0
  7  3  1  0  0  0  0
  7  1  2  0  0  0  0
  8 13  1  0  0  0  0
  9  4  1  0  0  0  0
 10 15  1  0  0  0  0
 11 15  2  0  0  0  0
 12  6  1  0  0  0  0
 12  2  1  0  0  0  0
 13 27  1  6  0  0  0
 13  9  1  0  0  0  0
 14  3  1  0  0  0  0
 16 17  2  0  0  0  0
 16 24  1  0  0  0  0
 18 21  1  1  0  0  0
 18 22  1  0  0  0  0
 18 20  1  0  0  0  0
 19 17  1  0  0  0  0
 20 16  1  0  0  0  0
 22 19  2  0  0  0  0
 23 10  1  1  0  0  0
 23 21  1  0  0  0  0
 23 18  1  0  0  0  0
 25  1  1  0  0  0  0
 25 26  1  0  0  0  0
 28 27  1  0  0  0  0
 30 28  1  0  0  0  0
 30 29  1  1  0  0  0
 30 32  1  0  0  0  0
 32 31  1  0  0  0  0
 32 33  1  0  0  0  0
 34 32  1  0  0  0  0
M  END
>  <MODEL>
3

>  <REMARK>
 VINA RESULT:      -9.3      2.772      5.650
  Name = 
  6 active torsions:
  status: ('A' for Active; 'I' for Inactive)
    1  A    between atoms: C_1  and  O_6
    2  A    between atoms: O_3  and  C_13
    3  A    between atoms: O_3  and  C_29
    4  A    between atoms: C_13  and  C_33
    5  A    between atoms: C_20  and  C_33
    6  A    between atoms: C_21  and  C_28
                            x       y       z     vdW  Elec       q    Type
                         _______ _______ _______ _____ _____    ______ ____

>  <TORSDO>
F 6

$$$$
=
 OpenBabel10272400123D

 34 38  0  0  1  0  0  0  0  0999 V2000
  191.4160  176.9490  139.7660 C   0  0  0  0  0  0  0  0  0  0  0  0
  189.2310  177.0910  138.4830 C   0  0  2  0  0  3  0  0  0  0  0  0
  189.4300  177.7780  140.9370 C   0  0  0  0  0  0  0  0  0  0  0  0
  187.1800  177.6780  142.0740 C   0  0  0  0  0  2  0  0  0  0  0  0
  189.5000  175.8620  137.8770 O   0  0  0  0  0  1  0  0  0  0  0  0
  187.3770  178.3300  139.6330 C   0  0  2  0  0  3  0  0  0  0  0  0
  190.0350  177.2470  139.7660 C   0  0  0  0  0  0  0  0  0  0  0  0
  185.8580  178.4420  139.7500 C   0  0  0  0  0  2  0  0  0  0  0  0
  186.0800  178.7160  142.3060 C   0  0  0  0  0  2  0  0  0  0  0  0
  190.2310  178.0390  142.0810 C   0  0  0  0  0  0  0  0  0  0  0  0
  192.1630  177.1270  140.9350 C   0  0  0  0  0  3  0  0  0  0  0  0
  187.7200  177.2110  138.6700 C   0  0  0  0  0  2  0  0  0  0  0  0
  185.4860  179.2590  140.9920 C   0  0  2  0  0  3  0  0  0  0  0  0
  188.0130  178.0480  140.9260 N   0  0  0  0  0  0  0  0  0  0  0  0
  191.5760  177.6580  142.0770 C   0  0  0  0  0  3  0  0  0  0  0  0
  191.2750  176.2540  146.0500 C   0  0  0  0  0  0  0  0  0  0  0  0
  190.5200  176.6140  147.0950 C   0  0  0  0  0  3  0  0  0  0  0  0
  190.0410  177.9340  144.6280 C   0  0  2  0  0  0  0  0  0  0  0  0
  189.3830  177.5450  146.9540 C   0  0  0  0  0  3  0  0  0  0  0  0
  190.9580  176.7030  144.6470 C   0  0  0  0  0  2  0  0  0  0  0  0
  190.8000  179.1780  144.2480 C   0  0  0  0  0  2  0  0  0  0  0  0
  189.1370  178.1600  145.7980 C   0  0  0  0  0  3  0  0  0  0  0  0
  189.6800  178.6750  143.3360 C   0  0  1  0  0  3  0  0  0  0  0  0
  192.3880  175.2930  146.2630 C   0  0  0  0  0  1  0  0  0  0  0  0
  192.0290  176.4770  138.5980 O   0  0  0  0  0  0  0  0  0  0  0  0
  193.4360  176.3200  138.4730 C   0  0  0  0  0  1  0  0  0  0  0  0
  184.1070  179.5430  141.0820 O   0  0  0  0  0  0  0  0  0  0  0  0
  183.4200  178.3580  141.4060 C   0  0  0  0  0  2  0  0  0  0  0  0
  181.3570  177.3790  140.6710 O   0  0  0  0  0  1  0  0  0  0  0  0
  181.9120  178.5350  141.2290 C   0  0  1  0  0  3  0  0  0  0  0  0
  180.0160  177.9920  142.7850 C   0  0  0  0  0  1  0  0  0  0  0  0
  181.1810  178.9310  142.5230 C   0  0  0  0  0  0  0  0  0  0  0  0
  180.7060  180.2410  142.4360 O   0  0  0  0  0  1  0  0  0  0  0  0
  182.1350  178.8300  143.6980 C   0  0  0  0  0  1  0  0  0  0  0  0
  1 11  1  0  0  0  0
  2  5  1  1  0  0  0
  2 12  1  0  0  0  0
  2  7  1  0  0  0  0
  3 10  2  0  0  0  0
  4  9  1  0  0  0  0
  6 12  1  6  0  0  0
  6  8  1  0  0  0  0
  6 14  1  0  0  0  0
  7  1  2  0  0  0  0
  7  3  1  0  0  0  0
  8 13  1  0  0  0  0
 11 15  2  0  0  0  0
 13 27  1  1  0  0  0
 13  9  1  0  0  0  0
 14  3  1  0  0  0  0
 14  4  1  0  0  0  0
 15 10  1  0  0  0  0
 16 24  1  0  0  0  0
 16 17  2  0  0  0  0
 18 21  1  1  0  0  0
 18 20  1  0  0  0  0
 18 22  1  0  0  0  0
 19 17  1  0  0  0  0
 20 16  1  0  0  0  0
 22 19  2  0  0  0  0
 23 10  1  6  0  0  0
 23 21  1  0  0  0  0
 23 18  1  0  0  0  0
 25  1  1  0  0  0  0
 26 25  1  0  0  0  0
 27 28  1  0  0  0  0
 30 29  1  1  0  0  0
 30 28  1  0  0  0  0
 30 32  1  0  0  0  0
 32 31  1  0  0  0  0
 32 34  1  0  0  0  0
 33 32  1  0  0  0  0
M  END
>  <MODEL>
4

>  <REMARK>
 VINA RESULT:      -8.9      3.145      8.597
  Name = 
  6 active torsions:
  status: ('A' for Active; 'I' for Inactive)
    1  A    between atoms: C_1  and  O_6
    2  A    between atoms: O_3  and  C_13
    3  A    between atoms: O_3  and  C_29
    4  A    between atoms: C_13  and  C_33
    5  A    between atoms: C_20  and  C_33
    6  A    between atoms: C_21  and  C_28
                            x       y       z     vdW  Elec       q    Type
                         _______ _______ _______ _____ _____    ______ ____

>  <TORSDO>
F 6

$$$$
=
 OpenBabel10272400123D

 34 38  0  0  1  0  0  0  0  0999 V2000
  186.7330  177.9330  136.2340 C   0  0  0  0  0  0  0  0  0  0  0  0
  188.5510  178.3810  137.9470 C   0  0  2  0  0  3  0  0  0  0  0  0
  186.1190  177.9470  138.6050 C   0  0  0  0  0  0  0  0  0  0  0  0
  185.6270  178.9160  140.8830 C   0  0  0  0  0  2  0  0  0  0  0  0
  189.0870  179.3750  137.1270 O   0  0  0  0  0  1  0  0  0  0  0  0
  187.9120  177.9660  140.3380 C   0  0  2  0  0  3  0  0  0  0  0  0
  187.0960  178.1120  137.5870 C   0  0  0  0  0  0  0  0  0  0  0  0
  188.2040  178.3790  141.7800 C   0  0  0  0  0  2  0  0  0  0  0  0
  185.6760  178.3350  142.2970 C   0  0  0  0  0  2  0  0  0  0  0  0
  184.7970  177.5640  138.2510 C   0  0  0  0  0  0  0  0  0  0  0  0
  185.4040  177.6490  135.9050 C   0  0  0  0  0  3  0  0  0  0  0  0
  188.7720  178.7930  139.4020 C   0  0  0  0  0  2  0  0  0  0  0  0
  187.0900  177.8770  142.7050 C   0  0  2  0  0  3  0  0  0  0  0  0
  186.5030  178.1640  139.9790 N   0  0  0  0  0  0  0  0  0  0  0  0
  184.4500  177.4750  136.9000 C   0  0  0  0  0  3  0  0  0  0  0  0
  181.4570  180.5060  138.7210 C   0  0  0  0  0  0  0  0  0  0  0  0
  180.7260  180.4220  139.8390 C   0  0  0  0  0  3  0  0  0  0  0  0
  182.6750  178.4040  139.4020 C   0  0  2  0  0  0  0  0  0  0  0  0
  181.0090  179.4180  140.8830 C   0  0  0  0  0  3  0  0  0  0  0  0
  182.6730  179.6440  138.4970 C   0  0  0  0  0  2  0  0  0  0  0  0
  182.3460  177.1570  138.6250 C   0  0  0  0  0  2  0  0  0  0  0  0
  181.9320  178.4740  140.6980 C   0  0  0  0  0  3  0  0  0  0  0  0
  183.7220  177.2930  139.2770 C   0  0  1  0  0  3  0  0  0  0  0  0
  181.1300  181.5590  137.7240 C   0  0  0  0  0  1  0  0  0  0  0  0
  187.7040  178.0400  135.2300 O   0  0  0  0  0  0  0  0  0  0  0  0
  188.2050  176.9180  134.5160 C   0  0  0  0  0  1  0  0  0  0  0  0
  187.3670  178.0790  144.0730 O   0  0  0  0  0  0  0  0  0  0  0  0
  188.2260  177.0570  144.5170 C   0  0  0  0  0  2  0  0  0  0  0  0
  189.3240  176.9940  146.6500 O   0  0  0  0  0  1  0  0  0  0  0  0
  189.3380  177.6240  145.4010 C   0  0  1  0  0  3  0  0  0  0  0  0
  190.7740  176.4700  143.6940 C   0  0  0  0  0  1  0  0  0  0  0  0
  190.7340  177.5510  144.7590 C   0  0  0  0  0  0  0  0  0  0  0  0
  191.7030  177.2810  145.7270 O   0  0  0  0  0  1  0  0  0  0  0  0
  191.0580  178.8750  144.0940 C   0  0  0  0  0  1  0  0  0  0  0  0
  1  7  1  0  0  0  0
  2  5  1  6  0  0  0
  2 12  1  0  0  0  0
  3 14  1  0  0  0  0
  4  9  1  0  0  0  0
  6 12  1  6  0  0  0
  6  8  1  0  0  0  0
  7  2  1  0  0  0  0
  7  3  2  0  0  0  0
  8 13  1  0  0  0  0
  9 13  1  0  0  0  0
 10  3  1  0  0  0  0
 11  1  2  0  0  0  0
 11 15  1  0  0  0  0
 13 27  1  1  0  0  0
 14  6  1  0  0  0  0
 14  4  1  0  0  0  0
 15 10  2  0  0  0  0
 16 17  2  0  0  0  0
 17 19  1  0  0  0  0
 18 20  1  6  0  0  0
 18 22  1  0  0  0  0
 20 16  1  0  0  0  0
 21 23  1  0  0  0  0
 21 18  1  0  0  0  0
 22 19  2  0  0  0  0
 23 10  1  6  0  0  0
 23 18  1  0  0  0  0
 24 16  1  0  0  0  0
 25  1  1  0  0  0  0
 26 25  1  0  0  0  0
 27 28  1  0  0  0  0
 28 30  1  0  0  0  0
 30 29  1  1  0  0  0
 31 32  1  0  0  0  0
 32 30  1  0  0  0  0
 32 33  1  0  0  0  0
 34 32  1  0  0  0  0
M  END
>  <MODEL>
5

>  <REMARK>
 VINA RESULT:      -8.9      3.092      7.296
  Name = 
  6 active torsions:
  status: ('A' for Active; 'I' for Inactive)
    1  A    between atoms: C_1  and  O_6
    2  A    between atoms: O_3  and  C_13
    3  A    between atoms: O_3  and  C_29
    4  A    between atoms: C_13  and  C_33
    5  A    between atoms: C_20  and  C_33
    6  A    between atoms: C_21  and  C_28
                            x       y       z     vdW  Elec       q    Type
                         _______ _______ _______ _____ _____    ______ ____

>  <TORSDO>
F 6

$$$$
=
 OpenBabel10272400123D

 34 38  0  0  1  0  0  0  0  0999 V2000
  190.7910  176.9840  146.6400 C   0  0  0  0  0  0  0  0  0  0  0  0
  188.8080  177.7910  148.0030 C   0  0  2  0  0  3  0  0  0  0  0  0
  188.6990  177.4820  145.4680 C   0  0  0  0  0  0  0  0  0  0  0  0
  186.8580  178.8960  144.4780 C   0  0  0  0  0  2  0  0  0  0  0  0
  189.6540  178.5990  148.7660 O   0  0  0  0  0  1  0  0  0  0  0  0
  186.6160  177.8740  146.7840 C   0  0  2  0  0  3  0  0  0  0  0  0
  189.4550  177.4420  146.6700 C   0  0  0  0  0  0  0  0  0  0  0  0
  185.2610  178.5770  146.7330 C   0  0  0  0  0  2  0  0  0  0  0  0
  185.3880  178.6200  144.1560 C   0  0  0  0  0  2  0  0  0  0  0  0
  189.2830  177.0240  144.2570 C   0  0  0  0  0  0  0  0  0  0  0  0
  191.3730  176.6260  145.4200 C   0  0  0  0  0  3  0  0  0  0  0  0
  187.4580  178.4960  147.8810 C   0  0  0  0  0  2  0  0  0  0  0  0
  184.5590  178.2680  145.4060 C   0  0  2  0  0  3  0  0  0  0  0  0
  187.3450  177.9810  145.5140 N   0  0  0  0  0  0  0  0  0  0  0  0
  190.6320  176.6540  144.2460 C   0  0  0  0  0  3  0  0  0  0  0  0
  191.5360  177.4330  140.4110 C   0  0  0  0  0  0  0  0  0  0  0  0
  190.8200  177.7110  139.3150 C   0  0  0  0  0  3  0  0  0  0  0  0
  189.3850  177.1900  141.7080 C   0  0  2  0  0  0  0  0  0  0  0  0
  189.3560  177.8930  139.3630 C   0  0  0  0  0  3  0  0  0  0  0  0
  190.9070  177.3770  141.7800 C   0  0  0  0  0  2  0  0  0  0  0  0
  188.9860  175.7880  142.0880 C   0  0  0  0  0  2  0  0  0  0  0  0
  188.6710  177.6660  140.4840 C   0  0  0  0  0  3  0  0  0  0  0  0
  188.5220  176.9600  142.9530 C   0  0  1  0  0  3  0  0  0  0  0  0
  193.0100  177.2880  140.2910 C   0  0  0  0  0  1  0  0  0  0  0  0
  191.5240  176.8890  147.8300 O   0  0  0  0  0  0  0  0  0  0  0  0
  192.3720  175.7890  148.1300 C   0  0  0  0  0  1  0  0  0  0  0  0
  183.2350  178.7500  145.3500 O   0  0  0  0  0  0  0  0  0  0  0  0
  182.9170  179.0470  144.0110 C   0  0  0  0  0  2  0  0  0  0  0  0
  180.5690  178.8700  144.4700 O   0  0  0  0  0  1  0  0  0  0  0  0
  181.5810  178.4190  143.6150 C   0  0  1  0  0  3  0  0  0  0  0  0
  180.3980  179.9290  141.9930 C   0  0  0  0  0  1  0  0  0  0  0  0
  181.2030  178.6500  142.1420 C   0  0  0  0  0  0  0  0  0  0  0  0
  180.4560  177.5750  141.6550 O   0  0  0  0  0  1  0  0  0  0  0  0
  182.4630  178.7900  141.3100 C   0  0  0  0  0  1  0  0  0  0  0  0
  1  7  1  0  0  0  0
  1 25  1  0  0  0  0
  2  5  1  6  0  0  0
  3 14  1  0  0  0  0
  3  7  2  0  0  0  0
  4 14  1  0  0  0  0
  6  8  1  6  0  0  0
  6 12  1  0  0  0  0
  7  2  1  0  0  0  0
  9  4  1  0  0  0  0
  9 13  1  0  0  0  0
 10  3  1  0  0  0  0
 11  1  2  0  0  0  0
 12  2  1  0  0  0  0
 13 27  1  6  0  0  0
 13  8  1  0  0  0  0
 14  6  1  0  0  0  0
 15 10  2  0  0  0  0
 15 11  1  0  0  0  0
 16 20  1  0  0  0  0
 17 19  1  0  0  0  0
 17 16  2  0  0  0  0
 18 22  1  6  0  0  0
 18 20  1  0  0  0  0
 18 21  1  0  0  0  0
 18 23  1  0  0  0  0
 19 22  2  0  0  0  0
 21 23  1  0  0  0  0
 23 10  1  1  0  0  0
 24 16  1  0  0  0  0
 25 26  1  0  0  0  0
 28 27  1  0  0  0  0
 30 28  1  0  0  0  0
 30 29  1  1  0  0  0
 31 32  1  0  0  0  0
 32 30  1  0  0  0  0
 33 32  1  0  0  0  0
 34 32  1  0  0  0  0
M  END
>  <MODEL>
6

>  <REMARK>
 VINA RESULT:      -8.7      3.247      7.753
  Name = 
  6 active torsions:
  status: ('A' for Active; 'I' for Inactive)
    1  A    between atoms: C_1  and  O_6
    2  A    between atoms: O_3  and  C_13
    3  A    between atoms: O_3  and  C_29
    4  A    between atoms: C_13  and  C_33
    5  A    between atoms: C_20  and  C_33
    6  A    between atoms: C_21  and  C_28
                            x       y       z     vdW  Elec       q    Type
                         _______ _______ _______ _____ _____    ______ ____

>  <TORSDO>
F 6

$$$$
=
 OpenBabel10272400123D

 34 38  0  0  1  0  0  0  0  0999 V2000
  185.6770  178.2480  143.6530 C   0  0  0  0  0  0  0  0  0  0  0  0
  188.0420  177.7310  142.8940 C   0  0  2  0  0  3  0  0  0  0  0  0
  186.1810  178.3610  141.2590 C   0  0  0  0  0  0  0  0  0  0  0  0
  186.7060  177.5110  138.9420 C   0  0  0  0  0  2  0  0  0  0  0  0
  188.1090  176.6730  143.8020 O   0  0  0  0  0  1  0  0  0  0  0  0
  188.5550  178.2740  140.4980 C   0  0  2  0  0  3  0  0  0  0  0  0
  186.5940  178.0910  142.5910 C   0  0  0  0  0  0  0  0  0  0  0  0
  189.4370  177.8930  139.3110 C   0  0  0  0  0  2  0  0  0  0  0  0
  187.4070  178.1360  137.7350 C   0  0  0  0  0  2  0  0  0  0  0  0
  184.8600  178.8250  141.0160 C   0  0  0  0  0  0  0  0  0  0  0  0
  184.3550  178.6150  143.3790 C   0  0  0  0  0  3  0  0  0  0  0  0
  188.8670  177.3560  141.6640 C   0  0  0  0  0  2  0  0  0  0  0  0
  188.8750  178.5060  138.0230 C   0  0  2  0  0  3  0  0  0  0  0  0
  187.1250  178.1660  140.1850 N   0  0  0  0  0  0  0  0  0  0  0  0
  183.9530  178.8920  142.0790 C   0  0  0  0  0  3  0  0  0  0  0  0
  181.6840  176.3360  139.0790 C   0  0  0  0  0  0  0  0  0  0  0  0
  181.5150  176.4870  137.7600 C   0  0  0  0  0  3  0  0  0  0  0  0
  183.3380  178.2410  139.0480 C   0  0  2  0  0  0  0  0  0  0  0  0
  182.3430  177.4180  136.9680 C   0  0  0  0  0  3  0  0  0  0  0  0
  182.7900  177.0370  139.8260 C   0  0  0  0  0  2  0  0  0  0  0  0
  182.8760  179.5410  139.6510 C   0  0  0  0  0  2  0  0  0  0  0  0
  183.2140  178.2360  137.5570 C   0  0  0  0  0  3  0  0  0  0  0  0
  184.3680  179.2090  139.6410 C   0  0  1  0  0  3  0  0  0  0  0  0
  180.8310  175.3620  139.8080 C   0  0  0  0  0  1  0  0  0  0  0  0
  186.0940  178.0360  144.9740 O   0  0  0  0  0  0  0  0  0  0  0  0
  185.5940  178.7870  146.0720 C   0  0  0  0  0  1  0  0  0  0  0  0
  189.7220  178.3320  136.9070 O   0  0  0  0  0  0  0  0  0  0  0  0
  189.3050  177.1930  136.1950 C   0  0  0  0  0  2  0  0  0  0  0  0
  191.5610  176.6260  136.7850 O   0  0  0  0  0  1  0  0  0  0  0  0
  190.4010  176.1260  136.1830 C   0  0  1  0  0  3  0  0  0  0  0  0
  188.4610  174.7200  136.9370 C   0  0  0  0  0  1  0  0  0  0  0  0
  189.9740  174.7960  136.8260 C   0  0  0  0  0  0  0  0  0  0  0  0
  190.5360  174.6640  138.0970 O   0  0  0  0  0  1  0  0  0  0  0  0
  190.4370  173.6400  135.9600 C   0  0  0  0  0  1  0  0  0  0  0  0
  1 25  1  0  0  0  0
  2  5  1  1  0  0  0
  3  7  1  0  0  0  0
  4 14  1  0  0  0  0
  6  8  1  6  0  0  0
  6 12  1  0  0  0  0
  7  2  1  0  0  0  0
  7  1  2  0  0  0  0
  9 13  1  0  0  0  0
  9  4  1  0  0  0  0
 10  3  2  0  0  0  0
 10 15  1  0  0  0  0
 11  1  1  0  0  0  0
 12  2  1  0  0  0  0
 13 27  1  6  0  0  0
 13  8  1  0  0  0  0
 14  6  1  0  0  0  0
 14  3  1  0  0  0  0
 15 11  2  0  0  0  0
 16 24  1  0  0  0  0
 16 20  1  0  0  0  0
 17 16  2  0  0  0  0
 18 22  1  6  0  0  0
 18 23  1  0  0  0  0
 18 21  1  0  0  0  0
 18 20  1  0  0  0  0
 19 22  2  0  0  0  0
 19 17  1  0  0  0  0
 23 21  1  0  0  0  0
 23 10  1  1  0  0  0
 25 26  1  0  0  0  0
 28 27  1  0  0  0  0
 30 28  1  0  0  0  0
 30 29  1  1  0  0  0
 30 32  1  0  0  0  0
 32 31  1  0  0  0  0
 32 33  1  0  0  0  0
 34 32  1  0  0  0  0
M  END
>  <MODEL>
7

>  <REMARK>
 VINA RESULT:      -8.6      2.617      3.830
  Name = 
  6 active torsions:
  status: ('A' for Active; 'I' for Inactive)
    1  A    between atoms: C_1  and  O_6
    2  A    between atoms: O_3  and  C_13
    3  A    between atoms: O_3  and  C_29
    4  A    between atoms: C_13  and  C_33
    5  A    between atoms: C_20  and  C_33
    6  A    between atoms: C_21  and  C_28
                            x       y       z     vdW  Elec       q    Type
                         _______ _______ _______ _____ _____    ______ ____

>  <TORSDO>
F 6

$$$$
=
 OpenBabel10272400123D

 34 38  0  0  1  0  0  0  0  0999 V2000
  185.2200  178.6250  138.8330 C   0  0  0  0  0  0  0  0  0  0  0  0
  185.3280  178.5990  141.3680 C   0  0  2  0  0  3  0  0  0  0  0  0
  187.3640  178.1140  139.9010 C   0  0  0  0  0  0  0  0  0  0  0  0
  189.0750  176.7620  141.1720 C   0  0  0  0  0  2  0  0  0  0  0  0
  184.0930  177.9510  141.4210 O   0  0  0  0  0  1  0  0  0  0  0  0
  187.6330  178.4780  142.3540 C   0  0  2  0  0  3  0  0  0  0  0  0
  185.9790  178.4110  140.0050 C   0  0  0  0  0  0  0  0  0  0  0  0
  188.4290  178.0110  143.5710 C   0  0  0  0  0  2  0  0  0  0  0  0
  190.2940  177.1460  142.0120 C   0  0  0  0  0  2  0  0  0  0  0  0
  187.9780  178.0750  138.6200 C   0  0  0  0  0  0  0  0  0  0  0  0
  185.8270  178.4890  137.5800 C   0  0  0  0  0  3  0  0  0  0  0  0
  186.1750  178.1090  142.5420 C   0  0  0  0  0  2  0  0  0  0  0  0
  189.9260  177.9940  143.2440 C   0  0  2  0  0  3  0  0  0  0  0  0
  188.1160  177.8690  141.1090 N   0  0  0  0  0  0  0  0  0  0  0  0
  187.1840  178.2110  137.4770 C   0  0  0  0  0  3  0  0  0  0  0  0
  189.3540  174.2110  136.8290 C   0  0  0  0  0  0  0  0  0  0  0  0
  190.6450  173.8960  136.9830 C   0  0  0  0  0  3  0  0  0  0  0  0
  189.8140  176.4580  137.8810 C   0  0  2  0  0  0  0  0  0  0  0  0
  191.5790  174.7690  137.7210 C   0  0  0  0  0  3  0  0  0  0  0  0
  188.7480  175.4300  137.4770 C   0  0  0  0  0  2  0  0  0  0  0  0
  189.8100  177.6460  136.9540 C   0  0  0  0  0  2  0  0  0  0  0  0
  191.1980  175.9670  138.1620 C   0  0  0  0  0  3  0  0  0  0  0  0
  189.4590  177.8440  138.4290 C   0  0  1  0  0  3  0  0  0  0  0  0
  188.4660  173.2720  136.0950 C   0  0  0  0  0  1  0  0  0  0  0  0
  183.8670  178.9730  138.9310 O   0  0  0  0  0  0  0  0  0  0  0  0
  182.8610  178.4060  138.1030 C   0  0  0  0  0  1  0  0  0  0  0  0
  190.7390  177.7280  144.3660 O   0  0  0  0  0  0  0  0  0  0  0  0
  190.0770  178.1790  145.5230 C   0  0  0  0  0  2  0  0  0  0  0  0
  191.0220  176.7170  147.1750 O   0  0  0  0  0  1  0  0  0  0  0  0
  189.8370  177.0260  146.4980 C   0  0  1  0  0  3  0  0  0  0  0  0
  189.0450  178.4110  148.4390 C   0  0  0  0  0  1  0  0  0  0  0  0
  188.6870  177.2830  147.4870 C   0  0  0  0  0  0  0  0  0  0  0  0
  188.4070  176.1300  148.2230 O   0  0  0  0  0  1  0  0  0  0  0  0
  187.4420  177.6930  146.7230 C   0  0  0  0  0  1  0  0  0  0  0  0
  1 25  1  0  0  0  0
  1  7  1  0  0  0  0
  2  5  1  6  0  0  0
  2 12  1  0  0  0  0
  3  7  2  0  0  0  0
  3 14  1  0  0  0  0
  4  9  1  0  0  0  0
  6 12  1  1  0  0  0
  6  8  1  0  0  0  0
  7  2  1  0  0  0  0
  9 13  1  0  0  0  0
 10  3  1  0  0  0  0
 11  1  2  0  0  0  0
 13  8  1  0  0  0  0
 13 27  1  1  0  0  0
 14  4  1  0  0  0  0
 14  6  1  0  0  0  0
 15 11  1  0  0  0  0
 15 10  2  0  0  0  0
 16 17  2  0  0  0  0
 16 20  1  0  0  0  0
 17 19  1  0  0  0  0
 18 21  1  6  0  0  0
 18 22  1  0  0  0  0
 18 23  1  0  0  0  0
 19 22  2  0  0  0  0
 20 18  1  0  0  0  0
 21 23  1  0  0  0  0
 23 10  1  6  0  0  0
 24 16  1  0  0  0  0
 26 25  1  0  0  0  0
 27 28  1  0  0  0  0
 28 30  1  0  0  0  0
 30 29  1  1  0  0  0
 30 32  1  0  0  0  0
 32 33  1  0  0  0  0
 32 31  1  0  0  0  0
 34 32  1  0  0  0  0
M  END
>  <MODEL>
8

>  <REMARK>
 VINA RESULT:      -8.6      2.915      8.027
  Name = 
  6 active torsions:
  status: ('A' for Active; 'I' for Inactive)
    1  A    between atoms: C_1  and  O_6
    2  A    between atoms: O_3  and  C_13
    3  A    between atoms: O_3  and  C_29
    4  A    between atoms: C_13  and  C_33
    5  A    between atoms: C_20  and  C_33
    6  A    between atoms: C_21  and  C_28
                            x       y       z     vdW  Elec       q    Type
                         _______ _______ _______ _____ _____    ______ ____

>  <TORSDO>
F 6

$$$$
=
 OpenBabel10272400123D

 34 38  0  0  1  0  0  0  0  0999 V2000
  190.8290  176.9740  143.1990 C   0  0  0  0  0  0  0  0  0  0  0  0
  188.7150  177.0140  144.6010 C   0  0  2  0  0  3  0  0  0  0  0  0
  188.7620  177.7860  142.1650 C   0  0  0  0  0  0  0  0  0  0  0  0
  186.8530  179.3680  141.6950 C   0  0  0  0  0  2  0  0  0  0  0  0
  189.4430  177.4800  145.6970 O   0  0  0  0  0  1  0  0  0  0  0  0
  186.5890  177.4630  143.3460 C   0  0  2  0  0  3  0  0  0  0  0  0
  189.4570  177.2940  143.3020 C   0  0  0  0  0  0  0  0  0  0  0  0
  185.1800  178.0380  143.4760 C   0  0  0  0  0  2  0  0  0  0  0  0
  185.4330  179.1620  141.1660 C   0  0  0  0  0  2  0  0  0  0  0  0
  189.4470  177.9120  140.9270 C   0  0  0  0  0  0  0  0  0  0  0  0
  191.5030  177.1950  141.9930 C   0  0  0  0  0  3  0  0  0  0  0  0
  187.3140  177.6200  144.6680 C   0  0  0  0  0  2  0  0  0  0  0  0
  184.5770  178.2690  142.0850 C   0  0  2  0  0  3  0  0  0  0  0  0
  187.3680  178.1350  142.2990 N   0  0  0  0  0  0  0  0  0  0  0  0
  190.8230  177.6650  140.8780 C   0  0  0  0  0  3  0  0  0  0  0  0
  190.3230  175.7200  137.1250 C   0  0  0  0  0  0  0  0  0  0  0  0
  189.9810  176.3260  135.9810 C   0  0  0  0  0  3  0  0  0  0  0  0
  189.1970  177.5800  138.4050 C   0  0  2  0  0  0  0  0  0  0  0  0
  189.3570  177.6630  135.9630 C   0  0  0  0  0  3  0  0  0  0  0  0
  190.1780  176.4000  138.4610 C   0  0  0  0  0  2  0  0  0  0  0  0
  187.8910  177.2390  139.0720 C   0  0  0  0  0  2  0  0  0  0  0  0
  188.9970  178.2700  137.0940 C   0  0  0  0  0  3  0  0  0  0  0  0
  188.7620  178.3520  139.6540 C   0  0  1  0  0  3  0  0  0  0  0  0
  190.9720  174.3840  137.0650 C   0  0  0  0  0  1  0  0  0  0  0  0
  191.5060  176.4360  144.3010 O   0  0  0  0  0  0  0  0  0  0  0  0
  191.9820  175.0970  144.3380 C   0  0  0  0  0  1  0  0  0  0  0  0
  183.2190  178.6480  142.1220 O   0  0  0  0  0  0  0  0  0  0  0  0
  182.7550  178.7980  140.8020 C   0  0  0  0  0  2  0  0  0  0  0  0
  180.6190  177.7280  140.5750 O   0  0  0  0  0  1  0  0  0  0  0  0
  181.9890  177.5550  140.3480 C   0  0  1  0  0  3  0  0  0  0  0  0
  183.1520  178.1920  138.2150 C   0  0  0  0  0  1  0  0  0  0  0  0
  182.2620  177.1600  138.8870 C   0  0  0  0  0  0  0  0  0  0  0  0
  181.0650  177.0520  138.1780 O   0  0  0  0  0  1  0  0  0  0  0  0
  182.9810  175.8250  138.8460 C   0  0  0  0  0  1  0  0  0  0  0  0
  1  7  1  0  0  0  0
  1 25  1  0  0  0  0
  2 12  1  0  0  0  0
  2  5  1  1  0  0  0
  3 14  1  0  0  0  0
  3  7  2  0  0  0  0
  4 14  1  0  0  0  0
  6  8  1  1  0  0  0
  6 12  1  0  0  0  0
  7  2  1  0  0  0  0
  9  4  1  0  0  0  0
  9 13  1  0  0  0  0
 10  3  1  0  0  0  0
 11  1  2  0  0  0  0
 13 27  1  1  0  0  0
 13  8  1  0  0  0  0
 14  6  1  0  0  0  0
 15 10  2  0  0  0  0
 15 11  1  0  0  0  0
 16 20  1  0  0  0  0
 17 16  2  0  0  0  0
 18 22  1  6  0  0  0
 18 20  1  0  0  0  0
 18 21  1  0  0  0  0
 18 23  1  0  0  0  0
 19 17  1  0  0  0  0
 19 22  2  0  0  0  0
 21 23  1  0  0  0  0
 23 10  1  1  0  0  0
 24 16  1  0  0  0  0
 25 26  1  0  0  0  0
 28 27  1  0  0  0  0
 30 29  1  6  0  0  0
 30 28  1  0  0  0  0
 31 32  1  0  0  0  0
 32 30  1  0  0  0  0
 33 32  1  0  0  0  0
 34 32  1  0  0  0  0
M  END
>  <MODEL>
9

>  <REMARK>
 VINA RESULT:      -8.4      3.390      7.377
  Name = 
  6 active torsions:
  status: ('A' for Active; 'I' for Inactive)
    1  A    between atoms: C_1  and  O_6
    2  A    between atoms: O_3  and  C_13
    3  A    between atoms: O_3  and  C_29
    4  A    between atoms: C_13  and  C_33
    5  A    between atoms: C_20  and  C_33
    6  A    between atoms: C_21  and  C_28
                            x       y       z     vdW  Elec       q    Type
                         _______ _______ _______ _____ _____    ______ ____

>  <TORSDO>
F 6

$$$$
