=
 OpenBabel10272414013D

 30 32  0  0  1  0  0  0  0  0999 V2000
  190.5120  175.8370  142.9870 C   0  0  0  0  0  0  0  0  0  0  0  0
  189.3340  178.9210  144.2230 C   0  0  0  0  0  2  0  0  0  0  0  0
  188.2970  178.4970  141.5460 C   0  0  0  0  0  1  0  0  0  0  0  0
  188.5230  177.6840  143.8010 C   0  0  2  0  0  3  0  0  0  0  0  0
  191.1910  176.2190  144.1940 N   0  0  0  0  0  2  0  0  0  0  0  0
  190.3070  174.6120  142.7700 O   0  0  0  0  0  0  0  0  0  0  0  0
  190.8340  178.7530  143.9940 C   0  0  0  0  0  2  0  0  0  0  0  0
  191.3750  177.5490  144.7010 C   0  0  0  0  0  0  0  0  0  0  0  0
  188.6280  177.3310  142.3680 N   0  0  0  0  0  0  0  0  0  0  0  0
  191.9920  177.7110  145.7850 O   0  0  0  0  0  0  0  0  0  0  0  0
  189.9840  176.8690  142.0130 C   0  0  2  0  0  3  0  0  0  0  0  0
  186.6710  177.5600  145.4720 C   0  0  0  0  0  3  0  0  0  0  0  0
  187.0900  177.8170  144.2280 C   0  0  0  0  0  3  0  0  0  0  0  0
  187.5980  177.1220  146.5610 C   0  0  0  0  0  2  0  0  0  0  0  0
  187.8510  178.2730  147.5110 C   0  0  0  0  0  3  0  0  0  0  0  0
  189.2260  178.1090  148.1250 C   0  0  0  0  0  2  0  0  0  0  0  0
  187.9940  177.7310  148.9180 C   0  0  0  0  0  2  0  0  0  0  0  0
  190.0110  176.3330  140.5790 C   0  0  0  0  0  2  0  0  0  0  0  0
  190.9810  177.1110  139.6940 C   0  0  0  0  0  2  0  0  0  0  0  0
  191.0200  176.5800  138.2580 C   0  0  2  0  0  0  0  0  0  0  0  0
  192.5110  176.1760  136.1400 C   0  0  0  0  0  1  0  0  0  0  0  0
  191.3940  175.1140  138.1300 C   0  0  0  0  0  2  0  0  0  0  0  0
  192.3600  176.1840  137.6520 C   0  0  2  0  0  0  0  0  0  0  0  0
  189.9850  176.9950  137.3130 N   0  0  0  0  0  2  0  0  0  0  0  0
  189.6190  178.3110  137.6260 N   0  0  0  0  0  2  0  0  0  0  0  0
  187.0230  177.8230  137.4910 S   0  0  0  0  0  0  0  0  0  0  0  0
  188.3230  178.7880  137.2910 C   0  0  0  0  0  3  0  0  0  0  0  0
  193.6130  176.2180  138.5120 C   0  0  0  0  0  2  0  0  0  0  0  0
  194.6120  175.4400  137.9300 O   0  0  0  0  0  0  0  0  0  0  0  0
  195.3620  175.0540  138.9410 O   0  0  0  0  0  1  0  0  0  0  0  0
  1  5  1  0  0  0  0
  3  9  1  0  0  0  0
  4  2  1  0  0  0  0
  4 13  1  6  0  0  0
  5  8  1  0  0  0  0
  6  1  2  0  0  0  0
  7  2  1  0  0  0  0
  7  8  1  0  0  0  0
  8 10  2  0  0  0  0
  9  4  1  0  0  0  0
 11 18  1  6  0  0  0
 11  9  1  0  0  0  0
 11  1  1  0  0  0  0
 12 14  1  0  0  0  0
 13 12  2  0  0  0  0
 14 15  1  0  0  0  0
 15 16  1  0  0  0  0
 15 17  1  0  0  0  0
 16 17  1  0  0  0  0
 19 18  1  0  0  0  0
 20 19  1  1  0  0  0
 22 20  1  0  0  0  0
 23 21  1  6  0  0  0
 23 22  1  0  0  0  0
 23 20  1  0  0  0  0
 23 28  1  0  0  0  0
 24 25  1  0  0  0  0
 24 20  1  0  0  0  0
 27 26  2  0  0  0  0
 27 25  1  0  0  0  0
 29 28  1  0  0  0  0
 29 30  1  0  0  0  0
M  END
>  <MODEL>
1

>  <REMARK>
 VINA RESULT:      -6.2      0.000      0.000
  Name = 
  11 active torsions:
  status: ('A' for Active; 'I' for Inactive)
    1  A    between atoms: C_1  and  C_4
    2  A    between atoms: C_1  and  C_22
    3  A    between atoms: C_4  and  N_5
    4  A    between atoms: N_5  and  N_21
    5  A    between atoms: C_10  and  C_25
    6  A    between atoms: C_11  and  C_24
    7  A    between atoms: C_12  and  C_27
    8  A    between atoms: O_13  and  C_27
    9  A    between atoms: C_15  and  C_25
   10  A    between atoms: C_17  and  N_21
   11  A    between atoms: C_22  and  C_29
                            x       y       z     vdW  Elec       q    Type
                         _______ _______ _______ _____ _____    ______ ____

>  <TORSDO>
F 11

$$$$
=
 OpenBabel10272414013D

 30 32  0  0  1  0  0  0  0  0999 V2000
  184.4500  178.6130  139.7670 C   0  0  0  0  0  0  0  0  0  0  0  0
  181.1610  177.4650  140.3050 C   0  0  0  0  0  2  0  0  0  0  0  0
  182.1380  178.7530  142.7150 C   0  0  0  0  0  1  0  0  0  0  0  0
  181.6940  178.9070  140.3540 C   0  0  2  0  0  3  0  0  0  0  0  0
  184.0100  177.7490  138.7070 N   0  0  0  0  0  2  0  0  0  0  0  0
  185.2290  179.5640  139.4870 O   0  0  0  0  0  0  0  0  0  0  0  0
  182.2590  176.4350  140.0490 C   0  0  0  0  0  2  0  0  0  0  0  0
  183.0080  176.7230  138.7850 C   0  0  0  0  0  0  0  0  0  0  0  0
  182.6840  179.1680  141.4210 N   0  0  0  0  0  0  0  0  0  0  0  0
  182.7350  176.0560  137.7550 O   0  0  0  0  0  0  0  0  0  0  0  0
  183.9500  178.4460  141.1860 C   0  0  2  0  0  3  0  0  0  0  0  0
  180.2600  180.7140  139.3960 C   0  0  0  0  0  3  0  0  0  0  0  0
  180.5600  179.8900  140.4060 C   0  0  0  0  0  3  0  0  0  0  0  0
  181.0240  180.7260  138.1110 C   0  0  0  0  0  2  0  0  0  0  0  0
  180.2690  179.9410  137.0590 C   0  0  0  0  0  3  0  0  0  0  0  0
  181.2380  179.0230  136.3430 C   0  0  0  0  0  2  0  0  0  0  0  0
  180.7970  180.3140  135.6900 C   0  0  0  0  0  2  0  0  0  0  0  0
  185.0140  178.8840  142.1970 C   0  0  0  0  0  2  0  0  0  0  0  0
  185.5490  177.7090  143.0110 C   0  0  0  0  0  2  0  0  0  0  0  0
  187.0760  177.7260  143.1320 C   0  0  2  0  0  0  0  0  0  0  0  0
  189.1150  178.1290  144.7290 C   0  0  0  0  0  1  0  0  0  0  0  0
  187.6970  176.4090  143.5610 C   0  0  0  0  0  2  0  0  0  0  0  0
  187.7100  177.5940  144.5100 C   0  0  2  0  0  0  0  0  0  0  0  0
  187.8660  178.4350  142.1270 N   0  0  0  0  0  2  0  0  0  0  0  0
  188.2440  177.5090  141.1450 N   0  0  0  0  0  2  0  0  0  0  0  0
  188.9360  178.3990  138.7530 S   0  0  0  0  0  0  0  0  0  0  0  0
  189.2910  177.8230  140.2360 C   0  0  0  0  0  3  0  0  0  0  0  0
  186.8270  177.3380  145.7220 C   0  0  0  0  0  2  0  0  0  0  0  0
  186.8580  178.4380  146.5760 O   0  0  0  0  0  0  0  0  0  0  0  0
  185.8260  179.1680  146.2120 O   0  0  0  0  0  1  0  0  0  0  0  0
  1 11  1  0  0  0  0
  2  4  1  0  0  0  0
  4 13  1  1  0  0  0
  4  9  1  0  0  0  0
  5  8  1  0  0  0  0
  5  1  1  0  0  0  0
  6  1  2  0  0  0  0
  7  2  1  0  0  0  0
  8  7  1  0  0  0  0
  9  3  1  0  0  0  0
 10  8  2  0  0  0  0
 11  9  1  0  0  0  0
 11 18  1  1  0  0  0
 12 13  2  0  0  0  0
 14 12  1  0  0  0  0
 15 14  1  0  0  0  0
 16 15  1  0  0  0  0
 17 16  1  0  0  0  0
 17 15  1  0  0  0  0
 18 19  1  0  0  0  0
 20 19  1  6  0  0  0
 20 22  1  0  0  0  0
 20 23  1  0  0  0  0
 22 23  1  0  0  0  0
 23 21  1  1  0  0  0
 23 28  1  0  0  0  0
 24 20  1  0  0  0  0
 25 24  1  0  0  0  0
 26 27  2  0  0  0  0
 27 25  1  0  0  0  0
 28 29  1  0  0  0  0
 30 29  1  0  0  0  0
M  END
>  <MODEL>
2

>  <REMARK>
 VINA RESULT:      -5.9      5.556      9.100
  Name = 
  11 active torsions:
  status: ('A' for Active; 'I' for Inactive)
    1  A    between atoms: C_1  and  C_4
    2  A    between atoms: C_1  and  C_22
    3  A    between atoms: C_4  and  N_5
    4  A    between atoms: N_5  and  N_21
    5  A    between atoms: C_10  and  C_25
    6  A    between atoms: C_11  and  C_24
    7  A    between atoms: C_12  and  C_27
    8  A    between atoms: O_13  and  C_27
    9  A    between atoms: C_15  and  C_25
   10  A    between atoms: C_17  and  N_21
   11  A    between atoms: C_22  and  C_29
                            x       y       z     vdW  Elec       q    Type
                         _______ _______ _______ _____ _____    ______ ____

>  <TORSDO>
F 11

$$$$
=
 OpenBabel10272414013D

 30 32  0  0  1  0  0  0  0  0999 V2000
  190.7710  175.8940  143.1530 C   0  0  0  0  0  0  0  0  0  0  0  0
  189.5600  178.7600  144.8100 C   0  0  0  0  0  2  0  0  0  0  0  0
  188.8670  178.9100  141.9960 C   0  0  0  0  0  1  0  0  0  0  0  0
  188.7650  177.6770  144.0610 C   0  0  2  0  0  3  0  0  0  0  0  0
  191.3000  176.0000  144.4840 N   0  0  0  0  0  2  0  0  0  0  0  0
  190.5490  174.7470  142.6800 O   0  0  0  0  0  0  0  0  0  0  0  0
  191.0700  178.5450  144.7370 C   0  0  0  0  0  2  0  0  0  0  0  0
  191.4660  177.1990  145.2580 C   0  0  0  0  0  0  0  0  0  0  0  0
  189.0430  177.5930  142.6100 N   0  0  0  0  0  0  0  0  0  0  0  0
  191.9420  177.1160  146.4190 O   0  0  0  0  0  0  0  0  0  0  0  0
  190.4150  177.1220  142.3400 C   0  0  2  0  0  3  0  0  0  0  0  0
  186.7410  177.5690  145.5210 C   0  0  0  0  0  3  0  0  0  0  0  0
  187.2940  177.8180  144.3290 C   0  0  0  0  0  3  0  0  0  0  0  0
  187.5420  177.1330  146.7060 C   0  0  0  0  0  2  0  0  0  0  0  0
  187.6310  178.2640  147.7080 C   0  0  0  0  0  3  0  0  0  0  0  0
  189.0210  178.2790  148.3080 C   0  0  0  0  0  2  0  0  0  0  0  0
  187.8680  177.6870  149.0870 C   0  0  0  0  0  2  0  0  0  0  0  0
  190.6090  176.8630  140.8430 C   0  0  0  0  0  2  0  0  0  0  0  0
  189.2800  176.6900  140.1150 C   0  0  0  0  0  2  0  0  0  0  0  0
  189.3420  177.1660  138.6600 C   0  0  2  0  0  0  0  0  0  0  0  0
  187.9520  177.8170  136.5350 C   0  0  0  0  0  1  0  0  0  0  0  0
  189.3020  178.6730  138.4790 C   0  0  0  0  0  2  0  0  0  0  0  0
  188.1160  177.8290  138.0450 C   0  0  2  0  0  0  0  0  0  0  0  0
  190.2470  176.4980  137.7260 N   0  0  0  0  0  2  0  0  0  0  0  0
  190.2020  175.1220  137.9920 N   0  0  0  0  0  2  0  0  0  0  0  0
  188.3100  173.8910  136.6150 S   0  0  0  0  0  0  0  0  0  0  0  0
  189.8730  174.2080  136.9550 C   0  0  0  0  0  3  0  0  0  0  0  0
  186.8980  178.1050  138.9110 C   0  0  0  0  0  2  0  0  0  0  0  0
  185.8410  178.5500  138.1210 O   0  0  0  0  0  0  0  0  0  0  0  0
  185.2110  179.4270  138.8730 O   0  0  0  0  0  1  0  0  0  0  0  0
  1  5  1  0  0  0  0
  3  9  1  0  0  0  0
  4 13  1  6  0  0  0
  4  2  1  0  0  0  0
  5  8  1  0  0  0  0
  6  1  2  0  0  0  0
  7  2  1  0  0  0  0
  7  8  1  0  0  0  0
  8 10  2  0  0  0  0
  9  4  1  0  0  0  0
 11 18  1  6  0  0  0
 11  9  1  0  0  0  0
 11  1  1  0  0  0  0
 12 14  1  0  0  0  0
 13 12  2  0  0  0  0
 14 15  1  0  0  0  0
 15 16  1  0  0  0  0
 15 17  1  0  0  0  0
 16 17  1  0  0  0  0
 19 18  1  0  0  0  0
 20 19  1  1  0  0  0
 22 20  1  0  0  0  0
 23 21  1  6  0  0  0
 23 22  1  0  0  0  0
 23 20  1  0  0  0  0
 23 28  1  0  0  0  0
 24 25  1  0  0  0  0
 24 20  1  0  0  0  0
 26 27  2  0  0  0  0
 27 25  1  0  0  0  0
 29 30  1  0  0  0  0
 29 28  1  0  0  0  0
M  END
>  <MODEL>
3

>  <REMARK>
 VINA RESULT:      -5.8      2.369      3.575
  Name = 
  11 active torsions:
  status: ('A' for Active; 'I' for Inactive)
    1  A    between atoms: C_1  and  C_4
    2  A    between atoms: C_1  and  C_22
    3  A    between atoms: C_4  and  N_5
    4  A    between atoms: N_5  and  N_21
    5  A    between atoms: C_10  and  C_25
    6  A    between atoms: C_11  and  C_24
    7  A    between atoms: C_12  and  C_27
    8  A    between atoms: O_13  and  C_27
    9  A    between atoms: C_15  and  C_25
   10  A    between atoms: C_17  and  N_21
   11  A    between atoms: C_22  and  C_29
                            x       y       z     vdW  Elec       q    Type
                         _______ _______ _______ _____ _____    ______ ____

>  <TORSDO>
F 11

$$$$
=
 OpenBabel10272414013D

 30 32  0  0  1  0  0  0  0  0999 V2000
  188.2540  178.4530  141.0560 C   0  0  0  0  0  0  0  0  0  0  0  0
  188.6610  177.0000  144.2420 C   0  0  0  0  0  2  0  0  0  0  0  0
  190.9260  176.3020  142.5680 C   0  0  0  0  0  1  0  0  0  0  0  0
  189.5580  178.0300  143.5360 C   0  0  2  0  0  3  0  0  0  0  0  0
  187.0540  178.5490  141.8400 N   0  0  0  0  0  2  0  0  0  0  0  0
  188.5260  179.3850  140.2520 O   0  0  0  0  0  0  0  0  0  0  0  0
  187.4920  176.5380  143.3750 C   0  0  0  0  0  2  0  0  0  0  0  0
  186.6500  177.6870  142.9160 C   0  0  0  0  0  0  0  0  0  0  0  0
  190.2040  177.5460  142.2950 N   0  0  0  0  0  0  0  0  0  0  0  0
  185.5640  177.9150  143.5070 O   0  0  0  0  0  0  0  0  0  0  0  0
  189.2200  177.3000  141.2230 C   0  0  2  0  0  3  0  0  0  0  0  0
  190.6360  178.2440  145.7790 C   0  0  0  0  0  3  0  0  0  0  0  0
  190.5670  178.6000  144.4910 C   0  0  0  0  0  3  0  0  0  0  0  0
  189.7160  177.2350  146.3870 C   0  0  0  0  0  2  0  0  0  0  0  0
  189.3610  177.6510  147.7980 C   0  0  0  0  0  3  0  0  0  0  0  0
  188.1020  176.9230  148.2230 C   0  0  0  0  0  2  0  0  0  0  0  0
  188.0280  178.3680  147.7820 C   0  0  0  0  0  2  0  0  0  0  0  0
  189.9320  176.9860  139.9040 C   0  0  0  0  0  2  0  0  0  0  0  0
  189.0570  176.1630  138.9620 C   0  0  0  0  0  2  0  0  0  0  0  0
  189.2530  176.5480  137.4930 C   0  0  2  0  0  0  0  0  0  0  0  0
  188.0690  177.0160  135.2010 C   0  0  0  0  0  1  0  0  0  0  0  0
  189.1910  178.0380  137.2090 C   0  0  0  0  0  2  0  0  0  0  0  0
  188.0790  177.1280  136.7170 C   0  0  2  0  0  0  0  0  0  0  0  0
  190.2670  175.8530  136.7000 N   0  0  0  0  0  2  0  0  0  0  0  0
  190.8310  174.8540  137.5050 N   0  0  0  0  0  2  0  0  0  0  0  0
  193.1070  176.1560  137.8550 S   0  0  0  0  0  0  0  0  0  0  0  0
  192.2410  174.7860  137.6690 C   0  0  0  0  0  3  0  0  0  0  0  0
  186.7720  177.4180  137.4370 C   0  0  0  0  0  2  0  0  0  0  0  0
  186.6390  178.7880  137.6530 O   0  0  0  0  0  0  0  0  0  0  0  0
  185.6430  178.8930  138.5070 O   0  0  0  0  0  1  0  0  0  0  0  0
  1 11  1  0  0  0  0
  1  5  1  0  0  0  0
  4  2  1  0  0  0  0
  4 13  1  1  0  0  0
  5  8  1  0  0  0  0
  6  1  2  0  0  0  0
  7  2  1  0  0  0  0
  8  7  1  0  0  0  0
  8 10  2  0  0  0  0
  9  3  1  0  0  0  0
  9  4  1  0  0  0  0
 11 18  1  6  0  0  0
 11  9  1  0  0  0  0
 12 14  1  0  0  0  0
 13 12  2  0  0  0  0
 14 15  1  0  0  0  0
 15 16  1  0  0  0  0
 17 15  1  0  0  0  0
 17 16  1  0  0  0  0
 19 18  1  0  0  0  0
 20 19  1  1  0  0  0
 22 20  1  0  0  0  0
 23 21  1  6  0  0  0
 23 22  1  0  0  0  0
 23 28  1  0  0  0  0
 23 20  1  0  0  0  0
 24 20  1  0  0  0  0
 24 25  1  0  0  0  0
 25 27  1  0  0  0  0
 27 26  2  0  0  0  0
 28 29  1  0  0  0  0
 29 30  1  0  0  0  0
M  END
>  <MODEL>
4

>  <REMARK>
 VINA RESULT:      -5.6      3.155      4.521
  Name = 
  11 active torsions:
  status: ('A' for Active; 'I' for Inactive)
    1  A    between atoms: C_1  and  C_4
    2  A    between atoms: C_1  and  C_22
    3  A    between atoms: C_4  and  N_5
    4  A    between atoms: N_5  and  N_21
    5  A    between atoms: C_10  and  C_25
    6  A    between atoms: C_11  and  C_24
    7  A    between atoms: C_12  and  C_27
    8  A    between atoms: O_13  and  C_27
    9  A    between atoms: C_15  and  C_25
   10  A    between atoms: C_17  and  N_21
   11  A    between atoms: C_22  and  C_29
                            x       y       z     vdW  Elec       q    Type
                         _______ _______ _______ _____ _____    ______ ____

>  <TORSDO>
F 11

$$$$
=
 OpenBabel10272414013D

 30 32  0  0  1  0  0  0  0  0999 V2000
  191.9370  176.9470  139.5200 C   0  0  0  0  0  0  0  0  0  0  0  0
  189.1350  176.4690  137.4340 C   0  0  0  0  0  2  0  0  0  0  0  0
  188.3020  177.7940  139.8780 C   0  0  0  0  0  1  0  0  0  0  0  0
  189.7370  177.7890  137.9450 C   0  0  2  0  0  3  0  0  0  0  0  0
  192.2380  176.0750  138.4190 N   0  0  0  0  0  2  0  0  0  0  0  0
  192.8420  177.7090  139.9530 O   0  0  0  0  0  0  0  0  0  0  0  0
  189.8490  175.2380  137.9880 C   0  0  0  0  0  2  0  0  0  0  0  0
  191.3140  175.2590  137.6810 C   0  0  0  0  0  0  0  0  0  0  0  0
  189.6790  177.9730  139.4120 N   0  0  0  0  0  0  0  0  0  0  0  0
  191.7430  174.5530  136.7340 O   0  0  0  0  0  0  0  0  0  0  0  0
  190.5490  177.0150  140.1210 C   0  0  2  0  0  3  0  0  0  0  0  0
  188.0180  178.8770  136.4960 C   0  0  0  0  0  3  0  0  0  0  0  0
  189.1380  178.9610  137.2220 C   0  0  0  0  0  3  0  0  0  0  0  0
  187.2510  177.6030  136.3410 C   0  0  0  0  0  2  0  0  0  0  0  0
  185.8220  177.8070  136.7990 C   0  0  0  0  0  3  0  0  0  0  0  0
  185.2480  176.4730  137.2250 C   0  0  0  0  0  2  0  0  0  0  0  0
  184.8930  177.0510  135.8730 C   0  0  0  0  0  2  0  0  0  0  0  0
  190.6140  177.3520  141.6140 C   0  0  0  0  0  2  0  0  0  0  0  0
  190.0340  176.2370  142.4790 C   0  0  0  0  0  2  0  0  0  0  0  0
  189.2420  176.7740  143.6750 C   0  0  2  0  0  0  0  0  0  0  0  0
  189.1370  176.9770  146.2860 C   0  0  0  0  0  1  0  0  0  0  0  0
  189.6370  178.1690  144.1270 C   0  0  0  0  0  2  0  0  0  0  0  0
  189.9550  176.9720  145.0060 C   0  0  2  0  0  0  0  0  0  0  0  0
  187.8020  176.5320  143.7470 N   0  0  0  0  0  2  0  0  0  0  0  0
  187.1560  177.5670  143.0570 N   0  0  0  0  0  2  0  0  0  0  0  0
  185.7400  178.2190  145.1940 S   0  0  0  0  0  0  0  0  0  0  0  0
  185.9630  178.1350  143.5800 C   0  0  0  0  0  3  0  0  0  0  0  0
  191.4540  176.7400  145.0970 C   0  0  0  0  0  2  0  0  0  0  0  0
  191.9280  177.1570  146.3390 O   0  0  0  0  0  0  0  0  0  0  0  0
  192.3730  176.0580  146.9090 O   0  0  0  0  0  1  0  0  0  0  0  0
  1  6  2  0  0  0  0
  1 11  1  0  0  0  0
  2  4  1  0  0  0  0
  2  7  1  0  0  0  0
  4 13  1  6  0  0  0
  4  9  1  0  0  0  0
  5  1  1  0  0  0  0
  8  7  1  0  0  0  0
  8  5  1  0  0  0  0
  9  3  1  0  0  0  0
  9 11  1  0  0  0  0
 10  8  2  0  0  0  0
 11 18  1  1  0  0  0
 12 13  2  0  0  0  0
 14 12  1  0  0  0  0
 14 15  1  0  0  0  0
 15 16  1  0  0  0  0
 17 15  1  0  0  0  0
 17 16  1  0  0  0  0
 18 19  1  0  0  0  0
 20 19  1  6  0  0  0
 20 24  1  0  0  0  0
 20 22  1  0  0  0  0
 20 23  1  0  0  0  0
 22 23  1  0  0  0  0
 23 28  1  0  0  0  0
 23 21  1  1  0  0  0
 25 27  1  0  0  0  0
 25 24  1  0  0  0  0
 27 26  2  0  0  0  0
 28 29  1  0  0  0  0
 29 30  1  0  0  0  0
M  END
>  <MODEL>
5

>  <REMARK>
 VINA RESULT:      -5.5      2.471      7.561
  Name = 
  11 active torsions:
  status: ('A' for Active; 'I' for Inactive)
    1  A    between atoms: C_1  and  C_4
    2  A    between atoms: C_1  and  C_22
    3  A    between atoms: C_4  and  N_5
    4  A    between atoms: N_5  and  N_21
    5  A    between atoms: C_10  and  C_25
    6  A    between atoms: C_11  and  C_24
    7  A    between atoms: C_12  and  C_27
    8  A    between atoms: O_13  and  C_27
    9  A    between atoms: C_15  and  C_25
   10  A    between atoms: C_17  and  N_21
   11  A    between atoms: C_22  and  C_29
                            x       y       z     vdW  Elec       q    Type
                         _______ _______ _______ _____ _____    ______ ____

>  <TORSDO>
F 11

$$$$
=
 OpenBabel10272414013D

 30 32  0  0  1  0  0  0  0  0999 V2000
  183.8230  179.5330  139.1890 C   0  0  0  0  0  0  0  0  0  0  0  0
  180.3150  179.2380  139.3890 C   0  0  0  0  0  2  0  0  0  0  0  0
  181.5060  176.5910  139.3690 C   0  0  0  0  0  1  0  0  0  0  0  0
  181.3770  178.7640  140.3960 C   0  0  2  0  0  3  0  0  0  0  0  0
  183.1700  180.7890  138.9460 N   0  0  0  0  0  2  0  0  0  0  0  0
  184.9400  179.5350  139.7720 O   0  0  0  0  0  0  0  0  0  0  0  0
  180.9240  179.8500  138.1290 C   0  0  0  0  0  2  0  0  0  0  0  0
  181.8370  180.9930  138.4510 C   0  0  0  0  0  0  0  0  0  0  0  0
  182.2880  177.7130  139.8920 N   0  0  0  0  0  0  0  0  0  0  0  0
  181.4130  182.1660  138.3010 O   0  0  0  0  0  0  0  0  0  0  0  0
  183.1710  178.2170  138.8220 C   0  0  2  0  0  3  0  0  0  0  0  0
  181.2230  178.7040  142.8880 C   0  0  0  0  0  3  0  0  0  0  0  0
  180.7360  178.3580  141.6920 C   0  0  0  0  0  3  0  0  0  0  0  0
  182.4530  179.5390  143.0480 C   0  0  0  0  0  2  0  0  0  0  0  0
  183.4750  178.7910  143.8770 C   0  0  0  0  0  3  0  0  0  0  0  0
  184.8110  179.4930  143.7600 C   0  0  0  0  0  2  0  0  0  0  0  0
  184.5450  178.2360  142.9620 C   0  0  0  0  0  2  0  0  0  0  0  0
  184.2240  177.1670  138.4570 C   0  0  0  0  0  2  0  0  0  0  0  0
  184.6460  177.2630  136.9940 C   0  0  0  0  0  2  0  0  0  0  0  0
  185.8800  176.4110  136.6810 C   0  0  2  0  0  0  0  0  0  0  0  0
  188.2330  176.3510  135.5270 C   0  0  0  0  0  1  0  0  0  0  0  0
  186.9920  176.4970  137.7120 C   0  0  0  0  0  2  0  0  0  0  0  0
  187.1900  177.1060  136.3340 C   0  0  2  0  0  0  0  0  0  0  0  0
  185.7020  175.0660  136.1370 N   0  0  0  0  0  2  0  0  0  0  0  0
  185.6160  174.1740  137.2150 N   0  0  0  0  0  2  0  0  0  0  0  0
  183.0140  173.7680  136.9740 S   0  0  0  0  0  0  0  0  0  0  0  0
  184.5300  173.2610  137.2970 C   0  0  0  0  0  3  0  0  0  0  0  0
  187.2800  178.6220  136.4110 C   0  0  0  0  0  2  0  0  0  0  0  0
  187.8120  179.0070  137.6400 O   0  0  0  0  0  0  0  0  0  0  0  0
  188.9770  179.5420  137.3430 O   0  0  0  0  0  1  0  0  0  0  0  0
  1  6  2  0  0  0  0
  2  4  1  0  0  0  0
  3  9  1  0  0  0  0
  4 13  1  1  0  0  0
  5  1  1  0  0  0  0
  7  8  1  0  0  0  0
  7  2  1  0  0  0  0
  8  5  1  0  0  0  0
  9  4  1  0  0  0  0
 10  8  2  0  0  0  0
 11 18  1  1  0  0  0
 11  1  1  0  0  0  0
 11  9  1  0  0  0  0
 12 14  1  0  0  0  0
 13 12  2  0  0  0  0
 14 15  1  0  0  0  0
 16 15  1  0  0  0  0
 17 16  1  0  0  0  0
 17 15  1  0  0  0  0
 19 18  1  0  0  0  0
 20 19  1  1  0  0  0
 20 22  1  0  0  0  0
 23 21  1  6  0  0  0
 23 28  1  0  0  0  0
 23 20  1  0  0  0  0
 23 22  1  0  0  0  0
 24 20  1  0  0  0  0
 24 25  1  0  0  0  0
 25 27  1  0  0  0  0
 26 27  2  0  0  0  0
 28 29  1  0  0  0  0
 30 29  1  0  0  0  0
M  END
>  <MODEL>
6

>  <REMARK>
 VINA RESULT:      -5.4      6.015      7.705
  Name = 
  11 active torsions:
  status: ('A' for Active; 'I' for Inactive)
    1  A    between atoms: C_1  and  C_4
    2  A    between atoms: C_1  and  C_22
    3  A    between atoms: C_4  and  N_5
    4  A    between atoms: N_5  and  N_21
    5  A    between atoms: C_10  and  C_25
    6  A    between atoms: C_11  and  C_24
    7  A    between atoms: C_12  and  C_27
    8  A    between atoms: O_13  and  C_27
    9  A    between atoms: C_15  and  C_25
   10  A    between atoms: C_17  and  N_21
   11  A    between atoms: C_22  and  C_29
                            x       y       z     vdW  Elec       q    Type
                         _______ _______ _______ _____ _____    ______ ____

>  <TORSDO>
F 11

$$$$
=
 OpenBabel10272414013D

 30 32  0  0  1  0  0  0  0  0999 V2000
  188.3100  178.4540  140.3320 C   0  0  0  0  0  0  0  0  0  0  0  0
  188.0960  177.6460  143.7570 C   0  0  0  0  0  2  0  0  0  0  0  0
  190.1350  176.0030  142.5040 C   0  0  0  0  0  1  0  0  0  0  0  0
  189.2960  178.2100  142.9770 C   0  0  2  0  0  3  0  0  0  0  0  0
  187.1530  179.0450  140.9450 N   0  0  0  0  0  2  0  0  0  0  0  0
  188.8900  179.0810  139.4050 O   0  0  0  0  0  0  0  0  0  0  0  0
  186.8900  177.3600  142.8640 C   0  0  0  0  0  2  0  0  0  0  0  0
  186.4550  178.5780  142.1100 C   0  0  0  0  0  0  0  0  0  0  0  0
  189.8330  177.3150  141.9280 N   0  0  0  0  0  0  0  0  0  0  0  0
  185.4570  179.2210  142.5230 O   0  0  0  0  0  0  0  0  0  0  0  0
  188.8780  177.1370  140.8160 C   0  0  2  0  0  3  0  0  0  0  0  0
  190.4820  178.2160  145.1750 C   0  0  0  0  0  3  0  0  0  0  0  0
  190.3760  178.6600  143.9180 C   0  0  0  0  0  3  0  0  0  0  0  0
  189.5340  177.2200  145.7610 C   0  0  0  0  0  2  0  0  0  0  0  0
  189.7760  177.0980  147.2510 C   0  0  0  0  0  3  0  0  0  0  0  0
  188.4540  176.8400  147.9430 C   0  0  0  0  0  2  0  0  0  0  0  0
  189.0600  178.2260  147.9620 C   0  0  0  0  0  2  0  0  0  0  0  0
  189.5320  176.3660  139.6650 C   0  0  0  0  0  2  0  0  0  0  0  0
  190.5050  177.2350  138.8740 C   0  0  0  0  0  2  0  0  0  0  0  0
  190.8770  176.6180  137.5220 C   0  0  2  0  0  0  0  0  0  0  0  0
  192.8210  176.0940  135.8440 C   0  0  0  0  0  1  0  0  0  0  0  0
  191.2570  175.1490  137.5740 C   0  0  0  0  0  2  0  0  0  0  0  0
  192.3180  176.1930  137.2740 C   0  0  2  0  0  0  0  0  0  0  0  0
  190.0970  176.9690  136.3360 N   0  0  0  0  0  2  0  0  0  0  0  0
  189.1320  175.9710  136.1450 N   0  0  0  0  0  2  0  0  0  0  0  0
  187.2420  177.7880  136.4990 S   0  0  0  0  0  0  0  0  0  0  0  0
  187.7630  176.3250  136.0010 C   0  0  0  0  0  3  0  0  0  0  0  0
  193.3330  176.2860  138.4020 C   0  0  0  0  0  2  0  0  0  0  0  0
  194.4490  175.5050  138.1060 O   0  0  0  0  0  0  0  0  0  0  0  0
  195.1440  175.4840  139.2230 O   0  0  0  0  0  1  0  0  0  0  0  0
  1 11  1  0  0  0  0
  1  5  1  0  0  0  0
  4  2  1  0  0  0  0
  4 13  1  1  0  0  0
  5  8  1  0  0  0  0
  6  1  2  0  0  0  0
  7  2  1  0  0  0  0
  8 10  2  0  0  0  0
  8  7  1  0  0  0  0
  9  3  1  0  0  0  0
  9  4  1  0  0  0  0
 11 18  1  6  0  0  0
 11  9  1  0  0  0  0
 12 14  1  0  0  0  0
 13 12  2  0  0  0  0
 14 15  1  0  0  0  0
 15 16  1  0  0  0  0
 15 17  1  0  0  0  0
 16 17  1  0  0  0  0
 19 18  1  0  0  0  0
 20 22  1  0  0  0  0
 20 19  1  1  0  0  0
 23 21  1  6  0  0  0
 23 20  1  0  0  0  0
 23 22  1  0  0  0  0
 23 28  1  0  0  0  0
 24 20  1  0  0  0  0
 25 24  1  0  0  0  0
 27 25  1  0  0  0  0
 27 26  2  0  0  0  0
 29 28  1  0  0  0  0
 29 30  1  0  0  0  0
M  END
>  <MODEL>
7

>  <REMARK>
 VINA RESULT:      -5.2      2.093      3.030
  Name = 
  11 active torsions:
  status: ('A' for Active; 'I' for Inactive)
    1  A    between atoms: C_1  and  C_4
    2  A    between atoms: C_1  and  C_22
    3  A    between atoms: C_4  and  N_5
    4  A    between atoms: N_5  and  N_21
    5  A    between atoms: C_10  and  C_25
    6  A    between atoms: C_11  and  C_24
    7  A    between atoms: C_12  and  C_27
    8  A    between atoms: O_13  and  C_27
    9  A    between atoms: C_15  and  C_25
   10  A    between atoms: C_17  and  N_21
   11  A    between atoms: C_22  and  C_29
                            x       y       z     vdW  Elec       q    Type
                         _______ _______ _______ _____ _____    ______ ____

>  <TORSDO>
F 11

$$$$
=
 OpenBabel10272414013D

 30 32  0  0  1  0  0  0  0  0999 V2000
  183.7240  179.4810  139.1550 C   0  0  0  0  0  0  0  0  0  0  0  0
  180.3150  179.7870  139.9970 C   0  0  0  0  0  2  0  0  0  0  0  0
  181.1000  176.9980  140.1590 C   0  0  0  0  0  1  0  0  0  0  0  0
  181.4740  179.2690  140.8650 C   0  0  2  0  0  3  0  0  0  0  0  0
  183.2170  180.7890  138.8470 N   0  0  0  0  0  2  0  0  0  0  0  0
  184.9220  179.3690  139.5290 O   0  0  0  0  0  0  0  0  0  0  0  0
  180.7480  180.1390  138.5760 C   0  0  0  0  0  2  0  0  0  0  0  0
  181.8550  181.1470  138.5650 C   0  0  0  0  0  0  0  0  0  0  0  0
  182.1160  178.0310  140.3700 N   0  0  0  0  0  0  0  0  0  0  0  0
  181.5770  182.3480  138.3200 O   0  0  0  0  0  0  0  0  0  0  0  0
  182.8370  178.2540  139.1020 C   0  0  2  0  0  3  0  0  0  0  0  0
  181.9040  178.9200  143.3000 C   0  0  0  0  0  3  0  0  0  0  0  0
  181.0450  179.1290  142.2970 C   0  0  0  0  0  3  0  0  0  0  0  0
  183.3800  178.8130  143.0890 C   0  0  0  0  0  2  0  0  0  0  0  0
  184.1090  179.5600  144.1850 C   0  0  0  0  0  3  0  0  0  0  0  0
  185.2700  178.7150  144.6670 C   0  0  0  0  0  2  0  0  0  0  0  0
  183.9940  178.7800  145.4770 C   0  0  0  0  0  2  0  0  0  0  0  0
  183.6450  177.0110  138.7180 C   0  0  0  0  0  2  0  0  0  0  0  0
  183.8660  176.9140  137.2110 C   0  0  0  0  0  2  0  0  0  0  0  0
  185.2460  176.3530  136.8560 C   0  0  2  0  0  0  0  0  0  0  0  0
  186.6940  174.1850  136.5770 C   0  0  0  0  0  1  0  0  0  0  0  0
  185.4380  176.0140  135.3880 C   0  0  0  0  0  2  0  0  0  0  0  0
  185.3620  174.8990  136.4170 C   0  0  2  0  0  0  0  0  0  0  0  0
  186.4370  176.9350  137.4730 N   0  0  0  0  0  2  0  0  0  0  0  0
  186.9180  177.9370  136.6190 N   0  0  0  0  0  2  0  0  0  0  0  0
  189.0520  178.7950  137.9250 S   0  0  0  0  0  0  0  0  0  0  0  0
  188.3070  178.2370  136.5860 C   0  0  0  0  0  3  0  0  0  0  0  0
  184.1040  174.0670  136.2330 C   0  0  0  0  0  2  0  0  0  0  0  0
  183.8760  173.2890  137.3670 O   0  0  0  0  0  0  0  0  0  0  0  0
  183.8760  172.0500  136.9230 O   0  0  0  0  0  1  0  0  0  0  0  0
  1  6  2  0  0  0  0
  2  4  1  0  0  0  0
  3  9  1  0  0  0  0
  4 13  1  1  0  0  0
  5  1  1  0  0  0  0
  7  2  1  0  0  0  0
  8  7  1  0  0  0  0
  8  5  1  0  0  0  0
  9  4  1  0  0  0  0
 10  8  2  0  0  0  0
 11 18  1  1  0  0  0
 11  1  1  0  0  0  0
 11  9  1  0  0  0  0
 13 12  2  0  0  0  0
 14 12  1  0  0  0  0
 14 15  1  0  0  0  0
 15 16  1  0  0  0  0
 15 17  1  0  0  0  0
 16 17  1  0  0  0  0
 19 18  1  0  0  0  0
 20 19  1  1  0  0  0
 20 24  1  0  0  0  0
 22 23  1  0  0  0  0
 22 20  1  0  0  0  0
 23 21  1  1  0  0  0
 23 20  1  0  0  0  0
 25 24  1  0  0  0  0
 27 25  1  0  0  0  0
 27 26  2  0  0  0  0
 28 23  1  0  0  0  0
 28 29  1  0  0  0  0
 30 29  1  0  0  0  0
M  END
>  <MODEL>
8

>  <REMARK>
 VINA RESULT:      -5.1      6.100      7.927
  Name = 
  11 active torsions:
  status: ('A' for Active; 'I' for Inactive)
    1  A    between atoms: C_1  and  C_4
    2  A    between atoms: C_1  and  C_22
    3  A    between atoms: C_4  and  N_5
    4  A    between atoms: N_5  and  N_21
    5  A    between atoms: C_10  and  C_25
    6  A    between atoms: C_11  and  C_24
    7  A    between atoms: C_12  and  C_27
    8  A    between atoms: O_13  and  C_27
    9  A    between atoms: C_15  and  C_25
   10  A    between atoms: C_17  and  N_21
   11  A    between atoms: C_22  and  C_29
                            x       y       z     vdW  Elec       q    Type
                         _______ _______ _______ _____ _____    ______ ____

>  <TORSDO>
F 11

$$$$
=
 OpenBabel10272414013D

 30 32  0  0  1  0  0  0  0  0999 V2000
  190.5270  177.1210  141.1720 C   0  0  0  0  0  0  0  0  0  0  0  0
  189.0650  178.4750  144.0810 C   0  0  0  0  0  2  0  0  0  0  0  0
  187.2200  178.7520  141.8570 C   0  0  0  0  0  1  0  0  0  0  0  0
  188.5740  177.3000  143.2190 C   0  0  2  0  0  3  0  0  0  0  0  0
  191.4820  177.2450  142.2380 N   0  0  0  0  0  2  0  0  0  0  0  0
  190.6380  176.1560  140.3700 O   0  0  0  0  0  0  0  0  0  0  0  0
  190.3170  179.1420  143.5170 C   0  0  0  0  0  2  0  0  0  0  0  0
  191.4370  178.1650  143.3400 C   0  0  0  0  0  0  0  0  0  0  0  0
  188.1950  177.6590  141.8340 N   0  0  0  0  0  0  0  0  0  0  0  0
  192.3570  178.1370  144.1970 O   0  0  0  0  0  0  0  0  0  0  0  0
  189.3620  178.0800  141.0360 C   0  0  2  0  0  3  0  0  0  0  0  0
  187.1530  176.7500  145.1980 C   0  0  0  0  0  3  0  0  0  0  0  0
  187.4700  176.5560  143.9130 C   0  0  0  0  0  3  0  0  0  0  0  0
  187.8680  177.7380  146.0640 C   0  0  0  0  0  2  0  0  0  0  0  0
  188.3130  177.0660  147.3450 C   0  0  0  0  0  3  0  0  0  0  0  0
  187.7140  177.8080  148.5220 C   0  0  0  0  0  2  0  0  0  0  0  0
  189.1610  178.0340  148.1430 C   0  0  0  0  0  2  0  0  0  0  0  0
  188.9710  178.2610  139.5660 C   0  0  0  0  0  2  0  0  0  0  0  0
  188.1710  177.0740  139.0360 C   0  0  0  0  0  2  0  0  0  0  0  0
  187.7500  177.2560  137.5750 C   0  0  2  0  0  0  0  0  0  0  0  0
  185.7350  177.3520  135.9000 C   0  0  0  0  0  1  0  0  0  0  0  0
  187.4470  178.6890  137.1720 C   0  0  0  0  0  2  0  0  0  0  0  0
  186.3190  177.6760  137.2650 C   0  0  2  0  0  0  0  0  0  0  0  0
  188.4370  176.4980  136.5310 N   0  0  0  0  0  2  0  0  0  0  0  0
  189.6740  177.1130  136.2960 N   0  0  0  0  0  2  0  0  0  0  0  0
  191.4460  175.2170  135.7890 S   0  0  0  0  0  0  0  0  0  0  0  0
  190.8770  176.4600  136.6780 C   0  0  0  0  0  3  0  0  0  0  0  0
  185.3710  178.0120  138.4050 C   0  0  0  0  0  2  0  0  0  0  0  0
  185.0870  179.3760  138.4040 O   0  0  0  0  0  0  0  0  0  0  0  0
  184.8180  179.6590  139.6610 O   0  0  0  0  0  1  0  0  0  0  0  0
  1  5  1  0  0  0  0
  4 13  1  1  0  0  0
  4  2  1  0  0  0  0
  5  8  1  0  0  0  0
  6  1  2  0  0  0  0
  7  2  1  0  0  0  0
  8  7  1  0  0  0  0
  8 10  2  0  0  0  0
  9  3  1  0  0  0  0
  9  4  1  0  0  0  0
 11 18  1  6  0  0  0
 11  1  1  0  0  0  0
 11  9  1  0  0  0  0
 12 14  1  0  0  0  0
 13 12  2  0  0  0  0
 14 15  1  0  0  0  0
 15 17  1  0  0  0  0
 15 16  1  0  0  0  0
 17 16  1  0  0  0  0
 19 18  1  0  0  0  0
 20 19  1  1  0  0  0
 22 23  1  0  0  0  0
 22 20  1  0  0  0  0
 23 21  1  6  0  0  0
 23 20  1  0  0  0  0
 23 28  1  0  0  0  0
 24 20  1  0  0  0  0
 25 24  1  0  0  0  0
 25 27  1  0  0  0  0
 26 27  2  0  0  0  0
 29 28  1  0  0  0  0
 29 30  1  0  0  0  0
M  END
>  <MODEL>
9

>  <REMARK>
 VINA RESULT:      -5.1      2.822      4.239
  Name = 
  11 active torsions:
  status: ('A' for Active; 'I' for Inactive)
    1  A    between atoms: C_1  and  C_4
    2  A    between atoms: C_1  and  C_22
    3  A    between atoms: C_4  and  N_5
    4  A    between atoms: N_5  and  N_21
    5  A    between atoms: C_10  and  C_25
    6  A    between atoms: C_11  and  C_24
    7  A    between atoms: C_12  and  C_27
    8  A    between atoms: O_13  and  C_27
    9  A    between atoms: C_15  and  C_25
   10  A    between atoms: C_17  and  N_21
   11  A    between atoms: C_22  and  C_29
                            x       y       z     vdW  Elec       q    Type
                         _______ _______ _______ _____ _____    ______ ____

>  <TORSDO>
F 11

$$$$
