=
 OpenBabel10272413293D

 32 35  0  0  1  0  0  0  0  0999 V2000
  188.7410  177.2990  142.7670 C   0  0  0  0  0  0  0  0  0  0  0  0
  183.9180  178.7000  143.1590 C   0  0  0  0  0  3  0  0  0  0  0  0
  184.0670  178.8500  144.4820 C   0  0  0  0  0  3  0  0  0  0  0  0
  190.1930  177.1210  144.8060 C   0  0  0  0  0  0  0  0  0  0  0  0
  190.2540  177.1010  146.2470 N   0  0  0  0  0  0  0  0  0  0  0  0
  190.0260  177.4820  140.6320 C   0  0  1  0  0  3  0  0  0  0  0  0
  187.7120  178.4140  140.7880 C   0  0  0  0  0  2  0  0  0  0  0  0
  189.0860  177.8770  148.2690 C   0  0  0  0  0  0  0  0  0  0  0  0
  185.0360  178.2200  142.2730 C   0  0  0  0  0  2  0  0  0  0  0  0
  187.4350  177.6170  142.0640 C   0  0  2  0  0  3  0  0  0  0  0  0
  186.4180  178.3730  142.9160 C   0  0  2  0  0  3  0  0  0  0  0  0
  187.7630  177.9190  144.9860 C   0  0  1  0  0  3  0  0  0  0  0  0
  190.3530  178.2460  148.9640 C   0  0  0  0  0  1  0  0  0  0  0  0
  188.7060  177.6880  139.8830 C   0  0  1  0  0  3  0  0  0  0  0  0
  191.4560  176.5740  146.8830 C   0  0  0  0  0  1  0  0  0  0  0  0
  185.3920  178.6600  145.1680 C   0  0  0  0  0  2  0  0  0  0  0  0
  186.3790  177.8260  144.3420 C   0  0  1  0  0  3  0  0  0  0  0  0
  187.7480  177.1900  146.3260 C   0  0  0  0  0  2  0  0  0  0  0  0
  189.7900  176.6600  141.8980 C   0  0  0  0  0  2  0  0  0  0  0  0
  191.2490  176.9240  144.1460 O   0  0  0  0  0  0  0  0  0  0  0  0
  187.8640  178.1310  148.9600 N   0  0  0  0  0  1  0  0  0  0  0  0
  188.8930  177.4030  144.1120 C   0  0  0  0  0  0  0  0  0  0  0  0
  189.0630  177.3870  147.0120 C   0  0  0  0  0  0  0  0  0  0  0  0
  192.1840  177.3640  140.1460 C   0  0  0  0  0  1  0  0  0  0  0  0
  190.9440  176.8110  139.8190 O   0  0  0  0  0  0  0  0  0  0  0  0
  188.9340  178.5080  138.6200 C   0  0  0  0  0  2  0  0  0  0  0  0
  188.3200  177.8320  137.4040 C   0  0  0  0  0  2  0  0  0  0  0  0
  186.9730  178.4510  137.0800 C   0  0  0  0  0  2  0  0  0  0  0  0
  185.8690  177.4600  137.4070 C   0  0  0  0  0  2  0  0  0  0  0  0
  184.8300  178.0630  138.3440 C   0  0  0  0  0  3  0  0  0  0  0  0
  185.1870  179.3660  138.6950 O   0  0  0  0  0  1  0  0  0  0  0  0
  183.5710  178.0630  137.7410 O   0  0  0  0  0  1  0  0  0  0  0  0
  1 22  2  0  0  0  0
  2  3  2  0  0  0  0
  3 16  1  0  0  0  0
  4  5  1  0  0  0  0
  5 15  1  0  0  0  0
  5 23  1  0  0  0  0
  6 25  1  6  0  0  0
  6 19  1  0  0  0  0
  8 21  1  0  0  0  0
  8 13  1  0  0  0  0
  9  2  1  0  0  0  0
 10  7  1  6  0  0  0
 10  1  1  0  0  0  0
 10 11  1  0  0  0  0
 11  9  1  6  0  0  0
 11 17  1  0  0  0  0
 12 18  1  1  0  0  0
 14 26  1  6  0  0  0
 14  6  1  0  0  0  0
 14  7  1  0  0  0  0
 17 12  1  0  0  0  0
 17 16  1  1  0  0  0
 18 23  1  0  0  0  0
 19  1  1  0  0  0  0
 20  4  2  0  0  0  0
 22  4  1  0  0  0  0
 22 12  1  0  0  0  0
 23  8  2  0  0  0  0
 25 24  1  0  0  0  0
 27 26  1  0  0  0  0
 28 27  1  0  0  0  0
 28 29  1  0  0  0  0
 29 30  1  0  0  0  0
 30 31  1  0  0  0  0
 32 30  1  0  0  0  0
M  END
>  <MODEL>
1

>  <REMARK>
 VINA RESULT:      -9.7      0.000      0.000
  Name = 
  6 active torsions:
  status: ('A' for Active; 'I' for Inactive)
    1  A    between atoms: C_1  and  C_10
    2  A    between atoms: C_2  and  C_12
    3  A    between atoms: C_2  and  C_24
    4  A    between atoms: C_8  and  O_23
    5  A    between atoms: C_10  and  C_24
    6  A    between atoms: C_12  and  C_21
                            x       y       z     vdW  Elec       q    Type
                         _______ _______ _______ _____ _____    ______ ____

>  <TORSDO>
F 6

$$$$
=
 OpenBabel10272413293D

 32 35  0  0  1  0  0  0  0  0999 V2000
  186.6760  178.3230  142.1600 C   0  0  0  0  0  0  0  0  0  0  0  0
  186.2290  178.2460  147.1780 C   0  0  0  0  0  3  0  0  0  0  0  0
  184.8970  178.3170  147.0630 C   0  0  0  0  0  3  0  0  0  0  0  0
  184.6460  178.5210  140.6970 C   0  0  0  0  0  0  0  0  0  0  0  0
  183.2330  178.7970  140.6240 N   0  0  0  0  0  0  0  0  0  0  0  0
  188.6860  177.4310  140.9740 C   0  0  1  0  0  3  0  0  0  0  0  0
  188.4550  177.1410  143.4460 C   0  0  0  0  0  2  0  0  0  0  0  0
  181.1510  178.7270  141.9360 C   0  0  0  0  0  0  0  0  0  0  0  0
  187.1430  178.2610  145.9810 C   0  0  0  0  0  2  0  0  0  0  0  0
  187.3610  178.2080  143.5080 C   0  0  2  0  0  3  0  0  0  0  0  0
  186.4260  177.8980  144.6760 C   0  0  2  0  0  3  0  0  0  0  0  0
  184.4220  178.3910  143.2480 C   0  0  1  0  0  3  0  0  0  0  0  0
  180.3490  178.1970  140.7960 C   0  0  0  0  0  1  0  0  0  0  0  0
  189.4370  177.4180  142.3090 C   0  0  1  0  0  3  0  0  0  0  0  0
  182.6560  179.1240  139.3240 C   0  0  0  0  0  1  0  0  0  0  0  0
  184.2040  178.3020  145.7280 C   0  0  0  0  0  2  0  0  0  0  0  0
  185.1280  178.6970  144.5690 C   0  0  1  0  0  3  0  0  0  0  0  0
  183.2410  179.3410  143.0730 C   0  0  0  0  0  2  0  0  0  0  0  0
  187.6040  178.5090  140.9910 C   0  0  0  0  0  2  0  0  0  0  0  0
  185.2880  178.3260  139.6290 O   0  0  0  0  0  0  0  0  0  0  0  0
  180.4760  178.9140  143.1780 N   0  0  0  0  0  1  0  0  0  0  0  0
  185.3290  178.4410  142.0300 C   0  0  0  0  0  0  0  0  0  0  0  0
  182.4780  178.9610  141.8440 C   0  0  0  0  0  0  0  0  0  0  0  0
  188.8730  178.5500  139.0710 C   0  0  0  0  0  1  0  0  0  0  0  0
  189.5700  177.6910  139.9240 O   0  0  0  0  0  0  0  0  0  0  0  0
  190.5170  176.3440  142.3000 C   0  0  0  0  0  2  0  0  0  0  0  0
  191.7160  176.7580  143.1400 C   0  0  0  0  0  2  0  0  0  0  0  0
  191.6910  176.0460  144.4790 C   0  0  0  0  0  2  0  0  0  0  0  0
  191.4950  177.0640  145.5900 C   0  0  0  0  0  2  0  0  0  0  0  0
  191.2480  176.3900  146.9340 C   0  0  0  0  0  3  0  0  0  0  0  0
  192.1300  176.8810  147.8970 O   0  0  0  0  0  1  0  0  0  0  0  0
  189.9310  176.5970  147.3480 O   0  0  0  0  0  1  0  0  0  0  0  0
  1 10  1  0  0  0  0
  3  2  2  0  0  0  0
  4 22  1  0  0  0  0
  5  4  1  0  0  0  0
  5 23  1  0  0  0  0
  6 25  1  6  0  0  0
  6 19  1  0  0  0  0
  6 14  1  0  0  0  0
  8 21  1  0  0  0  0
  9  2  1  0  0  0  0
 10  7  1  6  0  0  0
 10 11  1  0  0  0  0
 11  9  1  1  0  0  0
 12 18  1  6  0  0  0
 12 17  1  0  0  0  0
 13  8  1  0  0  0  0
 14 26  1  6  0  0  0
 14  7  1  0  0  0  0
 15  5  1  0  0  0  0
 16  3  1  0  0  0  0
 17 11  1  0  0  0  0
 17 16  1  1  0  0  0
 19  1  1  0  0  0  0
 20  4  2  0  0  0  0
 22  1  2  0  0  0  0
 22 12  1  0  0  0  0
 23  8  2  0  0  0  0
 23 18  1  0  0  0  0
 24 25  1  0  0  0  0
 26 27  1  0  0  0  0
 27 28  1  0  0  0  0
 28 29  1  0  0  0  0
 29 30  1  0  0  0  0
 30 32  1  0  0  0  0
 30 31  1  0  0  0  0
M  END
>  <MODEL>
2

>  <REMARK>
 VINA RESULT:      -9.5      2.930      7.022
  Name = 
  6 active torsions:
  status: ('A' for Active; 'I' for Inactive)
    1  A    between atoms: C_1  and  C_10
    2  A    between atoms: C_2  and  C_12
    3  A    between atoms: C_2  and  C_24
    4  A    between atoms: C_8  and  O_23
    5  A    between atoms: C_10  and  C_24
    6  A    between atoms: C_12  and  C_21
                            x       y       z     vdW  Elec       q    Type
                         _______ _______ _______ _____ _____    ______ ____

>  <TORSDO>
F 6

$$$$
=
 OpenBabel10272413293D

 32 35  0  0  1  0  0  0  0  0999 V2000
  188.7770  177.3190  142.7470 C   0  0  0  0  0  0  0  0  0  0  0  0
  183.9360  178.6710  143.0910 C   0  0  0  0  0  3  0  0  0  0  0  0
  184.0690  178.8180  144.4160 C   0  0  0  0  0  3  0  0  0  0  0  0
  190.2080  177.1490  144.8020 C   0  0  0  0  0  0  0  0  0  0  0  0
  190.2530  177.1250  146.2430 N   0  0  0  0  0  0  0  0  0  0  0  0
  190.0840  177.5230  140.6270 C   0  0  1  0  0  3  0  0  0  0  0  0
  187.7590  178.4320  140.7610 C   0  0  0  0  0  2  0  0  0  0  0  0
  189.0550  177.8820  148.2550 C   0  0  0  0  0  0  0  0  0  0  0  0
  185.0680  178.2060  142.2150 C   0  0  0  0  0  2  0  0  0  0  0  0
  187.4760  177.6270  142.0310 C   0  0  2  0  0  3  0  0  0  0  0  0
  186.4420  178.3700  142.8740 C   0  0  2  0  0  3  0  0  0  0  0  0
  187.7680  177.9220  144.9570 C   0  0  1  0  0  3  0  0  0  0  0  0
  190.3110  178.2610  148.9650 C   0  0  0  0  0  1  0  0  0  0  0  0
  188.7690  177.7180  139.8650 C   0  0  1  0  0  3  0  0  0  0  0  0
  191.4540  176.6070  146.8910 C   0  0  0  0  0  1  0  0  0  0  0  0
  185.3880  178.6390  145.1160 C   0  0  0  0  0  2  0  0  0  0  0  0
  186.3930  177.8180  144.2980 C   0  0  1  0  0  3  0  0  0  0  0  0
  187.7460  177.1890  146.2950 C   0  0  0  0  0  2  0  0  0  0  0  0
  189.8420  176.6950  141.8880 C   0  0  0  0  0  2  0  0  0  0  0  0
  191.2740  176.9650  144.1530 O   0  0  0  0  0  0  0  0  0  0  0  0
  187.8230  178.1220  148.9330 N   0  0  0  0  0  1  0  0  0  0  0  0
  188.9130  177.4200  144.0950 C   0  0  0  0  0  0  0  0  0  0  0  0
  189.0510  177.3960  146.9950 C   0  0  0  0  0  0  0  0  0  0  0  0
  192.2580  177.3460  140.2440 C   0  0  0  0  0  1  0  0  0  0  0  0
  191.0170  176.8640  139.8220 O   0  0  0  0  0  0  0  0  0  0  0  0
  189.0030  178.5450  138.6070 C   0  0  0  0  0  2  0  0  0  0  0  0
  188.4240  177.8590  137.3790 C   0  0  0  0  0  2  0  0  0  0  0  0
  187.9910  176.4460  137.7200 C   0  0  0  0  0  2  0  0  0  0  0  0
  188.5780  175.4780  136.7060 C   0  0  0  0  0  2  0  0  0  0  0  0
  190.0730  175.2790  136.9200 C   0  0  0  0  0  3  0  0  0  0  0  0
  190.3120  174.1170  137.6560 O   0  0  0  0  0  1  0  0  0  0  0  0
  190.7360  175.2070  135.6930 O   0  0  0  0  0  1  0  0  0  0  0  0
  1 22  2  0  0  0  0
  2  3  2  0  0  0  0
  3 16  1  0  0  0  0
  4  5  1  0  0  0  0
  5 15  1  0  0  0  0
  5 23  1  0  0  0  0
  6 25  1  6  0  0  0
  6 19  1  0  0  0  0
  8 21  1  0  0  0  0
  8 13  1  0  0  0  0
  9  2  1  0  0  0  0
 10  7  1  6  0  0  0
 10  1  1  0  0  0  0
 10 11  1  0  0  0  0
 11  9  1  6  0  0  0
 11 17  1  0  0  0  0
 12 18  1  1  0  0  0
 14 26  1  6  0  0  0
 14  6  1  0  0  0  0
 14  7  1  0  0  0  0
 17 12  1  0  0  0  0
 17 16  1  1  0  0  0
 18 23  1  0  0  0  0
 19  1  1  0  0  0  0
 20  4  2  0  0  0  0
 22  4  1  0  0  0  0
 22 12  1  0  0  0  0
 23  8  2  0  0  0  0
 25 24  1  0  0  0  0
 27 28  1  0  0  0  0
 27 26  1  0  0  0  0
 29 30  1  0  0  0  0
 29 28  1  0  0  0  0
 30 31  1  0  0  0  0
 32 30  1  0  0  0  0
M  END
>  <MODEL>
3

>  <REMARK>
 VINA RESULT:      -9.3      1.967      2.326
  Name = 
  6 active torsions:
  status: ('A' for Active; 'I' for Inactive)
    1  A    between atoms: C_1  and  C_10
    2  A    between atoms: C_2  and  C_12
    3  A    between atoms: C_2  and  C_24
    4  A    between atoms: C_8  and  O_23
    5  A    between atoms: C_10  and  C_24
    6  A    between atoms: C_12  and  C_21
                            x       y       z     vdW  Elec       q    Type
                         _______ _______ _______ _____ _____    ______ ____

>  <TORSDO>
F 6

$$$$
=
 OpenBabel10272413293D

 32 35  0  0  1  0  0  0  0  0999 V2000
  188.0000  178.1270  142.1350 C   0  0  0  0  0  0  0  0  0  0  0  0
  184.6200  178.7490  145.8190 C   0  0  0  0  0  3  0  0  0  0  0  0
  183.6330  178.7650  144.9140 C   0  0  0  0  0  3  0  0  0  0  0  0
  187.2770  178.0580  139.7330 C   0  0  0  0  0  0  0  0  0  0  0  0
  186.2130  178.2810  138.7850 N   0  0  0  0  0  0  0  0  0  0  0  0
  190.2570  177.1340  142.5340 C   0  0  1  0  0  3  0  0  0  0  0  0
  188.5680  177.1910  144.3750 C   0  0  0  0  0  2  0  0  0  0  0  0
  183.7620  178.3380  138.5670 C   0  0  0  0  0  0  0  0  0  0  0  0
  186.0680  178.6210  145.4290 C   0  0  0  0  0  2  0  0  0  0  0  0
  187.7270  178.2240  143.6240 C   0  0  2  0  0  3  0  0  0  0  0  0
  186.2600  178.0560  144.0170 C   0  0  2  0  0  3  0  0  0  0  0  0
  185.5550  178.2850  141.6190 C   0  0  1  0  0  3  0  0  0  0  0  0
  183.7760  177.6290  137.2550 C   0  0  0  0  0  1  0  0  0  0  0  0
  190.0520  177.3320  144.0390 C   0  0  1  0  0  3  0  0  0  0  0  0
  186.5570  178.4040  137.3720 C   0  0  0  0  0  1  0  0  0  0  0  0
  183.8840  178.5410  143.4480 C   0  0  0  0  0  2  0  0  0  0  0  0
  185.3420  178.7940  143.0450 C   0  0  1  0  0  3  0  0  0  0  0  0
  184.7800  179.1660  140.6440 C   0  0  0  0  0  2  0  0  0  0  0  0
  189.4540  178.1730  141.7530 C   0  0  0  0  0  2  0  0  0  0  0  0
  188.4180  177.7320  139.3060 O   0  0  0  0  0  0  0  0  0  0  0  0
  182.4890  178.6800  139.1110 N   0  0  0  0  0  1  0  0  0  0  0  0
  187.0130  178.1870  141.2040 C   0  0  0  0  0  0  0  0  0  0  0  0
  184.8880  178.5940  139.2660 C   0  0  0  0  0  0  0  0  0  0  0  0
  191.6320  177.4350  140.8220 C   0  0  0  0  0  1  0  0  0  0  0  0
  191.6100  177.2680  142.2090 O   0  0  0  0  0  0  0  0  0  0  0  0
  190.8490  176.2980  144.8240 C   0  0  0  0  0  2  0  0  0  0  0  0
  191.5580  176.9320  146.0110 C   0  0  0  0  0  2  0  0  0  0  0  0
  190.8840  176.5250  147.3070 C   0  0  0  0  0  2  0  0  0  0  0  0
  190.2740  177.7510  147.9670 C   0  0  0  0  0  2  0  0  0  0  0  0
  188.7520  177.7200  147.9130 C   0  0  0  0  0  3  0  0  0  0  0  0
  188.2950  176.4120  147.7490 O   0  0  0  0  0  1  0  0  0  0  0  0
  188.2110  178.2680  149.0770 O   0  0  0  0  0  1  0  0  0  0  0  0
  1 10  1  0  0  0  0
  3  2  2  0  0  0  0
  4 22  1  0  0  0  0
  5 23  1  0  0  0  0
  5  4  1  0  0  0  0
  6 25  1  1  0  0  0
  6 14  1  0  0  0  0
  8 21  1  0  0  0  0
  8 23  2  0  0  0  0
  9  2  1  0  0  0  0
 10 11  1  0  0  0  0
 10  7  1  1  0  0  0
 11  9  1  1  0  0  0
 12 18  1  6  0  0  0
 12 17  1  0  0  0  0
 13  8  1  0  0  0  0
 14  7  1  0  0  0  0
 14 26  1  1  0  0  0
 15  5  1  0  0  0  0
 16  3  1  0  0  0  0
 17 16  1  1  0  0  0
 17 11  1  0  0  0  0
 19  1  1  0  0  0  0
 19  6  1  0  0  0  0
 20  4  2  0  0  0  0
 22 12  1  0  0  0  0
 22  1  2  0  0  0  0
 23 18  1  0  0  0  0
 24 25  1  0  0  0  0
 26 27  1  0  0  0  0
 27 28  1  0  0  0  0
 28 29  1  0  0  0  0
 30 29  1  0  0  0  0
 30 32  1  0  0  0  0
 31 30  1  0  0  0  0
M  END
>  <MODEL>
4

>  <REMARK>
 VINA RESULT:      -9.0      2.968      7.218
  Name = 
  6 active torsions:
  status: ('A' for Active; 'I' for Inactive)
    1  A    between atoms: C_1  and  C_10
    2  A    between atoms: C_2  and  C_12
    3  A    between atoms: C_2  and  C_24
    4  A    between atoms: C_8  and  O_23
    5  A    between atoms: C_10  and  C_24
    6  A    between atoms: C_12  and  C_21
                            x       y       z     vdW  Elec       q    Type
                         _______ _______ _______ _____ _____    ______ ____

>  <TORSDO>
F 6

$$$$
=
 OpenBabel10272413293D

 32 35  0  0  1  0  0  0  0  0999 V2000
  187.0380  178.4200  141.7060 C   0  0  0  0  0  0  0  0  0  0  0  0
  182.9200  179.0830  144.5310 C   0  0  0  0  0  3  0  0  0  0  0  0
  182.1490  178.9380  143.4450 C   0  0  0  0  0  3  0  0  0  0  0  0
  186.8490  178.0800  139.2270 C   0  0  0  0  0  0  0  0  0  0  0  0
  185.9990  178.1300  138.0630 N   0  0  0  0  0  0  0  0  0  0  0  0
  189.2160  177.6540  142.6620 C   0  0  1  0  0  3  0  0  0  0  0  0
  187.1730  177.7330  144.1000 C   0  0  0  0  0  2  0  0  0  0  0  0
  183.6530  177.9660  137.3400 C   0  0  0  0  0  0  0  0  0  0  0  0
  184.4230  179.0400  144.4620 C   0  0  0  0  0  2  0  0  0  0  0  0
  186.4490  178.6240  143.0890 C   0  0  2  0  0  3  0  0  0  0  0  0
  184.9460  178.3720  143.1870 C   0  0  2  0  0  3  0  0  0  0  0  0
  184.7550  178.3300  140.6850 C   0  0  1  0  0  3  0  0  0  0  0  0
  183.9890  177.1480  136.1390 C   0  0  0  0  0  1  0  0  0  0  0  0
  188.6830  177.9660  144.0630 C   0  0  1  0  0  3  0  0  0  0  0  0
  186.6280  178.1560  136.7460 C   0  0  0  0  0  1  0  0  0  0  0  0
  182.7190  178.6080  142.0930 C   0  0  0  0  0  2  0  0  0  0  0  0
  184.2110  178.9430  141.9750 C   0  0  1  0  0  3  0  0  0  0  0  0
  184.1520  179.0550  139.4850 C   0  0  0  0  0  2  0  0  0  0  0  0
  188.5350  178.5500  141.6290 C   0  0  0  0  0  2  0  0  0  0  0  0
  188.0730  177.8120  139.0800 O   0  0  0  0  0  0  0  0  0  0  0  0
  182.2740  178.2500  137.5720 N   0  0  0  0  0  1  0  0  0  0  0  0
  186.2710  178.3160  140.5900 C   0  0  0  0  0  0  0  0  0  0  0  0
  184.5860  178.3750  138.2260 C   0  0  0  0  0  0  0  0  0  0  0  0
  191.0050  177.2900  141.4070 C   0  0  0  0  0  1  0  0  0  0  0  0
  190.5960  177.8690  142.6100 O   0  0  0  0  0  0  0  0  0  0  0  0
  189.3570  177.0740  145.0980 C   0  0  0  0  0  2  0  0  0  0  0  0
  188.8320  177.3570  146.4970 C   0  0  0  0  0  2  0  0  0  0  0  0
  189.5920  176.5350  147.5220 C   0  0  0  0  0  2  0  0  0  0  0  0
  191.0550  176.9470  147.5160 C   0  0  0  0  0  2  0  0  0  0  0  0
  191.9790  175.7380  147.5800 C   0  0  0  0  0  3  0  0  0  0  0  0
  192.3240  175.3170  146.2950 O   0  0  0  0  0  1  0  0  0  0  0  0
  193.1330  176.0440  148.3040 O   0  0  0  0  0  1  0  0  0  0  0  0
  1 10  1  0  0  0  0
  3  2  2  0  0  0  0
  4 22  1  0  0  0  0
  5 23  1  0  0  0  0
  5  4  1  0  0  0  0
  6 25  1  1  0  0  0
  6 14  1  0  0  0  0
  8 21  1  0  0  0  0
  8 23  2  0  0  0  0
  9  2  1  0  0  0  0
 10 11  1  0  0  0  0
 10  7  1  1  0  0  0
 11  9  1  1  0  0  0
 12 18  1  6  0  0  0
 12 17  1  0  0  0  0
 13  8  1  0  0  0  0
 14  7  1  0  0  0  0
 14 26  1  1  0  0  0
 15  5  1  0  0  0  0
 16  3  1  0  0  0  0
 17 16  1  1  0  0  0
 17 11  1  0  0  0  0
 19  1  1  0  0  0  0
 19  6  1  0  0  0  0
 20  4  2  0  0  0  0
 22 12  1  0  0  0  0
 22  1  2  0  0  0  0
 23 18  1  0  0  0  0
 24 25  1  0  0  0  0
 26 27  1  0  0  0  0
 27 28  1  0  0  0  0
 29 28  1  0  0  0  0
 29 30  1  0  0  0  0
 30 32  1  0  0  0  0
 31 30  1  0  0  0  0
M  END
>  <MODEL>
5

>  <REMARK>
 VINA RESULT:      -8.7      3.104      7.854
  Name = 
  6 active torsions:
  status: ('A' for Active; 'I' for Inactive)
    1  A    between atoms: C_1  and  C_10
    2  A    between atoms: C_2  and  C_12
    3  A    between atoms: C_2  and  C_24
    4  A    between atoms: C_8  and  O_23
    5  A    between atoms: C_10  and  C_24
    6  A    between atoms: C_12  and  C_21
                            x       y       z     vdW  Elec       q    Type
                         _______ _______ _______ _____ _____    ______ ____

>  <TORSDO>
F 6

$$$$
=
 OpenBabel10272413293D

 32 35  0  0  1  0  0  0  0  0999 V2000
  189.3200  177.8630  141.1730 C   0  0  0  0  0  0  0  0  0  0  0  0
  184.5760  179.0900  140.0020 C   0  0  0  0  0  3  0  0  0  0  0  0
  184.7880  178.7100  138.7360 C   0  0  0  0  0  3  0  0  0  0  0  0
  190.8890  176.9980  139.4160 C   0  0  0  0  0  0  0  0  0  0  0  0
  191.1310  176.7910  138.0100 N   0  0  0  0  0  0  0  0  0  0  0  0
  190.0360  177.3340  143.5080 C   0  0  1  0  0  3  0  0  0  0  0  0
  187.6190  177.7070  142.9900 C   0  0  0  0  0  2  0  0  0  0  0  0
  189.9940  176.4610  135.8520 C   0  0  0  0  0  0  0  0  0  0  0  0
  185.6570  179.0430  141.0480 C   0  0  0  0  0  2  0  0  0  0  0  0
  187.9660  178.3550  141.6490 C   0  0  2  0  0  3  0  0  0  0  0  0
  186.8190  178.1200  140.6680 C   0  0  2  0  0  3  0  0  0  0  0  0
  188.4480  177.5400  138.8490 C   0  0  1  0  0  3  0  0  0  0  0  0
  190.9520  175.4060  135.4110 C   0  0  0  0  0  1  0  0  0  0  0  0
  188.7240  177.9360  144.0200 C   0  0  1  0  0  3  0  0  0  0  0  0
  192.5000  176.5380  137.5710 C   0  0  0  0  0  1  0  0  0  0  0  0
  186.0870  178.1010  138.2860 C   0  0  0  0  0  2  0  0  0  0  0  0
  187.2530  178.4130  139.2330 C   0  0  1  0  0  3  0  0  0  0  0  0
  188.9880  177.9880  137.4930 C   0  0  0  0  0  2  0  0  0  0  0  0
  190.4280  177.9830  142.1820 C   0  0  0  0  0  2  0  0  0  0  0  0
  191.7980  176.7130  140.2420 O   0  0  0  0  0  0  0  0  0  0  0  0
  188.9190  176.7780  134.9700 N   0  0  0  0  0  1  0  0  0  0  0  0
  189.5610  177.5170  139.8820 C   0  0  0  0  0  0  0  0  0  0  0  0
  190.0750  177.0560  137.0610 C   0  0  0  0  0  0  0  0  0  0  0  0
  191.6070  178.7810  144.0960 C   0  0  0  0  0  1  0  0  0  0  0  0
  191.0590  177.5420  144.4370 O   0  0  0  0  0  0  0  0  0  0  0  0
  188.3250  177.2910  145.3420 C   0  0  0  0  0  2  0  0  0  0  0  0
  186.8130  177.2520  145.5030 C   0  0  0  0  0  2  0  0  0  0  0  0
  186.3940  178.0300  146.7370 C   0  0  0  0  0  2  0  0  0  0  0  0
  185.6270  179.2720  146.3150 C   0  0  0  0  0  2  0  0  0  0  0  0
  184.6780  178.9810  145.1590 C   0  0  0  0  0  3  0  0  0  0  0  0
  183.3530  179.0070  145.5960 O   0  0  0  0  0  1  0  0  0  0  0  0
  184.8570  179.9140  144.1350 O   0  0  0  0  0  1  0  0  0  0  0  0
  1 10  1  0  0  0  0
  1 19  1  0  0  0  0
  2  9  1  0  0  0  0
  3  2  2  0  0  0  0
  4 22  1  0  0  0  0
  4 20  2  0  0  0  0
  5  4  1  0  0  0  0
  6 14  1  0  0  0  0
  6 25  1  1  0  0  0
  7 14  1  0  0  0  0
  8 23  2  0  0  0  0
 10  7  1  1  0  0  0
 11  9  1  1  0  0  0
 11 10  1  0  0  0  0
 12 18  1  6  0  0  0
 12 17  1  0  0  0  0
 12 22  1  0  0  0  0
 13  8  1  0  0  0  0
 14 26  1  1  0  0  0
 15  5  1  0  0  0  0
 16  3  1  0  0  0  0
 17 16  1  6  0  0  0
 17 11  1  0  0  0  0
 19  6  1  0  0  0  0
 21  8  1  0  0  0  0
 22  1  2  0  0  0  0
 23 18  1  0  0  0  0
 23  5  1  0  0  0  0
 24 25  1  0  0  0  0
 26 27  1  0  0  0  0
 27 28  1  0  0  0  0
 29 28  1  0  0  0  0
 30 31  1  0  0  0  0
 30 29  1  0  0  0  0
 32 30  1  0  0  0  0
M  END
>  <MODEL>
6

>  <REMARK>
 VINA RESULT:      -8.5      3.326      7.130
  Name = 
  6 active torsions:
  status: ('A' for Active; 'I' for Inactive)
    1  A    between atoms: C_1  and  C_10
    2  A    between atoms: C_2  and  C_12
    3  A    between atoms: C_2  and  C_24
    4  A    between atoms: C_8  and  O_23
    5  A    between atoms: C_10  and  C_24
    6  A    between atoms: C_12  and  C_21
                            x       y       z     vdW  Elec       q    Type
                         _______ _______ _______ _____ _____    ______ ____

>  <TORSDO>
F 6

$$$$
=
 OpenBabel10272413293D

 32 35  0  0  1  0  0  0  0  0999 V2000
  188.2160  177.9770  142.4510 C   0  0  0  0  0  0  0  0  0  0  0  0
  184.8180  178.5650  146.1230 C   0  0  0  0  0  3  0  0  0  0  0  0
  183.8420  178.6470  145.2110 C   0  0  0  0  0  3  0  0  0  0  0  0
  187.5160  178.0230  140.0410 C   0  0  0  0  0  0  0  0  0  0  0  0
  186.4700  178.3160  139.0920 N   0  0  0  0  0  0  0  0  0  0  0  0
  190.4360  176.8960  142.8320 C   0  0  1  0  0  3  0  0  0  0  0  0
  188.7300  176.9370  144.6580 C   0  0  0  0  0  2  0  0  0  0  0  0
  184.0250  178.4600  138.8530 C   0  0  0  0  0  0  0  0  0  0  0  0
  186.2650  178.4050  145.7420 C   0  0  0  0  0  2  0  0  0  0  0  0
  187.9300  178.0240  143.9390 C   0  0  2  0  0  3  0  0  0  0  0  0
  186.4550  177.8890  144.3120 C   0  0  2  0  0  3  0  0  0  0  0  0
  185.7830  178.2320  141.9180 C   0  0  1  0  0  3  0  0  0  0  0  0
  184.0310  177.8020  137.5150 C   0  0  0  0  0  1  0  0  0  0  0  0
  190.2200  177.0430  144.3410 C   0  0  1  0  0  3  0  0  0  0  0  0
  186.8330  178.4820  137.6890 C   0  0  0  0  0  1  0  0  0  0  0  0
  184.1010  178.4720  143.7390 C   0  0  0  0  0  2  0  0  0  0  0  0
  185.5700  178.6930  143.3600 C   0  0  1  0  0  3  0  0  0  0  0  0
  185.0470  179.1750  140.9710 C   0  0  0  0  0  2  0  0  0  0  0  0
  189.6740  177.9900  142.0840 C   0  0  0  0  0  2  0  0  0  0  0  0
  188.6510  177.6770  139.6120 O   0  0  0  0  0  0  0  0  0  0  0  0
  182.7580  178.8220  139.3990 N   0  0  0  0  0  1  0  0  0  0  0  0
  187.2410  178.1040  141.5130 C   0  0  0  0  0  0  0  0  0  0  0  0
  185.1510  178.6530  139.5730 C   0  0  0  0  0  0  0  0  0  0  0  0
  191.8330  177.3670  141.1780 C   0  0  0  0  0  1  0  0  0  0  0  0
  191.7960  176.9990  142.5250 O   0  0  0  0  0  0  0  0  0  0  0  0
  190.9760  175.9540  145.0930 C   0  0  0  0  0  2  0  0  0  0  0  0
  191.9720  176.5510  146.0760 C   0  0  0  0  0  2  0  0  0  0  0  0
  191.6450  176.1100  147.4900 C   0  0  0  0  0  2  0  0  0  0  0  0
  192.9320  175.7900  148.2310 C   0  0  0  0  0  2  0  0  0  0  0  0
  193.0980  176.6570  149.4720 C   0  0  0  0  0  3  0  0  0  0  0  0
  194.4500  176.8830  149.7340 O   0  0  0  0  0  1  0  0  0  0  0  0
  192.4370  177.8760  149.3070 O   0  0  0  0  0  1  0  0  0  0  0  0
  1 10  1  0  0  0  0
  3  2  2  0  0  0  0
  4 22  1  0  0  0  0
  5 23  1  0  0  0  0
  5  4  1  0  0  0  0
  6 25  1  1  0  0  0
  6 14  1  0  0  0  0
  8 21  1  0  0  0  0
  8 23  2  0  0  0  0
  9  2  1  0  0  0  0
 10 11  1  0  0  0  0
 10  7  1  1  0  0  0
 11  9  1  1  0  0  0
 12 18  1  6  0  0  0
 12 17  1  0  0  0  0
 13  8  1  0  0  0  0
 14  7  1  0  0  0  0
 14 26  1  1  0  0  0
 15  5  1  0  0  0  0
 16  3  1  0  0  0  0
 17 16  1  1  0  0  0
 17 11  1  0  0  0  0
 19  1  1  0  0  0  0
 19  6  1  0  0  0  0
 20  4  2  0  0  0  0
 22 12  1  0  0  0  0
 22  1  2  0  0  0  0
 23 18  1  0  0  0  0
 24 25  1  0  0  0  0
 26 27  1  0  0  0  0
 27 28  1  0  0  0  0
 28 29  1  0  0  0  0
 29 30  1  0  0  0  0
 30 31  1  0  0  0  0
 32 30  1  0  0  0  0
M  END
>  <MODEL>
7

>  <REMARK>
 VINA RESULT:      -8.4      3.016      7.781
  Name = 
  6 active torsions:
  status: ('A' for Active; 'I' for Inactive)
    1  A    between atoms: C_1  and  C_10
    2  A    between atoms: C_2  and  C_12
    3  A    between atoms: C_2  and  C_24
    4  A    between atoms: C_8  and  O_23
    5  A    between atoms: C_10  and  C_24
    6  A    between atoms: C_12  and  C_21
                            x       y       z     vdW  Elec       q    Type
                         _______ _______ _______ _____ _____    ______ ____

>  <TORSDO>
F 6

$$$$
=
 OpenBabel10272413293D

 32 35  0  0  1  0  0  0  0  0999 V2000
  188.1740  178.1930  140.3430 C   0  0  0  0  0  0  0  0  0  0  0  0
  189.7950  177.1680  145.0010 C   0  0  0  0  0  3  0  0  0  0  0  0
  188.5460  177.2970  145.4670 C   0  0  0  0  0  3  0  0  0  0  0  0
  185.7590  178.7250  139.9160 C   0  0  0  0  0  0  0  0  0  0  0  0
  184.4760  179.0510  140.4860 N   0  0  0  0  0  0  0  0  0  0  0  0
  189.4240  177.4870  138.2980 C   0  0  1  0  0  3  0  0  0  0  0  0
  190.1870  176.7350  140.5560 C   0  0  0  0  0  2  0  0  0  0  0  0
  183.1100  178.7900  142.5170 C   0  0  0  0  0  0  0  0  0  0  0  0
  190.1410  177.3860  143.5530 C   0  0  0  0  0  2  0  0  0  0  0  0
  189.3310  177.8010  141.2420 C   0  0  2  0  0  3  0  0  0  0  0  0
  188.9230  177.3000  142.6270 C   0  0  2  0  0  3  0  0  0  0  0  0
  186.5760  178.1150  142.2680 C   0  0  1  0  0  3  0  0  0  0  0  0
  181.8630  178.5110  141.7470 C   0  0  0  0  0  1  0  0  0  0  0  0
  190.6460  177.1970  139.1740 C   0  0  1  0  0  3  0  0  0  0  0  0
  183.4600  179.6370  139.6190 C   0  0  0  0  0  1  0  0  0  0  0  0
  187.3740  177.5580  144.5610 C   0  0  0  0  0  2  0  0  0  0  0  0
  187.7860  178.1410  143.2030 C   0  0  1  0  0  3  0  0  0  0  0  0
  185.5330  179.1140  142.7600 C   0  0  0  0  0  2  0  0  0  0  0  0
  188.5630  178.5730  138.9400 C   0  0  0  0  0  2  0  0  0  0  0  0
  185.8880  178.7200  138.6610 O   0  0  0  0  0  0  0  0  0  0  0  0
  183.0210  178.7550  143.9400 N   0  0  0  0  0  1  0  0  0  0  0  0
  186.9110  178.3720  140.8090 C   0  0  0  0  0  0  0  0  0  0  0  0
  184.3020  178.9990  141.9190 C   0  0  0  0  0  0  0  0  0  0  0  0
  188.7980  177.5300  136.1730 C   0  0  0  0  0  1  0  0  0  0  0  0
  189.8290  177.9190  137.0310 O   0  0  0  0  0  0  0  0  0  0  0  0
  191.5100  176.1140  138.5400 C   0  0  0  0  0  2  0  0  0  0  0  0
  192.9550  176.5680  138.4030 C   0  0  0  0  0  2  0  0  0  0  0  0
  193.6750  175.7290  137.3650 C   0  0  0  0  0  2  0  0  0  0  0  0
  193.8340  174.3090  137.8840 C   0  0  0  0  0  2  0  0  0  0  0  0
  195.2760  174.0120  138.2750 C   0  0  0  0  0  3  0  0  0  0  0  0
  195.7470  174.9710  139.1710 O   0  0  0  0  0  1  0  0  0  0  0  0
  195.3740  172.7410  138.8450 O   0  0  0  0  0  1  0  0  0  0  0  0
  1 22  2  0  0  0  0
  1 10  1  0  0  0  0
  2  3  2  0  0  0  0
  4  5  1  0  0  0  0
  4 22  1  0  0  0  0
  5 23  1  0  0  0  0
  6 25  1  6  0  0  0
  6 19  1  0  0  0  0
  6 14  1  0  0  0  0
  8 21  1  0  0  0  0
  9  2  1  0  0  0  0
 10  7  1  6  0  0  0
 10 11  1  0  0  0  0
 11 17  1  0  0  0  0
 11  9  1  1  0  0  0
 12 18  1  1  0  0  0
 12 17  1  0  0  0  0
 13  8  1  0  0  0  0
 14 26  1  6  0  0  0
 14  7  1  0  0  0  0
 15  5  1  0  0  0  0
 16  3  1  0  0  0  0
 17 16  1  1  0  0  0
 19  1  1  0  0  0  0
 20  4  2  0  0  0  0
 22 12  1  0  0  0  0
 23  8  2  0  0  0  0
 23 18  1  0  0  0  0
 24 25  1  0  0  0  0
 27 26  1  0  0  0  0
 28 29  1  0  0  0  0
 28 27  1  0  0  0  0
 29 30  1  0  0  0  0
 30 32  1  0  0  0  0
 30 31  1  0  0  0  0
M  END
>  <MODEL>
8

>  <REMARK>
 VINA RESULT:      -8.3      3.019      6.669
  Name = 
  6 active torsions:
  status: ('A' for Active; 'I' for Inactive)
    1  A    between atoms: C_1  and  C_10
    2  A    between atoms: C_2  and  C_12
    3  A    between atoms: C_2  and  C_24
    4  A    between atoms: C_8  and  O_23
    5  A    between atoms: C_10  and  C_24
    6  A    between atoms: C_12  and  C_21
                            x       y       z     vdW  Elec       q    Type
                         _______ _______ _______ _____ _____    ______ ____

>  <TORSDO>
F 6

$$$$
=
 OpenBabel10272413293D

 32 35  0  0  1  0  0  0  0  0999 V2000
  186.4490  178.4160  142.0100 C   0  0  0  0  0  0  0  0  0  0  0  0
  187.1160  177.9810  146.9850 C   0  0  0  0  0  3  0  0  0  0  0  0
  185.7890  177.9900  147.1660 C   0  0  0  0  0  3  0  0  0  0  0  0
  184.1420  178.6060  141.0400 C   0  0  0  0  0  0  0  0  0  0  0  0
  182.7380  178.8120  141.2950 N   0  0  0  0  0  0  0  0  0  0  0  0
  188.1810  177.7110  140.3540 C   0  0  1  0  0  3  0  0  0  0  0  0
  188.5090  177.2450  142.7880 C   0  0  0  0  0  2  0  0  0  0  0  0
  180.9990  178.5460  143.0160 C   0  0  0  0  0  0  0  0  0  0  0  0
  187.7440  178.1240  145.6240 C   0  0  0  0  0  2  0  0  0  0  0  0
  187.4170  178.2470  143.1660 C   0  0  2  0  0  3  0  0  0  0  0  0
  186.7720  177.8120  144.4810 C   0  0  2  0  0  3  0  0  0  0  0  0
  184.4880  178.2940  143.5610 C   0  0  1  0  0  3  0  0  0  0  0  0
  179.9860  178.0520  142.0390 C   0  0  0  0  0  1  0  0  0  0  0  0
  189.2070  177.6480  141.4900 C   0  0  1  0  0  3  0  0  0  0  0  0
  181.8790  179.1950  140.1800 C   0  0  0  0  0  1  0  0  0  0  0  0
  184.8210  178.0280  146.0150 C   0  0  0  0  0  2  0  0  0  0  0  0
  185.4550  178.5470  144.7180 C   0  0  1  0  0  3  0  0  0  0  0  0
  183.2630  179.1910  143.7190 C   0  0  0  0  0  2  0  0  0  0  0  0
  187.0910  178.7280  140.6860 C   0  0  0  0  0  2  0  0  0  0  0  0
  184.5400  178.5160  139.8460 O   0  0  0  0  0  0  0  0  0  0  0  0
  180.6060  178.6150  144.3850 N   0  0  0  0  0  1  0  0  0  0  0  0
  185.1030  178.4720  142.1840 C   0  0  0  0  0  0  0  0  0  0  0  0
  182.2630  178.8540  142.6580 C   0  0  0  0  0  0  0  0  0  0  0  0
  187.8380  177.8830  138.1720 C   0  0  0  0  0  1  0  0  0  0  0  0
  188.8040  178.0870  139.1600 O   0  0  0  0  0  0  0  0  0  0  0  0
  190.2970  176.6350  141.1650 C   0  0  0  0  0  2  0  0  0  0  0  0
  191.6810  177.2530  141.2900 C   0  0  0  0  0  2  0  0  0  0  0  0
  192.2980  177.4450  139.9170 C   0  0  0  0  0  2  0  0  0  0  0  0
  191.6830  176.4540  138.9430 C   0  0  0  0  0  2  0  0  0  0  0  0
  192.6510  176.0920  137.8230 C   0  0  0  0  0  3  0  0  0  0  0  0
  192.0430  176.2600  136.5780 O   0  0  0  0  0  1  0  0  0  0  0  0
  193.8010  176.8800  137.8990 O   0  0  0  0  0  1  0  0  0  0  0  0
  1 22  2  0  0  0  0
  1 10  1  0  0  0  0
  2  3  2  0  0  0  0
  4  5  1  0  0  0  0
  4 22  1  0  0  0  0
  5 23  1  0  0  0  0
  6 25  1  6  0  0  0
  6 19  1  0  0  0  0
  6 14  1  0  0  0  0
  8 21  1  0  0  0  0
  9  2  1  0  0  0  0
 10  7  1  6  0  0  0
 10 11  1  0  0  0  0
 11 17  1  0  0  0  0
 11  9  1  1  0  0  0
 12 18  1  1  0  0  0
 12 17  1  0  0  0  0
 13  8  1  0  0  0  0
 14 26  1  6  0  0  0
 14  7  1  0  0  0  0
 15  5  1  0  0  0  0
 16  3  1  0  0  0  0
 17 16  1  1  0  0  0
 19  1  1  0  0  0  0
 20  4  2  0  0  0  0
 22 12  1  0  0  0  0
 23  8  2  0  0  0  0
 23 18  1  0  0  0  0
 24 25  1  0  0  0  0
 26 27  1  0  0  0  0
 28 27  1  0  0  0  0
 29 28  1  0  0  0  0
 30 32  1  0  0  0  0
 30 29  1  0  0  0  0
 31 30  1  0  0  0  0
M  END
>  <MODEL>
9

>  <REMARK>
 VINA RESULT:      -8.2      2.972      6.299
  Name = 
  6 active torsions:
  status: ('A' for Active; 'I' for Inactive)
    1  A    between atoms: C_1  and  C_10
    2  A    between atoms: C_2  and  C_12
    3  A    between atoms: C_2  and  C_24
    4  A    between atoms: C_8  and  O_23
    5  A    between atoms: C_10  and  C_24
    6  A    between atoms: C_12  and  C_21
                            x       y       z     vdW  Elec       q    Type
                         _______ _______ _______ _____ _____    ______ ____

>  <TORSDO>
F 6

$$$$
