=
 OpenBabel10272402093D

 32 34  0  0  1  0  0  0  0  0999 V2000
  190.9190  176.7570  138.0380 N   0  0  0  0  0  0  0  0  0  0  0  0
  190.1620  177.2120  135.3800 C   0  0  0  0  0  2  0  0  0  0  0  0
  189.5040  177.1140  137.9600 C   0  0  2  0  0  3  0  0  0  0  0  0
  188.9240  175.1580  134.9240 C   0  0  0  0  0  2  0  0  0  0  0  0
  188.7560  175.4970  136.3980 C   0  0  1  0  0  0  0  0  0  0  0  0
  191.0890  175.3180  137.6930 C   0  0  1  0  0  3  0  0  0  0  0  0
  189.8120  173.1340  136.9250 C   0  0  0  0  0  1  0  0  0  0  0  0
  189.7520  174.6230  137.2470 C   0  0  2  0  0  3  0  0  0  0  0  0
  189.1000  177.0080  136.4530 C   0  0  2  0  0  0  0  0  0  0  0  0
  189.9410  176.1250  134.3460 C   0  0  0  0  0  2  0  0  0  0  0  0
  189.1120  178.3460  137.2440 C   0  0  1  0  0  3  0  0  0  0  0  0
  192.2210  175.1590  136.6580 C   0  0  2  0  0  3  0  0  0  0  0  0
  192.8310  173.9070  136.7660 O   0  0  0  0  0  1  0  0  0  0  0  0
  193.2830  176.2470  136.7930 C   0  0  0  0  0  2  0  0  0  0  0  0
  194.2530  175.8730  137.7270 O   0  0  0  0  0  1  0  0  0  0  0  0
  186.9590  178.8600  136.3410 C   0  0  0  0  0  1  0  0  0  0  0  0
  187.7600  178.8680  137.5570 N   0  0  0  0  0  0  0  0  0  0  0  0
  187.0170  178.1500  138.5890 C   0  0  0  0  0  2  0  0  0  0  0  0
  185.5230  178.2580  138.3320 C   0  0  0  0  0  2  0  0  0  0  0  0
  184.8320  178.9390  139.5000 C   0  0  0  0  0  2  0  0  0  0  0  0
  184.3510  180.1830  139.0930 O   0  0  0  0  0  1  0  0  0  0  0  0
  191.3080  176.9010  139.4330 C   0  0  0  0  0  2  0  0  0  0  0  0
  190.0830  176.7950  140.3220 C   0  0  0  0  0  2  0  0  0  0  0  0
  190.5210  176.6100  141.7630 C   0  0  0  0  0  1  0  0  0  0  0  0
  187.3030  175.2110  136.7820 C   0  0  0  0  0  2  0  0  0  0  0  0
  186.6900  174.3650  135.8490 O   0  0  0  0  0  0  0  0  0  0  0  0
  186.0780  173.3660  136.6100 C   0  0  1  0  0  3  0  0  0  0  0  0
  184.2020  174.1480  137.8860 O   0  0  0  0  0  0  0  0  0  0  0  0
  183.7150  173.4500  135.7240 N   0  0  0  0  0  1  0  0  0  0  0  0
  184.6250  173.6790  136.7940 C   0  0  0  0  0  0  0  0  0  0  0  0
  186.2590  172.0440  135.9310 C   0  0  0  0  0  3  0  0  0  0  0  0
  186.9370  171.9470  134.7900 C   0  0  0  0  0  2  0  0  0  0  0  0
  1 22  1  0  0  0  0
  3  1  1  6  0  0  0
  4  5  1  0  0  0  0
  5  9  1  0  0  0  0
  5 25  1  1  0  0  0
  5  8  1  0  0  0  0
  6 12  1  6  0  0  0
  6  1  1  0  0  0  0
  8  7  1  6  0  0  0
  8  6  1  0  0  0  0
  9  2  1  6  0  0  0
  9 11  1  0  0  0  0
  9  3  1  0  0  0  0
 10  4  1  0  0  0  0
 10  2  1  0  0  0  0
 11 17  1  1  0  0  0
 11  3  1  0  0  0  0
 12 13  1  1  0  0  0
 12 14  1  0  0  0  0
 14 15  1  0  0  0  0
 16 17  1  0  0  0  0
 17 18  1  0  0  0  0
 19 18  1  0  0  0  0
 19 20  1  0  0  0  0
 21 20  1  0  0  0  0
 22 23  1  0  0  0  0
 23 24  1  0  0  0  0
 26 27  1  0  0  0  0
 26 25  1  0  0  0  0
 27 31  1  6  0  0  0
 27 30  1  0  0  0  0
 29 30  1  0  0  0  0
 30 28  2  0  0  0  0
 32 31  2  0  0  0  0
M  END
>  <MODEL>
1

>  <REMARK>
 VINA RESULT:      -4.4      0.000      0.000
  Name = 
  13 active torsions:
  status: ('A' for Active; 'I' for Inactive)
    1  A    between atoms: C_1  and  C_4
    2  A    between atoms: C_1  and  C_27
    3  A    between atoms: C_2  and  N_5
    4  A    between atoms: C_2  and  C_14
    5  A    between atoms: O_3  and  C_19
    6  A    between atoms: O_3  and  C_22
    7  A    between atoms: C_6  and  C_13
    8  A    between atoms: C_6  and  C_18
    9  A    between atoms: C_12  and  C_22
   10  A    between atoms: C_15  and  C_19
   11  A    between atoms: C_19  and  C_26
   12  A    between atoms: N_24  and  C_27
   13  A    between atoms: N_24  and  C_32
                            x       y       z     vdW  Elec       q    Type
                         _______ _______ _______ _____ _____    ______ ____

>  <TORSDO>
F 13

$$$$
=
 OpenBabel10272402093D

 32 34  0  0  1  0  0  0  0  0999 V2000
  188.3860  177.3640  144.6020 N   0  0  0  0  0  0  0  0  0  0  0  0
  190.1320  179.3440  143.6670 C   0  0  0  0  0  2  0  0  0  0  0  0
  188.3230  177.4590  143.1450 C   0  0  2  0  0  3  0  0  0  0  0  0
  191.9290  177.9520  142.7760 C   0  0  0  0  0  2  0  0  0  0  0  0
  190.6180  177.1960  142.6160 C   0  0  1  0  0  0  0  0  0  0  0  0
  189.5800  176.5660  144.9990 C   0  0  1  0  0  3  0  0  0  0  0  0
  191.6980  175.2800  144.0780 C   0  0  0  0  0  1  0  0  0  0  0  0
  190.4800  176.1460  143.7800 C   0  0  2  0  0  3  0  0  0  0  0  0
  189.5520  178.3190  142.7020 C   0  0  2  0  0  0  0  0  0  0  0  0
  191.6390  179.2000  143.5900 C   0  0  0  0  0  2  0  0  0  0  0  0
  188.0760  178.7750  142.5210 C   0  0  1  0  0  3  0  0  0  0  0  0
  190.3660  177.3110  146.0970 C   0  0  2  0  0  3  0  0  0  0  0  0
  191.7300  177.0240  146.0230 O   0  0  0  0  0  1  0  0  0  0  0  0
  189.8580  176.9780  147.4970 C   0  0  0  0  0  2  0  0  0  0  0  0
  189.5040  178.1430  148.1810 O   0  0  0  0  0  1  0  0  0  0  0  0
  187.9760  177.4620  140.5260 C   0  0  0  0  0  1  0  0  0  0  0  0
  187.6080  178.7410  141.1140 N   0  0  0  0  0  0  0  0  0  0  0  0
  186.1740  178.9330  140.9100 C   0  0  0  0  0  2  0  0  0  0  0  0
  185.4990  179.2850  142.2260 C   0  0  0  0  0  2  0  0  0  0  0  0
  184.1580  178.5800  142.3380 C   0  0  0  0  0  2  0  0  0  0  0  0
  183.4750  179.0610  143.4550 O   0  0  0  0  0  1  0  0  0  0  0  0
  187.2170  176.6040  145.0210 C   0  0  0  0  0  2  0  0  0  0  0  0
  186.0870  177.5520  145.3740 C   0  0  0  0  0  2  0  0  0  0  0  0
  186.5050  178.4190  146.5460 C   0  0  0  0  0  1  0  0  0  0  0  0
  190.6380  176.5070  141.2500 C   0  0  0  0  0  2  0  0  0  0  0  0
  191.3650  177.2560  140.3160 O   0  0  0  0  0  0  0  0  0  0  0  0
  191.6760  176.3580  139.2920 C   0  0  1  0  0  3  0  0  0  0  0  0
  189.9940  175.2110  138.0220 O   0  0  0  0  0  0  0  0  0  0  0  0
  190.1180  177.5040  137.6680 N   0  0  0  0  0  1  0  0  0  0  0  0
  190.5550  176.3050  138.2990 C   0  0  0  0  0  0  0  0  0  0  0  0
  192.9540  176.7780  138.6350 C   0  0  0  0  0  3  0  0  0  0  0  0
  193.5010  176.0450  137.6680 C   0  0  0  0  0  2  0  0  0  0  0  0
  1  6  1  0  0  0  0
  1 22  1  0  0  0  0
  3  1  1  1  0  0  0
  4 10  1  0  0  0  0
  5 25  1  6  0  0  0
  5  9  1  0  0  0  0
  5  4  1  0  0  0  0
  5  8  1  0  0  0  0
  6 12  1  1  0  0  0
  8  7  1  1  0  0  0
  8  6  1  0  0  0  0
  9  3  1  0  0  0  0
  9  2  1  1  0  0  0
 10  2  1  0  0  0  0
 11 17  1  6  0  0  0
 11  9  1  0  0  0  0
 11  3  1  0  0  0  0
 12 13  1  1  0  0  0
 12 14  1  0  0  0  0
 14 15  1  0  0  0  0
 16 17  1  0  0  0  0
 18 17  1  0  0  0  0
 18 19  1  0  0  0  0
 19 20  1  0  0  0  0
 20 21  1  0  0  0  0
 22 23  1  0  0  0  0
 23 24  1  0  0  0  0
 26 25  1  0  0  0  0
 27 31  1  6  0  0  0
 27 26  1  0  0  0  0
 28 30  2  0  0  0  0
 29 30  1  0  0  0  0
 30 27  1  0  0  0  0
 32 31  2  0  0  0  0
M  END
>  <MODEL>
2

>  <REMARK>
 VINA RESULT:      -4.4      4.188      7.276
  Name = 
  13 active torsions:
  status: ('A' for Active; 'I' for Inactive)
    1  A    between atoms: C_1  and  C_4
    2  A    between atoms: C_1  and  C_27
    3  A    between atoms: C_2  and  N_5
    4  A    between atoms: C_2  and  C_14
    5  A    between atoms: O_3  and  C_19
    6  A    between atoms: O_3  and  C_22
    7  A    between atoms: C_6  and  C_13
    8  A    between atoms: C_6  and  C_18
    9  A    between atoms: C_12  and  C_22
   10  A    between atoms: C_15  and  C_19
   11  A    between atoms: C_19  and  C_26
   12  A    between atoms: N_24  and  C_27
   13  A    between atoms: N_24  and  C_32
                            x       y       z     vdW  Elec       q    Type
                         _______ _______ _______ _____ _____    ______ ____

>  <TORSDO>
F 13

$$$$
=
 OpenBabel10272402093D

 32 34  0  0  1  0  0  0  0  0999 V2000
  190.7640  176.7690  138.2180 N   0  0  0  0  0  0  0  0  0  0  0  0
  190.3120  177.2920  135.5030 C   0  0  0  0  0  2  0  0  0  0  0  0
  189.3630  177.1150  137.9870 C   0  0  2  0  0  3  0  0  0  0  0  0
  189.1610  175.2400  134.8520 C   0  0  0  0  0  2  0  0  0  0  0  0
  188.8200  175.5350  136.3050 C   0  0  1  0  0  0  0  0  0  0  0  0
  190.9920  175.3410  137.8550 C   0  0  1  0  0  3  0  0  0  0  0  0
  189.8390  173.1690  136.8870 C   0  0  0  0  0  1  0  0  0  0  0  0
  189.7230  174.6460  137.2400 C   0  0  2  0  0  3  0  0  0  0  0  0
  189.1370  177.0470  136.4410 C   0  0  2  0  0  0  0  0  0  0  0  0
  190.2260  176.2330  134.4220 C   0  0  0  0  0  2  0  0  0  0  0  0
  189.0400  178.3620  137.2640 C   0  0  1  0  0  3  0  0  0  0  0  0
  192.2370  175.2230  136.9540 C   0  0  2  0  0  3  0  0  0  0  0  0
  192.8700  173.9910  137.1280 O   0  0  0  0  0  1  0  0  0  0  0  0
  193.2420  176.3430  137.2090 C   0  0  0  0  0  2  0  0  0  0  0  0
  194.2130  175.9320  138.1260 O   0  0  0  0  0  1  0  0  0  0  0  0
  186.9520  178.7400  136.1640 C   0  0  0  0  0  1  0  0  0  0  0  0
  187.6540  178.8620  137.4330 N   0  0  0  0  0  0  0  0  0  0  0  0
  186.8520  178.1970  138.4570 C   0  0  0  0  0  2  0  0  0  0  0  0
  185.4300  177.9950  137.9590 C   0  0  0  0  0  2  0  0  0  0  0  0
  184.4380  178.6200  138.9250 C   0  0  0  0  0  2  0  0  0  0  0  0
  184.7390  179.9720  139.0870 O   0  0  0  0  0  1  0  0  0  0  0  0
  190.9890  176.8760  139.6520 C   0  0  0  0  0  2  0  0  0  0  0  0
  189.6580  176.9140  140.3790 C   0  0  0  0  0  2  0  0  0  0  0  0
  189.9020  176.9090  141.8760 C   0  0  0  0  0  1  0  0  0  0  0  0
  187.3360  175.2240  136.5110 C   0  0  0  0  0  2  0  0  0  0  0  0
  186.7400  174.7940  135.3200 O   0  0  0  0  0  0  0  0  0  0  0  0
  185.7940  173.8420  135.7100 C   0  0  1  0  0  3  0  0  0  0  0  0
  184.8700  172.0240  134.4450 O   0  0  0  0  0  0  0  0  0  0  0  0
  187.1900  172.1500  134.4580 N   0  0  0  0  0  1  0  0  0  0  0  0
  185.9050  172.6250  134.8420 C   0  0  0  0  0  0  0  0  0  0  0  0
  186.0070  173.4920  137.1500 C   0  0  0  0  0  3  0  0  0  0  0  0
  185.0490  172.9010  137.8610 C   0  0  0  0  0  2  0  0  0  0  0  0
  1 22  1  0  0  0  0
  3  1  1  6  0  0  0
  4  5  1  0  0  0  0
  5  9  1  0  0  0  0
  5 25  1  1  0  0  0
  5  8  1  0  0  0  0
  6 12  1  6  0  0  0
  6  1  1  0  0  0  0
  8  7  1  6  0  0  0
  8  6  1  0  0  0  0
  9  2  1  6  0  0  0
  9 11  1  0  0  0  0
  9  3  1  0  0  0  0
 10  4  1  0  0  0  0
 10  2  1  0  0  0  0
 11 17  1  1  0  0  0
 11  3  1  0  0  0  0
 12 13  1  1  0  0  0
 12 14  1  0  0  0  0
 14 15  1  0  0  0  0
 16 17  1  0  0  0  0
 17 18  1  0  0  0  0
 19 18  1  0  0  0  0
 19 20  1  0  0  0  0
 20 21  1  0  0  0  0
 22 23  1  0  0  0  0
 23 24  1  0  0  0  0
 26 27  1  0  0  0  0
 26 25  1  0  0  0  0
 27 31  1  1  0  0  0
 28 30  2  0  0  0  0
 29 30  1  0  0  0  0
 30 27  1  0  0  0  0
 31 32  2  0  0  0  0
M  END
>  <MODEL>
3

>  <REMARK>
 VINA RESULT:      -4.4      1.085      1.379
  Name = 
  13 active torsions:
  status: ('A' for Active; 'I' for Inactive)
    1  A    between atoms: C_1  and  C_4
    2  A    between atoms: C_1  and  C_27
    3  A    between atoms: C_2  and  N_5
    4  A    between atoms: C_2  and  C_14
    5  A    between atoms: O_3  and  C_19
    6  A    between atoms: O_3  and  C_22
    7  A    between atoms: C_6  and  C_13
    8  A    between atoms: C_6  and  C_18
    9  A    between atoms: C_12  and  C_22
   10  A    between atoms: C_15  and  C_19
   11  A    between atoms: C_19  and  C_26
   12  A    between atoms: N_24  and  C_27
   13  A    between atoms: N_24  and  C_32
                            x       y       z     vdW  Elec       q    Type
                         _______ _______ _______ _____ _____    ______ ____

>  <TORSDO>
F 13

$$$$
=
 OpenBabel10272402093D

 32 34  0  0  1  0  0  0  0  0999 V2000
  188.6070  177.7620  141.3350 N   0  0  0  0  0  0  0  0  0  0  0  0
  189.1330  175.4530  142.8310 C   0  0  0  0  0  2  0  0  0  0  0  0
  188.0280  177.8720  142.6730 C   0  0  2  0  0  3  0  0  0  0  0  0
  190.8890  176.2850  144.3090 C   0  0  0  0  0  2  0  0  0  0  0  0
  189.9500  177.4390  143.9900 C   0  0  1  0  0  0  0  0  0  0  0  0
  190.0630  178.0730  141.3940 C   0  0  1  0  0  3  0  0  0  0  0  0
  192.0530  178.7050  143.0150 C   0  0  0  0  0  1  0  0  0  0  0  0
  190.5860  178.3250  142.8550 C   0  0  2  0  0  3  0  0  0  0  0  0
  188.6560  176.7210  143.5260 C   0  0  2  0  0  0  0  0  0  0  0  0
  190.4760  175.1080  143.4440 C   0  0  0  0  0  2  0  0  0  0  0  0
  187.1450  176.7950  143.1650 C   0  0  1  0  0  3  0  0  0  0  0  0
  190.8610  176.9850  140.6500 C   0  0  2  0  0  3  0  0  0  0  0  0
  192.1500  177.4250  140.3440 O   0  0  0  0  0  1  0  0  0  0  0  0
  190.1670  176.5350  139.3660 C   0  0  0  0  0  2  0  0  0  0  0  0
  190.8460  175.4570  138.7930 O   0  0  0  0  0  1  0  0  0  0  0  0
  187.0060  176.9260  145.5490 C   0  0  0  0  0  1  0  0  0  0  0  0
  186.2740  177.1520  144.3110 N   0  0  0  0  0  0  0  0  0  0  0  0
  185.7700  178.5240  144.3310 C   0  0  0  0  0  2  0  0  0  0  0  0
  184.3970  178.5880  143.6820 C   0  0  0  0  0  2  0  0  0  0  0  0
  183.3760  179.1480  144.6570 C   0  0  0  0  0  2  0  0  0  0  0  0
  183.7890  178.8820  145.9630 O   0  0  0  0  0  1  0  0  0  0  0  0
  187.9890  178.8020  140.5270 C   0  0  0  0  0  2  0  0  0  0  0  0
  186.8780  178.2060  139.6830 C   0  0  0  0  0  2  0  0  0  0  0  0
  185.5460  178.7850  140.1210 C   0  0  0  0  0  1  0  0  0  0  0  0
  189.7470  178.2470  145.2730 C   0  0  0  0  0  2  0  0  0  0  0  0
  190.7960  178.0340  146.1760 O   0  0  0  0  0  0  0  0  0  0  0  0
  190.2570  177.2180  147.1740 C   0  0  1  0  0  3  0  0  0  0  0  0
  191.2930  175.0930  147.5850 O   0  0  0  0  0  0  0  0  0  0  0  0
  192.3920  176.9280  148.4920 N   0  0  0  0  0  1  0  0  0  0  0  0
  191.3260  176.3420  147.7530 C   0  0  0  0  0  0  0  0  0  0  0  0
  189.6360  178.0740  148.2330 C   0  0  0  0  0  3  0  0  0  0  0  0
  188.3640  177.9070  148.5920 C   0  0  0  0  0  2  0  0  0  0  0  0
  1  6  1  0  0  0  0
  2 10  1  0  0  0  0
  3  1  1  6  0  0  0
  3 11  1  0  0  0  0
  3  9  1  0  0  0  0
  5  4  1  0  0  0  0
  5 25  1  1  0  0  0
  6 12  1  1  0  0  0
  6  8  1  0  0  0  0
  8  7  1  6  0  0  0
  8  5  1  0  0  0  0
  9  2  1  6  0  0  0
  9  5  1  0  0  0  0
 10  4  1  0  0  0  0
 11  9  1  0  0  0  0
 11 17  1  1  0  0  0
 12 13  1  6  0  0  0
 14 12  1  0  0  0  0
 15 14  1  0  0  0  0
 17 18  1  0  0  0  0
 17 16  1  0  0  0  0
 19 18  1  0  0  0  0
 19 20  1  0  0  0  0
 20 21  1  0  0  0  0
 22  1  1  0  0  0  0
 23 24  1  0  0  0  0
 23 22  1  0  0  0  0
 25 26  1  0  0  0  0
 26 27  1  0  0  0  0
 27 30  1  0  0  0  0
 27 31  1  1  0  0  0
 28 30  2  0  0  0  0
 30 29  1  0  0  0  0
 31 32  2  0  0  0  0
M  END
>  <MODEL>
4

>  <REMARK>
 VINA RESULT:      -4.2      4.995      8.582
  Name = 
  13 active torsions:
  status: ('A' for Active; 'I' for Inactive)
    1  A    between atoms: C_1  and  C_4
    2  A    between atoms: C_1  and  C_27
    3  A    between atoms: C_2  and  N_5
    4  A    between atoms: C_2  and  C_14
    5  A    between atoms: O_3  and  C_19
    6  A    between atoms: O_3  and  C_22
    7  A    between atoms: C_6  and  C_13
    8  A    between atoms: C_6  and  C_18
    9  A    between atoms: C_12  and  C_22
   10  A    between atoms: C_15  and  C_19
   11  A    between atoms: C_19  and  C_26
   12  A    between atoms: N_24  and  C_27
   13  A    between atoms: N_24  and  C_32
                            x       y       z     vdW  Elec       q    Type
                         _______ _______ _______ _____ _____    ______ ____

>  <TORSDO>
F 13

$$$$
=
 OpenBabel10272402093D

 32 34  0  0  1  0  0  0  0  0999 V2000
  190.1590  177.0160  139.6150 N   0  0  0  0  0  0  0  0  0  0  0  0
  189.2790  178.5310  137.4300 C   0  0  0  0  0  2  0  0  0  0  0  0
  188.7010  176.9870  139.5230 C   0  0  2  0  0  3  0  0  0  0  0  0
  188.6910  176.7460  135.8730 C   0  0  0  0  0  2  0  0  0  0  0  0
  188.4440  176.2430  137.2870 C   0  0  1  0  0  0  0  0  0  0  0  0
  190.7400  176.0440  138.6460 C   0  0  1  0  0  3  0  0  0  0  0  0
  190.1490  174.2980  136.7510 C   0  0  0  0  0  1  0  0  0  0  0  0
  189.6590  175.3500  137.7390 C   0  0  2  0  0  3  0  0  0  0  0  0
  188.3330  177.5520  138.1120 C   0  0  2  0  0  0  0  0  0  0  0  0
  189.3770  178.0960  135.9810 C   0  0  0  0  0  2  0  0  0  0  0  0
  187.9600  178.2630  139.4430 C   0  0  1  0  0  3  0  0  0  0  0  0
  191.8600  176.7230  137.8320 C   0  0  2  0  0  3  0  0  0  0  0  0
  192.0230  176.1090  136.5890 O   0  0  0  0  0  1  0  0  0  0  0  0
  193.1950  176.7190  138.5730 C   0  0  0  0  0  2  0  0  0  0  0  0
  194.0270  175.7120  138.0780 O   0  0  0  0  0  1  0  0  0  0  0  0
  186.2790  178.9370  141.0030 C   0  0  0  0  0  1  0  0  0  0  0  0
  186.5170  178.1900  139.7770 N   0  0  0  0  0  0  0  0  0  0  0  0
  185.5970  178.6920  138.7590 C   0  0  0  0  0  2  0  0  0  0  0  0
  184.1660  178.3340  139.1240 C   0  0  0  0  0  2  0  0  0  0  0  0
  183.2730  179.5600  139.0290 C   0  0  0  0  0  2  0  0  0  0  0  0
  184.0660  180.7040  138.9390 O   0  0  0  0  0  1  0  0  0  0  0  0
  190.5020  176.5340  140.9460 C   0  0  0  0  0  2  0  0  0  0  0  0
  191.3110  177.5860  141.6800 C   0  0  0  0  0  2  0  0  0  0  0  0
  191.6370  177.0880  143.0750 C   0  0  0  0  0  1  0  0  0  0  0  0
  187.1420  175.4410  137.2790 C   0  0  0  0  0  2  0  0  0  0  0  0
  186.8860  174.9040  136.0110 O   0  0  0  0  0  0  0  0  0  0  0  0
  185.5760  174.4230  136.0770 C   0  0  1  0  0  3  0  0  0  0  0  0
  186.1600  172.0960  136.0850 O   0  0  0  0  0  0  0  0  0  0  0  0
  184.8820  172.8070  137.8910 N   0  0  0  0  0  1  0  0  0  0  0  0
  185.5650  173.0440  136.6640 C   0  0  0  0  0  0  0  0  0  0  0  0
  184.7440  175.3590  136.8960 C   0  0  0  0  0  3  0  0  0  0  0  0
  183.6080  175.8640  136.4190 C   0  0  0  0  0  2  0  0  0  0  0  0
  1 22  1  0  0  0  0
  3  1  1  6  0  0  0
  4 10  1  0  0  0  0
  4  5  1  0  0  0  0
  5 25  1  1  0  0  0
  5  8  1  0  0  0  0
  5  9  1  0  0  0  0
  6 12  1  6  0  0  0
  6  1  1  0  0  0  0
  8  7  1  6  0  0  0
  8  6  1  0  0  0  0
  9  2  1  6  0  0  0
  9 11  1  0  0  0  0
  9  3  1  0  0  0  0
 10  2  1  0  0  0  0
 11  3  1  0  0  0  0
 11 17  1  1  0  0  0
 12 13  1  6  0  0  0
 12 14  1  0  0  0  0
 15 14  1  0  0  0  0
 17 16  1  0  0  0  0
 18 19  1  0  0  0  0
 18 17  1  0  0  0  0
 20 19  1  0  0  0  0
 21 20  1  0  0  0  0
 22 23  1  0  0  0  0
 23 24  1  0  0  0  0
 26 27  1  0  0  0  0
 26 25  1  0  0  0  0
 27 30  1  0  0  0  0
 27 31  1  1  0  0  0
 28 30  2  0  0  0  0
 30 29  1  0  0  0  0
 32 31  2  0  0  0  0
M  END
>  <MODEL>
5

>  <REMARK>
 VINA RESULT:      -4.2      1.596      2.262
  Name = 
  13 active torsions:
  status: ('A' for Active; 'I' for Inactive)
    1  A    between atoms: C_1  and  C_4
    2  A    between atoms: C_1  and  C_27
    3  A    between atoms: C_2  and  N_5
    4  A    between atoms: C_2  and  C_14
    5  A    between atoms: O_3  and  C_19
    6  A    between atoms: O_3  and  C_22
    7  A    between atoms: C_6  and  C_13
    8  A    between atoms: C_6  and  C_18
    9  A    between atoms: C_12  and  C_22
   10  A    between atoms: C_15  and  C_19
   11  A    between atoms: C_19  and  C_26
   12  A    between atoms: N_24  and  C_27
   13  A    between atoms: N_24  and  C_32
                            x       y       z     vdW  Elec       q    Type
                         _______ _______ _______ _____ _____    ______ ____

>  <TORSDO>
F 13

$$$$
=
 OpenBabel10272402093D

 32 34  0  0  1  0  0  0  0  0999 V2000
  186.4080  174.9680  136.7050 N   0  0  0  0  0  0  0  0  0  0  0  0
  187.7430  176.8220  135.0860 C   0  0  0  0  0  2  0  0  0  0  0  0
  187.7150  175.2960  137.2700 C   0  0  2  0  0  3  0  0  0  0  0  0
  187.4640  178.8460  136.4220 C   0  0  0  0  0  2  0  0  0  0  0  0
  187.5400  177.6580  137.3700 C   0  0  1  0  0  0  0  0  0  0  0  0
  185.4330  176.0420  137.0480 C   0  0  1  0  0  3  0  0  0  0  0  0
  185.1580  178.3780  138.2530 C   0  0  0  0  0  1  0  0  0  0  0  0
  186.0840  177.2520  137.8100 C   0  0  2  0  0  3  0  0  0  0  0  0
  188.2240  176.5640  136.5080 C   0  0  2  0  0  0  0  0  0  0  0  0
  187.4100  178.2990  135.0070 C   0  0  0  0  0  2  0  0  0  0  0  0
  188.9170  175.1750  136.4180 C   0  0  1  0  0  3  0  0  0  0  0  0
  184.6640  176.4730  135.7830 C   0  0  2  0  0  3  0  0  0  0  0  0
  183.3770  176.9110  136.1000 O   0  0  0  0  0  1  0  0  0  0  0  0
  184.5720  175.3500  134.7530 C   0  0  0  0  0  2  0  0  0  0  0  0
  183.4380  174.5660  134.9810 O   0  0  0  0  0  1  0  0  0  0  0  0
  190.8010  173.7920  136.9210 C   0  0  0  0  0  1  0  0  0  0  0  0
  190.2110  175.1050  137.1390 N   0  0  0  0  0  0  0  0  0  0  0  0
  191.2060  176.1100  136.7720 C   0  0  0  0  0  2  0  0  0  0  0  0
  192.5570  175.7520  137.3660 C   0  0  0  0  0  2  0  0  0  0  0  0
  193.6710  176.0850  136.3880 C   0  0  0  0  0  2  0  0  0  0  0  0
  194.8990  175.7340  136.9480 O   0  0  0  0  0  1  0  0  0  0  0  0
  185.9540  173.7610  137.3800 C   0  0  0  0  0  2  0  0  0  0  0  0
  186.6240  172.5460  136.7660 C   0  0  0  0  0  2  0  0  0  0  0  0
  185.6530  171.8580  135.8250 C   0  0  0  0  0  1  0  0  0  0  0  0
  188.3870  178.0720  138.5740 C   0  0  0  0  0  2  0  0  0  0  0  0
  188.0950  177.2840  139.6940 O   0  0  0  0  0  0  0  0  0  0  0  0
  189.0640  177.6230  140.6410 C   0  0  1  0  0  3  0  0  0  0  0  0
  187.6440  178.0470  142.5280 O   0  0  0  0  0  0  0  0  0  0  0  0
  189.0980  176.2500  142.7600 N   0  0  0  0  0  1  0  0  0  0  0  0
  188.5540  177.3370  142.0210 C   0  0  0  0  0  0  0  0  0  0  0  0
  190.3180  176.8530  140.3640 C   0  0  0  0  0  3  0  0  0  0  0  0
  191.5130  177.4310  140.4650 C   0  0  0  0  0  2  0  0  0  0  0  0
  1  6  1  0  0  0  0
  1 22  1  0  0  0  0
  3  1  1  6  0  0  0
  4  5  1  0  0  0  0
  5  8  1  0  0  0  0
  5 25  1  1  0  0  0
  6 12  1  6  0  0  0
  6  8  1  0  0  0  0
  8  7  1  6  0  0  0
  9  2  1  6  0  0  0
  9  3  1  0  0  0  0
  9  5  1  0  0  0  0
 10  2  1  0  0  0  0
 10  4  1  0  0  0  0
 11  9  1  0  0  0  0
 11 17  1  1  0  0  0
 11  3  1  0  0  0  0
 12 13  1  1  0  0  0
 14 15  1  0  0  0  0
 14 12  1  0  0  0  0
 16 17  1  0  0  0  0
 18 17  1  0  0  0  0
 18 19  1  0  0  0  0
 20 21  1  0  0  0  0
 20 19  1  0  0  0  0
 23 22  1  0  0  0  0
 24 23  1  0  0  0  0
 25 26  1  0  0  0  0
 26 27  1  0  0  0  0
 27 31  1  6  0  0  0
 27 30  1  0  0  0  0
 30 28  2  0  0  0  0
 30 29  1  0  0  0  0
 31 32  2  0  0  0  0
M  END
>  <MODEL>
6

>  <REMARK>
 VINA RESULT:      -4.1      2.235      6.876
  Name = 
  13 active torsions:
  status: ('A' for Active; 'I' for Inactive)
    1  A    between atoms: C_1  and  C_4
    2  A    between atoms: C_1  and  C_27
    3  A    between atoms: C_2  and  N_5
    4  A    between atoms: C_2  and  C_14
    5  A    between atoms: O_3  and  C_19
    6  A    between atoms: O_3  and  C_22
    7  A    between atoms: C_6  and  C_13
    8  A    between atoms: C_6  and  C_18
    9  A    between atoms: C_12  and  C_22
   10  A    between atoms: C_15  and  C_19
   11  A    between atoms: C_19  and  C_26
   12  A    between atoms: N_24  and  C_27
   13  A    between atoms: N_24  and  C_32
                            x       y       z     vdW  Elec       q    Type
                         _______ _______ _______ _____ _____    ______ ____

>  <TORSDO>
F 13

$$$$
=
 OpenBabel10272402093D

 32 34  0  0  1  0  0  0  0  0999 V2000
  188.1950  177.2850  144.4870 N   0  0  0  0  0  0  0  0  0  0  0  0
  189.8300  179.2710  143.3790 C   0  0  0  0  0  2  0  0  0  0  0  0
  188.1100  177.2670  143.0280 C   0  0  2  0  0  3  0  0  0  0  0  0
  191.6820  177.9050  142.5650 C   0  0  0  0  0  2  0  0  0  0  0  0
  190.4080  177.0770  142.4820 C   0  0  1  0  0  0  0  0  0  0  0  0
  189.4320  176.5780  144.9220 C   0  0  1  0  0  3  0  0  0  0  0  0
  191.5990  175.3300  144.0650 C   0  0  0  0  0  1  0  0  0  0  0  0
  190.3360  176.1120  143.7240 C   0  0  2  0  0  3  0  0  0  0  0  0
  189.2890  178.1500  142.5020 C   0  0  2  0  0  0  0  0  0  0  0  0
  191.3410  179.1960  143.2880 C   0  0  0  0  0  2  0  0  0  0  0  0
  187.7910  178.5190  142.3110 C   0  0  1  0  0  3  0  0  0  0  0  0
  190.1940  177.4400  145.9490 C   0  0  2  0  0  3  0  0  0  0  0  0
  191.5690  177.2130  145.8770 O   0  0  0  0  0  1  0  0  0  0  0  0
  189.7180  177.1900  147.3780 C   0  0  0  0  0  2  0  0  0  0  0  0
  189.0240  178.3000  147.8650 O   0  0  0  0  0  1  0  0  0  0  0  0
  186.0980  179.1500  140.7450 C   0  0  0  0  0  1  0  0  0  0  0  0
  187.3070  178.3580  140.9190 N   0  0  0  0  0  0  0  0  0  0  0  0
  188.2470  178.7340  139.8650 C   0  0  0  0  0  2  0  0  0  0  0  0
  187.9710  177.9300  138.6050 C   0  0  0  0  0  2  0  0  0  0  0  0
  188.2350  178.7740  137.3700 C   0  0  0  0  0  2  0  0  0  0  0  0
  188.9670  179.9060  137.7310 O   0  0  0  0  0  1  0  0  0  0  0  0
  187.0710  176.5020  144.9790 C   0  0  0  0  0  2  0  0  0  0  0  0
  186.2860  177.3120  145.9940 C   0  0  0  0  0  2  0  0  0  0  0  0
  185.5120  178.4030  145.2780 C   0  0  0  0  0  1  0  0  0  0  0  0
  190.4450  176.2900  141.1710 C   0  0  0  0  0  2  0  0  0  0  0  0
  190.8750  177.0950  140.1100 O   0  0  0  0  0  0  0  0  0  0  0  0
  191.6850  176.2660  139.3290 C   0  0  1  0  0  3  0  0  0  0  0  0
  190.9490  176.8090  137.1110 O   0  0  0  0  0  0  0  0  0  0  0  0
  190.4080  174.6720  137.8450 N   0  0  0  0  0  1  0  0  0  0  0  0
  191.0000  175.9520  138.0340 C   0  0  0  0  0  0  0  0  0  0  0  0
  193.0000  176.9410  139.0890 C   0  0  0  0  0  3  0  0  0  0  0  0
  193.8230  177.2180  140.0970 C   0  0  0  0  0  2  0  0  0  0  0  0
  1  6  1  0  0  0  0
  1 22  1  0  0  0  0
  3  1  1  1  0  0  0
  4 10  1  0  0  0  0
  5 25  1  6  0  0  0
  5  9  1  0  0  0  0
  5  4  1  0  0  0  0
  5  8  1  0  0  0  0
  6 12  1  1  0  0  0
  8  7  1  1  0  0  0
  8  6  1  0  0  0  0
  9  3  1  0  0  0  0
  9  2  1  1  0  0  0
 10  2  1  0  0  0  0
 11 17  1  6  0  0  0
 11  9  1  0  0  0  0
 11  3  1  0  0  0  0
 12 13  1  1  0  0  0
 12 14  1  0  0  0  0
 14 15  1  0  0  0  0
 16 17  1  0  0  0  0
 18 17  1  0  0  0  0
 19 18  1  0  0  0  0
 20 21  1  0  0  0  0
 20 19  1  0  0  0  0
 22 23  1  0  0  0  0
 24 23  1  0  0  0  0
 26 25  1  0  0  0  0
 27 31  1  6  0  0  0
 27 26  1  0  0  0  0
 28 30  2  0  0  0  0
 29 30  1  0  0  0  0
 30 27  1  0  0  0  0
 31 32  2  0  0  0  0
M  END
>  <MODEL>
7

>  <REMARK>
 VINA RESULT:      -4.1      4.078      7.295
  Name = 
  13 active torsions:
  status: ('A' for Active; 'I' for Inactive)
    1  A    between atoms: C_1  and  C_4
    2  A    between atoms: C_1  and  C_27
    3  A    between atoms: C_2  and  N_5
    4  A    between atoms: C_2  and  C_14
    5  A    between atoms: O_3  and  C_19
    6  A    between atoms: O_3  and  C_22
    7  A    between atoms: C_6  and  C_13
    8  A    between atoms: C_6  and  C_18
    9  A    between atoms: C_12  and  C_22
   10  A    between atoms: C_15  and  C_19
   11  A    between atoms: C_19  and  C_26
   12  A    between atoms: N_24  and  C_27
   13  A    between atoms: N_24  and  C_32
                            x       y       z     vdW  Elec       q    Type
                         _______ _______ _______ _____ _____    ______ ____

>  <TORSDO>
F 13

$$$$
=
 OpenBabel10272402093D

 32 34  0  0  1  0  0  0  0  0999 V2000
  190.1990  176.9750  139.5420 N   0  0  0  0  0  0  0  0  0  0  0  0
  189.2750  178.4430  137.3420 C   0  0  0  0  0  2  0  0  0  0  0  0
  188.7380  176.9680  139.4950 C   0  0  2  0  0  3  0  0  0  0  0  0
  188.6110  176.6230  135.8560 C   0  0  0  0  0  2  0  0  0  0  0  0
  188.4010  176.1650  137.2910 C   0  0  1  0  0  0  0  0  0  0  0  0
  190.7340  175.9680  138.5840 C   0  0  1  0  0  3  0  0  0  0  0  0
  190.0580  174.1780  136.7590 C   0  0  0  0  0  1  0  0  0  0  0  0
  189.6160  175.2660  137.7310 C   0  0  2  0  0  3  0  0  0  0  0  0
  188.3350  177.4980  138.0800 C   0  0  2  0  0  0  0  0  0  0  0  0
  189.3200  177.9650  135.9040 C   0  0  0  0  0  2  0  0  0  0  0  0
  188.0150  178.2530  139.4020 C   0  0  1  0  0  3  0  0  0  0  0  0
  191.8380  176.6050  137.7170 C   0  0  2  0  0  3  0  0  0  0  0  0
  192.0090  175.9040  136.5220 O   0  0  0  0  0  1  0  0  0  0  0  0
  193.1760  176.6800  138.4500 C   0  0  0  0  0  2  0  0  0  0  0  0
  194.1970  176.1400  137.6630 O   0  0  0  0  0  1  0  0  0  0  0  0
  186.4290  178.7990  141.1050 C   0  0  0  0  0  1  0  0  0  0  0  0
  186.5820  178.2130  139.7810 N   0  0  0  0  0  0  0  0  0  0  0  0
  185.6590  178.8960  138.8780 C   0  0  0  0  0  2  0  0  0  0  0  0
  184.2410  178.3960  139.1000 C   0  0  0  0  0  2  0  0  0  0  0  0
  183.3120  179.5590  139.4030 C   0  0  0  0  0  2  0  0  0  0  0  0
  183.8370  180.7270  138.8500 O   0  0  0  0  0  1  0  0  0  0  0  0
  190.5750  176.5260  140.8740 C   0  0  0  0  0  2  0  0  0  0  0  0
  191.2100  177.6710  141.6420 C   0  0  0  0  0  2  0  0  0  0  0  0
  191.0140  177.4490  143.1300 C   0  0  0  0  0  1  0  0  0  0  0  0
  187.0860  175.3840  137.3460 C   0  0  0  0  0  2  0  0  0  0  0  0
  186.0410  176.1120  136.7640 O   0  0  0  0  0  0  0  0  0  0  0  0
  184.8870  175.3750  137.0400 C   0  0  1  0  0  3  0  0  0  0  0  0
  183.8080  177.1330  135.8150 O   0  0  0  0  0  0  0  0  0  0  0  0
  182.4500  175.3330  136.3760 N   0  0  0  0  0  1  0  0  0  0  0  0
  183.7030  176.0090  136.3770 C   0  0  0  0  0  0  0  0  0  0  0  0
  185.0730  173.9660  136.5680 C   0  0  0  0  0  3  0  0  0  0  0  0
  184.7370  172.9350  137.3400 C   0  0  0  0  0  2  0  0  0  0  0  0
  1 22  1  0  0  0  0
  3  1  1  6  0  0  0
  4 10  1  0  0  0  0
  4  5  1  0  0  0  0
  5 25  1  1  0  0  0
  5  8  1  0  0  0  0
  5  9  1  0  0  0  0
  6 12  1  6  0  0  0
  6  1  1  0  0  0  0
  8  7  1  6  0  0  0
  8  6  1  0  0  0  0
  9  2  1  6  0  0  0
  9 11  1  0  0  0  0
  9  3  1  0  0  0  0
 10  2  1  0  0  0  0
 11  3  1  0  0  0  0
 11 17  1  1  0  0  0
 12 13  1  6  0  0  0
 12 14  1  0  0  0  0
 15 14  1  0  0  0  0
 17 16  1  0  0  0  0
 18 19  1  0  0  0  0
 18 17  1  0  0  0  0
 19 20  1  0  0  0  0
 21 20  1  0  0  0  0
 22 23  1  0  0  0  0
 23 24  1  0  0  0  0
 26 27  1  0  0  0  0
 26 25  1  0  0  0  0
 27 31  1  6  0  0  0
 28 30  2  0  0  0  0
 29 30  1  0  0  0  0
 30 27  1  0  0  0  0
 31 32  2  0  0  0  0
M  END
>  <MODEL>
8

>  <REMARK>
 VINA RESULT:      -3.8      1.643      2.143
  Name = 
  13 active torsions:
  status: ('A' for Active; 'I' for Inactive)
    1  A    between atoms: C_1  and  C_4
    2  A    between atoms: C_1  and  C_27
    3  A    between atoms: C_2  and  N_5
    4  A    between atoms: C_2  and  C_14
    5  A    between atoms: O_3  and  C_19
    6  A    between atoms: O_3  and  C_22
    7  A    between atoms: C_6  and  C_13
    8  A    between atoms: C_6  and  C_18
    9  A    between atoms: C_12  and  C_22
   10  A    between atoms: C_15  and  C_19
   11  A    between atoms: C_19  and  C_26
   12  A    between atoms: N_24  and  C_27
   13  A    between atoms: N_24  and  C_32
                            x       y       z     vdW  Elec       q    Type
                         _______ _______ _______ _____ _____    ______ ____

>  <TORSDO>
F 13

$$$$
=
 OpenBabel10272402093D

 32 34  0  0  1  0  0  0  0  0999 V2000
  190.9630  176.5720  137.6490 N   0  0  0  0  0  0  0  0  0  0  0  0
  189.5030  177.3620  135.3930 C   0  0  0  0  0  2  0  0  0  0  0  0
  189.6020  176.9480  138.0230 C   0  0  2  0  0  3  0  0  0  0  0  0
  188.0970  175.3920  135.0750 C   0  0  0  0  0  2  0  0  0  0  0  0
  188.3700  175.5450  136.5640 C   0  0  1  0  0  0  0  0  0  0  0  0
  190.9650  175.1860  137.1020 C   0  0  1  0  0  3  0  0  0  0  0  0
  189.4280  173.1270  136.4840 C   0  0  0  0  0  1  0  0  0  0  0  0
  189.5270  174.5630  136.9820 C   0  0  2  0  0  3  0  0  0  0  0  0
  188.7820  177.0350  136.6940 C   0  0  2  0  0  0  0  0  0  0  0  0
  188.9500  176.4150  134.3460 C   0  0  0  0  0  2  0  0  0  0  0  0
  189.0770  178.2630  137.6000 C   0  0  1  0  0  3  0  0  0  0  0  0
  191.7480  175.1480  135.7750 C   0  0  2  0  0  3  0  0  0  0  0  0
  192.3870  173.9190  135.6000 O   0  0  0  0  0  1  0  0  0  0  0  0
  192.7820  176.2680  135.6830 C   0  0  0  0  0  2  0  0  0  0  0  0
  193.9050  175.8410  134.9690 O   0  0  0  0  0  1  0  0  0  0  0  0
  186.7480  178.7830  137.4490 C   0  0  0  0  0  1  0  0  0  0  0  0
  187.8940  178.7540  138.3470 N   0  0  0  0  0  0  0  0  0  0  0  0
  187.5170  177.9830  139.5310 C   0  0  0  0  0  2  0  0  0  0  0  0
  187.8220  178.7760  140.7910 C   0  0  0  0  0  2  0  0  0  0  0  0
  186.6100  178.8010  141.7060 C   0  0  0  0  0  2  0  0  0  0  0  0
  186.7690  177.8480  142.7120 O   0  0  0  0  0  1  0  0  0  0  0  0
  191.7390  176.5370  138.8800 C   0  0  0  0  0  2  0  0  0  0  0  0
  190.8240  176.7510  140.0710 C   0  0  0  0  0  2  0  0  0  0  0  0
  191.6170  177.3540  141.2140 C   0  0  0  0  0  1  0  0  0  0  0  0
  187.0750  175.2250  137.3130 C   0  0  0  0  0  2  0  0  0  0  0  0
  186.0960  174.7300  136.4430 O   0  0  0  0  0  0  0  0  0  0  0  0
  185.0990  174.2120  137.2740 C   0  0  1  0  0  3  0  0  0  0  0  0
  183.5040  175.6800  136.2440 O   0  0  0  0  0  0  0  0  0  0  0  0
  183.2730  175.4120  138.5410 N   0  0  0  0  0  1  0  0  0  0  0  0
  183.9240  175.1420  137.3040 C   0  0  0  0  0  0  0  0  0  0  0  0
  184.6970  172.8570  136.7810 C   0  0  0  0  0  3  0  0  0  0  0  0
  185.5870  172.0370  136.2260 C   0  0  0  0  0  2  0  0  0  0  0  0
  1 22  1  0  0  0  0
  3  1  1  6  0  0  0
  4  5  1  0  0  0  0
  5  9  1  0  0  0  0
  5  8  1  0  0  0  0
  5 25  1  1  0  0  0
  6 12  1  6  0  0  0
  6  1  1  0  0  0  0
  8  7  1  6  0  0  0
  8  6  1  0  0  0  0
  9  2  1  6  0  0  0
  9 11  1  0  0  0  0
  9  3  1  0  0  0  0
 10  4  1  0  0  0  0
 10  2  1  0  0  0  0
 11  3  1  0  0  0  0
 11 17  1  1  0  0  0
 12 13  1  1  0  0  0
 14 12  1  0  0  0  0
 15 14  1  0  0  0  0
 16 17  1  0  0  0  0
 17 18  1  0  0  0  0
 18 19  1  0  0  0  0
 19 20  1  0  0  0  0
 20 21  1  0  0  0  0
 22 23  1  0  0  0  0
 23 24  1  0  0  0  0
 26 27  1  0  0  0  0
 26 25  1  0  0  0  0
 27 31  1  6  0  0  0
 27 30  1  0  0  0  0
 28 30  2  0  0  0  0
 30 29  1  0  0  0  0
 32 31  2  0  0  0  0
M  END
>  <MODEL>
9

>  <REMARK>
 VINA RESULT:      -3.7      1.619      1.745
  Name = 
  13 active torsions:
  status: ('A' for Active; 'I' for Inactive)
    1  A    between atoms: C_1  and  C_4
    2  A    between atoms: C_1  and  C_27
    3  A    between atoms: C_2  and  N_5
    4  A    between atoms: C_2  and  C_14
    5  A    between atoms: O_3  and  C_19
    6  A    between atoms: O_3  and  C_22
    7  A    between atoms: C_6  and  C_13
    8  A    between atoms: C_6  and  C_18
    9  A    between atoms: C_12  and  C_22
   10  A    between atoms: C_15  and  C_19
   11  A    between atoms: C_19  and  C_26
   12  A    between atoms: N_24  and  C_27
   13  A    between atoms: N_24  and  C_32
                            x       y       z     vdW  Elec       q    Type
                         _______ _______ _______ _____ _____    ______ ____

>  <TORSDO>
F 13

$$$$
