=
 OpenBabel10272402103D

 32 34  0  0  1  0  0  0  0  0999 V2000
  185.2870  179.2670  143.6020 C   0  0  1  0  0  3  0  0  0  0  0  0
  186.4910  177.1730  143.8670 O   0  0  0  0  0  0  0  0  0  0  0  0
  183.9130  178.6760  143.9580 C   0  0  0  0  0  2  0  0  0  0  0  0
  186.4500  178.5380  144.2850 C   0  0  2  0  0  3  0  0  0  0  0  0
  189.3550  176.9660  145.5430 C   0  0  0  0  0  2  0  0  0  0  0  0
  186.2900  178.6510  145.8160 C   0  0  2  0  0  3  0  0  0  0  0  0
  189.0330  176.9920  144.0460 C   0  0  1  0  0  3  0  0  0  0  0  0
  187.2130  177.7170  146.5870 C   0  0  0  0  0  2  0  0  0  0  0  0
  184.8390  178.5080  146.3110 C   0  0  0  0  0  2  0  0  0  0  0  0
  187.6720  176.4330  143.7320 C   0  0  0  0  0  0  0  0  0  0  0  0
  188.6700  178.0780  146.3290 C   0  0  1  0  0  3  0  0  0  0  0  0
  183.9180  177.8760  145.2660 C   0  0  0  0  0  2  0  0  0  0  0  0
  187.5940  175.2400  143.3430 O   0  0  0  0  0  0  0  0  0  0  0  0
  184.4570  178.8830  141.2400 N   0  0  0  0  0  2  0  0  0  0  0  0
  186.5050  179.9220  141.6670 O   0  0  0  0  0  0  0  0  0  0  0  0
  185.4660  179.3770  142.1240 C   0  0  0  0  0  0  0  0  0  0  0  0
  186.0180  178.6150  139.1050 O   0  0  0  0  0  0  0  0  0  0  0  0
  184.6060  178.9370  139.5170 S   0  0  0  0  0  0  0  0  0  0  0  0
  184.2380  180.3120  139.0320 O   0  0  0  0  0  0  0  0  0  0  0  0
  183.3220  177.7050  137.4410 C   0  0  0  0  0  3  0  0  0  0  0  0
  183.5220  177.7430  138.8270 C   0  0  0  0  0  0  0  0  0  0  0  0
  182.4670  176.7500  136.8830 C   0  0  0  0  0  3  0  0  0  0  0  0
  182.0080  175.8690  139.0920 C   0  0  0  0  0  3  0  0  0  0  0  0
  182.8610  176.8250  139.6510 C   0  0  0  0  0  3  0  0  0  0  0  0
  181.8130  175.8300  137.7070 C   0  0  0  0  0  3  0  0  0  0  0  0
  189.3970  178.2760  147.6470 C   0  0  0  0  0  2  0  0  0  0  0  0
  188.4400  178.0890  148.8080 C   0  0  0  0  0  1  0  0  0  0  0  0
  189.2180  178.2640  143.4950 O   0  0  0  0  0  0  0  0  0  0  0  0
  189.4310  178.0360  142.1330 C   0  0  0  0  0  2  0  0  0  0  0  0
  190.8070  177.4310  141.9000 C   0  0  0  0  0  2  0  0  0  0  0  0
  189.8610  177.6360  139.6070 C   0  0  0  0  0  1  0  0  0  0  0  0
  191.0700  177.2110  140.4180 C   0  0  0  0  0  2  0  0  0  0  0  0
  1 16  1  6  0  0  0
  1  3  1  0  0  0  0
  1  4  1  0  0  0  0
  3 12  1  0  0  0  0
  4  2  1  1  0  0  0
  4  6  1  0  0  0  0
  5 11  1  0  0  0  0
  6  9  1  6  0  0  0
  6  8  1  0  0  0  0
  7 28  1  1  0  0  0
  7  5  1  0  0  0  0
 10  2  1  0  0  0  0
 10  7  1  0  0  0  0
 11  8  1  0  0  0  0
 11 26  1  1  0  0  0
 12  9  1  0  0  0  0
 13 10  2  0  0  0  0
 14 16  1  0  0  0  0
 15 16  2  0  0  0  0
 17 18  2  0  0  0  0
 18 14  1  0  0  0  0
 19 18  2  0  0  0  0
 20 21  1  0  0  0  0
 21 18  1  0  0  0  0
 21 24  2  0  0  0  0
 22 20  2  0  0  0  0
 22 25  1  0  0  0  0
 23 24  1  0  0  0  0
 25 23  2  0  0  0  0
 26 27  1  0  0  0  0
 29 28  1  0  0  0  0
 30 29  1  0  0  0  0
 31 32  1  0  0  0  0
 32 30  1  0  0  0  0
M  END
>  <MODEL>
1

>  <REMARK>
 VINA RESULT:      -7.3      0.000      0.000
  Name = 
  8 active torsions:
  status: ('A' for Active; 'I' for Inactive)
    1  A    between atoms: C_1  and  C_27
    2  A    between atoms: C_7  and  S_22
    3  A    between atoms: C_9  and  C_12
    4  A    between atoms: C_9  and  C_31
    5  A    between atoms: O_10  and  C_12
    6  A    between atoms: O_10  and  C_17
    7  A    between atoms: C_13  and  C_29
    8  A    between atoms: N_16  and  S_22
                            x       y       z     vdW  Elec       q    Type
                         _______ _______ _______ _____ _____    ______ ____

>  <TORSDO>
F 8

$$$$
=
 OpenBabel10272402103D

 32 34  0  0  1  0  0  0  0  0999 V2000
  186.3430  179.0050  141.5110 C   0  0  1  0  0  3  0  0  0  0  0  0
  186.8760  177.0130  142.7960 O   0  0  0  0  0  0  0  0  0  0  0  0
  185.0240  178.4510  140.9470 C   0  0  0  0  0  2  0  0  0  0  0  0
  186.6990  178.4280  142.8850 C   0  0  2  0  0  3  0  0  0  0  0  0
  187.9070  177.1540  145.9530 C   0  0  0  0  0  2  0  0  0  0  0  0
  185.5870  178.7910  143.8910 C   0  0  2  0  0  3  0  0  0  0  0  0
  188.6480  176.9230  144.6330 C   0  0  1  0  0  3  0  0  0  0  0  0
  185.6870  178.0200  145.2010 C   0  0  0  0  0  2  0  0  0  0  0  0
  184.1620  178.6990  143.3170 C   0  0  0  0  0  2  0  0  0  0  0  0
  187.7810  176.2880  143.5800 C   0  0  0  0  0  0  0  0  0  0  0  0
  186.9820  178.3660  145.9240 C   0  0  1  0  0  3  0  0  0  0  0  0
  184.0960  177.8810  142.0270 C   0  0  0  0  0  2  0  0  0  0  0  0
  187.8660  175.0450  143.4090 O   0  0  0  0  0  0  0  0  0  0  0  0
  187.1760  178.4890  139.1750 N   0  0  0  0  0  2  0  0  0  0  0  0
  188.6360  179.1130  140.8890 O   0  0  0  0  0  0  0  0  0  0  0  0
  187.4550  178.8710  140.5240 C   0  0  0  0  0  0  0  0  0  0  0  0
  189.5080  177.3920  138.5200 O   0  0  0  0  0  0  0  0  0  0  0  0
  188.4110  178.2730  137.9830 S   0  0  0  0  0  0  0  0  0  0  0  0
  188.9770  179.6160  137.6100 O   0  0  0  0  0  0  0  0  0  0  0  0
  187.7040  176.1100  136.4670 C   0  0  0  0  0  3  0  0  0  0  0  0
  187.6980  177.5070  136.5750 C   0  0  0  0  0  0  0  0  0  0  0  0
  187.1280  175.4910  135.3530 C   0  0  0  0  0  3  0  0  0  0  0  0
  186.5400  177.6620  134.4520 C   0  0  0  0  0  3  0  0  0  0  0  0
  187.1180  178.2810  135.5640 C   0  0  0  0  0  3  0  0  0  0  0  0
  186.5440  176.2670  134.3470 C   0  0  0  0  0  3  0  0  0  0  0  0
  186.6830  178.7970  147.3480 C   0  0  0  0  0  2  0  0  0  0  0  0
  187.7840  178.3310  148.2800 C   0  0  0  0  0  1  0  0  0  0  0  0
  189.2670  178.0880  144.1710 O   0  0  0  0  0  0  0  0  0  0  0  0
  190.5490  177.6860  143.7910 C   0  0  0  0  0  2  0  0  0  0  0  0
  191.5180  177.8110  144.9580 C   0  0  0  0  0  2  0  0  0  0  0  0
  191.4220  176.5700  147.1140 C   0  0  0  0  0  1  0  0  0  0  0  0
  191.7450  176.4680  145.6350 C   0  0  0  0  0  2  0  0  0  0  0  0
  1 16  1  6  0  0  0
  1  4  1  0  0  0  0
  2 10  1  0  0  0  0
  3  1  1  0  0  0  0
  3 12  1  0  0  0  0
  4  2  1  6  0  0  0
  4  6  1  0  0  0  0
  6  9  1  6  0  0  0
  6  8  1  0  0  0  0
  7 28  1  6  0  0  0
  7  5  1  0  0  0  0
  8 11  1  0  0  0  0
 10  7  1  0  0  0  0
 11  5  1  0  0  0  0
 11 26  1  1  0  0  0
 12  9  1  0  0  0  0
 13 10  2  0  0  0  0
 14 16  1  0  0  0  0
 16 15  2  0  0  0  0
 18 17  2  0  0  0  0
 18 14  1  0  0  0  0
 19 18  2  0  0  0  0
 20 21  1  0  0  0  0
 21 18  1  0  0  0  0
 22 20  2  0  0  0  0
 23 24  1  0  0  0  0
 24 21  2  0  0  0  0
 25 23  2  0  0  0  0
 25 22  1  0  0  0  0
 26 27  1  0  0  0  0
 29 28  1  0  0  0  0
 29 30  1  0  0  0  0
 30 32  1  0  0  0  0
 32 31  1  0  0  0  0
M  END
>  <MODEL>
2

>  <REMARK>
 VINA RESULT:      -7.3      2.634      3.677
  Name = 
  8 active torsions:
  status: ('A' for Active; 'I' for Inactive)
    1  A    between atoms: C_1  and  C_27
    2  A    between atoms: C_7  and  S_22
    3  A    between atoms: C_9  and  C_12
    4  A    between atoms: C_9  and  C_31
    5  A    between atoms: O_10  and  C_12
    6  A    between atoms: O_10  and  C_17
    7  A    between atoms: C_13  and  C_29
    8  A    between atoms: N_16  and  S_22
                            x       y       z     vdW  Elec       q    Type
                         _______ _______ _______ _____ _____    ______ ____

>  <TORSDO>
F 8

$$$$
=
 OpenBabel10272402103D

 32 34  0  0  1  0  0  0  0  0999 V2000
  187.9840  177.6490  141.4010 C   0  0  1  0  0  3  0  0  0  0  0  0
  189.7580  178.7170  142.6720 O   0  0  0  0  0  0  0  0  0  0  0  0
  188.4570  178.1810  140.0390 C   0  0  0  0  0  2  0  0  0  0  0  0
  189.1280  177.4630  142.4040 C   0  0  2  0  0  3  0  0  0  0  0  0
  191.4930  177.1090  145.0070 C   0  0  0  0  0  2  0  0  0  0  0  0
  190.1360  176.4390  141.8410 C   0  0  2  0  0  3  0  0  0  0  0  0
  190.3510  178.1260  145.0850 C   0  0  1  0  0  3  0  0  0  0  0  0
  191.4500  176.4050  142.6100 C   0  0  0  0  0  2  0  0  0  0  0  0
  190.3950  176.5740  140.3300 C   0  0  0  0  0  2  0  0  0  0  0  0
  190.3210  179.0610  143.9070 C   0  0  0  0  0  0  0  0  0  0  0  0
  191.2150  175.9580  144.0460 C   0  0  1  0  0  3  0  0  0  0  0  0
  189.9450  177.9250  139.7720 C   0  0  0  0  0  2  0  0  0  0  0  0
  190.8390  180.1990  144.0370 O   0  0  0  0  0  0  0  0  0  0  0  0
  186.1180  178.0070  143.0750 N   0  0  0  0  0  2  0  0  0  0  0  0
  186.6000  179.5820  141.4180 O   0  0  0  0  0  0  0  0  0  0  0  0
  186.8660  178.4710  141.9480 C   0  0  0  0  0  0  0  0  0  0  0  0
  185.1060  180.3500  143.8210 O   0  0  0  0  0  0  0  0  0  0  0  0
  184.7830  178.8820  143.7430 S   0  0  0  0  0  0  0  0  0  0  0  0
  184.4870  178.3550  145.1200 O   0  0  0  0  0  0  0  0  0  0  0  0
  182.1140  178.9980  143.1610 C   0  0  0  0  0  3  0  0  0  0  0  0
  183.3910  178.6560  142.6990 C   0  0  0  0  0  0  0  0  0  0  0  0
  181.0010  178.8310  142.3300 C   0  0  0  0  0  3  0  0  0  0  0  0
  182.4380  177.9800  140.5750 C   0  0  0  0  0  3  0  0  0  0  0  0
  183.5500  178.1440  141.4060 C   0  0  0  0  0  3  0  0  0  0  0  0
  181.1630  178.3250  141.0370 C   0  0  0  0  0  3  0  0  0  0  0  0
  192.1310  174.7950  144.3850 C   0  0  0  0  0  2  0  0  0  0  0  0
  192.3760  174.7380  145.8800 C   0  0  0  0  0  1  0  0  0  0  0  0
  189.1160  177.5070  145.2960 O   0  0  0  0  0  0  0  0  0  0  0  0
  189.2180  176.9280  146.5630 C   0  0  0  0  0  2  0  0  0  0  0  0
  189.0820  177.9860  147.6480 C   0  0  0  0  0  2  0  0  0  0  0  0
  186.6810  178.6420  147.6520 C   0  0  0  0  0  1  0  0  0  0  0  0
  187.7560  177.8590  148.3810 C   0  0  0  0  0  2  0  0  0  0  0  0
  1 16  1  1  0  0  0
  1  4  1  0  0  0  0
  2 10  1  0  0  0  0
  3  1  1  0  0  0  0
  4  2  1  6  0  0  0
  5  7  1  0  0  0  0
  6  9  1  6  0  0  0
  6  4  1  0  0  0  0
  6  8  1  0  0  0  0
  7 28  1  6  0  0  0
  8 11  1  0  0  0  0
 10 13  2  0  0  0  0
 10  7  1  0  0  0  0
 11 26  1  1  0  0  0
 11  5  1  0  0  0  0
 12  3  1  0  0  0  0
 12  9  1  0  0  0  0
 14 18  1  0  0  0  0
 15 16  2  0  0  0  0
 16 14  1  0  0  0  0
 18 17  2  0  0  0  0
 18 19  2  0  0  0  0
 21 20  1  0  0  0  0
 21 18  1  0  0  0  0
 22 20  2  0  0  0  0
 23 25  2  0  0  0  0
 23 24  1  0  0  0  0
 24 21  2  0  0  0  0
 25 22  1  0  0  0  0
 26 27  1  0  0  0  0
 28 29  1  0  0  0  0
 29 30  1  0  0  0  0
 30 32  1  0  0  0  0
 31 32  1  0  0  0  0
M  END
>  <MODEL>
3

>  <REMARK>
 VINA RESULT:      -7.2      2.260      5.153
  Name = 
  8 active torsions:
  status: ('A' for Active; 'I' for Inactive)
    1  A    between atoms: C_1  and  C_27
    2  A    between atoms: C_7  and  S_22
    3  A    between atoms: C_9  and  C_12
    4  A    between atoms: C_9  and  C_31
    5  A    between atoms: O_10  and  C_12
    6  A    between atoms: O_10  and  C_17
    7  A    between atoms: C_13  and  C_29
    8  A    between atoms: N_16  and  S_22
                            x       y       z     vdW  Elec       q    Type
                         _______ _______ _______ _____ _____    ______ ____

>  <TORSDO>
F 8

$$$$
=
 OpenBabel10272402103D

 32 34  0  0  1  0  0  0  0  0999 V2000
  184.8420  178.0950  142.7050 C   0  0  1  0  0  3  0  0  0  0  0  0
  184.2070  179.4390  140.7830 O   0  0  0  0  0  0  0  0  0  0  0  0
  184.5250  179.1860  143.7400 C   0  0  0  0  0  2  0  0  0  0  0  0
  183.9760  178.1940  141.4440 C   0  0  2  0  0  3  0  0  0  0  0  0
  182.2900  178.2560  138.3380 C   0  0  0  0  0  2  0  0  0  0  0  0
  182.4910  178.0340  141.8340 C   0  0  2  0  0  3  0  0  0  0  0  0
  183.7990  178.4960  138.4440 C   0  0  1  0  0  3  0  0  0  0  0  0
  181.5320  178.4130  140.7140 C   0  0  0  0  0  2  0  0  0  0  0  0
  182.1030  178.7430  143.1430 C   0  0  0  0  0  2  0  0  0  0  0  0
  184.1470  179.6090  139.3940 C   0  0  0  0  0  0  0  0  0  0  0  0
  181.7140  177.4850  139.5200 C   0  0  1  0  0  3  0  0  0  0  0  0
  183.1280  179.7940  143.5720 C   0  0  0  0  0  2  0  0  0  0  0  0
  184.3820  180.7480  138.9160 O   0  0  0  0  0  0  0  0  0  0  0  0
  187.2150  177.4890  143.3490 N   0  0  0  0  0  2  0  0  0  0  0  0
  186.7150  178.4740  141.2900 O   0  0  0  0  0  0  0  0  0  0  0  0
  186.3010  178.0410  142.3980 C   0  0  0  0  0  0  0  0  0  0  0  0
  189.4140  178.7360  142.5230 O   0  0  0  0  0  0  0  0  0  0  0  0
  188.9240  177.4280  143.0870 S   0  0  0  0  0  0  0  0  0  0  0  0
  189.2370  176.3140  142.1260 O   0  0  0  0  0  0  0  0  0  0  0  0
  188.9800  177.2490  145.8140 C   0  0  0  0  0  3  0  0  0  0  0  0
  189.7130  177.1360  144.6260 C   0  0  0  0  0  0  0  0  0  0  0  0
  189.6000  177.0070  147.0450 C   0  0  0  0  0  3  0  0  0  0  0  0
  191.6850  176.5420  145.9040 C   0  0  0  0  0  3  0  0  0  0  0  0
  191.0670  176.7860  144.6740 C   0  0  0  0  0  3  0  0  0  0  0  0
  190.9510  176.6510  147.0890 C   0  0  0  0  0  3  0  0  0  0  0  0
  180.3780  176.8850  139.1200 C   0  0  0  0  0  2  0  0  0  0  0  0
  180.4680  175.3720  139.0960 C   0  0  0  0  0  1  0  0  0  0  0  0
  184.4930  177.3190  138.7360 O   0  0  0  0  0  0  0  0  0  0  0  0
  185.3140  177.1030  137.6260 C   0  0  0  0  0  2  0  0  0  0  0  0
  186.7290  177.5880  137.9030 C   0  0  0  0  0  2  0  0  0  0  0  0
  188.6820  178.8690  137.0430 C   0  0  0  0  0  1  0  0  0  0  0  0
  187.2560  178.4360  136.7560 C   0  0  0  0  0  2  0  0  0  0  0  0
  1 16  1  6  0  0  0
  1  3  1  0  0  0  0
  4  2  1  1  0  0  0
  4  6  1  0  0  0  0
  4  1  1  0  0  0  0
  5  7  1  0  0  0  0
  5 11  1  0  0  0  0
  6  8  1  6  0  0  0
  6  9  1  0  0  0  0
  7 28  1  1  0  0  0
  7 10  1  0  0  0  0
  9 12  1  0  0  0  0
 10  2  1  0  0  0  0
 11 26  1  6  0  0  0
 11  8  1  0  0  0  0
 12  3  1  0  0  0  0
 13 10  2  0  0  0  0
 15 16  2  0  0  0  0
 16 14  1  0  0  0  0
 17 18  2  0  0  0  0
 18 14  1  0  0  0  0
 18 21  1  0  0  0  0
 19 18  2  0  0  0  0
 20 22  1  0  0  0  0
 21 24  1  0  0  0  0
 21 20  2  0  0  0  0
 22 25  2  0  0  0  0
 23 25  1  0  0  0  0
 24 23  2  0  0  0  0
 27 26  1  0  0  0  0
 29 30  1  0  0  0  0
 29 28  1  0  0  0  0
 32 31  1  0  0  0  0
 32 30  1  0  0  0  0
M  END
>  <MODEL>
4

>  <REMARK>
 VINA RESULT:      -7.1      2.330      7.621
  Name = 
  8 active torsions:
  status: ('A' for Active; 'I' for Inactive)
    1  A    between atoms: C_1  and  C_27
    2  A    between atoms: C_7  and  S_22
    3  A    between atoms: C_9  and  C_12
    4  A    between atoms: C_9  and  C_31
    5  A    between atoms: O_10  and  C_12
    6  A    between atoms: O_10  and  C_17
    7  A    between atoms: C_13  and  C_29
    8  A    between atoms: N_16  and  S_22
                            x       y       z     vdW  Elec       q    Type
                         _______ _______ _______ _____ _____    ______ ____

>  <TORSDO>
F 8

$$$$
=
 OpenBabel10272402103D

 32 34  0  0  1  0  0  0  0  0999 V2000
  185.3630  176.9700  137.3290 C   0  0  1  0  0  3  0  0  0  0  0  0
  187.4420  178.2170  137.1630 O   0  0  0  0  0  0  0  0  0  0  0  0
  184.9120  177.2720  135.8910 C   0  0  0  0  0  2  0  0  0  0  0  0
  186.8880  176.9410  137.4870 C   0  0  2  0  0  3  0  0  0  0  0  0
  190.3420  176.9930  138.2320 C   0  0  0  0  0  2  0  0  0  0  0  0
  187.4690  175.8320  136.5850 C   0  0  2  0  0  3  0  0  0  0  0  0
  189.3710  178.0180  138.8250 C   0  0  1  0  0  3  0  0  0  0  0  0
  188.9830  175.9130  136.4350 C   0  0  0  0  0  2  0  0  0  0  0  0
  186.7940  175.7190  135.2070 C   0  0  0  0  0  2  0  0  0  0  0  0
  188.5830  178.7510  137.7740 C   0  0  0  0  0  0  0  0  0  0  0  0
  189.6630  175.7050  137.7820 C   0  0  1  0  0  3  0  0  0  0  0  0
  185.9870  176.9650  134.8410 C   0  0  0  0  0  2  0  0  0  0  0  0
  188.9770  179.8920  137.4210 O   0  0  0  0  0  0  0  0  0  0  0  0
  183.5960  177.4120  139.0890 N   0  0  0  0  0  2  0  0  0  0  0  0
  185.1320  179.0540  138.4520 O   0  0  0  0  0  0  0  0  0  0  0  0
  184.7000  177.8790  138.3090 C   0  0  0  0  0  0  0  0  0  0  0  0
  181.3760  177.8570  140.4830 O   0  0  0  0  0  0  0  0  0  0  0  0
  182.7490  178.4140  140.2170 S   0  0  0  0  0  0  0  0  0  0  0  0
  182.6310  179.8030  139.6510 O   0  0  0  0  0  0  0  0  0  0  0  0
  183.0040  178.7830  142.9140 C   0  0  0  0  0  3  0  0  0  0  0  0
  183.6540  178.4490  141.7190 C   0  0  0  0  0  0  0  0  0  0  0  0
  183.7160  178.8030  144.1170 C   0  0  0  0  0  3  0  0  0  0  0  0
  185.7300  178.1560  142.9360 C   0  0  0  0  0  3  0  0  0  0  0  0
  185.0190  178.1390  141.7320 C   0  0  0  0  0  3  0  0  0  0  0  0
  185.0780  178.4870  144.1290 C   0  0  0  0  0  3  0  0  0  0  0  0
  190.7040  174.6050  137.6740 C   0  0  0  0  0  2  0  0  0  0  0  0
  192.0990  175.1930  137.7540 C   0  0  0  0  0  1  0  0  0  0  0  0
  188.5460  177.4500  139.8000 O   0  0  0  0  0  0  0  0  0  0  0  0
  188.7510  178.2310  140.9410 C   0  0  0  0  0  2  0  0  0  0  0  0
  189.7130  177.5400  141.8960 C   0  0  0  0  0  2  0  0  0  0  0  0
  188.9860  176.8830  144.1840 C   0  0  0  0  0  1  0  0  0  0  0  0
  189.0040  176.4780  142.7220 C   0  0  0  0  0  2  0  0  0  0  0  0
  1  4  1  0  0  0  0
  1 16  1  1  0  0  0
  2 10  1  0  0  0  0
  3  1  1  0  0  0  0
  4  2  1  6  0  0  0
  5  7  1  0  0  0  0
  6  9  1  6  0  0  0
  6  4  1  0  0  0  0
  7 28  1  1  0  0  0
  8  6  1  0  0  0  0
  8 11  1  0  0  0  0
 10  7  1  0  0  0  0
 11 26  1  6  0  0  0
 11  5  1  0  0  0  0
 12  9  1  0  0  0  0
 12  3  1  0  0  0  0
 13 10  2  0  0  0  0
 14 18  1  0  0  0  0
 16 15  2  0  0  0  0
 16 14  1  0  0  0  0
 18 17  2  0  0  0  0
 18 21  1  0  0  0  0
 19 18  2  0  0  0  0
 20 22  1  0  0  0  0
 21 24  1  0  0  0  0
 21 20  2  0  0  0  0
 22 25  2  0  0  0  0
 23 25  1  0  0  0  0
 24 23  2  0  0  0  0
 26 27  1  0  0  0  0
 28 29  1  0  0  0  0
 29 30  1  0  0  0  0
 30 32  1  0  0  0  0
 32 31  1  0  0  0  0
M  END
>  <MODEL>
5

>  <REMARK>
 VINA RESULT:      -7.0      2.564      6.856
  Name = 
  8 active torsions:
  status: ('A' for Active; 'I' for Inactive)
    1  A    between atoms: C_1  and  C_27
    2  A    between atoms: C_7  and  S_22
    3  A    between atoms: C_9  and  C_12
    4  A    between atoms: C_9  and  C_31
    5  A    between atoms: O_10  and  C_12
    6  A    between atoms: O_10  and  C_17
    7  A    between atoms: C_13  and  C_29
    8  A    between atoms: N_16  and  S_22
                            x       y       z     vdW  Elec       q    Type
                         _______ _______ _______ _____ _____    ______ ____

>  <TORSDO>
F 8

$$$$
=
 OpenBabel10272402103D

 32 34  0  0  1  0  0  0  0  0999 V2000
  189.5770  177.8610  146.6070 C   0  0  1  0  0  3  0  0  0  0  0  0
  189.0030  176.3440  144.7970 O   0  0  0  0  0  0  0  0  0  0  0  0
  189.9830  176.7490  147.5880 C   0  0  0  0  0  2  0  0  0  0  0  0
  189.8010  177.4780  145.1390 C   0  0  2  0  0  3  0  0  0  0  0  0
  190.0090  176.8440  141.6680 C   0  0  0  0  0  2  0  0  0  0  0  0
  191.3010  177.1980  144.9110 C   0  0  2  0  0  3  0  0  0  0  0  0
  188.6660  177.0670  142.3710 C   0  0  1  0  0  3  0  0  0  0  0  0
  191.5900  176.5240  143.5770 C   0  0  0  0  0  2  0  0  0  0  0  0
  191.9820  176.4350  146.0620 C   0  0  0  0  0  2  0  0  0  0  0  0
  188.4510  176.1310  143.5290 C   0  0  0  0  0  0  0  0  0  0  0  0
  191.1940  177.4360  142.4230 C   0  0  1  0  0  3  0  0  0  0  0  0
  190.9800  175.7490  146.9900 C   0  0  0  0  0  2  0  0  0  0  0  0
  187.7510  175.1030  143.3400 O   0  0  0  0  0  0  0  0  0  0  0  0
  187.1970  178.2710  145.8440 N   0  0  0  0  0  2  0  0  0  0  0  0
  187.8970  178.7890  148.0120 O   0  0  0  0  0  0  0  0  0  0  0  0
  188.1880  178.3390  146.8720 C   0  0  0  0  0  0  0  0  0  0  0  0
  185.5840  180.2890  146.4740 O   0  0  0  0  0  0  0  0  0  0  0  0
  185.5770  178.8410  146.0580 S   0  0  0  0  0  0  0  0  0  0  0  0
  184.8980  178.0140  147.1150 O   0  0  0  0  0  0  0  0  0  0  0  0
  185.4290  178.3100  143.3800 C   0  0  0  0  0  3  0  0  0  0  0  0
  184.7270  178.6870  144.5310 C   0  0  0  0  0  0  0  0  0  0  0  0
  184.7560  178.1740  142.1620 C   0  0  0  0  0  3  0  0  0  0  0  0
  182.6770  178.7940  143.2410 C   0  0  0  0  0  3  0  0  0  0  0  0
  183.3510  178.9320  144.4590 C   0  0  0  0  0  3  0  0  0  0  0  0
  183.3800  178.4130  142.0930 C   0  0  0  0  0  3  0  0  0  0  0  0
  192.3610  177.6010  141.4670 C   0  0  0  0  0  2  0  0  0  0  0  0
  191.9250  177.2880  140.0490 C   0  0  0  0  0  1  0  0  0  0  0  0
  188.4860  178.4050  142.7360 O   0  0  0  0  0  0  0  0  0  0  0  0
  188.5540  179.1150  141.5350 C   0  0  0  0  0  2  0  0  0  0  0  0
  187.7670  178.4010  140.4450 C   0  0  0  0  0  2  0  0  0  0  0  0
  188.2350  177.2270  138.3010 C   0  0  0  0  0  1  0  0  0  0  0  0
  188.4760  178.4920  139.1030 C   0  0  0  0  0  2  0  0  0  0  0  0
  1 16  1  6  0  0  0
  1  3  1  0  0  0  0
  4  2  1  1  0  0  0
  4  1  1  0  0  0  0
  5  7  1  0  0  0  0
  5 11  1  0  0  0  0
  6  8  1  6  0  0  0
  6  4  1  0  0  0  0
  6  9  1  0  0  0  0
  7 28  1  1  0  0  0
  7 10  1  0  0  0  0
  9 12  1  0  0  0  0
 10  2  1  0  0  0  0
 11 26  1  6  0  0  0
 11  8  1  0  0  0  0
 12  3  1  0  0  0  0
 13 10  2  0  0  0  0
 14 18  1  0  0  0  0
 14 16  1  0  0  0  0
 16 15  2  0  0  0  0
 18 17  2  0  0  0  0
 18 19  2  0  0  0  0
 20 21  1  0  0  0  0
 21 18  1  0  0  0  0
 22 20  2  0  0  0  0
 23 24  1  0  0  0  0
 24 21  2  0  0  0  0
 25 22  1  0  0  0  0
 25 23  2  0  0  0  0
 27 26  1  0  0  0  0
 29 28  1  0  0  0  0
 30 29  1  0  0  0  0
 31 32  1  0  0  0  0
 32 30  1  0  0  0  0
M  END
>  <MODEL>
6

>  <REMARK>
 VINA RESULT:      -6.5      3.016      5.452
  Name = 
  8 active torsions:
  status: ('A' for Active; 'I' for Inactive)
    1  A    between atoms: C_1  and  C_27
    2  A    between atoms: C_7  and  S_22
    3  A    between atoms: C_9  and  C_12
    4  A    between atoms: C_9  and  C_31
    5  A    between atoms: O_10  and  C_12
    6  A    between atoms: O_10  and  C_17
    7  A    between atoms: C_13  and  C_29
    8  A    between atoms: N_16  and  S_22
                            x       y       z     vdW  Elec       q    Type
                         _______ _______ _______ _____ _____    ______ ____

>  <TORSDO>
F 8

$$$$
=
 OpenBabel10272402103D

 32 34  0  0  1  0  0  0  0  0999 V2000
  183.0170  175.2870  138.4130 C   0  0  1  0  0  3  0  0  0  0  0  0
  184.2890  175.8930  136.4330 O   0  0  0  0  0  0  0  0  0  0  0  0
  181.7840  174.8000  137.6360 C   0  0  0  0  0  2  0  0  0  0  0  0
  184.3260  175.1180  137.6330 C   0  0  2  0  0  3  0  0  0  0  0  0
  187.4790  175.0470  136.0390 C   0  0  0  0  0  2  0  0  0  0  0  0
  184.5430  173.6210  137.3270 C   0  0  2  0  0  3  0  0  0  0  0  0
  186.7990  176.3630  136.4280 C   0  0  1  0  0  3  0  0  0  0  0  0
  185.6450  173.3710  136.3050 C   0  0  0  0  0  2  0  0  0  0  0  0
  183.2620  172.8640  136.9370 C   0  0  0  0  0  2  0  0  0  0  0  0
  185.4140  176.4950  135.8570 C   0  0  0  0  0  0  0  0  0  0  0  0
  186.9870  173.8490  136.8440 C   0  0  1  0  0  3  0  0  0  0  0  0
  182.1250  173.7990  136.5250 C   0  0  0  0  0  2  0  0  0  0  0  0
  185.2650  177.1680  134.8050 O   0  0  0  0  0  0  0  0  0  0  0  0
  183.4030  177.0710  140.1690 N   0  0  0  0  0  2  0  0  0  0  0  0
  182.1650  177.5000  138.2350 O   0  0  0  0  0  0  0  0  0  0  0  0
  182.8260  176.6770  138.9220 C   0  0  0  0  0  0  0  0  0  0  0  0
  181.7320  179.0040  140.9050 O   0  0  0  0  0  0  0  0  0  0  0  0
  183.1940  178.6500  140.8460 S   0  0  0  0  0  0  0  0  0  0  0  0
  183.9240  179.6530  139.9950 O   0  0  0  0  0  0  0  0  0  0  0  0
  183.0280  178.9960  143.5530 C   0  0  0  0  0  3  0  0  0  0  0  0
  183.8500  178.6490  142.4730 C   0  0  0  0  0  0  0  0  0  0  0  0
  183.5400  178.9860  144.8540 C   0  0  0  0  0  3  0  0  0  0  0  0
  185.6960  178.2850  144.0010 C   0  0  0  0  0  3  0  0  0  0  0  0
  185.1850  178.2970  142.6990 C   0  0  0  0  0  3  0  0  0  0  0  0
  184.8730  178.6290  145.0780 C   0  0  0  0  0  3  0  0  0  0  0  0
  188.0120  172.7330  136.7500 C   0  0  0  0  0  2  0  0  0  0  0  0
  187.4580  171.5780  135.9390 C   0  0  0  0  0  1  0  0  0  0  0  0
  186.8200  176.5700  137.8110 O   0  0  0  0  0  0  0  0  0  0  0  0
  187.6620  177.6700  137.9940 C   0  0  0  0  0  2  0  0  0  0  0  0
  188.5730  177.4520  139.1930 C   0  0  0  0  0  2  0  0  0  0  0  0
  188.7210  177.7960  141.6540 C   0  0  0  0  0  1  0  0  0  0  0  0
  188.1900  178.3620  140.3510 C   0  0  0  0  0  2  0  0  0  0  0  0
  1 16  1  6  0  0  0
  3  1  1  0  0  0  0
  4  2  1  6  0  0  0
  4  1  1  0  0  0  0
  5  7  1  0  0  0  0
  5 11  1  0  0  0  0
  6  8  1  6  0  0  0
  6  4  1  0  0  0  0
  7 28  1  1  0  0  0
  8 11  1  0  0  0  0
  9  6  1  0  0  0  0
 10  7  1  0  0  0  0
 10  2  1  0  0  0  0
 11 26  1  6  0  0  0
 12  9  1  0  0  0  0
 12  3  1  0  0  0  0
 13 10  2  0  0  0  0
 14 18  1  0  0  0  0
 15 16  2  0  0  0  0
 16 14  1  0  0  0  0
 18 17  2  0  0  0  0
 18 21  1  0  0  0  0
 19 18  2  0  0  0  0
 20 22  1  0  0  0  0
 21 24  1  0  0  0  0
 21 20  2  0  0  0  0
 22 25  2  0  0  0  0
 23 25  1  0  0  0  0
 24 23  2  0  0  0  0
 27 26  1  0  0  0  0
 28 29  1  0  0  0  0
 29 30  1  0  0  0  0
 30 32  1  0  0  0  0
 32 31  1  0  0  0  0
M  END
>  <MODEL>
7

>  <REMARK>
 VINA RESULT:      -6.4      3.207      7.693
  Name = 
  8 active torsions:
  status: ('A' for Active; 'I' for Inactive)
    1  A    between atoms: C_1  and  C_27
    2  A    between atoms: C_7  and  S_22
    3  A    between atoms: C_9  and  C_12
    4  A    between atoms: C_9  and  C_31
    5  A    between atoms: O_10  and  C_12
    6  A    between atoms: O_10  and  C_17
    7  A    between atoms: C_13  and  C_29
    8  A    between atoms: N_16  and  S_22
                            x       y       z     vdW  Elec       q    Type
                         _______ _______ _______ _____ _____    ______ ____

>  <TORSDO>
F 8

$$$$
=
 OpenBabel10272402103D

 32 34  0  0  1  0  0  0  0  0999 V2000
  183.9690  177.7920  139.3590 C   0  0  1  0  0  3  0  0  0  0  0  0
  185.6780  178.5610  137.8130 O   0  0  0  0  0  0  0  0  0  0  0  0
  182.8240  178.5690  138.6890 C   0  0  0  0  0  2  0  0  0  0  0  0
  185.0790  177.3950  138.3800 C   0  0  2  0  0  3  0  0  0  0  0  0
  187.8930  176.4970  136.4380 C   0  0  0  0  0  2  0  0  0  0  0  0
  184.4880  176.4800  137.2870 C   0  0  2  0  0  3  0  0  0  0  0  0
  187.9920  177.5020  137.5900 C   0  0  1  0  0  3  0  0  0  0  0  0
  185.4260  176.2730  136.1060 C   0  0  0  0  0  2  0  0  0  0  0  0
  183.0900  176.9000  136.8010 C   0  0  0  0  0  2  0  0  0  0  0  0
  187.0270  178.6480  137.4500 C   0  0  0  0  0  0  0  0  0  0  0  0
  186.6960  175.5600  136.5530 C   0  0  1  0  0  3  0  0  0  0  0  0
  182.7430  178.3410  137.1750 C   0  0  0  0  0  2  0  0  0  0  0  0
  187.4540  179.7290  136.9710 O   0  0  0  0  0  0  0  0  0  0  0  0
  184.1880  178.0360  141.8710 N   0  0  0  0  0  2  0  0  0  0  0  0
  185.2040  179.5380  140.3980 O   0  0  0  0  0  0  0  0  0  0  0  0
  184.4890  178.5150  140.5570 C   0  0  0  0  0  0  0  0  0  0  0  0
  183.6840  178.7040  144.3940 O   0  0  0  0  0  0  0  0  0  0  0  0
  184.7190  178.8380  143.3090 S   0  0  0  0  0  0  0  0  0  0  0  0
  184.9490  180.2940  143.0060 O   0  0  0  0  0  0  0  0  0  0  0  0
  187.0960  177.5500  142.9020 C   0  0  0  0  0  3  0  0  0  0  0  0
  186.2120  178.0900  143.8450 C   0  0  0  0  0  0  0  0  0  0  0  0
  188.2930  176.9610  143.3210 C   0  0  0  0  0  3  0  0  0  0  0  0
  187.7270  177.4480  145.6250 C   0  0  0  0  0  3  0  0  0  0  0  0
  186.5280  178.0340  145.2070 C   0  0  0  0  0  3  0  0  0  0  0  0
  188.6100  176.9130  144.6810 C   0  0  0  0  0  3  0  0  0  0  0  0
  186.9370  174.3370  135.6870 C   0  0  0  0  0  2  0  0  0  0  0  0
  185.7490  173.3980  135.7610 C   0  0  0  0  0  1  0  0  0  0  0  0
  187.8880  176.8770  138.8360 O   0  0  0  0  0  0  0  0  0  0  0  0
  188.6740  177.6520  139.6920 C   0  0  0  0  0  2  0  0  0  0  0  0
  190.1220  177.6640  139.2250 C   0  0  0  0  0  2  0  0  0  0  0  0
  191.3330  177.3940  141.3820 C   0  0  0  0  0  1  0  0  0  0  0  0
  190.9810  176.7310  140.0640 C   0  0  0  0  0  2  0  0  0  0  0  0
  1 16  1  1  0  0  0
  3  1  1  0  0  0  0
  4  2  1  6  0  0  0
  4  1  1  0  0  0  0
  5 11  1  0  0  0  0
  5  7  1  0  0  0  0
  6  8  1  6  0  0  0
  6  4  1  0  0  0  0
  7 28  1  1  0  0  0
  8 11  1  0  0  0  0
  9 12  1  0  0  0  0
  9  6  1  0  0  0  0
 10  7  1  0  0  0  0
 10  2  1  0  0  0  0
 11 26  1  6  0  0  0
 12  3  1  0  0  0  0
 13 10  2  0  0  0  0
 14 18  1  0  0  0  0
 15 16  2  0  0  0  0
 16 14  1  0  0  0  0
 18 21  1  0  0  0  0
 18 17  2  0  0  0  0
 19 18  2  0  0  0  0
 20 22  2  0  0  0  0
 20 21  1  0  0  0  0
 21 24  2  0  0  0  0
 22 25  1  0  0  0  0
 24 23  1  0  0  0  0
 25 23  2  0  0  0  0
 26 27  1  0  0  0  0
 28 29  1  0  0  0  0
 30 29  1  0  0  0  0
 30 32  1  0  0  0  0
 32 31  1  0  0  0  0
M  END
>  <MODEL>
8

>  <REMARK>
 VINA RESULT:      -6.3      2.394      7.248
  Name = 
  8 active torsions:
  status: ('A' for Active; 'I' for Inactive)
    1  A    between atoms: C_1  and  C_27
    2  A    between atoms: C_7  and  S_22
    3  A    between atoms: C_9  and  C_12
    4  A    between atoms: C_9  and  C_31
    5  A    between atoms: O_10  and  C_12
    6  A    between atoms: O_10  and  C_17
    7  A    between atoms: C_13  and  C_29
    8  A    between atoms: N_16  and  S_22
                            x       y       z     vdW  Elec       q    Type
                         _______ _______ _______ _____ _____    ______ ____

>  <TORSDO>
F 8

$$$$
=
 OpenBabel10272402103D

 32 34  0  0  1  0  0  0  0  0999 V2000
  187.0160  178.6120  146.3010 C   0  0  1  0  0  3  0  0  0  0  0  0
  187.6200  176.7340  144.8830 O   0  0  0  0  0  0  0  0  0  0  0  0
  187.0350  177.8030  147.6080 C   0  0  0  0  0  2  0  0  0  0  0  0
  187.9830  178.0670  145.2430 C   0  0  2  0  0  3  0  0  0  0  0  0
  189.9560  176.9590  142.5290 C   0  0  0  0  0  2  0  0  0  0  0  0
  189.4230  178.1280  145.7940 C   0  0  2  0  0  3  0  0  0  0  0  0
  188.4260  176.9580  142.4700 C   0  0  1  0  0  3  0  0  0  0  0  0
  190.4200  177.3410  144.9540 C   0  0  0  0  0  2  0  0  0  0  0  0
  189.5470  177.7470  147.2800 C   0  0  0  0  0  2  0  0  0  0  0  0
  187.7990  176.1940  143.6040 C   0  0  0  0  0  0  0  0  0  0  0  0
  190.5230  177.9340  143.5550 C   0  0  1  0  0  3  0  0  0  0  0  0
  188.3230  176.9930  147.8010 C   0  0  0  0  0  2  0  0  0  0  0  0
  187.4310  175.0100  143.3920 O   0  0  0  0  0  0  0  0  0  0  0  0
  185.3880  178.8280  144.3730 N   0  0  0  0  0  2  0  0  0  0  0  0
  184.6680  178.8480  146.5950 O   0  0  0  0  0  0  0  0  0  0  0  0
  185.6260  178.7740  145.7820 C   0  0  0  0  0  0  0  0  0  0  0  0
  183.3760  180.4860  143.8510 O   0  0  0  0  0  0  0  0  0  0  0  0
  183.8130  179.0540  143.6920 S   0  0  0  0  0  0  0  0  0  0  0  0
  182.8380  178.1460  144.3910 O   0  0  0  0  0  0  0  0  0  0  0  0
  182.9160  177.8200  141.4230 C   0  0  0  0  0  3  0  0  0  0  0  0
  183.8840  178.6630  141.9830 C   0  0  0  0  0  0  0  0  0  0  0  0
  182.9590  177.5130  140.0600 C   0  0  0  0  0  3  0  0  0  0  0  0
  184.9400  178.8860  139.8130 C   0  0  0  0  0  3  0  0  0  0  0  0
  184.8980  179.1920  141.1760 C   0  0  0  0  0  3  0  0  0  0  0  0
  183.9690  178.0470  139.2540 C   0  0  0  0  0  3  0  0  0  0  0  0
  191.9740  178.2240  143.2180 C   0  0  0  0  0  2  0  0  0  0  0  0
  192.3210  177.6550  141.8570 C   0  0  0  0  0  1  0  0  0  0  0  0
  187.9080  178.2520  142.3580 O   0  0  0  0  0  0  0  0  0  0  0  0
  188.5930  178.8190  141.2810 C   0  0  0  0  0  2  0  0  0  0  0  0
  188.2610  178.0850  139.9900 C   0  0  0  0  0  2  0  0  0  0  0  0
  188.9220  178.7230  137.6760 C   0  0  0  0  0  1  0  0  0  0  0  0
  189.4120  178.1640  138.9980 C   0  0  0  0  0  2  0  0  0  0  0  0
  1 16  1  6  0  0  0
  1  3  1  0  0  0  0
  3 12  1  0  0  0  0
  4  2  1  1  0  0  0
  4  6  1  0  0  0  0
  4  1  1  0  0  0  0
  5 11  1  0  0  0  0
  6  8  1  6  0  0  0
  6  9  1  0  0  0  0
  7 28  1  1  0  0  0
  7  5  1  0  0  0  0
  7 10  1  0  0  0  0
  9 12  1  0  0  0  0
 10  2  1  0  0  0  0
 11 26  1  6  0  0  0
 11  8  1  0  0  0  0
 13 10  2  0  0  0  0
 14 16  1  0  0  0  0
 16 15  2  0  0  0  0
 18 17  2  0  0  0  0
 18 14  1  0  0  0  0
 18 19  2  0  0  0  0
 20 21  1  0  0  0  0
 21 18  1  0  0  0  0
 22 20  2  0  0  0  0
 23 24  1  0  0  0  0
 24 21  2  0  0  0  0
 25 23  2  0  0  0  0
 25 22  1  0  0  0  0
 27 26  1  0  0  0  0
 29 28  1  0  0  0  0
 30 29  1  0  0  0  0
 31 32  1  0  0  0  0
 32 30  1  0  0  0  0
M  END
>  <MODEL>
9

>  <REMARK>
 VINA RESULT:      -6.3      2.099      3.850
  Name = 
  8 active torsions:
  status: ('A' for Active; 'I' for Inactive)
    1  A    between atoms: C_1  and  C_27
    2  A    between atoms: C_7  and  S_22
    3  A    between atoms: C_9  and  C_12
    4  A    between atoms: C_9  and  C_31
    5  A    between atoms: O_10  and  C_12
    6  A    between atoms: O_10  and  C_17
    7  A    between atoms: C_13  and  C_29
    8  A    between atoms: N_16  and  S_22
                            x       y       z     vdW  Elec       q    Type
                         _______ _______ _______ _____ _____    ______ ____

>  <TORSDO>
F 8

$$$$
