=
 OpenBabel10272414483D

 37 42  0  0  1  0  0  0  0  0999 V2000
  187.9980  177.0570  143.7360 C   0  0  1  0  0  0  0  0  0  0  0  0
  184.9660  178.9290  144.3100 C   0  0  0  0  0  0  0  0  0  0  0  0
  185.9390  179.1860  140.6000 C   0  0  2  0  0  3  0  0  0  0  0  0
  189.1250  177.2540  144.8000 C   0  0  0  0  0  0  0  0  0  0  0  0
  183.6250  178.3140  142.1320 C   0  0  0  0  0  3  0  0  0  0  0  0
  187.1870  178.4840  140.2590 N   0  0  0  0  0  0  0  0  0  0  0  0
  191.0920  176.8540  143.3000 C   0  0  0  0  0  0  0  0  0  0  0  0
  189.1390  178.4640  145.7080 C   0  0  0  0  0  2  0  0  0  0  0  0
  185.8020  179.4160  142.0690 C   0  0  0  0  0  3  0  0  0  0  0  0
  187.3350  178.2390  138.8460 C   0  0  0  0  0  0  0  0  0  0  0  0
  182.4480  177.5130  140.2170 N   0  0  0  0  0  1  0  0  0  0  0  0
  190.4200  176.7260  144.5230 O   0  0  0  0  0  0  0  0  0  0  0  0
  186.6790  177.1840  144.2680 O   0  0  0  0  0  0  0  0  0  0  0  0
  183.9760  177.9980  144.9980 C   0  0  0  0  0  1  0  0  0  0  0  0
  184.9450  177.8870  138.8190 N   0  0  0  0  0  0  0  0  0  0  0  0
  188.7380  177.0950  146.2540 C   0  0  0  0  0  2  0  0  0  0  0  0
  183.5920  178.1190  140.8100 C   0  0  0  0  0  0  0  0  0  0  0  0
  186.3980  178.5040  144.6910 C   0  0  0  0  0  2  0  0  0  0  0  0
  190.6190  177.6510  142.2480 O   0  0  0  0  0  0  0  0  0  0  0  0
  187.7300  177.4450  141.1500 C   0  0  0  0  0  2  0  0  0  0  0  0
  184.7890  178.4120  140.0020 C   0  0  0  0  0  0  0  0  0  0  0  0
  188.2160  177.9990  142.5030 C   0  0  2  0  0  3  0  0  0  0  0  0
  184.8040  178.9190  142.8050 C   0  0  0  0  0  0  0  0  0  0  0  0
  184.7280  180.3340  144.8310 C   0  0  0  0  0  1  0  0  0  0  0  0
  189.6020  178.6320  142.3910 C   0  0  0  0  0  2  0  0  0  0  0  0
  192.1580  176.2080  143.1290 O   0  0  0  0  0  0  0  0  0  0  0  0
  188.1130  175.6020  143.2870 C   0  0  0  0  0  1  0  0  0  0  0  0
  186.2230  177.9300  138.1510 C   0  0  0  0  0  3  0  0  0  0  0  0
  189.1770  179.3510  137.8850 O   0  0  0  0  0  0  0  0  0  0  0  0
  188.6860  178.2410  138.2250 C   0  0  0  0  0  0  0  0  0  0  0  0
  188.9120  175.8440  137.4570 C   0  0  0  0  0  3  0  0  0  0  0  0
  189.4870  177.0140  137.9780 C   0  0  0  0  0  0  0  0  0  0  0  0
  190.8680  177.0300  138.2320 C   0  0  0  0  0  3  0  0  0  0  0  0
  193.0150  175.9280  138.2500 O   0  0  0  0  0  1  0  0  0  0  0  0
  191.0640  174.7390  137.4780 C   0  0  0  0  0  3  0  0  0  0  0  0
  191.6520  175.8990  137.9880 C   0  0  0  0  0  0  0  0  0  0  0  0
  189.6940  174.7120  137.2110 C   0  0  0  0  0  3  0  0  0  0  0  0
  1 27  1  6  0  0  0
  1 13  1  0  0  0  0
  1  4  1  0  0  0  0
  2 18  1  0  0  0  0
  2 24  1  0  0  0  0
  2 14  1  0  0  0  0
  3  9  1  1  0  0  0
  4  8  1  0  0  0  0
  4 16  1  0  0  0  0
  5 23  1  0  0  0  0
  6  3  1  0  0  0  0
  6 20  1  0  0  0  0
  7 12  1  0  0  0  0
  8 16  1  0  0  0  0
  9 23  2  0  0  0  0
 10  6  1  0  0  0  0
 11 17  1  0  0  0  0
 12  4  1  0  0  0  0
 13 18  1  0  0  0  0
 15 21  2  0  0  0  0
 17  5  2  0  0  0  0
 19 25  1  0  0  0  0
 19  7  1  0  0  0  0
 21  3  1  0  0  0  0
 21 17  1  0  0  0  0
 22 20  1  6  0  0  0
 22  1  1  0  0  0  0
 23  2  1  0  0  0  0
 25 22  1  0  0  0  0
 26  7  2  0  0  0  0
 28 15  1  0  0  0  0
 28 10  2  0  0  0  0
 29 30  2  0  0  0  0
 30 10  1  0  0  0  0
 31 32  1  0  0  0  0
 32 30  1  0  0  0  0
 32 33  2  0  0  0  0
 35 36  2  0  0  0  0
 36 33  1  0  0  0  0
 36 34  1  0  0  0  0
 37 31  2  0  0  0  0
 37 35  1  0  0  0  0
M  END
>  <MODEL>
1

>  <REMARK>
 VINA RESULT:      -7.6      0.000      0.000
  Name = 
  2 active torsions:
  status: ('A' for Active; 'I' for Inactive)
    1  A    between atoms: C_6  and  C_31
    2  A    between atoms: C_14  and  C_31
                            x       y       z     vdW  Elec       q    Type
                         _______ _______ _______ _____ _____    ______ ____

>  <TORSDO>
F 2

$$$$
=
 OpenBabel10272414483D

 37 42  0  0  1  0  0  0  0  0999 V2000
  186.6040  176.4660  135.7810 C   0  0  1  0  0  0  0  0  0  0  0  0
  184.8510  173.3110  135.7870 C   0  0  0  0  0  0  0  0  0  0  0  0
  183.2070  175.6870  138.3240 C   0  0  0  0  0  0  0  0  0  0  0  0
  188.1630  176.3720  135.7760 C   0  0  0  0  0  0  0  0  0  0  0  0
  182.3700  174.1630  135.9920 C   0  0  0  0  0  3  0  0  0  0  0  0
  183.8680  176.9990  138.4300 N   0  0  0  0  0  0  0  0  0  0  0  0
  188.6450  178.5070  136.9960 C   0  0  0  0  0  0  0  0  0  0  0  0
  188.8720  175.1090  136.2160 C   0  0  0  0  0  2  0  0  0  0  0  0
  184.0760  174.6670  137.6630 C   0  0  0  0  0  3  0  0  0  0  0  0
  183.0430  178.0030  139.0540 C   0  0  0  0  0  0  0  0  0  0  0  0
  180.1670  175.0800  135.9750 N   0  0  0  0  0  1  0  0  0  0  0  0
  188.9170  177.5610  135.9960 O   0  0  0  0  0  0  0  0  0  0  0  0
  185.9620  175.3820  135.1100 O   0  0  0  0  0  0  0  0  0  0  0  0
  184.4620  173.0000  134.3470 C   0  0  0  0  0  1  0  0  0  0  0  0
  181.1860  176.9510  137.9230 N   0  0  0  0  0  0  0  0  0  0  0  0
  188.7980  175.4750  134.7350 C   0  0  0  0  0  2  0  0  0  0  0  0
  181.4710  174.9880  136.5380 C   0  0  2  0  0  3  0  0  0  0  0  0
  186.1420  174.1520  135.7850 C   0  0  0  0  0  2  0  0  0  0  0  0
  187.6780  178.3110  137.9910 O   0  0  0  0  0  0  0  0  0  0  0  0
  184.7620  177.4760  137.3620 C   0  0  0  0  0  2  0  0  0  0  0  0
  181.8800  175.8860  137.6330 C   0  0  0  0  0  0  0  0  0  0  0  0
  186.0560  176.6490  137.2380 C   0  0  2  0  0  3  0  0  0  0  0  0
  183.7520  174.0470  136.5250 C   0  0  0  0  0  0  0  0  0  0  0  0
  185.1340  171.9980  136.4900 C   0  0  0  0  0  1  0  0  0  0  0  0
  187.0900  177.0520  138.2880 C   0  0  0  0  0  2  0  0  0  0  0  0
  189.2830  179.5910  136.9860 O   0  0  0  0  0  0  0  0  0  0  0  0
  186.2690  177.7070  134.9560 C   0  0  0  0  0  1  0  0  0  0  0  0
  181.7240  177.9770  138.7820 C   0  0  0  0  0  3  0  0  0  0  0  0
  183.7110  180.2350  139.4040 O   0  0  0  0  0  0  0  0  0  0  0  0
  183.6640  179.0690  139.8820 C   0  0  0  0  0  0  0  0  0  0  0  0
  183.4320  178.8180  142.3870 C   0  0  0  0  0  3  0  0  0  0  0  0
  184.2360  178.8420  141.2350 C   0  0  0  0  0  0  0  0  0  0  0  0
  185.6130  178.6020  141.3690 C   0  0  0  0  0  3  0  0  0  0  0  0
  187.5400  178.1330  142.7430 O   0  0  0  0  0  1  0  0  0  0  0  0
  185.3660  178.3510  143.7630 C   0  0  0  0  0  3  0  0  0  0  0  0
  186.1770  178.3620  142.6260 C   0  0  0  0  0  0  0  0  0  0  0  0
  183.9930  178.5770  143.6430 C   0  0  0  0  0  3  0  0  0  0  0  0
  1 27  1  6  0  0  0
  1 22  1  0  0  0  0
  2 24  1  0  0  0  0
  2 23  1  0  0  0  0
  3  6  1  0  0  0  0
  4  1  1  0  0  0  0
  4 12  1  0  0  0  0
  4  8  1  0  0  0  0
  5 23  2  0  0  0  0
  5 17  1  0  0  0  0
  6 10  1  0  0  0  0
  7 19  1  0  0  0  0
  9  3  2  0  0  0  0
 10 30  1  0  0  0  0
 12  7  1  0  0  0  0
 13  1  1  0  0  0  0
 13 18  1  0  0  0  0
 14  2  1  0  0  0  0
 15 28  1  0  0  0  0
 16  4  1  0  0  0  0
 16  8  1  0  0  0  0
 17 11  1  6  0  0  0
 17 21  1  0  0  0  0
 18  2  1  0  0  0  0
 19 25  1  0  0  0  0
 20  6  1  0  0  0  0
 21 15  2  0  0  0  0
 21  3  1  0  0  0  0
 22 20  1  6  0  0  0
 22 25  1  0  0  0  0
 23  9  1  0  0  0  0
 26  7  2  0  0  0  0
 28 10  2  0  0  0  0
 29 30  2  0  0  0  0
 30 32  1  0  0  0  0
 31 37  1  0  0  0  0
 32 33  1  0  0  0  0
 32 31  2  0  0  0  0
 33 36  2  0  0  0  0
 36 34  1  0  0  0  0
 36 35  1  0  0  0  0
 37 35  2  0  0  0  0
M  END
>  <MODEL>
2

>  <REMARK>
 VINA RESULT:      -7.5      3.369      7.640
  Name = 
  2 active torsions:
  status: ('A' for Active; 'I' for Inactive)
    1  A    between atoms: C_6  and  C_31
    2  A    between atoms: C_14  and  C_31
                            x       y       z     vdW  Elec       q    Type
                         _______ _______ _______ _____ _____    ______ ____

>  <TORSDO>
F 2

$$$$
=
 OpenBabel10272414483D

 37 42  0  0  1  0  0  0  0  0999 V2000
  186.0040  176.0340  136.7570 C   0  0  1  0  0  0  0  0  0  0  0  0
  189.1650  176.9690  135.2880 C   0  0  0  0  0  0  0  0  0  0  0  0
  188.9340  178.4190  138.8400 C   0  0  0  0  0  0  0  0  0  0  0  0
  184.7580  176.1820  135.8270 C   0  0  0  0  0  0  0  0  0  0  0  0
  190.7450  176.6810  137.3720 C   0  0  0  0  0  3  0  0  0  0  0  0
  187.6620  178.1270  139.5240 N   0  0  0  0  0  0  0  0  0  0  0  0
  183.0510  176.6420  137.6040 C   0  0  0  0  0  0  0  0  0  0  0  0
  184.7940  177.0760  134.6070 C   0  0  0  0  0  2  0  0  0  0  0  0
  188.8440  178.2110  137.3640 C   0  0  0  0  0  3  0  0  0  0  0  0
  187.7290  178.3090  140.9520 C   0  0  0  0  0  0  0  0  0  0  0  0
  192.0870  176.1850  139.2820 N   0  0  0  0  0  1  0  0  0  0  0  0
  183.4610  176.0450  136.4030 O   0  0  0  0  0  0  0  0  0  0  0  0
  187.2080  175.7210  136.0560 O   0  0  0  0  0  0  0  0  0  0  0  0
  189.8370  175.6930  134.7960 C   0  0  0  0  0  1  0  0  0  0  0  0
  189.9850  177.4600  140.7950 N   0  0  0  0  0  0  0  0  0  0  0  0
  184.8440  175.5570  134.4510 C   0  0  0  0  0  2  0  0  0  0  0  0
  190.9800  176.8460  138.6770 C   0  0  2  0  0  3  0  0  0  0  0  0
  187.6370  176.7830  135.2270 C   0  0  0  0  0  2  0  0  0  0  0  0
  183.8380  177.5670  138.3040 O   0  0  0  0  0  0  0  0  0  0  0  0
  186.7950  177.0330  139.0570 C   0  0  0  0  0  2  0  0  0  0  0  0
  190.0170  177.6010  139.4990 C   0  0  0  0  0  0  0  0  0  0  0  0
  186.1790  177.2960  137.6690 C   0  0  2  0  0  3  0  0  0  0  0  0
  189.5900  177.3270  136.6960 C   0  0  0  0  0  0  0  0  0  0  0  0
  189.5500  178.0940  134.3460 C   0  0  0  0  0  1  0  0  0  0  0  0
  184.9690  178.2250  137.7520 C   0  0  0  0  0  2  0  0  0  0  0  0
  181.9370  176.3160  138.0870 O   0  0  0  0  0  0  0  0  0  0  0  0
  185.7170  174.8150  137.6320 C   0  0  0  0  0  1  0  0  0  0  0  0
  188.8760  177.9610  141.5680 C   0  0  0  0  0  3  0  0  0  0  0  0
  185.6910  179.4850  141.0880 O   0  0  0  0  0  0  0  0  0  0  0  0
  186.5330  178.7740  141.7020 C   0  0  0  0  0  0  0  0  0  0  0  0
  187.1290  177.6270  143.8740 C   0  0  0  0  0  3  0  0  0  0  0  0
  186.2740  178.4570  143.1300 C   0  0  0  0  0  0  0  0  0  0  0  0
  185.1670  179.0340  143.7750 C   0  0  0  0  0  3  0  0  0  0  0  0
  183.8090  179.3450  145.7440 O   0  0  0  0  0  1  0  0  0  0  0  0
  185.7640  177.9380  145.8470 C   0  0  0  0  0  3  0  0  0  0  0  0
  184.9110  178.7730  145.1240 C   0  0  0  0  0  0  0  0  0  0  0  0
  186.8750  177.3660  145.2230 C   0  0  0  0  0  3  0  0  0  0  0  0
  1 27  1  1  0  0  0
  1 22  1  0  0  0  0
  2 23  1  0  0  0  0
  3 21  1  0  0  0  0
  3  6  1  0  0  0  0
  4 12  1  0  0  0  0
  4  1  1  0  0  0  0
  5 17  1  0  0  0  0
  6 10  1  0  0  0  0
  7 26  2  0  0  0  0
  7 19  1  0  0  0  0
  8  4  1  0  0  0  0
  9  3  2  0  0  0  0
 10 28  2  0  0  0  0
 10 30  1  0  0  0  0
 12  7  1  0  0  0  0
 13  1  1  0  0  0  0
 14  2  1  0  0  0  0
 15 28  1  0  0  0  0
 16  8  1  0  0  0  0
 16  4  1  0  0  0  0
 17 11  1  1  0  0  0
 17 21  1  0  0  0  0
 18  2  1  0  0  0  0
 18 13  1  0  0  0  0
 20  6  1  0  0  0  0
 21 15  2  0  0  0  0
 22 25  1  1  0  0  0
 22 20  1  0  0  0  0
 23  9  1  0  0  0  0
 23  5  2  0  0  0  0
 24  2  1  0  0  0  0
 25 19  1  0  0  0  0
 29 30  2  0  0  0  0
 30 32  1  0  0  0  0
 31 37  1  0  0  0  0
 32 33  1  0  0  0  0
 32 31  2  0  0  0  0
 33 36  2  0  0  0  0
 36 34  1  0  0  0  0
 36 35  1  0  0  0  0
 37 35  2  0  0  0  0
M  END
>  <MODEL>
3

>  <REMARK>
 VINA RESULT:      -6.8      3.134      8.355
  Name = 
  2 active torsions:
  status: ('A' for Active; 'I' for Inactive)
    1  A    between atoms: C_6  and  C_31
    2  A    between atoms: C_14  and  C_31
                            x       y       z     vdW  Elec       q    Type
                         _______ _______ _______ _____ _____    ______ ____

>  <TORSDO>
F 2

$$$$
=
 OpenBabel10272414483D

 37 42  0  0  1  0  0  0  0  0999 V2000
  182.7700  177.4120  138.9800 C   0  0  1  0  0  0  0  0  0  0  0  0
  182.2540  177.0020  135.4310 C   0  0  0  0  0  0  0  0  0  0  0  0
  186.0070  177.4580  136.1290 C   0  0  0  0  0  0  0  0  0  0  0  0
  181.7730  178.3750  139.6990 C   0  0  0  0  0  0  0  0  0  0  0  0
  184.3140  175.4760  134.8390 C   0  0  0  0  0  3  0  0  0  0  0  0
  186.3290  177.6700  137.5500 N   0  0  0  0  0  0  0  0  0  0  0  0
  183.3040  179.1630  141.5210 C   0  0  0  0  0  0  0  0  0  0  0  0
  180.9800  179.4040  138.9220 C   0  0  0  0  0  2  0  0  0  0  0  0
  184.5610  177.6900  135.8360 C   0  0  0  0  0  3  0  0  0  0  0  0
  187.7190  177.4400  137.8590 C   0  0  0  0  0  0  0  0  0  0  0  0
  186.1010  173.9340  134.4850 N   0  0  0  0  0  1  0  0  0  0  0  0
  182.0480  178.7570  141.0450 O   0  0  0  0  0  0  0  0  0  0  0  0
  182.2010  176.7310  137.8610 O   0  0  0  0  0  0  0  0  0  0  0  0
  181.4470  175.7260  135.2290 C   0  0  0  0  0  1  0  0  0  0  0  0
  187.6220  175.6620  136.2270 N   0  0  0  0  0  0  0  0  0  0  0  0
  180.2960  178.1480  139.4590 C   0  0  0  0  0  2  0  0  0  0  0  0
  185.6100  175.1780  134.9740 C   0  0  2  0  0  3  0  0  0  0  0  0
  181.8910  177.6120  136.7990 C   0  0  0  0  0  2  0  0  0  0  0  0
  184.4050  179.3790  140.6810 O   0  0  0  0  0  0  0  0  0  0  0  0
  185.3680  177.2960  138.6000 C   0  0  0  0  0  2  0  0  0  0  0  0
  186.4870  176.0810  135.7410 C   0  0  0  0  0  0  0  0  0  0  0  0
  184.0920  178.1580  138.5900 C   0  0  2  0  0  3  0  0  0  0  0  0
  183.7450  176.7480  135.3540 C   0  0  0  0  0  0  0  0  0  0  0  0
  181.8560  177.9840  134.3460 C   0  0  0  0  0  1  0  0  0  0  0  0
  184.3140  179.5090  139.2700 C   0  0  0  0  0  2  0  0  0  0  0  0
  183.4550  179.3190  142.7600 O   0  0  0  0  0  0  0  0  0  0  0  0
  183.0880  176.3200  139.9990 C   0  0  0  0  0  1  0  0  0  0  0  0
  188.3390  176.4350  137.2100 C   0  0  0  0  0  3  0  0  0  0  0  0
  188.9810  179.2930  138.5850 O   0  0  0  0  0  0  0  0  0  0  0  0
  188.3880  178.2330  138.9230 C   0  0  0  0  0  0  0  0  0  0  0  0
  187.4630  178.3490  141.2730 C   0  0  0  0  0  3  0  0  0  0  0  0
  188.4040  177.8480  140.3580 C   0  0  0  0  0  0  0  0  0  0  0  0
  189.3590  176.9240  140.8140 C   0  0  0  0  0  3  0  0  0  0  0  0
  190.3390  175.6160  142.5880 O   0  0  0  0  0  1  0  0  0  0  0  0
  188.4480  177.0390  143.0520 C   0  0  0  0  0  3  0  0  0  0  0  0
  189.3850  176.5240  142.1530 C   0  0  0  0  0  0  0  0  0  0  0  0
  187.4860  177.9500  142.6120 C   0  0  0  0  0  3  0  0  0  0  0  0
  1  4  1  0  0  0  0
  1 27  1  1  0  0  0
  2 18  1  0  0  0  0
  3  6  1  0  0  0  0
  4 12  1  0  0  0  0
  5 17  1  0  0  0  0
  5 23  2  0  0  0  0
  6 10  1  0  0  0  0
  6 20  1  0  0  0  0
  7 26  2  0  0  0  0
  8 16  1  0  0  0  0
  8  4  1  0  0  0  0
  9  3  2  0  0  0  0
 10 30  1  0  0  0  0
 12  7  1  0  0  0  0
 13  1  1  0  0  0  0
 14  2  1  0  0  0  0
 15 28  1  0  0  0  0
 16  4  1  0  0  0  0
 17 11  1  1  0  0  0
 17 21  1  0  0  0  0
 18 13  1  0  0  0  0
 19  7  1  0  0  0  0
 21  3  1  0  0  0  0
 21 15  2  0  0  0  0
 22 20  1  1  0  0  0
 22  1  1  0  0  0  0
 22 25  1  0  0  0  0
 23  2  1  0  0  0  0
 23  9  1  0  0  0  0
 24  2  1  0  0  0  0
 25 19  1  0  0  0  0
 28 10  2  0  0  0  0
 29 30  2  0  0  0  0
 30 32  1  0  0  0  0
 31 37  1  0  0  0  0
 32 33  1  0  0  0  0
 32 31  2  0  0  0  0
 33 36  2  0  0  0  0
 36 34  1  0  0  0  0
 36 35  1  0  0  0  0
 37 35  2  0  0  0  0
M  END
>  <MODEL>
4

>  <REMARK>
 VINA RESULT:      -6.6      3.443      6.915
  Name = 
  2 active torsions:
  status: ('A' for Active; 'I' for Inactive)
    1  A    between atoms: C_6  and  C_31
    2  A    between atoms: C_14  and  C_31
                            x       y       z     vdW  Elec       q    Type
                         _______ _______ _______ _____ _____    ______ ____

>  <TORSDO>
F 2

$$$$
=
 OpenBabel10272414483D

 37 42  0  0  1  0  0  0  0  0999 V2000
  183.7230  176.8610  137.7010 C   0  0  1  0  0  0  0  0  0  0  0  0
  186.4190  177.2610  135.3340 C   0  0  0  0  0  0  0  0  0  0  0  0
  187.5980  178.3960  138.8130 C   0  0  0  0  0  0  0  0  0  0  0  0
  182.3200  177.3440  137.2140 C   0  0  0  0  0  0  0  0  0  0  0  0
  188.4480  176.4670  136.8080 C   0  0  0  0  0  3  0  0  0  0  0  0
  186.5600  178.3080  139.8540 N   0  0  0  0  0  0  0  0  0  0  0  0
  181.3760  177.9790  139.4470 C   0  0  0  0  0  0  0  0  0  0  0  0
  182.1850  178.3200  136.0650 C   0  0  0  0  0  2  0  0  0  0  0  0
  187.0230  178.3470  137.4350 C   0  0  0  0  0  3  0  0  0  0  0  0
  187.0940  178.3410  141.1930 C   0  0  0  0  0  0  0  0  0  0  0  0
  190.1570  175.5340  138.1880 N   0  0  0  0  0  1  0  0  0  0  0  0
  181.2610  177.4230  138.1650 O   0  0  0  0  0  0  0  0  0  0  0  0
  184.5580  176.3740  136.6490 O   0  0  0  0  0  0  0  0  0  0  0  0
  186.6090  175.9260  134.6270 C   0  0  0  0  0  1  0  0  0  0  0  0
  188.9490  177.0670  140.3140 N   0  0  0  0  0  0  0  0  0  0  0  0
  181.8450  176.8450  135.8660 C   0  0  0  0  0  2  0  0  0  0  0  0
  189.0950  176.4600  137.9780 C   0  0  2  0  0  3  0  0  0  0  0  0
  184.9420  177.3970  135.7530 C   0  0  0  0  0  2  0  0  0  0  0  0
  182.5220  178.6550  139.8860 O   0  0  0  0  0  0  0  0  0  0  0  0
  185.3720  177.4620  139.6580 C   0  0  0  0  0  2  0  0  0  0  0  0
  188.6190  177.3170  139.0780 C   0  0  0  0  0  0  0  0  0  0  0  0
  184.4410  177.9720  138.5410 C   0  0  2  0  0  3  0  0  0  0  0  0
  187.3170  177.3940  136.5460 C   0  0  0  0  0  0  0  0  0  0  0  0
  186.7420  178.3650  134.3460 C   0  0  0  0  0  1  0  0  0  0  0  0
  183.5510  179.1170  139.0220 C   0  0  0  0  0  2  0  0  0  0  0  0
  180.4160  177.8440  140.2490 O   0  0  0  0  0  0  0  0  0  0  0  0
  183.4490  175.6510  138.5930 C   0  0  0  0  0  1  0  0  0  0  0  0
  188.2650  177.7100  141.4090 C   0  0  0  0  0  3  0  0  0  0  0  0
  185.5850  179.9580  142.0060 O   0  0  0  0  0  0  0  0  0  0  0  0
  186.3150  178.9700  142.2920 C   0  0  0  0  0  0  0  0  0  0  0  0
  187.4350  177.7830  144.2220 C   0  0  0  0  0  3  0  0  0  0  0  0
  186.3490  178.5080  143.7030 C   0  0  0  0  0  0  0  0  0  0  0  0
  185.2880  178.8360  144.5620 C   0  0  0  0  0  3  0  0  0  0  0  0
  184.2420  178.7620  146.7350 O   0  0  0  0  0  1  0  0  0  0  0  0
  186.3850  177.7070  146.4000 C   0  0  0  0  0  3  0  0  0  0  0  0
  185.3020  178.4350  145.9010 C   0  0  0  0  0  0  0  0  0  0  0  0
  187.4530  177.3820  145.5600 C   0  0  0  0  0  3  0  0  0  0  0  0
  1 22  1  0  0  0  0
  1 27  1  1  0  0  0
  2 18  1  0  0  0  0
  2 23  1  0  0  0  0
  3 21  1  0  0  0  0
  3  6  1  0  0  0  0
  4  1  1  0  0  0  0
  4 12  1  0  0  0  0
  5 17  1  0  0  0  0
  6 10  1  0  0  0  0
  7 19  1  0  0  0  0
  7 26  2  0  0  0  0
  8  4  1  0  0  0  0
  9  3  2  0  0  0  0
 10 28  2  0  0  0  0
 10 30  1  0  0  0  0
 12  7  1  0  0  0  0
 13  1  1  0  0  0  0
 14  2  1  0  0  0  0
 15 28  1  0  0  0  0
 16  8  1  0  0  0  0
 16  4  1  0  0  0  0
 17 11  1  1  0  0  0
 17 21  1  0  0  0  0
 18 13  1  0  0  0  0
 20  6  1  0  0  0  0
 21 15  2  0  0  0  0
 22 25  1  1  0  0  0
 22 20  1  0  0  0  0
 23  5  2  0  0  0  0
 23  9  1  0  0  0  0
 24  2  1  0  0  0  0
 25 19  1  0  0  0  0
 29 30  2  0  0  0  0
 30 32  1  0  0  0  0
 31 37  1  0  0  0  0
 32 31  2  0  0  0  0
 32 33  1  0  0  0  0
 33 36  2  0  0  0  0
 36 35  1  0  0  0  0
 36 34  1  0  0  0  0
 37 35  2  0  0  0  0
M  END
>  <MODEL>
5

>  <REMARK>
 VINA RESULT:      -6.6      3.321      8.206
  Name = 
  2 active torsions:
  status: ('A' for Active; 'I' for Inactive)
    1  A    between atoms: C_6  and  C_31
    2  A    between atoms: C_14  and  C_31
                            x       y       z     vdW  Elec       q    Type
                         _______ _______ _______ _____ _____    ______ ____

>  <TORSDO>
F 2

$$$$
=
 OpenBabel10272414483D

 37 42  0  0  1  0  0  0  0  0999 V2000
  187.7300  177.2270  143.7060 C   0  0  1  0  0  0  0  0  0  0  0  0
  185.8250  178.9170  146.2630 C   0  0  0  0  0  0  0  0  0  0  0  0
  184.3050  179.6950  142.8190 C   0  0  2  0  0  3  0  0  0  0  0  0
  189.2830  177.3130  143.8530 C   0  0  0  0  0  0  0  0  0  0  0  0
  183.3890  178.5600  145.3360 C   0  0  0  0  0  3  0  0  0  0  0  0
  185.0290  179.0810  141.6940 N   0  0  0  0  0  0  0  0  0  0  0  0
  189.8710  177.1740  141.4210 C   0  0  0  0  0  0  0  0  0  0  0  0
  189.9300  178.3910  144.6960 C   0  0  0  0  0  2  0  0  0  0  0  0
  185.1210  179.7230  144.0690 C   0  0  0  0  0  3  0  0  0  0  0  0
  184.2550  179.0310  140.4780 C   0  0  0  0  0  0  0  0  0  0  0  0
  181.2330  177.9870  144.4880 N   0  0  0  0  0  1  0  0  0  0  0  0
  190.0940  176.8640  142.7700 O   0  0  0  0  0  0  0  0  0  0  0  0
  187.0350  177.2440  144.9530 O   0  0  0  0  0  0  0  0  0  0  0  0
  185.4190  177.8750  147.2970 C   0  0  0  0  0  1  0  0  0  0  0  0
  182.3460  178.6170  141.8990 N   0  0  0  0  0  0  0  0  0  0  0  0
  189.8710  176.9510  145.1990 C   0  0  0  0  0  2  0  0  0  0  0  0
  182.5330  178.5420  144.3100 C   0  0  0  0  0  0  0  0  0  0  0  0
  187.1560  178.4870  145.6170 C   0  0  0  0  0  2  0  0  0  0  0  0
  188.8970  178.0900  140.9980 O   0  0  0  0  0  0  0  0  0  0  0  0
  185.9430  177.9490  141.9190 C   0  0  0  0  0  2  0  0  0  0  0  0
  182.9880  178.9750  142.9760 C   0  0  0  0  0  0  0  0  0  0  0  0
  187.1950  178.3310  142.7310 C   0  0  2  0  0  3  0  0  0  0  0  0
  184.7650  179.1030  145.1980 C   0  0  0  0  0  0  0  0  0  0  0  0
  186.0460  180.2320  146.9860 C   0  0  0  0  0  1  0  0  0  0  0  0
  188.2490  179.0130  141.8610 C   0  0  0  0  0  2  0  0  0  0  0  0
  190.5600  176.5880  140.5480 O   0  0  0  0  0  0  0  0  0  0  0  0
  187.4540  175.8490  143.1080 C   0  0  0  0  0  1  0  0  0  0  0  0
  182.9350  178.7850  140.5940 C   0  0  0  0  0  3  0  0  0  0  0  0
  184.9850  180.2980  138.6300 O   0  0  0  0  0  0  0  0  0  0  0  0
  184.9290  179.1550  139.1590 C   0  0  0  0  0  0  0  0  0  0  0  0
  184.7480  177.0650  137.7490 C   0  0  0  0  0  3  0  0  0  0  0  0
  185.5330  178.0120  138.4260 C   0  0  0  0  0  0  0  0  0  0  0  0
  186.9310  177.8930  138.3680 C   0  0  0  0  0  3  0  0  0  0  0  0
  188.9130  176.7340  137.6250 O   0  0  0  0  0  1  0  0  0  0  0  0
  186.7360  175.9020  137.0070 C   0  0  0  0  0  3  0  0  0  0  0  0
  187.5300  176.8420  137.6670 C   0  0  0  0  0  0  0  0  0  0  0  0
  185.3440  176.0140  137.0470 C   0  0  0  0  0  3  0  0  0  0  0  0
  1 27  1  6  0  0  0
  1  4  1  0  0  0  0
  1 13  1  0  0  0  0
  2 24  1  0  0  0  0
  2 14  1  0  0  0  0
  3 21  1  0  0  0  0
  3  9  1  1  0  0  0
  4  8  1  0  0  0  0
  4 16  1  0  0  0  0
  6 20  1  0  0  0  0
  6  3  1  0  0  0  0
  7 12  1  0  0  0  0
  8 16  1  0  0  0  0
  9 23  2  0  0  0  0
 10 28  2  0  0  0  0
 10  6  1  0  0  0  0
 12  4  1  0  0  0  0
 13 18  1  0  0  0  0
 15 21  2  0  0  0  0
 17 11  1  0  0  0  0
 17  5  2  0  0  0  0
 18  2  1  0  0  0  0
 19  7  1  0  0  0  0
 19 25  1  0  0  0  0
 20 22  1  0  0  0  0
 21 17  1  0  0  0  0
 22 25  1  6  0  0  0
 22  1  1  0  0  0  0
 23  5  1  0  0  0  0
 23  2  1  0  0  0  0
 26  7  2  0  0  0  0
 28 15  1  0  0  0  0
 29 30  2  0  0  0  0
 30 10  1  0  0  0  0
 31 32  1  0  0  0  0
 32 30  1  0  0  0  0
 33 32  2  0  0  0  0
 34 36  1  0  0  0  0
 35 37  1  0  0  0  0
 35 36  2  0  0  0  0
 36 33  1  0  0  0  0
 37 31  2  0  0  0  0
M  END
>  <MODEL>
6

>  <REMARK>
 VINA RESULT:      -6.5      1.973      3.067
  Name = 
  2 active torsions:
  status: ('A' for Active; 'I' for Inactive)
    1  A    between atoms: C_6  and  C_31
    2  A    between atoms: C_14  and  C_31
                            x       y       z     vdW  Elec       q    Type
                         _______ _______ _______ _____ _____    ______ ____

>  <TORSDO>
F 2

$$$$
=
 OpenBabel10272414483D

 37 42  0  0  1  0  0  0  0  0999 V2000
  185.4490  173.8770  136.8540 C   0  0  1  0  0  0  0  0  0  0  0  0
  188.6130  175.5800  136.5150 C   0  0  0  0  0  0  0  0  0  0  0  0
  185.9220  178.0980  137.6100 C   0  0  2  0  0  3  0  0  0  0  0  0
  185.0910  172.8820  135.7040 C   0  0  0  0  0  0  0  0  0  0  0  0
  188.5000  177.1820  138.5990 C   0  0  0  0  0  3  0  0  0  0  0  0
  184.5770  177.5140  137.7460 N   0  0  0  0  0  0  0  0  0  0  0  0
  182.5960  173.0930  135.8260 C   0  0  0  0  0  0  0  0  0  0  0  0
  185.7620  172.9780  134.3510 C   0  0  0  0  0  2  0  0  0  0  0  0
  186.8380  177.2290  136.8120 C   0  0  0  0  0  3  0  0  0  0  0  0
  183.6780  178.3300  138.5240 C   0  0  0  0  0  0  0  0  0  0  0  0
  188.3530  178.4290  140.6290 N   0  0  0  0  0  1  0  0  0  0  0  0
  183.7710  172.3460  135.6560 O   0  0  0  0  0  0  0  0  0  0  0  0
  186.8510  173.9880  137.1000 O   0  0  0  0  0  0  0  0  0  0  0  0
  189.6350  174.8190  137.3490 C   0  0  0  0  0  1  0  0  0  0  0  0
  185.6030  178.8800  139.8750 N   0  0  0  0  0  0  0  0  0  0  0  0
  186.1400  171.8610  135.3220 C   0  0  0  0  0  2  0  0  0  0  0  0
  187.8090  178.0200  139.3770 C   0  0  0  0  0  0  0  0  0  0  0  0
  187.5370  174.5930  136.0210 C   0  0  0  0  0  2  0  0  0  0  0  0
  182.5880  174.4910  135.9190 O   0  0  0  0  0  0  0  0  0  0  0  0
  184.4020  176.0590  137.8810 C   0  0  0  0  0  2  0  0  0  0  0  0
  186.4390  178.4070  138.9940 C   0  0  0  0  0  0  0  0  0  0  0  0
  184.7920  175.2790  136.6110 C   0  0  2  0  0  3  0  0  0  0  0  0
  187.9670  176.7050  137.2960 C   0  0  0  0  0  0  0  0  0  0  0  0
  189.3280  176.1540  135.3070 C   0  0  0  0  0  1  0  0  0  0  0  0
  183.6850  175.3180  135.5590 C   0  0  0  0  0  2  0  0  0  0  0  0
  181.5030  172.4790  135.9220 O   0  0  0  0  0  0  0  0  0  0  0  0
  184.8640  173.2590  138.1230 C   0  0  0  0  0  1  0  0  0  0  0  0
  184.1960  178.9860  139.5820 C   0  0  0  0  0  3  0  0  0  0  0  0
  181.4980  177.4570  138.7140 O   0  0  0  0  0  0  0  0  0  0  0  0
  182.2260  178.3520  138.2060 C   0  0  0  0  0  0  0  0  0  0  0  0
  181.1610  179.0480  136.0230 C   0  0  0  0  0  3  0  0  0  0  0  0
  181.5850  179.3620  137.3240 C   0  0  0  0  0  0  0  0  0  0  0  0
  181.3560  180.6580  137.8140 C   0  0  0  0  0  3  0  0  0  0  0  0
  180.5200  182.9010  137.5120 O   0  0  0  0  0  1  0  0  0  0  0  0
  180.3270  181.2990  135.7200 C   0  0  0  0  0  3  0  0  0  0  0  0
  180.7340  181.6230  137.0160 C   0  0  0  0  0  0  0  0  0  0  0  0
  180.5390  180.0110  135.2240 C   0  0  0  0  0  3  0  0  0  0  0  0
  1 13  1  0  0  0  0
  1 27  1  1  0  0  0
  2 23  1  0  0  0  0
  2 14  1  0  0  0  0
  3  9  1  1  0  0  0
  3  6  1  0  0  0  0
  3 21  1  0  0  0  0
  4  1  1  0  0  0  0
  5 17  2  0  0  0  0
  6 20  1  0  0  0  0
  6 10  1  0  0  0  0
  7 19  1  0  0  0  0
  7 26  2  0  0  0  0
  8 16  1  0  0  0  0
  8  4  1  0  0  0  0
  9 23  2  0  0  0  0
 10 28  2  0  0  0  0
 12  4  1  0  0  0  0
 12  7  1  0  0  0  0
 16  4  1  0  0  0  0
 17 11  1  0  0  0  0
 18  2  1  0  0  0  0
 18 13  1  0  0  0  0
 21 17  1  0  0  0  0
 21 15  2  0  0  0  0
 22 25  1  6  0  0  0
 22  1  1  0  0  0  0
 22 20  1  0  0  0  0
 23  5  1  0  0  0  0
 24  2  1  0  0  0  0
 25 19  1  0  0  0  0
 28 15  1  0  0  0  0
 30 10  1  0  0  0  0
 30 29  2  0  0  0  0
 31 32  1  0  0  0  0
 32 33  2  0  0  0  0
 32 30  1  0  0  0  0
 35 36  2  0  0  0  0
 36 34  1  0  0  0  0
 36 33  1  0  0  0  0
 37 35  1  0  0  0  0
 37 31  2  0  0  0  0
M  END
>  <MODEL>
7

>  <REMARK>
 VINA RESULT:      -6.4      4.853      8.966
  Name = 
  2 active torsions:
  status: ('A' for Active; 'I' for Inactive)
    1  A    between atoms: C_6  and  C_31
    2  A    between atoms: C_14  and  C_31
                            x       y       z     vdW  Elec       q    Type
                         _______ _______ _______ _____ _____    ______ ____

>  <TORSDO>
F 2

$$$$
=
 OpenBabel10272414483D

 37 42  0  0  1  0  0  0  0  0999 V2000
  186.4930  173.2750  136.6900 C   0  0  1  0  0  0  0  0  0  0  0  0
  189.4060  175.3330  136.1350 C   0  0  0  0  0  0  0  0  0  0  0  0
  186.3560  177.5860  136.7740 C   0  0  2  0  0  3  0  0  0  0  0  0
  186.3190  172.0740  135.7070 C   0  0  0  0  0  0  0  0  0  0  0  0
  188.9960  177.2070  137.9360 C   0  0  0  0  0  3  0  0  0  0  0  0
  185.1000  176.8460  136.9790 N   0  0  0  0  0  0  0  0  0  0  0  0
  183.8160  171.9470  135.7550 C   0  0  0  0  0  0  0  0  0  0  0  0
  187.0210  172.0520  134.3670 C   0  0  0  0  0  2  0  0  0  0  0  0
  187.4120  176.7420  136.1380 C   0  0  0  0  0  3  0  0  0  0  0  0
  184.0690  177.6380  137.6040 C   0  0  0  0  0  0  0  0  0  0  0  0
  188.6040  178.7190  139.7400 N   0  0  0  0  0  1  0  0  0  0  0  0
  185.0870  171.3560  135.7240 O   0  0  0  0  0  0  0  0  0  0  0  0
  187.8570  173.6190  136.9370 O   0  0  0  0  0  0  0  0  0  0  0  0
  190.4900  174.8620  137.0950 C   0  0  0  0  0  1  0  0  0  0  0  0
  185.8490  178.6570  138.8810 N   0  0  0  0  0  0  0  0  0  0  0  0
  187.5110  171.1630  135.5080 C   0  0  0  0  0  2  0  0  0  0  0  0
  188.1680  178.0500  138.5610 C   0  0  0  0  0  0  0  0  0  0  0  0
  188.4940  174.1400  135.7870 C   0  0  0  0  0  2  0  0  0  0  0  0
  183.6130  173.3270  135.6240 O   0  0  0  0  0  0  0  0  0  0  0  0
  185.1200  175.4190  137.3410 C   0  0  0  0  0  2  0  0  0  0  0  0
  186.7740  178.1750  138.0990 C   0  0  0  0  0  0  0  0  0  0  0  0
  185.6610  174.5160  136.2170 C   0  0  2  0  0  3  0  0  0  0  0  0
  188.5830  176.4640  136.7170 C   0  0  0  0  0  0  0  0  0  0  0  0
  190.0810  175.8080  134.8620 C   0  0  0  0  0  1  0  0  0  0  0  0
  184.6000  174.2340  135.1550 C   0  0  0  0  0  2  0  0  0  0  0  0
  182.8140  171.2080  135.9290 O   0  0  0  0  0  0  0  0  0  0  0  0
  185.9510  172.7850  138.0310 C   0  0  0  0  0  1  0  0  0  0  0  0
  184.4520  178.5160  138.5520 C   0  0  0  0  0  3  0  0  0  0  0  0
  182.1530  178.0500  136.2950 O   0  0  0  0  0  0  0  0  0  0  0  0
  182.6410  177.4060  137.2640 C   0  0  0  0  0  0  0  0  0  0  0  0
  181.1420  176.8220  139.2140 C   0  0  0  0  0  3  0  0  0  0  0  0
  181.7550  176.4680  138.0000 C   0  0  0  0  0  0  0  0  0  0  0  0
  181.4830  175.2040  137.4520 C   0  0  0  0  0  3  0  0  0  0  0  0
  180.3820  173.0590  137.5590 O   0  0  0  0  0  1  0  0  0  0  0  0
  180.0410  174.6700  139.3210 C   0  0  0  0  0  3  0  0  0  0  0  0
  180.6350  174.3080  138.1090 C   0  0  0  0  0  0  0  0  0  0  0  0
  180.2940  175.9280  139.8720 C   0  0  0  0  0  3  0  0  0  0  0  0
  1 13  1  0  0  0  0
  1 27  1  1  0  0  0
  2 23  1  0  0  0  0
  2 14  1  0  0  0  0
  3  9  1  1  0  0  0
  3  6  1  0  0  0  0
  3 21  1  0  0  0  0
  4 12  1  0  0  0  0
  4  1  1  0  0  0  0
  5 17  2  0  0  0  0
  6 20  1  0  0  0  0
  6 10  1  0  0  0  0
  7 26  2  0  0  0  0
  8 16  1  0  0  0  0
  8  4  1  0  0  0  0
  9 23  2  0  0  0  0
 10 28  2  0  0  0  0
 12  7  1  0  0  0  0
 16  4  1  0  0  0  0
 17 11  1  0  0  0  0
 18  2  1  0  0  0  0
 18 13  1  0  0  0  0
 19  7  1  0  0  0  0
 21 17  1  0  0  0  0
 21 15  2  0  0  0  0
 22 25  1  1  0  0  0
 22  1  1  0  0  0  0
 22 20  1  0  0  0  0
 23  5  1  0  0  0  0
 24  2  1  0  0  0  0
 25 19  1  0  0  0  0
 28 15  1  0  0  0  0
 29 30  2  0  0  0  0
 30 10  1  0  0  0  0
 30 32  1  0  0  0  0
 31 37  1  0  0  0  0
 32 31  2  0  0  0  0
 33 32  1  0  0  0  0
 33 36  2  0  0  0  0
 34 36  1  0  0  0  0
 35 37  2  0  0  0  0
 36 35  1  0  0  0  0
M  END
>  <MODEL>
8

>  <REMARK>
 VINA RESULT:      -6.3      4.817      8.863
  Name = 
  2 active torsions:
  status: ('A' for Active; 'I' for Inactive)
    1  A    between atoms: C_6  and  C_31
    2  A    between atoms: C_14  and  C_31
                            x       y       z     vdW  Elec       q    Type
                         _______ _______ _______ _____ _____    ______ ____

>  <TORSDO>
F 2

$$$$
=
 OpenBabel10272414483D

 37 42  0  0  1  0  0  0  0  0999 V2000
  186.8720  175.5500  136.9490 C   0  0  1  0  0  0  0  0  0  0  0  0
  190.4110  176.1550  137.3160 C   0  0  0  0  0  0  0  0  0  0  0  0
  188.4810  178.3070  139.8500 C   0  0  2  0  0  3  0  0  0  0  0  0
  186.3440  175.5050  135.4790 C   0  0  0  0  0  0  0  0  0  0  0  0
  190.5840  176.3000  139.9370 C   0  0  0  0  0  3  0  0  0  0  0  0
  187.0170  178.1650  139.7630 N   0  0  0  0  0  0  0  0  0  0  0  0
  184.0170  176.3250  135.9210 C   0  0  0  0  0  0  0  0  0  0  0  0
  187.1310  176.1270  134.3460 C   0  0  0  0  0  2  0  0  0  0  0  0
  189.1720  177.7990  138.6280 C   0  0  0  0  0  3  0  0  0  0  0  0
  186.3290  178.6380  140.9380 C   0  0  0  0  0  0  0  0  0  0  0  0
  190.6260  176.2050  142.3220 N   0  0  0  0  0  1  0  0  0  0  0  0
  184.9350  175.4920  135.2640 O   0  0  0  0  0  0  0  0  0  0  0  0
  188.2190  175.0960  137.0870 O   0  0  0  0  0  0  0  0  0  0  0  0
  191.0900  174.8040  137.5000 C   0  0  0  0  0  1  0  0  0  0  0  0
  188.2040  177.7700  142.1910 N   0  0  0  0  0  0  0  0  0  0  0  0
  187.0810  174.6100  134.5070 C   0  0  0  0  0  2  0  0  0  0  0  0
  190.1000  176.7300  141.1070 C   0  0  0  0  0  0  0  0  0  0  0  0
  189.1430  175.9630  136.4610 C   0  0  0  0  0  2  0  0  0  0  0  0
  184.4060  177.3730  136.7660 O   0  0  0  0  0  0  0  0  0  0  0  0
  186.4160  177.0000  139.0930 C   0  0  0  0  0  2  0  0  0  0  0  0
  188.9410  177.6410  141.1230 C   0  0  0  0  0  0  0  0  0  0  0  0
  186.6750  176.9730  137.5750 C   0  0  2  0  0  3  0  0  0  0  0  0
  190.0530  176.7950  138.6410 C   0  0  0  0  0  0  0  0  0  0  0  0
  191.3660  177.0600  136.5630 C   0  0  0  0  0  1  0  0  0  0  0  0
  185.7240  177.9010  136.8210 C   0  0  0  0  0  2  0  0  0  0  0  0
  182.7890  176.1080  135.7620 O   0  0  0  0  0  0  0  0  0  0  0  0
  186.0230  174.5380  137.7170 C   0  0  0  0  0  1  0  0  0  0  0  0
  186.9190  178.4210  142.1310 C   0  0  0  0  0  3  0  0  0  0  0  0
  184.7370  179.9450  139.7930 O   0  0  0  0  0  0  0  0  0  0  0  0
  184.9800  179.2500  140.8180 C   0  0  0  0  0  0  0  0  0  0  0  0
  182.5800  178.8050  141.4720 C   0  0  0  0  0  3  0  0  0  0  0  0
  183.9060  179.0970  141.8320 C   0  0  0  0  0  0  0  0  0  0  0  0
  184.2250  179.2060  143.1960 C   0  0  0  0  0  3  0  0  0  0  0  0
  183.5700  179.1610  145.5170 O   0  0  0  0  0  1  0  0  0  0  0  0
  181.9240  178.7630  143.8010 C   0  0  0  0  0  3  0  0  0  0  0  0
  183.2400  179.0440  144.1750 C   0  0  0  0  0  0  0  0  0  0  0  0
  181.5940  178.6420  142.4490 C   0  0  0  0  0  3  0  0  0  0  0  0
  1 13  1  0  0  0  0
  1 22  1  0  0  0  0
  1 27  1  1  0  0  0
  2 14  1  0  0  0  0
  2 23  1  0  0  0  0
  3  9  1  6  0  0  0
  3 21  1  0  0  0  0
  4  1  1  0  0  0  0
  5 17  2  0  0  0  0
  6  3  1  0  0  0  0
  6 10  1  0  0  0  0
  7 19  1  0  0  0  0
  8 16  1  0  0  0  0
  8  4  1  0  0  0  0
  9 23  2  0  0  0  0
 10 28  2  0  0  0  0
 12  4  1  0  0  0  0
 12  7  1  0  0  0  0
 16  4  1  0  0  0  0
 17 21  1  0  0  0  0
 17 11  1  0  0  0  0
 18 13  1  0  0  0  0
 18  2  1  0  0  0  0
 19 25  1  0  0  0  0
 20  6  1  0  0  0  0
 21 15  2  0  0  0  0
 22 25  1  6  0  0  0
 22 20  1  0  0  0  0
 23  5  1  0  0  0  0
 24  2  1  0  0  0  0
 26  7  2  0  0  0  0
 28 15  1  0  0  0  0
 29 30  2  0  0  0  0
 30 10  1  0  0  0  0
 30 32  1  0  0  0  0
 31 32  2  0  0  0  0
 31 37  1  0  0  0  0
 32 33  1  0  0  0  0
 33 36  2  0  0  0  0
 35 36  1  0  0  0  0
 36 34  1  0  0  0  0
 37 35  2  0  0  0  0
M  END
>  <MODEL>
9

>  <REMARK>
 VINA RESULT:      -5.8      3.063      8.259
  Name = 
  2 active torsions:
  status: ('A' for Active; 'I' for Inactive)
    1  A    between atoms: C_6  and  C_31
    2  A    between atoms: C_14  and  C_31
                            x       y       z     vdW  Elec       q    Type
                         _______ _______ _______ _____ _____    ______ ____

>  <TORSDO>
F 2

$$$$
