=
 OpenBabel10272400093D

 34 38  0  0  1  0  0  0  0  0999 V2000
  190.3660  177.3590  147.4610 C   0  0  0  0  0  0  0  0  0  0  0  0
  191.7640  175.8960  146.1200 C   0  0  0  0  0  0  0  0  0  0  0  0
  189.7770  177.0870  145.1070 C   0  0  0  0  0  0  0  0  0  0  0  0
  189.1720  177.1800  142.7370 C   0  0  0  0  0  0  0  0  0  0  0  0
  191.2640  177.2480  148.5230 C   0  0  0  0  0  3  0  0  0  0  0  0
  192.6490  175.7890  147.1980 C   0  0  0  0  0  3  0  0  0  0  0  0
  191.6060  177.1390  143.3340 C   0  0  0  0  0  2  0  0  0  0  0  0
  190.6580  176.7920  146.1940 C   0  0  0  0  0  0  0  0  0  0  0  0
  191.8720  176.6070  141.9320 C   0  0  0  0  0  2  0  0  0  0  0  0
  189.4810  176.9640  141.2830 C   0  0  0  0  0  2  0  0  0  0  0  0
  192.4240  176.4920  148.3790 C   0  0  0  0  0  3  0  0  0  0  0  0
  188.4860  177.6050  145.4190 C   0  0  0  0  0  0  0  0  0  0  0  0
  189.1420  177.9770  147.6780 C   0  0  0  0  0  3  0  0  0  0  0  0
  191.9150  174.6370  144.8970 Cl  0  0  0  0  0  0  0  0  0  0  0  0
  187.8660  177.5000  143.0840 C   0  0  0  0  0  3  0  0  0  0  0  0
  187.5040  177.7430  144.4120 C   0  0  0  0  0  0  0  0  0  0  0  0
  190.9350  177.2970  140.9490 C   0  0  2  0  0  3  0  0  0  0  0  0
  190.1540  177.0140  143.7370 C   0  0  0  0  0  0  0  0  0  0  0  0
  188.2290  178.0470  146.6800 N   0  0  0  0  0  0  0  0  0  0  0  0
  183.8590  178.6650  143.9180 C   0  0  0  0  0  0  0  0  0  0  0  0
  183.4570  178.8550  145.2400 C   0  0  0  0  0  3  0  0  0  0  0  0
  186.1010  178.1490  144.6970 C   0  0  0  0  0  0  0  0  0  0  0  0
  184.3510  178.6890  146.2510 N   0  0  0  0  0  0  0  0  0  0  0  0
  185.1800  178.3080  143.6500 C   0  0  0  0  0  3  0  0  0  0  0  0
  185.6440  178.3420  146.0100 C   0  0  0  0  0  3  0  0  0  0  0  0
  182.8880  178.8390  142.8050 C   0  0  0  0  0  1  0  0  0  0  0  0
  191.2530  176.9280  139.5730 N   0  0  0  0  0  0  0  0  0  0  0  0
  194.0090  176.6450  137.3000 O   0  0  0  0  0  1  0  0  0  0  0  0
  192.4530  177.0020  139.0870 C   0  0  0  0  0  3  0  0  0  0  0  0
  192.7280  176.6370  137.7330 N   0  0  0  0  0  0  0  0  0  0  0  0
  191.6770  176.1790  136.8300 C   0  0  0  0  0  2  0  0  0  0  0  0
  192.6060  174.0720  137.4910 F   0  0  0  0  0  0  0  0  0  0  0  0
  191.4990  174.6670  136.9120 C   0  0  1  0  0  3  0  0  0  0  0  0
  190.3550  174.3540  137.6480 O   0  0  0  0  0  1  0  0  0  0  0  0
  1 13  1  0  0  0  0
  1  5  2  0  0  0  0
  2  8  2  0  0  0  0
  2  6  1  0  0  0  0
  3 12  1  0  0  0  0
  3  8  1  0  0  0  0
  4 15  2  0  0  0  0
  4 18  1  0  0  0  0
  6 11  2  0  0  0  0
  7 18  1  0  0  0  0
  8  1  1  0  0  0  0
  9  7  1  0  0  0  0
 10  4  1  0  0  0  0
 11  5  1  0  0  0  0
 12 19  1  0  0  0  0
 14  2  1  0  0  0  0
 15 16  1  0  0  0  0
 16 22  1  0  0  0  0
 16 12  2  0  0  0  0
 17 27  1  6  0  0  0
 17 10  1  0  0  0  0
 17  9  1  0  0  0  0
 18  3  2  0  0  0  0
 19 13  2  0  0  0  0
 20 21  1  0  0  0  0
 21 23  2  0  0  0  0
 22 25  2  0  0  0  0
 24 20  2  0  0  0  0
 24 22  1  0  0  0  0
 25 23  1  0  0  0  0
 26 20  1  0  0  0  0
 28 30  1  0  0  0  0
 29 27  2  0  0  0  0
 30 29  1  0  0  0  0
 31 33  1  0  0  0  0
 31 30  1  0  0  0  0
 33 32  1  1  0  0  0
 33 34  1  0  0  0  0
M  END
>  <MODEL>
1

>  <REMARK>
 VINA RESULT:     -10.1      0.000      0.000
  Name = 
  4 active torsions:
  status: ('A' for Active; 'I' for Inactive)
    1  A    between atoms: N_3  and  C_29
    2  A    between atoms: C_12  and  C_28
    3  A    between atoms: C_20  and  C_22
    4  A    between atoms: C_22  and  N_33
                            x       y       z     vdW  Elec       q    Type
                         _______ _______ _______ _____ _____    ______ ____

>  <TORSDO>
F 4

$$$$
=
 OpenBabel10272400093D

 34 38  0  0  1  0  0  0  0  0999 V2000
  189.7570  177.4570  146.4260 C   0  0  0  0  0  0  0  0  0  0  0  0
  191.4720  176.0620  145.4240 C   0  0  0  0  0  0  0  0  0  0  0  0
  189.7040  177.1760  144.0010 C   0  0  0  0  0  0  0  0  0  0  0  0
  189.6240  177.2600  141.5570 C   0  0  0  0  0  0  0  0  0  0  0  0
  190.4090  177.3770  147.6580 C   0  0  0  0  0  3  0  0  0  0  0  0
  192.1070  175.9850  146.6680 C   0  0  0  0  0  3  0  0  0  0  0  0
  191.8700  177.3160  142.6670 C   0  0  0  0  0  2  0  0  0  0  0  0
  190.3410  176.9120  145.2540 C   0  0  0  0  0  0  0  0  0  0  0  0
  192.4560  176.8040  141.3570 C   0  0  0  0  0  2  0  0  0  0  0  0
  190.2500  177.0670  140.2040 C   0  0  0  0  0  2  0  0  0  0  0  0
  191.6020  176.6710  147.7710 C   0  0  0  0  0  3  0  0  0  0  0  0
  188.3560  177.6380  144.0250 C   0  0  0  0  0  0  0  0  0  0  0  0
  188.4910  178.0230  146.3710 C   0  0  0  0  0  3  0  0  0  0  0  0
  191.9380  174.8190  144.2660 Cl  0  0  0  0  0  0  0  0  0  0  0  0
  188.2610  177.5230  141.6110 C   0  0  0  0  0  3  0  0  0  0  0  0
  187.6110  177.7420  142.8280 C   0  0  0  0  0  0  0  0  0  0  0  0
  191.7260  177.4610  140.1930 C   0  0  2  0  0  3  0  0  0  0  0  0
  190.3720  177.1290  142.7460 C   0  0  0  0  0  0  0  0  0  0  0  0
  187.8140  178.0610  145.1990 N   0  0  0  0  0  0  0  0  0  0  0  0
  184.1110  178.6480  143.9740 C   0  0  0  0  0  0  0  0  0  0  0  0
  183.4640  178.7910  142.7460 C   0  0  0  0  0  3  0  0  0  0  0  0
  186.1630  178.0880  142.8020 C   0  0  0  0  0  0  0  0  0  0  0  0
  184.1520  178.5940  141.5900 N   0  0  0  0  0  0  0  0  0  0  0  0
  185.4610  178.3010  143.9980 C   0  0  0  0  0  3  0  0  0  0  0  0
  185.4690  178.2540  141.5930 C   0  0  0  0  0  3  0  0  0  0  0  0
  183.3690  178.8670  145.2430 C   0  0  0  0  0  1  0  0  0  0  0  0
  192.3490  177.1150  138.9190 N   0  0  0  0  0  0  0  0  0  0  0  0
  191.6470  175.5330  135.7810 O   0  0  0  0  0  1  0  0  0  0  0  0
  191.7250  176.4610  137.9890 C   0  0  0  0  0  3  0  0  0  0  0  0
  192.3680  176.1350  136.7540 N   0  0  0  0  0  0  0  0  0  0  0  0
  193.7530  176.5030  136.4860 C   0  0  0  0  0  2  0  0  0  0  0  0
  195.8060  175.4550  135.8350 F   0  0  0  0  0  0  0  0  0  0  0  0
  194.6800  175.3000  136.6230 C   0  0  1  0  0  3  0  0  0  0  0  0
  195.0560  175.1290  137.9560 O   0  0  0  0  0  1  0  0  0  0  0  0
  1  5  2  0  0  0  0
  2  6  1  0  0  0  0
  3 12  1  0  0  0  0
  3  8  1  0  0  0  0
  4 15  2  0  0  0  0
  4 18  1  0  0  0  0
  5 11  1  0  0  0  0
  6 11  2  0  0  0  0
  7 18  1  0  0  0  0
  8  2  2  0  0  0  0
  8  1  1  0  0  0  0
  9  7  1  0  0  0  0
 10  4  1  0  0  0  0
 12 19  1  0  0  0  0
 13  1  1  0  0  0  0
 14  2  1  0  0  0  0
 15 16  1  0  0  0  0
 16 12  2  0  0  0  0
 17 27  1  6  0  0  0
 17 10  1  0  0  0  0
 17  9  1  0  0  0  0
 18  3  2  0  0  0  0
 19 13  2  0  0  0  0
 20 24  1  0  0  0  0
 20 26  1  0  0  0  0
 21 20  2  0  0  0  0
 22 16  1  0  0  0  0
 22 24  2  0  0  0  0
 23 25  2  0  0  0  0
 23 21  1  0  0  0  0
 25 22  1  0  0  0  0
 28 30  1  0  0  0  0
 29 27  2  0  0  0  0
 30 29  1  0  0  0  0
 31 33  1  0  0  0  0
 31 30  1  0  0  0  0
 33 32  1  6  0  0  0
 33 34  1  0  0  0  0
M  END
>  <MODEL>
2

>  <REMARK>
 VINA RESULT:      -9.8      1.611      2.105
  Name = 
  4 active torsions:
  status: ('A' for Active; 'I' for Inactive)
    1  A    between atoms: N_3  and  C_29
    2  A    between atoms: C_12  and  C_28
    3  A    between atoms: C_20  and  C_22
    4  A    between atoms: C_22  and  N_33
                            x       y       z     vdW  Elec       q    Type
                         _______ _______ _______ _____ _____    ______ ____

>  <TORSDO>
F 4

$$$$
=
 OpenBabel10272400093D

 34 38  0  0  1  0  0  0  0  0999 V2000
  188.8610  177.1020  146.2410 C   0  0  0  0  0  0  0  0  0  0  0  0
  186.9450  178.5380  146.6390 C   0  0  0  0  0  0  0  0  0  0  0  0
  187.6170  177.8840  144.2910 C   0  0  0  0  0  0  0  0  0  0  0  0
  186.3690  178.3170  142.2310 C   0  0  0  0  0  0  0  0  0  0  0  0
  188.9780  176.8740  147.6140 C   0  0  0  0  0  3  0  0  0  0  0  0
  187.0820  178.3050  148.0120 C   0  0  0  0  0  3  0  0  0  0  0  0
  185.0700  177.8580  144.3250 C   0  0  0  0  0  2  0  0  0  0  0  0
  187.7660  177.8330  145.7130 C   0  0  0  0  0  0  0  0  0  0  0  0
  183.8980  178.5840  143.6770 C   0  0  0  0  0  2  0  0  0  0  0  0
  185.1250  178.7390  141.5010 C   0  0  0  0  0  2  0  0  0  0  0  0
  188.0660  177.4460  148.4960 C   0  0  0  0  0  3  0  0  0  0  0  0
  188.7440  177.5340  143.4920 C   0  0  0  0  0  0  0  0  0  0  0  0
  189.8710  176.6610  145.3990 C   0  0  0  0  0  3  0  0  0  0  0  0
  185.9900  179.9550  146.2100 Cl  0  0  0  0  0  0  0  0  0  0  0  0
  187.5340  178.1560  141.4920 C   0  0  0  0  0  3  0  0  0  0  0  0
  188.7250  177.7390  142.0930 C   0  0  0  0  0  0  0  0  0  0  0  0
  183.8570  178.2420  142.1930 C   0  0  2  0  0  3  0  0  0  0  0  0
  186.3830  178.1400  143.6310 C   0  0  0  0  0  0  0  0  0  0  0  0
  189.8110  176.9190  144.0710 N   0  0  0  0  0  0  0  0  0  0  0  0
  190.8660  176.9870  139.0540 C   0  0  0  0  0  0  0  0  0  0  0  0
  192.1420  177.1650  139.5850 C   0  0  0  0  0  3  0  0  0  0  0  0
  189.9130  177.5200  141.2250 C   0  0  0  0  0  0  0  0  0  0  0  0
  192.2920  177.5150  140.8910 N   0  0  0  0  0  0  0  0  0  0  0  0
  189.7530  177.1690  139.8750 C   0  0  0  0  0  3  0  0  0  0  0  0
  191.2200  177.6970  141.7070 C   0  0  0  0  0  3  0  0  0  0  0  0
  190.6910  176.6090  137.6270 C   0  0  0  0  0  1  0  0  0  0  0  0
  182.6650  178.7960  141.5590 N   0  0  0  0  0  0  0  0  0  0  0  0
  180.0150  177.9310  139.3060 O   0  0  0  0  0  1  0  0  0  0  0  0
  181.9440  178.1250  140.7150 C   0  0  0  0  0  3  0  0  0  0  0  0
  180.7840  178.7020  140.1090 N   0  0  0  0  0  0  0  0  0  0  0  0
  180.3640  180.0680  140.3960 C   0  0  0  0  0  2  0  0  0  0  0  0
  179.9820  182.2190  139.4140 F   0  0  0  0  0  0  0  0  0  0  0  0
  180.4370  180.9410  139.1470 C   0  0  1  0  0  3  0  0  0  0  0  0
  181.7480  180.9950  138.6710 O   0  0  0  0  0  1  0  0  0  0  0  0
  1  5  2  0  0  0  0
  2  6  1  0  0  0  0
  3  8  1  0  0  0  0
  4 18  2  0  0  0  0
  5 11  1  0  0  0  0
  6 11  2  0  0  0  0
  8  1  1  0  0  0  0
  8  2  2  0  0  0  0
  9  7  1  0  0  0  0
 10 17  1  0  0  0  0
 10  4  1  0  0  0  0
 12 19  1  0  0  0  0
 12  3  2  0  0  0  0
 13  1  1  0  0  0  0
 14  2  1  0  0  0  0
 15 16  2  0  0  0  0
 15  4  1  0  0  0  0
 16 12  1  0  0  0  0
 17 27  1  6  0  0  0
 17  9  1  0  0  0  0
 18  3  1  0  0  0  0
 18  7  1  0  0  0  0
 19 13  2  0  0  0  0
 20 21  2  0  0  0  0
 20 24  1  0  0  0  0
 21 23  1  0  0  0  0
 22 25  1  0  0  0  0
 22 16  1  0  0  0  0
 23 25  2  0  0  0  0
 24 22  2  0  0  0  0
 26 20  1  0  0  0  0
 28 30  1  0  0  0  0
 29 27  2  0  0  0  0
 30 31  1  0  0  0  0
 30 29  1  0  0  0  0
 33 34  1  1  0  0  0
 33 32  1  0  0  0  0
 33 31  1  0  0  0  0
M  END
>  <MODEL>
3

>  <REMARK>
 VINA RESULT:      -9.6      4.555      7.917
  Name = 
  4 active torsions:
  status: ('A' for Active; 'I' for Inactive)
    1  A    between atoms: N_3  and  C_29
    2  A    between atoms: C_12  and  C_28
    3  A    between atoms: C_20  and  C_22
    4  A    between atoms: C_22  and  N_33
                            x       y       z     vdW  Elec       q    Type
                         _______ _______ _______ _____ _____    ______ ____

>  <TORSDO>
F 4

$$$$
=
 OpenBabel10272400093D

 34 38  0  0  1  0  0  0  0  0999 V2000
  187.3300  178.5290  147.0410 C   0  0  0  0  0  0  0  0  0  0  0  0
  189.2570  177.1400  146.5420 C   0  0  0  0  0  0  0  0  0  0  0  0
  187.7050  177.9220  144.7060 C   0  0  0  0  0  0  0  0  0  0  0  0
  188.0390  177.6710  142.2940 C   0  0  0  0  0  0  0  0  0  0  0  0
  187.7650  178.6610  148.3610 C   0  0  0  0  0  3  0  0  0  0  0  0
  189.6730  177.2770  147.8710 C   0  0  0  0  0  3  0  0  0  0  0  0
  190.0570  178.0390  143.7340 C   0  0  0  0  0  2  0  0  0  0  0  0
  188.1310  177.8750  146.0710 C   0  0  0  0  0  0  0  0  0  0  0  0
  190.8820  177.4000  142.6240 C   0  0  0  0  0  2  0  0  0  0  0  0
  188.8940  177.3450  141.1040 C   0  0  0  0  0  2  0  0  0  0  0  0
  188.9550  178.0660  148.7660 C   0  0  0  0  0  3  0  0  0  0  0  0
  186.3510  178.2840  144.4450 C   0  0  0  0  0  0  0  0  0  0  0  0
  186.0650  178.9880  146.7010 C   0  0  0  0  0  3  0  0  0  0  0  0
  189.9740  175.7900  145.6670 Cl  0  0  0  0  0  0  0  0  0  0  0  0
  186.6760  177.8390  142.0890 C   0  0  0  0  0  3  0  0  0  0  0  0
  185.8170  178.1720  143.1400 C   0  0  0  0  0  0  0  0  0  0  0  0
  190.3300  177.8400  141.2750 C   0  0  2  0  0  3  0  0  0  0  0  0
  188.5790  177.7550  143.5960 C   0  0  0  0  0  0  0  0  0  0  0  0
  185.5970  178.8200  145.4410 N   0  0  0  0  0  0  0  0  0  0  0  0
  182.5380  178.3850  141.2470 C   0  0  0  0  0  0  0  0  0  0  0  0
  181.6750  178.7880  142.2660 C   0  0  0  0  0  3  0  0  0  0  0  0
  184.3800  178.4050  142.8300 C   0  0  0  0  0  0  0  0  0  0  0  0
  182.1540  178.9840  143.5230 N   0  0  0  0  0  0  0  0  0  0  0  0
  183.8880  178.1900  141.5330 C   0  0  0  0  0  3  0  0  0  0  0  0
  183.4680  178.8000  143.8220 C   0  0  0  0  0  3  0  0  0  0  0  0
  182.0230  178.1620  139.8700 C   0  0  0  0  0  1  0  0  0  0  0  0
  191.1770  177.3720  140.1820 N   0  0  0  0  0  0  0  0  0  0  0  0
  191.0820  175.3930  137.1950 O   0  0  0  0  0  1  0  0  0  0  0  0
  190.7440  176.5830  139.2480 C   0  0  0  0  0  3  0  0  0  0  0  0
  191.6030  176.1410  138.1950 N   0  0  0  0  0  0  0  0  0  0  0  0
  193.0050  176.5380  138.1260 C   0  0  0  0  0  2  0  0  0  0  0  0
  194.3530  175.6890  136.3370 F   0  0  0  0  0  0  0  0  0  0  0  0
  193.8760  175.4010  137.6030 C   0  0  1  0  0  3  0  0  0  0  0  0
  194.9450  175.1720  138.4700 O   0  0  0  0  0  1  0  0  0  0  0  0
  1  5  2  0  0  0  0
  2  6  1  0  0  0  0
  3  8  1  0  0  0  0
  4 18  1  0  0  0  0
  5 11  1  0  0  0  0
  6 11  2  0  0  0  0
  8  2  2  0  0  0  0
  8  1  1  0  0  0  0
  9  7  1  0  0  0  0
 10 17  1  0  0  0  0
 10  4  1  0  0  0  0
 12  3  1  0  0  0  0
 12 19  1  0  0  0  0
 13  1  1  0  0  0  0
 14  2  1  0  0  0  0
 15  4  2  0  0  0  0
 15 16  1  0  0  0  0
 16 12  2  0  0  0  0
 17 27  1  6  0  0  0
 17  9  1  0  0  0  0
 18  7  1  0  0  0  0
 18  3  2  0  0  0  0
 19 13  2  0  0  0  0
 20 24  2  0  0  0  0
 20 21  1  0  0  0  0
 21 23  2  0  0  0  0
 22 16  1  0  0  0  0
 22 25  2  0  0  0  0
 23 25  1  0  0  0  0
 24 22  1  0  0  0  0
 26 20  1  0  0  0  0
 28 30  1  0  0  0  0
 29 27  2  0  0  0  0
 30 29  1  0  0  0  0
 31 30  1  0  0  0  0
 33 32  1  6  0  0  0
 33 31  1  0  0  0  0
 33 34  1  0  0  0  0
M  END
>  <MODEL>
4

>  <REMARK>
 VINA RESULT:      -9.4      1.671      2.676
  Name = 
  4 active torsions:
  status: ('A' for Active; 'I' for Inactive)
    1  A    between atoms: N_3  and  C_29
    2  A    between atoms: C_12  and  C_28
    3  A    between atoms: C_20  and  C_22
    4  A    between atoms: C_22  and  N_33
                            x       y       z     vdW  Elec       q    Type
                         _______ _______ _______ _____ _____    ______ ____

>  <TORSDO>
F 4

$$$$
=
 OpenBabel10272400093D

 34 38  0  0  1  0  0  0  0  0999 V2000
  191.8770  177.2830  140.3460 C   0  0  0  0  0  0  0  0  0  0  0  0
  190.0630  176.7050  138.8420 C   0  0  0  0  0  0  0  0  0  0  0  0
  189.6020  177.4230  141.2220 C   0  0  0  0  0  0  0  0  0  0  0  0
  187.4170  177.8970  142.2160 C   0  0  0  0  0  0  0  0  0  0  0  0
  192.7830  177.2040  139.2870 C   0  0  0  0  0  3  0  0  0  0  0  0
  190.9860  176.6210  137.7940 C   0  0  0  0  0  3  0  0  0  0  0  0
  187.7660  178.4760  139.8030 C   0  0  0  0  0  2  0  0  0  0  0  0
  190.4820  177.1640  140.1240 C   0  0  0  0  0  0  0  0  0  0  0  0
  186.2530  178.4120  139.6380 C   0  0  0  0  0  2  0  0  0  0  0  0
  185.9400  178.1500  142.1080 C   0  0  0  0  0  2  0  0  0  0  0  0
  192.3330  176.9090  138.0040 C   0  0  0  0  0  3  0  0  0  0  0  0
  190.1580  177.4180  142.5340 C   0  0  0  0  0  0  0  0  0  0  0  0
  192.3650  177.4150  141.6390 C   0  0  0  0  0  3  0  0  0  0  0  0
  188.5250  175.8950  138.5530 Cl  0  0  0  0  0  0  0  0  0  0  0  0
  187.9510  177.6960  143.4830 C   0  0  0  0  0  3  0  0  0  0  0  0
  189.3190  177.4830  143.6700 C   0  0  0  0  0  0  0  0  0  0  0  0
  185.5910  178.9910  140.8810 C   0  0  2  0  0  3  0  0  0  0  0  0
  188.2410  177.8080  141.0740 C   0  0  0  0  0  0  0  0  0  0  0  0
  191.5100  177.4360  142.6890 N   0  0  0  0  0  0  0  0  0  0  0  0
  189.4830  177.5480  147.4590 C   0  0  0  0  0  0  0  0  0  0  0  0
  190.7620  177.0370  147.6730 C   0  0  0  0  0  3  0  0  0  0  0  0
  189.8270  177.3460  145.0630 C   0  0  0  0  0  0  0  0  0  0  0  0
  191.5400  176.6890  146.6130 N   0  0  0  0  0  0  0  0  0  0  0  0
  189.0160  177.6970  146.1530 C   0  0  0  0  0  3  0  0  0  0  0  0
  191.1030  176.8280  145.3320 C   0  0  0  0  0  3  0  0  0  0  0  0
  188.6220  177.9260  148.6100 C   0  0  0  0  0  1  0  0  0  0  0  0
  184.1440  179.0870  140.7090 N   0  0  0  0  0  0  0  0  0  0  0  0
  181.2840  177.1340  139.7870 O   0  0  0  0  0  1  0  0  0  0  0  0
  183.4210  178.0940  140.2950 C   0  0  0  0  0  3  0  0  0  0  0  0
  182.0060  178.2240  140.1330 N   0  0  0  0  0  0  0  0  0  0  0  0
  181.3120  179.4760  140.4080 C   0  0  0  0  0  2  0  0  0  0  0  0
  181.4870  179.0850  142.7640 F   0  0  0  0  0  0  0  0  0  0  0  0
  180.6040  179.4300  141.7580 C   0  0  1  0  0  3  0  0  0  0  0  0
  180.0220  180.6660  142.0410 O   0  0  0  0  0  1  0  0  0  0  0  0
  1 13  1  0  0  0  0
  2  8  1  0  0  0  0
  3 12  1  0  0  0  0
  4 15  2  0  0  0  0
  5  1  1  0  0  0  0
  6 11  1  0  0  0  0
  6  2  2  0  0  0  0
  7 18  1  0  0  0  0
  8  1  2  0  0  0  0
  8  3  1  0  0  0  0
  9  7  1  0  0  0  0
  9 17  1  0  0  0  0
 10  4  1  0  0  0  0
 11  5  2  0  0  0  0
 12 19  1  0  0  0  0
 12 16  2  0  0  0  0
 13 19  2  0  0  0  0
 14  2  1  0  0  0  0
 15 16  1  0  0  0  0
 16 22  1  0  0  0  0
 17 27  1  6  0  0  0
 17 10  1  0  0  0  0
 18  3  2  0  0  0  0
 18  4  1  0  0  0  0
 20 21  1  0  0  0  0
 20 26  1  0  0  0  0
 22 25  2  0  0  0  0
 22 24  1  0  0  0  0
 23 21  2  0  0  0  0
 24 20  2  0  0  0  0
 25 23  1  0  0  0  0
 28 30  1  0  0  0  0
 29 27  2  0  0  0  0
 30 29  1  0  0  0  0
 30 31  1  0  0  0  0
 31 33  1  0  0  0  0
 33 34  1  1  0  0  0
 33 32  1  0  0  0  0
M  END
>  <MODEL>
5

>  <REMARK>
 VINA RESULT:      -9.3      4.422      7.846
  Name = 
  4 active torsions:
  status: ('A' for Active; 'I' for Inactive)
    1  A    between atoms: N_3  and  C_29
    2  A    between atoms: C_12  and  C_28
    3  A    between atoms: C_20  and  C_22
    4  A    between atoms: C_22  and  N_33
                            x       y       z     vdW  Elec       q    Type
                         _______ _______ _______ _____ _____    ______ ____

>  <TORSDO>
F 4

$$$$
=
 OpenBabel10272400093D

 34 38  0  0  1  0  0  0  0  0999 V2000
  185.1910  179.0540  144.6610 C   0  0  0  0  0  0  0  0  0  0  0  0
  187.0740  177.5290  144.5210 C   0  0  0  0  0  0  0  0  0  0  0  0
  185.9530  178.4080  142.4330 C   0  0  0  0  0  0  0  0  0  0  0  0
  186.7140  178.1190  140.1250 C   0  0  0  0  0  0  0  0  0  0  0  0
  185.3790  179.1630  146.0400 C   0  0  0  0  0  3  0  0  0  0  0  0
  187.2420  177.6430  145.9050 C   0  0  0  0  0  3  0  0  0  0  0  0
  188.4470  178.3500  141.9190 C   0  0  0  0  0  2  0  0  0  0  0  0
  186.1110  178.3390  143.8530 C   0  0  0  0  0  0  0  0  0  0  0  0
  189.4180  177.6470  140.9790 C   0  0  0  0  0  2  0  0  0  0  0  0
  187.7520  177.7250  139.1130 C   0  0  0  0  0  2  0  0  0  0  0  0
  186.4270  178.4870  146.6560 C   0  0  0  0  0  3  0  0  0  0  0  0
  184.7010  178.8640  141.9250 C   0  0  0  0  0  0  0  0  0  0  0  0
  184.0480  179.6000  144.0930 C   0  0  0  0  0  3  0  0  0  0  0  0
  187.8440  176.1250  143.7860 Cl  0  0  0  0  0  0  0  0  0  0  0  0
  185.4280  178.3830  139.6690 C   0  0  0  0  0  3  0  0  0  0  0  0
  184.4140  178.7820  140.5430 C   0  0  0  0  0  0  0  0  0  0  0  0
  189.1610  178.1180  139.5530 C   0  0  2  0  0  3  0  0  0  0  0  0
  187.0050  178.1720  141.5040 C   0  0  0  0  0  0  0  0  0  0  0  0
  183.8130  179.4590  142.7670 N   0  0  0  0  0  0  0  0  0  0  0  0
  181.6590  180.5890  138.6650 C   0  0  0  0  0  0  0  0  0  0  0  0
  180.5950  179.7080  138.8520 C   0  0  0  0  0  3  0  0  0  0  0  0
  183.0810  179.1150  139.9710 C   0  0  0  0  0  0  0  0  0  0  0  0
  180.7760  178.5680  139.5710 N   0  0  0  0  0  0  0  0  0  0  0  0
  182.9020  180.2880  139.2210 C   0  0  0  0  0  3  0  0  0  0  0  0
  181.9800  178.2570  140.1220 C   0  0  0  0  0  3  0  0  0  0  0  0
  181.4730  181.8360  137.8760 C   0  0  0  0  0  1  0  0  0  0  0  0
  190.1630  177.5840  138.6360 N   0  0  0  0  0  0  0  0  0  0  0  0
  190.5420  176.3450  135.2940 O   0  0  0  0  0  1  0  0  0  0  0  0
  189.8720  177.1850  137.4370 C   0  0  0  0  0  3  0  0  0  0  0  0
  190.8780  176.6620  136.5650 N   0  0  0  0  0  0  0  0  0  0  0  0
  192.2700  176.5380  136.9820 C   0  0  0  0  0  2  0  0  0  0  0  0
  193.7250  174.9790  138.0720 F   0  0  0  0  0  0  0  0  0  0  0  0
  192.6500  175.0790  137.2080 C   0  0  1  0  0  3  0  0  0  0  0  0
  191.5630  174.3700  137.7210 O   0  0  0  0  0  1  0  0  0  0  0  0
  1  5  2  0  0  0  0
  2  6  1  0  0  0  0
  3  8  1  0  0  0  0
  4 18  1  0  0  0  0
  5 11  1  0  0  0  0
  6 11  2  0  0  0  0
  8  2  2  0  0  0  0
  8  1  1  0  0  0  0
  9  7  1  0  0  0  0
 10 17  1  0  0  0  0
 10  4  1  0  0  0  0
 12  3  1  0  0  0  0
 12 19  1  0  0  0  0
 13  1  1  0  0  0  0
 14  2  1  0  0  0  0
 15  4  2  0  0  0  0
 15 16  1  0  0  0  0
 16 12  2  0  0  0  0
 17 27  1  6  0  0  0
 17  9  1  0  0  0  0
 18  7  1  0  0  0  0
 18  3  2  0  0  0  0
 19 13  2  0  0  0  0
 20 21  2  0  0  0  0
 20 24  1  0  0  0  0
 21 23  1  0  0  0  0
 22 25  1  0  0  0  0
 22 16  1  0  0  0  0
 23 25  2  0  0  0  0
 24 22  2  0  0  0  0
 26 20  1  0  0  0  0
 28 30  1  0  0  0  0
 29 27  2  0  0  0  0
 30 31  1  0  0  0  0
 30 29  1  0  0  0  0
 31 33  1  0  0  0  0
 33 34  1  1  0  0  0
 33 32  1  0  0  0  0
M  END
>  <MODEL>
6

>  <REMARK>
 VINA RESULT:      -9.1      2.967      4.854
  Name = 
  4 active torsions:
  status: ('A' for Active; 'I' for Inactive)
    1  A    between atoms: N_3  and  C_29
    2  A    between atoms: C_12  and  C_28
    3  A    between atoms: C_20  and  C_22
    4  A    between atoms: C_22  and  N_33
                            x       y       z     vdW  Elec       q    Type
                         _______ _______ _______ _____ _____    ______ ____

>  <TORSDO>
F 4

$$$$
=
 OpenBabel10272400093D

 34 38  0  0  1  0  0  0  0  0999 V2000
  186.9910  178.2030  145.9320 C   0  0  0  0  0  0  0  0  0  0  0  0
  188.6570  176.9520  144.6870 C   0  0  0  0  0  0  0  0  0  0  0  0
  186.6810  178.0100  143.5170 C   0  0  0  0  0  0  0  0  0  0  0  0
  186.3230  178.1810  141.1030 C   0  0  0  0  0  0  0  0  0  0  0  0
  187.7800  178.1150  147.0800 C   0  0  0  0  0  3  0  0  0  0  0  0
  189.4310  176.8670  145.8500 C   0  0  0  0  0  3  0  0  0  0  0  0
  188.6730  178.3300  141.9610 C   0  0  0  0  0  2  0  0  0  0  0  0
  187.4680  177.7380  144.6800 C   0  0  0  0  0  0  0  0  0  0  0  0
  189.1350  177.9040  140.5730 C   0  0  0  0  0  2  0  0  0  0  0  0
  186.8020  178.0760  139.6830 C   0  0  0  0  0  2  0  0  0  0  0  0
  189.0160  177.4790  147.0300 C   0  0  0  0  0  3  0  0  0  0  0  0
  185.3210  178.3890  143.7100 C   0  0  0  0  0  0  0  0  0  0  0  0
  185.6970  178.6920  146.0420 C   0  0  0  0  0  3  0  0  0  0  0  0
  189.0590  175.7830  143.4320 Cl  0  0  0  0  0  0  0  0  0  0  0  0
  184.9620  178.3590  141.3180 C   0  0  0  0  0  3  0  0  0  0  0  0
  184.4410  178.4920  142.6080 C   0  0  0  0  0  0  0  0  0  0  0  0
  188.2430  178.5590  139.5270 C   0  0  2  0  0  3  0  0  0  0  0  0
  187.2060  178.0500  142.1960 C   0  0  0  0  0  0  0  0  0  0  0  0
  184.8910  178.7340  144.9540 N   0  0  0  0  0  0  0  0  0  0  0  0
  180.8190  179.2340  141.7640 C   0  0  0  0  0  0  0  0  0  0  0  0
  180.2400  179.1790  143.0310 C   0  0  0  0  0  3  0  0  0  0  0  0
  182.9830  178.7510  142.7560 C   0  0  0  0  0  0  0  0  0  0  0  0
  181.0110  178.9130  144.1190 N   0  0  0  0  0  0  0  0  0  0  0  0
  182.1890  179.0150  141.6280 C   0  0  0  0  0  3  0  0  0  0  0  0
  182.3500  178.6970  144.0080 C   0  0  0  0  0  3  0  0  0  0  0  0
  179.9840  179.5190  140.5670 C   0  0  0  0  0  1  0  0  0  0  0  0
  188.7380  178.2990  138.1780 N   0  0  0  0  0  0  0  0  0  0  0  0
  187.6150  177.8810  134.8000 O   0  0  0  0  0  1  0  0  0  0  0  0
  187.9500  178.1730  137.1560 C   0  0  0  0  0  3  0  0  0  0  0  0
  188.4690  177.9130  135.8490 N   0  0  0  0  0  0  0  0  0  0  0  0
  189.8990  177.7630  135.6030 C   0  0  0  0  0  2  0  0  0  0  0  0
  190.7140  176.0770  137.0960 F   0  0  0  0  0  0  0  0  0  0  0  0
  190.3410  176.3150  135.7860 C   0  0  1  0  0  3  0  0  0  0  0  0
  189.3120  175.4460  135.4220 O   0  0  0  0  0  1  0  0  0  0  0  0
  1 13  1  0  0  0  0
  1  5  2  0  0  0  0
  2  6  1  0  0  0  0
  3 12  1  0  0  0  0
  3  8  1  0  0  0  0
  4 15  2  0  0  0  0
  4 18  1  0  0  0  0
  6 11  2  0  0  0  0
  7 18  1  0  0  0  0
  8  2  2  0  0  0  0
  8  1  1  0  0  0  0
  9  7  1  0  0  0  0
 10  4  1  0  0  0  0
 11  5  1  0  0  0  0
 12 19  1  0  0  0  0
 14  2  1  0  0  0  0
 15 16  1  0  0  0  0
 16 22  1  0  0  0  0
 16 12  2  0  0  0  0
 17 27  1  6  0  0  0
 17 10  1  0  0  0  0
 17  9  1  0  0  0  0
 18  3  2  0  0  0  0
 19 13  2  0  0  0  0
 20 21  1  0  0  0  0
 21 23  2  0  0  0  0
 22 25  2  0  0  0  0
 24 20  2  0  0  0  0
 24 22  1  0  0  0  0
 25 23  1  0  0  0  0
 26 20  1  0  0  0  0
 28 30  1  0  0  0  0
 29 27  2  0  0  0  0
 30 29  1  0  0  0  0
 31 33  1  0  0  0  0
 31 30  1  0  0  0  0
 33 34  1  1  0  0  0
 33 32  1  0  0  0  0
M  END
>  <MODEL>
7

>  <REMARK>
 VINA RESULT:      -8.8      2.482      3.765
  Name = 
  4 active torsions:
  status: ('A' for Active; 'I' for Inactive)
    1  A    between atoms: N_3  and  C_29
    2  A    between atoms: C_12  and  C_28
    3  A    between atoms: C_20  and  C_22
    4  A    between atoms: C_22  and  N_33
                            x       y       z     vdW  Elec       q    Type
                         _______ _______ _______ _____ _____    ______ ____

>  <TORSDO>
F 4

$$$$
=
 OpenBabel10272400093D

 34 38  0  0  1  0  0  0  0  0999 V2000
  187.3520  177.4640  145.0520 C   0  0  0  0  0  0  0  0  0  0  0  0
  185.4400  178.9540  144.9300 C   0  0  0  0  0  0  0  0  0  0  0  0
  186.5920  178.1390  142.8320 C   0  0  0  0  0  0  0  0  0  0  0  0
  185.8400  178.4590  140.5250 C   0  0  0  0  0  0  0  0  0  0  0  0
  187.1570  177.3230  146.4270 C   0  0  0  0  0  3  0  0  0  0  0  0
  185.2650  178.8080  146.3100 C   0  0  0  0  0  3  0  0  0  0  0  0
  184.1000  178.1580  142.3030 C   0  0  0  0  0  2  0  0  0  0  0  0
  186.4230  178.1770  144.2520 C   0  0  0  0  0  0  0  0  0  0  0  0
  183.1210  178.8600  141.3700 C   0  0  0  0  0  2  0  0  0  0  0  0
  184.8010  178.8540  139.5140 C   0  0  0  0  0  2  0  0  0  0  0  0
  186.0920  177.9660  147.0500 C   0  0  0  0  0  3  0  0  0  0  0  0
  187.8550  177.7190  142.3240 C   0  0  0  0  0  0  0  0  0  0  0  0
  188.5090  176.9520  144.4810 C   0  0  0  0  0  3  0  0  0  0  0  0
  184.6470  180.3570  144.2180 Cl  0  0  0  0  0  0  0  0  0  0  0  0
  187.1330  178.2310  140.0730 C   0  0  0  0  0  3  0  0  0  0  0  0
  188.1500  177.8340  140.9460 C   0  0  0  0  0  0  0  0  0  0  0  0
  183.3970  178.4240  139.9370 C   0  0  2  0  0  3  0  0  0  0  0  0
  185.5410  178.3730  141.9020 C   0  0  0  0  0  0  0  0  0  0  0  0
  188.7500  177.1250  143.1600 N   0  0  0  0  0  0  0  0  0  0  0  0
  190.8800  176.8340  138.5110 C   0  0  0  0  0  0  0  0  0  0  0  0
  192.0150  177.0410  139.2940 C   0  0  0  0  0  3  0  0  0  0  0  0
  189.4930  177.5390  140.3760 C   0  0  0  0  0  0  0  0  0  0  0  0
  191.8860  177.4890  140.5710 N   0  0  0  0  0  0  0  0  0  0  0  0
  189.6210  177.0880  139.0530 C   0  0  0  0  0  3  0  0  0  0  0  0
  190.6670  177.7410  141.1190 C   0  0  0  0  0  3  0  0  0  0  0  0
  191.0100  176.3500  137.1110 C   0  0  0  0  0  1  0  0  0  0  0  0
  182.3900  178.9570  139.0240 N   0  0  0  0  0  0  0  0  0  0  0  0
  181.2560  182.0290  137.5680 O   0  0  0  0  0  1  0  0  0  0  0  0
  182.2760  180.2230  138.7690 C   0  0  0  0  0  3  0  0  0  0  0  0
  181.2760  180.7110  137.8710 N   0  0  0  0  0  0  0  0  0  0  0  0
  180.3290  179.8170  137.2130 C   0  0  0  0  0  2  0  0  0  0  0  0
  181.1710  180.7120  135.1570 F   0  0  0  0  0  0  0  0  0  0  0  0
  180.7360  179.5500  135.7680 C   0  0  1  0  0  3  0  0  0  0  0  0
  181.7420  178.5840  135.7190 O   0  0  0  0  0  1  0  0  0  0  0  0
  1  5  2  0  0  0  0
  2  6  1  0  0  0  0
  3  8  1  0  0  0  0
  4 18  1  0  0  0  0
  5 11  1  0  0  0  0
  6 11  2  0  0  0  0
  8  2  2  0  0  0  0
  8  1  1  0  0  0  0
  9  7  1  0  0  0  0
 10 17  1  0  0  0  0
 10  4  1  0  0  0  0
 12  3  1  0  0  0  0
 12 19  1  0  0  0  0
 13  1  1  0  0  0  0
 14  2  1  0  0  0  0
 15  4  2  0  0  0  0
 15 16  1  0  0  0  0
 16 12  2  0  0  0  0
 17 27  1  6  0  0  0
 17  9  1  0  0  0  0
 18  7  1  0  0  0  0
 18  3  2  0  0  0  0
 19 13  2  0  0  0  0
 20 24  2  0  0  0  0
 20 21  1  0  0  0  0
 21 23  2  0  0  0  0
 22 16  1  0  0  0  0
 22 25  2  0  0  0  0
 23 25  1  0  0  0  0
 24 22  1  0  0  0  0
 26 20  1  0  0  0  0
 28 30  1  0  0  0  0
 29 27  2  0  0  0  0
 30 29  1  0  0  0  0
 31 30  1  0  0  0  0
 33 32  1  1  0  0  0
 33 31  1  0  0  0  0
 34 33  1  0  0  0  0
M  END
>  <MODEL>
8

>  <REMARK>
 VINA RESULT:      -8.8      4.982      8.150
  Name = 
  4 active torsions:
  status: ('A' for Active; 'I' for Inactive)
    1  A    between atoms: N_3  and  C_29
    2  A    between atoms: C_12  and  C_28
    3  A    between atoms: C_20  and  C_22
    4  A    between atoms: C_22  and  N_33
                            x       y       z     vdW  Elec       q    Type
                         _______ _______ _______ _____ _____    ______ ____

>  <TORSDO>
F 4

$$$$
=
 OpenBabel10272400093D

 34 38  0  0  1  0  0  0  0  0999 V2000
  191.6760  177.3420  140.8430 C   0  0  0  0  0  0  0  0  0  0  0  0
  190.1460  176.6960  139.0730 C   0  0  0  0  0  0  0  0  0  0  0  0
  189.2850  177.4670  141.3220 C   0  0  0  0  0  0  0  0  0  0  0  0
  186.9590  177.9310  141.9250 C   0  0  0  0  0  0  0  0  0  0  0  0
  192.7480  177.2500  139.9520 C   0  0  0  0  0  3  0  0  0  0  0  0
  191.2320  176.6010  138.1970 C   0  0  0  0  0  3  0  0  0  0  0  0
  187.7010  178.4540  139.5880 C   0  0  0  0  0  2  0  0  0  0  0  0
  190.3390  177.1940  140.3940 C   0  0  0  0  0  0  0  0  0  0  0  0
  186.2370  178.3610  139.1750 C   0  0  0  0  0  2  0  0  0  0  0  0
  185.5190  178.1570  141.5640 C   0  0  0  0  0  2  0  0  0  0  0  0
  192.5210  176.9150  138.6210 C   0  0  0  0  0  3  0  0  0  0  0  0
  189.6150  177.5050  142.7090 C   0  0  0  0  0  0  0  0  0  0  0  0
  191.9390  177.5140  142.1940 C   0  0  0  0  0  3  0  0  0  0  0  0
  188.6880  175.8540  138.5550 Cl  0  0  0  0  0  0  0  0  0  0  0  0
  187.2760  177.7720  143.2680 C   0  0  0  0  0  3  0  0  0  0  0  0
  188.5960  177.5850  143.6860 C   0  0  0  0  0  0  0  0  0  0  0  0
  185.3690  178.9610  140.2730 C   0  0  2  0  0  3  0  0  0  0  0  0
  187.9630  177.8270  140.9390 C   0  0  0  0  0  0  0  0  0  0  0  0
  190.9210  177.5490  143.0870 N   0  0  0  0  0  0  0  0  0  0  0  0
  190.3480  176.9100  146.9820 C   0  0  0  0  0  0  0  0  0  0  0  0
  189.3910  177.3740  147.8840 C   0  0  0  0  0  3  0  0  0  0  0  0
  188.8660  177.4920  145.1470 C   0  0  0  0  0  0  0  0  0  0  0  0
  188.2170  177.8840  147.4270 N   0  0  0  0  0  0  0  0  0  0  0  0
  190.0850  176.9750  145.6140 C   0  0  0  0  0  3  0  0  0  0  0  0
  187.9410  177.9550  146.0960 C   0  0  0  0  0  3  0  0  0  0  0  0
  191.6370  176.3550  147.4720 C   0  0  0  0  0  1  0  0  0  0  0  0
  183.9710  179.0290  139.8600 N   0  0  0  0  0  0  0  0  0  0  0  0
  180.6380  178.7680  141.1510 O   0  0  0  0  0  1  0  0  0  0  0  0
  182.9870  178.8260  140.6800 C   0  0  0  0  0  3  0  0  0  0  0  0
  181.6290  178.8970  140.2390 N   0  0  0  0  0  0  0  0  0  0  0  0
  181.2830  179.1830  138.8520 C   0  0  0  0  0  2  0  0  0  0  0  0
  182.4260  181.2160  138.3050 F   0  0  0  0  0  0  0  0  0  0  0  0
  181.1850  180.6850  138.6060 C   0  0  1  0  0  3  0  0  0  0  0  0
  180.2930  180.9470  137.5660 O   0  0  0  0  0  1  0  0  0  0  0  0
  1 13  1  0  0  0  0
  2  8  1  0  0  0  0
  3 12  1  0  0  0  0
  4 15  2  0  0  0  0
  5  1  1  0  0  0  0
  6 11  1  0  0  0  0
  6  2  2  0  0  0  0
  7 18  1  0  0  0  0
  8  1  2  0  0  0  0
  8  3  1  0  0  0  0
  9  7  1  0  0  0  0
  9 17  1  0  0  0  0
 10  4  1  0  0  0  0
 11  5  2  0  0  0  0
 12 19  1  0  0  0  0
 12 16  2  0  0  0  0
 13 19  2  0  0  0  0
 14  2  1  0  0  0  0
 15 16  1  0  0  0  0
 16 22  1  0  0  0  0
 17 27  1  6  0  0  0
 17 10  1  0  0  0  0
 18  3  2  0  0  0  0
 18  4  1  0  0  0  0
 20 26  1  0  0  0  0
 20 21  1  0  0  0  0
 22 24  1  0  0  0  0
 22 25  2  0  0  0  0
 23 21  2  0  0  0  0
 24 20  2  0  0  0  0
 25 23  1  0  0  0  0
 27 29  2  0  0  0  0
 30 29  1  0  0  0  0
 30 28  1  0  0  0  0
 31 30  1  0  0  0  0
 32 33  1  0  0  0  0
 33 34  1  6  0  0  0
 33 31  1  0  0  0  0
M  END
>  <MODEL>
9

>  <REMARK>
 VINA RESULT:      -8.6      4.492      7.638
  Name = 
  4 active torsions:
  status: ('A' for Active; 'I' for Inactive)
    1  A    between atoms: N_3  and  C_29
    2  A    between atoms: C_12  and  C_28
    3  A    between atoms: C_20  and  C_22
    4  A    between atoms: C_22  and  N_33
                            x       y       z     vdW  Elec       q    Type
                         _______ _______ _______ _____ _____    ______ ____

>  <TORSDO>
F 4

$$$$
