=
 OpenBabel10272413483D

 30 33  0  0  1  0  0  0  0  0999 V2000
  187.9470  177.7270  142.3490 C   0  0  1  0  0  3  0  0  0  0  0  0
  186.8600  178.4730  141.6030 C   0  0  0  0  0  0  0  0  0  0  0  0
  187.3300  176.8570  143.4470 C   0  0  0  0  0  2  0  0  0  0  0  0
  184.7850  179.2790  144.8250 C   0  0  0  0  0  2  0  0  0  0  0  0
  184.1030  179.4730  140.2680 C   0  0  1  0  0  3  0  0  0  0  0  0
  185.6190  178.6260  143.7850 C   0  0  0  0  0  0  0  0  0  0  0  0
  186.2180  177.5100  145.7510 C   0  0  0  0  0  2  0  0  0  0  0  0
  184.7930  178.8390  139.1360 N   0  0  0  0  0  0  0  0  0  0  0  0
  186.3860  177.6680  144.2860 C   0  0  0  0  0  0  0  0  0  0  0  0
  185.6430  179.0320  142.3320 C   0  0  2  0  0  3  0  0  0  0  0  0
  183.9350  178.6600  137.9840 C   0  0  0  0  0  2  0  0  0  0  0  0
  182.6420  179.5340  139.8640 C   0  0  0  0  0  2  0  0  0  0  0  0
  185.7720  179.5560  147.0920 C   0  0  0  0  0  1  0  0  0  0  0  0
  185.1710  178.5610  146.1190 C   0  0  1  0  0  3  0  0  0  0  0  0
  186.7390  178.4360  140.3140 C   0  0  0  0  0  0  0  0  0  0  0  0
  186.1910  178.4970  139.1480 C   0  0  0  0  0  0  0  0  0  0  0  0
  182.6100  179.3030  138.3580 C   0  0  0  0  0  2  0  0  0  0  0  0
  183.9760  177.2430  141.5340 C   0  0  0  0  0  1  0  0  0  0  0  0
  184.2780  178.7370  141.6300 C   0  0  2  0  0  3  0  0  0  0  0  0
  186.9090  178.0050  137.9380 C   0  0  0  0  0  2  0  0  0  0  0  0
  187.4070  179.0870  137.2150 O   0  0  0  0  0  1  0  0  0  0  0  0
  188.7080  176.9150  141.4840 O   0  0  0  0  0  0  0  0  0  0  0  0
  190.0800  177.2160  141.6390 C   0  0  2  0  0  3  0  0  0  0  0  0
  190.8590  177.1780  140.3300 C   0  0  0  0  0  1  0  0  0  0  0  0
  190.7590  176.4160  142.7500 C   0  0  0  0  0  2  0  0  0  0  0  0
  191.4900  177.3450  143.7070 C   0  0  0  0  0  2  0  0  0  0  0  0
  191.3510  176.8660  145.0720 N   0  0  0  0  0  2  0  0  0  0  0  0
  190.2060  177.5490  145.6560 C   0  0  0  0  0  2  0  0  0  0  0  0
  189.1570  177.8850  147.8890 C   0  0  0  0  0  1  0  0  0  0  0  0
  189.8130  176.8800  146.9600 C   0  0  0  0  0  2  0  0  0  0  0  0
  1 22  1  6  0  0  0
  1  3  1  0  0  0  0
  2  1  1  0  0  0  0
  3  9  1  0  0  0  0
  4 14  1  0  0  0  0
  5 12  1  6  0  0  0
  5 19  1  0  0  0  0
  6  9  2  0  0  0  0
  6  4  1  0  0  0  0
  7 14  1  0  0  0  0
  8 16  1  0  0  0  0
  8  5  1  0  0  0  0
  9  7  1  0  0  0  0
 10  2  1  6  0  0  0
 10  6  1  0  0  0  0
 11 17  1  0  0  0  0
 11  8  1  0  0  0  0
 14 13  1  1  0  0  0
 15  2  2  0  0  0  0
 16 15  2  0  0  0  0
 17 12  1  0  0  0  0
 19 18  1  6  0  0  0
 19 10  1  0  0  0  0
 20 16  1  0  0  0  0
 21 20  1  0  0  0  0
 22 23  1  0  0  0  0
 23 24  1  6  0  0  0
 23 25  1  0  0  0  0
 25 26  1  0  0  0  0
 26 27  1  0  0  0  0
 27 28  1  0  0  0  0
 28 30  1  0  0  0  0
 30 29  1  0  0  0  0
M  END
>  <MODEL>
1

>  <REMARK>
 VINA RESULT:      -7.8      0.000      0.000
  Name = 
  8 active torsions:
  status: ('A' for Active; 'I' for Inactive)
    1  A    between atoms: C_1  and  O_22
    2  A    between atoms: C_2  and  C_14
    3  A    between atoms: C_2  and  O_22
    4  A    between atoms: C_11  and  C_25
    5  A    between atoms: C_14  and  C_20
    6  A    between atoms: C_19  and  C_29
    7  A    between atoms: C_20  and  N_28
    8  A    between atoms: N_28  and  C_29
                            x       y       z     vdW  Elec       q    Type
                         _______ _______ _______ _____ _____    ______ ____

>  <TORSDO>
F 8

$$$$
=
 OpenBabel10272413483D

 30 33  0  0  1  0  0  0  0  0999 V2000
  187.7050  177.7380  145.2940 C   0  0  1  0  0  3  0  0  0  0  0  0
  188.2260  177.3120  143.9370 C   0  0  0  0  0  0  0  0  0  0  0  0
  188.8330  178.3640  146.1180 C   0  0  0  0  0  2  0  0  0  0  0  0
  191.6160  175.9380  145.3370 C   0  0  0  0  0  2  0  0  0  0  0  0
  189.8710  176.9520  141.1900 C   0  0  1  0  0  3  0  0  0  0  0  0
  190.3980  176.7440  145.0710 C   0  0  0  0  0  0  0  0  0  0  0  0
  190.9340  177.2710  147.2860 C   0  0  0  0  0  2  0  0  0  0  0  0
  188.7290  177.7760  140.7710 N   0  0  0  0  0  0  0  0  0  0  0  0
  190.0360  177.4660  146.1220 C   0  0  0  0  0  0  0  0  0  0  0  0
  189.6190  176.7110  143.7780 C   0  0  2  0  0  3  0  0  0  0  0  0
  188.8880  178.3190  139.4390 C   0  0  0  0  0  2  0  0  0  0  0  0
  190.9190  177.1380  140.1070 C   0  0  0  0  0  2  0  0  0  0  0  0
  191.9110  175.0100  147.6260 C   0  0  0  0  0  1  0  0  0  0  0  0
  191.9760  176.2690  146.7860 C   0  0  1  0  0  3  0  0  0  0  0  0
  187.6750  177.6800  142.8240 C   0  0  0  0  0  0  0  0  0  0  0  0
  187.5490  177.9650  141.5730 C   0  0  0  0  0  0  0  0  0  0  0  0
  190.1890  177.7370  138.9120 C   0  0  0  0  0  2  0  0  0  0  0  0
  190.7230  178.7980  142.7570 C   0  0  0  0  0  1  0  0  0  0  0  0
  190.4470  177.3040  142.5940 C   0  0  2  0  0  3  0  0  0  0  0  0
  186.3380  178.6700  141.0670 C   0  0  0  0  0  2  0  0  0  0  0  0
  185.9630  179.6650  141.9680 O   0  0  0  0  0  1  0  0  0  0  0  0
  186.6460  178.6610  145.1770 O   0  0  0  0  0  0  0  0  0  0  0  0
  185.9050  178.6830  146.3800 C   0  0  2  0  0  3  0  0  0  0  0  0
  186.3710  177.6480  147.3970 C   0  0  0  0  0  1  0  0  0  0  0  0
  184.3920  178.6560  146.1660 C   0  0  0  0  0  2  0  0  0  0  0  0
  184.0590  178.7860  144.6880 C   0  0  0  0  0  2  0  0  0  0  0  0
  182.6210  178.7070  144.4920 N   0  0  0  0  0  2  0  0  0  0  0  0
  182.3510  179.0830  143.1120 C   0  0  0  0  0  2  0  0  0  0  0  0
  180.1540  178.3340  144.0120 C   0  0  0  0  0  1  0  0  0  0  0  0
  180.8780  178.8920  142.8010 C   0  0  0  0  0  2  0  0  0  0  0  0
  1 22  1  6  0  0  0
  1  3  1  0  0  0  0
  2  1  1  0  0  0  0
  3  9  1  0  0  0  0
  4 14  1  0  0  0  0
  5 12  1  6  0  0  0
  5 19  1  0  0  0  0
  6  4  1  0  0  0  0
  6  9  2  0  0  0  0
  8  5  1  0  0  0  0
  8 16  1  0  0  0  0
  9  7  1  0  0  0  0
 10  2  1  1  0  0  0
 10  6  1  0  0  0  0
 11  8  1  0  0  0  0
 14  7  1  0  0  0  0
 14 13  1  1  0  0  0
 15  2  2  0  0  0  0
 16 15  2  0  0  0  0
 17 11  1  0  0  0  0
 17 12  1  0  0  0  0
 19 18  1  1  0  0  0
 19 10  1  0  0  0  0
 20 16  1  0  0  0  0
 20 21  1  0  0  0  0
 22 23  1  0  0  0  0
 23 24  1  1  0  0  0
 25 23  1  0  0  0  0
 26 25  1  0  0  0  0
 27 26  1  0  0  0  0
 28 27  1  0  0  0  0
 30 28  1  0  0  0  0
 30 29  1  0  0  0  0
M  END
>  <MODEL>
2

>  <REMARK>
 VINA RESULT:      -7.8      2.492      6.455
  Name = 
  8 active torsions:
  status: ('A' for Active; 'I' for Inactive)
    1  A    between atoms: C_1  and  O_22
    2  A    between atoms: C_2  and  C_14
    3  A    between atoms: C_2  and  O_22
    4  A    between atoms: C_11  and  C_25
    5  A    between atoms: C_14  and  C_20
    6  A    between atoms: C_19  and  C_29
    7  A    between atoms: C_20  and  N_28
    8  A    between atoms: N_28  and  C_29
                            x       y       z     vdW  Elec       q    Type
                         _______ _______ _______ _____ _____    ______ ____

>  <TORSDO>
F 8

$$$$
=
 OpenBabel10272413483D

 30 33  0  0  1  0  0  0  0  0999 V2000
  189.6500  177.0190  142.5670 C   0  0  1  0  0  3  0  0  0  0  0  0
  189.6100  177.6770  141.2030 C   0  0  0  0  0  0  0  0  0  0  0  0
  188.2780  176.4330  142.9080 C   0  0  0  0  0  2  0  0  0  0  0  0
  186.0670  179.2560  141.7340 C   0  0  0  0  0  2  0  0  0  0  0  0
  188.9340  178.5830  138.1860 C   0  0  1  0  0  3  0  0  0  0  0  0
  187.2430  178.3500  141.7160 C   0  0  0  0  0  0  0  0  0  0  0  0
  186.0060  177.6100  143.5590 C   0  0  0  0  0  2  0  0  0  0  0  0
  190.0850  177.6890  137.9980 N   0  0  0  0  0  0  0  0  0  0  0  0
  187.2040  177.4600  142.6980 C   0  0  0  0  0  0  0  0  0  0  0  0
  188.3850  178.4560  140.7360 C   0  0  2  0  0  3  0  0  0  0  0  0
  190.3090  177.3450  136.6110 C   0  0  0  0  0  2  0  0  0  0  0  0
  188.2650  178.6660  136.8260 C   0  0  0  0  0  2  0  0  0  0  0  0
  185.1430  179.9090  143.9500 C   0  0  0  0  0  1  0  0  0  0  0  0
  185.2500  178.7860  142.9390 C   0  0  1  0  0  3  0  0  0  0  0  0
  190.4510  177.3910  140.2600 C   0  0  0  0  0  0  0  0  0  0  0  0
  190.9390  177.2580  139.0730 C   0  0  0  0  0  0  0  0  0  0  0  0
  189.2840  178.1430  135.8210 C   0  0  0  0  0  2  0  0  0  0  0  0
  187.5010  176.6660  139.1130 C   0  0  0  0  0  1  0  0  0  0  0  0
  187.9250  178.1250  139.2800 C   0  0  2  0  0  3  0  0  0  0  0  0
  192.1920  176.4830  138.8440 C   0  0  0  0  0  2  0  0  0  0  0  0
  193.2600  177.1210  139.4730 O   0  0  0  0  0  1  0  0  0  0  0  0
  190.6200  175.9990  142.6240 O   0  0  0  0  0  0  0  0  0  0  0  0
  191.5260  176.2670  143.6750 C   0  0  2  0  0  3  0  0  0  0  0  0
  192.0410  175.0100  144.3650 C   0  0  0  0  0  1  0  0  0  0  0  0
  191.0200  177.3140  144.6650 C   0  0  0  0  0  2  0  0  0  0  0  0
  191.3870  176.9250  146.0890 C   0  0  0  0  0  2  0  0  0  0  0  0
  190.2190  177.0170  146.9490 N   0  0  0  0  0  2  0  0  0  0  0  0
  189.2060  177.7690  146.2240 C   0  0  0  0  0  2  0  0  0  0  0  0
  188.0800  177.7990  148.4450 C   0  0  0  0  0  1  0  0  0  0  0  0
  187.8750  177.6760  146.9460 C   0  0  0  0  0  2  0  0  0  0  0  0
  1 22  1  6  0  0  0
  1  3  1  0  0  0  0
  2  1  1  0  0  0  0
  4 14  1  0  0  0  0
  5 12  1  6  0  0  0
  5 19  1  0  0  0  0
  6  4  1  0  0  0  0
  6  9  2  0  0  0  0
  8  5  1  0  0  0  0
  8 16  1  0  0  0  0
  9  3  1  0  0  0  0
  9  7  1  0  0  0  0
 10  2  1  1  0  0  0
 10  6  1  0  0  0  0
 11  8  1  0  0  0  0
 14  7  1  0  0  0  0
 14 13  1  1  0  0  0
 15  2  2  0  0  0  0
 16 15  2  0  0  0  0
 17 11  1  0  0  0  0
 17 12  1  0  0  0  0
 19 18  1  1  0  0  0
 19 10  1  0  0  0  0
 20 16  1  0  0  0  0
 20 21  1  0  0  0  0
 22 23  1  0  0  0  0
 23 24  1  1  0  0  0
 23 25  1  0  0  0  0
 25 26  1  0  0  0  0
 26 27  1  0  0  0  0
 28 30  1  0  0  0  0
 28 27  1  0  0  0  0
 30 29  1  0  0  0  0
M  END
>  <MODEL>
3

>  <REMARK>
 VINA RESULT:      -7.5      2.555      3.985
  Name = 
  8 active torsions:
  status: ('A' for Active; 'I' for Inactive)
    1  A    between atoms: C_1  and  O_22
    2  A    between atoms: C_2  and  C_14
    3  A    between atoms: C_2  and  O_22
    4  A    between atoms: C_11  and  C_25
    5  A    between atoms: C_14  and  C_20
    6  A    between atoms: C_19  and  C_29
    7  A    between atoms: C_20  and  N_28
    8  A    between atoms: N_28  and  C_29
                            x       y       z     vdW  Elec       q    Type
                         _______ _______ _______ _____ _____    ______ ____

>  <TORSDO>
F 8

$$$$
=
 OpenBabel10272413483D

 30 33  0  0  1  0  0  0  0  0999 V2000
  188.0650  177.6720  143.1390 C   0  0  1  0  0  3  0  0  0  0  0  0
  188.7490  177.0260  141.9510 C   0  0  0  0  0  0  0  0  0  0  0  0
  189.1010  178.3550  144.0340 C   0  0  0  0  0  2  0  0  0  0  0  0
  191.7870  175.7050  144.0390 C   0  0  0  0  0  2  0  0  0  0  0  0
  190.7510  176.1850  139.5710 C   0  0  1  0  0  3  0  0  0  0  0  0
  190.6830  176.5230  143.4770 C   0  0  0  0  0  0  0  0  0  0  0  0
  190.9230  177.3420  145.6550 C   0  0  0  0  0  2  0  0  0  0  0  0
  189.7450  176.9940  138.8690 N   0  0  0  0  0  0  0  0  0  0  0  0
  190.2230  177.4080  144.3490 C   0  0  0  0  0  0  0  0  0  0  0  0
  190.1030  176.3390  142.0960 C   0  0  2  0  0  3  0  0  0  0  0  0
  190.1370  177.3280  137.5160 C   0  0  0  0  0  2  0  0  0  0  0  0
  191.9580  176.1570  138.6500 C   0  0  0  0  0  2  0  0  0  0  0  0
  191.6740  175.1090  146.4520 C   0  0  0  0  0  1  0  0  0  0  0  0
  191.9520  176.2270  145.4660 C   0  0  1  0  0  3  0  0  0  0  0  0
  188.3960  177.2540  140.7260 C   0  0  0  0  0  0  0  0  0  0  0  0
  188.4770  177.3570  139.4430 C   0  0  0  0  0  0  0  0  0  0  0  0
  191.4570  176.6110  137.2840 C   0  0  0  0  0  2  0  0  0  0  0  0
  191.4920  178.1960  140.9830 C   0  0  0  0  0  1  0  0  0  0  0  0
  191.1370  176.7100  140.9850 C   0  0  2  0  0  3  0  0  0  0  0  0
  187.4060  178.0400  138.6610 C   0  0  0  0  0  2  0  0  0  0  0  0
  186.4960  178.6350  139.5330 O   0  0  0  0  0  1  0  0  0  0  0  0
  187.1030  178.6190  142.7320 O   0  0  0  0  0  0  0  0  0  0  0  0
  185.8190  178.1880  143.1330 C   0  0  2  0  0  3  0  0  0  0  0  0
  184.6960  179.0910  142.6350 C   0  0  0  0  0  1  0  0  0  0  0  0
  185.7130  177.8900  144.6280 C   0  0  0  0  0  2  0  0  0  0  0  0
  184.9810  179.0130  145.3460 C   0  0  0  0  0  2  0  0  0  0  0  0
  185.6000  179.2670  146.6360 N   0  0  0  0  0  2  0  0  0  0  0  0
  186.4430  178.1210  146.9450 C   0  0  0  0  0  2  0  0  0  0  0  0
  188.4820  177.3840  148.1680 C   0  0  0  0  0  1  0  0  0  0  0  0
  187.4680  178.5000  147.9970 C   0  0  0  0  0  2  0  0  0  0  0  0
  1 22  1  6  0  0  0
  1  3  1  0  0  0  0
  2  1  1  0  0  0  0
  3  9  1  0  0  0  0
  4 14  1  0  0  0  0
  5 12  1  6  0  0  0
  5 19  1  0  0  0  0
  6  4  1  0  0  0  0
  6  9  2  0  0  0  0
  8 16  1  0  0  0  0
  8  5  1  0  0  0  0
  9  7  1  0  0  0  0
 10  2  1  1  0  0  0
 10  6  1  0  0  0  0
 11  8  1  0  0  0  0
 14  7  1  0  0  0  0
 14 13  1  1  0  0  0
 15  2  2  0  0  0  0
 16 15  2  0  0  0  0
 17 11  1  0  0  0  0
 17 12  1  0  0  0  0
 19 18  1  6  0  0  0
 19 10  1  0  0  0  0
 20 16  1  0  0  0  0
 20 21  1  0  0  0  0
 22 23  1  0  0  0  0
 23 24  1  1  0  0  0
 23 25  1  0  0  0  0
 25 26  1  0  0  0  0
 26 27  1  0  0  0  0
 27 28  1  0  0  0  0
 28 30  1  0  0  0  0
 30 29  1  0  0  0  0
M  END
>  <MODEL>
4

>  <REMARK>
 VINA RESULT:      -7.4      2.381      5.583
  Name = 
  8 active torsions:
  status: ('A' for Active; 'I' for Inactive)
    1  A    between atoms: C_1  and  O_22
    2  A    between atoms: C_2  and  C_14
    3  A    between atoms: C_2  and  O_22
    4  A    between atoms: C_11  and  C_25
    5  A    between atoms: C_14  and  C_20
    6  A    between atoms: C_19  and  C_29
    7  A    between atoms: C_20  and  N_28
    8  A    between atoms: N_28  and  C_29
                            x       y       z     vdW  Elec       q    Type
                         _______ _______ _______ _____ _____    ______ ____

>  <TORSDO>
F 8

$$$$
=
 OpenBabel10272413483D

 30 33  0  0  1  0  0  0  0  0999 V2000
  184.8150  178.6710  141.7110 C   0  0  1  0  0  3  0  0  0  0  0  0
  185.5470  178.8290  140.3940 C   0  0  0  0  0  0  0  0  0  0  0  0
  183.4700  177.9780  141.4860 C   0  0  0  0  0  2  0  0  0  0  0  0
  182.3300  179.7900  138.3780 C   0  0  0  0  0  2  0  0  0  0  0  0
  186.6610  178.5580  137.3830 C   0  0  1  0  0  3  0  0  0  0  0  0
  183.3020  179.1700  139.3130 C   0  0  0  0  0  0  0  0  0  0  0  0
  181.2400  178.8480  140.3700 C   0  0  0  0  0  2  0  0  0  0  0  0
  187.7060  177.8880  138.1700 N   0  0  0  0  0  0  0  0  0  0  0  0
  182.7110  178.6580  140.3830 C   0  0  0  0  0  0  0  0  0  0  0  0
  184.7980  179.1660  139.1090 C   0  0  2  0  0  3  0  0  0  0  0  0
  188.6480  177.1600  137.3470 C   0  0  0  0  0  2  0  0  0  0  0  0
  186.8520  178.0650  135.9600 C   0  0  0  0  0  2  0  0  0  0  0  0
  180.3550  180.9410  139.3600 C   0  0  0  0  0  1  0  0  0  0  0  0
  180.9760  179.5920  139.0600 C   0  0  1  0  0  3  0  0  0  0  0  0
  186.7620  178.4180  140.2100 C   0  0  0  0  0  0  0  0  0  0  0  0
  187.8180  178.0010  139.6000 C   0  0  0  0  0  0  0  0  0  0  0  0
  188.2440  177.4470  135.9100 C   0  0  0  0  0  2  0  0  0  0  0  0
  184.9130  176.8120  138.0780 C   0  0  0  0  0  1  0  0  0  0  0  0
  185.2070  178.2980  137.8760 C   0  0  2  0  0  3  0  0  0  0  0  0
  188.9730  177.4470  140.3620 C   0  0  0  0  0  2  0  0  0  0  0  0
  188.9810  177.9750  141.6520 O   0  0  0  0  0  1  0  0  0  0  0  0
  185.5720  177.9300  142.6400 O   0  0  0  0  0  0  0  0  0  0  0  0
  185.2370  178.3340  143.9520 C   0  0  2  0  0  3  0  0  0  0  0  0
  184.8690  179.8100  144.0550 C   0  0  0  0  0  1  0  0  0  0  0  0
  186.2620  177.9100  145.0030 C   0  0  0  0  0  2  0  0  0  0  0  0
  187.2660  176.9360  144.4070 C   0  0  0  0  0  2  0  0  0  0  0  0
  188.5000  176.9590  145.1760 N   0  0  0  0  0  2  0  0  0  0  0  0
  188.3740  178.0190  146.1650 C   0  0  0  0  0  2  0  0  0  0  0  0
  188.2420  178.0420  148.6510 C   0  0  0  0  0  1  0  0  0  0  0  0
  189.0670  177.6130  147.4520 C   0  0  0  0  0  2  0  0  0  0  0  0
  1 22  1  1  0  0  0
  2  1  1  0  0  0  0
  3  1  1  0  0  0  0
  4 14  1  0  0  0  0
  4  6  1  0  0  0  0
  5 12  1  6  0  0  0
  5 19  1  0  0  0  0
  5  8  1  0  0  0  0
  6  9  2  0  0  0  0
  7  9  1  0  0  0  0
  8 16  1  0  0  0  0
  9  3  1  0  0  0  0
 10  6  1  1  0  0  0
 10  2  1  0  0  0  0
 11  8  1  0  0  0  0
 14 13  1  1  0  0  0
 14  7  1  0  0  0  0
 15  2  2  0  0  0  0
 16 15  2  0  0  0  0
 16 20  1  0  0  0  0
 17 12  1  0  0  0  0
 17 11  1  0  0  0  0
 19 18  1  1  0  0  0
 19 10  1  0  0  0  0
 20 21  1  0  0  0  0
 22 23  1  0  0  0  0
 23 24  1  6  0  0  0
 23 25  1  0  0  0  0
 26 25  1  0  0  0  0
 26 27  1  0  0  0  0
 27 28  1  0  0  0  0
 28 30  1  0  0  0  0
 30 29  1  0  0  0  0
M  END
>  <MODEL>
5

>  <REMARK>
 VINA RESULT:      -7.1      1.922      4.885
  Name = 
  8 active torsions:
  status: ('A' for Active; 'I' for Inactive)
    1  A    between atoms: C_1  and  O_22
    2  A    between atoms: C_2  and  C_14
    3  A    between atoms: C_2  and  O_22
    4  A    between atoms: C_11  and  C_25
    5  A    between atoms: C_14  and  C_20
    6  A    between atoms: C_19  and  C_29
    7  A    between atoms: C_20  and  N_28
    8  A    between atoms: N_28  and  C_29
                            x       y       z     vdW  Elec       q    Type
                         _______ _______ _______ _____ _____    ______ ____

>  <TORSDO>
F 8

$$$$
=
 OpenBabel10272413483D

 30 33  0  0  1  0  0  0  0  0999 V2000
  187.3230  178.0240  141.2370 C   0  0  1  0  0  3  0  0  0  0  0  0
  186.9410  177.7120  142.6700 C   0  0  0  0  0  0  0  0  0  0  0  0
  186.4400  179.1470  140.6900 C   0  0  0  0  0  2  0  0  0  0  0  0
  183.0910  178.0380  142.0290 C   0  0  0  0  0  2  0  0  0  0  0  0
  185.8630  177.7810  145.7060 C   0  0  1  0  0  3  0  0  0  0  0  0
  184.5630  178.2280  142.0320 C   0  0  0  0  0  0  0  0  0  0  0  0
  183.8930  179.1640  139.9960 C   0  0  0  0  0  2  0  0  0  0  0  0
  187.3060  178.0020  145.8750 N   0  0  0  0  0  0  0  0  0  0  0  0
  184.9920  178.8410  140.9380 C   0  0  0  0  0  0  0  0  0  0  0  0
  185.4840  177.7350  143.1220 C   0  0  2  0  0  3  0  0  0  0  0  0
  187.6560  178.4170  147.2170 C   0  0  0  0  0  2  0  0  0  0  0  0
  185.2270  178.2710  146.9940 C   0  0  0  0  0  2  0  0  0  0  0  0
  181.9910  177.5690  139.8470 C   0  0  0  0  0  1  0  0  0  0  0  0
  182.6380  178.6420  140.6990 C   0  0  1  0  0  3  0  0  0  0  0  0
  187.7990  177.6950  143.6400 C   0  0  0  0  0  0  0  0  0  0  0  0
  188.2730  177.7650  144.8370 C   0  0  0  0  0  0  0  0  0  0  0  0
  186.3590  178.3790  148.0090 C   0  0  0  0  0  2  0  0  0  0  0  0
  185.6070  179.9700  144.3890 C   0  0  0  0  0  1  0  0  0  0  0  0
  185.2370  178.4890  144.4670 C   0  0  2  0  0  3  0  0  0  0  0  0
  189.7430  177.8410  145.0750 C   0  0  0  0  0  2  0  0  0  0  0  0
  190.3100  178.7760  144.2110 O   0  0  0  0  0  1  0  0  0  0  0  0
  188.6770  178.4000  141.1320 O   0  0  0  0  0  0  0  0  0  0  0  0
  189.3810  177.4280  140.3860 C   0  0  2  0  0  3  0  0  0  0  0  0
  190.4020  176.6550  141.2120 C   0  0  0  0  0  1  0  0  0  0  0  0
  189.9670  177.9650  139.0810 C   0  0  0  0  0  2  0  0  0  0  0  0
  189.0350  177.6710  137.9160 C   0  0  0  0  0  2  0  0  0  0  0  0
  188.2560  178.8540  137.5890 N   0  0  0  0  0  2  0  0  0  0  0  0
  187.1080  178.4150  136.8100 C   0  0  0  0  0  2  0  0  0  0  0  0
  185.0770  177.0730  137.3320 C   0  0  0  0  0  1  0  0  0  0  0  0
  186.5940  177.0910  137.3460 C   0  0  0  0  0  2  0  0  0  0  0  0
  1 22  1  1  0  0  0
  1  2  1  0  0  0  0
  2 10  1  0  0  0  0
  2 15  2  0  0  0  0
  3  9  1  0  0  0  0
  3  1  1  0  0  0  0
  4  6  1  0  0  0  0
  5  8  1  0  0  0  0
  5 12  1  1  0  0  0
  7 14  1  0  0  0  0
  7  9  1  0  0  0  0
  8 11  1  0  0  0  0
  9  6  2  0  0  0  0
 10  6  1  6  0  0  0
 10 19  1  0  0  0  0
 11 17  1  0  0  0  0
 12 17  1  0  0  0  0
 14 13  1  6  0  0  0
 14  4  1  0  0  0  0
 15 16  2  0  0  0  0
 16 20  1  0  0  0  0
 16  8  1  0  0  0  0
 19 18  1  6  0  0  0
 19  5  1  0  0  0  0
 21 20  1  0  0  0  0
 23 22  1  0  0  0  0
 23 24  1  1  0  0  0
 25 23  1  0  0  0  0
 26 25  1  0  0  0  0
 27 26  1  0  0  0  0
 28 30  1  0  0  0  0
 28 27  1  0  0  0  0
 29 30  1  0  0  0  0
M  END
>  <MODEL>
6

>  <REMARK>
 VINA RESULT:      -7.0      1.812      6.319
  Name = 
  8 active torsions:
  status: ('A' for Active; 'I' for Inactive)
    1  A    between atoms: C_1  and  O_22
    2  A    between atoms: C_2  and  C_14
    3  A    between atoms: C_2  and  O_22
    4  A    between atoms: C_11  and  C_25
    5  A    between atoms: C_14  and  C_20
    6  A    between atoms: C_19  and  C_29
    7  A    between atoms: C_20  and  N_28
    8  A    between atoms: N_28  and  C_29
                            x       y       z     vdW  Elec       q    Type
                         _______ _______ _______ _____ _____    ______ ____

>  <TORSDO>
F 8

$$$$
=
 OpenBabel10272413483D

 30 33  0  0  1  0  0  0  0  0999 V2000
  191.0770  177.1260  141.2180 C   0  0  1  0  0  3  0  0  0  0  0  0
  189.7830  176.9810  140.4420 C   0  0  0  0  0  0  0  0  0  0  0  0
  192.1790  177.6650  140.3050 C   0  0  0  0  0  2  0  0  0  0  0  0
  191.5220  175.5970  137.2180 C   0  0  0  0  0  2  0  0  0  0  0  0
  187.3530  177.2180  138.3390 C   0  0  1  0  0  3  0  0  0  0  0  0
  191.1780  176.3590  138.4450 C   0  0  0  0  0  0  0  0  0  0  0  0
  193.5090  176.5170  138.3330 C   0  0  0  0  0  2  0  0  0  0  0  0
  186.8770  178.0300  139.4680 N   0  0  0  0  0  0  0  0  0  0  0  0
  192.2510  176.8590  139.0410 C   0  0  0  0  0  0  0  0  0  0  0  0
  189.7800  176.5070  138.9920 C   0  0  2  0  0  3  0  0  0  0  0  0
  185.7020  178.8100  139.1430 C   0  0  0  0  0  2  0  0  0  0  0  0
  186.5200  177.6590  137.1490 C   0  0  0  0  0  2  0  0  0  0  0  0
  193.6440  174.2980  137.2200 C   0  0  0  0  0  1  0  0  0  0  0  0
  193.0460  175.6880  137.1350 C   0  0  1  0  0  3  0  0  0  0  0  0
  188.6650  177.5050  140.8340 C   0  0  0  0  0  0  0  0  0  0  0  0
  187.4750  177.9980  140.7770 C   0  0  0  0  0  0  0  0  0  0  0  0
  185.3280  178.4140  137.7250 C   0  0  0  0  0  2  0  0  0  0  0  0
  189.3280  178.8070  137.9340 C   0  0  0  0  0  1  0  0  0  0  0  0
  188.8750  177.3520  138.0390 C   0  0  2  0  0  3  0  0  0  0  0  0
  186.8830  178.7050  141.9490 C   0  0  0  0  0  2  0  0  0  0  0  0
  187.2690  178.0660  143.1260 O   0  0  0  0  0  1  0  0  0  0  0  0
  190.9250  177.9860  142.3240 O   0  0  0  0  0  0  0  0  0  0  0  0
  191.3220  177.3140  143.5020 C   0  0  2  0  0  3  0  0  0  0  0  0
  191.2360  175.7960  143.3900 C   0  0  0  0  0  1  0  0  0  0  0  0
  190.6510  177.8480  144.7660 C   0  0  0  0  0  2  0  0  0  0  0  0
  191.1570  177.1060  145.9930 C   0  0  0  0  0  2  0  0  0  0  0  0
  190.0690  176.8950  146.9340 N   0  0  0  0  0  2  0  0  0  0  0  0
  188.8350  177.2720  146.2590 C   0  0  0  0  0  2  0  0  0  0  0  0
  188.4530  178.0370  148.5970 C   0  0  0  0  0  1  0  0  0  0  0  0
  187.7890  177.6800  147.2800 C   0  0  0  0  0  2  0  0  0  0  0  0
  1 22  1  1  0  0  0
  2 15  2  0  0  0  0
  2  1  1  0  0  0  0
  3  1  1  0  0  0  0
  4  6  1  0  0  0  0
  5 12  1  6  0  0  0
  5  8  1  0  0  0  0
  6  9  2  0  0  0  0
  7  9  1  0  0  0  0
  8 16  1  0  0  0  0
  9  3  1  0  0  0  0
 10  6  1  6  0  0  0
 10  2  1  0  0  0  0
 11  8  1  0  0  0  0
 12 17  1  0  0  0  0
 14  4  1  0  0  0  0
 14 13  1  1  0  0  0
 14  7  1  0  0  0  0
 16 15  2  0  0  0  0
 16 20  1  0  0  0  0
 17 11  1  0  0  0  0
 19 18  1  1  0  0  0
 19  5  1  0  0  0  0
 19 10  1  0  0  0  0
 20 21  1  0  0  0  0
 22 23  1  0  0  0  0
 23 24  1  6  0  0  0
 23 25  1  0  0  0  0
 25 26  1  0  0  0  0
 26 27  1  0  0  0  0
 28 27  1  0  0  0  0
 28 30  1  0  0  0  0
 30 29  1  0  0  0  0
M  END
>  <MODEL>
7

>  <REMARK>
 VINA RESULT:      -7.0      2.313      5.879
  Name = 
  8 active torsions:
  status: ('A' for Active; 'I' for Inactive)
    1  A    between atoms: C_1  and  O_22
    2  A    between atoms: C_2  and  C_14
    3  A    between atoms: C_2  and  O_22
    4  A    between atoms: C_11  and  C_25
    5  A    between atoms: C_14  and  C_20
    6  A    between atoms: C_19  and  C_29
    7  A    between atoms: C_20  and  N_28
    8  A    between atoms: N_28  and  C_29
                            x       y       z     vdW  Elec       q    Type
                         _______ _______ _______ _____ _____    ______ ____

>  <TORSDO>
F 8

$$$$
=
 OpenBabel10272413483D

 30 33  0  0  1  0  0  0  0  0999 V2000
  188.5660  178.0600  140.4670 C   0  0  1  0  0  3  0  0  0  0  0  0
  187.5380  178.6450  141.4140 C   0  0  0  0  0  0  0  0  0  0  0  0
  189.3060  176.9040  141.1440 C   0  0  0  0  0  2  0  0  0  0  0  0
  189.8600  178.4120  144.5580 C   0  0  0  0  0  2  0  0  0  0  0  0
  185.3860  179.1830  143.7510 C   0  0  1  0  0  3  0  0  0  0  0  0
  189.1400  178.1490  143.2870 C   0  0  0  0  0  0  0  0  0  0  0  0
  191.1050  176.8970  143.0770 C   0  0  0  0  0  2  0  0  0  0  0  0
  184.5300  178.9200  142.5850 N   0  0  0  0  0  0  0  0  0  0  0  0
  189.8120  177.3270  142.4930 C   0  0  0  0  0  0  0  0  0  0  0  0
  187.8240  178.7810  142.9060 C   0  0  2  0  0  3  0  0  0  0  0  0
  183.1390  178.7370  142.9390 C   0  0  0  0  0  2  0  0  0  0  0  0
  184.4930  178.9680  144.9600 C   0  0  0  0  0  2  0  0  0  0  0  0
  192.3440  178.5370  144.4770 C   0  0  0  0  0  1  0  0  0  0  0  0
  191.1510  177.6030  144.4330 C   0  0  1  0  0  3  0  0  0  0  0  0
  186.2910  178.7920  141.0950 C   0  0  0  0  0  0  0  0  0  0  0  0
  185.0140  178.9140  141.2300 C   0  0  0  0  0  0  0  0  0  0  0  0
  183.0620  178.9860  144.4360 C   0  0  0  0  0  2  0  0  0  0  0  0
  186.3580  176.8090  143.6660 C   0  0  0  0  0  1  0  0  0  0  0  0
  186.6640  178.2960  143.8320 C   0  0  2  0  0  3  0  0  0  0  0  0
  184.1070  178.8050  140.0520 C   0  0  0  0  0  2  0  0  0  0  0  0
  184.2900  179.9040  139.2150 O   0  0  0  0  0  1  0  0  0  0  0  0
  187.9720  177.5990  139.2750 O   0  0  0  0  0  0  0  0  0  0  0  0
  188.5380  178.2770  138.1730 C   0  0  2  0  0  3  0  0  0  0  0  0
  187.5170  178.6570  137.1070 C   0  0  0  0  0  1  0  0  0  0  0  0
  189.7630  177.5760  137.5880 C   0  0  0  0  0  2  0  0  0  0  0  0
  189.5850  176.0660  137.6280 C   0  0  0  0  0  2  0  0  0  0  0  0
  190.7800  175.4360  138.1650 N   0  0  0  0  0  2  0  0  0  0  0  0
  191.7320  176.4960  138.4610 C   0  0  0  0  0  2  0  0  0  0  0  0
  193.1900  174.7020  137.5370 C   0  0  0  0  0  1  0  0  0  0  0  0
  193.0680  176.1900  137.8100 C   0  0  0  0  0  2  0  0  0  0  0  0
  1 22  1  6  0  0  0
  1  3  1  0  0  0  0
  1  2  1  0  0  0  0
  3  9  1  0  0  0  0
  5 19  1  0  0  0  0
  5 12  1  1  0  0  0
  6  4  1  0  0  0  0
  7 14  1  0  0  0  0
  8 11  1  0  0  0  0
  8  5  1  0  0  0  0
  9  7  1  0  0  0  0
  9  6  2  0  0  0  0
 10  2  1  6  0  0  0
 10  6  1  0  0  0  0
 10 19  1  0  0  0  0
 11 17  1  0  0  0  0
 14 13  1  6  0  0  0
 14  4  1  0  0  0  0
 15 16  2  0  0  0  0
 15  2  2  0  0  0  0
 16  8  1  0  0  0  0
 17 12  1  0  0  0  0
 19 18  1  6  0  0  0
 20 16  1  0  0  0  0
 21 20  1  0  0  0  0
 23 24  1  6  0  0  0
 23 22  1  0  0  0  0
 25 26  1  0  0  0  0
 25 23  1  0  0  0  0
 26 27  1  0  0  0  0
 27 28  1  0  0  0  0
 29 30  1  0  0  0  0
 30 28  1  0  0  0  0
M  END
>  <MODEL>
8

>  <REMARK>
 VINA RESULT:      -6.9      2.351      5.224
  Name = 
  8 active torsions:
  status: ('A' for Active; 'I' for Inactive)
    1  A    between atoms: C_1  and  O_22
    2  A    between atoms: C_2  and  C_14
    3  A    between atoms: C_2  and  O_22
    4  A    between atoms: C_11  and  C_25
    5  A    between atoms: C_14  and  C_20
    6  A    between atoms: C_19  and  C_29
    7  A    between atoms: C_20  and  N_28
    8  A    between atoms: N_28  and  C_29
                            x       y       z     vdW  Elec       q    Type
                         _______ _______ _______ _____ _____    ______ ____

>  <TORSDO>
F 8

$$$$
=
 OpenBabel10272413483D

 30 33  0  0  1  0  0  0  0  0999 V2000
  187.7600  177.9620  141.3490 C   0  0  1  0  0  3  0  0  0  0  0  0
  187.1670  177.6830  142.7150 C   0  0  0  0  0  0  0  0  0  0  0  0
  186.9710  179.0720  140.6510 C   0  0  0  0  0  2  0  0  0  0  0  0
  183.4570  177.9900  141.4990 C   0  0  0  0  0  2  0  0  0  0  0  0
  185.6470  177.8200  145.5530 C   0  0  1  0  0  3  0  0  0  0  0  0
  184.9130  178.1820  141.7180 C   0  0  0  0  0  0  0  0  0  0  0  0
  184.5560  179.0700  139.5840 C   0  0  0  0  0  2  0  0  0  0  0  0
  187.0490  178.0470  145.9320 N   0  0  0  0  0  0  0  0  0  0  0  0
  185.5020  178.7700  140.6860 C   0  0  0  0  0  0  0  0  0  0  0  0
  185.6590  177.7150  142.9440 C   0  0  2  0  0  3  0  0  0  0  0  0
  187.1960  178.4930  147.3010 C   0  0  0  0  0  2  0  0  0  0  0  0
  184.8280  178.3390  146.7210 C   0  0  0  0  0  2  0  0  0  0  0  0
  182.6940  177.4700  139.1890 C   0  0  0  0  0  1  0  0  0  0  0  0
  183.2100  178.5630  140.1030 C   0  0  1  0  0  3  0  0  0  0  0  0
  187.8710  177.6890  143.8030 C   0  0  0  0  0  0  0  0  0  0  0  0
  188.1610  177.7880  145.0550 C   0  0  0  0  0  0  0  0  0  0  0  0
  185.7960  178.4710  147.8910 C   0  0  0  0  0  2  0  0  0  0  0  0
  185.5960  179.9780  144.1640 C   0  0  0  0  0  1  0  0  0  0  0  0
  185.2160  178.5000  144.2200 C   0  0  2  0  0  3  0  0  0  0  0  0
  189.5780  177.8710  145.5080 C   0  0  0  0  0  2  0  0  0  0  0  0
  190.3040  178.6770  144.6330 O   0  0  0  0  0  1  0  0  0  0  0  0
  189.1150  178.3390  141.4390 O   0  0  0  0  0  0  0  0  0  0  0  0
  189.9230  177.3300  140.8680 C   0  0  2  0  0  3  0  0  0  0  0  0
  191.2990  177.2180  141.5160 C   0  0  0  0  0  1  0  0  0  0  0  0
  189.9960  177.3940  139.3430 C   0  0  0  0  0  2  0  0  0  0  0  0
  191.2260  176.6570  138.8360 C   0  0  0  0  0  2  0  0  0  0  0  0
  190.8720  175.3000  138.4550 N   0  0  0  0  0  2  0  0  0  0  0  0
  191.9480  174.7910  137.6170 C   0  0  0  0  0  2  0  0  0  0  0  0
  194.4290  174.7830  137.4010 C   0  0  0  0  0  1  0  0  0  0  0  0
  193.2230  175.5700  137.8820 C   0  0  0  0  0  2  0  0  0  0  0  0
  1 22  1  1  0  0  0
  1  2  1  0  0  0  0
  2 10  1  0  0  0  0
  2 15  2  0  0  0  0
  3  9  1  0  0  0  0
  3  1  1  0  0  0  0
  4  6  1  0  0  0  0
  5  8  1  0  0  0  0
  5 12  1  1  0  0  0
  7 14  1  0  0  0  0
  7  9  1  0  0  0  0
  8 11  1  0  0  0  0
  9  6  2  0  0  0  0
 10  6  1  6  0  0  0
 10 19  1  0  0  0  0
 11 17  1  0  0  0  0
 12 17  1  0  0  0  0
 14 13  1  6  0  0  0
 14  4  1  0  0  0  0
 15 16  2  0  0  0  0
 16 20  1  0  0  0  0
 16  8  1  0  0  0  0
 19 18  1  6  0  0  0
 19  5  1  0  0  0  0
 21 20  1  0  0  0  0
 23 22  1  0  0  0  0
 23 24  1  1  0  0  0
 25 23  1  0  0  0  0
 26 25  1  0  0  0  0
 27 26  1  0  0  0  0
 28 30  1  0  0  0  0
 28 27  1  0  0  0  0
 29 30  1  0  0  0  0
M  END
>  <MODEL>
9

>  <REMARK>
 VINA RESULT:      -6.7      2.406      6.224
  Name = 
  8 active torsions:
  status: ('A' for Active; 'I' for Inactive)
    1  A    between atoms: C_1  and  O_22
    2  A    between atoms: C_2  and  C_14
    3  A    between atoms: C_2  and  O_22
    4  A    between atoms: C_11  and  C_25
    5  A    between atoms: C_14  and  C_20
    6  A    between atoms: C_19  and  C_29
    7  A    between atoms: C_20  and  N_28
    8  A    between atoms: N_28  and  C_29
                            x       y       z     vdW  Elec       q    Type
                         _______ _______ _______ _____ _____    ______ ____

>  <TORSDO>
F 8

$$$$
