=
 OpenBabel10272413123D

 32 37  0  0  1  0  0  0  0  0999 V2000
  189.5730  177.1250  142.7580 C   0  0  1  0  0  3  0  0  0  0  0  0
  187.7200  177.7250  144.4870 C   0  0  0  0  0  0  0  0  0  0  0  0
  191.0540  177.5060  142.6100 C   0  0  0  0  0  2  0  0  0  0  0  0
  189.0920  177.1340  144.2440 C   0  0  2  0  0  3  0  0  0  0  0  0
  187.3120  177.9570  145.8050 C   0  0  0  0  0  0  0  0  0  0  0  0
  183.2000  178.7090  142.9840 C   0  0  0  0  0  3  0  0  0  0  0  0
  186.8080  177.9340  143.4370 C   0  0  0  0  0  0  0  0  0  0  0  0
  183.7610  179.0740  145.4040 C   0  0  0  0  0  2  0  0  0  0  0  0
  185.1290  178.5450  145.0760 C   0  0  0  0  0  0  0  0  0  0  0  0
  188.2630  177.8070  146.8620 N   0  0  0  0  0  0  0  0  0  0  0  0
  190.1730  177.5730  145.2680 C   0  0  2  0  0  3  0  0  0  0  0  0
  186.0390  178.3630  146.0680 N   0  0  0  0  0  0  0  0  0  0  0  0
  191.2440  176.5030  145.5150 C   0  0  0  0  0  2  0  0  0  0  0  0
  191.5440  175.6220  144.2990 C   0  0  0  0  0  2  0  0  0  0  0  0
  187.2220  177.6530  142.0250 C   0  0  0  0  0  2  0  0  0  0  0  0
  189.6650  178.1190  146.6110 C   0  0  0  0  0  2  0  0  0  0  0  0
  188.6980  177.9780  141.8260 C   0  0  2  0  0  3  0  0  0  0  0  0
  185.4960  178.3410  143.7330 C   0  0  0  0  0  0  0  0  0  0  0  0
  187.8240  177.6370  148.2360 C   0  0  0  0  0  1  0  0  0  0  0  0
  192.0140  176.4030  143.0690 C   0  0  0  0  0  2  0  0  0  0  0  0
  182.7230  178.5560  144.4040 C   0  0  0  0  0  2  0  0  0  0  0  0
  184.4900  178.5610  142.6730 C   0  0  0  0  0  3  0  0  0  0  0  0
  188.5470  178.0740  138.0230 C   0  0  0  0  0  0  0  0  0  0  0  0
  187.7130  178.4970  137.0430 F   0  0  0  0  0  0  0  0  0  0  0  0
  189.0690  177.7980  140.3800 C   0  0  0  0  0  0  0  0  0  0  0  0
  189.7630  177.4750  137.6830 C   0  0  0  0  0  3  0  0  0  0  0  0
  190.2870  177.1960  140.0280 C   0  0  0  0  0  3  0  0  0  0  0  0
  188.1960  178.2360  139.3690 C   0  0  0  0  0  0  0  0  0  0  0  0
  186.9840  178.8340  139.6980 O   0  0  0  0  0  1  0  0  0  0  0  0
  190.6320  177.0310  138.6840 C   0  0  0  0  0  0  0  0  0  0  0  0
  193.0330  176.9240  139.2320 C   0  0  0  0  0  1  0  0  0  0  0  0
  191.9350  176.4100  138.3190 C   0  0  0  0  0  2  0  0  0  0  0  0
  1  3  1  1  0  0  0
  1  4  1  0  0  0  0
  2  5  1  0  0  0  0
  3 20  1  0  0  0  0
  4  2  1  6  0  0  0
  4 11  1  0  0  0  0
  5 12  2  0  0  0  0
  5 10  1  0  0  0  0
  6 21  1  0  0  0  0
  7 18  1  0  0  0  0
  7  2  2  0  0  0  0
  9  8  1  0  0  0  0
  9 12  1  0  0  0  0
 10 19  1  0  0  0  0
 11 13  1  1  0  0  0
 11 16  1  0  0  0  0
 14 13  1  0  0  0  0
 15  7  1  0  0  0  0
 16 10  1  0  0  0  0
 17 25  1  6  0  0  0
 17 15  1  0  0  0  0
 17  1  1  0  0  0  0
 18  9  2  0  0  0  0
 20 14  1  0  0  0  0
 21  8  1  0  0  0  0
 22  6  2  0  0  0  0
 22 18  1  0  0  0  0
 23 28  1  0  0  0  0
 24 23  1  0  0  0  0
 26 23  2  0  0  0  0
 26 30  1  0  0  0  0
 27 25  1  0  0  0  0
 28 29  1  0  0  0  0
 28 25  2  0  0  0  0
 30 27  2  0  0  0  0
 32 30  1  0  0  0  0
 32 31  1  0  0  0  0
M  END
>  <MODEL>
1

>  <REMARK>
 VINA RESULT:     -11.5      0.000      0.000
  Name = 
  2 active torsions:
  status: ('A' for Active; 'I' for Inactive)
    1  A    between atoms: C_15  and  C_26
    2  A    between atoms: C_16  and  C_27
                            x       y       z     vdW  Elec       q    Type
                         _______ _______ _______ _____ _____    ______ ____

>  <TORSDO>
F 2

$$$$
=
 OpenBabel10272413123D

 32 37  0  0  1  0  0  0  0  0999 V2000
  189.0110  177.8870  142.9150 C   0  0  1  0  0  3  0  0  0  0  0  0
  187.9160  178.0500  140.5570 C   0  0  0  0  0  0  0  0  0  0  0  0
  189.9620  176.8800  143.5800 C   0  0  0  0  0  2  0  0  0  0  0  0
  189.1920  177.9590  141.3660 C   0  0  2  0  0  3  0  0  0  0  0  0
  187.9900  177.9080  139.1680 C   0  0  0  0  0  0  0  0  0  0  0  0
  183.2690  179.4140  140.1060 C   0  0  0  0  0  3  0  0  0  0  0  0
  186.6870  178.3870  141.1510 C   0  0  0  0  0  0  0  0  0  0  0  0
  184.4820  178.6020  138.0620 C   0  0  0  0  0  2  0  0  0  0  0  0
  185.6930  178.4680  138.9410 C   0  0  0  0  0  0  0  0  0  0  0  0
  189.2260  177.5000  138.5770 N   0  0  0  0  0  0  0  0  0  0  0  0
  190.2490  176.9750  140.7950 C   0  0  2  0  0  3  0  0  0  0  0  0
  186.8860  178.1130  138.3980 N   0  0  0  0  0  0  0  0  0  0  0  0
  191.6930  177.4000  141.0880 C   0  0  0  0  0  2  0  0  0  0  0  0
  191.8720  178.1540  142.4080 C   0  0  0  0  0  2  0  0  0  0  0  0
  186.6050  178.5780  142.6340 C   0  0  0  0  0  2  0  0  0  0  0  0
  190.1080  176.6000  139.3120 C   0  0  0  0  0  2  0  0  0  0  0  0
  187.5590  177.6280  143.3500 C   0  0  2  0  0  3  0  0  0  0  0  0
  185.5640  178.6060  140.3350 C   0  0  0  0  0  0  0  0  0  0  0  0
  189.4820  177.7210  137.1640 C   0  0  0  0  0  1  0  0  0  0  0  0
  191.4150  177.3650  143.6380 C   0  0  0  0  0  2  0  0  0  0  0  0
  183.5050  179.6340  138.6350 C   0  0  0  0  0  2  0  0  0  0  0  0
  184.2510  178.9780  140.9000 C   0  0  0  0  0  3  0  0  0  0  0  0
  185.9410  178.0840  146.7660 C   0  0  0  0  0  0  0  0  0  0  0  0
  184.7120  178.2940  147.2950 F   0  0  0  0  0  0  0  0  0  0  0  0
  187.3820  177.7530  144.8380 C   0  0  0  0  0  0  0  0  0  0  0  0
  187.0470  177.9750  147.6130 C   0  0  0  0  0  3  0  0  0  0  0  0
  188.4870  177.6460  145.6960 C   0  0  0  0  0  3  0  0  0  0  0  0
  186.1040  177.9750  145.3790 C   0  0  0  0  0  0  0  0  0  0  0  0
  184.9970  178.0840  144.5440 O   0  0  0  0  0  1  0  0  0  0  0  0
  188.3210  177.7610  147.0790 C   0  0  0  0  0  0  0  0  0  0  0  0
  190.5970  176.8390  147.2990 C   0  0  0  0  0  1  0  0  0  0  0  0
  189.4960  177.6260  147.9840 C   0  0  0  0  0  2  0  0  0  0  0  0
  1 17  1  0  0  0  0
  1  3  1  6  0  0  0
  2  7  1  0  0  0  0
  3 20  1  0  0  0  0
  4  2  1  6  0  0  0
  4  1  1  0  0  0  0
  5  2  2  0  0  0  0
  6 22  2  0  0  0  0
  7 15  1  0  0  0  0
  8 21  1  0  0  0  0
  8  9  1  0  0  0  0
  9 18  1  0  0  0  0
 10  5  1  0  0  0  0
 10 16  1  0  0  0  0
 11 16  1  6  0  0  0
 11 13  1  0  0  0  0
 11  4  1  0  0  0  0
 12  9  2  0  0  0  0
 12  5  1  0  0  0  0
 13 14  1  0  0  0  0
 14 20  1  0  0  0  0
 15 17  1  0  0  0  0
 17 25  1  1  0  0  0
 18 22  1  0  0  0  0
 18  7  2  0  0  0  0
 19 10  1  0  0  0  0
 21  6  1  0  0  0  0
 23 24  1  0  0  0  0
 23 26  1  0  0  0  0
 25 28  1  0  0  0  0
 25 27  2  0  0  0  0
 27 30  1  0  0  0  0
 28 23  2  0  0  0  0
 29 28  1  0  0  0  0
 30 26  2  0  0  0  0
 30 32  1  0  0  0  0
 31 32  1  0  0  0  0
M  END
>  <MODEL>
2

>  <REMARK>
 VINA RESULT:     -10.9      3.335      6.316
  Name = 
  2 active torsions:
  status: ('A' for Active; 'I' for Inactive)
    1  A    between atoms: C_15  and  C_26
    2  A    between atoms: C_16  and  C_27
                            x       y       z     vdW  Elec       q    Type
                         _______ _______ _______ _____ _____    ______ ____

>  <TORSDO>
F 2

$$$$
=
 OpenBabel10272413123D

 32 37  0  0  1  0  0  0  0  0999 V2000
  188.4370  178.2220  143.1590 C   0  0  1  0  0  3  0  0  0  0  0  0
  189.3000  177.8350  140.7310 C   0  0  0  0  0  0  0  0  0  0  0  0
  188.6460  177.4880  144.4920 C   0  0  0  0  0  2  0  0  0  0  0  0
  189.6490  178.0660  142.1860 C   0  0  2  0  0  3  0  0  0  0  0  0
  190.3200  177.4810  139.8430 C   0  0  0  0  0  0  0  0  0  0  0  0
  186.2980  178.4120  136.9480 C   0  0  0  0  0  3  0  0  0  0  0  0
  188.0080  178.0810  140.2330 C   0  0  0  0  0  0  0  0  0  0  0  0
  188.5840  177.4640  136.5270 C   0  0  0  0  0  2  0  0  0  0  0  0
  188.8380  177.6530  137.9950 C   0  0  0  0  0  0  0  0  0  0  0  0
  191.6140  177.1670  140.3640 N   0  0  0  0  0  0  0  0  0  0  0  0
  190.7950  177.1670  142.7240 C   0  0  2  0  0  3  0  0  0  0  0  0
  190.0680  177.3930  138.5080 N   0  0  0  0  0  0  0  0  0  0  0  0
  191.6290  177.8410  143.8200 C   0  0  0  0  0  2  0  0  0  0  0  0
  190.8440  178.8190  144.6980 C   0  0  0  0  0  2  0  0  0  0  0  0
  186.9160  178.4980  141.1700 C   0  0  0  0  0  2  0  0  0  0  0  0
  191.7250  176.5380  141.6750 C   0  0  0  0  0  2  0  0  0  0  0  0
  187.0920  177.8280  142.5280 C   0  0  2  0  0  3  0  0  0  0  0  0
  187.7750  177.9970  138.8500 C   0  0  0  0  0  0  0  0  0  0  0  0
  192.7850  177.1890  139.5040 C   0  0  0  0  0  1  0  0  0  0  0  0
  189.6510  178.1840  145.4170 C   0  0  0  0  0  2  0  0  0  0  0  0
  187.4940  178.4210  136.0340 C   0  0  0  0  0  2  0  0  0  0  0  0
  186.4420  178.2600  138.2670 C   0  0  0  0  0  3  0  0  0  0  0  0
  183.5610  178.6350  143.7010 C   0  0  0  0  0  0  0  0  0  0  0  0
  182.3200  178.7860  143.1800 F   0  0  0  0  0  0  0  0  0  0  0  0
  185.9280  178.1670  143.4180 C   0  0  0  0  0  0  0  0  0  0  0  0
  183.7550  178.7880  145.0770 C   0  0  0  0  0  3  0  0  0  0  0  0
  186.1130  178.3250  144.8010 C   0  0  0  0  0  3  0  0  0  0  0  0
  184.6440  178.3260  142.8690 C   0  0  0  0  0  0  0  0  0  0  0  0
  184.4410  178.1750  141.5010 O   0  0  0  0  0  1  0  0  0  0  0  0
  185.0310  178.6380  145.6270 C   0  0  0  0  0  0  0  0  0  0  0  0
  186.6550  178.4130  147.4680 C   0  0  0  0  0  1  0  0  0  0  0  0
  185.2320  178.7830  147.0960 C   0  0  0  0  0  2  0  0  0  0  0  0
  1  3  1  1  0  0  0
  3 20  1  0  0  0  0
  4  2  1  6  0  0  0
  4 11  1  0  0  0  0
  4  1  1  0  0  0  0
  5 10  1  0  0  0  0
  5  2  2  0  0  0  0
  6 22  2  0  0  0  0
  7  2  1  0  0  0  0
  7 15  1  0  0  0  0
  8  9  1  0  0  0  0
  9 12  2  0  0  0  0
  9 18  1  0  0  0  0
 10 16  1  0  0  0  0
 11 16  1  6  0  0  0
 11 13  1  0  0  0  0
 12  5  1  0  0  0  0
 13 14  1  0  0  0  0
 14 20  1  0  0  0  0
 15 17  1  0  0  0  0
 17  1  1  0  0  0  0
 17 25  1  1  0  0  0
 18  7  2  0  0  0  0
 19 10  1  0  0  0  0
 21  8  1  0  0  0  0
 21  6  1  0  0  0  0
 22 18  1  0  0  0  0
 23 26  1  0  0  0  0
 24 23  1  0  0  0  0
 25 27  2  0  0  0  0
 26 30  2  0  0  0  0
 27 30  1  0  0  0  0
 28 25  1  0  0  0  0
 28 23  2  0  0  0  0
 29 28  1  0  0  0  0
 30 32  1  0  0  0  0
 32 31  1  0  0  0  0
M  END
>  <MODEL>
3

>  <REMARK>
 VINA RESULT:     -10.5      2.774      6.582
  Name = 
  2 active torsions:
  status: ('A' for Active; 'I' for Inactive)
    1  A    between atoms: C_15  and  C_26
    2  A    between atoms: C_16  and  C_27
                            x       y       z     vdW  Elec       q    Type
                         _______ _______ _______ _____ _____    ______ ____

>  <TORSDO>
F 2

$$$$
=
 OpenBabel10272413123D

 32 37  0  0  1  0  0  0  0  0999 V2000
  184.5720  178.8570  141.8620 C   0  0  1  0  0  3  0  0  0  0  0  0
  187.0750  178.1380  141.8580 C   0  0  0  0  0  0  0  0  0  0  0  0
  183.3330  178.3980  142.6470 C   0  0  0  0  0  2  0  0  0  0  0  0
  185.9010  178.6590  142.6580 C   0  0  2  0  0  3  0  0  0  0  0  0
  188.2300  177.7410  142.5400 C   0  0  0  0  0  0  0  0  0  0  0  0
  189.4910  177.7130  137.6570 C   0  0  0  0  0  3  0  0  0  0  0  0
  187.0770  178.1540  140.4520 C   0  0  0  0  0  0  0  0  0  0  0  0
  190.6180  176.9520  139.7680 C   0  0  0  0  0  2  0  0  0  0  0  0
  189.3890  177.4250  140.4910 C   0  0  0  0  0  0  0  0  0  0  0  0
  188.1990  177.6630  143.9670 N   0  0  0  0  0  0  0  0  0  0  0  0
  185.7240  177.9970  144.0510 C   0  0  2  0  0  3  0  0  0  0  0  0
  189.3490  177.3920  141.8490 N   0  0  0  0  0  0  0  0  0  0  0  0
  185.1170  178.9390  145.0970 C   0  0  0  0  0  2  0  0  0  0  0  0
  184.1390  179.9690  144.5250 C   0  0  0  0  0  2  0  0  0  0  0  0
  185.8590  178.6130  139.7100 C   0  0  0  0  0  2  0  0  0  0  0  0
  186.9570  177.2930  144.6370 C   0  0  0  0  0  2  0  0  0  0  0  0
  184.5940  178.2180  140.4640 C   0  0  2  0  0  3  0  0  0  0  0  0
  188.2480  177.8010  139.7600 C   0  0  0  0  0  0  0  0  0  0  0  0
  189.4310  177.6560  144.7370 C   0  0  0  0  0  1  0  0  0  0  0  0
  182.9500  179.3490  143.7870 C   0  0  0  0  0  2  0  0  0  0  0  0
  190.7810  177.6860  138.4330 C   0  0  0  0  0  2  0  0  0  0  0  0
  188.3150  177.8140  138.2840 C   0  0  0  0  0  3  0  0  0  0  0  0
  181.3670  177.9300  138.4650 C   0  0  0  0  0  0  0  0  0  0  0  0
  180.5080  176.9720  138.0420 F   0  0  0  0  0  0  0  0  0  0  0  0
  183.3820  178.5850  139.6530 C   0  0  0  0  0  0  0  0  0  0  0  0
  181.1150  179.2690  138.1510 C   0  0  0  0  0  3  0  0  0  0  0  0
  183.1220  179.9270  139.3320 C   0  0  0  0  0  3  0  0  0  0  0  0
  182.4990  177.5850  139.2140 C   0  0  0  0  0  0  0  0  0  0  0  0
  182.7400  176.2500  139.5220 O   0  0  0  0  0  1  0  0  0  0  0  0
  181.9950  180.2670  138.5800 C   0  0  0  0  0  0  0  0  0  0  0  0
  180.6750  181.7910  137.1610 C   0  0  0  0  0  1  0  0  0  0  0  0
  181.7150  181.6950  138.2610 C   0  0  0  0  0  2  0  0  0  0  0  0
  1  3  1  1  0  0  0
  1  4  1  0  0  0  0
  2  5  1  0  0  0  0
  3 20  1  0  0  0  0
  4  2  1  6  0  0  0
  4 11  1  0  0  0  0
  5 10  1  0  0  0  0
  6 22  2  0  0  0  0
  6 21  1  0  0  0  0
  7  2  2  0  0  0  0
  8  9  1  0  0  0  0
  9 12  1  0  0  0  0
 10 16  1  0  0  0  0
 10 19  1  0  0  0  0
 11 16  1  1  0  0  0
 11 13  1  0  0  0  0
 12  5  2  0  0  0  0
 14 13  1  0  0  0  0
 15  7  1  0  0  0  0
 15 17  1  0  0  0  0
 17 25  1  6  0  0  0
 17  1  1  0  0  0  0
 18  7  1  0  0  0  0
 18  9  2  0  0  0  0
 20 14  1  0  0  0  0
 21  8  1  0  0  0  0
 22 18  1  0  0  0  0
 23 28  1  0  0  0  0
 24 23  1  0  0  0  0
 26 23  2  0  0  0  0
 26 30  1  0  0  0  0
 27 25  1  0  0  0  0
 28 29  1  0  0  0  0
 28 25  2  0  0  0  0
 30 27  2  0  0  0  0
 31 32  1  0  0  0  0
 32 30  1  0  0  0  0
M  END
>  <MODEL>
4

>  <REMARK>
 VINA RESULT:     -10.0      3.249      6.938
  Name = 
  2 active torsions:
  status: ('A' for Active; 'I' for Inactive)
    1  A    between atoms: C_15  and  C_26
    2  A    between atoms: C_16  and  C_27
                            x       y       z     vdW  Elec       q    Type
                         _______ _______ _______ _____ _____    ______ ____

>  <TORSDO>
F 2

$$$$
=
 OpenBabel10272413123D

 32 37  0  0  1  0  0  0  0  0999 V2000
  186.3910  178.3420  144.8010 C   0  0  1  0  0  3  0  0  0  0  0  0
  188.8570  177.6440  144.3360 C   0  0  0  0  0  0  0  0  0  0  0  0
  185.2920  177.8110  145.7340 C   0  0  0  0  0  2  0  0  0  0  0  0
  187.8300  178.0880  145.3540 C   0  0  2  0  0  3  0  0  0  0  0  0
  190.1030  177.2000  144.7880 C   0  0  0  0  0  0  0  0  0  0  0  0
  190.5650  177.5860  139.7810 C   0  0  0  0  0  3  0  0  0  0  0  0
  188.6340  177.7760  142.9540 C   0  0  0  0  0  0  0  0  0  0  0  0
  192.0110  176.6600  141.6130 C   0  0  0  0  0  2  0  0  0  0  0  0
  190.9170  177.0630  142.5610 C   0  0  0  0  0  0  0  0  0  0  0  0
  190.3020  177.0030  146.1910 N   0  0  0  0  0  0  0  0  0  0  0  0
  187.8750  177.3110  146.6980 C   0  0  2  0  0  3  0  0  0  0  0  0
  191.0950  176.9170  143.9000 N   0  0  0  0  0  0  0  0  0  0  0  0
  187.4500  178.1590  147.9020 C   0  0  0  0  0  2  0  0  0  0  0  0
  186.3990  179.2260  147.5820 C   0  0  0  0  0  2  0  0  0  0  0  0
  187.3150  178.2860  142.4580 C   0  0  0  0  0  2  0  0  0  0  0  0
  189.1820  176.5700  147.0180 C   0  0  0  0  0  2  0  0  0  0  0  0
  186.1850  177.8210  143.3690 C   0  0  2  0  0  3  0  0  0  0  0  0
  189.6760  177.4900  142.0560 C   0  0  0  0  0  0  0  0  0  0  0  0
  191.6420  176.9410  146.7490 C   0  0  0  0  0  1  0  0  0  0  0  0
  185.1030  178.6610  146.9950 C   0  0  0  0  0  2  0  0  0  0  0  0
  191.9620  177.5030  140.3350 C   0  0  0  0  0  2  0  0  0  0  0  0
  189.5060  177.6260  140.5940 C   0  0  0  0  0  3  0  0  0  0  0  0
  183.5040  178.8960  140.8900 C   0  0  0  0  0  0  0  0  0  0  0  0
  183.3780  179.1470  139.5640 F   0  0  0  0  0  0  0  0  0  0  0  0
  184.8610  178.2450  142.7970 C   0  0  0  0  0  0  0  0  0  0  0  0
  182.3910  179.0260  141.7250 C   0  0  0  0  0  3  0  0  0  0  0  0
  183.7380  178.3800  143.6280 C   0  0  0  0  0  3  0  0  0  0  0  0
  184.7400  178.5070  141.4220 C   0  0  0  0  0  0  0  0  0  0  0  0
  185.8420  178.3800  140.5820 O   0  0  0  0  0  1  0  0  0  0  0  0
  182.5080  178.7730  143.0950 C   0  0  0  0  0  0  0  0  0  0  0  0
  180.0820  178.3700  143.2700 C   0  0  0  0  0  1  0  0  0  0  0  0
  181.3160  178.8940  143.9800 C   0  0  0  0  0  2  0  0  0  0  0  0
  1  4  1  0  0  0  0
  1  3  1  1  0  0  0
  2  5  1  0  0  0  0
  3 20  1  0  0  0  0
  4  2  1  6  0  0  0
  4 11  1  0  0  0  0
  5 10  1  0  0  0  0
  6 21  1  0  0  0  0
  6 22  2  0  0  0  0
  7  2  2  0  0  0  0
  8  9  1  0  0  0  0
  9 12  1  0  0  0  0
 10 19  1  0  0  0  0
 10 16  1  0  0  0  0
 11 16  1  1  0  0  0
 11 13  1  0  0  0  0
 12  5  2  0  0  0  0
 14 13  1  0  0  0  0
 15  7  1  0  0  0  0
 15 17  1  0  0  0  0
 17 25  1  6  0  0  0
 17  1  1  0  0  0  0
 18  9  2  0  0  0  0
 18  7  1  0  0  0  0
 20 14  1  0  0  0  0
 21  8  1  0  0  0  0
 22 18  1  0  0  0  0
 23 28  2  0  0  0  0
 23 26  1  0  0  0  0
 24 23  1  0  0  0  0
 25 27  2  0  0  0  0
 26 30  2  0  0  0  0
 28 25  1  0  0  0  0
 29 28  1  0  0  0  0
 30 27  1  0  0  0  0
 30 32  1  0  0  0  0
 31 32  1  0  0  0  0
M  END
>  <MODEL>
5

>  <REMARK>
 VINA RESULT:     -10.0      1.805      6.377
  Name = 
  2 active torsions:
  status: ('A' for Active; 'I' for Inactive)
    1  A    between atoms: C_15  and  C_26
    2  A    between atoms: C_16  and  C_27
                            x       y       z     vdW  Elec       q    Type
                         _______ _______ _______ _____ _____    ______ ____

>  <TORSDO>
F 2

$$$$
=
 OpenBabel10272413123D

 32 37  0  0  1  0  0  0  0  0999 V2000
  187.2880  177.7860  144.0640 C   0  0  1  0  0  3  0  0  0  0  0  0
  187.3090  177.9590  141.4660 C   0  0  0  0  0  0  0  0  0  0  0  0
  186.8130  178.7180  145.1890 C   0  0  0  0  0  2  0  0  0  0  0  0
  186.4880  177.9840  142.7370 C   0  0  2  0  0  3  0  0  0  0  0  0
  186.6980  178.3340  140.2650 C   0  0  0  0  0  0  0  0  0  0  0  0
  191.1790  176.4350  138.9440 C   0  0  0  0  0  3  0  0  0  0  0  0
  188.6230  177.4610  141.4430 C   0  0  0  0  0  0  0  0  0  0  0  0
  189.3510  177.6420  137.7170 C   0  0  0  0  0  2  0  0  0  0  0  0
  188.6240  177.6950  139.0300 C   0  0  0  0  0  0  0  0  0  0  0  0
  185.3870  178.9030  140.3020 N   0  0  0  0  0  0  0  0  0  0  0  0
  185.4170  179.1060  142.7920 C   0  0  2  0  0  3  0  0  0  0  0  0
  187.3640  178.2000  139.0850 N   0  0  0  0  0  0  0  0  0  0  0  0
  184.1750  178.7190  143.6030 C   0  0  0  0  0  2  0  0  0  0  0  0
  184.4560  177.7660  144.7680 C   0  0  0  0  0  2  0  0  0  0  0  0
  189.2740  177.0200  142.7190 C   0  0  0  0  0  2  0  0  0  0  0  0
  184.9910  179.7150  141.4470 C   0  0  0  0  0  2  0  0  0  0  0  0
  188.8110  177.8880  143.8830 C   0  0  2  0  0  3  0  0  0  0  0  0
  189.2860  177.3190  140.2120 C   0  0  0  0  0  0  0  0  0  0  0  0
  184.5580  178.9350  139.1090 C   0  0  0  0  0  1  0  0  0  0  0  0
  185.4610  178.3110  145.7860 C   0  0  0  0  0  2  0  0  0  0  0  0
  190.3460  176.4770  137.6910 C   0  0  0  0  0  2  0  0  0  0  0  0
  190.6620  176.7860  140.1250 C   0  0  0  0  0  3  0  0  0  0  0  0
  191.4350  176.4030  146.2070 C   0  0  0  0  0  0  0  0  0  0  0  0
  192.5770  175.6780  146.1290 F   0  0  0  0  0  0  0  0  0  0  0  0
  189.5570  177.5070  145.1310 C   0  0  0  0  0  0  0  0  0  0  0  0
  190.9570  176.8050  147.4570 C   0  0  0  0  0  3  0  0  0  0  0  0
  189.0840  177.9050  146.3920 C   0  0  0  0  0  3  0  0  0  0  0  0
  190.7380  176.7510  145.0430 C   0  0  0  0  0  0  0  0  0  0  0  0
  191.2230  176.3470  143.8030 O   0  0  0  0  0  1  0  0  0  0  0  0
  189.7790  177.5520  147.5510 C   0  0  0  0  0  0  0  0  0  0  0  0
  187.7670  178.0910  148.8700 C   0  0  0  0  0  1  0  0  0  0  0  0
  189.2810  177.9950  148.8830 C   0  0  0  0  0  2  0  0  0  0  0  0
  1  3  1  1  0  0  0
  3 20  1  0  0  0  0
  4  2  1  6  0  0  0
  4 11  1  0  0  0  0
  4  1  1  0  0  0  0
  5 10  1  0  0  0  0
  5  2  2  0  0  0  0
  6 22  2  0  0  0  0
  7  2  1  0  0  0  0
  7 15  1  0  0  0  0
  8  9  1  0  0  0  0
  9 12  2  0  0  0  0
  9 18  1  0  0  0  0
 10 16  1  0  0  0  0
 11 16  1  6  0  0  0
 11 13  1  0  0  0  0
 12  5  1  0  0  0  0
 13 14  1  0  0  0  0
 14 20  1  0  0  0  0
 15 17  1  0  0  0  0
 17  1  1  0  0  0  0
 17 25  1  1  0  0  0
 18  7  2  0  0  0  0
 19 10  1  0  0  0  0
 21  8  1  0  0  0  0
 21  6  1  0  0  0  0
 22 18  1  0  0  0  0
 23 26  1  0  0  0  0
 24 23  1  0  0  0  0
 25 27  2  0  0  0  0
 26 30  2  0  0  0  0
 27 30  1  0  0  0  0
 28 25  1  0  0  0  0
 28 23  2  0  0  0  0
 29 28  1  0  0  0  0
 30 32  1  0  0  0  0
 31 32  1  0  0  0  0
M  END
>  <MODEL>
6

>  <REMARK>
 VINA RESULT:      -9.7      2.960      7.329
  Name = 
  2 active torsions:
  status: ('A' for Active; 'I' for Inactive)
    1  A    between atoms: C_15  and  C_26
    2  A    between atoms: C_16  and  C_27
                            x       y       z     vdW  Elec       q    Type
                         _______ _______ _______ _____ _____    ______ ____

>  <TORSDO>
F 2

$$$$
=
 OpenBabel10272413123D

 32 37  0  0  1  0  0  0  0  0999 V2000
  184.9760  178.6980  143.0300 C   0  0  1  0  0  3  0  0  0  0  0  0
  187.3110  178.1030  142.0420 C   0  0  0  0  0  0  0  0  0  0  0  0
  184.0900  178.0730  144.1180 C   0  0  0  0  0  2  0  0  0  0  0  0
  186.4980  178.4470  143.2710 C   0  0  2  0  0  3  0  0  0  0  0  0
  188.6290  177.6640  142.2090 C   0  0  0  0  0  0  0  0  0  0  0  0
  188.0890  178.4060  137.2500 C   0  0  0  0  0  3  0  0  0  0  0  0
  186.8180  178.3230  140.7440 C   0  0  0  0  0  0  0  0  0  0  0  0
  189.8810  177.3970  138.6910 C   0  0  0  0  0  2  0  0  0  0  0  0
  188.9900  177.7030  139.8610 C   0  0  0  0  0  0  0  0  0  0  0  0
  189.1020  177.3770  143.5270 N   0  0  0  0  0  0  0  0  0  0  0  0
  186.8180  177.5810  144.5200 C   0  0  2  0  0  3  0  0  0  0  0  0
  189.4300  177.4710  141.1250 N   0  0  0  0  0  0  0  0  0  0  0  0
  186.6270  178.3320  145.8430 C   0  0  0  0  0  2  0  0  0  0  0  0
  185.5190  179.3880  145.8130 C   0  0  0  0  0  2  0  0  0  0  0  0
  185.4210  178.8290  140.5540 C   0  0  0  0  0  2  0  0  0  0  0  0
  188.1730  176.8570  144.5240 C   0  0  0  0  0  2  0  0  0  0  0  0
  184.4990  178.2700  141.6320 C   0  0  2  0  0  3  0  0  0  0  0  0
  187.6680  178.1290  139.6410 C   0  0  0  0  0  0  0  0  0  0  0  0
  190.5260  177.3150  143.8070 C   0  0  0  0  0  1  0  0  0  0  0  0
  184.1400  178.8290  145.4510 C   0  0  0  0  0  2  0  0  0  0  0  0
  189.5690  178.3240  137.5120 C   0  0  0  0  0  2  0  0  0  0  0  0
  187.2100  178.3600  138.2550 C   0  0  0  0  0  3  0  0  0  0  0  0
  181.2930  179.1780  139.7910 C   0  0  0  0  0  0  0  0  0  0  0  0
  180.8330  179.2650  138.5200 F   0  0  0  0  0  0  0  0  0  0  0  0
  183.0820  178.6960  141.3620 C   0  0  0  0  0  0  0  0  0  0  0  0
  180.4380  179.4780  140.8560 C   0  0  0  0  0  3  0  0  0  0  0  0
  182.2170  179.0000  142.4240 C   0  0  0  0  0  3  0  0  0  0  0  0
  182.6150  178.7880  140.0400 C   0  0  0  0  0  0  0  0  0  0  0  0
  183.4580  178.4910  138.9740 O   0  0  0  0  0  1  0  0  0  0  0  0
  180.9000  179.3940  142.1720 C   0  0  0  0  0  0  0  0  0  0  0  0
  179.9830  178.5480  144.2980 C   0  0  0  0  0  1  0  0  0  0  0  0
  179.9820  179.6950  143.3060 C   0  0  0  0  0  2  0  0  0  0  0  0
  1  4  1  0  0  0  0
  1  3  1  1  0  0  0
  2  5  1  0  0  0  0
  3 20  1  0  0  0  0
  4  2  1  6  0  0  0
  4 11  1  0  0  0  0
  5 10  1  0  0  0  0
  6 21  1  0  0  0  0
  6 22  2  0  0  0  0
  7  2  2  0  0  0  0
  8  9  1  0  0  0  0
  9 12  1  0  0  0  0
 10 19  1  0  0  0  0
 10 16  1  0  0  0  0
 11 16  1  6  0  0  0
 11 13  1  0  0  0  0
 12  5  2  0  0  0  0
 14 13  1  0  0  0  0
 15  7  1  0  0  0  0
 15 17  1  0  0  0  0
 17 25  1  6  0  0  0
 17  1  1  0  0  0  0
 18  9  2  0  0  0  0
 18  7  1  0  0  0  0
 20 14  1  0  0  0  0
 21  8  1  0  0  0  0
 22 18  1  0  0  0  0
 23 28  2  0  0  0  0
 23 26  1  0  0  0  0
 24 23  1  0  0  0  0
 25 27  2  0  0  0  0
 26 30  2  0  0  0  0
 28 25  1  0  0  0  0
 29 28  1  0  0  0  0
 30 27  1  0  0  0  0
 30 32  1  0  0  0  0
 32 31  1  0  0  0  0
M  END
>  <MODEL>
7

>  <REMARK>
 VINA RESULT:      -9.6      2.477      6.996
  Name = 
  2 active torsions:
  status: ('A' for Active; 'I' for Inactive)
    1  A    between atoms: C_15  and  C_26
    2  A    between atoms: C_16  and  C_27
                            x       y       z     vdW  Elec       q    Type
                         _______ _______ _______ _____ _____    ______ ____

>  <TORSDO>
F 2

$$$$
=
 OpenBabel10272413123D

 32 37  0  0  1  0  0  0  0  0999 V2000
  189.5720  177.2280  143.0570 C   0  0  1  0  0  3  0  0  0  0  0  0
  187.5900  177.8440  144.6300 C   0  0  0  0  0  0  0  0  0  0  0  0
  191.0550  177.6250  143.0080 C   0  0  0  0  0  2  0  0  0  0  0  0
  188.9830  177.2660  144.5030 C   0  0  2  0  0  3  0  0  0  0  0  0
  187.0830  178.1020  145.9080 C   0  0  0  0  0  0  0  0  0  0  0  0
  183.1810  178.7330  142.7770 C   0  0  0  0  0  3  0  0  0  0  0  0
  186.7550  178.0160  143.5120 C   0  0  0  0  0  0  0  0  0  0  0  0
  183.5600  179.1620  145.2220 C   0  0  0  0  0  2  0  0  0  0  0  0
  184.9530  178.6440  145.0080 C   0  0  0  0  0  0  0  0  0  0  0  0
  187.9560  177.9900  147.0350 N   0  0  0  0  0  0  0  0  0  0  0  0
  189.9810  177.7440  145.5920 C   0  0  2  0  0  3  0  0  0  0  0  0
  185.7910  178.4970  146.0680 N   0  0  0  0  0  0  0  0  0  0  0  0
  191.0430  176.6940  145.9420 C   0  0  0  0  0  2  0  0  0  0  0  0
  191.4420  175.7880  144.7740 C   0  0  0  0  0  2  0  0  0  0  0  0
  187.2750  177.7070  142.1410 C   0  0  0  0  0  2  0  0  0  0  0  0
  189.3700  178.3150  146.8810 C   0  0  0  0  0  2  0  0  0  0  0  0
  188.7580  178.0470  142.0420 C   0  0  2  0  0  3  0  0  0  0  0  0
  185.4210  178.4130  143.7010 C   0  0  0  0  0  0  0  0  0  0  0  0
  187.4200  177.8470  148.3780 C   0  0  0  0  0  1  0  0  0  0  0  0
  191.9920  176.5460  143.5630 C   0  0  0  0  0  2  0  0  0  0  0  0
  182.6030  178.6070  144.1620 C   0  0  0  0  0  2  0  0  0  0  0  0
  184.4930  178.5950  142.5660 C   0  0  0  0  0  3  0  0  0  0  0  0
  190.4510  176.5160  138.9950 C   0  0  0  0  0  0  0  0  0  0  0  0
  191.1970  175.4310  138.6780 F   0  0  0  0  0  0  0  0  0  0  0  0
  189.2350  177.8380  140.6320 C   0  0  0  0  0  0  0  0  0  0  0  0
  190.1180  177.4390  138.0010 C   0  0  0  0  0  3  0  0  0  0  0  0
  188.9080  178.7600  139.6260 C   0  0  0  0  0  3  0  0  0  0  0  0
  190.0130  176.7120  140.3110 C   0  0  0  0  0  0  0  0  0  0  0  0
  190.3490  175.7870  141.2940 O   0  0  0  0  0  1  0  0  0  0  0  0
  189.3500  178.5640  138.3160 C   0  0  0  0  0  0  0  0  0  0  0  0
  187.6800  179.1210  136.5910 C   0  0  0  0  0  1  0  0  0  0  0  0
  188.9800  179.5370  137.2500 C   0  0  0  0  0  2  0  0  0  0  0  0
  1  3  1  1  0  0  0
  1  4  1  0  0  0  0
  2  5  1  0  0  0  0
  3 20  1  0  0  0  0
  4  2  1  6  0  0  0
  4 11  1  0  0  0  0
  5 12  2  0  0  0  0
  5 10  1  0  0  0  0
  6 21  1  0  0  0  0
  7 18  1  0  0  0  0
  7  2  2  0  0  0  0
  9  8  1  0  0  0  0
  9 12  1  0  0  0  0
 10 19  1  0  0  0  0
 11 13  1  1  0  0  0
 11 16  1  0  0  0  0
 14 13  1  0  0  0  0
 15  7  1  0  0  0  0
 16 10  1  0  0  0  0
 17 25  1  6  0  0  0
 17 15  1  0  0  0  0
 17  1  1  0  0  0  0
 18  9  2  0  0  0  0
 20 14  1  0  0  0  0
 21  8  1  0  0  0  0
 22  6  2  0  0  0  0
 22 18  1  0  0  0  0
 23 28  1  0  0  0  0
 24 23  1  0  0  0  0
 26 30  1  0  0  0  0
 26 23  2  0  0  0  0
 27 25  1  0  0  0  0
 28 25  2  0  0  0  0
 28 29  1  0  0  0  0
 30 27  2  0  0  0  0
 31 32  1  0  0  0  0
 32 30  1  0  0  0  0
M  END
>  <MODEL>
8

>  <REMARK>
 VINA RESULT:      -9.5      1.396      2.034
  Name = 
  2 active torsions:
  status: ('A' for Active; 'I' for Inactive)
    1  A    between atoms: C_15  and  C_26
    2  A    between atoms: C_16  and  C_27
                            x       y       z     vdW  Elec       q    Type
                         _______ _______ _______ _____ _____    ______ ____

>  <TORSDO>
F 2

$$$$
=
 OpenBabel10272413123D

 32 37  0  0  1  0  0  0  0  0999 V2000
  184.6690  178.7230  142.0820 C   0  0  1  0  0  3  0  0  0  0  0  0
  187.1870  178.0730  141.9410 C   0  0  0  0  0  0  0  0  0  0  0  0
  183.4970  178.2580  142.9600 C   0  0  0  0  0  2  0  0  0  0  0  0
  186.0510  178.5890  142.7970 C   0  0  2  0  0  3  0  0  0  0  0  0
  188.3940  177.7320  142.5610 C   0  0  0  0  0  0  0  0  0  0  0  0
  189.3440  177.5670  137.6110 C   0  0  0  0  0  3  0  0  0  0  0  0
  187.1000  178.0390  140.5390 C   0  0  0  0  0  0  0  0  0  0  0  0
  190.6250  176.9110  139.6700 C   0  0  0  0  0  2  0  0  0  0  0  0
  189.4310  177.3760  140.4540 C   0  0  0  0  0  0  0  0  0  0  0  0
  188.4560  177.7030  143.9890 N   0  0  0  0  0  0  0  0  0  0  0  0
  185.9820  177.9720  144.2200 C   0  0  2  0  0  3  0  0  0  0  0  0
  189.4770  177.3890  141.8120 N   0  0  0  0  0  0  0  0  0  0  0  0
  185.4150  178.9330  145.2710 C   0  0  0  0  0  2  0  0  0  0  0  0
  184.3730  179.9150  144.7290 C   0  0  0  0  0  2  0  0  0  0  0  0
  185.8240  178.4380  139.8620 C   0  0  0  0  0  2  0  0  0  0  0  0
  187.2700  177.3230  144.7490 C   0  0  0  0  0  2  0  0  0  0  0  0
  184.6220  178.0350  140.7080 C   0  0  2  0  0  3  0  0  0  0  0  0
  188.2350  177.6950  139.7850 C   0  0  0  0  0  0  0  0  0  0  0  0
  189.7340  177.7570  144.6780 C   0  0  0  0  0  1  0  0  0  0  0  0
  183.1580  179.2370  144.0890 C   0  0  0  0  0  2  0  0  0  0  0  0
  190.6810  177.6020  138.3030 C   0  0  0  0  0  2  0  0  0  0  0  0
  188.2080  177.6570  138.3080 C   0  0  0  0  0  3  0  0  0  0  0  0
  182.0440  179.8200  138.5490 C   0  0  0  0  0  0  0  0  0  0  0  0
  181.9180  180.9740  137.8510 F   0  0  0  0  0  0  0  0  0  0  0  0
  183.3510  178.3400  139.9650 C   0  0  0  0  0  0  0  0  0  0  0  0
  180.9870  178.9060  138.5680 C   0  0  0  0  0  3  0  0  0  0  0  0
  182.2830  177.4300  139.9790 C   0  0  0  0  0  3  0  0  0  0  0  0
  183.2260  179.5410  139.2460 C   0  0  0  0  0  0  0  0  0  0  0  0
  184.2740  180.4570  139.2200 O   0  0  0  0  0  1  0  0  0  0  0  0
  181.1030  177.7130  139.2870 C   0  0  0  0  0  0  0  0  0  0  0  0
  180.5070  175.3400  139.5830 C   0  0  0  0  0  1  0  0  0  0  0  0
  179.9820  176.7320  139.2910 C   0  0  0  0  0  2  0  0  0  0  0  0
  1  4  1  0  0  0  0
  1  3  1  1  0  0  0
  2  5  1  0  0  0  0
  3 20  1  0  0  0  0
  4  2  1  6  0  0  0
  4 11  1  0  0  0  0
  5 10  1  0  0  0  0
  6 21  1  0  0  0  0
  6 22  2  0  0  0  0
  7  2  2  0  0  0  0
  8  9  1  0  0  0  0
  9 12  1  0  0  0  0
 10 19  1  0  0  0  0
 10 16  1  0  0  0  0
 11 16  1  1  0  0  0
 11 13  1  0  0  0  0
 12  5  2  0  0  0  0
 14 13  1  0  0  0  0
 15  7  1  0  0  0  0
 15 17  1  0  0  0  0
 17 25  1  6  0  0  0
 17  1  1  0  0  0  0
 18  9  2  0  0  0  0
 18  7  1  0  0  0  0
 20 14  1  0  0  0  0
 21  8  1  0  0  0  0
 22 18  1  0  0  0  0
 23 26  2  0  0  0  0
 23 28  1  0  0  0  0
 24 23  1  0  0  0  0
 25 27  1  0  0  0  0
 26 30  1  0  0  0  0
 28 25  2  0  0  0  0
 29 28  1  0  0  0  0
 30 32  1  0  0  0  0
 30 27  2  0  0  0  0
 32 31  1  0  0  0  0
M  END
>  <MODEL>
9

>  <REMARK>
 VINA RESULT:      -9.3      2.883      6.800
  Name = 
  2 active torsions:
  status: ('A' for Active; 'I' for Inactive)
    1  A    between atoms: C_15  and  C_26
    2  A    between atoms: C_16  and  C_27
                            x       y       z     vdW  Elec       q    Type
                         _______ _______ _______ _____ _____    ______ ____

>  <TORSDO>
F 2

$$$$
