=
 OpenBabel10272401463D

 28 31  0  0  1  0  0  0  0  0999 V2000
  188.9660  177.1660  140.5980 C   0  0  2  0  0  3  0  0  0  0  0  0
  187.6330  178.3300  142.0990 C   0  0  2  0  0  3  0  0  0  0  0  0
  187.4940  178.9990  140.7220 C   0  0  2  0  0  3  0  0  0  0  0  0
  186.3150  178.6180  140.0730 O   0  0  0  0  0  1  0  0  0  0  0  0
  188.6690  178.4850  139.9350 C   0  0  0  0  0  2  0  0  0  0  0  0
  188.6720  177.3000  142.0330 N   0  0  0  0  0  0  0  0  0  0  0  0
  185.6160  178.7320  143.3190 O   0  0  0  0  0  1  0  0  0  0  0  0
  186.3380  177.7430  142.6520 C   0  0  0  0  0  2  0  0  0  0  0  0
  190.3620  176.6430  140.2500 C   0  0  0  0  0  2  0  0  0  0  0  0
  190.6820  176.9210  138.8490 N   0  0  0  0  0  0  0  0  0  0  0  0
  192.2850  175.2570  138.2600 C   0  0  2  0  0  3  0  0  0  0  0  0
  190.0390  175.8600  138.0830 C   0  0  0  0  0  2  0  0  0  0  0  0
  193.0650  177.2300  139.6250 C   0  0  0  0  0  1  0  0  0  0  0  0
  192.1020  176.7210  138.5540 C   0  0  2  0  0  3  0  0  0  0  0  0
  193.2530  175.0750  137.1090 C   0  0  0  0  0  1  0  0  0  0  0  0
  190.9750  174.7530  137.8860 N   0  0  0  0  0  2  0  0  0  0  0  0
  189.8320  177.8270  142.7640 C   0  0  0  0  0  2  0  0  0  0  0  0
  189.0960  178.0480  145.9400 C   0  0  1  0  0  3  0  0  0  0  0  0
  191.0210  176.7620  146.2610 C   0  0  0  0  0  0  0  0  0  0  0  0
  190.2810  176.8900  143.8920 C   0  0  2  0  0  3  0  0  0  0  0  0
  189.5090  177.9230  147.4220 C   0  0  2  0  0  3  0  0  0  0  0  0
  190.3910  177.6230  145.2380 C   0  0  1  0  0  3  0  0  0  0  0  0
  192.0060  175.2120  144.6390 C   0  0  0  0  0  2  0  0  0  0  0  0
  190.5650  176.9260  147.4520 N   0  0  0  0  0  0  0  0  0  0  0  0
  191.9790  175.8010  145.9420 O   0  0  0  0  0  0  0  0  0  0  0  0
  188.1960  177.5110  148.5650 Cl  0  0  0  0  0  0  0  0  0  0  0  0
  187.9340  177.1140  145.5940 C   0  0  0  0  0  1  0  0  0  0  0  0
  191.6150  176.2170  143.5510 C   0  0  0  0  0  2  0  0  0  0  0  0
  1  9  1  1  0  0  0
  1  6  1  0  0  0  0
  2  8  1  6  0  0  0
  3  4  1  6  0  0  0
  3  2  1  0  0  0  0
  5  1  1  0  0  0  0
  5  3  1  0  0  0  0
  6  2  1  0  0  0  0
  6 17  1  0  0  0  0
  8  7  1  0  0  0  0
 10  9  1  0  0  0  0
 11 15  1  6  0  0  0
 11 14  1  0  0  0  0
 12 10  1  0  0  0  0
 14 10  1  0  0  0  0
 14 13  1  1  0  0  0
 16 12  1  0  0  0  0
 16 11  1  0  0  0  0
 18 27  1  1  0  0  0
 18 21  1  0  0  0  0
 19 24  2  0  0  0  0
 20 17  1  6  0  0  0
 20 22  1  0  0  0  0
 21 24  1  0  0  0  0
 21 26  1  1  0  0  0
 22 18  1  0  0  0  0
 22 19  1  1  0  0  0
 23 25  1  0  0  0  0
 25 19  1  0  0  0  0
 28 20  1  0  0  0  0
 28 23  1  0  0  0  0
M  END
>  <MODEL>
1

>  <REMARK>
 VINA RESULT:      -7.7      0.000      0.000
  Name = 
  5 active torsions:
  status: ('A' for Active; 'I' for Inactive)
    1  A    between atoms: C_1  and  C_2
    2  A    between atoms: C_2  and  N_3
    3  A    between atoms: C_10  and  C_17
    4  A    between atoms: C_16  and  C_20
    5  A    between atoms: C_17  and  N_27
                            x       y       z     vdW  Elec       q    Type
                         _______ _______ _______ _____ _____    ______ ____

>  <TORSDO>
F 5

$$$$
=
 OpenBabel10272401463D

 28 31  0  0  1  0  0  0  0  0999 V2000
  187.9230  177.7370  144.0900 C   0  0  2  0  0  3  0  0  0  0  0  0
  186.6150  178.1340  142.2140 C   0  0  2  0  0  3  0  0  0  0  0  0
  185.6910  177.6550  143.3450 C   0  0  2  0  0  3  0  0  0  0  0  0
  185.0190  178.7180  143.9560 O   0  0  0  0  0  1  0  0  0  0  0  0
  186.6200  177.0260  144.3480 C   0  0  0  0  0  2  0  0  0  0  0  0
  188.0090  178.0220  142.6490 N   0  0  0  0  0  0  0  0  0  0  0  0
  185.3500  179.5080  140.7210 O   0  0  0  0  0  1  0  0  0  0  0  0
  186.3270  179.5460  141.7150 C   0  0  0  0  0  2  0  0  0  0  0  0
  189.1180  176.9960  144.6940 C   0  0  0  0  0  2  0  0  0  0  0  0
  189.9210  177.9010  145.5190 N   0  0  0  0  0  0  0  0  0  0  0  0
  191.1950  176.4570  146.9250 C   0  0  2  0  0  3  0  0  0  0  0  0
  191.2830  177.7890  145.0120 C   0  0  0  0  0  2  0  0  0  0  0  0
  188.7710  176.8450  147.5040 C   0  0  0  0  0  1  0  0  0  0  0  0
  190.0460  177.4280  146.8990 C   0  0  2  0  0  3  0  0  0  0  0  0
  192.0120  176.6520  148.1850 C   0  0  0  0  0  1  0  0  0  0  0  0
  192.0070  176.7610  145.7600 N   0  0  0  0  0  2  0  0  0  0  0  0
  188.5870  176.8850  141.9180 C   0  0  0  0  0  2  0  0  0  0  0  0
  188.6270  176.9900  138.6520 C   0  0  1  0  0  3  0  0  0  0  0  0
  190.9490  176.8490  138.8860 C   0  0  0  0  0  0  0  0  0  0  0  0
  189.7500  177.3090  141.0140 C   0  0  2  0  0  3  0  0  0  0  0  0
  189.3650  176.7690  137.3150 C   0  0  2  0  0  3  0  0  0  0  0  0
  189.7140  176.5900  139.6570 C   0  0  1  0  0  3  0  0  0  0  0  0
  192.2490  177.5780  140.8300 C   0  0  0  0  0  2  0  0  0  0  0  0
  190.7770  176.9310  137.6140 N   0  0  0  0  0  0  0  0  0  0  0  0
  192.1830  177.0590  139.5000 O   0  0  0  0  0  0  0  0  0  0  0  0
  188.8630  177.8270  135.9630 Cl  0  0  0  0  0  0  0  0  0  0  0  0
  188.2050  178.4500  138.8320 C   0  0  0  0  0  1  0  0  0  0  0  0
  191.0990  177.0640  141.7010 C   0  0  0  0  0  2  0  0  0  0  0  0
  1  5  1  0  0  0  0
  1  9  1  6  0  0  0
  2  8  1  1  0  0  0
  2  6  1  0  0  0  0
  2  3  1  0  0  0  0
  3  4  1  1  0  0  0
  3  5  1  0  0  0  0
  6  1  1  0  0  0  0
  7  8  1  0  0  0  0
  9 10  1  0  0  0  0
 10 14  1  0  0  0  0
 11 15  1  1  0  0  0
 12 10  1  0  0  0  0
 12 16  1  0  0  0  0
 14 11  1  0  0  0  0
 14 13  1  6  0  0  0
 16 11  1  0  0  0  0
 17  6  1  0  0  0  0
 18 27  1  1  0  0  0
 18 22  1  0  0  0  0
 19 25  1  0  0  0  0
 20 28  1  0  0  0  0
 20 17  1  1  0  0  0
 21 26  1  6  0  0  0
 21 24  1  0  0  0  0
 21 18  1  0  0  0  0
 22 19  1  6  0  0  0
 22 20  1  0  0  0  0
 23 28  1  0  0  0  0
 24 19  2  0  0  0  0
 25 23  1  0  0  0  0
M  END
>  <MODEL>
2

>  <REMARK>
 VINA RESULT:      -7.2      3.109      6.702
  Name = 
  5 active torsions:
  status: ('A' for Active; 'I' for Inactive)
    1  A    between atoms: C_1  and  C_2
    2  A    between atoms: C_2  and  N_3
    3  A    between atoms: C_10  and  C_17
    4  A    between atoms: C_16  and  C_20
    5  A    between atoms: C_17  and  N_27
                            x       y       z     vdW  Elec       q    Type
                         _______ _______ _______ _____ _____    ______ ____

>  <TORSDO>
F 5

$$$$
=
 OpenBabel10272401463D

 28 31  0  0  1  0  0  0  0  0999 V2000
  187.6800  178.6090  140.9140 C   0  0  2  0  0  3  0  0  0  0  0  0
  189.4610  177.3670  141.7320 C   0  0  2  0  0  3  0  0  0  0  0  0
  189.2940  177.0330  140.2400 C   0  0  2  0  0  3  0  0  0  0  0  0
  190.2210  177.7140  139.4450 O   0  0  0  0  0  1  0  0  0  0  0  0
  187.9110  177.5200  139.9000 C   0  0  0  0  0  2  0  0  0  0  0  0
  188.3520  178.2200  142.1630 N   0  0  0  0  0  0  0  0  0  0  0  0
  191.7340  177.0220  142.3930 O   0  0  0  0  0  1  0  0  0  0  0  0
  190.7970  178.0100  142.0910 C   0  0  0  0  0  2  0  0  0  0  0  0
  186.2000  178.9790  141.0410 C   0  0  0  0  0  2  0  0  0  0  0  0
  185.4090  178.2930  140.0180 N   0  0  0  0  0  0  0  0  0  0  0  0
  183.3780  179.5380  139.9000 C   0  0  2  0  0  3  0  0  0  0  0  0
  185.4300  179.1700  138.8530 C   0  0  0  0  0  2  0  0  0  0  0  0
  183.6820  177.9390  141.8260 C   0  0  0  0  0  1  0  0  0  0  0  0
  183.9860  178.2410  140.3610 C   0  0  2  0  0  3  0  0  0  0  0  0
  182.0120  179.2850  139.2960 C   0  0  0  0  0  1  0  0  0  0  0  0
  184.2740  180.0660  138.8860 N   0  0  0  0  0  2  0  0  0  0  0  0
  187.4780  177.3830  142.9960 C   0  0  0  0  0  2  0  0  0  0  0  0
  189.2780  176.9670  145.6910 C   0  0  1  0  0  3  0  0  0  0  0  0
  187.3350  177.5930  146.8320 C   0  0  0  0  0  0  0  0  0  0  0  0
  187.2360  177.9940  144.3810 C   0  0  2  0  0  3  0  0  0  0  0  0
  189.3750  176.7730  147.2190 C   0  0  2  0  0  3  0  0  0  0  0  0
  187.7610  177.0910  145.5070 C   0  0  1  0  0  3  0  0  0  0  0  0
  185.5310  178.9930  145.9440 C   0  0  0  0  0  2  0  0  0  0  0  0
  188.1930  177.4110  147.7720 N   0  0  0  0  0  0  0  0  0  0  0  0
  186.1330  178.2710  147.0220 O   0  0  0  0  0  0  0  0  0  0  0  0
  190.8660  177.3910  147.9910 Cl  0  0  0  0  0  0  0  0  0  0  0  0
  190.0060  178.2330  145.2330 C   0  0  0  0  0  1  0  0  0  0  0  0
  185.7490  178.2940  144.5990 C   0  0  0  0  0  2  0  0  0  0  0  0
  1  9  1  1  0  0  0
  1  6  1  0  0  0  0
  2  8  1  6  0  0  0
  2  6  1  0  0  0  0
  3  4  1  6  0  0  0
  3  2  1  0  0  0  0
  5  3  1  0  0  0  0
  5  1  1  0  0  0  0
  6 17  1  0  0  0  0
  8  7  1  0  0  0  0
 10 14  1  0  0  0  0
 10  9  1  0  0  0  0
 11 15  1  6  0  0  0
 11 14  1  0  0  0  0
 12 16  1  0  0  0  0
 12 10  1  0  0  0  0
 14 13  1  1  0  0  0
 16 11  1  0  0  0  0
 18 27  1  1  0  0  0
 18 21  1  0  0  0  0
 19 25  1  0  0  0  0
 19 24  2  0  0  0  0
 20 17  1  6  0  0  0
 20 28  1  0  0  0  0
 20 22  1  0  0  0  0
 21 24  1  0  0  0  0
 21 26  1  1  0  0  0
 22 18  1  0  0  0  0
 22 19  1  1  0  0  0
 23 25  1  0  0  0  0
 28 23  1  0  0  0  0
M  END
>  <MODEL>
3

>  <REMARK>
 VINA RESULT:      -7.2      2.833      5.577
  Name = 
  5 active torsions:
  status: ('A' for Active; 'I' for Inactive)
    1  A    between atoms: C_1  and  C_2
    2  A    between atoms: C_2  and  N_3
    3  A    between atoms: C_10  and  C_17
    4  A    between atoms: C_16  and  C_20
    5  A    between atoms: C_17  and  N_27
                            x       y       z     vdW  Elec       q    Type
                         _______ _______ _______ _____ _____    ______ ____

>  <TORSDO>
F 5

$$$$
=
 OpenBabel10272401463D

 28 31  0  0  1  0  0  0  0  0999 V2000
  189.4750  177.6580  140.5510 C   0  0  2  0  0  3  0  0  0  0  0  0
  190.4880  177.6830  142.6390 C   0  0  2  0  0  3  0  0  0  0  0  0
  191.3780  176.8660  141.6880 C   0  0  2  0  0  3  0  0  0  0  0  0
  192.4680  177.6110  141.2250 O   0  0  0  0  0  1  0  0  0  0  0  0
  190.4830  176.5390  140.5230 C   0  0  0  0  0  2  0  0  0  0  0  0
  189.2380  178.0250  141.9560 N   0  0  0  0  0  0  0  0  0  0  0  0
  191.9800  178.6000  144.2680 O   0  0  0  0  0  1  0  0  0  0  0  0
  191.1460  178.9380  143.2020 C   0  0  0  0  0  2  0  0  0  0  0  0
  188.2250  177.3340  139.7280 C   0  0  0  0  0  2  0  0  0  0  0  0
  187.8260  178.4900  138.9230 N   0  0  0  0  0  0  0  0  0  0  0  0
  187.0820  177.5530  136.8610 C   0  0  2  0  0  3  0  0  0  0  0  0
  186.3690  178.4580  138.8880 C   0  0  0  0  0  2  0  0  0  0  0  0
  189.5670  177.7250  137.2610 C   0  0  0  0  0  1  0  0  0  0  0  0
  188.1900  178.3350  137.5130 C   0  0  2  0  0  3  0  0  0  0  0  0
  186.7930  178.1130  135.4830 C   0  0  0  0  0  1  0  0  0  0  0  0
  185.9170  177.7140  137.7120 N   0  0  0  0  0  2  0  0  0  0  0  0
  188.1900  177.1860  142.5530 C   0  0  0  0  0  2  0  0  0  0  0  0
  188.0120  177.2640  145.8150 C   0  0  1  0  0  3  0  0  0  0  0  0
  185.8180  177.9930  145.4680 C   0  0  0  0  0  0  0  0  0  0  0  0
  187.2160  177.9990  143.4140 C   0  0  2  0  0  3  0  0  0  0  0  0
  187.1740  177.3170  147.1090 C   0  0  2  0  0  3  0  0  0  0  0  0
  186.9110  177.3040  144.7490 C   0  0  1  0  0  3  0  0  0  0  0  0
  184.9860  179.1710  143.4880 C   0  0  0  0  0  2  0  0  0  0  0  0
  185.9380  177.9920  146.7490 N   0  0  0  0  0  0  0  0  0  0  0  0
  184.7840  178.6490  144.8040 O   0  0  0  0  0  0  0  0  0  0  0  0
  187.9550  178.1010  148.5140 Cl  0  0  0  0  0  0  0  0  0  0  0  0
  188.9520  178.4670  145.6990 C   0  0  0  0  0  1  0  0  0  0  0  0
  185.9120  178.2770  142.6570 C   0  0  0  0  0  2  0  0  0  0  0  0
  1  9  1  1  0  0  0
  1  6  1  0  0  0  0
  2  8  1  6  0  0  0
  3  4  1  6  0  0  0
  3  2  1  0  0  0  0
  5  1  1  0  0  0  0
  5  3  1  0  0  0  0
  6 17  1  0  0  0  0
  6  2  1  0  0  0  0
  8  7  1  0  0  0  0
 10  9  1  0  0  0  0
 11 15  1  6  0  0  0
 11 14  1  0  0  0  0
 11 16  1  0  0  0  0
 12 10  1  0  0  0  0
 14 13  1  1  0  0  0
 14 10  1  0  0  0  0
 16 12  1  0  0  0  0
 18 27  1  6  0  0  0
 18 21  1  0  0  0  0
 19 24  2  0  0  0  0
 20 17  1  6  0  0  0
 20 22  1  0  0  0  0
 21 26  1  1  0  0  0
 22 19  1  1  0  0  0
 22 18  1  0  0  0  0
 23 25  1  0  0  0  0
 24 21  1  0  0  0  0
 25 19  1  0  0  0  0
 28 20  1  0  0  0  0
 28 23  1  0  0  0  0
M  END
>  <MODEL>
4

>  <REMARK>
 VINA RESULT:      -7.1      2.595      4.612
  Name = 
  5 active torsions:
  status: ('A' for Active; 'I' for Inactive)
    1  A    between atoms: C_1  and  C_2
    2  A    between atoms: C_2  and  N_3
    3  A    between atoms: C_10  and  C_17
    4  A    between atoms: C_16  and  C_20
    5  A    between atoms: C_17  and  N_27
                            x       y       z     vdW  Elec       q    Type
                         _______ _______ _______ _____ _____    ______ ____

>  <TORSDO>
F 5

$$$$
=
 OpenBabel10272401463D

 28 31  0  0  1  0  0  0  0  0999 V2000
  191.7480  176.8140  140.4070 C   0  0  2  0  0  3  0  0  0  0  0  0
  191.4930  176.3790  138.1420 C   0  0  2  0  0  3  0  0  0  0  0  0
  192.9870  176.6240  138.4140 C   0  0  2  0  0  3  0  0  0  0  0  0
  193.7070  175.4280  138.4940 O   0  0  0  0  0  1  0  0  0  0  0  0
  193.0170  177.3020  139.7570 C   0  0  0  0  0  2  0  0  0  0  0  0
  190.7280  176.6610  139.3580 N   0  0  0  0  0  0  0  0  0  0  0  0
  191.1980  174.9780  136.2260 O   0  0  0  0  0  1  0  0  0  0  0  0
  191.1650  174.9830  137.6200 C   0  0  0  0  0  2  0  0  0  0  0  0
  191.3440  177.6740  141.6080 C   0  0  0  0  0  2  0  0  0  0  0  0
  191.4180  176.8940  142.8450 N   0  0  0  0  0  0  0  0  0  0  0  0
  189.4740  177.5340  144.0690 C   0  0  2  0  0  3  0  0  0  0  0  0
  190.3920  175.8660  142.7220 C   0  0  0  0  0  2  0  0  0  0  0  0
  191.4390  179.1150  144.0470 C   0  0  0  0  0  1  0  0  0  0  0  0
  190.9720  177.6620  144.0100 C   0  0  2  0  0  3  0  0  0  0  0  0
  189.0230  177.3710  145.5070 C   0  0  0  0  0  1  0  0  0  0  0  0
  189.1400  176.3410  143.3110 N   0  0  0  0  0  2  0  0  0  0  0  0
  190.0170  177.9250  139.1230 C   0  0  0  0  0  2  0  0  0  0  0  0
  187.5580  177.2980  137.0640 C   0  0  1  0  0  3  0  0  0  0  0  0
  186.2200  178.3320  138.6790 C   0  0  0  0  0  0  0  0  0  0  0  0
  188.5240  177.8210  139.4580 C   0  0  2  0  0  3  0  0  0  0  0  0
  186.1110  177.5520  136.5900 C   0  0  2  0  0  3  0  0  0  0  0  0
  187.6390  178.2370  138.2730 C   0  0  1  0  0  3  0  0  0  0  0  0
  186.7060  178.4750  141.0760 C   0  0  0  0  0  2  0  0  0  0  0  0
  185.3800  177.9800  137.7700 N   0  0  0  0  0  0  0  0  0  0  0  0
  185.8340  178.7020  139.9660 O   0  0  0  0  0  0  0  0  0  0  0  0
  185.2990  176.1730  135.7900 Cl  0  0  0  0  0  0  0  0  0  0  0  0
  187.7740  175.8380  137.4680 C   0  0  0  0  0  1  0  0  0  0  0  0
  188.1770  178.6620  140.6920 C   0  0  0  0  0  2  0  0  0  0  0  0
  1  9  1  1  0  0  0
  2  8  1  1  0  0  0
  2  3  1  0  0  0  0
  2  6  1  0  0  0  0
  3  4  1  1  0  0  0
  3  5  1  0  0  0  0
  5  1  1  0  0  0  0
  6  1  1  0  0  0  0
  7  8  1  0  0  0  0
  9 10  1  0  0  0  0
 10 14  1  0  0  0  0
 11 15  1  1  0  0  0
 12 10  1  0  0  0  0
 12 16  1  0  0  0  0
 14 13  1  6  0  0  0
 14 11  1  0  0  0  0
 16 11  1  0  0  0  0
 17  6  1  0  0  0  0
 18 27  1  1  0  0  0
 18 22  1  0  0  0  0
 19 25  1  0  0  0  0
 20 17  1  6  0  0  0
 20 28  1  0  0  0  0
 21 26  1  1  0  0  0
 21 18  1  0  0  0  0
 21 24  1  0  0  0  0
 22 19  1  1  0  0  0
 22 20  1  0  0  0  0
 24 19  2  0  0  0  0
 25 23  1  0  0  0  0
 28 23  1  0  0  0  0
M  END
>  <MODEL>
5

>  <REMARK>
 VINA RESULT:      -7.0      3.743      7.367
  Name = 
  5 active torsions:
  status: ('A' for Active; 'I' for Inactive)
    1  A    between atoms: C_1  and  C_2
    2  A    between atoms: C_2  and  N_3
    3  A    between atoms: C_10  and  C_17
    4  A    between atoms: C_16  and  C_20
    5  A    between atoms: C_17  and  N_27
                            x       y       z     vdW  Elec       q    Type
                         _______ _______ _______ _____ _____    ______ ____

>  <TORSDO>
F 5

$$$$
=
 OpenBabel10272401463D

 28 31  0  0  1  0  0  0  0  0999 V2000
  184.2380  178.1000  142.6490 C   0  0  2  0  0  3  0  0  0  0  0  0
  185.7490  178.7350  144.2920 C   0  0  2  0  0  3  0  0  0  0  0  0
  184.4010  179.4090  144.6000 C   0  0  2  0  0  3  0  0  0  0  0  0
  183.6970  178.7340  145.6020 O   0  0  0  0  0  1  0  0  0  0  0  0
  183.6290  179.3080  143.3120 C   0  0  0  0  0  2  0  0  0  0  0  0
  185.6680  178.0620  142.9940 N   0  0  0  0  0  0  0  0  0  0  0  0
  187.3390  178.2960  146.0240 O   0  0  0  0  0  1  0  0  0  0  0  0
  186.2310  177.7640  145.3650 C   0  0  0  0  0  2  0  0  0  0  0  0
  183.9120  178.0310  141.1560 C   0  0  0  0  0  2  0  0  0  0  0  0
  182.6910  178.7840  140.8600 N   0  0  0  0  0  0  0  0  0  0  0  0
  182.1830  178.2340  138.5970 C   0  0  2  0  0  3  0  0  0  0  0  0
  181.6210  177.7940  140.8170 C   0  0  0  0  0  2  0  0  0  0  0  0
  184.0220  179.9040  139.0300 C   0  0  0  0  0  1  0  0  0  0  0  0
  182.6890  179.3250  139.5000 C   0  0  2  0  0  3  0  0  0  0  0  0
  181.2630  178.8170  137.5430 C   0  0  0  0  0  1  0  0  0  0  0  0
  181.4410  177.3180  139.4460 N   0  0  0  0  0  2  0  0  0  0  0  0
  186.4600  178.8660  142.0540 C   0  0  0  0  0  2  0  0  0  0  0  0
  189.2980  177.5970  143.0630 C   0  0  1  0  0  3  0  0  0  0  0  0
  189.8360  177.5310  140.7890 C   0  0  0  0  0  0  0  0  0  0  0  0
  187.4390  178.0100  141.2420 C   0  0  2  0  0  3  0  0  0  0  0  0
  190.7730  177.2360  142.7940 C   0  0  2  0  0  3  0  0  0  0  0  0
  188.8900  178.1960  141.7120 C   0  0  1  0  0  3  0  0  0  0  0  0
  188.2410  177.3920  138.9340 C   0  0  0  0  0  2  0  0  0  0  0  0
  190.8690  177.0210  141.3600 N   0  0  0  0  0  0  0  0  0  0  0  0
  189.5840  177.4060  139.4240 O   0  0  0  0  0  0  0  0  0  0  0  0
  191.4110  175.8330  143.7020 Cl  0  0  0  0  0  0  0  0  0  0  0  0
  188.4640  176.3610  143.4060 C   0  0  0  0  0  1  0  0  0  0  0  0
  187.3290  178.3190  139.7450 C   0  0  0  0  0  2  0  0  0  0  0  0
  1  9  1  6  0  0  0
  1  6  1  0  0  0  0
  1  5  1  0  0  0  0
  2  3  1  0  0  0  0
  2  8  1  1  0  0  0
  3  4  1  1  0  0  0
  5  3  1  0  0  0  0
  6  2  1  0  0  0  0
  8  7  1  0  0  0  0
 10  9  1  0  0  0  0
 11 15  1  6  0  0  0
 11 16  1  0  0  0  0
 11 14  1  0  0  0  0
 12 10  1  0  0  0  0
 14 13  1  6  0  0  0
 14 10  1  0  0  0  0
 16 12  1  0  0  0  0
 17  6  1  0  0  0  0
 18 27  1  6  0  0  0
 19 24  2  0  0  0  0
 20 22  1  0  0  0  0
 20 17  1  1  0  0  0
 21 18  1  0  0  0  0
 21 26  1  1  0  0  0
 22 19  1  6  0  0  0
 22 18  1  0  0  0  0
 23 25  1  0  0  0  0
 23 28  1  0  0  0  0
 24 21  1  0  0  0  0
 25 19  1  0  0  0  0
 28 20  1  0  0  0  0
M  END
>  <MODEL>
6

>  <REMARK>
 VINA RESULT:      -6.9      3.715      6.665
  Name = 
  5 active torsions:
  status: ('A' for Active; 'I' for Inactive)
    1  A    between atoms: C_1  and  C_2
    2  A    between atoms: C_2  and  N_3
    3  A    between atoms: C_10  and  C_17
    4  A    between atoms: C_16  and  C_20
    5  A    between atoms: C_17  and  N_27
                            x       y       z     vdW  Elec       q    Type
                         _______ _______ _______ _____ _____    ______ ____

>  <TORSDO>
F 5

$$$$
=
 OpenBabel10272401463D

 28 31  0  0  1  0  0  0  0  0999 V2000
  189.1070  177.3190  140.4300 C   0  0  2  0  0  3  0  0  0  0  0  0
  188.2220  177.4570  138.2890 C   0  0  2  0  0  3  0  0  0  0  0  0
  189.7350  177.7160  138.1950 C   0  0  2  0  0  3  0  0  0  0  0  0
  190.4320  176.5840  137.7610 O   0  0  0  0  0  1  0  0  0  0  0  0
  190.1500  178.0310  139.6070 C   0  0  0  0  0  2  0  0  0  0  0  0
  187.8320  177.3750  139.6980 N   0  0  0  0  0  0  0  0  0  0  0  0
  187.4220  176.5650  136.2190 O   0  0  0  0  0  1  0  0  0  0  0  0
  187.7420  176.2230  137.5330 C   0  0  0  0  0  2  0  0  0  0  0  0
  189.0680  177.8190  141.8760 C   0  0  0  0  0  2  0  0  0  0  0  0
  189.4760  176.7580  142.7990 N   0  0  0  0  0  0  0  0  0  0  0  0
  189.0790  177.6670  144.9670 C   0  0  2  0  0  3  0  0  0  0  0  0
  188.2370  176.2170  143.3450 C   0  0  0  0  0  2  0  0  0  0  0  0
  191.1360  178.4240  143.7180 C   0  0  0  0  0  1  0  0  0  0  0  0
  190.1530  177.2860  143.9850 C   0  0  2  0  0  3  0  0  0  0  0  0
  189.5000  177.2860  146.3720 C   0  0  0  0  0  1  0  0  0  0  0  0
  187.8970  176.9140  144.5860 N   0  0  0  0  0  2  0  0  0  0  0  0
  187.1010  178.6120  140.0040 C   0  0  0  0  0  2  0  0  0  0  0  0
  184.2190  178.7890  138.4730 C   0  0  1  0  0  3  0  0  0  0  0  0
  183.3300  179.0410  140.6200 C   0  0  0  0  0  0  0  0  0  0  0  0
  185.7130  178.3340  140.5940 C   0  0  2  0  0  3  0  0  0  0  0  0
  182.7230  179.1650  138.4750 C   0  0  2  0  0  3  0  0  0  0  0  0
  184.6190  179.1630  139.9050 C   0  0  1  0  0  3  0  0  0  0  0  0
  184.3330  178.2230  142.7000 C   0  0  0  0  0  2  0  0  0  0  0  0
  182.2930  179.0580  139.8590 N   0  0  0  0  0  0  0  0  0  0  0  0
  183.2570  178.8490  141.9990 O   0  0  0  0  0  0  0  0  0  0  0  0
  181.6730  178.1990  137.3950 Cl  0  0  0  0  0  0  0  0  0  0  0  0
  184.4290  177.2970  138.2010 C   0  0  0  0  0  1  0  0  0  0  0  0
  185.6950  178.5950  142.1050 C   0  0  0  0  0  2  0  0  0  0  0  0
  1  9  1  1  0  0  0
  2  8  1  6  0  0  0
  2  6  1  0  0  0  0
  3  4  1  1  0  0  0
  3  2  1  0  0  0  0
  3  5  1  0  0  0  0
  5  1  1  0  0  0  0
  6 17  1  0  0  0  0
  6  1  1  0  0  0  0
  7  8  1  0  0  0  0
  9 10  1  0  0  0  0
 10 12  1  0  0  0  0
 10 14  1  0  0  0  0
 11 15  1  1  0  0  0
 12 16  1  0  0  0  0
 14 13  1  6  0  0  0
 14 11  1  0  0  0  0
 16 11  1  0  0  0  0
 18 27  1  1  0  0  0
 18 21  1  0  0  0  0
 18 22  1  0  0  0  0
 19 25  1  0  0  0  0
 20 17  1  6  0  0  0
 20 28  1  0  0  0  0
 21 26  1  6  0  0  0
 21 24  1  0  0  0  0
 22 20  1  0  0  0  0
 22 19  1  1  0  0  0
 24 19  2  0  0  0  0
 25 23  1  0  0  0  0
 28 23  1  0  0  0  0
M  END
>  <MODEL>
7

>  <REMARK>
 VINA RESULT:      -6.3      3.821      7.283
  Name = 
  5 active torsions:
  status: ('A' for Active; 'I' for Inactive)
    1  A    between atoms: C_1  and  C_2
    2  A    between atoms: C_2  and  N_3
    3  A    between atoms: C_10  and  C_17
    4  A    between atoms: C_16  and  C_20
    5  A    between atoms: C_17  and  N_27
                            x       y       z     vdW  Elec       q    Type
                         _______ _______ _______ _____ _____    ______ ____

>  <TORSDO>
F 5

$$$$
=
 OpenBabel10272401463D

 28 31  0  0  1  0  0  0  0  0999 V2000
  189.0900  177.5000  146.0420 C   0  0  2  0  0  3  0  0  0  0  0  0
  187.1380  178.1960  147.0860 C   0  0  2  0  0  3  0  0  0  0  0  0
  187.9080  177.2970  148.0680 C   0  0  2  0  0  3  0  0  0  0  0  0
  188.6060  178.0450  149.0220 O   0  0  0  0  0  1  0  0  0  0  0  0
  188.8990  176.5630  147.2060 C   0  0  0  0  0  2  0  0  0  0  0  0
  187.8080  178.1740  145.7840 N   0  0  0  0  0  0  0  0  0  0  0  0
  185.5980  179.8600  147.8480 O   0  0  0  0  0  1  0  0  0  0  0  0
  186.9440  179.6320  147.5600 C   0  0  0  0  0  2  0  0  0  0  0  0
  189.7300  176.8050  144.8370 C   0  0  0  0  0  2  0  0  0  0  0  0
  191.0410  177.3890  144.5440 N   0  0  0  0  0  0  0  0  0  0  0  0
  191.2190  177.2910  142.1680 C   0  0  2  0  0  3  0  0  0  0  0  0
  190.7650  178.7010  143.9700 C   0  0  0  0  0  2  0  0  0  0  0  0
  191.6060  175.1710  143.4780 C   0  0  0  0  0  1  0  0  0  0  0  0
  191.7250  176.6930  143.4530 C   0  0  2  0  0  3  0  0  0  0  0  0
  192.3600  177.4440  141.1820 C   0  0  0  0  0  1  0  0  0  0  0  0
  190.6880  178.5990  142.5130 N   0  0  0  0  0  2  0  0  0  0  0  0
  186.9600  177.3760  144.8880 C   0  0  0  0  0  2  0  0  0  0  0  0
  183.9370  178.3040  144.0660 C   0  0  1  0  0  3  0  0  0  0  0  0
  184.7870  178.4120  141.8910 C   0  0  0  0  0  0  0  0  0  0  0  0
  186.5330  178.1610  143.6420 C   0  0  2  0  0  3  0  0  0  0  0  0
  182.8490  178.5240  142.9940 C   0  0  2  0  0  3  0  0  0  0  0  0
  185.1040  177.8080  143.2040 C   0  0  1  0  0  3  0  0  0  0  0  0
  187.1280  178.7920  141.2760 C   0  0  0  0  0  2  0  0  0  0  0  0
  183.5650  178.7890  141.7570 N   0  0  0  0  0  0  0  0  0  0  0  0
  185.7570  178.6200  140.9120 O   0  0  0  0  0  0  0  0  0  0  0  0
  181.6600  179.8140  143.3420 Cl  0  0  0  0  0  0  0  0  0  0  0  0
  184.2870  179.6040  144.7940 C   0  0  0  0  0  1  0  0  0  0  0  0
  187.5090  177.9290  142.4840 C   0  0  0  0  0  2  0  0  0  0  0  0
  1  9  1  6  0  0  0
  1  5  1  0  0  0  0
  2  8  1  1  0  0  0
  2  3  1  0  0  0  0
  3  4  1  1  0  0  0
  5  3  1  0  0  0  0
  6  1  1  0  0  0  0
  6  2  1  0  0  0  0
  8  7  1  0  0  0  0
 10  9  1  0  0  0  0
 11 15  1  6  0  0  0
 11 16  1  0  0  0  0
 11 14  1  0  0  0  0
 12 10  1  0  0  0  0
 14 13  1  6  0  0  0
 14 10  1  0  0  0  0
 16 12  1  0  0  0  0
 17  6  1  0  0  0  0
 18 27  1  6  0  0  0
 20 17  1  1  0  0  0
 21 26  1  1  0  0  0
 21 18  1  0  0  0  0
 22 19  1  6  0  0  0
 22 20  1  0  0  0  0
 22 18  1  0  0  0  0
 23 28  1  0  0  0  0
 24 19  2  0  0  0  0
 24 21  1  0  0  0  0
 25 23  1  0  0  0  0
 25 19  1  0  0  0  0
 28 20  1  0  0  0  0
M  END
>  <MODEL>
8

>  <REMARK>
 VINA RESULT:      -6.2      3.115      6.209
  Name = 
  5 active torsions:
  status: ('A' for Active; 'I' for Inactive)
    1  A    between atoms: C_1  and  C_2
    2  A    between atoms: C_2  and  N_3
    3  A    between atoms: C_10  and  C_17
    4  A    between atoms: C_16  and  C_20
    5  A    between atoms: C_17  and  N_27
                            x       y       z     vdW  Elec       q    Type
                         _______ _______ _______ _____ _____    ______ ____

>  <TORSDO>
F 5

$$$$
=
 OpenBabel10272401463D

 28 31  0  0  1  0  0  0  0  0999 V2000
  188.6160  177.5540  140.0670 C   0  0  2  0  0  3  0  0  0  0  0  0
  187.0930  178.0580  138.3890 C   0  0  2  0  0  3  0  0  0  0  0  0
  188.5020  178.3850  137.8670 C   0  0  2  0  0  3  0  0  0  0  0  0
  188.9930  177.3800  137.0260 O   0  0  0  0  0  1  0  0  0  0  0  0
  189.3570  178.4440  139.1040 C   0  0  0  0  0  2  0  0  0  0  0  0
  187.1750  177.7000  139.8070 N   0  0  0  0  0  0  0  0  0  0  0  0
  185.2910  177.5260  136.9100 O   0  0  0  0  0  1  0  0  0  0  0  0
  186.3640  176.9710  137.6070 C   0  0  0  0  0  2  0  0  0  0  0  0
  189.0560  177.7730  141.5160 C   0  0  0  0  0  2  0  0  0  0  0  0
  189.5840  176.5320  142.0860 N   0  0  0  0  0  0  0  0  0  0  0  0
  190.5740  177.1970  144.1510 C   0  0  2  0  0  3  0  0  0  0  0  0
  188.6950  176.2010  143.1940 C   0  0  0  0  0  2  0  0  0  0  0  0
  191.8430  177.6570  142.0200 C   0  0  0  0  0  1  0  0  0  0  0  0
  190.8730  176.7320  142.7510 C   0  0  2  0  0  3  0  0  0  0  0  0
  191.5290  176.5450  145.1300 C   0  0  0  0  0  1  0  0  0  0  0  0
  189.2140  176.7760  144.4350 N   0  0  0  0  0  2  0  0  0  0  0  0
  186.6130  178.8300  140.5590 C   0  0  0  0  0  2  0  0  0  0  0  0
  183.3550  178.7160  140.3350 C   0  0  1  0  0  3  0  0  0  0  0  0
  183.4020  178.7960  142.6710 C   0  0  0  0  0  0  0  0  0  0  0  0
  185.6210  178.3740  141.6350 C   0  0  2  0  0  3  0  0  0  0  0  0
  181.9620  178.9150  140.9690 C   0  0  2  0  0  3  0  0  0  0  0  0
  184.2680  179.0900  141.5090 C   0  0  1  0  0  3  0  0  0  0  0  0
  185.2390  178.0380  144.1030 C   0  0  0  0  0  2  0  0  0  0  0  0
  182.1480  178.7160  142.3960 N   0  0  0  0  0  0  0  0  0  0  0  0
  183.9160  178.5550  143.9440 O   0  0  0  0  0  0  0  0  0  0  0  0
  180.6590  177.8670  140.3330 Cl  0  0  0  0  0  0  0  0  0  0  0  0
  183.5740  177.2680  139.8900 C   0  0  0  0  0  1  0  0  0  0  0  0
  186.1970  178.5840  143.0400 C   0  0  0  0  0  2  0  0  0  0  0  0
  1  9  1  1  0  0  0
  2  8  1  6  0  0  0
  2  6  1  0  0  0  0
  3  4  1  6  0  0  0
  3  2  1  0  0  0  0
  3  5  1  0  0  0  0
  5  1  1  0  0  0  0
  6  1  1  0  0  0  0
  6 17  1  0  0  0  0
  7  8  1  0  0  0  0
  9 10  1  0  0  0  0
 10 14  1  0  0  0  0
 10 12  1  0  0  0  0
 11 16  1  0  0  0  0
 11 15  1  1  0  0  0
 12 16  1  0  0  0  0
 14 13  1  6  0  0  0
 14 11  1  0  0  0  0
 18 27  1  1  0  0  0
 18 21  1  0  0  0  0
 18 22  1  0  0  0  0
 19 25  1  0  0  0  0
 20 17  1  6  0  0  0
 20 28  1  0  0  0  0
 21 26  1  6  0  0  0
 21 24  1  0  0  0  0
 22 20  1  0  0  0  0
 22 19  1  1  0  0  0
 24 19  2  0  0  0  0
 25 23  1  0  0  0  0
 28 23  1  0  0  0  0
M  END
>  <MODEL>
9

>  <REMARK>
 VINA RESULT:      -6.1      3.701      6.357
  Name = 
  5 active torsions:
  status: ('A' for Active; 'I' for Inactive)
    1  A    between atoms: C_1  and  C_2
    2  A    between atoms: C_2  and  N_3
    3  A    between atoms: C_10  and  C_17
    4  A    between atoms: C_16  and  C_20
    5  A    between atoms: C_17  and  N_27
                            x       y       z     vdW  Elec       q    Type
                         _______ _______ _______ _____ _____    ______ ____

>  <TORSDO>
F 5

$$$$
