=
 OpenBabel10272401013D

 27 31  0  0  1  0  0  0  0  0999 V2000
  189.1430  178.4180  138.9710 C   0  0  0  0  0  2  0  0  0  0  0  0
  190.7530  176.4790  139.1810 C   0  0  1  0  0  3  0  0  0  0  0  0
  188.7660  175.2900  137.8960 C   0  0  0  0  0  2  0  0  0  0  0  0
  193.2770  174.3280  136.6250 O   0  0  0  0  0  0  0  0  0  0  0  0
  192.7470  172.1520  135.6260 C   0  0  0  0  0  1  0  0  0  0  0  0
  191.9420  177.2880  138.6190 C   0  0  0  0  0  2  0  0  0  0  0  0
  191.0560  173.7070  136.5980 C   0  0  0  0  0  0  0  0  0  0  0  0
  188.3620  176.5600  134.3460 C   0  0  0  0  0  3  0  0  0  0  0  0
  190.0230  173.0640  136.2660 O   0  0  0  0  0  0  0  0  0  0  0  0
  187.8120  177.8270  134.5530 C   0  0  0  0  0  3  0  0  0  0  0  0
  191.1620  174.7140  137.5930 C   0  0  0  0  0  0  0  0  0  0  0  0
  189.7220  177.3370  139.7680 N   0  0  0  0  0  0  0  0  0  0  0  0
  192.3520  173.4640  136.1070 N   0  0  0  0  0  0  0  0  0  0  0  0
  192.6260  174.9710  137.7190 C   0  0  2  0  0  3  0  0  0  0  0  0
  187.4070  178.0390  138.5870 S   0  0  0  0  0  0  0  0  0  0  0  0
  190.2280  175.4430  138.2120 C   0  0  0  0  0  0  0  0  0  0  0  0
  188.6470  175.7360  135.4370 C   0  0  0  0  0  3  0  0  0  0  0  0
  192.8730  176.4850  137.6800 C   0  0  0  0  0  2  0  0  0  0  0  0
  187.5400  178.2660  135.8510 C   0  0  0  0  0  3  0  0  0  0  0  0
  187.8160  177.4420  136.9480 C   0  0  0  0  0  0  0  0  0  0  0  0
  188.3790  176.1670  136.7420 C   0  0  0  0  0  0  0  0  0  0  0  0
  188.6390  176.8220  143.8520 C   0  0  0  0  0  3  0  0  0  0  0  0
  189.3520  177.1620  141.1530 C   0  0  0  0  0  0  0  0  0  0  0  0
  190.1110  176.3310  141.9940 C   0  0  0  0  0  3  0  0  0  0  0  0
  189.7560  176.1610  143.3360 C   0  0  0  0  0  3  0  0  0  0  0  0
  187.8770  177.6530  143.0270 C   0  0  0  0  0  3  0  0  0  0  0  0
  188.2310  177.8230  141.6860 C   0  0  0  0  0  3  0  0  0  0  0  0
  1 12  1  0  0  0  0
  2  6  1  6  0  0  0
  2 12  1  0  0  0  0
  3 16  1  0  0  0  0
  4 14  1  0  0  0  0
  5 13  1  0  0  0  0
  7 11  1  0  0  0  0
  8 10  2  0  0  0  0
  8 17  1  0  0  0  0
  9  7  2  0  0  0  0
 10 19  1  0  0  0  0
 11 14  1  0  0  0  0
 11 16  2  0  0  0  0
 12 23  1  0  0  0  0
 13  7  1  0  0  0  0
 13  4  1  0  0  0  0
 14 18  1  6  0  0  0
 15  1  1  0  0  0  0
 16  2  1  0  0  0  0
 17 21  2  0  0  0  0
 18  6  1  0  0  0  0
 19 20  2  0  0  0  0
 20 15  1  0  0  0  0
 21 20  1  0  0  0  0
 21  3  1  0  0  0  0
 23 27  2  0  0  0  0
 23 24  1  0  0  0  0
 24 25  2  0  0  0  0
 25 22  1  0  0  0  0
 26 22  2  0  0  0  0
 27 26  1  0  0  0  0
M  END
>  <MODEL>
1

>  <REMARK>
 VINA RESULT:      -6.3      0.000      0.000
  Name = 
  1 active torsions:
  status: ('A' for Active; 'I' for Inactive)
    1  A    between atoms: C_9  and  N_15
                            x       y       z     vdW  Elec       q    Type
                         _______ _______ _______ _____ _____    ______ ____

>  <TORSDO>
F 1

$$$$
=
 OpenBabel10272401013D

 27 31  0  0  1  0  0  0  0  0999 V2000
  183.0430  179.8490  139.0440 C   0  0  0  0  0  2  0  0  0  0  0  0
  183.2910  177.3390  139.2310 C   0  0  1  0  0  3  0  0  0  0  0  0
  180.7090  177.5060  138.6670 C   0  0  0  0  0  2  0  0  0  0  0  0
  183.3340  174.0810  136.6010 O   0  0  0  0  0  0  0  0  0  0  0  0
  181.4270  172.6030  136.1590 C   0  0  0  0  0  1  0  0  0  0  0  0
  184.5050  177.2980  138.2760 C   0  0  0  0  0  2  0  0  0  0  0  0
  181.2470  174.8670  137.1920 C   0  0  0  0  0  0  0  0  0  0  0  0
  180.0660  178.7180  135.1320 C   0  0  0  0  0  3  0  0  0  0  0  0
  179.9890  174.9390  137.2250 O   0  0  0  0  0  0  0  0  0  0  0  0
  180.3960  180.0720  135.2260 C   0  0  0  0  0  3  0  0  0  0  0  0
  182.1750  175.6410  137.9370 C   0  0  0  0  0  0  0  0  0  0  0  0
  183.1290  178.6460  139.8710 N   0  0  0  0  0  0  0  0  0  0  0  0
  181.9830  173.9080  136.4710 N   0  0  0  0  0  0  0  0  0  0  0  0
  183.4980  175.0010  137.6790 C   0  0  2  0  0  3  0  0  0  0  0  0
  181.3660  180.5440  139.1400 S   0  0  0  0  0  0  0  0  0  0  0  0
  182.0280  176.7860  138.6100 C   0  0  0  0  0  0  0  0  0  0  0  0
  180.1490  177.8990  136.2610 C   0  0  0  0  0  3  0  0  0  0  0  0
  184.5160  176.0880  137.3120 C   0  0  0  0  0  2  0  0  0  0  0  0
  180.8020  180.6070  136.4510 C   0  0  0  0  0  3  0  0  0  0  0  0
  180.8810  179.7940  137.5870 C   0  0  0  0  0  0  0  0  0  0  0  0
  180.5570  178.4270  137.4930 C   0  0  0  0  0  0  0  0  0  0  0  0
  183.1830  178.9280  144.1180 C   0  0  0  0  0  3  0  0  0  0  0  0
  183.1460  178.7410  141.3120 C   0  0  0  0  0  0  0  0  0  0  0  0
  184.3650  178.7700  142.0120 C   0  0  0  0  0  3  0  0  0  0  0  0
  184.3830  178.8630  143.4060 C   0  0  0  0  0  3  0  0  0  0  0  0
  181.9650  178.9020  143.4350 C   0  0  0  0  0  3  0  0  0  0  0  0
  181.9460  178.8090  142.0410 C   0  0  0  0  0  3  0  0  0  0  0  0
  1 15  1  0  0  0  0
  1 12  1  0  0  0  0
  2  6  1  6  0  0  0
  2 12  1  0  0  0  0
  4 14  1  0  0  0  0
  5 13  1  0  0  0  0
  7  9  2  0  0  0  0
  7 11  1  0  0  0  0
  8 10  2  0  0  0  0
  8 17  1  0  0  0  0
 10 19  1  0  0  0  0
 11 16  2  0  0  0  0
 12 23  1  0  0  0  0
 13  4  1  0  0  0  0
 13  7  1  0  0  0  0
 14 18  1  6  0  0  0
 14 11  1  0  0  0  0
 16  3  1  0  0  0  0
 16  2  1  0  0  0  0
 17 21  2  0  0  0  0
 18  6  1  0  0  0  0
 19 20  2  0  0  0  0
 20 15  1  0  0  0  0
 21 20  1  0  0  0  0
 21  3  1  0  0  0  0
 23 24  2  0  0  0  0
 23 27  1  0  0  0  0
 24 25  1  0  0  0  0
 25 22  2  0  0  0  0
 26 22  1  0  0  0  0
 27 26  2  0  0  0  0
M  END
>  <MODEL>
2

>  <REMARK>
 VINA RESULT:      -5.8      6.501      8.084
  Name = 
  1 active torsions:
  status: ('A' for Active; 'I' for Inactive)
    1  A    between atoms: C_9  and  N_15
                            x       y       z     vdW  Elec       q    Type
                         _______ _______ _______ _____ _____    ______ ____

>  <TORSDO>
F 1

$$$$
=
 OpenBabel10272401013D

 27 31  0  0  1  0  0  0  0  0999 V2000
  181.9590  177.6920  139.3260 C   0  0  0  0  0  2  0  0  0  0  0  0
  183.6460  177.2770  137.4870 C   0  0  1  0  0  3  0  0  0  0  0  0
  184.8750  179.2140  138.8110 C   0  0  0  0  0  2  0  0  0  0  0  0
  187.4320  175.5190  137.1710 O   0  0  0  0  0  0  0  0  0  0  0  0
  189.5550  176.7450  137.1260 C   0  0  0  0  0  1  0  0  0  0  0  0
  183.6700  175.7520  137.7310 C   0  0  0  0  0  2  0  0  0  0  0  0
  187.3970  177.6920  137.9420 C   0  0  0  0  0  0  0  0  0  0  0  0
  186.0540  178.1110  142.2420 C   0  0  0  0  0  3  0  0  0  0  0  0
  187.8440  178.7910  138.3680 O   0  0  0  0  0  0  0  0  0  0  0  0
  184.8530  178.0380  142.9510 C   0  0  0  0  0  3  0  0  0  0  0  0
  186.0490  177.3710  137.6330 C   0  0  0  0  0  0  0  0  0  0  0  0
  182.4000  177.8950  137.9470 N   0  0  0  0  0  0  0  0  0  0  0  0
  188.1860  176.5840  137.5800 N   0  0  0  0  0  0  0  0  0  0  0  0
  186.1180  176.0350  136.9730 C   0  0  2  0  0  3  0  0  0  0  0  0
  182.0790  179.2540  140.2480 S   0  0  0  0  0  0  0  0  0  0  0  0
  184.9020  177.9740  137.9610 C   0  0  0  0  0  0  0  0  0  0  0  0
  186.0520  178.5160  140.9050 C   0  0  0  0  0  3  0  0  0  0  0  0
  185.0720  175.1090  137.6070 C   0  0  0  0  0  2  0  0  0  0  0  0
  183.6520  178.3770  142.3250 C   0  0  0  0  0  3  0  0  0  0  0  0
  183.6430  178.7910  140.9880 C   0  0  0  0  0  0  0  0  0  0  0  0
  184.8530  178.8570  140.2680 C   0  0  0  0  0  0  0  0  0  0  0  0
  179.9820  180.0480  135.1840 C   0  0  0  0  0  3  0  0  0  0  0  0
  181.5790  178.6240  137.0090 C   0  0  0  0  0  0  0  0  0  0  0  0
  181.4380  180.0180  137.1170 C   0  0  0  0  0  3  0  0  0  0  0  0
  180.6440  180.7260  136.2100 C   0  0  0  0  0  3  0  0  0  0  0  0
  180.1140  178.6630  135.0640 C   0  0  0  0  0  3  0  0  0  0  0  0
  180.9080  177.9550  135.9710 C   0  0  0  0  0  3  0  0  0  0  0  0
  1 15  1  0  0  0  0
  2  6  1  1  0  0  0
  2 12  1  0  0  0  0
  2 16  1  0  0  0  0
  3 21  1  0  0  0  0
  4 13  1  0  0  0  0
  5 13  1  0  0  0  0
  7  9  2  0  0  0  0
  8 10  1  0  0  0  0
 11  7  1  0  0  0  0
 11 16  2  0  0  0  0
 12  1  1  0  0  0  0
 13  7  1  0  0  0  0
 14  4  1  0  0  0  0
 14 18  1  1  0  0  0
 14 11  1  0  0  0  0
 15 20  1  0  0  0  0
 16  3  1  0  0  0  0
 17  8  2  0  0  0  0
 18  6  1  0  0  0  0
 19 10  2  0  0  0  0
 20 19  1  0  0  0  0
 21 17  1  0  0  0  0
 21 20  2  0  0  0  0
 22 25  1  0  0  0  0
 23 24  1  0  0  0  0
 23 12  1  0  0  0  0
 25 24  2  0  0  0  0
 26 22  2  0  0  0  0
 26 27  1  0  0  0  0
 27 23  2  0  0  0  0
M  END
>  <MODEL>
3

>  <REMARK>
 VINA RESULT:      -5.7      4.904      7.894
  Name = 
  1 active torsions:
  status: ('A' for Active; 'I' for Inactive)
    1  A    between atoms: C_9  and  N_15
                            x       y       z     vdW  Elec       q    Type
                         _______ _______ _______ _____ _____    ______ ____

>  <TORSDO>
F 1

$$$$
=
 OpenBabel10272401013D

 27 31  0  0  1  0  0  0  0  0999 V2000
  183.3370  177.9200  141.2680 C   0  0  0  0  0  2  0  0  0  0  0  0
  183.8770  177.9590  138.7970 C   0  0  1  0  0  3  0  0  0  0  0  0
  185.9020  179.3870  139.7330 C   0  0  0  0  0  2  0  0  0  0  0  0
  186.7070  176.1850  136.2720 O   0  0  0  0  0  0  0  0  0  0  0  0
  188.7470  177.2740  135.4580 C   0  0  0  0  0  1  0  0  0  0  0  0
  183.7400  176.4280  138.6520 C   0  0  0  0  0  2  0  0  0  0  0  0
  187.4190  178.0540  137.4200 C   0  0  0  0  0  0  0  0  0  0  0  0
  188.3180  177.3130  141.7920 C   0  0  0  0  0  3  0  0  0  0  0  0
  188.2000  178.9670  137.8020 O   0  0  0  0  0  0  0  0  0  0  0  0
  187.5900  177.1000  142.9650 C   0  0  0  0  0  3  0  0  0  0  0  0
  186.0480  177.8950  137.7550 C   0  0  0  0  0  0  0  0  0  0  0  0
  183.1180  178.4810  139.9360 N   0  0  0  0  0  0  0  0  0  0  0  0
  187.7390  177.0560  136.4810 N   0  0  0  0  0  0  0  0  0  0  0  0
  185.5650  176.7970  136.8690 C   0  0  2  0  0  3  0  0  0  0  0  0
  184.1460  179.1530  142.3310 S   0  0  0  0  0  0  0  0  0  0  0  0
  185.3110  178.4360  138.7300 C   0  0  0  0  0  0  0  0  0  0  0  0
  187.7690  178.0760  140.7580 C   0  0  0  0  0  3  0  0  0  0  0  0
  184.7850  175.7800  137.7130 C   0  0  0  0  0  2  0  0  0  0  0  0
  186.3170  177.6570  143.1060 C   0  0  0  0  0  3  0  0  0  0  0  0
  185.7640  178.4290  142.0780 C   0  0  0  0  0  0  0  0  0  0  0  0
  186.4930  178.6380  140.8900 C   0  0  0  0  0  0  0  0  0  0  0  0
  180.1190  181.4290  139.2790 C   0  0  0  0  0  3  0  0  0  0  0  0
  182.1000  179.4810  139.7150 C   0  0  0  0  0  0  0  0  0  0  0  0
  182.2240  180.4060  138.6640 C   0  0  0  0  0  3  0  0  0  0  0  0
  181.2400  181.3740  138.4470 C   0  0  0  0  0  3  0  0  0  0  0  0
  179.9820  180.5150  140.3260 C   0  0  0  0  0  3  0  0  0  0  0  0
  180.9660  179.5470  140.5430 C   0  0  0  0  0  3  0  0  0  0  0  0
  1 15  1  0  0  0  0
  2  6  1  1  0  0  0
  2 12  1  0  0  0  0
  3 21  1  0  0  0  0
  4 13  1  0  0  0  0
  4 14  1  0  0  0  0
  5 13  1  0  0  0  0
  7 11  1  0  0  0  0
  7  9  2  0  0  0  0
  8 10  1  0  0  0  0
 10 19  2  0  0  0  0
 11 16  2  0  0  0  0
 12  1  1  0  0  0  0
 13  7  1  0  0  0  0
 14 18  1  1  0  0  0
 14 11  1  0  0  0  0
 16  2  1  0  0  0  0
 16  3  1  0  0  0  0
 17 21  1  0  0  0  0
 17  8  2  0  0  0  0
 18  6  1  0  0  0  0
 20 15  1  0  0  0  0
 20 19  1  0  0  0  0
 21 20  2  0  0  0  0
 22 26  1  0  0  0  0
 23 12  1  0  0  0  0
 23 27  1  0  0  0  0
 24 23  2  0  0  0  0
 25 24  1  0  0  0  0
 25 22  2  0  0  0  0
 26 27  2  0  0  0  0
M  END
>  <MODEL>
4

>  <REMARK>
 VINA RESULT:      -5.6      4.807      7.303
  Name = 
  1 active torsions:
  status: ('A' for Active; 'I' for Inactive)
    1  A    between atoms: C_9  and  N_15
                            x       y       z     vdW  Elec       q    Type
                         _______ _______ _______ _____ _____    ______ ____

>  <TORSDO>
F 1

$$$$
=
 OpenBabel10272401013D

 27 31  0  0  1  0  0  0  0  0999 V2000
  189.5650  175.0320  134.4630 C   0  0  0  0  0  2  0  0  0  0  0  0
  188.1730  175.8240  136.4210 C   0  0  1  0  0  3  0  0  0  0  0  0
  190.1970  174.7100  137.7160 C   0  0  0  0  0  2  0  0  0  0  0  0
  188.4120  178.8580  139.2960 O   0  0  0  0  0  0  0  0  0  0  0  0
  189.2100  178.5590  141.5960 C   0  0  0  0  0  1  0  0  0  0  0  0
  188.0350  177.2560  135.8590 C   0  0  0  0  0  2  0  0  0  0  0  0
  189.6550  176.9640  139.7300 C   0  0  0  0  0  0  0  0  0  0  0  0
  193.4390  176.6260  137.2740 C   0  0  0  0  0  3  0  0  0  0  0  0
  190.4350  176.1910  140.3490 O   0  0  0  0  0  0  0  0  0  0  0  0
  193.7790  176.3190  135.9540 C   0  0  0  0  0  3  0  0  0  0  0  0
  188.9440  176.6920  138.5320 C   0  0  0  0  0  0  0  0  0  0  0  0
  188.4360  174.8360  135.3720 N   0  0  0  0  0  0  0  0  0  0  0  0
  189.2470  178.2330  140.1810 N   0  0  0  0  0  0  0  0  0  0  0  0
  188.0180  177.8490  138.3680 C   0  0  2  0  0  3  0  0  0  0  0  0
  190.8390  173.7760  134.7840 S   0  0  0  0  0  0  0  0  0  0  0  0
  189.1050  175.7390  137.6080 C   0  0  0  0  0  0  0  0  0  0  0  0
  192.2860  176.0800  137.8430 C   0  0  0  0  0  3  0  0  0  0  0  0
  188.1190  178.3710  136.9280 C   0  0  0  0  0  2  0  0  0  0  0  0
  192.9690  175.4610  135.2070 C   0  0  0  0  0  3  0  0  0  0  0  0
  191.8170  174.9040  135.7740 C   0  0  0  0  0  0  0  0  0  0  0  0
  191.4670  175.2190  137.1020 C   0  0  0  0  0  0  0  0  0  0  0  0
  185.7560  171.5740  134.8350 C   0  0  0  0  0  3  0  0  0  0  0  0
  187.5270  173.7290  135.1910 C   0  0  0  0  0  0  0  0  0  0  0  0
  186.3050  173.9100  134.5230 C   0  0  0  0  0  3  0  0  0  0  0  0
  185.4240  172.8390  134.3460 C   0  0  0  0  0  3  0  0  0  0  0  0
  186.9690  171.3790  135.5000 C   0  0  0  0  0  3  0  0  0  0  0  0
  187.8490  172.4490  135.6770 C   0  0  0  0  0  3  0  0  0  0  0  0
  1 15  1  0  0  0  0
  1 12  1  0  0  0  0
  2  6  1  6  0  0  0
  2 16  1  0  0  0  0
  4 13  1  0  0  0  0
  6 18  1  0  0  0  0
  7 13  1  0  0  0  0
  7  9  2  0  0  0  0
  8 17  1  0  0  0  0
 10  8  2  0  0  0  0
 11  7  1  0  0  0  0
 12  2  1  0  0  0  0
 13  5  1  0  0  0  0
 14 18  1  6  0  0  0
 14 11  1  0  0  0  0
 14  4  1  0  0  0  0
 15 20  1  0  0  0  0
 16  3  1  0  0  0  0
 16 11  2  0  0  0  0
 19 20  2  0  0  0  0
 19 10  1  0  0  0  0
 20 21  1  0  0  0  0
 21  3  1  0  0  0  0
 21 17  2  0  0  0  0
 22 26  1  0  0  0  0
 23 12  1  0  0  0  0
 23 27  1  0  0  0  0
 24 23  2  0  0  0  0
 25 24  1  0  0  0  0
 25 22  2  0  0  0  0
 26 27  2  0  0  0  0
M  END
>  <MODEL>
5

>  <REMARK>
 VINA RESULT:      -5.5      3.084      6.476
  Name = 
  1 active torsions:
  status: ('A' for Active; 'I' for Inactive)
    1  A    between atoms: C_9  and  N_15
                            x       y       z     vdW  Elec       q    Type
                         _______ _______ _______ _____ _____    ______ ____

>  <TORSDO>
F 1

$$$$
=
 OpenBabel10272401013D

 27 31  0  0  1  0  0  0  0  0999 V2000
  183.4200  177.5900  138.9460 C   0  0  0  0  0  2  0  0  0  0  0  0
  184.4670  176.3530  137.0030 C   0  0  1  0  0  3  0  0  0  0  0  0
  186.2160  178.3210  137.2920 C   0  0  0  0  0  2  0  0  0  0  0  0
  187.8040  173.8980  136.4020 O   0  0  0  0  0  0  0  0  0  0  0  0
  189.9450  174.6360  135.4610 C   0  0  0  0  0  1  0  0  0  0  0  0
  184.3980  174.9870  137.7200 C   0  0  0  0  0  2  0  0  0  0  0  0
  188.2160  176.1670  136.4040 C   0  0  0  0  0  0  0  0  0  0  0  0
  188.1920  178.0510  140.5170 C   0  0  0  0  0  3  0  0  0  0  0  0
  188.8770  177.2370  136.3290 O   0  0  0  0  0  0  0  0  0  0  0  0
  187.2380  178.4130  141.4710 C   0  0  0  0  0  3  0  0  0  0  0  0
  186.8090  176.0300  136.5430 C   0  0  0  0  0  0  0  0  0  0  0  0
  183.4730  177.3010  137.5130 N   0  0  0  0  0  0  0  0  0  0  0  0
  188.7490  174.8740  136.2510 N   0  0  0  0  0  0  0  0  0  0  0  0
  186.5480  174.5730  136.3590 C   0  0  2  0  0  3  0  0  0  0  0  0
  183.9590  179.3000  139.2490 S   0  0  0  0  0  0  0  0  0  0  0  0
  185.8710  176.9080  136.9130 C   0  0  0  0  0  0  0  0  0  0  0  0
  187.8550  178.0470  139.1610 C   0  0  0  0  0  3  0  0  0  0  0  0
  185.6320  174.0830  137.4880 C   0  0  0  0  0  2  0  0  0  0  0  0
  185.9520  178.7780  141.0680 C   0  0  0  0  0  3  0  0  0  0  0  0
  185.6100  178.7830  139.7110 C   0  0  0  0  0  0  0  0  0  0  0  0
  186.5670  178.4100  138.7470 C   0  0  0  0  0  0  0  0  0  0  0  0
  180.6110  178.9750  134.8440 C   0  0  0  0  0  3  0  0  0  0  0  0
  182.5020  177.8710  136.6090 C   0  0  0  0  0  0  0  0  0  0  0  0
  182.6090  177.6630  135.2230 C   0  0  0  0  0  3  0  0  0  0  0  0
  181.6700  178.2120  134.3460 C   0  0  0  0  0  3  0  0  0  0  0  0
  180.4910  179.1870  136.2200 C   0  0  0  0  0  3  0  0  0  0  0  0
  181.4300  178.6390  137.0970 C   0  0  0  0  0  3  0  0  0  0  0  0
  1 15  1  0  0  0  0
  2 12  1  0  0  0  0
  2  6  1  1  0  0  0
  3 21  1  0  0  0  0
  5 13  1  0  0  0  0
  7 11  1  0  0  0  0
  8 10  1  0  0  0  0
  9  7  2  0  0  0  0
 11 16  2  0  0  0  0
 12  1  1  0  0  0  0
 13  4  1  0  0  0  0
 13  7  1  0  0  0  0
 14  4  1  0  0  0  0
 14 11  1  0  0  0  0
 14 18  1  1  0  0  0
 15 20  1  0  0  0  0
 16  2  1  0  0  0  0
 16  3  1  0  0  0  0
 17  8  2  0  0  0  0
 18  6  1  0  0  0  0
 19 10  2  0  0  0  0
 20 19  1  0  0  0  0
 21 17  1  0  0  0  0
 21 20  2  0  0  0  0
 22 26  1  0  0  0  0
 23 27  1  0  0  0  0
 23 12  1  0  0  0  0
 24 23  2  0  0  0  0
 25 22  2  0  0  0  0
 25 24  1  0  0  0  0
 26 27  2  0  0  0  0
M  END
>  <MODEL>
6

>  <REMARK>
 VINA RESULT:      -5.3      4.026      6.826
  Name = 
  1 active torsions:
  status: ('A' for Active; 'I' for Inactive)
    1  A    between atoms: C_9  and  N_15
                            x       y       z     vdW  Elec       q    Type
                         _______ _______ _______ _____ _____    ______ ____

>  <TORSDO>
F 1

$$$$
=
 OpenBabel10272401013D

 27 31  0  0  1  0  0  0  0  0999 V2000
  193.0790  173.5400  136.2340 C   0  0  0  0  0  2  0  0  0  0  0  0
  192.2780  175.8740  136.7930 C   0  0  1  0  0  3  0  0  0  0  0  0
  191.0470  175.5080  134.4770 C   0  0  0  0  0  2  0  0  0  0  0  0
  188.7010  177.6420  138.0580 O   0  0  0  0  0  0  0  0  0  0  0  0
  187.1070  178.7980  136.5960 C   0  0  0  0  0  1  0  0  0  0  0  0
  191.8320  175.4760  138.2170 C   0  0  0  0  0  2  0  0  0  0  0  0
  188.8670  177.2220  135.7960 C   0  0  0  0  0  0  0  0  0  0  0  0
  188.3280  172.8720  134.6750 C   0  0  0  0  0  3  0  0  0  0  0  0
  188.5260  177.1870  134.5830 O   0  0  0  0  0  0  0  0  0  0  0  0
  189.0730  171.6930  134.7590 C   0  0  0  0  0  3  0  0  0  0  0  0
  190.1180  176.8440  136.3520 C   0  0  0  0  0  0  0  0  0  0  0  0
  193.3140  174.9830  136.2640 N   0  0  0  0  0  0  0  0  0  0  0  0
  188.0900  177.7570  136.8400 N   0  0  0  0  0  0  0  0  0  0  0  0
  190.0530  177.2880  137.7740 C   0  0  2  0  0  3  0  0  0  0  0  0
  192.9150  172.9790  134.5120 S   0  0  0  0  0  0  0  0  0  0  0  0
  191.1190  176.1130  135.8520 C   0  0  0  0  0  0  0  0  0  0  0  0
  188.9790  174.1030  134.5610 C   0  0  0  0  0  3  0  0  0  0  0  0
  190.5120  176.1380  138.6790 C   0  0  0  0  0  2  0  0  0  0  0  0
  190.4680  171.7460  134.7210 C   0  0  0  0  0  3  0  0  0  0  0  0
  191.1260  172.9750  134.5990 C   0  0  0  0  0  0  0  0  0  0  0  0
  190.3770  174.1660  134.5230 C   0  0  0  0  0  0  0  0  0  0  0  0
  197.0710  176.5940  135.0790 C   0  0  0  0  0  3  0  0  0  0  0  0
  194.5880  175.5320  135.8620 C   0  0  0  0  0  0  0  0  0  0  0  0
  195.7860  174.8860  136.2140 C   0  0  0  0  0  3  0  0  0  0  0  0
  197.0200  175.4150  135.8250 C   0  0  0  0  0  3  0  0  0  0  0  0
  195.8880  177.2450  134.7210 C   0  0  0  0  0  3  0  0  0  0  0  0
  194.6540  176.7170  135.1090 C   0  0  0  0  0  3  0  0  0  0  0  0
  1 12  1  0  0  0  0
  2  6  1  1  0  0  0
  3 21  1  0  0  0  0
  3 16  1  0  0  0  0
  5 13  1  0  0  0  0
  6 18  1  0  0  0  0
  7 11  1  0  0  0  0
  7 13  1  0  0  0  0
  8 10  1  0  0  0  0
  9  7  2  0  0  0  0
 11 14  1  0  0  0  0
 12  2  1  0  0  0  0
 13  4  1  0  0  0  0
 14  4  1  0  0  0  0
 14 18  1  1  0  0  0
 15 20  1  0  0  0  0
 15  1  1  0  0  0  0
 16 11  2  0  0  0  0
 16  2  1  0  0  0  0
 17  8  2  0  0  0  0
 19 10  2  0  0  0  0
 20 19  1  0  0  0  0
 21 17  1  0  0  0  0
 21 20  2  0  0  0  0
 22 25  1  0  0  0  0
 23 24  1  0  0  0  0
 23 12  1  0  0  0  0
 25 24  2  0  0  0  0
 26 22  2  0  0  0  0
 26 27  1  0  0  0  0
 27 23  2  0  0  0  0
M  END
>  <MODEL>
7

>  <REMARK>
 VINA RESULT:      -5.2      3.324      6.555
  Name = 
  1 active torsions:
  status: ('A' for Active; 'I' for Inactive)
    1  A    between atoms: C_9  and  N_15
                            x       y       z     vdW  Elec       q    Type
                         _______ _______ _______ _____ _____    ______ ____

>  <TORSDO>
F 1

$$$$
=
 OpenBabel10272401013D

 27 31  0  0  1  0  0  0  0  0999 V2000
  189.3440  178.1360  137.4800 C   0  0  0  0  0  2  0  0  0  0  0  0
  190.4430  175.8580  137.4920 C   0  0  1  0  0  3  0  0  0  0  0  0
  187.8950  175.1400  137.5690 C   0  0  0  0  0  2  0  0  0  0  0  0
  190.9260  172.6980  134.7890 O   0  0  0  0  0  0  0  0  0  0  0  0
  189.5660  170.6570  134.7500 C   0  0  0  0  0  1  0  0  0  0  0  0
  191.3360  176.1830  136.2750 C   0  0  0  0  0  2  0  0  0  0  0  0
  188.9030  172.7720  135.8940 C   0  0  0  0  0  0  0  0  0  0  0  0
  186.0610  175.9340  134.3460 C   0  0  0  0  0  3  0  0  0  0  0  0
  187.7380  172.4260  136.2300 O   0  0  0  0  0  0  0  0  0  0  0  0
  185.9390  177.3230  134.4170 C   0  0  0  0  0  3  0  0  0  0  0  0
  189.6740  173.8370  136.4290 C   0  0  0  0  0  0  0  0  0  0  0  0
  190.0180  177.0620  138.2090 N   0  0  0  0  0  0  0  0  0  0  0  0
  189.7190  172.0830  134.9780 N   0  0  0  0  0  0  0  0  0  0  0  0
  191.0300  173.6610  135.8350 C   0  0  2  0  0  3  0  0  0  0  0  0
  187.6060  178.2410  138.0030 S   0  0  0  0  0  0  0  0  0  0  0  0
  189.3230  174.8950  137.1670 C   0  0  0  0  0  0  0  0  0  0  0  0
  186.6780  175.2330  135.3850 C   0  0  0  0  0  3  0  0  0  0  0  0
  191.5140  175.0080  135.2830 C   0  0  0  0  0  2  0  0  0  0  0  0
  186.4260  178.0100  135.5320 C   0  0  0  0  0  3  0  0  0  0  0  0
  187.0380  177.3130  136.5800 C   0  0  0  0  0  0  0  0  0  0  0  0
  187.1710  175.9130  136.5060 C   0  0  0  0  0  0  0  0  0  0  0  0
  190.9820  177.5030  142.3310 C   0  0  0  0  0  3  0  0  0  0  0  0
  190.3460  177.2130  139.6070 C   0  0  0  0  0  0  0  0  0  0  0  0
  189.3310  177.2750  140.5760 C   0  0  0  0  0  3  0  0  0  0  0  0
  189.6470  177.4200  141.9300 C   0  0  0  0  0  3  0  0  0  0  0  0
  192.0010  177.4400  141.3780 C   0  0  0  0  0  3  0  0  0  0  0  0
  191.6860  177.2950  140.0250 C   0  0  0  0  0  3  0  0  0  0  0  0
  1 15  1  0  0  0  0
  1 12  1  0  0  0  0
  2  6  1  6  0  0  0
  2 12  1  0  0  0  0
  4 13  1  0  0  0  0
  4 14  1  0  0  0  0
  5 13  1  0  0  0  0
  7  9  2  0  0  0  0
  7 11  1  0  0  0  0
  8 10  2  0  0  0  0
  8 17  1  0  0  0  0
 10 19  1  0  0  0  0
 11 16  2  0  0  0  0
 12 23  1  0  0  0  0
 13  7  1  0  0  0  0
 14 18  1  6  0  0  0
 14 11  1  0  0  0  0
 16  2  1  0  0  0  0
 16  3  1  0  0  0  0
 17 21  2  0  0  0  0
 18  6  1  0  0  0  0
 19 20  2  0  0  0  0
 20 15  1  0  0  0  0
 21 20  1  0  0  0  0
 21  3  1  0  0  0  0
 23 27  2  0  0  0  0
 23 24  1  0  0  0  0
 24 25  2  0  0  0  0
 25 22  1  0  0  0  0
 26 22  2  0  0  0  0
 27 26  1  0  0  0  0
M  END
>  <MODEL>
8

>  <REMARK>
 VINA RESULT:      -5.2      1.773      2.419
  Name = 
  1 active torsions:
  status: ('A' for Active; 'I' for Inactive)
    1  A    between atoms: C_9  and  N_15
                            x       y       z     vdW  Elec       q    Type
                         _______ _______ _______ _____ _____    ______ ____

>  <TORSDO>
F 1

$$$$
=
 OpenBabel10272401013D

 27 31  0  0  1  0  0  0  0  0999 V2000
  184.3410  175.8520  135.8530 C   0  0  0  0  0  2  0  0  0  0  0  0
  186.4800  177.1330  136.2790 C   0  0  1  0  0  3  0  0  0  0  0  0
  186.9600  174.9510  137.7020 C   0  0  0  0  0  2  0  0  0  0  0  0
  190.4840  176.8540  135.0860 O   0  0  0  0  0  0  0  0  0  0  0  0
  192.2860  175.8640  136.4230 C   0  0  0  0  0  1  0  0  0  0  0  0
  186.7250  177.4000  134.7780 C   0  0  0  0  0  2  0  0  0  0  0  0
  189.8550  175.4700  136.8210 C   0  0  0  0  0  0  0  0  0  0  0  0
  187.4280  171.8740  135.5360 C   0  0  0  0  0  3  0  0  0  0  0  0
  189.9700  174.5990  137.7240 O   0  0  0  0  0  0  0  0  0  0  0  0
  186.1230  171.6200  135.1080 C   0  0  0  0  0  3  0  0  0  0  0  0
  188.7100  176.2540  136.5190 C   0  0  0  0  0  0  0  0  0  0  0  0
  185.0670  176.8930  136.5800 N   0  0  0  0  0  0  0  0  0  0  0  0
  190.9000  175.9180  135.9910 N   0  0  0  0  0  0  0  0  0  0  0  0
  189.1880  177.2580  135.5250 C   0  0  2  0  0  3  0  0  0  0  0  0
  183.9360  174.4830  136.9790 S   0  0  0  0  0  0  0  0  0  0  0  0
  187.4270  176.1070  136.8620 C   0  0  0  0  0  0  0  0  0  0  0  0
  187.6850  172.9450  136.3960 C   0  0  0  0  0  3  0  0  0  0  0  0
  188.2070  177.3010  134.3460 C   0  0  0  0  0  2  0  0  0  0  0  0
  185.0750  172.4320  135.5470 C   0  0  0  0  0  3  0  0  0  0  0  0
  185.3240  173.5020  136.4150 C   0  0  0  0  0  0  0  0  0  0  0  0
  186.6410  173.7650  136.8410 C   0  0  0  0  0  0  0  0  0  0  0  0
  183.0620  179.4060  139.3680 C   0  0  0  0  0  3  0  0  0  0  0  0
  184.3850  177.7440  137.5260 C   0  0  0  0  0  0  0  0  0  0  0  0
  185.0920  178.3510  138.5780 C   0  0  0  0  0  3  0  0  0  0  0  0
  184.4340  179.1770  139.4940 C   0  0  0  0  0  3  0  0  0  0  0  0
  182.3480  178.8110  138.3260 C   0  0  0  0  0  3  0  0  0  0  0  0
  183.0050  177.9860  137.4100 C   0  0  0  0  0  3  0  0  0  0  0  0
  1 12  1  0  0  0  0
  1 15  1  0  0  0  0
  2  6  1  6  0  0  0
  2 12  1  0  0  0  0
  2 16  1  0  0  0  0
  4 14  1  0  0  0  0
  4 13  1  0  0  0  0
  7  9  2  0  0  0  0
  8 17  1  0  0  0  0
 10  8  2  0  0  0  0
 10 19  1  0  0  0  0
 11  7  1  0  0  0  0
 11 16  2  0  0  0  0
 12 23  1  0  0  0  0
 13  5  1  0  0  0  0
 13  7  1  0  0  0  0
 14 18  1  6  0  0  0
 14 11  1  0  0  0  0
 16  3  1  0  0  0  0
 17 21  2  0  0  0  0
 18  6  1  0  0  0  0
 19 20  2  0  0  0  0
 20 21  1  0  0  0  0
 20 15  1  0  0  0  0
 21  3  1  0  0  0  0
 22 25  1  0  0  0  0
 23 24  1  0  0  0  0
 24 25  2  0  0  0  0
 26 22  2  0  0  0  0
 27 23  2  0  0  0  0
 27 26  1  0  0  0  0
M  END
>  <MODEL>
9

>  <REMARK>
 VINA RESULT:      -5.0      3.596      5.200
  Name = 
  1 active torsions:
  status: ('A' for Active; 'I' for Inactive)
    1  A    between atoms: C_9  and  N_15
                            x       y       z     vdW  Elec       q    Type
                         _______ _______ _______ _____ _____    ______ ____

>  <TORSDO>
F 1

$$$$
