=
 OpenBabel10272414493D

 37 40  0  0  1  0  0  0  0  0999 V2000
  187.8700  176.9700  136.9040 C   0  0  1  0  0  0  0  0  0  0  0  0
  184.6440  176.9100  135.6250 S   0  0  0  0  0  0  0  0  0  0  0  0
  184.2050  178.9570  139.0450 C   0  0  0  0  0  3  0  0  0  0  0  0
  189.3460  177.4370  136.7620 C   0  0  1  0  0  3  0  0  0  0  0  0
  188.7960  177.0640  141.4800 C   0  0  0  0  0  2  0  0  0  0  0  0
  183.4660  176.2000  137.8990 C   0  0  0  0  0  3  0  0  0  0  0  0
  189.0380  178.4680  139.5510 O   0  0  0  0  0  1  0  0  0  0  0  0
  191.1000  176.5390  139.5160 O   0  0  0  0  0  1  0  0  0  0  0  0
  184.1100  178.6020  137.7640 C   0  0  0  0  0  3  0  0  0  0  0  0
  186.6200  177.8780  142.4260 C   0  0  0  0  0  2  0  0  0  0  0  0
  182.8370  176.2390  139.2330 C   0  0  0  0  0  3  0  0  0  0  0  0
  190.3820  176.3830  137.1840 C   0  0  2  0  0  3  0  0  0  0  0  0
  187.3570  176.3570  135.5900 C   0  0  0  0  0  2  0  0  0  0  0  0
  185.1230  178.1900  134.9980 O   0  0  0  0  0  0  0  0  0  0  0  0
  184.4850  178.7180  141.4790 C   0  0  0  0  0  2  0  0  0  0  0  0
  183.1910  177.0460  140.2320 C   0  0  0  0  0  3  0  0  0  0  0  0
  185.9710  175.7140  135.6750 C   0  0  0  0  0  2  0  0  0  0  0  0
  190.1790  175.9400  138.6500 C   0  0  2  0  0  3  0  0  0  0  0  0
  188.4130  177.3120  140.0290 C   0  0  1  0  0  3  0  0  0  0  0  0
  184.3570  177.9740  140.1610 C   0  0  1  0  0  3  0  0  0  0  0  0
  187.7110  175.9310  138.0330 C   0  0  0  0  0  2  0  0  0  0  0  0
  184.0650  177.2140  137.2570 C   0  0  0  0  0  0  0  0  0  0  0  0
  188.1290  178.0780  142.4020 C   0  0  1  0  0  3  0  0  0  0  0  0
  183.5160  176.3620  134.7980 O   0  0  0  0  0  0  0  0  0  0  0  0
  188.7260  176.0820  139.1650 C   0  0  1  0  0  3  0  0  0  0  0  0
  191.6850  176.8460  136.9810 O   0  0  0  0  0  1  0  0  0  0  0  0
  187.1030  178.0910  137.2170 O   0  0  0  0  0  1  0  0  0  0  0  0
  185.9390  179.0560  141.7560 C   0  0  0  0  0  2  0  0  0  0  0  0
  190.0690  178.1850  144.0210 C   0  0  0  0  0  3  0  0  0  0  0  0
  188.6980  177.9940  143.7830 C   0  0  0  0  0  0  0  0  0  0  0  0
  187.8440  177.7180  144.8560 C   0  0  0  0  0  3  0  0  0  0  0  0
  187.5190  177.3670  147.1910 F   0  0  0  0  0  0  0  0  0  0  0  0
  189.7160  177.8250  146.3890 C   0  0  0  0  0  3  0  0  0  0  0  0
  188.3510  177.6340  146.1560 C   0  0  0  0  0  0  0  0  0  0  0  0
  190.5750  178.1010  145.3210 C   0  0  0  0  0  3  0  0  0  0  0  0
  190.1430  177.3040  134.3480 C   0  0  0  0  0  1  0  0  0  0  0  0
  189.6810  178.2110  135.4780 C   0  0  0  0  0  2  0  0  0  0  0  0
  1 27  1  1  0  0  0
  1 21  1  0  0  0  0
  2 17  1  0  0  0  0
  2 22  1  0  0  0  0
  4 37  1  6  0  0  0
  4  1  1  0  0  0  0
  4 12  1  0  0  0  0
  5 23  1  0  0  0  0
  6 11  1  0  0  0  0
  9  3  2  0  0  0  0
 11 16  2  0  0  0  0
 12 26  1  1  0  0  0
 12 18  1  0  0  0  0
 13 17  1  0  0  0  0
 13  1  1  0  0  0  0
 14  2  2  0  0  0  0
 15 28  1  0  0  0  0
 18 25  1  0  0  0  0
 18  8  1  1  0  0  0
 19  7  1  6  0  0  0
 19  5  1  0  0  0  0
 20  3  1  6  0  0  0
 20 16  1  0  0  0  0
 20 15  1  0  0  0  0
 22  9  1  0  0  0  0
 22  6  2  0  0  0  0
 23 10  1  0  0  0  0
 23 30  1  1  0  0  0
 24  2  2  0  0  0  0
 25 21  1  6  0  0  0
 25 19  1  0  0  0  0
 28 10  1  0  0  0  0
 29 35  1  0  0  0  0
 30 29  2  0  0  0  0
 30 31  1  0  0  0  0
 31 34  2  0  0  0  0
 34 33  1  0  0  0  0
 34 32  1  0  0  0  0
 35 33  2  0  0  0  0
 36 37  1  0  0  0  0
M  END
>  <MODEL>
1

>  <REMARK>
 VINA RESULT:      -6.5      0.000      0.000
  Name = 
  2 active torsions:
  status: ('A' for Active; 'I' for Inactive)
    1  A    between atoms: C_5  and  C_23
    2  A    between atoms: C_6  and  C_31
                            x       y       z     vdW  Elec       q    Type
                         _______ _______ _______ _____ _____    ______ ____

>  <TORSDO>
F 2

$$$$
=
 OpenBabel10272414493D

 37 40  0  0  1  0  0  0  0  0999 V2000
  189.5710  177.6130  142.2530 C   0  0  1  0  0  0  0  0  0  0  0  0
  191.2720  176.7610  139.3500 S   0  0  0  0  0  0  0  0  0  0  0  0
  188.0130  178.6310  137.9510 C   0  0  0  0  0  3  0  0  0  0  0  0
  189.5270  178.4280  143.5750 C   0  0  1  0  0  3  0  0  0  0  0  0
  184.9170  177.9250  142.4800 C   0  0  0  0  0  2  0  0  0  0  0  0
  189.1570  175.7790  138.0760 C   0  0  0  0  0  3  0  0  0  0  0  0
  186.8410  179.3480  142.6380 O   0  0  0  0  0  1  0  0  0  0  0  0
  186.5320  177.9870  145.0930 O   0  0  0  0  0  1  0  0  0  0  0  0
  189.2830  178.2660  138.1260 C   0  0  0  0  0  3  0  0  0  0  0  0
  184.3020  178.1760  140.0610 C   0  0  0  0  0  2  0  0  0  0  0  0
  187.9220  175.6590  137.2760 C   0  0  0  0  0  3  0  0  0  0  0  0
  188.9330  177.6620  144.7670 C   0  0  2  0  0  3  0  0  0  0  0  0
  190.9210  176.8940  142.0930 C   0  0  0  0  0  2  0  0  0  0  0  0
  191.8710  178.1210  139.5840 O   0  0  0  0  0  0  0  0  0  0  0  0
  185.5570  178.4650  137.9400 C   0  0  0  0  0  2  0  0  0  0  0  0
  186.9120  176.5280  137.2800 C   0  0  0  0  0  3  0  0  0  0  0  0
  191.0040  175.9280  140.9080 C   0  0  0  0  0  2  0  0  0  0  0  0
  187.4950  177.1810  144.4770 C   0  0  2  0  0  3  0  0  0  0  0  0
  186.4140  178.0730  142.2550 C   0  0  1  0  0  3  0  0  0  0  0  0
  186.8550  177.7150  138.1820 C   0  0  1  0  0  3  0  0  0  0  0  0
  188.4400  176.5650  142.1960 C   0  0  0  0  0  2  0  0  0  0  0  0
  189.7450  176.9110  138.4920 C   0  0  0  0  0  0  0  0  0  0  0  0
  184.1270  178.7420  141.4640 C   0  0  1  0  0  3  0  0  0  0  0  0
  192.2260  175.9530  138.5170 O   0  0  0  0  0  0  0  0  0  0  0  0
  187.1870  176.9600  142.9750 C   0  0  1  0  0  3  0  0  0  0  0  0
  188.9740  178.4330  145.9330 O   0  0  0  0  0  1  0  0  0  0  0  0
  189.4010  178.5100  141.1990 O   0  0  0  0  0  1  0  0  0  0  0  0
  185.0970  179.1510  139.2130 C   0  0  0  0  0  2  0  0  0  0  0  0
  181.6750  178.8660  140.8600 C   0  0  0  0  0  3  0  0  0  0  0  0
  182.6800  178.7990  141.8380 C   0  0  0  0  0  0  0  0  0  0  0  0
  182.3270  178.7870  143.1910 C   0  0  0  0  0  3  0  0  0  0  0  0
  180.6440  178.8280  144.8800 F   0  0  0  0  0  0  0  0  0  0  0  0
  179.9830  178.9060  142.5910 C   0  0  0  0  0  3  0  0  0  0  0  0
  180.9810  178.8400  143.5680 C   0  0  0  0  0  0  0  0  0  0  0  0
  180.3310  178.9190  141.2370 C   0  0  0  0  0  3  0  0  0  0  0  0
  191.9090  178.4330  144.4740 C   0  0  0  0  0  1  0  0  0  0  0  0
  190.7790  179.2640  143.8860 C   0  0  0  0  0  2  0  0  0  0  0  0
  1 27  1  6  0  0  0
  1  4  1  0  0  0  0
  2 14  2  0  0  0  0
  2 17  1  0  0  0  0
  3  9  2  0  0  0  0
  3 20  1  0  0  0  0
  4 37  1  1  0  0  0
  4 12  1  0  0  0  0
  6 22  2  0  0  0  0
  9 22  1  0  0  0  0
 10 23  1  0  0  0  0
 11 16  2  0  0  0  0
 11  6  1  0  0  0  0
 12 26  1  1  0  0  0
 13  1  1  0  0  0  0
 15 20  1  0  0  0  0
 15 28  1  0  0  0  0
 17 13  1  0  0  0  0
 18 12  1  0  0  0  0
 18  8  1  6  0  0  0
 19  5  1  0  0  0  0
 19  7  1  1  0  0  0
 19 25  1  0  0  0  0
 20 16  1  6  0  0  0
 21  1  1  0  0  0  0
 22  2  1  0  0  0  0
 23 30  1  1  0  0  0
 23  5  1  0  0  0  0
 24  2  2  0  0  0  0
 25 21  1  6  0  0  0
 25 18  1  0  0  0  0
 28 10  1  0  0  0  0
 29 35  2  0  0  0  0
 29 30  1  0  0  0  0
 30 31  2  0  0  0  0
 31 34  1  0  0  0  0
 33 34  2  0  0  0  0
 34 32  1  0  0  0  0
 35 33  1  0  0  0  0
 37 36  1  0  0  0  0
M  END
>  <MODEL>
2

>  <REMARK>
 VINA RESULT:      -6.4      3.140      6.690
  Name = 
  2 active torsions:
  status: ('A' for Active; 'I' for Inactive)
    1  A    between atoms: C_5  and  C_23
    2  A    between atoms: C_6  and  C_31
                            x       y       z     vdW  Elec       q    Type
                         _______ _______ _______ _____ _____    ______ ____

>  <TORSDO>
F 2

$$$$
=
 OpenBabel10272414493D

 37 40  0  0  1  0  0  0  0  0999 V2000
  181.8120  175.8060  137.6900 C   0  0  1  0  0  0  0  0  0  0  0  0
  180.9240  178.2470  139.9920 S   0  0  0  0  0  0  0  0  0  0  0  0
  184.5650  179.4320  138.8040 C   0  0  0  0  0  3  0  0  0  0  0  0
  181.5460  175.1070  136.3280 C   0  0  1  0  0  3  0  0  0  0  0  0
  186.2320  174.4980  136.9400 C   0  0  0  0  0  2  0  0  0  0  0  0
  183.2340  178.2330  141.3040 C   0  0  0  0  0  3  0  0  0  0  0  0
  184.4440  175.5980  135.7810 O   0  0  0  0  0  1  0  0  0  0  0  0
  183.9660  172.8150  135.7260 O   0  0  0  0  0  1  0  0  0  0  0  0
  183.2740  179.4550  139.1350 C   0  0  0  0  0  3  0  0  0  0  0  0
  187.5070  176.4500  137.8660 C   0  0  0  0  0  2  0  0  0  0  0  0
  184.6310  178.4960  141.7050 C   0  0  0  0  0  3  0  0  0  0  0  0
  181.7320  173.5810  136.3580 C   0  0  2  0  0  3  0  0  0  0  0  0
  180.5120  175.9520  138.4980 C   0  0  0  0  0  2  0  0  0  0  0  0
  180.3800  178.8890  138.7460 O   0  0  0  0  0  0  0  0  0  0  0  0
  186.9110  178.6870  138.7600 C   0  0  0  0  0  2  0  0  0  0  0  0
  185.6590  178.6460  140.8710 C   0  0  0  0  0  3  0  0  0  0  0  0
  180.6920  176.4760  139.9250 C   0  0  0  0  0  2  0  0  0  0  0  0
  183.1580  173.1890  136.8040 C   0  0  2  0  0  3  0  0  0  0  0  0
  184.8700  175.1670  137.0410 C   0  0  1  0  0  3  0  0  0  0  0  0
  185.5470  178.4720  139.3930 C   0  0  1  0  0  3  0  0  0  0  0  0
  182.8380  175.0260  138.5370 C   0  0  0  0  0  2  0  0  0  0  0  0
  182.6350  178.6100  140.1650 C   0  0  0  0  0  0  0  0  0  0  0  0
  187.3270  175.5250  136.6710 C   0  0  1  0  0  3  0  0  0  0  0  0
  180.1830  178.7960  141.1790 O   0  0  0  0  0  0  0  0  0  0  0  0
  183.8520  174.2350  137.7120 C   0  0  1  0  0  3  0  0  0  0  0  0
  181.4250  173.0110  135.1180 O   0  0  0  0  0  1  0  0  0  0  0  0
  182.3280  177.0720  137.4180 O   0  0  0  0  0  1  0  0  0  0  0  0
  187.0480  177.8490  137.5020 C   0  0  0  0  0  2  0  0  0  0  0  0
  188.7820  174.1810  135.0980 C   0  0  0  0  0  3  0  0  0  0  0  0
  188.6150  174.8480  136.3230 C   0  0  0  0  0  0  0  0  0  0  0  0
  189.6700  174.8810  137.2400 C   0  0  0  0  0  3  0  0  0  0  0  0
  191.9030  174.2920  137.8310 F   0  0  0  0  0  0  0  0  0  0  0  0
  191.0470  173.5930  135.7190 C   0  0  0  0  0  3  0  0  0  0  0  0
  190.8840  174.2560  136.9400 C   0  0  0  0  0  0  0  0  0  0  0  0
  189.9950  173.5570  134.7990 C   0  0  0  0  0  3  0  0  0  0  0  0
  180.6930  176.4590  134.3470 C   0  0  0  0  0  1  0  0  0  0  0  0
  180.3190  175.6050  135.5490 C   0  0  0  0  0  2  0  0  0  0  0  0
  1 27  1  6  0  0  0
  1 13  1  0  0  0  0
  1 21  1  0  0  0  0
  2 22  1  0  0  0  0
  2 24  2  0  0  0  0
  3  9  2  0  0  0  0
  3 20  1  0  0  0  0
  4 37  1  1  0  0  0
  4 12  1  0  0  0  0
  4  1  1  0  0  0  0
  5 19  1  0  0  0  0
  6 11  1  0  0  0  0
  9 22  1  0  0  0  0
 12 26  1  6  0  0  0
 12 18  1  0  0  0  0
 13 17  1  0  0  0  0
 14  2  2  0  0  0  0
 16 11  2  0  0  0  0
 17  2  1  0  0  0  0
 18  8  1  6  0  0  0
 18 25  1  0  0  0  0
 19  7  1  6  0  0  0
 19 25  1  0  0  0  0
 20 15  1  6  0  0  0
 20 16  1  0  0  0  0
 22  6  2  0  0  0  0
 23 30  1  1  0  0  0
 23  5  1  0  0  0  0
 23 10  1  0  0  0  0
 25 21  1  6  0  0  0
 28 10  1  0  0  0  0
 28 15  1  0  0  0  0
 29 30  1  0  0  0  0
 30 31  2  0  0  0  0
 33 34  2  0  0  0  0
 34 31  1  0  0  0  0
 34 32  1  0  0  0  0
 35 29  2  0  0  0  0
 35 33  1  0  0  0  0
 36 37  1  0  0  0  0
M  END
>  <MODEL>
3

>  <REMARK>
 VINA RESULT:      -6.2      4.103      7.205
  Name = 
  2 active torsions:
  status: ('A' for Active; 'I' for Inactive)
    1  A    between atoms: C_5  and  C_23
    2  A    between atoms: C_6  and  C_31
                            x       y       z     vdW  Elec       q    Type
                         _______ _______ _______ _____ _____    ______ ____

>  <TORSDO>
F 2

$$$$
=
 OpenBabel10272414493D

 37 40  0  0  1  0  0  0  0  0999 V2000
  190.4750  176.9020  139.5450 C   0  0  1  0  0  0  0  0  0  0  0  0
  189.9260  176.2010  136.1910 S   0  0  0  0  0  0  0  0  0  0  0  0
  186.7830  178.5030  137.1420 C   0  0  0  0  0  3  0  0  0  0  0  0
  191.3560  177.5770  140.6330 C   0  0  1  0  0  3  0  0  0  0  0  0
  187.0150  177.6240  142.5980 C   0  0  0  0  0  2  0  0  0  0  0  0
  187.3620  175.5590  136.4660 C   0  0  0  0  0  3  0  0  0  0  0  0
  188.8120  178.8360  141.5720 O   0  0  0  0  0  1  0  0  0  0  0  0
  189.8750  177.2630  143.6620 O   0  0  0  0  0  1  0  0  0  0  0  0
  187.8330  178.0040  136.4880 C   0  0  0  0  0  3  0  0  0  0  0  0
  185.0990  178.1810  141.0780 C   0  0  0  0  0  2  0  0  0  0  0  0
  185.8940  175.6390  136.5940 C   0  0  0  0  0  3  0  0  0  0  0  0
  191.5110  176.7500  141.9190 C   0  0  2  0  0  3  0  0  0  0  0  0
  191.3360  176.0810  138.5710 C   0  0  0  0  0  2  0  0  0  0  0  0
  190.7230  177.4670  136.0400 O   0  0  0  0  0  0  0  0  0  0  0  0
  184.8320  178.5690  138.6410 C   0  0  0  0  0  2  0  0  0  0  0  0
  185.2250  176.5930  137.2400 C   0  0  0  0  0  3  0  0  0  0  0  0
  190.5480  175.2400  137.5630 C   0  0  0  0  0  2  0  0  0  0  0  0
  190.1430  176.4390  142.5640 C   0  0  2  0  0  3  0  0  0  0  0  0
  188.0700  177.6530  141.5020 C   0  0  1  0  0  3  0  0  0  0  0  0
  185.8910  177.6800  138.0140 C   0  0  1  0  0  3  0  0  0  0  0  0
  189.4120  175.9770  140.1710 C   0  0  0  0  0  2  0  0  0  0  0  0
  188.2300  176.5810  136.4590 C   0  0  0  0  0  0  0  0  0  0  0  0
  185.8930  178.6120  142.3030 C   0  0  1  0  0  3  0  0  0  0  0  0
  190.0550  175.3980  134.9280 O   0  0  0  0  0  0  0  0  0  0  0  0
  188.9590  176.4040  141.5660 C   0  0  1  0  0  3  0  0  0  0  0  0
  192.3570  177.3890  142.8310 O   0  0  0  0  0  1  0  0  0  0  0  0
  189.8260  177.9160  138.8420 O   0  0  0  0  0  1  0  0  0  0  0  0
  185.3400  179.1590  139.9440 C   0  0  0  0  0  2  0  0  0  0  0  0
  183.6240  179.0240  143.3410 C   0  0  0  0  0  3  0  0  0  0  0  0
  184.9960  178.7650  143.4900 C   0  0  0  0  0  0  0  0  0  0  0  0
  185.5400  178.6490  144.7740 C   0  0  0  0  0  3  0  0  0  0  0  0
  185.2560  178.6740  147.1410 F   0  0  0  0  0  0  0  0  0  0  0  0
  183.3570  179.0460  145.7470 C   0  0  0  0  0  3  0  0  0  0  0  0
  184.7230  178.7880  145.9000 C   0  0  0  0  0  0  0  0  0  0  0  0
  182.8090  179.1630  144.4670 C   0  0  0  0  0  3  0  0  0  0  0  0
  193.7960  177.2800  139.9710 C   0  0  0  0  0  1  0  0  0  0  0  0
  192.6390  178.2550  140.1280 C   0  0  0  0  0  2  0  0  0  0  0  0
  1 27  1  6  0  0  0
  1 21  1  0  0  0  0
  1  4  1  0  0  0  0
  2 22  1  0  0  0  0
  2 17  1  0  0  0  0
  4 37  1  6  0  0  0
  4 12  1  0  0  0  0
  6 11  1  0  0  0  0
  9  3  2  0  0  0  0
 10 23  1  0  0  0  0
 11 16  2  0  0  0  0
 12 18  1  0  0  0  0
 12 26  1  1  0  0  0
 13  1  1  0  0  0  0
 14  2  2  0  0  0  0
 15 28  1  0  0  0  0
 16 20  1  0  0  0  0
 17 13  1  0  0  0  0
 18  8  1  1  0  0  0
 19 25  1  0  0  0  0
 19  7  1  1  0  0  0
 19  5  1  0  0  0  0
 20  3  1  6  0  0  0
 20 15  1  0  0  0  0
 22  6  2  0  0  0  0
 22  9  1  0  0  0  0
 23  5  1  0  0  0  0
 23 30  1  1  0  0  0
 24  2  2  0  0  0  0
 25 21  1  6  0  0  0
 25 18  1  0  0  0  0
 28 10  1  0  0  0  0
 29 30  2  0  0  0  0
 29 35  1  0  0  0  0
 30 31  1  0  0  0  0
 31 34  2  0  0  0  0
 33 34  1  0  0  0  0
 34 32  1  0  0  0  0
 35 33  2  0  0  0  0
 36 37  1  0  0  0  0
M  END
>  <MODEL>
4

>  <REMARK>
 VINA RESULT:      -5.6      2.532      4.354
  Name = 
  2 active torsions:
  status: ('A' for Active; 'I' for Inactive)
    1  A    between atoms: C_5  and  C_23
    2  A    between atoms: C_6  and  C_31
                            x       y       z     vdW  Elec       q    Type
                         _______ _______ _______ _____ _____    ______ ____

>  <TORSDO>
F 2

$$$$
=
 OpenBabel10272414493D

 37 40  0  0  1  0  0  0  0  0999 V2000
  185.8150  174.6450  135.6140 C   0  0  1  0  0  0  0  0  0  0  0  0
  189.2780  174.8760  135.6390 S   0  0  0  0  0  0  0  0  0  0  0  0
  188.2350  176.8290  138.9820 C   0  0  0  0  0  3  0  0  0  0  0  0
  184.5440  173.7540  135.6850 C   0  0  1  0  0  3  0  0  0  0  0  0
  183.0300  177.9100  137.4550 C   0  0  0  0  0  2  0  0  0  0  0  0
  189.3710  177.4720  136.1970 C   0  0  0  0  0  3  0  0  0  0  0  0
  183.6430  175.6230  137.8360 O   0  0  0  0  0  1  0  0  0  0  0  0
  181.7770  175.7070  135.7180 O   0  0  0  0  0  1  0  0  0  0  0  0
  188.8640  176.0050  138.1440 C   0  0  0  0  0  3  0  0  0  0  0  0
  184.6020  179.1160  138.9930 C   0  0  0  0  0  2  0  0  0  0  0  0
  189.3730  178.7610  136.9160 C   0  0  0  0  0  3  0  0  0  0  0  0
  183.4190  174.1870  134.7320 C   0  0  2  0  0  3  0  0  0  0  0  0
  186.8340  174.0730  134.6140 C   0  0  0  0  0  2  0  0  0  0  0  0
  189.1210  173.5980  136.4160 O   0  0  0  0  0  0  0  0  0  0  0  0
  186.9430  178.7810  139.7460 C   0  0  0  0  0  2  0  0  0  0  0  0
  188.6330  179.0510  137.9860 C   0  0  0  0  0  3  0  0  0  0  0  0
  188.0480  174.9670  134.3460 C   0  0  0  0  0  2  0  0  0  0  0  0
  182.9750  175.6420  134.9980 C   0  0  2  0  0  3  0  0  0  0  0  0
  183.9960  176.7800  137.1350 C   0  0  1  0  0  3  0  0  0  0  0  0
  187.6150  178.1200  138.5540 C   0  0  1  0  0  3  0  0  0  0  0  0
  185.4710  176.0910  135.2030 C   0  0  0  0  0  2  0  0  0  0  0  0
  189.1100  176.2610  136.7090 C   0  0  0  0  0  0  0  0  0  0  0  0
  183.2480  178.4310  138.8710 C   0  0  1  0  0  3  0  0  0  0  0  0
  190.6470  174.8980  135.0200 O   0  0  0  0  0  0  0  0  0  0  0  0
  184.0720  176.5410  135.6200 C   0  0  1  0  0  3  0  0  0  0  0  0
  182.3300  173.3130  134.8060 O   0  0  0  0  0  1  0  0  0  0  0  0
  186.3840  174.6670  136.8870 O   0  0  0  0  0  1  0  0  0  0  0  0
  185.5130  178.2920  139.8840 C   0  0  0  0  0  2  0  0  0  0  0  0
  181.3400  179.0940  140.3920 C   0  0  0  0  0  3  0  0  0  0  0  0
  182.1450  179.3580  139.2720 C   0  0  0  0  0  0  0  0  0  0  0  0
  181.9130  180.5090  138.5110 C   0  0  0  0  0  3  0  0  0  0  0  0
  180.6680  182.5050  138.1240 F   0  0  0  0  0  0  0  0  0  0  0  0
  180.0880  181.1260  139.9800 C   0  0  0  0  0  3  0  0  0  0  0  0
  180.8880  181.3920  138.8640 C   0  0  0  0  0  0  0  0  0  0  0  0
  180.3150  179.9770  140.7430 C   0  0  0  0  0  3  0  0  0  0  0  0
  183.9970  171.5700  136.8740 C   0  0  0  0  0  1  0  0  0  0  0  0
  184.7930  172.2390  135.7640 C   0  0  0  0  0  2  0  0  0  0  0  0
  1  4  1  0  0  0  0
  1 27  1  1  0  0  0
  2 14  2  0  0  0  0
  2 22  1  0  0  0  0
  4 37  1  6  0  0  0
  5 23  1  0  0  0  0
  6 22  2  0  0  0  0
  6 11  1  0  0  0  0
  9  3  2  0  0  0  0
 10 28  1  0  0  0  0
 11 16  2  0  0  0  0
 12 26  1  1  0  0  0
 12 18  1  0  0  0  0
 12  4  1  0  0  0  0
 13  1  1  0  0  0  0
 15 28  1  0  0  0  0
 17 13  1  0  0  0  0
 17  2  1  0  0  0  0
 18 25  1  0  0  0  0
 18  8  1  1  0  0  0
 19  5  1  0  0  0  0
 19  7  1  1  0  0  0
 20 16  1  1  0  0  0
 20  3  1  0  0  0  0
 20 15  1  0  0  0  0
 21  1  1  0  0  0  0
 22  9  1  0  0  0  0
 23 10  1  0  0  0  0
 23 30  1  6  0  0  0
 24  2  2  0  0  0  0
 25 21  1  1  0  0  0
 25 19  1  0  0  0  0
 29 35  1  0  0  0  0
 30 29  2  0  0  0  0
 31 34  2  0  0  0  0
 31 30  1  0  0  0  0
 32 34  1  0  0  0  0
 33 35  2  0  0  0  0
 34 33  1  0  0  0  0
 37 36  1  0  0  0  0
M  END
>  <MODEL>
5

>  <REMARK>
 VINA RESULT:      -5.5      3.880      7.180
  Name = 
  2 active torsions:
  status: ('A' for Active; 'I' for Inactive)
    1  A    between atoms: C_5  and  C_23
    2  A    between atoms: C_6  and  C_31
                            x       y       z     vdW  Elec       q    Type
                         _______ _______ _______ _____ _____    ______ ____

>  <TORSDO>
F 2

$$$$
=
 OpenBabel10272414493D

 37 40  0  0  1  0  0  0  0  0999 V2000
  185.5890  176.9650  136.7190 C   0  0  1  0  0  0  0  0  0  0  0  0
  182.4020  175.5980  136.5790 S   0  0  0  0  0  0  0  0  0  0  0  0
  184.7240  172.3770  137.1370 C   0  0  0  0  0  3  0  0  0  0  0  0
  186.6080  177.8820  137.4480 C   0  0  1  0  0  3  0  0  0  0  0  0
  189.4060  174.6790  135.3000 C   0  0  0  0  0  2  0  0  0  0  0  0
  183.0240  173.6330  134.9020 C   0  0  0  0  0  3  0  0  0  0  0  0
  188.4490  175.5300  137.3280 O   0  0  0  0  0  1  0  0  0  0  0  0
  189.6260  177.6790  135.9250 O   0  0  0  0  0  1  0  0  0  0  0  0
  183.7260  173.2530  137.2610 C   0  0  0  0  0  3  0  0  0  0  0  0
  188.6180  172.2980  135.3320 C   0  0  0  0  0  2  0  0  0  0  0  0
  183.4970  172.3500  134.3460 C   0  0  0  0  0  3  0  0  0  0  0  0
  187.4900  178.7170  136.5060 C   0  0  2  0  0  3  0  0  0  0  0  0
  184.2350  177.6730  136.5470 C   0  0  0  0  0  2  0  0  0  0  0  0
  182.4910  175.8370  138.0610 O   0  0  0  0  0  0  0  0  0  0  0  0
  186.5630  171.1260  136.0820 C   0  0  0  0  0  2  0  0  0  0  0  0
  184.5490  171.6590  134.7830 C   0  0  0  0  0  3  0  0  0  0  0  0
  183.2140  176.9190  135.6910 C   0  0  0  0  0  2  0  0  0  0  0  0
  188.2910  177.8230  135.5340 C   0  0  2  0  0  3  0  0  0  0  0  0
  188.1710  175.2380  135.9890 C   0  0  1  0  0  3  0  0  0  0  0  0
  185.4610  172.1480  135.8580 C   0  0  1  0  0  3  0  0  0  0  0  0
  186.1050  176.5360  135.3300 C   0  0  0  0  0  2  0  0  0  0  0  0
  183.1520  174.0630  136.1660 C   0  0  0  0  0  0  0  0  0  0  0  0
  189.7060  173.2630  135.7810 C   0  0  1  0  0  3  0  0  0  0  0  0
  180.9520  175.5580  136.1850 O   0  0  0  0  0  0  0  0  0  0  0  0
  187.6280  176.4570  135.2300 C   0  0  1  0  0  3  0  0  0  0  0  0
  188.3440  179.5580  137.2260 O   0  0  0  0  0  1  0  0  0  0  0  0
  185.4140  175.8240  137.5010 O   0  0  0  0  0  1  0  0  0  0  0  0
  187.8370  171.8130  136.5390 C   0  0  0  0  0  2  0  0  0  0  0  0
  191.2460  171.5190  134.7910 C   0  0  0  0  0  3  0  0  0  0  0  0
  191.0490  172.8130  135.2990 C   0  0  0  0  0  0  0  0  0  0  0  0
  192.1270  173.7020  135.3610 C   0  0  0  0  0  3  0  0  0  0  0  0
  194.4330  174.1710  134.9790 F   0  0  0  0  0  0  0  0  0  0  0  0
  193.5850  172.0160  134.4120 C   0  0  0  0  0  3  0  0  0  0  0  0
  193.3920  173.3060  134.9180 C   0  0  0  0  0  0  0  0  0  0  0  0
  192.5110  171.1240  134.3490 C   0  0  0  0  0  3  0  0  0  0  0  0
  186.9040  178.3690  139.9300 C   0  0  0  0  0  1  0  0  0  0  0  0
  186.0740  178.6270  138.6820 C   0  0  0  0  0  2  0  0  0  0  0  0
  1  4  1  0  0  0  0
  1 27  1  1  0  0  0
  2 14  2  0  0  0  0
  3  9  2  0  0  0  0
  4 37  1  1  0  0  0
  5 23  1  0  0  0  0
  5 19  1  0  0  0  0
  6 22  2  0  0  0  0
 10 23  1  0  0  0  0
 10 28  1  0  0  0  0
 11 16  2  0  0  0  0
 11  6  1  0  0  0  0
 12 26  1  1  0  0  0
 12  4  1  0  0  0  0
 13  1  1  0  0  0  0
 15 28  1  0  0  0  0
 17 13  1  0  0  0  0
 17  2  1  0  0  0  0
 18  8  1  1  0  0  0
 18 12  1  0  0  0  0
 19  7  1  1  0  0  0
 20 16  1  6  0  0  0
 20 15  1  0  0  0  0
 20  3  1  0  0  0  0
 21  1  1  0  0  0  0
 22  2  1  0  0  0  0
 22  9  1  0  0  0  0
 23 30  1  6  0  0  0
 24  2  2  0  0  0  0
 25 21  1  1  0  0  0
 25 18  1  0  0  0  0
 25 19  1  0  0  0  0
 29 30  1  0  0  0  0
 30 31  2  0  0  0  0
 33 34  2  0  0  0  0
 34 32  1  0  0  0  0
 34 31  1  0  0  0  0
 35 33  1  0  0  0  0
 35 29  2  0  0  0  0
 37 36  1  0  0  0  0
M  END
>  <MODEL>
6

>  <REMARK>
 VINA RESULT:      -5.4      4.105      7.369
  Name = 
  2 active torsions:
  status: ('A' for Active; 'I' for Inactive)
    1  A    between atoms: C_5  and  C_23
    2  A    between atoms: C_6  and  C_31
                            x       y       z     vdW  Elec       q    Type
                         _______ _______ _______ _____ _____    ______ ____

>  <TORSDO>
F 2

$$$$
=
 OpenBabel10272414493D

 37 40  0  0  1  0  0  0  0  0999 V2000
  187.6740  175.0850  136.1260 C   0  0  1  0  0  0  0  0  0  0  0  0
  187.3850  171.6540  135.6880 S   0  0  0  0  0  0  0  0  0  0  0  0
  183.8610  173.0180  134.3460 C   0  0  0  0  0  3  0  0  0  0  0  0
  188.3820  176.4160  135.7510 C   0  0  1  0  0  3  0  0  0  0  0  0
  184.0220  177.8540  137.0260 C   0  0  0  0  0  2  0  0  0  0  0  0
  184.9600  171.4490  136.7530 C   0  0  0  0  0  3  0  0  0  0  0  0
  185.6260  177.4750  135.2840 O   0  0  0  0  0  1  0  0  0  0  0  0
  186.8570  179.0050  137.3130 O   0  0  0  0  0  1  0  0  0  0  0  0
  185.0060  172.3390  134.4280 C   0  0  0  0  0  3  0  0  0  0  0  0
  182.1020  176.4340  136.2610 C   0  0  0  0  0  2  0  0  0  0  0  0
  183.4960  171.4540  136.9380 C   0  0  0  0  0  3  0  0  0  0  0  0
  188.6240  177.3570  136.9420 C   0  0  2  0  0  3  0  0  0  0  0  0
  188.7000  173.9780  136.4210 C   0  0  0  0  0  2  0  0  0  0  0  0
  187.9610  172.0160  134.3460 O   0  0  0  0  0  0  0  0  0  0  0  0
  181.8690  174.2570  135.0920 C   0  0  0  0  0  2  0  0  0  0  0  0
  182.6490  172.3160  136.3770 C   0  0  0  0  0  3  0  0  0  0  0  0
  188.1070  172.6750  136.9640 C   0  0  0  0  0  2  0  0  0  0  0  0
  187.3050  177.7250  137.6550 C   0  0  2  0  0  3  0  0  0  0  0  0
  185.0990  176.9390  136.4630 C   0  0  1  0  0  3  0  0  0  0  0  0
  183.0890  173.4720  135.5430 C   0  0  1  0  0  3  0  0  0  0  0  0
  186.7600  175.2570  137.3560 C   0  0  0  0  0  2  0  0  0  0  0  0
  185.6410  171.8700  135.6770 C   0  0  0  0  0  0  0  0  0  0  0  0
  182.7600  177.8030  136.1730 C   0  0  1  0  0  3  0  0  0  0  0  0
  187.7000  170.2130  135.9730 O   0  0  0  0  0  0  0  0  0  0  0  0
  186.1850  176.6640  137.5120 C   0  0  1  0  0  3  0  0  0  0  0  0
  189.3120  178.5070  136.5440 O   0  0  0  0  0  1  0  0  0  0  0  0
  186.8900  174.7050  135.0370 O   0  0  0  0  0  1  0  0  0  0  0  0
  182.2170  175.7250  134.9250 C   0  0  0  0  0  2  0  0  0  0  0  0
  180.9010  179.4370  135.6550 C   0  0  0  0  0  3  0  0  0  0  0  0
  181.8040  178.8800  136.5750 C   0  0  0  0  0  0  0  0  0  0  0  0
  181.8140  179.3400  137.8960 C   0  0  0  0  0  3  0  0  0  0  0  0
  180.9440  180.7880  139.5790 F   0  0  0  0  0  0  0  0  0  0  0  0
  180.0330  180.8980  137.3790 C   0  0  0  0  0  3  0  0  0  0  0  0
  180.9300  180.3470  138.2980 C   0  0  0  0  0  0  0  0  0  0  0  0
  180.0190  180.4430  136.0570 C   0  0  0  0  0  3  0  0  0  0  0  0
  190.8960  176.1430  135.4530 C   0  0  0  0  0  1  0  0  0  0  0  0
  189.5510  176.2950  134.7600 C   0  0  0  0  0  2  0  0  0  0  0  0
  1 27  1  6  0  0  0
  1 13  1  0  0  0  0
  1 21  1  0  0  0  0
  2 24  2  0  0  0  0
  2 17  1  0  0  0  0
  3  9  2  0  0  0  0
  4 37  1  1  0  0  0
  4  1  1  0  0  0  0
  4 12  1  0  0  0  0
  6 11  1  0  0  0  0
  9 22  1  0  0  0  0
 12 26  1  6  0  0  0
 12 18  1  0  0  0  0
 13 17  1  0  0  0  0
 14  2  2  0  0  0  0
 15 20  1  0  0  0  0
 16 11  2  0  0  0  0
 18  8  1  6  0  0  0
 19  7  1  6  0  0  0
 19  5  1  0  0  0  0
 19 25  1  0  0  0  0
 20  3  1  6  0  0  0
 20 16  1  0  0  0  0
 22  2  1  0  0  0  0
 22  6  2  0  0  0  0
 23 10  1  0  0  0  0
 23 30  1  1  0  0  0
 23  5  1  0  0  0  0
 25 21  1  6  0  0  0
 25 18  1  0  0  0  0
 28 15  1  0  0  0  0
 28 10  1  0  0  0  0
 29 35  2  0  0  0  0
 29 30  1  0  0  0  0
 30 31  2  0  0  0  0
 31 34  1  0  0  0  0
 33 34  2  0  0  0  0
 34 32  1  0  0  0  0
 35 33  1  0  0  0  0
 37 36  1  0  0  0  0
M  END
>  <MODEL>
7

>  <REMARK>
 VINA RESULT:      -5.1      4.464      7.107
  Name = 
  2 active torsions:
  status: ('A' for Active; 'I' for Inactive)
    1  A    between atoms: C_5  and  C_23
    2  A    between atoms: C_6  and  C_31
                            x       y       z     vdW  Elec       q    Type
                         _______ _______ _______ _____ _____    ______ ____

>  <TORSDO>
F 2

$$$$
=
 OpenBabel10272414493D

 37 40  0  0  1  0  0  0  0  0999 V2000
  189.9720  177.3050  138.8200 C   0  0  1  0  0  0  0  0  0  0  0  0
  186.7550  178.2690  137.9470 S   0  0  0  0  0  0  0  0  0  0  0  0
  186.8810  174.4370  136.7740 C   0  0  0  0  0  3  0  0  0  0  0  0
  191.0240  177.0450  139.9340 C   0  0  1  0  0  3  0  0  0  0  0  0
  192.3920  174.0760  136.4660 C   0  0  0  0  0  2  0  0  0  0  0  0
  186.8180  177.2360  135.5000 C   0  0  0  0  0  3  0  0  0  0  0  0
  191.3990  174.3820  138.6280 O   0  0  0  0  0  1  0  0  0  0  0  0
  193.8520  175.7790  138.5670 O   0  0  0  0  0  1  0  0  0  0  0  0
  186.4630  175.5770  137.3230 C   0  0  0  0  0  3  0  0  0  0  0  0
  190.5690  172.8630  135.2420 C   0  0  0  0  0  2  0  0  0  0  0  0
  186.7450  176.2980  134.3620 C   0  0  0  0  0  3  0  0  0  0  0  0
  192.4460  177.5060  139.5760 C   0  0  2  0  0  3  0  0  0  0  0  0
  189.2750  178.6600  139.0250 C   0  0  0  0  0  2  0  0  0  0  0  0
  186.4820  177.7660  139.3370 O   0  0  0  0  0  0  0  0  0  0  0  0
  188.0880  172.9330  135.2450 C   0  0  0  0  0  2  0  0  0  0  0  0
  187.1220  175.0200  134.3890 C   0  0  0  0  0  3  0  0  0  0  0  0
  188.3430  179.0860  137.8880 C   0  0  0  0  0  2  0  0  0  0  0  0
  192.9610  176.8210  138.2910 C   0  0  2  0  0  3  0  0  0  0  0  0
  191.4480  174.9000  137.3300 C   0  0  1  0  0  3  0  0  0  0  0  0
  187.7670  174.3810  135.5720 C   0  0  1  0  0  3  0  0  0  0  0  0
  190.6160  177.2840  137.4180 C   0  0  0  0  0  2  0  0  0  0  0  0
  186.7370  176.9340  136.8040 C   0  0  0  0  0  0  0  0  0  0  0  0
  191.7880  172.7150  136.1420 C   0  0  1  0  0  3  0  0  0  0  0  0
  185.6810  179.2510  137.5710 O   0  0  0  0  0  0  0  0  0  0  0  0
  191.8450  176.3820  137.3110 C   0  0  1  0  0  3  0  0  0  0  0  0
  193.3280  177.2930  140.6400 O   0  0  0  0  0  1  0  0  0  0  0  0
  189.0240  176.2850  138.8910 O   0  0  0  0  0  1  0  0  0  0  0  0
  189.3180  172.4780  136.0090 C   0  0  0  0  0  2  0  0  0  0  0  0
  192.4570  170.5550  135.0090 C   0  0  0  0  0  3  0  0  0  0  0  0
  192.8070  171.8180  135.5140 C   0  0  0  0  0  0  0  0  0  0  0  0
  194.1350  172.2500  135.4330 C   0  0  0  0  0  3  0  0  0  0  0  0
  196.3920  171.8550  134.7740 F   0  0  0  0  0  0  0  0  0  0  0  0
  194.7550  170.1750  134.3480 C   0  0  0  0  0  3  0  0  0  0  0  0
  195.1080  171.4310  134.8510 C   0  0  0  0  0  0  0  0  0  0  0  0
  193.4300  169.7380  134.4280 C   0  0  0  0  0  3  0  0  0  0  0  0
  190.2980  176.1100  142.1880 C   0  0  0  0  0  1  0  0  0  0  0  0
  190.5700  177.3620  141.3670 C   0  0  0  0  0  2  0  0  0  0  0  0
  1 27  1  1  0  0  0
  1 13  1  0  0  0  0
  1  4  1  0  0  0  0
  2 14  2  0  0  0  0
  3  9  2  0  0  0  0
  4 37  1  1  0  0  0
  5 19  1  0  0  0  0
  6 22  2  0  0  0  0
 10 28  1  0  0  0  0
 10 23  1  0  0  0  0
 11 16  2  0  0  0  0
 11  6  1  0  0  0  0
 12  4  1  0  0  0  0
 12 26  1  1  0  0  0
 15 20  1  0  0  0  0
 15 28  1  0  0  0  0
 17  2  1  0  0  0  0
 17 13  1  0  0  0  0
 18  8  1  1  0  0  0
 18 12  1  0  0  0  0
 19  7  1  1  0  0  0
 20 16  1  6  0  0  0
 20  3  1  0  0  0  0
 21  1  1  0  0  0  0
 22  9  1  0  0  0  0
 22  2  1  0  0  0  0
 23 30  1  6  0  0  0
 23  5  1  0  0  0  0
 24  2  2  0  0  0  0
 25 19  1  0  0  0  0
 25 21  1  1  0  0  0
 25 18  1  0  0  0  0
 29 30  1  0  0  0  0
 31 30  2  0  0  0  0
 32 34  1  0  0  0  0
 33 35  1  0  0  0  0
 33 34  2  0  0  0  0
 34 31  1  0  0  0  0
 35 29  2  0  0  0  0
 37 36  1  0  0  0  0
M  END
>  <MODEL>
8

>  <REMARK>
 VINA RESULT:      -4.7      4.438      7.839
  Name = 
  2 active torsions:
  status: ('A' for Active; 'I' for Inactive)
    1  A    between atoms: C_5  and  C_23
    2  A    between atoms: C_6  and  C_31
                            x       y       z     vdW  Elec       q    Type
                         _______ _______ _______ _____ _____    ______ ____

>  <TORSDO>
F 2

$$$$
=
 OpenBabel10272414493D

 37 40  0  0  1  0  0  0  0  0999 V2000
  183.1750  178.7230  140.3070 C   0  0  1  0  0  0  0  0  0  0  0  0
  183.6540  179.0570  143.7280 S   0  0  0  0  0  0  0  0  0  0  0  0
  187.3800  179.3560  142.2770 C   0  0  0  0  0  3  0  0  0  0  0  0
  182.5690  179.2840  138.9900 C   0  0  1  0  0  3  0  0  0  0  0  0
  186.3600  176.8360  137.4590 C   0  0  0  0  0  2  0  0  0  0  0  0
  185.6870  177.3520  143.8830 C   0  0  0  0  0  3  0  0  0  0  0  0
  185.3200  178.9590  137.8660 O   0  0  0  0  0  1  0  0  0  0  0  0
  183.5330  177.3600  136.3750 O   0  0  0  0  0  1  0  0  0  0  0  0
  186.2760  179.5980  142.9820 C   0  0  0  0  0  3  0  0  0  0  0  0
  188.4510  177.0290  138.8320 C   0  0  0  0  0  2  0  0  0  0  0  0
  187.0400  176.7630  143.8450 C   0  0  0  0  0  3  0  0  0  0  0  0
  181.9810  178.2100  138.0610 C   0  0  2  0  0  3  0  0  0  0  0  0
  182.1330  178.7250  141.4380 C   0  0  0  0  0  2  0  0  0  0  0  0
  183.4710  180.5060  143.3720 O   0  0  0  0  0  0  0  0  0  0  0  0
  189.0540  178.0820  140.9970 C   0  0  0  0  0  2  0  0  0  0  0  0
  187.9900  177.0650  142.9610 C   0  0  0  0  0  3  0  0  0  0  0  0
  182.5790  178.0360  142.7300 C   0  0  0  0  0  2  0  0  0  0  0  0
  183.0380  177.1550  137.6670 C   0  0  2  0  0  3  0  0  0  0  0  0
  185.5070  177.6780  138.3950 C   0  0  1  0  0  3  0  0  0  0  0  0
  187.7750  177.9910  141.8120 C   0  0  1  0  0  3  0  0  0  0  0  0
  183.7020  177.2850  140.1200 C   0  0  0  0  0  2  0  0  0  0  0  0
  185.3260  178.5770  143.4720 C   0  0  0  0  0  0  0  0  0  0  0  0
  187.8120  177.3010  137.4770 C   0  0  1  0  0  3  0  0  0  0  0  0
  183.3060  178.8690  145.1770 O   0  0  0  0  0  0  0  0  0  0  0  0
  184.1770  176.9760  138.7010 C   0  0  1  0  0  3  0  0  0  0  0  0
  181.4050  178.7870  136.9240 O   0  0  0  0  0  1  0  0  0  0  0  0
  184.2420  179.5460  140.6630 O   0  0  0  0  0  1  0  0  0  0  0  0
  188.7320  178.3420  139.5360 C   0  0  0  0  0  2  0  0  0  0  0  0
  189.2010  177.4040  135.3660 C   0  0  0  0  0  3  0  0  0  0  0  0
  188.5920  176.6480  136.3800 C   0  0  0  0  0  0  0  0  0  0  0  0
  188.7110  175.2540  136.3680 C   0  0  0  0  0  3  0  0  0  0  0  0
  189.5470  173.2680  135.3470 F   0  0  0  0  0  0  0  0  0  0  0  0
  190.0400  175.3750  134.3460 C   0  0  0  0  0  3  0  0  0  0  0  0
  189.4340  174.6180  135.3540 C   0  0  0  0  0  0  0  0  0  0  0  0
  189.9230  176.7680  134.3540 C   0  0  0  0  0  3  0  0  0  0  0  0
  182.3800  181.7690  138.4720 C   0  0  0  0  0  1  0  0  0  0  0  0
  181.7300  180.5630  139.1330 C   0  0  0  0  0  2  0  0  0  0  0  0
  1 27  1  1  0  0  0
  1 13  1  0  0  0  0
  2 24  2  0  0  0  0
  3  9  2  0  0  0  0
  4 37  1  1  0  0  0
  4  1  1  0  0  0  0
  5 23  1  0  0  0  0
  5 19  1  0  0  0  0
  9 22  1  0  0  0  0
 10 28  1  0  0  0  0
 11  6  1  0  0  0  0
 12 26  1  6  0  0  0
 12  4  1  0  0  0  0
 13 17  1  0  0  0  0
 14  2  2  0  0  0  0
 16 11  2  0  0  0  0
 17  2  1  0  0  0  0
 18  8  1  6  0  0  0
 18 12  1  0  0  0  0
 18 25  1  0  0  0  0
 19  7  1  6  0  0  0
 19 25  1  0  0  0  0
 20 15  1  1  0  0  0
 20  3  1  0  0  0  0
 20 16  1  0  0  0  0
 21  1  1  0  0  0  0
 22  2  1  0  0  0  0
 22  6  2  0  0  0  0
 23 30  1  6  0  0  0
 23 10  1  0  0  0  0
 25 21  1  1  0  0  0
 28 15  1  0  0  0  0
 29 30  1  0  0  0  0
 31 30  2  0  0  0  0
 32 34  1  0  0  0  0
 33 35  1  0  0  0  0
 33 34  2  0  0  0  0
 34 31  1  0  0  0  0
 35 29  2  0  0  0  0
 36 37  1  0  0  0  0
M  END
>  <MODEL>
9

>  <REMARK>
 VINA RESULT:      -4.6      3.594      7.643
  Name = 
  2 active torsions:
  status: ('A' for Active; 'I' for Inactive)
    1  A    between atoms: C_5  and  C_23
    2  A    between atoms: C_6  and  C_31
                            x       y       z     vdW  Elec       q    Type
                         _______ _______ _______ _____ _____    ______ ____

>  <TORSDO>
F 2

$$$$
