=
 OpenBabel10272400593D

 27 31  0  0  1  0  0  0  0  0999 V2000
  187.0680  177.1660  142.1160 C   0  0  0  0  0  2  0  0  0  0  0  0
  189.3040  177.6850  143.2150 C   0  0  0  0  0  0  0  0  0  0  0  0
  187.5050  176.8640  144.8790 C   0  0  0  0  0  2  0  0  0  0  0  0
  192.0570  177.2420  146.3230 N   0  0  0  0  0  2  0  0  0  0  0  0
  191.6700  175.4110  147.7940 N   0  0  0  0  0  1  0  0  0  0  0  0
  190.6240  177.9880  142.9980 N   0  0  0  0  0  0  0  0  0  0  0  0
  189.7830  176.7000  146.9180 C   0  0  1  0  0  3  0  0  0  0  0  0
  184.0530  178.4900  144.9460 C   0  0  0  0  0  2  0  0  0  0  0  0
  188.9480  177.6920  147.7090 C   0  0  0  0  0  1  0  0  0  0  0  0
  184.0760  179.9280  144.4200 C   0  0  0  0  0  2  0  0  0  0  0  0
  189.9030  177.1420  145.4970 C   0  0  0  0  0  0  0  0  0  0  0  0
  188.3680  177.8460  142.1180 N   0  0  0  0  0  0  0  0  0  0  0  0
  191.2380  176.7490  147.4300 C   0  0  2  0  0  3  0  0  0  0  0  0
  191.2010  177.4420  145.2200 C   0  0  0  0  0  0  0  0  0  0  0  0
  186.0570  177.8350  143.0500 C   0  0  2  0  0  3  0  0  0  0  0  0
  188.9090  177.2400  144.5150 C   0  0  0  0  0  0  0  0  0  0  0  0
  185.3920  178.0160  145.5210 C   0  0  0  0  0  2  0  0  0  0  0  0
  191.5820  177.8740  143.9600 C   0  0  0  0  0  3  0  0  0  0  0  0
  185.5190  179.1430  142.4450 C   0  0  0  0  0  2  0  0  0  0  0  0
  185.2380  180.2440  143.4740 C   0  0  0  0  0  2  0  0  0  0  0  0
  186.5440  177.9780  144.5050 C   0  0  1  0  0  3  0  0  0  0  0  0
  189.1780  176.9760  138.4440 O   0  0  0  0  0  0  0  0  0  0  0  0
  188.8720  178.4640  140.8770 C   0  0  0  0  0  3  0  0  0  0  0  0
  187.8140  178.4440  139.7680 C   0  0  0  0  0  2  0  0  0  0  0  0
  187.8900  177.1350  138.9810 C   0  0  0  0  0  2  0  0  0  0  0  0
  190.0230  176.6730  139.5260 C   0  0  0  0  0  2  0  0  0  0  0  0
  190.2280  177.9170  140.3930 C   0  0  0  0  0  2  0  0  0  0  0  0
  1 12  1  0  0  0  0
  2 16  1  0  0  0  0
  4 13  1  0  0  0  0
  6  2  2  0  0  0  0
  6 18  1  0  0  0  0
  7 13  1  0  0  0  0
  7  9  1  1  0  0  0
  8 17  1  0  0  0  0
 10  8  1  0  0  0  0
 11  7  1  0  0  0  0
 12  2  1  0  0  0  0
 13  5  1  6  0  0  0
 14 11  1  0  0  0  0
 14  4  1  0  0  0  0
 15  1  1  6  0  0  0
 15 21  1  0  0  0  0
 16  3  1  0  0  0  0
 16 11  2  0  0  0  0
 18 14  2  0  0  0  0
 19 15  1  0  0  0  0
 19 20  1  0  0  0  0
 20 10  1  0  0  0  0
 21  3  1  1  0  0  0
 21 17  1  0  0  0  0
 22 25  1  0  0  0  0
 22 26  1  0  0  0  0
 23 12  1  0  0  0  0
 24 23  1  0  0  0  0
 25 24  1  0  0  0  0
 26 27  1  0  0  0  0
 27 23  1  0  0  0  0
M  END
>  <MODEL>
1

>  <REMARK>
 VINA RESULT:      -8.6      0.000      0.000
  Name = 
  1 active torsions:
  status: ('A' for Active; 'I' for Inactive)
    1  A    between atoms: C_9  and  N_15
                            x       y       z     vdW  Elec       q    Type
                         _______ _______ _______ _____ _____    ______ ____

>  <TORSDO>
F 1

$$$$
=
 OpenBabel10272400593D

 27 31  0  0  1  0  0  0  0  0999 V2000
  185.8360  177.2790  144.6090 C   0  0  0  0  0  2  0  0  0  0  0  0
  187.0600  178.1930  142.5740 C   0  0  0  0  0  0  0  0  0  0  0  0
  188.4320  176.4540  143.9050 C   0  0  0  0  0  2  0  0  0  0  0  0
  189.9840  177.8920  139.6080 N   0  0  0  0  0  2  0  0  0  0  0  0
  190.9270  175.7290  139.3010 N   0  0  0  0  0  1  0  0  0  0  0  0
  186.9460  178.9450  141.4330 N   0  0  0  0  0  0  0  0  0  0  0  0
  190.3890  176.5230  141.5520 C   0  0  1  0  0  3  0  0  0  0  0  0
  188.8720  176.8230  147.6790 C   0  0  0  0  0  2  0  0  0  0  0  0
  191.3980  176.9670  142.5970 C   0  0  0  0  0  1  0  0  0  0  0  0
  188.7360  178.2760  148.1420 C   0  0  0  0  0  2  0  0  0  0  0  0
  189.1320  177.3200  141.6760 C   0  0  0  0  0  0  0  0  0  0  0  0
  186.0300  178.3150  143.5880 N   0  0  0  0  0  0  0  0  0  0  0  0
  190.9150  176.9050  140.1520 C   0  0  2  0  0  3  0  0  0  0  0  0
  188.9590  178.0770  140.5590 C   0  0  0  0  0  0  0  0  0  0  0  0
  186.8980  177.3350  145.7090 C   0  0  2  0  0  3  0  0  0  0  0  0
  188.1950  177.3370  142.7180 C   0  0  0  0  0  0  0  0  0  0  0  0
  189.3220  176.6730  146.2210 C   0  0  0  0  0  2  0  0  0  0  0  0
  187.8590  178.9070  140.4220 C   0  0  0  0  0  3  0  0  0  0  0  0
  186.6440  178.5100  146.6700 C   0  0  0  0  0  2  0  0  0  0  0  0
  187.9190  179.1720  147.2060 C   0  0  0  0  0  2  0  0  0  0  0  0
  188.3470  177.2590  145.1900 C   0  0  1  0  0  3  0  0  0  0  0  0
  182.1950  178.7640  143.5620 O   0  0  0  0  0  0  0  0  0  0  0  0
  184.9980  179.3490  143.3910 C   0  0  0  0  0  3  0  0  0  0  0  0
  184.1710  179.5710  144.6630 C   0  0  0  0  0  2  0  0  0  0  0  0
  182.9910  178.6010  144.7080 C   0  0  0  0  0  2  0  0  0  0  0  0
  182.9280  178.2250  142.4910 C   0  0  0  0  0  2  0  0  0  0  0  0
  184.1080  179.1390  142.1520 C   0  0  0  0  0  2  0  0  0  0  0  0
  2 16  1  0  0  0  0
  2 12  1  0  0  0  0
  4 13  1  0  0  0  0
  4 14  1  0  0  0  0
  6  2  2  0  0  0  0
  7 11  1  0  0  0  0
  7  9  1  1  0  0  0
  8 10  1  0  0  0  0
 11 16  2  0  0  0  0
 12  1  1  0  0  0  0
 13  5  1  6  0  0  0
 13  7  1  0  0  0  0
 14 11  1  0  0  0  0
 15  1  1  6  0  0  0
 15 19  1  0  0  0  0
 16  3  1  0  0  0  0
 17  8  1  0  0  0  0
 18 14  2  0  0  0  0
 18  6  1  0  0  0  0
 19 20  1  0  0  0  0
 20 10  1  0  0  0  0
 21  3  1  6  0  0  0
 21 15  1  0  0  0  0
 21 17  1  0  0  0  0
 22 25  1  0  0  0  0
 23 12  1  0  0  0  0
 23 24  1  0  0  0  0
 24 25  1  0  0  0  0
 26 22  1  0  0  0  0
 27 26  1  0  0  0  0
 27 23  1  0  0  0  0
M  END
>  <MODEL>
2

>  <REMARK>
 VINA RESULT:      -8.4      2.933      5.430
  Name = 
  1 active torsions:
  status: ('A' for Active; 'I' for Inactive)
    1  A    between atoms: C_9  and  N_15
                            x       y       z     vdW  Elec       q    Type
                         _______ _______ _______ _____ _____    ______ ____

>  <TORSDO>
F 1

$$$$
=
 OpenBabel10272400593D

 27 31  0  0  1  0  0  0  0  0999 V2000
  189.3570  178.2490  137.2350 C   0  0  0  0  0  2  0  0  0  0  0  0
  188.1260  178.1060  139.4570 C   0  0  0  0  0  0  0  0  0  0  0  0
  190.5950  177.3590  139.5990 C   0  0  0  0  0  2  0  0  0  0  0  0
  188.0870  177.9890  143.6320 N   0  0  0  0  0  2  0  0  0  0  0  0
  190.1070  178.6490  144.7030 N   0  0  0  0  0  1  0  0  0  0  0  0
  186.9760  178.4290  140.1330 N   0  0  0  0  0  0  0  0  0  0  0  0
  190.1870  177.3460  142.6330 C   0  0  1  0  0  3  0  0  0  0  0  0
  191.9780  174.7890  137.1400 C   0  0  0  0  0  2  0  0  0  0  0  0
  190.5600  175.8770  142.5280 C   0  0  0  0  0  1  0  0  0  0  0  0
  190.8850  173.8770  136.5740 C   0  0  0  0  0  2  0  0  0  0  0  0
  189.1590  177.6940  141.6080 C   0  0  0  0  0  0  0  0  0  0  0  0
  188.1120  178.1570  138.0080 N   0  0  0  0  0  0  0  0  0  0  0  0
  189.4500  177.5820  143.9690 C   0  0  2  0  0  3  0  0  0  0  0  0
  187.9970  178.0380  142.2250 C   0  0  0  0  0  0  0  0  0  0  0  0
  190.1000  176.9130  137.1620 C   0  0  2  0  0  3  0  0  0  0  0  0
  189.2770  177.7210  140.2120 C   0  0  0  0  0  0  0  0  0  0  0  0
  191.6470  175.3790  138.5150 C   0  0  0  0  0  2  0  0  0  0  0  0
  186.8810  178.4110  141.4920 C   0  0  0  0  0  3  0  0  0  0  0  0
  189.4130  175.9450  136.1840 C   0  0  0  0  0  2  0  0  0  0  0  0
  189.4750  174.4730  136.6070 C   0  0  0  0  0  2  0  0  0  0  0  0
  190.4110  176.2900  138.5370 C   0  0  1  0  0  3  0  0  0  0  0  0
  185.8230  176.7420  135.2390 O   0  0  0  0  0  0  0  0  0  0  0  0
  186.8200  178.4130  137.3460 C   0  0  0  0  0  3  0  0  0  0  0  0
  185.8290  177.2680  137.5830 C   0  0  0  0  0  2  0  0  0  0  0  0
  185.9990  176.1860  136.5170 C   0  0  0  0  0  2  0  0  0  0  0  0
  186.9600  177.5280  134.9890 C   0  0  0  0  0  2  0  0  0  0  0  0
  186.9260  178.7880  135.8560 C   0  0  0  0  0  2  0  0  0  0  0  0
  1 12  1  0  0  0  0
  2  6  2  0  0  0  0
  2 16  1  0  0  0  0
  3 16  1  0  0  0  0
  4 13  1  0  0  0  0
  6 18  1  0  0  0  0
  7  9  1  6  0  0  0
  7 13  1  0  0  0  0
  8 17  1  0  0  0  0
 10 20  1  0  0  0  0
 10  8  1  0  0  0  0
 11 14  1  0  0  0  0
 11  7  1  0  0  0  0
 12  2  1  0  0  0  0
 13  5  1  6  0  0  0
 14  4  1  0  0  0  0
 15 19  1  6  0  0  0
 15  1  1  0  0  0  0
 15 21  1  0  0  0  0
 16 11  2  0  0  0  0
 18 14  2  0  0  0  0
 19 20  1  0  0  0  0
 21 17  1  6  0  0  0
 21  3  1  0  0  0  0
 22 25  1  0  0  0  0
 23 24  1  0  0  0  0
 23 12  1  0  0  0  0
 25 24  1  0  0  0  0
 26 22  1  0  0  0  0
 26 27  1  0  0  0  0
 27 23  1  0  0  0  0
M  END
>  <MODEL>
3

>  <REMARK>
 VINA RESULT:      -7.5      2.738      6.343
  Name = 
  1 active torsions:
  status: ('A' for Active; 'I' for Inactive)
    1  A    between atoms: C_9  and  N_15
                            x       y       z     vdW  Elec       q    Type
                         _______ _______ _______ _____ _____    ______ ____

>  <TORSDO>
F 1

$$$$
=
 OpenBabel10272400593D

 27 31  0  0  1  0  0  0  0  0999 V2000
  185.5480  179.3780  143.4100 C   0  0  0  0  0  2  0  0  0  0  0  0
  187.3460  177.5950  143.1550 C   0  0  0  0  0  0  0  0  0  0  0  0
  186.9960  179.0150  141.0250 C   0  0  0  0  0  2  0  0  0  0  0  0
  190.7550  176.0590  141.2970 N   0  0  0  0  0  2  0  0  0  0  0  0
  191.9690  177.5880  139.9360 N   0  0  0  0  0  1  0  0  0  0  0  0
  188.1120  176.6640  143.8090 N   0  0  0  0  0  0  0  0  0  0  0  0
  189.5220  177.6490  139.9660 C   0  0  1  0  0  3  0  0  0  0  0  0
  183.4940  179.5060  139.5870 C   0  0  0  0  0  2  0  0  0  0  0  0
  188.6130  177.1630  138.8510 C   0  0  0  0  0  1  0  0  0  0  0  0
  182.5430  178.3680  139.9700 C   0  0  0  0  0  2  0  0  0  0  0  0
  188.8840  177.4120  141.2950 C   0  0  0  0  0  0  0  0  0  0  0  0
  186.1670  178.1130  143.8240 N   0  0  0  0  0  0  0  0  0  0  0  0
  190.7810  176.7560  140.0120 C   0  0  2  0  0  3  0  0  0  0  0  0
  189.6140  176.5040  141.9960 C   0  0  0  0  0  0  0  0  0  0  0  0
  184.7310  179.2360  142.1240 C   0  0  2  0  0  3  0  0  0  0  0  0
  187.7350  177.9990  141.8400 C   0  0  0  0  0  0  0  0  0  0  0  0
  184.9730  179.1030  139.5740 C   0  0  0  0  0  2  0  0  0  0  0  0
  189.2350  176.1120  143.2700 C   0  0  0  0  0  3  0  0  0  0  0  0
  183.3960  178.5190  142.3870 C   0  0  0  0  0  2  0  0  0  0  0  0
  182.9310  177.6110  141.2430 C   0  0  0  0  0  2  0  0  0  0  0  0
  185.5240  178.6550  140.9360 C   0  0  1  0  0  3  0  0  0  0  0  0
  186.4860  178.6750  147.6310 O   0  0  0  0  0  0  0  0  0  0  0  0
  185.7870  177.5000  145.1090 C   0  0  0  0  0  3  0  0  0  0  0  0
  184.8370  178.4030  145.9060 C   0  0  0  0  0  2  0  0  0  0  0  0
  185.6310  179.3820  146.7690 C   0  0  0  0  0  2  0  0  0  0  0  0
  187.5140  178.1520  146.8280 C   0  0  0  0  0  2  0  0  0  0  0  0
  186.9720  177.0120  145.9630 C   0  0  0  0  0  2  0  0  0  0  0  0
  1 12  1  0  0  0  0
  2  6  1  0  0  0  0
  2 12  1  0  0  0  0
  3 16  1  0  0  0  0
  4 14  1  0  0  0  0
  7  9  1  6  0  0  0
  7 13  1  0  0  0  0
  7 11  1  0  0  0  0
  8 10  1  0  0  0  0
 10 20  1  0  0  0  0
 11 16  1  0  0  0  0
 11 14  2  0  0  0  0
 12 23  1  0  0  0  0
 13  5  1  1  0  0  0
 13  4  1  0  0  0  0
 14 18  1  0  0  0  0
 15 19  1  1  0  0  0
 15  1  1  0  0  0  0
 16  2  2  0  0  0  0
 17  8  1  0  0  0  0
 18  6  2  0  0  0  0
 20 19  1  0  0  0  0
 21 17  1  6  0  0  0
 21  3  1  0  0  0  0
 21 15  1  0  0  0  0
 23 24  1  0  0  0  0
 23 27  1  0  0  0  0
 24 25  1  0  0  0  0
 25 22  1  0  0  0  0
 26 22  1  0  0  0  0
 27 26  1  0  0  0  0
M  END
>  <MODEL>
4

>  <REMARK>
 VINA RESULT:      -7.5      2.941      5.627
  Name = 
  1 active torsions:
  status: ('A' for Active; 'I' for Inactive)
    1  A    between atoms: C_9  and  N_15
                            x       y       z     vdW  Elec       q    Type
                         _______ _______ _______ _____ _____    ______ ____

>  <TORSDO>
F 1

$$$$
=
 OpenBabel10272400593D

 27 31  0  0  1  0  0  0  0  0999 V2000
  187.6010  176.9270  143.0760 C   0  0  0  0  0  2  0  0  0  0  0  0
  188.0410  177.9560  140.7910 C   0  0  0  0  0  0  0  0  0  0  0  0
  189.7770  176.1630  141.4640 C   0  0  0  0  0  2  0  0  0  0  0  0
  189.7330  177.8360  136.9750 N   0  0  0  0  0  2  0  0  0  0  0  0
  190.4860  175.7000  136.2450 N   0  0  0  0  0  1  0  0  0  0  0  0
  187.5410  178.7660  139.8030 N   0  0  0  0  0  0  0  0  0  0  0  0
  190.7820  176.3710  138.5800 C   0  0  1  0  0  3  0  0  0  0  0  0
  191.5180  176.3400  144.8550 C   0  0  0  0  0  2  0  0  0  0  0  0
  192.0980  176.7700  139.2240 C   0  0  0  0  0  1  0  0  0  0  0  0
  191.5680  177.7660  145.4110 C   0  0  0  0  0  2  0  0  0  0  0  0
  189.6570  177.1490  139.1780 C   0  0  0  0  0  0  0  0  0  0  0  0
  187.4350  178.0170  142.1070 N   0  0  0  0  0  0  0  0  0  0  0  0
  190.7860  176.8300  137.1060 C   0  0  2  0  0  3  0  0  0  0  0  0
  189.1100  177.9620  138.2340 C   0  0  0  0  0  0  0  0  0  0  0  0
  188.9830  176.9360  143.7340 C   0  0  2  0  0  3  0  0  0  0  0  0
  189.1460  177.1040  140.4830 C   0  0  0  0  0  0  0  0  0  0  0  0
  191.4260  176.2700  143.3270 C   0  0  0  0  0  2  0  0  0  0  0  0
  188.0400  178.7880  138.5350 C   0  0  0  0  0  3  0  0  0  0  0  0
  189.0950  178.0570  144.7820 C   0  0  0  0  0  2  0  0  0  0  0  0
  190.4820  178.7020  144.8690 C   0  0  0  0  0  2  0  0  0  0  0  0
  190.1560  176.9000  142.7360 C   0  0  1  0  0  3  0  0  0  0  0  0
  183.7320  178.3970  143.1330 O   0  0  0  0  0  0  0  0  0  0  0  0
  186.4090  179.0500  142.3390 C   0  0  0  0  0  3  0  0  0  0  0  0
  185.9410  179.0630  143.7990 C   0  0  0  0  0  2  0  0  0  0  0  0
  184.7910  178.0770  143.9990 C   0  0  0  0  0  2  0  0  0  0  0  0
  184.1540  178.0380  141.8420 C   0  0  0  0  0  2  0  0  0  0  0  0
  185.2270  179.0140  141.3530 C   0  0  0  0  0  2  0  0  0  0  0  0
  2 12  1  0  0  0  0
  4 13  1  0  0  0  0
  4 14  1  0  0  0  0
  6  2  2  0  0  0  0
  7 11  1  0  0  0  0
  7  9  1  1  0  0  0
  8 10  1  0  0  0  0
 11 16  2  0  0  0  0
 12 23  1  0  0  0  0
 12  1  1  0  0  0  0
 13  5  1  6  0  0  0
 13  7  1  0  0  0  0
 14 18  2  0  0  0  0
 14 11  1  0  0  0  0
 15  1  1  6  0  0  0
 15 19  1  0  0  0  0
 16  2  1  0  0  0  0
 16  3  1  0  0  0  0
 17  8  1  0  0  0  0
 18  6  1  0  0  0  0
 19 20  1  0  0  0  0
 20 10  1  0  0  0  0
 21  3  1  6  0  0  0
 21 17  1  0  0  0  0
 21 15  1  0  0  0  0
 22 25  1  0  0  0  0
 23 24  1  0  0  0  0
 24 25  1  0  0  0  0
 26 22  1  0  0  0  0
 27 26  1  0  0  0  0
 27 23  1  0  0  0  0
M  END
>  <MODEL>
5

>  <REMARK>
 VINA RESULT:      -7.4      2.829      6.440
  Name = 
  1 active torsions:
  status: ('A' for Active; 'I' for Inactive)
    1  A    between atoms: C_9  and  N_15
                            x       y       z     vdW  Elec       q    Type
                         _______ _______ _______ _____ _____    ______ ____

>  <TORSDO>
F 1

$$$$
=
 OpenBabel10272400593D

 27 31  0  0  1  0  0  0  0  0999 V2000
  189.4260  178.7820  141.6290 C   0  0  0  0  0  2  0  0  0  0  0  0
  189.6140  177.0030  139.8200 C   0  0  0  0  0  0  0  0  0  0  0  0
  187.6180  178.6090  139.4810 C   0  0  0  0  0  2  0  0  0  0  0  0
  188.8370  175.5870  135.9690 N   0  0  0  0  0  2  0  0  0  0  0  0
  188.0830  177.2120  134.4020 N   0  0  0  0  0  1  0  0  0  0  0  0
  190.3980  176.0070  139.2930 N   0  0  0  0  0  0  0  0  0  0  0  0
  187.3220  177.3050  136.7270 C   0  0  1  0  0  3  0  0  0  0  0  0
  185.1700  179.2730  142.3320 C   0  0  0  0  0  2  0  0  0  0  0  0
  185.9340  176.9310  137.2170 C   0  0  0  0  0  1  0  0  0  0  0  0
  185.1220  178.1200  143.3390 C   0  0  0  0  0  2  0  0  0  0  0  0
  188.3450  176.9610  137.7580 C   0  0  0  0  0  0  0  0  0  0  0  0
  189.9070  177.4770  141.1590 N   0  0  0  0  0  0  0  0  0  0  0  0
  187.6960  176.3940  135.5380 C   0  0  2  0  0  3  0  0  0  0  0  0
  189.1640  175.9850  137.2820 C   0  0  0  0  0  0  0  0  0  0  0  0
  187.9370  178.7640  141.9820 C   0  0  2  0  0  3  0  0  0  0  0  0
  188.5380  177.5140  139.0310 C   0  0  0  0  0  0  0  0  0  0  0  0
  185.6030  178.8520  140.9230 C   0  0  0  0  0  2  0  0  0  0  0  0
  190.2060  175.4890  138.0480 C   0  0  0  0  0  3  0  0  0  0  0  0
  187.6890  178.0460  143.3200 C   0  0  0  0  0  2  0  0  0  0  0  0
  186.3810  177.2490  143.3740 C   0  0  0  0  0  2  0  0  0  0  0  0
  187.0260  178.2790  140.8380 C   0  0  1  0  0  3  0  0  0  0  0  0
  191.1770  177.0040  144.7750 O   0  0  0  0  0  0  0  0  0  0  0  0
  190.9400  176.7580  141.9270 C   0  0  0  0  0  3  0  0  0  0  0  0
  190.3190  175.7580  142.9090 C   0  0  0  0  0  2  0  0  0  0  0  0
  190.0060  176.4420  144.2400 C   0  0  0  0  0  2  0  0  0  0  0  0
  191.4790  178.1220  143.9780 C   0  0  0  0  0  2  0  0  0  0  0  0
  191.9810  177.6660  142.6070 C   0  0  0  0  0  2  0  0  0  0  0  0
  2 12  1  0  0  0  0
  4 14  1  0  0  0  0
  6  2  1  0  0  0  0
  7  9  1  1  0  0  0
  7 11  1  0  0  0  0
  8 10  1  0  0  0  0
 10 20  1  0  0  0  0
 11 16  1  0  0  0  0
 12  1  1  0  0  0  0
 12 23  1  0  0  0  0
 13  5  1  6  0  0  0
 13  4  1  0  0  0  0
 13  7  1  0  0  0  0
 14 11  2  0  0  0  0
 14 18  1  0  0  0  0
 15  1  1  6  0  0  0
 15 19  1  0  0  0  0
 16  3  1  0  0  0  0
 16  2  2  0  0  0  0
 17  8  1  0  0  0  0
 18  6  2  0  0  0  0
 19 20  1  0  0  0  0
 21  3  1  6  0  0  0
 21 17  1  0  0  0  0
 21 15  1  0  0  0  0
 23 27  1  0  0  0  0
 23 24  1  0  0  0  0
 24 25  1  0  0  0  0
 25 22  1  0  0  0  0
 26 22  1  0  0  0  0
 27 26  1  0  0  0  0
M  END
>  <MODEL>
6

>  <REMARK>
 VINA RESULT:      -7.3      2.906      6.641
  Name = 
  1 active torsions:
  status: ('A' for Active; 'I' for Inactive)
    1  A    between atoms: C_9  and  N_15
                            x       y       z     vdW  Elec       q    Type
                         _______ _______ _______ _____ _____    ______ ____

>  <TORSDO>
F 1

$$$$
=
 OpenBabel10272400593D

 27 31  0  0  1  0  0  0  0  0999 V2000
  189.5190  175.9900  144.5080 C   0  0  0  0  0  2  0  0  0  0  0  0
  187.8420  177.7110  145.3430 C   0  0  0  0  0  0  0  0  0  0  0  0
  187.3650  176.8920  142.9390 C   0  0  0  0  0  2  0  0  0  0  0  0
  184.0900  179.5400  145.2220 N   0  0  0  0  0  2  0  0  0  0  0  0
  182.4040  178.3620  144.0240 N   0  0  0  0  0  1  0  0  0  0  0  0
  187.3960  178.4160  146.4330 N   0  0  0  0  0  0  0  0  0  0  0  0
  184.7050  178.3870  143.1940 C   0  0  1  0  0  3  0  0  0  0  0  0
  190.1310  176.9130  140.3090 C   0  0  0  0  0  2  0  0  0  0  0  0
  185.2030  179.1740  141.9940 C   0  0  0  0  0  1  0  0  0  0  0  0
  191.2160  177.9510  140.6130 C   0  0  0  0  0  2  0  0  0  0  0  0
  185.7720  178.3030  144.2360 C   0  0  0  0  0  0  0  0  0  0  0  0
  189.1480  177.0840  145.4130 N   0  0  0  0  0  0  0  0  0  0  0  0
  183.5880  179.1910  143.8930 C   0  0  2  0  0  3  0  0  0  0  0  0
  185.3760  178.9750  145.3500 C   0  0  0  0  0  0  0  0  0  0  0  0
  189.8530  176.4840  143.0980 C   0  0  2  0  0  3  0  0  0  0  0  0
  187.0050  177.6400  144.1870 C   0  0  0  0  0  0  0  0  0  0  0  0
  188.7610  177.2510  140.9080 C   0  0  0  0  0  2  0  0  0  0  0  0
  186.1880  179.0440  146.4700 C   0  0  0  0  0  3  0  0  0  0  0  0
  191.2350  177.1600  143.0570 C   0  0  0  0  0  2  0  0  0  0  0  0
  191.3280  178.3450  142.0890 C   0  0  0  0  0  2  0  0  0  0  0  0
  188.7350  177.3170  142.4430 C   0  0  1  0  0  3  0  0  0  0  0  0
  191.7340  175.4030  147.7350 O   0  0  0  0  0  0  0  0  0  0  0  0
  189.9770  177.3650  146.5990 C   0  0  0  0  0  3  0  0  0  0  0  0
  191.4740  177.2890  146.2710 C   0  0  0  0  0  2  0  0  0  0  0  0
  191.9820  175.8560  146.4290 C   0  0  0  0  0  2  0  0  0  0  0  0
  190.3480  175.1930  147.8250 C   0  0  0  0  0  2  0  0  0  0  0  0
  189.6160  176.5370  147.8450 C   0  0  0  0  0  2  0  0  0  0  0  0
  1 12  1  0  0  0  0
  2 12  1  0  0  0  0
  2  6  1  0  0  0  0
  3 16  1  0  0  0  0
  4 14  1  0  0  0  0
  6 18  2  0  0  0  0
  7  9  1  6  0  0  0
  7 13  1  0  0  0  0
  7 11  1  0  0  0  0
  8 10  1  0  0  0  0
  8 17  1  0  0  0  0
 10 20  1  0  0  0  0
 11 14  2  0  0  0  0
 12 23  1  0  0  0  0
 13  5  1  1  0  0  0
 13  4  1  0  0  0  0
 14 18  1  0  0  0  0
 15 19  1  1  0  0  0
 15  1  1  0  0  0  0
 16 11  1  0  0  0  0
 16  2  2  0  0  0  0
 20 19  1  0  0  0  0
 21 17  1  6  0  0  0
 21  3  1  0  0  0  0
 21 15  1  0  0  0  0
 22 26  1  0  0  0  0
 23 27  1  0  0  0  0
 24 25  1  0  0  0  0
 24 23  1  0  0  0  0
 25 22  1  0  0  0  0
 26 27  1  0  0  0  0
M  END
>  <MODEL>
7

>  <REMARK>
 VINA RESULT:      -6.9      2.891      6.558
  Name = 
  1 active torsions:
  status: ('A' for Active; 'I' for Inactive)
    1  A    between atoms: C_9  and  N_15
                            x       y       z     vdW  Elec       q    Type
                         _______ _______ _______ _____ _____    ______ ____

>  <TORSDO>
F 1

$$$$
=
 OpenBabel10272400593D

 27 31  0  0  1  0  0  0  0  0999 V2000
  185.5520  179.2400  138.8190 C   0  0  0  0  0  2  0  0  0  0  0  0
  185.9060  178.4160  141.2010 C   0  0  0  0  0  0  0  0  0  0  0  0
  188.0640  178.4130  139.7800 C   0  0  0  0  0  2  0  0  0  0  0  0
  188.3500  177.6780  144.5050 N   0  0  0  0  0  2  0  0  0  0  0  0
  190.4820  178.7350  144.4710 N   0  0  0  0  0  1  0  0  0  0  0  0
  185.3410  178.2840  142.4440 N   0  0  0  0  0  0  0  0  0  0  0  0
  189.5280  177.8340  142.4050 C   0  0  1  0  0  3  0  0  0  0  0  0
  188.1100  176.7540  136.3430 C   0  0  0  0  0  2  0  0  0  0  0  0
  189.9880  176.5710  141.6980 C   0  0  0  0  0  1  0  0  0  0  0  0
  187.0510  175.6550  136.2130 C   0  0  0  0  0  2  0  0  0  0  0  0
  188.0550  178.0120  142.2400 C   0  0  0  0  0  0  0  0  0  0  0  0
  185.0340  178.6740  140.0700 N   0  0  0  0  0  0  0  0  0  0  0  0
  189.6930  177.6430  143.9290 C   0  0  2  0  0  3  0  0  0  0  0  0
  187.4430  177.9060  143.4490 C   0  0  0  0  0  0  0  0  0  0  0  0
  186.3050  178.2070  137.9780 C   0  0  2  0  0  3  0  0  0  0  0  0
  187.3230  178.2780  141.0750 C   0  0  0  0  0  0  0  0  0  0  0  0
  188.5660  177.0110  137.7840 C   0  0  0  0  0  2  0  0  0  0  0  0
  186.0690  178.0380  143.5700 C   0  0  0  0  0  3  0  0  0  0  0  0
  185.3340  177.2350  137.2860 C   0  0  0  0  0  2  0  0  0  0  0  0
  185.8580  175.8000  137.1630 C   0  0  0  0  0  2  0  0  0  0  0  0
  187.4570  177.5070  138.7250 C   0  0  1  0  0  3  0  0  0  0  0  0
  181.7410  177.5930  138.3680 O   0  0  0  0  0  0  0  0  0  0  0  0
  183.5790  178.6350  140.3080 C   0  0  0  0  0  3  0  0  0  0  0  0
  183.0520  177.1960  140.3410 C   0  0  0  0  0  2  0  0  0  0  0  0
  182.6920  176.7270  138.9320 C   0  0  0  0  0  2  0  0  0  0  0  0
  182.4190  178.7880  138.0740 C   0  0  0  0  0  2  0  0  0  0  0  0
  182.7520  179.5330  139.3690 C   0  0  0  0  0  2  0  0  0  0  0  0
  1 12  1  0  0  0  0
  2  6  1  0  0  0  0
  3 16  1  0  0  0  0
  6 18  2  0  0  0  0
  7  9  1  6  0  0  0
  7 13  1  0  0  0  0
  8 17  1  0  0  0  0
 10  8  1  0  0  0  0
 10 20  1  0  0  0  0
 11  7  1  0  0  0  0
 11 14  2  0  0  0  0
 12 23  1  0  0  0  0
 12  2  1  0  0  0  0
 13  5  1  1  0  0  0
 13  4  1  0  0  0  0
 14 18  1  0  0  0  0
 14  4  1  0  0  0  0
 15 19  1  1  0  0  0
 15 21  1  0  0  0  0
 15  1  1  0  0  0  0
 16  2  2  0  0  0  0
 16 11  1  0  0  0  0
 20 19  1  0  0  0  0
 21 17  1  6  0  0  0
 21  3  1  0  0  0  0
 22 25  1  0  0  0  0
 23 24  1  0  0  0  0
 25 24  1  0  0  0  0
 26 22  1  0  0  0  0
 26 27  1  0  0  0  0
 27 23  1  0  0  0  0
M  END
>  <MODEL>
8

>  <REMARK>
 VINA RESULT:      -6.9      3.030      5.996
  Name = 
  1 active torsions:
  status: ('A' for Active; 'I' for Inactive)
    1  A    between atoms: C_9  and  N_15
                            x       y       z     vdW  Elec       q    Type
                         _______ _______ _______ _____ _____    ______ ____

>  <TORSDO>
F 1

$$$$
=
 OpenBabel10272400593D

 27 31  0  0  1  0  0  0  0  0999 V2000
  187.7220  179.0750  140.6670 C   0  0  0  0  0  2  0  0  0  0  0  0
  185.3490  178.3360  140.1190 C   0  0  0  0  0  0  0  0  0  0  0  0
  185.6070  179.2760  142.5130 C   0  0  0  0  0  2  0  0  0  0  0  0
  181.2240  178.4640  140.7580 N   0  0  0  0  0  2  0  0  0  0  0  0
  180.4370  180.2890  142.0680 N   0  0  0  0  0  1  0  0  0  0  0  0
  184.4970  177.9220  139.1270 N   0  0  0  0  0  0  0  0  0  0  0  0
  182.5500  179.1920  142.6380 C   0  0  1  0  0  3  0  0  0  0  0  0
  188.3520  177.9610  144.8160 C   0  0  0  0  0  2  0  0  0  0  0  0
  182.7720  178.2600  143.8170 C   0  0  0  0  0  1  0  0  0  0  0  0
  188.7870  176.5380  144.4510 C   0  0  0  0  0  2  0  0  0  0  0  0
  183.3950  178.7730  141.4810 C   0  0  0  0  0  0  0  0  0  0  0  0
  186.7770  178.2820  139.8710 N   0  0  0  0  0  0  0  0  0  0  0  0
  181.1100  179.0030  142.1130 C   0  0  2  0  0  3  0  0  0  0  0  0
  182.5990  178.3650  140.4570 C   0  0  0  0  0  0  0  0  0  0  0  0
  187.9610  178.4780  142.0560 C   0  0  2  0  0  3  0  0  0  0  0  0
  184.7910  178.7850  141.3560 C   0  0  0  0  0  0  0  0  0  0  0  0
  186.9190  178.3020  144.3930 C   0  0  0  0  0  2  0  0  0  0  0  0
  183.1410  177.9290  139.2590 C   0  0  0  0  0  3  0  0  0  0  0  0
  188.8660  177.2360  141.9810 C   0  0  0  0  0  2  0  0  0  0  0  0
  188.5200  176.1420  142.9960 C   0  0  0  0  0  2  0  0  0  0  0  0
  186.6750  178.2600  142.8770 C   0  0  1  0  0  3  0  0  0  0  0  0
  189.6660  178.4130  137.3120 O   0  0  0  0  0  0  0  0  0  0  0  0
  187.2290  177.6510  138.6180 C   0  0  0  0  0  3  0  0  0  0  0  0
  188.5520  176.9010  138.8090 C   0  0  0  0  0  2  0  0  0  0  0  0
  189.7360  177.8440  138.5950 C   0  0  0  0  0  2  0  0  0  0  0  0
  188.6070  179.3360  137.3460 C   0  0  0  0  0  2  0  0  0  0  0  0
  187.2700  178.5950  137.4020 C   0  0  0  0  0  2  0  0  0  0  0  0
  2 16  1  0  0  0  0
  4 13  1  0  0  0  0
  6 18  1  0  0  0  0
  6  2  2  0  0  0  0
  7  9  1  1  0  0  0
 10  8  1  0  0  0  0
 11  7  1  0  0  0  0
 12  2  1  0  0  0  0
 12  1  1  0  0  0  0
 13  5  1  6  0  0  0
 13  7  1  0  0  0  0
 14  4  1  0  0  0  0
 14 11  1  0  0  0  0
 15  1  1  6  0  0  0
 15 21  1  0  0  0  0
 16 11  2  0  0  0  0
 16  3  1  0  0  0  0
 17  8  1  0  0  0  0
 18 14  2  0  0  0  0
 19 15  1  0  0  0  0
 19 20  1  0  0  0  0
 20 10  1  0  0  0  0
 21  3  1  6  0  0  0
 21 17  1  0  0  0  0
 22 26  1  0  0  0  0
 22 25  1  0  0  0  0
 23 24  1  0  0  0  0
 23 12  1  0  0  0  0
 25 24  1  0  0  0  0
 26 27  1  0  0  0  0
 27 23  1  0  0  0  0
M  END
>  <MODEL>
9

>  <REMARK>
 VINA RESULT:      -6.5      3.232      6.516
  Name = 
  1 active torsions:
  status: ('A' for Active; 'I' for Inactive)
    1  A    between atoms: C_9  and  N_15
                            x       y       z     vdW  Elec       q    Type
                         _______ _______ _______ _____ _____    ______ ____

>  <TORSDO>
F 1

$$$$
