=
 OpenBabel10272401153D

 27 31  0  0  1  0  0  0  0  0999 V2000
  190.9460  176.8980  142.8060 C   0  0  0  0  0  3  0  0  0  0  0  0
  188.8100  177.3160  141.6720 N   0  0  0  0  0  0  0  0  0  0  0  0
  188.0600  176.3620  143.8420 C   0  0  0  0  0  2  0  0  0  0  0  0
  188.4390  178.2220  140.7820 N   0  0  0  0  0  0  0  0  0  0  0  0
  190.6490  177.3390  146.4270 C   0  0  2  0  0  3  0  0  0  0  0  0
  190.0530  176.5410  141.6510 C   0  0  1  0  0  3  0  0  0  0  0  0
  186.8760  178.1300  142.3630 C   0  0  0  0  0  0  0  0  0  0  0  0
  190.5660  176.9640  144.0880 C   0  0  0  0  0  0  0  0  0  0  0  0
  187.8890  177.2300  142.6400 C   0  0  0  0  0  0  0  0  0  0  0  0
  189.2310  176.9120  146.0270 C   0  0  0  0  0  2  0  0  0  0  0  0
  187.2550  178.7410  141.1730 C   0  0  0  0  0  3  0  0  0  0  0  0
  191.5160  177.3030  145.1660 C   0  0  0  0  0  2  0  0  0  0  0  0
  189.2440  176.7720  144.5870 N   0  0  0  0  0  0  0  0  0  0  0  0
  184.4180  178.5340  142.5010 C   0  0  0  0  0  3  0  0  0  0  0  0
  183.3320  178.9900  144.6150 C   0  0  0  0  0  3  0  0  0  0  0  0
  184.5620  178.8850  145.2680 C   0  0  0  0  0  3  0  0  0  0  0  0
  185.7200  178.6050  144.5380 C   0  0  0  0  0  3  0  0  0  0  0  0
  185.6590  178.4270  143.1470 C   0  0  0  0  0  0  0  0  0  0  0  0
  183.2590  178.8140  143.2310 C   0  0  0  0  0  3  0  0  0  0  0  0
  192.1740  176.8190  137.9180 C   0  0  0  0  0  3  0  0  0  0  0  0
  190.7730  176.6430  140.3390 C   0  0  0  0  0  0  0  0  0  0  0  0
  192.0780  177.1470  140.3160 C   0  0  0  0  0  3  0  0  0  0  0  0
  192.7770  177.2370  139.1090 C   0  0  0  0  0  3  0  0  0  0  0  0
  190.8720  176.3100  137.9350 C   0  0  0  0  0  3  0  0  0  0  0  0
  190.1730  176.2200  139.1410 C   0  0  0  0  0  3  0  0  0  0  0  0
  192.3740  175.7810  146.9690 O   0  0  0  0  0  1  0  0  0  0  0  0
  191.2160  176.3850  147.4620 C   0  0  0  0  0  2  0  0  0  0  0  0
  1  8  2  0  0  0  0
  2  9  1  0  0  0  0
  3 13  1  0  0  0  0
  4 11  2  0  0  0  0
  4  2  1  0  0  0  0
  5 27  1  1  0  0  0
  6 21  1  6  0  0  0
  6  2  1  0  0  0  0
  6  1  1  0  0  0  0
  7  9  2  0  0  0  0
  7 18  1  0  0  0  0
  8 13  1  0  0  0  0
  8 12  1  0  0  0  0
  9  3  1  0  0  0  0
 10  5  1  0  0  0  0
 11  7  1  0  0  0  0
 12  5  1  0  0  0  0
 13 10  1  0  0  0  0
 14 18  2  0  0  0  0
 14 19  1  0  0  0  0
 15 16  1  0  0  0  0
 17 16  2  0  0  0  0
 18 17  1  0  0  0  0
 19 15  2  0  0  0  0
 20 24  2  0  0  0  0
 20 23  1  0  0  0  0
 22 21  1  0  0  0  0
 23 22  2  0  0  0  0
 24 25  1  0  0  0  0
 25 21  2  0  0  0  0
 26 27  1  0  0  0  0
M  END
>  <MODEL>
1

>  <REMARK>
 VINA RESULT:      -9.4      0.000      0.000
  Name = 
  3 active torsions:
  status: ('A' for Active; 'I' for Inactive)
    1  A    between atoms: C_9  and  C_15
    2  A    between atoms: C_13  and  C_22
    3  A    between atoms: C_14  and  C_17
                            x       y       z     vdW  Elec       q    Type
                         _______ _______ _______ _____ _____    ______ ____

>  <TORSDO>
F 3

$$$$
=
 OpenBabel10272401153D

 27 31  0  0  1  0  0  0  0  0999 V2000
  189.7400  177.2750  142.5950 C   0  0  0  0  0  3  0  0  0  0  0  0
  187.8430  177.7790  144.0680 N   0  0  0  0  0  0  0  0  0  0  0  0
  187.2910  179.1160  142.0460 C   0  0  0  0  0  2  0  0  0  0  0  0
  187.2400  177.0750  145.0120 N   0  0  0  0  0  0  0  0  0  0  0  0
  188.7380  177.2660  139.0750 C   0  0  2  0  0  3  0  0  0  0  0  0
  189.2890  177.9130  143.8790 C   0  0  1  0  0  3  0  0  0  0  0  0
  185.6710  177.9670  143.7100 C   0  0  0  0  0  0  0  0  0  0  0  0
  189.1840  177.4750  141.3930 C   0  0  0  0  0  0  0  0  0  0  0  0
  186.9270  178.3350  143.2640 C   0  0  0  0  0  0  0  0  0  0  0  0
  187.7440  178.2530  139.7010 C   0  0  0  0  0  2  0  0  0  0  0  0
  185.9060  177.1700  144.8250 C   0  0  0  0  0  3  0  0  0  0  0  0
  189.7050  176.8220  140.1750 C   0  0  0  0  0  2  0  0  0  0  0  0
  188.0350  178.2720  141.1190 N   0  0  0  0  0  0  0  0  0  0  0  0
  183.3330  178.7950  143.9690 C   0  0  0  0  0  3  0  0  0  0  0  0
  181.8300  178.9440  142.0770 C   0  0  0  0  0  3  0  0  0  0  0  0
  182.8360  178.4530  141.2420 C   0  0  0  0  0  3  0  0  0  0  0  0
  184.0890  178.1330  141.7700 C   0  0  0  0  0  3  0  0  0  0  0  0
  184.3500  178.3010  143.1390 C   0  0  0  0  0  0  0  0  0  0  0  0
  182.0780  179.1150  143.4420 C   0  0  0  0  0  3  0  0  0  0  0  0
  191.4800  176.4600  147.2850 C   0  0  0  0  0  3  0  0  0  0  0  0
  190.0730  177.4090  145.0560 C   0  0  0  0  0  0  0  0  0  0  0  0
  189.6100  177.6810  146.3480 C   0  0  0  0  0  3  0  0  0  0  0  0
  190.3120  177.2100  147.4610 C   0  0  0  0  0  3  0  0  0  0  0  0
  191.9450  176.1810  145.9970 C   0  0  0  0  0  3  0  0  0  0  0  0
  191.2430  176.6520  144.8840 C   0  0  0  0  0  3  0  0  0  0  0  0
  189.1090  179.2640  137.8240 O   0  0  0  0  0  1  0  0  0  0  0  0
  189.5130  177.9350  137.9550 C   0  0  0  0  0  2  0  0  0  0  0  0
  1  6  1  0  0  0  0
  2  4  1  0  0  0  0
  3  9  1  0  0  0  0
  5 27  1  6  0  0  0
  5 10  1  0  0  0  0
  5 12  1  0  0  0  0
  6  2  1  0  0  0  0
  6 21  1  1  0  0  0
  7 11  1  0  0  0  0
  8  1  2  0  0  0  0
  9  7  2  0  0  0  0
  9  2  1  0  0  0  0
 10 13  1  0  0  0  0
 11  4  2  0  0  0  0
 12  8  1  0  0  0  0
 13  8  1  0  0  0  0
 13  3  1  0  0  0  0
 15 19  2  0  0  0  0
 16 17  2  0  0  0  0
 16 15  1  0  0  0  0
 17 18  1  0  0  0  0
 18  7  1  0  0  0  0
 18 14  2  0  0  0  0
 19 14  1  0  0  0  0
 20 23  1  0  0  0  0
 21 22  1  0  0  0  0
 22 23  2  0  0  0  0
 24 20  2  0  0  0  0
 25 21  2  0  0  0  0
 25 24  1  0  0  0  0
 26 27  1  0  0  0  0
M  END
>  <MODEL>
2

>  <REMARK>
 VINA RESULT:      -8.8      2.476      5.460
  Name = 
  3 active torsions:
  status: ('A' for Active; 'I' for Inactive)
    1  A    between atoms: C_9  and  C_15
    2  A    between atoms: C_13  and  C_22
    3  A    between atoms: C_14  and  C_17
                            x       y       z     vdW  Elec       q    Type
                         _______ _______ _______ _____ _____    ______ ____

>  <TORSDO>
F 3

$$$$
=
 OpenBabel10272401153D

 27 31  0  0  1  0  0  0  0  0999 V2000
  187.9780  177.6480  138.8020 C   0  0  0  0  0  3  0  0  0  0  0  0
  189.3800  177.3190  140.7890 N   0  0  0  0  0  0  0  0  0  0  0  0
  187.7440  179.0110  141.5910 C   0  0  0  0  0  2  0  0  0  0  0  0
  190.0560  176.2730  141.2360 N   0  0  0  0  0  0  0  0  0  0  0  0
  184.5130  178.3920  139.7150 C   0  0  2  0  0  3  0  0  0  0  0  0
  189.3460  177.8010  139.4060 C   0  0  1  0  0  3  0  0  0  0  0  0
  188.9160  177.1360  142.9410 C   0  0  0  0  0  0  0  0  0  0  0  0
  186.8320  178.0480  139.3670 C   0  0  0  0  0  0  0  0  0  0  0  0
  188.6820  177.8680  141.7920 C   0  0  0  0  0  0  0  0  0  0  0  0
  185.2970  178.9380  140.9150 C   0  0  0  0  0  2  0  0  0  0  0  0
  189.7970  176.1320  142.5540 C   0  0  0  0  0  3  0  0  0  0  0  0
  185.5300  177.8790  138.6920 C   0  0  0  0  0  2  0  0  0  0  0  0
  186.6880  178.6300  140.6610 N   0  0  0  0  0  0  0  0  0  0  0  0
  189.2090  177.4710  145.3960 C   0  0  0  0  0  3  0  0  0  0  0  0
  187.3050  177.6930  146.8740 C   0  0  0  0  0  3  0  0  0  0  0  0
  186.4440  177.5520  145.7840 C   0  0  0  0  0  3  0  0  0  0  0  0
  186.9650  177.3700  144.5000 C   0  0  0  0  0  3  0  0  0  0  0  0
  188.3520  177.3270  144.2940 C   0  0  0  0  0  0  0  0  0  0  0  0
  188.6880  177.6520  146.6800 C   0  0  0  0  0  3  0  0  0  0  0  0
  192.3550  176.0190  136.9000 C   0  0  0  0  0  3  0  0  0  0  0  0
  190.4060  177.1710  138.5510 C   0  0  0  0  0  0  0  0  0  0  0  0
  190.0630  176.7060  137.2760 C   0  0  0  0  0  3  0  0  0  0  0  0
  191.0350  176.1290  136.4530 C   0  0  0  0  0  3  0  0  0  0  0  0
  192.7050  176.4870  138.1700 C   0  0  0  0  0  3  0  0  0  0  0  0
  191.7340  177.0630  138.9940 C   0  0  0  0  0  3  0  0  0  0  0  0
  184.4600  180.6190  138.8560 O   0  0  0  0  0  1  0  0  0  0  0  0
  183.6720  179.4900  139.0890 C   0  0  0  0  0  2  0  0  0  0  0  0
  1  8  2  0  0  0  0
  1  6  1  0  0  0  0
  2  4  1  0  0  0  0
  2  9  1  0  0  0  0
  3  9  1  0  0  0  0
  4 11  2  0  0  0  0
  5 27  1  6  0  0  0
  5 10  1  0  0  0  0
  6 21  1  6  0  0  0
  6  2  1  0  0  0  0
  7 18  1  0  0  0  0
  8 13  1  0  0  0  0
  9  7  2  0  0  0  0
 11  7  1  0  0  0  0
 12  8  1  0  0  0  0
 12  5  1  0  0  0  0
 13 10  1  0  0  0  0
 13  3  1  0  0  0  0
 14 19  1  0  0  0  0
 16 15  1  0  0  0  0
 17 16  2  0  0  0  0
 18 17  1  0  0  0  0
 18 14  2  0  0  0  0
 19 15  2  0  0  0  0
 20 24  1  0  0  0  0
 21 25  1  0  0  0  0
 22 21  2  0  0  0  0
 23 20  2  0  0  0  0
 23 22  1  0  0  0  0
 24 25  2  0  0  0  0
 26 27  1  0  0  0  0
M  END
>  <MODEL>
3

>  <REMARK>
 VINA RESULT:      -8.7      3.010      5.398
  Name = 
  3 active torsions:
  status: ('A' for Active; 'I' for Inactive)
    1  A    between atoms: C_9  and  C_15
    2  A    between atoms: C_13  and  C_22
    3  A    between atoms: C_14  and  C_17
                            x       y       z     vdW  Elec       q    Type
                         _______ _______ _______ _____ _____    ______ ____

>  <TORSDO>
F 3

$$$$
=
 OpenBabel10272401153D

 27 31  0  0  1  0  0  0  0  0999 V2000
  189.8390  177.5430  143.7720 C   0  0  0  0  0  3  0  0  0  0  0  0
  188.0340  177.6460  142.1130 N   0  0  0  0  0  0  0  0  0  0  0  0
  186.8270  176.8500  144.1350 C   0  0  0  0  0  2  0  0  0  0  0  0
  187.8410  178.4190  141.0560 N   0  0  0  0  0  0  0  0  0  0  0  0
  188.6150  178.3180  147.1330 C   0  0  2  0  0  3  0  0  0  0  0  0
  189.2890  176.9900  142.4860 C   0  0  1  0  0  3  0  0  0  0  0  0
  185.9410  178.3430  142.2110 C   0  0  0  0  0  0  0  0  0  0  0  0
  189.1460  177.7030  144.9060 C   0  0  0  0  0  0  0  0  0  0  0  0
  186.9070  177.5740  142.8320 C   0  0  0  0  0  0  0  0  0  0  0  0
  187.3730  177.7240  146.4560 C   0  0  0  0  0  2  0  0  0  0  0  0
  186.5660  178.8630  141.0840 C   0  0  0  0  0  3  0  0  0  0  0  0
  189.7720  178.2350  146.1330 C   0  0  0  0  0  2  0  0  0  0  0  0
  187.7570  177.4410  145.0890 N   0  0  0  0  0  0  0  0  0  0  0  0
  183.5080  178.5430  141.6980 C   0  0  0  0  0  3  0  0  0  0  0  0
  181.8970  179.0970  143.4170 C   0  0  0  0  0  3  0  0  0  0  0  0
  182.9260  179.1600  144.3590 C   0  0  0  0  0  3  0  0  0  0  0  0
  184.2460  178.9150  143.9700 C   0  0  0  0  0  3  0  0  0  0  0  0
  184.5490  178.6050  142.6360 C   0  0  0  0  0  0  0  0  0  0  0  0
  182.1870  178.7880  142.0860 C   0  0  0  0  0  3  0  0  0  0  0  0
  192.1620  177.0990  139.2860 C   0  0  0  0  0  3  0  0  0  0  0  0
  190.3080  177.0250  141.3850 C   0  0  0  0  0  0  0  0  0  0  0  0
  189.9590  176.5380  140.1200 C   0  0  0  0  0  3  0  0  0  0  0  0
  190.8840  176.5730  139.0730 C   0  0  0  0  0  3  0  0  0  0  0  0
  192.5150  177.5910  140.5450 C   0  0  0  0  0  3  0  0  0  0  0  0
  191.5910  177.5570  141.5930 C   0  0  0  0  0  3  0  0  0  0  0  0
  187.8570  177.4630  149.2280 O   0  0  0  0  0  1  0  0  0  0  0  0
  188.9650  177.5290  148.3820 C   0  0  0  0  0  2  0  0  0  0  0  0
  1  8  2  0  0  0  0
  2  6  1  0  0  0  0
  2  9  1  0  0  0  0
  3 13  1  0  0  0  0
  4 11  2  0  0  0  0
  4  2  1  0  0  0  0
  5 27  1  1  0  0  0
  6 21  1  6  0  0  0
  6  1  1  0  0  0  0
  7 18  1  0  0  0  0
  7  9  2  0  0  0  0
  8 13  1  0  0  0  0
  8 12  1  0  0  0  0
  9  3  1  0  0  0  0
 10  5  1  0  0  0  0
 11  7  1  0  0  0  0
 12  5  1  0  0  0  0
 13 10  1  0  0  0  0
 14 19  2  0  0  0  0
 14 18  1  0  0  0  0
 15 16  2  0  0  0  0
 17 16  1  0  0  0  0
 18 17  2  0  0  0  0
 19 15  1  0  0  0  0
 20 24  1  0  0  0  0
 21 25  1  0  0  0  0
 22 21  2  0  0  0  0
 23 20  2  0  0  0  0
 23 22  1  0  0  0  0
 24 25  2  0  0  0  0
 27 26  1  0  0  0  0
M  END
>  <MODEL>
4

>  <REMARK>
 VINA RESULT:      -8.5      1.593      2.061
  Name = 
  3 active torsions:
  status: ('A' for Active; 'I' for Inactive)
    1  A    between atoms: C_9  and  C_15
    2  A    between atoms: C_13  and  C_22
    3  A    between atoms: C_14  and  C_17
                            x       y       z     vdW  Elec       q    Type
                         _______ _______ _______ _____ _____    ______ ____

>  <TORSDO>
F 3

$$$$
=
 OpenBabel10272401153D

 27 31  0  0  1  0  0  0  0  0999 V2000
  185.5760  178.4480  141.3910 C   0  0  0  0  0  3  0  0  0  0  0  0
  185.1510  178.3140  143.8040 N   0  0  0  0  0  0  0  0  0  0  0  0
  187.1310  176.8330  143.5490 C   0  0  0  0  0  2  0  0  0  0  0  0
  184.6350  179.1770  144.6650 N   0  0  0  0  0  0  0  0  0  0  0  0
  189.1490  178.1830  140.6430 C   0  0  2  0  0  3  0  0  0  0  0  0
  184.6290  178.0060  142.4710 C   0  0  1  0  0  3  0  0  0  0  0  0
  186.4810  178.3240  145.5670 C   0  0  0  0  0  0  0  0  0  0  0  0
  186.8870  178.1800  141.3520 C   0  0  0  0  0  0  0  0  0  0  0  0
  186.2650  177.7760  144.3160 C   0  0  0  0  0  0  0  0  0  0  0  0
  189.0220  177.3820  141.9450 C   0  0  0  0  0  2  0  0  0  0  0  0
  185.4250  179.2060  145.7600 C   0  0  0  0  0  3  0  0  0  0  0  0
  187.7440  178.6370  140.2390 C   0  0  0  0  0  2  0  0  0  0  0  0
  187.6350  177.4860  142.3480 N   0  0  0  0  0  0  0  0  0  0  0  0
  188.8250  177.6060  146.0290 C   0  0  0  0  0  3  0  0  0  0  0  0
  189.7200  177.5910  148.2780 C   0  0  0  0  0  3  0  0  0  0  0  0
  188.4970  178.0570  148.7660 C   0  0  0  0  0  3  0  0  0  0  0  0
  187.4390  178.2970  147.8860 C   0  0  0  0  0  3  0  0  0  0  0  0
  187.5920  178.0740  146.5090 C   0  0  0  0  0  0  0  0  0  0  0  0
  189.8840  177.3650  146.9090 C   0  0  0  0  0  3  0  0  0  0  0  0
  180.6580  179.5200  141.7970 C   0  0  0  0  0  3  0  0  0  0  0  0
  183.2460  178.5470  142.2540 C   0  0  0  0  0  0  0  0  0  0  0  0
  182.7710  178.6950  140.9460 C   0  0  0  0  0  3  0  0  0  0  0  0
  181.4810  179.1820  140.7170 C   0  0  0  0  0  3  0  0  0  0  0  0
  181.1250  179.3680  143.1050 C   0  0  0  0  0  3  0  0  0  0  0  0
  182.4140  178.8810  143.3350 C   0  0  0  0  0  3  0  0  0  0  0  0
  190.4470  176.2540  140.1070 O   0  0  0  0  0  1  0  0  0  0  0  0
  189.7390  177.3170  139.5450 C   0  0  0  0  0  2  0  0  0  0  0  0
  1  6  1  0  0  0  0
  2  9  1  0  0  0  0
  2  4  1  0  0  0  0
  3  9  1  0  0  0  0
  4 11  2  0  0  0  0
  5 27  1  6  0  0  0
  5 10  1  0  0  0  0
  6 21  1  6  0  0  0
  6  2  1  0  0  0  0
  7 11  1  0  0  0  0
  7 18  1  0  0  0  0
  8  1  2  0  0  0  0
  8 13  1  0  0  0  0
  9  7  2  0  0  0  0
 10 13  1  0  0  0  0
 12  5  1  0  0  0  0
 12  8  1  0  0  0  0
 13  3  1  0  0  0  0
 14 18  2  0  0  0  0
 14 19  1  0  0  0  0
 15 16  1  0  0  0  0
 17 16  2  0  0  0  0
 18 17  1  0  0  0  0
 19 15  2  0  0  0  0
 20 24  1  0  0  0  0
 21 25  1  0  0  0  0
 22 21  2  0  0  0  0
 23 22  1  0  0  0  0
 23 20  2  0  0  0  0
 24 25  2  0  0  0  0
 27 26  1  0  0  0  0
M  END
>  <MODEL>
5

>  <REMARK>
 VINA RESULT:      -8.5      2.543      6.838
  Name = 
  3 active torsions:
  status: ('A' for Active; 'I' for Inactive)
    1  A    between atoms: C_9  and  C_15
    2  A    between atoms: C_13  and  C_22
    3  A    between atoms: C_14  and  C_17
                            x       y       z     vdW  Elec       q    Type
                         _______ _______ _______ _____ _____    ______ ____

>  <TORSDO>
F 3

$$$$
=
 OpenBabel10272401153D

 27 31  0  0  1  0  0  0  0  0999 V2000
  186.6360  178.1930  141.6820 C   0  0  0  0  0  3  0  0  0  0  0  0
  186.7700  177.7030  144.0830 N   0  0  0  0  0  0  0  0  0  0  0  0
  188.5520  176.2350  143.1600 C   0  0  0  0  0  2  0  0  0  0  0  0
  186.5160  178.4370  145.1550 N   0  0  0  0  0  0  0  0  0  0  0  0
  189.9200  177.9670  140.0830 C   0  0  2  0  0  3  0  0  0  0  0  0
  185.9390  177.6120  142.8810 C   0  0  1  0  0  3  0  0  0  0  0  0
  188.4690  177.4160  145.4650 C   0  0  0  0  0  0  0  0  0  0  0  0
  187.8860  177.9050  141.2980 C   0  0  0  0  0  0  0  0  0  0  0  0
  187.9400  177.0700  144.2360 C   0  0  0  0  0  0  0  0  0  0  0  0
  190.0510  176.9800  141.2510 C   0  0  0  0  0  2  0  0  0  0  0  0
  187.5380  178.2820  146.0250 C   0  0  0  0  0  3  0  0  0  0  0  0
  188.4880  178.5070  140.0910 C   0  0  0  0  0  2  0  0  0  0  0  0
  188.8020  177.0520  141.9790 N   0  0  0  0  0  0  0  0  0  0  0  0
  189.9500  177.1440  147.4550 C   0  0  0  0  0  3  0  0  0  0  0  0
  192.1780  176.2220  147.2520 C   0  0  0  0  0  3  0  0  0  0  0  0
  191.9910  176.0750  145.8760 C   0  0  0  0  0  3  0  0  0  0  0  0
  190.7830  176.4630  145.2890 C   0  0  0  0  0  3  0  0  0  0  0  0
  189.7510  177.0020  146.0730 C   0  0  0  0  0  0  0  0  0  0  0  0
  191.1580  176.7570  148.0420 C   0  0  0  0  0  3  0  0  0  0  0  0
  182.0100  179.2900  143.3910 C   0  0  0  0  0  3  0  0  0  0  0  0
  184.5770  178.2100  143.0760 C   0  0  0  0  0  0  0  0  0  0  0  0
  183.7490  178.3960  141.9620 C   0  0  0  0  0  3  0  0  0  0  0  0
  182.4700  178.9360  142.1180 C   0  0  0  0  0  3  0  0  0  0  0  0
  182.8300  179.1020  144.5070 C   0  0  0  0  0  3  0  0  0  0  0  0
  184.1090  178.5620  144.3520 C   0  0  0  0  0  3  0  0  0  0  0  0
  190.5110  175.9250  138.9960 O   0  0  0  0  0  1  0  0  0  0  0  0
  190.1920  177.2640  138.7650 C   0  0  0  0  0  2  0  0  0  0  0  0
  1  6  1  0  0  0  0
  2  9  1  0  0  0  0
  2  4  1  0  0  0  0
  3  9  1  0  0  0  0
  4 11  2  0  0  0  0
  5 27  1  6  0  0  0
  5 12  1  0  0  0  0
  5 10  1  0  0  0  0
  6 21  1  1  0  0  0
  6  2  1  0  0  0  0
  7 11  1  0  0  0  0
  7 18  1  0  0  0  0
  8  1  2  0  0  0  0
  8 13  1  0  0  0  0
  9  7  2  0  0  0  0
 10 13  1  0  0  0  0
 12  8  1  0  0  0  0
 13  3  1  0  0  0  0
 14 19  1  0  0  0  0
 15 19  2  0  0  0  0
 16 15  1  0  0  0  0
 17 16  2  0  0  0  0
 17 18  1  0  0  0  0
 18 14  2  0  0  0  0
 20 24  1  0  0  0  0
 21 25  1  0  0  0  0
 22 23  1  0  0  0  0
 22 21  2  0  0  0  0
 23 20  2  0  0  0  0
 25 24  2  0  0  0  0
 27 26  1  0  0  0  0
M  END
>  <MODEL>
6

>  <REMARK>
 VINA RESULT:      -8.5      2.091      6.961
  Name = 
  3 active torsions:
  status: ('A' for Active; 'I' for Inactive)
    1  A    between atoms: C_9  and  C_15
    2  A    between atoms: C_13  and  C_22
    3  A    between atoms: C_14  and  C_17
                            x       y       z     vdW  Elec       q    Type
                         _______ _______ _______ _____ _____    ______ ____

>  <TORSDO>
F 3

$$$$
=
 OpenBabel10272401153D

 27 31  0  0  1  0  0  0  0  0999 V2000
  188.5800  177.6060  146.5260 C   0  0  0  0  0  3  0  0  0  0  0  0
  190.1530  177.0450  144.7280 N   0  0  0  0  0  0  0  0  0  0  0  0
  187.9610  176.5560  143.6620 C   0  0  0  0  0  2  0  0  0  0  0  0
  191.3490  177.5160  144.4140 N   0  0  0  0  0  0  0  0  0  0  0  0
  185.4390  178.9310  145.1940 C   0  0  2  0  0  3  0  0  0  0  0  0
  189.6860  176.6950  146.0710 C   0  0  1  0  0  3  0  0  0  0  0  0
  190.1380  177.4130  142.5500 C   0  0  0  0  0  0  0  0  0  0  0  0
  187.4870  177.9120  145.8160 C   0  0  0  0  0  0  0  0  0  0  0  0
  189.3950  176.9650  143.6270 C   0  0  0  0  0  0  0  0  0  0  0  0
  185.9190  178.0130  144.0630 C   0  0  0  0  0  2  0  0  0  0  0  0
  191.3760  177.7510  143.0840 C   0  0  0  0  0  3  0  0  0  0  0  0
  186.4360  178.8020  146.3490 C   0  0  0  0  0  2  0  0  0  0  0  0
  187.1990  177.4870  144.4860 N   0  0  0  0  0  0  0  0  0  0  0  0
  190.4820  176.9130  140.1300 C   0  0  0  0  0  3  0  0  0  0  0  0
  188.9840  177.7810  138.4380 C   0  0  0  0  0  3  0  0  0  0  0  0
  188.2320  178.4130  139.4300 C   0  0  0  0  0  3  0  0  0  0  0  0
  188.6050  178.2960  140.7720 C   0  0  0  0  0  3  0  0  0  0  0  0
  189.7330  177.5450  141.1350 C   0  0  0  0  0  0  0  0  0  0  0  0
  190.1100  177.0310  138.7870 C   0  0  0  0  0  3  0  0  0  0  0  0
  192.8510  176.5480  148.9830 C   0  0  0  0  0  3  0  0  0  0  0  0
  190.8030  176.6340  147.0710 C   0  0  0  0  0  0  0  0  0  0  0  0
  190.9240  177.6560  148.0200 C   0  0  0  0  0  3  0  0  0  0  0  0
  191.9460  177.6150  148.9720 C   0  0  0  0  0  3  0  0  0  0  0  0
  192.7320  175.5220  148.0420 C   0  0  0  0  0  3  0  0  0  0  0  0
  191.7100  175.5620  147.0890 C   0  0  0  0  0  3  0  0  0  0  0  0
  183.1140  178.7880  144.6740 O   0  0  0  0  0  1  0  0  0  0  0  0
  184.0580  178.5130  145.6650 C   0  0  0  0  0  2  0  0  0  0  0  0
  2  6  1  0  0  0  0
  3 13  1  0  0  0  0
  4  2  1  0  0  0  0
  5 27  1  1  0  0  0
  5 12  1  0  0  0  0
  6  1  1  0  0  0  0
  6 21  1  1  0  0  0
  7 11  1  0  0  0  0
  7  9  2  0  0  0  0
  8 12  1  0  0  0  0
  8  1  2  0  0  0  0
  9  3  1  0  0  0  0
  9  2  1  0  0  0  0
 10 13  1  0  0  0  0
 10  5  1  0  0  0  0
 11  4  2  0  0  0  0
 13  8  1  0  0  0  0
 14 18  1  0  0  0  0
 15 19  1  0  0  0  0
 15 16  2  0  0  0  0
 16 17  1  0  0  0  0
 17 18  2  0  0  0  0
 18  7  1  0  0  0  0
 19 14  2  0  0  0  0
 21 25  2  0  0  0  0
 21 22  1  0  0  0  0
 22 23  2  0  0  0  0
 23 20  1  0  0  0  0
 24 20  2  0  0  0  0
 25 24  1  0  0  0  0
 26 27  1  0  0  0  0
M  END
>  <MODEL>
7

>  <REMARK>
 VINA RESULT:      -8.3      2.565      6.500
  Name = 
  3 active torsions:
  status: ('A' for Active; 'I' for Inactive)
    1  A    between atoms: C_9  and  C_15
    2  A    between atoms: C_13  and  C_22
    3  A    between atoms: C_14  and  C_17
                            x       y       z     vdW  Elec       q    Type
                         _______ _______ _______ _____ _____    ______ ____

>  <TORSDO>
F 3

$$$$
=
 OpenBabel10272401153D

 27 31  0  0  1  0  0  0  0  0999 V2000
  190.2150  177.0050  142.4730 C   0  0  0  0  0  3  0  0  0  0  0  0
  188.1800  177.7410  143.6300 N   0  0  0  0  0  0  0  0  0  0  0  0
  187.9940  178.9350  141.4580 C   0  0  0  0  0  2  0  0  0  0  0  0
  187.4100  177.1550  144.5330 N   0  0  0  0  0  0  0  0  0  0  0  0
  189.6880  176.7620  138.8600 C   0  0  2  0  0  3  0  0  0  0  0  0
  189.6440  177.7730  143.6330 C   0  0  1  0  0  3  0  0  0  0  0  0
  186.0920  178.0260  142.9650 C   0  0  0  0  0  0  0  0  0  0  0  0
  189.8380  177.1370  141.1950 C   0  0  0  0  0  0  0  0  0  0  0  0
  187.4190  178.2810  142.6700 C   0  0  0  0  0  0  0  0  0  0  0  0
  188.6910  177.8550  139.2680 C   0  0  0  0  0  2  0  0  0  0  0  0
  186.1220  177.3130  144.1580 C   0  0  0  0  0  3  0  0  0  0  0  0
  190.4680  176.3550  140.1120 C   0  0  0  0  0  2  0  0  0  0  0  0
  188.7930  177.9750  140.7070 N   0  0  0  0  0  0  0  0  0  0  0  0
  184.9890  178.6840  140.8270 C   0  0  0  0  0  3  0  0  0  0  0  0
  182.6040  179.0810  140.7080 C   0  0  0  0  0  3  0  0  0  0  0  0
  182.4890  178.7890  142.0690 C   0  0  0  0  0  3  0  0  0  0  0  0
  183.6240  178.4440  142.8090 C   0  0  0  0  0  3  0  0  0  0  0  0
  184.8850  178.3890  142.1950 C   0  0  0  0  0  0  0  0  0  0  0  0
  183.8540  179.0290  140.0870 C   0  0  0  0  0  3  0  0  0  0  0  0
  191.3790  176.4910  147.3550 C   0  0  0  0  0  3  0  0  0  0  0  0
  190.2280  177.3240  144.9400 C   0  0  0  0  0  0  0  0  0  0  0  0
  191.4080  176.5720  144.9340 C   0  0  0  0  0  3  0  0  0  0  0  0
  191.9820  176.1540  146.1380 C   0  0  0  0  0  3  0  0  0  0  0  0
  190.2030  177.2470  147.3670 C   0  0  0  0  0  3  0  0  0  0  0  0
  189.6290  177.6640  146.1630 C   0  0  0  0  0  3  0  0  0  0  0  0
  191.7760  176.4680  137.7420 O   0  0  0  0  0  1  0  0  0  0  0  0
  190.6490  177.2880  137.8100 C   0  0  0  0  0  2  0  0  0  0  0  0
  1  6  1  0  0  0  0
  2  6  1  0  0  0  0
  2  4  1  0  0  0  0
  3  9  1  0  0  0  0
  5 27  1  6  0  0  0
  5 10  1  0  0  0  0
  5 12  1  0  0  0  0
  6 21  1  1  0  0  0
  7 11  1  0  0  0  0
  8  1  2  0  0  0  0
  9  7  2  0  0  0  0
  9  2  1  0  0  0  0
 10 13  1  0  0  0  0
 11  4  2  0  0  0  0
 12  8  1  0  0  0  0
 13  8  1  0  0  0  0
 13  3  1  0  0  0  0
 14 18  1  0  0  0  0
 15 16  2  0  0  0  0
 16 17  1  0  0  0  0
 18 17  2  0  0  0  0
 18  7  1  0  0  0  0
 19 15  1  0  0  0  0
 19 14  2  0  0  0  0
 20 24  1  0  0  0  0
 21 25  1  0  0  0  0
 22 21  2  0  0  0  0
 22 23  1  0  0  0  0
 23 20  2  0  0  0  0
 25 24  2  0  0  0  0
 26 27  1  0  0  0  0
M  END
>  <MODEL>
8

>  <REMARK>
 VINA RESULT:      -8.1      2.200      5.348
  Name = 
  3 active torsions:
  status: ('A' for Active; 'I' for Inactive)
    1  A    between atoms: C_9  and  C_15
    2  A    between atoms: C_13  and  C_22
    3  A    between atoms: C_14  and  C_17
                            x       y       z     vdW  Elec       q    Type
                         _______ _______ _______ _____ _____    ______ ____

>  <TORSDO>
F 3

$$$$
=
 OpenBabel10272401153D

 27 31  0  0  1  0  0  0  0  0999 V2000
  188.4100  177.3420  145.8330 C   0  0  0  0  0  3  0  0  0  0  0  0
  188.2700  177.9390  143.4570 N   0  0  0  0  0  0  0  0  0  0  0  0
  190.6910  178.2600  143.9240 C   0  0  0  0  0  2  0  0  0  0  0  0
  187.4720  177.5310  142.4830 N   0  0  0  0  0  0  0  0  0  0  0  0
  191.6250  175.7880  146.6370 C   0  0  2  0  0  3  0  0  0  0  0  0
  187.8610  178.3030  144.8150 C   0  0  1  0  0  3  0  0  0  0  0  0
  189.5620  177.5010  141.7190 C   0  0  0  0  0  0  0  0  0  0  0  0
  189.6870  176.9480  145.9180 C   0  0  0  0  0  0  0  0  0  0  0  0
  189.5400  177.9380  143.0310 C   0  0  0  0  0  0  0  0  0  0  0  0
  191.9820  176.6970  145.4540 C   0  0  0  0  0  2  0  0  0  0  0  0
  188.2310  177.2550  141.4010 C   0  0  0  0  0  3  0  0  0  0  0  0
  190.1470  176.0140  146.9650 C   0  0  0  0  0  2  0  0  0  0  0  0
  190.7420  177.3130  145.0310 N   0  0  0  0  0  0  0  0  0  0  0  0
  190.5410  176.7360  139.5560 C   0  0  0  0  0  3  0  0  0  0  0  0
  192.9160  176.9060  139.1160 C   0  0  0  0  0  3  0  0  0  0  0  0
  193.1080  177.4670  140.3800 C   0  0  0  0  0  3  0  0  0  0  0  0
  192.0170  177.6640  141.2320 C   0  0  0  0  0  3  0  0  0  0  0  0
  190.7230  177.2990  140.8280 C   0  0  0  0  0  0  0  0  0  0  0  0
  191.6320  176.5400  138.7040 C   0  0  0  0  0  3  0  0  0  0  0  0
  183.6090  178.7880  145.2500 C   0  0  0  0  0  3  0  0  0  0  0  0
  186.3750  178.4630  144.9460 C   0  0  0  0  0  0  0  0  0  0  0  0
  185.7840  178.3190  146.2060 C   0  0  0  0  0  3  0  0  0  0  0  0
  184.4040  178.4790  146.3580 C   0  0  0  0  0  3  0  0  0  0  0  0
  184.1940  178.9390  143.9900 C   0  0  0  0  0  3  0  0  0  0  0  0
  185.5740  178.7790  143.8370 C   0  0  0  0  0  3  0  0  0  0  0  0
  191.9780  177.2900  148.4590 O   0  0  0  0  0  1  0  0  0  0  0  0
  192.4730  176.1370  147.8460 C   0  0  0  0  0  2  0  0  0  0  0  0
  1  8  2  0  0  0  0
  2  6  1  0  0  0  0
  3 13  1  0  0  0  0
  4  2  1  0  0  0  0
  5 12  1  0  0  0  0
  5 27  1  1  0  0  0
  6 21  1  6  0  0  0
  6  1  1  0  0  0  0
  7  9  2  0  0  0  0
  8 12  1  0  0  0  0
  9  2  1  0  0  0  0
  9  3  1  0  0  0  0
 10  5  1  0  0  0  0
 11  7  1  0  0  0  0
 11  4  2  0  0  0  0
 13 10  1  0  0  0  0
 13  8  1  0  0  0  0
 14 18  1  0  0  0  0
 15 16  2  0  0  0  0
 16 17  1  0  0  0  0
 18 17  2  0  0  0  0
 18  7  1  0  0  0  0
 19 15  1  0  0  0  0
 19 14  2  0  0  0  0
 20 23  1  0  0  0  0
 21 22  1  0  0  0  0
 22 23  2  0  0  0  0
 24 20  2  0  0  0  0
 25 24  1  0  0  0  0
 25 21  2  0  0  0  0
 27 26  1  0  0  0  0
M  END
>  <MODEL>
9

>  <REMARK>
 VINA RESULT:      -7.8      1.333      6.282
  Name = 
  3 active torsions:
  status: ('A' for Active; 'I' for Inactive)
    1  A    between atoms: C_9  and  C_15
    2  A    between atoms: C_13  and  C_22
    3  A    between atoms: C_14  and  C_17
                            x       y       z     vdW  Elec       q    Type
                         _______ _______ _______ _____ _____    ______ ____

>  <TORSDO>
F 3

$$$$
