=
 OpenBabel10272401253D

 55 59  0  0  1  0  0  0  0  0999 V2000
  186.2220  177.6600  137.3080 C   0  0  0  0  0  2  0  0  0  0  0  0
  191.7780  176.4620  140.5560 C   0  0  0  0  0  2  0  0  0  0  0  0
  189.9760  175.8190  142.6450 O   0  0  0  0  0  0  0  0  0  0  0  0
  193.0140  176.2510  138.4590 N   0  0  0  0  0  0  0  0  0  0  0  0
  186.6630  177.8150  144.7170 C   0  0  0  0  0  2  0  0  0  0  0  0
  185.6630  178.5450  145.5680 C   0  0  0  0  0  3  0  0  0  0  0  0
  185.4830  178.6550  142.6920 C   0  0  2  0  0  3  0  0  0  0  0  0
  184.5560  179.3430  143.5890 N   0  0  0  0  0  2  0  0  0  0  0  0
  189.1030  178.0220  142.8700 C   0  0  0  0  0  2  0  0  0  0  0  0
  184.6630  179.2340  145.0150 C   0  0  0  0  0  3  0  0  0  0  0  0
  187.5050  178.4030  135.2790 C   0  0  0  0  0  2  0  0  0  0  0  0
  186.8530  178.5050  143.3620 C   0  0  2  0  0  3  0  0  0  0  0  0
  189.0430  176.1060  135.8500 C   0  0  0  0  0  0  0  0  0  0  0  0
  186.2970  177.3450  138.6710 O   0  0  0  0  0  0  0  0  0  0  0  0
  188.5200  176.7600  136.9020 C   0  0  0  0  0  3  0  0  0  0  0  0
  185.2200  178.4780  140.4910 C   0  0  2  0  0  3  0  0  0  0  0  0
  192.6230  177.1730  139.5160 C   0  0  0  0  0  2  0  0  0  0  0  0
  185.5920  179.3760  141.4980 O   0  0  0  0  0  0  0  0  0  0  0  0
  190.9400  177.4240  141.2500 N   0  0  0  0  0  2  0  0  0  0  0  0
  190.0220  177.0200  142.2650 C   0  0  0  0  0  0  0  0  0  0  0  0
  187.4620  177.2500  134.3820 N   0  0  0  0  0  2  0  0  0  0  0  0
  192.0130  175.7720  137.6000 C   0  0  0  0  0  0  0  0  0  0  0  0
  187.6070  177.9500  136.7410 C   0  0  2  0  0  3  0  0  0  0  0  0
  187.7280  177.6990  142.5210 N   0  0  0  0  0  2  0  0  0  0  0  0
  186.2190  178.5690  139.3430 C   0  0  0  0  0  2  0  0  0  0  0  0
  191.1230  175.3830  136.8860 C   0  0  0  0  0  0  0  0  0  0  0  0
  189.9860  174.9590  136.0610 C   0  0  0  0  0  2  0  0  0  0  0  0
  188.7600  176.5790  134.4500 C   0  0  0  0  0  2  0  0  0  0  0  0
  183.1480  177.5460  139.4090 C   0  0  0  0  0  3  0  0  0  0  0  0
  181.5760  179.0170  138.2590 C   0  0  0  0  0  0  0  0  0  0  0  0
  183.6780  179.9900  139.1220 C   0  0  0  0  0  2  0  0  0  0  0  0
  182.2950  180.1110  138.5410 C   0  0  0  0  0  3  0  0  0  0  0  0
  182.0910  177.6780  138.6050 C   0  0  0  0  0  3  0  0  0  0  0  0
  183.7830  178.7600  140.0370 C   0  0  2  0  0  3  0  0  0  0  0  0
  179.9820  179.1670  137.4890 S   0  0  2  0  0  0  0  0  0  0  0  0
  179.9830  178.0840  136.4190 O   0  0  0  0  0  0  0  0  0  0  0  0
  180.0670  180.7110  136.5670 C   0  0  0  0  0  1  0  0  0  0  0  0
  194.3580  176.2110  138.0590 N   0  0  0  0  0  2  0  0  0  0  0  0
  193.3820  176.1860  135.5880 O   0  0  0  0  0  0  0  0  0  0  0  0
  194.4630  175.5830  136.4420 S   0  0  0  0  0  0  0  0  0  0  0  0
  195.8010  175.9780  135.8830 O   0  0  0  0  0  0  0  0  0  0  0  0
  194.3160  173.7930  136.4500 C   0  0  1  0  0  3  0  0  0  0  0  0
  193.3030  173.3070  135.4310 C   0  0  0  0  0  1  0  0  0  0  0  0
  195.6150  172.0810  135.1390 C   0  0  0  0  0  1  0  0  0  0  0  0
  195.6470  173.0240  136.3360 C   0  0  2  0  0  3  0  0  0  0  0  0
  197.4720  170.3190  137.2190 C   0  0  0  0  0  0  0  0  0  0  0  0
  195.3860  172.6490  138.7090 O   0  0  0  0  0  1  0  0  0  0  0  0
  197.4770  168.8400  137.0790 C   0  0  0  0  0  1  0  0  0  0  0  0
  197.6100  173.0090  137.9820 C   0  0  1  0  0  3  0  0  0  0  0  0
  198.6720  171.0270  137.0990 O   0  0  0  0  0  0  0  0  0  0  0  0
  196.2370  172.3890  137.6330 C   0  0  2  0  0  0  0  0  0  0  0  0
  198.7020  172.4500  137.0750 C   0  0  0  0  0  2  0  0  0  0  0  0
  196.3570  170.9330  137.4850 N   0  0  0  0  0  0  0  0  0  0  0  0
  197.5780  174.4050  137.9000 O   0  0  0  0  0  0  0  0  0  0  0  0
  198.3970  174.8440  138.9410 C   0  0  0  0  0  1  0  0  0  0  0  0
  1 14  1  0  0  0  0
  2 19  1  0  0  0  0
  4 17  1  0  0  0  0
  5  6  1  0  0  0  0
  7 18  1  6  0  0  0
  7 12  1  0  0  0  0
  7  8  1  0  0  0  0
  8 10  1  0  0  0  0
 10  6  2  0  0  0  0
 12  5  1  1  0  0  0
 13 27  1  0  0  0  0
 13 15  2  0  0  0  0
 14 25  1  0  0  0  0
 16 25  1  6  0  0  0
 16 18  1  0  0  0  0
 17  2  1  0  0  0  0
 19 20  1  0  0  0  0
 20  3  2  0  0  0  0
 20  9  1  0  0  0  0
 21 28  1  0  0  0  0
 21 11  1  0  0  0  0
 22  4  1  0  0  0  0
 23 11  1  6  0  0  0
 23 15  1  0  0  0  0
 23  1  1  0  0  0  0
 24  9  1  0  0  0  0
 24 12  1  0  0  0  0
 26 22  3  0  0  0  0
 27 26  1  0  0  0  0
 28 13  1  0  0  0  0
 29 34  1  0  0  0  0
 30 32  2  0  0  0  0
 30 33  1  0  0  0  0
 32 31  1  0  0  0  0
 33 29  2  0  0  0  0
 34 31  1  6  0  0  0
 34 16  1  0  0  0  0
 35 37  1  6  0  0  0
 35 30  1  0  0  0  0
 36 35  2  0  0  0  0
 38  4  1  0  0  0  0
 39 40  2  0  0  0  0
 40 42  1  0  0  0  0
 40 38  1  0  0  0  0
 41 40  2  0  0  0  0
 42 43  1  6  0  0  0
 45 44  1  6  0  0  0
 45 42  1  0  0  0  0
 45 51  1  0  0  0  0
 46 53  2  0  0  0  0
 48 46  1  0  0  0  0
 49 54  1  6  0  0  0
 50 46  1  0  0  0  0
 51 49  1  0  0  0  0
 51 47  1  1  0  0  0
 52 50  1  0  0  0  0
 52 49  1  0  0  0  0
 53 51  1  0  0  0  0
 54 55  1  0  0  0  0
M  END
>  <MODEL>
1

>  <REMARK>
 VINA RESULT:      -7.5      0.000      0.000
  Name = 
  8 active torsions:
  status: ('A' for Active; 'I' for Inactive)
    1  A    between atoms: C_6  and  C_14
    2  A    between atoms: C_6  and  S_20
    3  A    between atoms: N_8  and  N_22
    4  A    between atoms: S_10  and  C_32
    5  A    between atoms: O_11  and  C_29
    6  A    between atoms: C_14  and  C_38
    7  A    between atoms: S_20  and  N_22
    8  A    between atoms: C_33  and  C_52
                            x       y       z     vdW  Elec       q    Type
                         _______ _______ _______ _____ _____    ______ ____

>  <TORSDO>
F 8

$$$$
=
 OpenBabel10272401253D

 55 59  0  0  1  0  0  0  0  0999 V2000
  188.7790  177.9070  141.8850 C   0  0  0  0  0  2  0  0  0  0  0  0
  186.9200  176.1450  135.8610 C   0  0  0  0  0  2  0  0  0  0  0  0
  184.8730  178.0420  136.3450 O   0  0  0  0  0  0  0  0  0  0  0  0
  189.1450  175.2560  135.3830 N   0  0  0  0  0  0  0  0  0  0  0  0
  181.8210  178.7150  139.4240 C   0  0  0  0  0  2  0  0  0  0  0  0
  180.6490  178.8530  140.3550 C   0  0  0  0  0  3  0  0  0  0  0  0
  183.2970  178.4100  141.4060 C   0  0  2  0  0  3  0  0  0  0  0  0
  182.1060  178.5450  142.2410 N   0  0  0  0  0  2  0  0  0  0  0  0
  183.8680  176.8320  138.1310 C   0  0  0  0  0  2  0  0  0  0  0  0
  180.8120  178.7990  141.6770 C   0  0  0  0  0  3  0  0  0  0  0  0
  190.6600  176.2420  141.8500 C   0  0  0  0  0  2  0  0  0  0  0  0
  182.9190  177.8370  140.0350 C   0  0  2  0  0  3  0  0  0  0  0  0
  191.0450  177.2670  139.2480 C   0  0  0  0  0  0  0  0  0  0  0  0
  187.6010  178.3330  141.2570 O   0  0  0  0  0  0  0  0  0  0  0  0
  189.7790  177.2200  139.6980 C   0  0  0  0  0  3  0  0  0  0  0  0
  185.3840  178.3500  142.1730 C   0  0  2  0  0  3  0  0  0  0  0  0
  187.8140  174.9190  135.8660 C   0  0  0  0  0  2  0  0  0  0  0  0
  184.2220  177.5800  142.0500 O   0  0  0  0  0  0  0  0  0  0  0  0
  185.8510  175.9770  136.8290 N   0  0  0  0  0  2  0  0  0  0  0  0
  184.8780  176.9970  137.0500 C   0  0  0  0  0  0  0  0  0  0  0  0
  191.8450  177.0430  141.5440 N   0  0  0  0  0  2  0  0  0  0  0  0
  189.9470  176.0830  136.1850 C   0  0  0  0  0  0  0  0  0  0  0  0
  189.4360  176.7790  141.0990 C   0  0  2  0  0  3  0  0  0  0  0  0
  184.0850  177.8350  139.1620 N   0  0  0  0  0  2  0  0  0  0  0  0
  186.5890  177.5120  141.7620 C   0  0  0  0  0  2  0  0  0  0  0  0
  190.6010  176.7960  136.9020 C   0  0  0  0  0  0  0  0  0  0  0  0
  191.3330  177.6650  137.8310 C   0  0  0  0  0  2  0  0  0  0  0  0
  192.1790  176.8310  140.1360 C   0  0  0  0  0  2  0  0  0  0  0  0
  186.7670  178.4040  144.2740 C   0  0  0  0  0  3  0  0  0  0  0  0
  185.7250  178.8330  146.4400 C   0  0  0  0  0  0  0  0  0  0  0  0
  184.2650  178.6040  144.4580 C   0  0  0  0  0  2  0  0  0  0  0  0
  184.5080  178.9690  145.8970 C   0  0  0  0  0  3  0  0  0  0  0  0
  186.8680  178.4150  145.6060 C   0  0  0  0  0  3  0  0  0  0  0  0
  185.5090  178.8910  143.6020 C   0  0  2  0  0  3  0  0  0  0  0  0
  185.9810  179.1770  148.1630 S   0  0  2  0  0  0  0  0  0  0  0  0
  186.0270  180.6980  148.2350 O   0  0  0  0  0  0  0  0  0  0  0  0
  187.6760  178.6620  148.4820 C   0  0  0  0  0  1  0  0  0  0  0  0
  189.7370  174.4390  134.4070 N   0  0  0  0  0  2  0  0  0  0  0  0
  190.4920  173.2370  136.6530 O   0  0  0  0  0  0  0  0  0  0  0  0
  190.7740  173.2770  135.1770 S   0  0  0  0  0  0  0  0  0  0  0  0
  190.4680  171.9280  134.5880 O   0  0  0  0  0  0  0  0  0  0  0  0
  192.5010  173.6830  134.8900 C   0  0  1  0  0  3  0  0  0  0  0  0
  192.6640  175.0900  134.3460 C   0  0  0  0  0  1  0  0  0  0  0  0
  193.5380  174.6610  136.9640 C   0  0  0  0  0  1  0  0  0  0  0  0
  193.4440  173.4240  136.0800 C   0  0  2  0  0  3  0  0  0  0  0  0
  196.6530  173.6640  137.1150 C   0  0  0  0  0  0  0  0  0  0  0  0
  194.8710  172.3560  134.4470 O   0  0  0  0  0  1  0  0  0  0  0  0
  197.7390  174.6660  137.2730 C   0  0  0  0  0  1  0  0  0  0  0  0
  194.9940  171.4600  136.6350 C   0  0  1  0  0  3  0  0  0  0  0  0
  196.4590  172.6960  138.1060 O   0  0  0  0  0  0  0  0  0  0  0  0
  194.8170  172.7420  135.7880 C   0  0  2  0  0  0  0  0  0  0  0  0
  195.3450  171.8100  138.0780 C   0  0  0  0  0  2  0  0  0  0  0  0
  195.9200  173.6770  136.0410 N   0  0  0  0  0  0  0  0  0  0  0  0
  193.8500  170.6570  136.5960 O   0  0  0  0  0  0  0  0  0  0  0  0
  194.2320  169.4580  137.1980 C   0  0  0  0  0  1  0  0  0  0  0  0
  2 17  1  0  0  0  0
  2 19  1  0  0  0  0
  3 20  2  0  0  0  0
  4 17  1  0  0  0  0
  4 22  1  0  0  0  0
  5  6  1  0  0  0  0
  6 10  2  0  0  0  0
  7 18  1  1  0  0  0
  7  8  1  0  0  0  0
  9 24  1  0  0  0  0
 10  8  1  0  0  0  0
 12  5  1  6  0  0  0
 12  7  1  0  0  0  0
 13 15  2  0  0  0  0
 13 28  1  0  0  0  0
 14 25  1  0  0  0  0
 14  1  1  0  0  0  0
 16 25  1  1  0  0  0
 16 34  1  0  0  0  0
 18 16  1  0  0  0  0
 19 20  1  0  0  0  0
 20  9  1  0  0  0  0
 21 11  1  0  0  0  0
 22 26  3  0  0  0  0
 23 15  1  6  0  0  0
 23 11  1  0  0  0  0
 23  1  1  0  0  0  0
 24 12  1  0  0  0  0
 26 27  1  0  0  0  0
 27 13  1  0  0  0  0
 28 21  1  0  0  0  0
 29 33  2  0  0  0  0
 30 35  1  0  0  0  0
 31 32  1  0  0  0  0
 32 30  2  0  0  0  0
 33 30  1  0  0  0  0
 34 29  1  1  0  0  0
 34 31  1  0  0  0  0
 35 36  2  0  0  0  0
 35 37  1  6  0  0  0
 38 40  1  0  0  0  0
 38  4  1  0  0  0  0
 40 39  2  0  0  0  0
 41 40  2  0  0  0  0
 42 43  1  1  0  0  0
 42 40  1  0  0  0  0
 42 45  1  0  0  0  0
 45 44  1  6  0  0  0
 46 48  1  0  0  0  0
 46 50  1  0  0  0  0
 49 54  1  1  0  0  0
 49 52  1  0  0  0  0
 51 47  1  6  0  0  0
 51 53  1  0  0  0  0
 51 45  1  0  0  0  0
 51 49  1  0  0  0  0
 52 50  1  0  0  0  0
 53 46  2  0  0  0  0
 54 55  1  0  0  0  0
M  END
>  <MODEL>
2

>  <REMARK>
 VINA RESULT:      -5.8      2.974      6.047
  Name = 
  8 active torsions:
  status: ('A' for Active; 'I' for Inactive)
    1  A    between atoms: C_6  and  C_14
    2  A    between atoms: C_6  and  S_20
    3  A    between atoms: N_8  and  N_22
    4  A    between atoms: S_10  and  C_32
    5  A    between atoms: O_11  and  C_29
    6  A    between atoms: C_14  and  C_38
    7  A    between atoms: S_20  and  N_22
    8  A    between atoms: C_33  and  C_52
                            x       y       z     vdW  Elec       q    Type
                         _______ _______ _______ _____ _____    ______ ____

>  <TORSDO>
F 8

$$$$
=
 OpenBabel10272401253D

 55 59  0  0  1  0  0  0  0  0999 V2000
  186.0750  178.1130  143.6380 C   0  0  0  0  0  2  0  0  0  0  0  0
  184.9910  177.5300  137.2090 C   0  0  0  0  0  2  0  0  0  0  0  0
  187.2860  175.8770  137.3530 O   0  0  0  0  0  0  0  0  0  0  0  0
  182.6730  178.2510  137.4860 N   0  0  0  0  0  0  0  0  0  0  0  0
  191.4060  176.2710  138.8100 C   0  0  0  0  0  2  0  0  0  0  0  0
  192.8660  176.4430  139.1190 C   0  0  0  0  0  3  0  0  0  0  0  0
  190.8670  177.3130  141.0060 C   0  0  2  0  0  3  0  0  0  0  0  0
  192.3050  177.4530  141.2260 N   0  0  0  0  0  2  0  0  0  0  0  0
  188.7750  177.6200  137.9950 C   0  0  0  0  0  2  0  0  0  0  0  0
  193.2660  176.9760  140.2750 C   0  0  0  0  0  3  0  0  0  0  0  0
  184.1480  179.7070  143.8730 C   0  0  0  0  0  2  0  0  0  0  0  0
  190.5580  177.3410  139.5050 C   0  0  2  0  0  3  0  0  0  0  0  0
  182.8510  177.8250  142.2170 C   0  0  0  0  0  0  0  0  0  0  0  0
  186.9280  177.4550  142.7410 O   0  0  0  0  0  0  0  0  0  0  0  0
  184.1700  177.9940  142.0220 C   0  0  0  0  0  3  0  0  0  0  0  0
  189.3060  177.7050  142.5400 C   0  0  2  0  0  3  0  0  0  0  0  0
  184.0260  178.7010  137.1920 C   0  0  0  0  0  2  0  0  0  0  0  0
  190.1950  178.3450  141.6690 O   0  0  0  0  0  0  0  0  0  0  0  0
  186.3340  178.0040  137.4910 N   0  0  0  0  0  2  0  0  0  0  0  0
  187.4370  177.1050  137.5920 C   0  0  0  0  0  0  0  0  0  0  0  0
  183.0620  178.8850  144.4060 N   0  0  0  0  0  2  0  0  0  0  0  0
  182.3990  177.7920  138.7840 C   0  0  0  0  0  0  0  0  0  0  0  0
  185.0060  178.9010  142.8910 C   0  0  2  0  0  3  0  0  0  0  0  0
  189.1450  177.0620  139.2880 N   0  0  0  0  0  2  0  0  0  0  0  0
  187.9390  178.3730  142.4440 C   0  0  0  0  0  2  0  0  0  0  0  0
  182.2060  177.4050  139.9090 C   0  0  0  0  0  0  0  0  0  0  0  0
  182.0530  176.9510  141.2960 C   0  0  0  0  0  2  0  0  0  0  0  0
  182.1450  178.5850  143.3070 C   0  0  0  0  0  2  0  0  0  0  0  0
  190.9290  176.6720  144.1610 C   0  0  0  0  0  3  0  0  0  0  0  0
  190.5050  176.7480  146.5650 C   0  0  0  0  0  0  0  0  0  0  0  0
  188.7650  177.6130  145.0370 C   0  0  0  0  0  2  0  0  0  0  0  0
  189.3630  177.4290  146.4050 C   0  0  0  0  0  3  0  0  0  0  0  0
  191.2450  176.2500  145.3890 C   0  0  0  0  0  3  0  0  0  0  0  0
  189.8630  177.7200  143.9680 C   0  0  2  0  0  3  0  0  0  0  0  0
  191.1550  176.4570  148.1920 S   0  0  2  0  0  0  0  0  0  0  0  0
  191.5350  177.8440  148.6940 O   0  0  0  0  0  0  0  0  0  0  0  0
  192.7320  175.6350  147.9100 C   0  0  0  0  0  1  0  0  0  0  0  0
  181.6240  178.6780  136.6570 N   0  0  0  0  0  2  0  0  0  0  0  0
  180.2330  176.4170  136.7770 O   0  0  0  0  0  0  0  0  0  0  0  0
  180.9620  177.3110  135.8130 S   0  0  0  0  0  0  0  0  0  0  0  0
  179.9830  177.8300  134.7970 O   0  0  0  0  0  0  0  0  0  0  0  0
  182.2630  176.3920  134.9810 C   0  0  1  0  0  3  0  0  0  0  0  0
  183.3650  177.3060  134.4810 C   0  0  0  0  0  1  0  0  0  0  0  0
  184.3550  175.2530  135.7950 C   0  0  0  0  0  1  0  0  0  0  0  0
  182.8330  175.1980  135.7720 C   0  0  2  0  0  3  0  0  0  0  0  0
  183.9720  172.0630  135.2260 C   0  0  0  0  0  0  0  0  0  0  0  0
  181.0820  173.9050  134.7210 O   0  0  0  0  0  1  0  0  0  0  0  0
  184.9180  171.3180  134.3560 C   0  0  0  0  0  1  0  0  0  0  0  0
  181.8670  173.0520  136.7850 C   0  0  1  0  0  3  0  0  0  0  0  0
  183.8860  171.7410  136.5850 O   0  0  0  0  0  0  0  0  0  0  0  0
  182.2500  173.7820  135.4770 C   0  0  2  0  0  0  0  0  0  0  0  0
  183.1100  172.5190  137.4900 C   0  0  0  0  0  2  0  0  0  0  0  0
  183.2100  172.9800  134.7080 N   0  0  0  0  0  0  0  0  0  0  0  0
  181.1420  173.8850  137.6440 O   0  0  0  0  0  0  0  0  0  0  0  0
  180.1410  173.0700  138.1740 C   0  0  0  0  0  1  0  0  0  0  0  0
  2 19  1  0  0  0  0
  3 20  2  0  0  0  0
  4 22  1  0  0  0  0
  5  6  1  0  0  0  0
  6 10  2  0  0  0  0
  7  8  1  6  0  0  0
  7 18  1  0  0  0  0
  9 24  1  0  0  0  0
 10  8  1  0  0  0  0
 11 21  1  0  0  0  0
 12  5  1  6  0  0  0
 12  7  1  0  0  0  0
 13 28  1  0  0  0  0
 14  1  1  0  0  0  0
 15 13  2  0  0  0  0
 16 25  1  1  0  0  0
 16 34  1  0  0  0  0
 17  2  1  0  0  0  0
 17  4  1  0  0  0  0
 18 16  1  0  0  0  0
 19 20  1  0  0  0  0
 20  9  1  0  0  0  0
 22 26  3  0  0  0  0
 23 15  1  1  0  0  0
 23  1  1  0  0  0  0
 23 11  1  0  0  0  0
 24 12  1  0  0  0  0
 25 14  1  0  0  0  0
 26 27  1  0  0  0  0
 27 13  1  0  0  0  0
 28 21  1  0  0  0  0
 29 33  2  0  0  0  0
 30 35  1  0  0  0  0
 31 32  1  0  0  0  0
 32 30  2  0  0  0  0
 33 30  1  0  0  0  0
 34 29  1  6  0  0  0
 34 31  1  0  0  0  0
 35 37  1  6  0  0  0
 35 36  2  0  0  0  0
 38  4  1  0  0  0  0
 40 38  1  0  0  0  0
 40 39  2  0  0  0  0
 41 40  2  0  0  0  0
 42 43  1  1  0  0  0
 42 45  1  0  0  0  0
 42 40  1  0  0  0  0
 45 44  1  6  0  0  0
 46 50  1  0  0  0  0
 48 46  1  0  0  0  0
 49 52  1  0  0  0  0
 49 54  1  1  0  0  0
 50 52  1  0  0  0  0
 51 47  1  6  0  0  0
 51 45  1  0  0  0  0
 51 49  1  0  0  0  0
 53 46  2  0  0  0  0
 53 51  1  0  0  0  0
 54 55  1  0  0  0  0
M  END
>  <MODEL>
3

>  <REMARK>
 VINA RESULT:      -5.4      4.734     11.114
  Name = 
  8 active torsions:
  status: ('A' for Active; 'I' for Inactive)
    1  A    between atoms: C_6  and  C_14
    2  A    between atoms: C_6  and  S_20
    3  A    between atoms: N_8  and  N_22
    4  A    between atoms: S_10  and  C_32
    5  A    between atoms: O_11  and  C_29
    6  A    between atoms: C_14  and  C_38
    7  A    between atoms: S_20  and  N_22
    8  A    between atoms: C_33  and  C_52
                            x       y       z     vdW  Elec       q    Type
                         _______ _______ _______ _____ _____    ______ ____

>  <TORSDO>
F 8

$$$$
