=
 OpenBabel10272402043D

 32 37  0  0  1  0  0  0  0  0999 V2000
  189.1670  178.0540  142.5450 C   0  0  1  0  0  3  0  0  0  0  0  0
  187.0220  177.9750  143.7140 C   0  0  1  0  0  3  0  0  0  0  0  0
  189.8560  179.1430  143.3600 C   0  0  0  0  0  2  0  0  0  0  0  0
  188.2200  177.2080  143.4050 C   0  0  2  0  0  3  0  0  0  0  0  0
  185.5510  178.0910  145.6390 C   0  0  1  0  0  3  0  0  0  0  0  0
  182.6300  178.3770  141.4060 C   0  0  0  0  0  3  0  0  0  0  0  0
  186.2580  178.0550  142.4180 C   0  0  2  0  0  3  0  0  0  0  0  0
  182.7950  179.1700  143.6810 C   0  0  0  0  0  3  0  0  0  0  0  0
  184.1730  178.9310  143.6810 C   0  0  0  0  0  0  0  0  0  0  0  0
  188.6230  176.8220  144.8000 C   0  0  2  0  0  3  0  0  0  0  0  0
  184.9380  179.3020  144.9120 C   0  0  0  0  0  2  0  0  0  0  0  0
  187.4060  176.6390  145.5150 O   0  0  0  0  0  0  0  0  0  0  0  0
  189.4620  177.9070  145.4980 C   0  0  0  0  0  2  0  0  0  0  0  0
  187.0590  179.0220  141.5300 C   0  0  0  0  0  2  0  0  0  0  0  0
  188.4820  178.6160  141.3520 N   0  0  2  0  0  0  0  0  0  0  0  0
  184.7940  178.4090  142.5180 C   0  0  0  0  0  0  0  0  0  0  0  0
  186.3910  177.2160  144.7770 N   0  0  2  0  0  0  0  0  0  0  0  0
  190.5230  178.5090  144.5780 C   0  0  0  0  0  2  0  0  0  0  0  0
  182.0250  178.8930  142.5510 C   0  0  0  0  0  3  0  0  0  0  0  0
  184.0050  178.1340  141.3930 C   0  0  0  0  0  3  0  0  0  0  0  0
  191.6400  177.3130  139.6280 C   0  0  1  0  0  3  0  0  0  0  0  0
  189.1930  175.4840  137.7040 C   0  0  0  0  0  1  0  0  0  0  0  0
  193.1130  177.4660  139.9400 C   0  0  0  0  0  1  0  0  0  0  0  0
  189.5530  177.9840  137.7870 C   0  0  0  0  0  3  0  0  0  0  0  0
  188.6680  177.7220  140.1980 C   0  0  1  0  0  3  0  0  0  0  0  0
  191.4680  176.3740  138.4270 C   0  0  0  0  0  2  0  0  0  0  0  0
  188.9370  178.4500  138.8890 C   0  0  0  0  0  3  0  0  0  0  0  0
  190.9390  176.8440  140.8250 N   0  0  0  0  0  2  0  0  0  0  0  0
  189.5410  176.5090  140.5460 C   0  0  0  0  0  2  0  0  0  0  0  0
  190.1890  176.6260  137.6080 C   0  0  1  0  0  3  0  0  0  0  0  0
  186.2360  178.5650  146.8940 C   0  0  0  0  0  3  0  0  0  0  0  0
  185.9010  179.6060  147.4390 O   0  0  0  0  0  0  0  0  0  0  0  0
  1  3  1  1  0  0  0
  1  4  1  0  0  0  0
  2 17  1  0  0  0  0
  3 18  1  0  0  0  0
  4  2  1  0  0  0  0
  4 10  1  0  0  0  0
  5 31  1  0  0  0  0
  6 19  1  0  0  0  0
  7 16  1  0  0  0  0
  7  2  1  0  0  0  0
  9  8  1  0  0  0  0
  9 11  1  0  0  0  0
 10 13  1  0  0  0  0
 10 12  1  0  0  0  0
 11  5  1  0  0  0  0
 14  7  1  0  0  0  0
 15 14  1  0  0  0  0
 15  1  1  0  0  0  0
 16  9  2  0  0  0  0
 17 12  1  0  0  0  0
 17  5  1  0  0  0  0
 18 13  1  0  0  0  0
 19  8  2  0  0  0  0
 20  6  2  0  0  0  0
 20 16  1  0  0  0  0
 21 23  1  0  0  0  0
 21 28  1  0  0  0  0
 24 27  2  0  0  0  0
 25 29  1  0  0  0  0
 25 15  1  0  0  0  0
 26 21  1  0  0  0  0
 27 25  1  0  0  0  0
 29 28  1  0  0  0  0
 30 22  1  0  0  0  0
 30 24  1  0  0  0  0
 30 26  1  0  0  0  0
 31 32  2  0  0  0  0
M  END
>  <MODEL>
1

>  <REMARK>
 VINA RESULT:     -10.3      0.000      0.000
  Name = 
  2 active torsions:
  status: ('A' for Active; 'I' for Inactive)
    1  A    between atoms: C_6  and  C_13
    2  A    between atoms: C_16  and  N_27
                            x       y       z     vdW  Elec       q    Type
                         _______ _______ _______ _____ _____    ______ ____

>  <TORSDO>
F 2

$$$$
=
 OpenBabel10272402043D

 32 37  0  0  1  0  0  0  0  0999 V2000
  187.5780  178.0400  138.7280 C   0  0  1  0  0  3  0  0  0  0  0  0
  189.2930  177.4620  140.3710 C   0  0  1  0  0  3  0  0  0  0  0  0
  188.3360  179.1010  137.9380 C   0  0  0  0  0  2  0  0  0  0  0  0
  188.5110  176.9450  139.2570 C   0  0  2  0  0  3  0  0  0  0  0  0
  191.5540  177.0780  141.1600 C   0  0  1  0  0  3  0  0  0  0  0  0
  188.4940  177.4790  145.2830 C   0  0  0  0  0  3  0  0  0  0  0  0
  188.3160  177.5990  141.5090 C   0  0  2  0  0  3  0  0  0  0  0  0
  190.7230  177.9660  144.4930 C   0  0  0  0  0  3  0  0  0  0  0  0
  190.2730  177.9500  143.1690 C   0  0  0  0  0  0  0  0  0  0  0  0
  189.6320  176.4380  138.3930 C   0  0  2  0  0  3  0  0  0  0  0  0
  191.2700  178.2650  142.0980 C   0  0  0  0  0  2  0  0  0  0  0  0
  190.6290  175.9680  139.2940 O   0  0  0  0  0  0  0  0  0  0  0  0
  190.2360  177.5360  137.4990 C   0  0  0  0  0  2  0  0  0  0  0  0
  187.4210  178.7930  141.1400 C   0  0  0  0  0  2  0  0  0  0  0  0
  186.7620  178.6460  139.8120 N   0  0  2  0  0  0  0  0  0  0  0  0
  188.9050  177.6990  142.8960 C   0  0  0  0  0  0  0  0  0  0  0  0
  190.3400  176.4740  140.5470 N   0  0  2  0  0  0  0  0  0  0  0  0
  189.1680  178.4180  136.8560 C   0  0  0  0  0  2  0  0  0  0  0  0
  189.8400  177.7300  145.5470 C   0  0  0  0  0  3  0  0  0  0  0  0
  188.0320  177.4610  143.9660 C   0  0  0  0  0  3  0  0  0  0  0  0
  183.1920  179.8610  139.1600 C   0  0  1  0  0  3  0  0  0  0  0  0
  182.4520  176.3980  139.8630 C   0  0  0  0  0  1  0  0  0  0  0  0
  182.6370  181.1700  138.6410 C   0  0  0  0  0  1  0  0  0  0  0  0
  183.3910  178.1380  141.4370 C   0  0  0  0  0  3  0  0  0  0  0  0
  185.4630  177.9610  139.9060 C   0  0  1  0  0  3  0  0  0  0  0  0
  182.0450  178.8620  139.3550 C   0  0  0  0  0  2  0  0  0  0  0  0
  184.7140  178.2310  141.2020 C   0  0  0  0  0  3  0  0  0  0  0  0
  184.2220  179.3770  138.2390 N   0  0  0  0  0  2  0  0  0  0  0  0
  184.6790  178.0300  138.5870 C   0  0  0  0  0  2  0  0  0  0  0  0
  182.3140  177.7980  140.4350 C   0  0  1  0  0  3  0  0  0  0  0  0
  192.6150  177.4760  140.1670 C   0  0  0  0  0  3  0  0  0  0  0  0
  193.7290  176.9770  140.2050 O   0  0  0  0  0  0  0  0  0  0  0  0
  1  3  1  1  0  0  0
  1  4  1  0  0  0  0
  1 15  1  0  0  0  0
  2 17  1  0  0  0  0
  2  7  1  0  0  0  0
  4  2  1  0  0  0  0
  5 11  1  0  0  0  0
  6 19  1  0  0  0  0
  7 16  1  0  0  0  0
  8 19  2  0  0  0  0
  9  8  1  0  0  0  0
 10  4  1  0  0  0  0
 10 12  1  0  0  0  0
 11  9  1  0  0  0  0
 12 17  1  0  0  0  0
 13 10  1  0  0  0  0
 14  7  1  0  0  0  0
 15 25  1  0  0  0  0
 15 14  1  0  0  0  0
 16  9  2  0  0  0  0
 16 20  1  0  0  0  0
 17  5  1  0  0  0  0
 18 13  1  0  0  0  0
 18  3  1  0  0  0  0
 20  6  2  0  0  0  0
 21 26  1  0  0  0  0
 22 30  1  0  0  0  0
 23 21  1  0  0  0  0
 25 27  1  0  0  0  0
 26 30  1  0  0  0  0
 27 24  2  0  0  0  0
 28 29  1  0  0  0  0
 28 21  1  0  0  0  0
 29 25  1  0  0  0  0
 30 24  1  0  0  0  0
 31 32  2  0  0  0  0
 31  5  1  0  0  0  0
M  END
>  <MODEL>
2

>  <REMARK>
 VINA RESULT:      -9.0      2.825      6.891
  Name = 
  2 active torsions:
  status: ('A' for Active; 'I' for Inactive)
    1  A    between atoms: C_6  and  C_13
    2  A    between atoms: C_16  and  N_27
                            x       y       z     vdW  Elec       q    Type
                         _______ _______ _______ _____ _____    ______ ____

>  <TORSDO>
F 2

$$$$
=
 OpenBabel10272402043D

 32 37  0  0  1  0  0  0  0  0999 V2000
  187.5890  178.0400  140.3220 C   0  0  1  0  0  3  0  0  0  0  0  0
  188.6020  177.4800  142.4740 C   0  0  1  0  0  3  0  0  0  0  0  0
  188.5930  179.0790  139.8350 C   0  0  0  0  0  2  0  0  0  0  0  0
  188.2580  176.9470  141.1640 C   0  0  2  0  0  3  0  0  0  0  0  0
  190.4330  177.0910  144.0180 C   0  0  1  0  0  3  0  0  0  0  0  0
  186.1170  177.5980  146.7850 C   0  0  0  0  0  3  0  0  0  0  0  0
  187.2880  177.6460  143.1910 C   0  0  2  0  0  3  0  0  0  0  0  0
  188.4890  178.0520  146.8280 C   0  0  0  0  0  3  0  0  0  0  0  0
  188.5370  178.0140  145.4300 C   0  0  0  0  0  0  0  0  0  0  0  0
  189.6040  176.4140  140.7610 C   0  0  2  0  0  3  0  0  0  0  0  0
  189.8530  178.2990  144.7770 C   0  0  0  0  0  2  0  0  0  0  0  0
  190.2110  175.9540  141.9630 O   0  0  0  0  0  0  0  0  0  0  0  0
  190.5010  177.4890  140.1220 C   0  0  0  0  0  2  0  0  0  0  0  0
  186.6000  178.8400  142.5110 C   0  0  0  0  0  2  0  0  0  0  0  0
  186.4510  178.6730  141.0370 N   0  0  2  0  0  0  0  0  0  0  0  0
  187.3500  177.7690  144.6950 C   0  0  0  0  0  0  0  0  0  0  0  0
  189.5050  176.4860  143.0240 N   0  0  2  0  0  0  0  0  0  0  0  0
  189.7430  178.3680  139.1280 C   0  0  0  0  0  2  0  0  0  0  0  0
  187.2870  177.8430  147.5040 C   0  0  0  0  0  3  0  0  0  0  0  0
  186.1520  177.5590  145.3900 C   0  0  0  0  0  3  0  0  0  0  0  0
  183.2900  179.9540  139.3010 C   0  0  1  0  0  3  0  0  0  0  0  0
  182.3620  176.4770  139.5920 C   0  0  0  0  0  1  0  0  0  0  0  0
  182.9350  181.2870  138.6790 C   0  0  0  0  0  1  0  0  0  0  0  0
  182.7340  178.1490  141.4510 C   0  0  0  0  0  3  0  0  0  0  0  0
  185.1930  178.0010  140.6760 C   0  0  1  0  0  3  0  0  0  0  0  0
  182.1430  178.9620  139.0720 C   0  0  0  0  0  2  0  0  0  0  0  0
  184.0610  178.2340  141.6650 C   0  0  0  0  0  3  0  0  0  0  0  0
  184.5650  179.4900  138.7500 N   0  0  0  0  0  2  0  0  0  0  0  0
  184.8840  178.1260  139.1770 C   0  0  0  0  0  2  0  0  0  0  0  0
  182.0440  177.8570  140.1410 C   0  0  1  0  0  3  0  0  0  0  0  0
  191.7820  177.4620  143.4600 C   0  0  0  0  0  3  0  0  0  0  0  0
  192.0450  178.6180  143.1670 O   0  0  0  0  0  0  0  0  0  0  0  0
  1  3  1  1  0  0  0
  1 15  1  0  0  0  0
  1  4  1  0  0  0  0
  2 17  1  0  0  0  0
  2  7  1  0  0  0  0
  4  2  1  0  0  0  0
  5 11  1  0  0  0  0
  6 19  1  0  0  0  0
  7 16  1  0  0  0  0
  8 19  2  0  0  0  0
  9  8  1  0  0  0  0
 10  4  1  0  0  0  0
 10 12  1  0  0  0  0
 11  9  1  0  0  0  0
 12 17  1  0  0  0  0
 13 10  1  0  0  0  0
 14  7  1  0  0  0  0
 15 14  1  0  0  0  0
 16 20  1  0  0  0  0
 16  9  2  0  0  0  0
 17  5  1  0  0  0  0
 18  3  1  0  0  0  0
 18 13  1  0  0  0  0
 20  6  2  0  0  0  0
 22 30  1  0  0  0  0
 23 21  1  0  0  0  0
 24 27  2  0  0  0  0
 25 15  1  0  0  0  0
 25 27  1  0  0  0  0
 26 21  1  0  0  0  0
 26 30  1  0  0  0  0
 28 29  1  0  0  0  0
 28 21  1  0  0  0  0
 29 25  1  0  0  0  0
 30 24  1  0  0  0  0
 31  5  1  0  0  0  0
 32 31  2  0  0  0  0
M  END
>  <MODEL>
3

>  <REMARK>
 VINA RESULT:      -8.3      2.282      5.852
  Name = 
  2 active torsions:
  status: ('A' for Active; 'I' for Inactive)
    1  A    between atoms: C_6  and  C_13
    2  A    between atoms: C_16  and  N_27
                            x       y       z     vdW  Elec       q    Type
                         _______ _______ _______ _____ _____    ______ ____

>  <TORSDO>
F 2

$$$$
=
 OpenBabel10272402043D

 32 37  0  0  1  0  0  0  0  0999 V2000
  189.8850  176.2250  136.5410 C   0  0  1  0  0  3  0  0  0  0  0  0
  189.1960  177.4700  138.5280 C   0  0  1  0  0  3  0  0  0  0  0  0
  188.6320  175.3840  136.3260 C   0  0  0  0  0  2  0  0  0  0  0  0
  189.5550  177.6040  137.1240 C   0  0  2  0  0  3  0  0  0  0  0  0
  187.6300  178.6210  139.9800 C   0  0  1  0  0  3  0  0  0  0  0  0
  191.9040  177.6860  142.6990 C   0  0  0  0  0  3  0  0  0  0  0  0
  190.4850  177.1460  139.2370 C   0  0  2  0  0  3  0  0  0  0  0  0
  189.5020  177.8480  142.8940 C   0  0  0  0  0  3  0  0  0  0  0  0
  189.3590  177.5920  141.5260 C   0  0  0  0  0  0  0  0  0  0  0  0
  188.3440  178.3500  136.6370 C   0  0  2  0  0  3  0  0  0  0  0  0
  187.9670  177.5030  140.9830 C   0  0  0  0  0  2  0  0  0  0  0  0
  187.9550  179.1950  137.7150 O   0  0  0  0  0  0  0  0  0  0  0  0
  187.1750  177.4150  136.2800 C   0  0  0  0  0  2  0  0  0  0  0  0
  190.8220  175.7020  138.8340 C   0  0  0  0  0  2  0  0  0  0  0  0
  190.8930  175.5030  137.3590 N   0  0  2  0  0  0  0  0  0  0  0  0
  190.5110  177.3730  140.7290 C   0  0  0  0  0  0  0  0  0  0  0  0
  188.5960  178.7500  138.8550 N   0  0  2  0  0  0  0  0  0  0  0  0
  187.6290  176.1830  135.4990 C   0  0  0  0  0  2  0  0  0  0  0  0
  190.7670  177.8970  143.4790 C   0  0  0  0  0  3  0  0  0  0  0  0
  191.7740  177.4280  141.3320 C   0  0  0  0  0  3  0  0  0  0  0  0
  193.3800  173.2160  135.5620 C   0  0  1  0  0  3  0  0  0  0  0  0
  195.2540  176.2960  135.3610 C   0  0  0  0  0  1  0  0  0  0  0  0
  193.2890  171.7840  135.0810 C   0  0  0  0  0  1  0  0  0  0  0  0
  194.6340  174.9850  137.4310 C   0  0  0  0  0  3  0  0  0  0  0  0
  192.2430  175.7520  136.8270 C   0  0  1  0  0  3  0  0  0  0  0  0
  194.7260  173.8130  135.1310 C   0  0  0  0  0  2  0  0  0  0  0  0
  193.3650  175.3020  137.7510 C   0  0  0  0  0  3  0  0  0  0  0  0
  192.2320  173.9690  135.0540 N   0  0  0  0  0  2  0  0  0  0  0  0
  192.3470  175.4010  135.3360 C   0  0  0  0  0  2  0  0  0  0  0  0
  195.2360  174.9410  136.0470 C   0  0  1  0  0  3  0  0  0  0  0  0
  186.1930  178.4810  139.5500 C   0  0  0  0  0  3  0  0  0  0  0  0
  185.3640  179.3260  139.8460 O   0  0  0  0  0  0  0  0  0  0  0  0
  1  3  1  1  0  0  0
  1  4  1  0  0  0  0
  1 15  1  0  0  0  0
  2 17  1  0  0  0  0
  2  7  1  0  0  0  0
  4  2  1  0  0  0  0
  5 11  1  0  0  0  0
  6 19  1  0  0  0  0
  7 16  1  0  0  0  0
  8 19  2  0  0  0  0
  9  8  1  0  0  0  0
 10  4  1  0  0  0  0
 10 12  1  0  0  0  0
 11  9  1  0  0  0  0
 12 17  1  0  0  0  0
 13 10  1  0  0  0  0
 14  7  1  0  0  0  0
 15 14  1  0  0  0  0
 16 20  1  0  0  0  0
 16  9  2  0  0  0  0
 17  5  1  0  0  0  0
 18 13  1  0  0  0  0
 18  3  1  0  0  0  0
 20  6  2  0  0  0  0
 22 30  1  0  0  0  0
 23 21  1  0  0  0  0
 24 27  2  0  0  0  0
 25 15  1  0  0  0  0
 25 27  1  0  0  0  0
 26 21  1  0  0  0  0
 26 30  1  0  0  0  0
 28 29  1  0  0  0  0
 28 21  1  0  0  0  0
 29 25  1  0  0  0  0
 30 24  1  0  0  0  0
 31 32  2  0  0  0  0
 31  5  1  0  0  0  0
M  END
>  <MODEL>
4

>  <REMARK>
 VINA RESULT:      -8.1      3.534      6.904
  Name = 
  2 active torsions:
  status: ('A' for Active; 'I' for Inactive)
    1  A    between atoms: C_6  and  C_13
    2  A    between atoms: C_16  and  N_27
                            x       y       z     vdW  Elec       q    Type
                         _______ _______ _______ _____ _____    ______ ____

>  <TORSDO>
F 2

$$$$
=
 OpenBabel10272402043D

 32 37  0  0  1  0  0  0  0  0999 V2000
  188.7110  177.2960  143.3440 C   0  0  1  0  0  3  0  0  0  0  0  0
  186.7770  178.1970  142.1530 C   0  0  1  0  0  3  0  0  0  0  0  0
  189.0150  176.0940  142.4560 C   0  0  0  0  0  2  0  0  0  0  0  0
  188.1530  178.4750  142.5400 C   0  0  2  0  0  3  0  0  0  0  0  0
  185.4380  178.7340  140.2030 C   0  0  1  0  0  3  0  0  0  0  0  0
  182.4260  179.1930  144.3560 C   0  0  0  0  0  3  0  0  0  0  0  0
  185.9800  178.2990  143.4270 C   0  0  2  0  0  3  0  0  0  0  0  0
  182.4000  178.5510  142.0280 C   0  0  0  0  0  3  0  0  0  0  0  0
  183.7750  178.2950  142.0680 C   0  0  0  0  0  0  0  0  0  0  0  0
  188.7220  178.7930  141.1860 C   0  0  2  0  0  3  0  0  0  0  0  0
  184.4140  177.7660  140.8230 C   0  0  0  0  0  2  0  0  0  0  0  0
  187.6750  179.4370  140.4690 O   0  0  0  0  0  0  0  0  0  0  0  0
  189.1610  177.5340  140.4170 C   0  0  0  0  0  2  0  0  0  0  0  0
  186.3590  177.0560  144.2470 C   0  0  0  0  0  2  0  0  0  0  0  0
  187.8260  176.9260  144.4780 N   0  0  2  0  0  0  0  0  0  0  0  0
  184.4890  178.4860  143.2780 C   0  0  0  0  0  0  0  0  0  0  0  0
  186.4930  179.2000  141.1440 N   0  0  2  0  0  0  0  0  0  0  0  0
  189.9090  176.5390  141.3020 C   0  0  0  0  0  2  0  0  0  0  0  0
  181.7280  179.0000  143.1640 C   0  0  0  0  0  3  0  0  0  0  0  0
  183.7990  178.9400  144.4090 C   0  0  0  0  0  3  0  0  0  0  0  0
  190.8220  176.3590  146.7900 C   0  0  1  0  0  3  0  0  0  0  0  0
  189.4710  179.3010  148.3880 C   0  0  0  0  0  1  0  0  0  0  0  0
  192.0020  175.4140  146.7200 C   0  0  0  0  0  1  0  0  0  0  0  0
  188.4210  177.0090  148.2060 C   0  0  0  0  0  3  0  0  0  0  0  0
  188.2610  177.6180  145.7010 C   0  0  1  0  0  3  0  0  0  0  0  0
  190.9810  177.2850  148.0020 C   0  0  0  0  0  2  0  0  0  0  0  0
  187.8560  176.9130  146.9880 C   0  0  0  0  0  3  0  0  0  0  0  0
  190.7130  177.0870  145.5240 N   0  0  0  0  0  2  0  0  0  0  0  0
  189.6990  178.1430  145.5850 C   0  0  0  0  0  2  0  0  0  0  0  0
  189.6500  177.8050  148.5750 C   0  0  1  0  0  3  0  0  0  0  0  0
  185.9690  178.1390  138.9240 C   0  0  0  0  0  3  0  0  0  0  0  0
  185.9860  178.7880  137.8900 O   0  0  0  0  0  0  0  0  0  0  0  0
  1  3  1  6  0  0  0
  1 15  1  0  0  0  0
  2  4  1  0  0  0  0
  2  7  1  0  0  0  0
  4  1  1  0  0  0  0
  5 11  1  0  0  0  0
  5 17  1  0  0  0  0
  6 20  1  0  0  0  0
  7 14  1  0  0  0  0
  8  9  2  0  0  0  0
  8 19  1  0  0  0  0
  9 16  1  0  0  0  0
 10  4  1  0  0  0  0
 11  9  1  0  0  0  0
 12 17  1  0  0  0  0
 12 10  1  0  0  0  0
 13 10  1  0  0  0  0
 13 18  1  0  0  0  0
 14 15  1  0  0  0  0
 15 25  1  0  0  0  0
 16  7  1  0  0  0  0
 16 20  2  0  0  0  0
 17  2  1  0  0  0  0
 18  3  1  0  0  0  0
 19  6  2  0  0  0  0
 21 26  1  0  0  0  0
 22 30  1  0  0  0  0
 23 21  1  0  0  0  0
 24 30  1  0  0  0  0
 25 27  1  0  0  0  0
 26 30  1  0  0  0  0
 27 24  2  0  0  0  0
 28 29  1  0  0  0  0
 28 21  1  0  0  0  0
 29 25  1  0  0  0  0
 31  5  1  0  0  0  0
 32 31  2  0  0  0  0
M  END
>  <MODEL>
5

>  <REMARK>
 VINA RESULT:      -8.1      2.596      5.841
  Name = 
  2 active torsions:
  status: ('A' for Active; 'I' for Inactive)
    1  A    between atoms: C_6  and  C_13
    2  A    between atoms: C_16  and  N_27
                            x       y       z     vdW  Elec       q    Type
                         _______ _______ _______ _____ _____    ______ ____

>  <TORSDO>
F 2

$$$$
=
 OpenBabel10272402043D

 32 37  0  0  1  0  0  0  0  0999 V2000
  188.3240  177.8640  142.0210 C   0  0  1  0  0  3  0  0  0  0  0  0
  186.4150  178.0060  143.5410 C   0  0  1  0  0  3  0  0  0  0  0  0
  189.2220  178.9260  142.6470 C   0  0  0  0  0  2  0  0  0  0  0  0
  187.4820  177.1330  143.0740 C   0  0  2  0  0  3  0  0  0  0  0  0
  185.3150  178.3180  145.6800 C   0  0  1  0  0  3  0  0  0  0  0  0
  181.7300  178.6690  141.9980 C   0  0  0  0  0  3  0  0  0  0  0  0
  185.4450  178.0960  142.3920 C   0  0  2  0  0  3  0  0  0  0  0  0
  182.3450  179.5370  144.1660 C   0  0  0  0  0  3  0  0  0  0  0  0
  183.6810  179.1870  143.9430 C   0  0  0  0  0  0  0  0  0  0  0  0
  188.0930  176.7710  144.3980 C   0  0  2  0  0  3  0  0  0  0  0  0
  184.6740  179.5450  145.0040 C   0  0  0  0  0  2  0  0  0  0  0  0
  187.0090  176.7170  145.3190 O   0  0  0  0  0  0  0  0  0  0  0  0
  189.1170  177.8130  144.8840 C   0  0  0  0  0  2  0  0  0  0  0  0
  186.1470  178.9580  141.3310 C   0  0  0  0  0  2  0  0  0  0  0  0
  187.4840  178.4320  140.9350 N   0  0  2  0  0  0  0  0  0  0  0  0
  184.0500  178.5700  142.7210 C   0  0  0  0  0  0  0  0  0  0  0  0
  185.9260  177.3440  144.7360 N   0  0  2  0  0  0  0  0  0  0  0  0
  190.0420  178.2890  143.7660 C   0  0  0  0  0  2  0  0  0  0  0  0
  181.3720  179.2780  143.2000 C   0  0  0  0  0  3  0  0  0  0  0  0
  183.0600  178.3150  141.7630 C   0  0  0  0  0  3  0  0  0  0  0  0
  188.6460  178.6760  137.2960 C   0  0  1  0  0  3  0  0  0  0  0  0
  187.4680  175.2630  137.2480 C   0  0  0  0  0  1  0  0  0  0  0  0
  189.4170  179.7350  136.5380 C   0  0  0  0  0  1  0  0  0  0  0  0
  186.1140  177.3710  137.5790 C   0  0  0  0  0  3  0  0  0  0  0  0
  187.4010  177.4800  139.8150 C   0  0  1  0  0  3  0  0  0  0  0  0
  188.3990  177.4710  136.3800 C   0  0  0  0  0  2  0  0  0  0  0  0
  186.2380  177.7390  138.8680 C   0  0  0  0  0  3  0  0  0  0  0  0
  189.3790  178.3260  138.5150 N   0  0  0  0  0  2  0  0  0  0  0  0
  188.7790  177.1840  139.2070 C   0  0  0  0  0  2  0  0  0  0  0  0
  187.1420  176.6560  136.7370 C   0  0  1  0  0  3  0  0  0  0  0  0
  186.2410  178.7850  146.7730 C   0  0  0  0  0  3  0  0  0  0  0  0
  185.9250  179.7040  147.5130 O   0  0  0  0  0  0  0  0  0  0  0  0
  1  3  1  1  0  0  0
  1  4  1  0  0  0  0
  2 17  1  0  0  0  0
  3 18  1  0  0  0  0
  4  2  1  0  0  0  0
  4 10  1  0  0  0  0
  5 31  1  0  0  0  0
  6 19  1  0  0  0  0
  7 16  1  0  0  0  0
  7  2  1  0  0  0  0
  9  8  1  0  0  0  0
  9 11  1  0  0  0  0
 10 13  1  0  0  0  0
 10 12  1  0  0  0  0
 11  5  1  0  0  0  0
 14  7  1  0  0  0  0
 15 14  1  0  0  0  0
 15  1  1  0  0  0  0
 16  9  2  0  0  0  0
 17 12  1  0  0  0  0
 17  5  1  0  0  0  0
 18 13  1  0  0  0  0
 19  8  2  0  0  0  0
 20  6  2  0  0  0  0
 20 16  1  0  0  0  0
 21 28  1  0  0  0  0
 23 21  1  0  0  0  0
 24 27  2  0  0  0  0
 25 15  1  0  0  0  0
 26 30  1  0  0  0  0
 26 21  1  0  0  0  0
 27 25  1  0  0  0  0
 28 29  1  0  0  0  0
 29 25  1  0  0  0  0
 30 22  1  0  0  0  0
 30 24  1  0  0  0  0
 31 32  2  0  0  0  0
M  END
>  <MODEL>
6

>  <REMARK>
 VINA RESULT:      -7.8      1.512      1.958
  Name = 
  2 active torsions:
  status: ('A' for Active; 'I' for Inactive)
    1  A    between atoms: C_6  and  C_13
    2  A    between atoms: C_16  and  N_27
                            x       y       z     vdW  Elec       q    Type
                         _______ _______ _______ _____ _____    ______ ____

>  <TORSDO>
F 2

$$$$
=
 OpenBabel10272402043D

 32 37  0  0  1  0  0  0  0  0999 V2000
  189.3310  177.3670  140.7200 C   0  0  1  0  0  3  0  0  0  0  0  0
  188.5060  177.2610  143.0180 C   0  0  1  0  0  3  0  0  0  0  0  0
  190.5690  178.2300  140.9370 C   0  0  0  0  0  2  0  0  0  0  0  0
  189.0450  176.4640  141.9250 C   0  0  2  0  0  3  0  0  0  0  0  0
  188.7070  177.1540  145.4330 C   0  0  1  0  0  3  0  0  0  0  0  0
  183.8460  178.4360  144.3110 C   0  0  0  0  0  3  0  0  0  0  0  0
  187.1130  177.6350  142.5860 C   0  0  2  0  0  3  0  0  0  0  0  0
  185.5990  178.7930  145.9330 C   0  0  0  0  0  3  0  0  0  0  0  0
  186.5680  178.4420  144.9850 C   0  0  0  0  0  0  0  0  0  0  0  0
  190.1830  175.8010  142.6490 C   0  0  2  0  0  3  0  0  0  0  0  0
  188.0020  178.5230  145.4030 C   0  0  0  0  0  2  0  0  0  0  0  0
  189.7230  175.5970  143.9810 O   0  0  0  0  0  0  0  0  0  0  0  0
  191.4520  176.6710  142.6800 C   0  0  0  0  0  2  0  0  0  0  0  0
  187.2960  178.6740  141.4680 C   0  0  0  0  0  2  0  0  0  0  0  0
  188.1510  178.1890  140.3470 N   0  0  2  0  0  0  0  0  0  0  0  0
  186.1680  178.0870  143.6730 C   0  0  0  0  0  0  0  0  0  0  0  0
  188.6010  176.3800  144.1660 N   0  0  2  0  0  0  0  0  0  0  0  0
  191.7390  177.3350  141.3350 C   0  0  0  0  0  2  0  0  0  0  0  0
  184.2450  178.7880  145.6000 C   0  0  0  0  0  3  0  0  0  0  0  0
  184.8030  178.0850  143.3560 C   0  0  0  0  0  3  0  0  0  0  0  0
  188.6380  177.9270  136.5600 C   0  0  1  0  0  3  0  0  0  0  0  0
  185.7700  175.7570  136.8750 C   0  0  0  0  0  1  0  0  0  0  0  0
  189.7320  178.4150  135.6350 C   0  0  0  0  0  1  0  0  0  0  0  0
  185.8960  178.2420  137.3180 C   0  0  0  0  0  3  0  0  0  0  0  0
  187.3700  177.5020  139.3060 C   0  0  1  0  0  3  0  0  0  0  0  0
  187.6160  177.1120  135.7580 C   0  0  0  0  0  2  0  0  0  0  0  0
  186.4130  178.4130  138.5500 C   0  0  0  0  0  3  0  0  0  0  0  0
  189.2400  177.1680  137.6580 N   0  0  0  0  0  2  0  0  0  0  0  0
  188.2280  176.5200  138.4960 C   0  0  0  0  0  2  0  0  0  0  0  0
  186.1970  177.1190  136.3560 C   0  0  1  0  0  3  0  0  0  0  0  0
  190.1180  177.3370  145.9300 C   0  0  0  0  0  3  0  0  0  0  0  0
  190.4690  176.8770  147.0050 O   0  0  0  0  0  0  0  0  0  0  0  0
  1  3  1  1  0  0  0
  1  4  1  0  0  0  0
  2 17  1  0  0  0  0
  3 18  1  0  0  0  0
  4 10  1  0  0  0  0
  4  2  1  0  0  0  0
  5 31  1  0  0  0  0
  6 19  1  0  0  0  0
  7  2  1  0  0  0  0
  7 16  1  0  0  0  0
  9 11  1  0  0  0  0
  9  8  1  0  0  0  0
 10 13  1  0  0  0  0
 10 12  1  0  0  0  0
 11  5  1  0  0  0  0
 12 17  1  0  0  0  0
 14  7  1  0  0  0  0
 15  1  1  0  0  0  0
 15 14  1  0  0  0  0
 16  9  2  0  0  0  0
 17  5  1  0  0  0  0
 18 13  1  0  0  0  0
 19  8  2  0  0  0  0
 20 16  1  0  0  0  0
 20  6  2  0  0  0  0
 21 28  1  0  0  0  0
 23 21  1  0  0  0  0
 24 27  2  0  0  0  0
 25 15  1  0  0  0  0
 26 30  1  0  0  0  0
 26 21  1  0  0  0  0
 27 25  1  0  0  0  0
 28 29  1  0  0  0  0
 29 25  1  0  0  0  0
 30 22  1  0  0  0  0
 30 24  1  0  0  0  0
 31 32  2  0  0  0  0
M  END
>  <MODEL>
7

>  <REMARK>
 VINA RESULT:      -7.5      2.084      3.229
  Name = 
  2 active torsions:
  status: ('A' for Active; 'I' for Inactive)
    1  A    between atoms: C_6  and  C_13
    2  A    between atoms: C_16  and  N_27
                            x       y       z     vdW  Elec       q    Type
                         _______ _______ _______ _____ _____    ______ ____

>  <TORSDO>
F 2

$$$$
=
 OpenBabel10272402043D

 32 37  0  0  1  0  0  0  0  0999 V2000
  189.1630  177.9750  142.0830 C   0  0  1  0  0  3  0  0  0  0  0  0
  187.0230  177.9260  143.2620 C   0  0  1  0  0  3  0  0  0  0  0  0
  189.8450  179.1040  142.8470 C   0  0  0  0  0  2  0  0  0  0  0  0
  188.2280  177.1580  142.9810 C   0  0  2  0  0  3  0  0  0  0  0  0
  185.5580  178.1110  145.1860 C   0  0  1  0  0  3  0  0  0  0  0  0
  182.6200  178.1870  140.9560 C   0  0  0  0  0  3  0  0  0  0  0  0
  186.2550  177.9430  141.9670 C   0  0  2  0  0  3  0  0  0  0  0  0
  182.7850  179.0790  143.1940 C   0  0  0  0  0  3  0  0  0  0  0  0
  184.1650  178.8520  143.1990 C   0  0  0  0  0  0  0  0  0  0  0  0
  188.6390  176.8350  144.3900 C   0  0  2  0  0  3  0  0  0  0  0  0
  184.9310  179.2840  144.4100 C   0  0  0  0  0  2  0  0  0  0  0  0
  187.4260  176.6720  145.1170 O   0  0  0  0  0  0  0  0  0  0  0  0
  189.4700  177.9580  145.0380 C   0  0  0  0  0  2  0  0  0  0  0  0
  187.0430  178.8780  141.0350 C   0  0  0  0  0  2  0  0  0  0  0  0
  188.4690  178.4790  140.8700 N   0  0  2  0  0  0  0  0  0  0  0  0
  184.7870  178.2870  142.0570 C   0  0  0  0  0  0  0  0  0  0  0  0
  186.4030  177.2070  144.3590 N   0  0  2  0  0  0  0  0  0  0  0  0
  190.5220  178.5290  144.0890 C   0  0  0  0  0  2  0  0  0  0  0  0
  182.0140  178.7460  142.0800 C   0  0  0  0  0  3  0  0  0  0  0  0
  183.9970  177.9570  140.9470 C   0  0  0  0  0  3  0  0  0  0  0  0
  187.9110  178.8540  137.1020 C   0  0  1  0  0  3  0  0  0  0  0  0
  189.2940  175.5190  137.1020 C   0  0  0  0  0  1  0  0  0  0  0  0
  187.5040  180.0310  136.2420 C   0  0  0  0  0  1  0  0  0  0  0  0
  187.1080  176.2960  138.1050 C   0  0  0  0  0  3  0  0  0  0  0  0
  188.6590  177.5380  139.7540 C   0  0  1  0  0  3  0  0  0  0  0  0
  188.2190  177.6480  136.2050 C   0  0  0  0  0  2  0  0  0  0  0  0
  187.3800  176.8480  139.3020 C   0  0  0  0  0  3  0  0  0  0  0  0
  189.0420  179.2430  137.9470 N   0  0  0  0  0  2  0  0  0  0  0  0
  189.5980  178.1030  138.6780 C   0  0  0  0  0  2  0  0  0  0  0  0
  188.0010  176.2850  136.8870 C   0  0  1  0  0  3  0  0  0  0  0  0
  186.2430  178.6450  146.4170 C   0  0  0  0  0  3  0  0  0  0  0  0
  185.6760  179.4300  147.1600 O   0  0  0  0  0  0  0  0  0  0  0  0
  1  3  1  1  0  0  0
  1  4  1  0  0  0  0
  2 17  1  0  0  0  0
  3 18  1  0  0  0  0
  4  2  1  0  0  0  0
  4 10  1  0  0  0  0
  5 31  1  0  0  0  0
  6 19  1  0  0  0  0
  7 16  1  0  0  0  0
  7  2  1  0  0  0  0
  8  9  1  0  0  0  0
  9 11  1  0  0  0  0
 10 13  1  0  0  0  0
 10 12  1  0  0  0  0
 11  5  1  0  0  0  0
 14  7  1  0  0  0  0
 15 14  1  0  0  0  0
 15  1  1  0  0  0  0
 16  9  2  0  0  0  0
 17 12  1  0  0  0  0
 17  5  1  0  0  0  0
 18 13  1  0  0  0  0
 19  8  2  0  0  0  0
 20  6  2  0  0  0  0
 20 16  1  0  0  0  0
 21 28  1  0  0  0  0
 23 21  1  0  0  0  0
 24 27  2  0  0  0  0
 25 15  1  0  0  0  0
 26 30  1  0  0  0  0
 26 21  1  0  0  0  0
 27 25  1  0  0  0  0
 28 29  1  0  0  0  0
 29 25  1  0  0  0  0
 30 22  1  0  0  0  0
 30 24  1  0  0  0  0
 31 32  2  0  0  0  0
M  END
>  <MODEL>
8

>  <REMARK>
 VINA RESULT:      -7.4      1.232      2.092
  Name = 
  2 active torsions:
  status: ('A' for Active; 'I' for Inactive)
    1  A    between atoms: C_6  and  C_13
    2  A    between atoms: C_16  and  N_27
                            x       y       z     vdW  Elec       q    Type
                         _______ _______ _______ _____ _____    ______ ____

>  <TORSDO>
F 2

$$$$
