=
 OpenBabel10272413233D

 32 38  0  0  1  0  0  0  0  0999 V2000
  185.6010  178.8640  137.9710 O   0  0  0  0  0  0  0  0  0  0  0  0
  187.1420  178.1060  142.3070 C   0  0  0  0  0  0  0  0  0  0  0  0
  183.7520  178.9130  145.7720 C   0  0  0  0  0  3  0  0  0  0  0  0
  184.6050  178.4780  146.7110 C   0  0  0  0  0  3  0  0  0  0  0  0
  189.4630  177.3550  143.2710 C   0  0  2  0  0  3  0  0  0  0  0  0
  190.4510  178.4240  142.7270 C   0  0  2  0  0  3  0  0  0  0  0  0
  186.4430  178.0940  139.9220 C   0  0  1  0  0  3  0  0  0  0  0  0
  184.7750  178.7380  141.5410 C   0  0  0  0  0  2  0  0  0  0  0  0
  190.8990  177.4300  145.5020 C   0  0  2  0  0  3  0  0  0  0  0  0
  184.7250  179.2270  139.0250 C   0  0  0  0  0  2  0  0  0  0  0  0
  183.8860  178.4650  144.3380 C   0  0  0  0  0  2  0  0  0  0  0  0
  185.7760  178.3930  142.6340 C   0  0  0  0  0  0  0  0  0  0  0  0
  185.3330  178.2490  143.9690 C   0  0  0  0  0  0  0  0  0  0  0  0
  187.5540  177.5520  144.6180 C   0  0  0  0  0  0  0  0  0  0  0  0
  191.9690  178.0470  144.6300 C   0  0  0  0  0  2  0  0  0  0  0  0
  185.5140  179.1690  140.2880 C   0  0  2  0  0  3  0  0  0  0  0  0
  191.3100  179.1020  143.7770 C   0  0  0  0  0  2  0  0  0  0  0  0
  186.7540  178.3750  138.5380 N   0  0  0  0  0  0  0  0  0  0  0  0
  185.7240  177.5330  146.3590 C   0  0  0  0  0  2  0  0  0  0  0  0
  186.2270  177.8010  144.9660 C   0  0  0  0  0  0  0  0  0  0  0  0
  188.5210  176.9610  145.4630 N   0  0  0  0  0  2  0  0  0  0  0  0
  187.6310  178.1580  140.8700 C   0  0  0  0  0  2  0  0  0  0  0  0
  189.8410  179.3880  141.9500 F   0  0  0  0  0  0  0  0  0  0  0  0
  191.5210  176.4030  146.4260 C   0  0  0  0  0  1  0  0  0  0  0  0
  188.0240  177.7720  143.3490 C   0  0  0  0  0  0  0  0  0  0  0  0
  189.7560  176.7890  144.7040 C   0  0  1  0  0  3  0  0  0  0  0  0
  187.0360  177.1000  137.8930 C   0  0  0  0  0  2  0  0  0  0  0  0
  188.1390  177.2630  136.8570 C   0  0  0  0  0  2  0  0  0  0  0  0
  189.4820  177.5510  137.5150 C   0  0  0  0  0  2  0  0  0  0  0  0
  189.8960  176.3930  138.4040 C   0  0  0  0  0  3  0  0  0  0  0  0
  190.8330  176.9070  139.4790 C   0  0  0  0  0  2  0  0  0  0  0  0
  191.3910  176.1830  138.2720 C   0  0  0  0  0  2  0  0  0  0  0  0
  1 18  1  0  0  0  0
  1 10  1  0  0  0  0
  2 12  2  0  0  0  0
  2 25  1  0  0  0  0
  3  4  2  0  0  0  0
  5 25  1  1  0  0  0
  5 26  1  0  0  0  0
  6 23  1  1  0  0  0
  6  5  1  0  0  0  0
  6 17  1  0  0  0  0
  7 16  1  0  0  0  0
  7 22  1  1  0  0  0
  8 12  1  0  0  0  0
  9 24  1  6  0  0  0
 11  3  1  0  0  0  0
 12 13  1  0  0  0  0
 13 11  1  0  0  0  0
 13 20  2  0  0  0  0
 14 20  1  0  0  0  0
 14 21  1  0  0  0  0
 15  9  1  0  0  0  0
 16 10  1  6  0  0  0
 16  8  1  0  0  0  0
 17 15  1  0  0  0  0
 18  7  1  0  0  0  0
 19  4  1  0  0  0  0
 20 19  1  0  0  0  0
 22  2  1  0  0  0  0
 25 14  2  0  0  0  0
 26 21  1  1  0  0  0
 26  9  1  0  0  0  0
 27 18  1  0  0  0  0
 28 29  1  0  0  0  0
 28 27  1  0  0  0  0
 29 30  1  0  0  0  0
 30 31  1  0  0  0  0
 32 30  1  0  0  0  0
 32 31  1  0  0  0  0
M  END
>  <MODEL>
1

>  <REMARK>
 VINA RESULT:      -8.9      0.000      0.000
  Name = 
  4 active torsions:
  status: ('A' for Active; 'I' for Inactive)
    1  A    between atoms: C_1  and  C_10
    2  A    between atoms: C_10  and  C_19
    3  A    between atoms: C_19  and  C_24
    4  A    between atoms: N_23  and  C_24
                            x       y       z     vdW  Elec       q    Type
                         _______ _______ _______ _____ _____    ______ ____

>  <TORSDO>
F 4

$$$$
=
 OpenBabel10272413233D

 32 38  0  0  1  0  0  0  0  0999 V2000
  182.1250  178.8360  140.8230 O   0  0  0  0  0  0  0  0  0  0  0  0
  186.0740  177.8820  143.1140 C   0  0  0  0  0  0  0  0  0  0  0  0
  185.9370  179.1070  147.8720 C   0  0  0  0  0  3  0  0  0  0  0  0
  187.1520  178.5660  148.0480 C   0  0  0  0  0  3  0  0  0  0  0  0
  188.3640  176.8420  142.3690 C   0  0  2  0  0  3  0  0  0  0  0  0
  188.8380  177.7780  141.2220 C   0  0  2  0  0  3  0  0  0  0  0  0
  183.9710  177.9630  141.7910 C   0  0  1  0  0  3  0  0  0  0  0  0
  183.8700  178.8100  144.0480 C   0  0  0  0  0  2  0  0  0  0  0  0
  190.9170  176.7320  143.0860 C   0  0  2  0  0  3  0  0  0  0  0  0
  182.2100  179.3050  142.1580 C   0  0  0  0  0  2  0  0  0  0  0  0
  185.0420  178.6480  146.7480 C   0  0  0  0  0  2  0  0  0  0  0  0
  185.3060  178.3400  144.2350 C   0  0  0  0  0  0  0  0  0  0  0  0
  185.8490  178.2510  145.5370 C   0  0  0  0  0  0  0  0  0  0  0  0
  187.8610  177.2780  144.6170 C   0  0  0  0  0  0  0  0  0  0  0  0
  191.1910  177.2090  141.6770 C   0  0  0  0  0  2  0  0  0  0  0  0
  183.6290  179.1450  142.5880 C   0  0  2  0  0  3  0  0  0  0  0  0
  190.2370  178.3410  141.3860 C   0  0  0  0  0  2  0  0  0  0  0  0
  183.3100  178.2040  140.5280 N   0  0  0  0  0  0  0  0  0  0  0  0
  187.6580  177.4880  147.1250 C   0  0  0  0  0  2  0  0  0  0  0  0
  187.1310  177.6920  145.7310 C   0  0  0  0  0  0  0  0  0  0  0  0
  189.0820  176.5670  144.6610 N   0  0  0  0  0  2  0  0  0  0  0  0
  185.4880  177.8740  141.7130 C   0  0  0  0  0  2  0  0  0  0  0  0
  187.9620  178.8130  140.9630 F   0  0  0  0  0  0  0  0  0  0  0  0
  191.8940  175.6320  143.4510 C   0  0  0  0  0  1  0  0  0  0  0  0
  187.3880  177.4380  143.3410 C   0  0  0  0  0  0  0  0  0  0  0  0
  189.4790  176.2410  143.2950 C   0  0  1  0  0  3  0  0  0  0  0  0
  182.9700  176.9040  139.9660 C   0  0  0  0  0  2  0  0  0  0  0  0
  183.2720  176.8770  138.4750 C   0  0  0  0  0  2  0  0  0  0  0  0
  184.3940  177.8420  138.1170 C   0  0  0  0  0  2  0  0  0  0  0  0
  185.5660  177.0920  137.5110 C   0  0  0  0  0  3  0  0  0  0  0  0
  186.8580  177.7020  138.0170 C   0  0  0  0  0  2  0  0  0  0  0  0
  186.3540  178.0400  136.6310 C   0  0  0  0  0  2  0  0  0  0  0  0
  1 10  1  0  0  0  0
  2 25  2  0  0  0  0
  2 12  1  0  0  0  0
  3  4  2  0  0  0  0
  5 26  1  0  0  0  0
  5 25  1  1  0  0  0
  6 23  1  1  0  0  0
  6 17  1  0  0  0  0
  6  5  1  0  0  0  0
  7 22  1  6  0  0  0
  7 16  1  0  0  0  0
  8 12  1  0  0  0  0
  9 26  1  0  0  0  0
  9 24  1  6  0  0  0
 11  3  1  0  0  0  0
 12 13  2  0  0  0  0
 13 20  1  0  0  0  0
 13 11  1  0  0  0  0
 14 21  1  0  0  0  0
 14 20  2  0  0  0  0
 15  9  1  0  0  0  0
 16 10  1  1  0  0  0
 16  8  1  0  0  0  0
 17 15  1  0  0  0  0
 18  1  1  0  0  0  0
 18  7  1  0  0  0  0
 19  4  1  0  0  0  0
 20 19  1  0  0  0  0
 22  2  1  0  0  0  0
 25 14  1  0  0  0  0
 26 21  1  1  0  0  0
 27 18  1  0  0  0  0
 28 27  1  0  0  0  0
 29 28  1  0  0  0  0
 30 31  1  0  0  0  0
 30 29  1  0  0  0  0
 32 30  1  0  0  0  0
 32 31  1  0  0  0  0
M  END
>  <MODEL>
2

>  <REMARK>
 VINA RESULT:      -8.4      2.060      3.136
  Name = 
  4 active torsions:
  status: ('A' for Active; 'I' for Inactive)
    1  A    between atoms: C_1  and  C_10
    2  A    between atoms: C_10  and  C_19
    3  A    between atoms: C_19  and  C_24
    4  A    between atoms: N_23  and  C_24
                            x       y       z     vdW  Elec       q    Type
                         _______ _______ _______ _____ _____    ______ ____

>  <TORSDO>
F 4

$$$$
=
 OpenBabel10272413233D

 32 38  0  0  1  0  0  0  0  0999 V2000
  190.2550  177.2560  136.5550 O   0  0  0  0  0  0  0  0  0  0  0  0
  188.9500  177.4920  141.0270 C   0  0  0  0  0  0  0  0  0  0  0  0
  184.4850  179.4380  141.6770 C   0  0  0  0  0  3  0  0  0  0  0  0
  184.5630  179.1840  142.9910 C   0  0  0  0  0  3  0  0  0  0  0  0
  190.1300  176.8130  143.2690 C   0  0  2  0  0  3  0  0  0  0  0  0
  191.4590  177.6210  143.2450 C   0  0  2  0  0  3  0  0  0  0  0  0
  189.6960  176.9370  138.7210 C   0  0  1  0  0  3  0  0  0  0  0  0
  187.5980  178.1100  138.9340 C   0  0  0  0  0  2  0  0  0  0  0  0
  190.0780  177.3280  145.8730 C   0  0  2  0  0  3  0  0  0  0  0  0
  189.0480  177.9490  136.8250 C   0  0  0  0  0  2  0  0  0  0  0  0
  185.2850  178.6330  140.6840 C   0  0  0  0  0  2  0  0  0  0  0  0
  187.7310  177.9690  140.4440 C   0  0  0  0  0  0  0  0  0  0  0  0
  186.6080  178.2070  141.2690 C   0  0  0  0  0  0  0  0  0  0  0  0
  187.8930  177.5090  143.1940 C   0  0  0  0  0  0  0  0  0  0  0  0
  191.5550  177.6090  145.7070 C   0  0  0  0  0  2  0  0  0  0  0  0
  188.9770  178.1440  138.3010 C   0  0  2  0  0  3  0  0  0  0  0  0
  191.7200  178.4670  144.4770 C   0  0  0  0  0  2  0  0  0  0  0  0
  190.7680  176.8300  137.7570 N   0  0  0  0  0  0  0  0  0  0  0  0
  185.4550  178.0880  143.5130 C   0  0  0  0  0  2  0  0  0  0  0  0
  186.6840  177.9510  142.6560 C   0  0  0  0  0  0  0  0  0  0  0  0
  188.0800  177.0700  144.5240 N   0  0  0  0  0  2  0  0  0  0  0  0
  190.1470  177.1360  140.1610 C   0  0  0  0  0  2  0  0  0  0  0  0
  191.6020  178.4060  142.1190 F   0  0  0  0  0  0  0  0  0  0  0  0
  189.8510  176.5180  147.1330 C   0  0  0  0  0  1  0  0  0  0  0  0
  189.0170  177.3580  142.4250 C   0  0  0  0  0  0  0  0  0  0  0  0
  189.4570  176.6050  144.6700 C   0  0  1  0  0  3  0  0  0  0  0  0
  191.0740  175.4140  137.6100 C   0  0  0  0  0  2  0  0  0  0  0  0
  191.0680  175.0210  136.1390 C   0  0  0  0  0  2  0  0  0  0  0  0
  190.1770  173.8130  135.8890 C   0  0  0  0  0  2  0  0  0  0  0  0
  189.2350  173.5970  137.0600 C   0  0  0  0  0  3  0  0  0  0  0  0
  188.1690  172.5980  136.6590 C   0  0  0  0  0  2  0  0  0  0  0  0
  187.8520  174.0770  136.6730 C   0  0  0  0  0  2  0  0  0  0  0  0
  1 10  1  0  0  0  0
  1 18  1  0  0  0  0
  2 25  1  0  0  0  0
  3  4  2  0  0  0  0
  4 19  1  0  0  0  0
  5 25  1  6  0  0  0
  5 26  1  0  0  0  0
  6 23  1  6  0  0  0
  6  5  1  0  0  0  0
  6 17  1  0  0  0  0
  7 22  1  1  0  0  0
  8 12  1  0  0  0  0
  9 24  1  1  0  0  0
 11 13  1  0  0  0  0
 11  3  1  0  0  0  0
 12  2  2  0  0  0  0
 12 13  1  0  0  0  0
 13 20  2  0  0  0  0
 14 21  1  0  0  0  0
 15  9  1  0  0  0  0
 16 10  1  6  0  0  0
 16  7  1  0  0  0  0
 16  8  1  0  0  0  0
 17 15  1  0  0  0  0
 18  7  1  0  0  0  0
 20 14  1  0  0  0  0
 20 19  1  0  0  0  0
 22  2  1  0  0  0  0
 25 14  2  0  0  0  0
 26 21  1  6  0  0  0
 26  9  1  0  0  0  0
 27 18  1  0  0  0  0
 28 27  1  0  0  0  0
 29 28  1  0  0  0  0
 29 30  1  0  0  0  0
 31 32  1  0  0  0  0
 31 30  1  0  0  0  0
 32 30  1  0  0  0  0
M  END
>  <MODEL>
3

>  <REMARK>
 VINA RESULT:      -7.9      2.041      3.263
  Name = 
  4 active torsions:
  status: ('A' for Active; 'I' for Inactive)
    1  A    between atoms: C_1  and  C_10
    2  A    between atoms: C_10  and  C_19
    3  A    between atoms: C_19  and  C_24
    4  A    between atoms: N_23  and  C_24
                            x       y       z     vdW  Elec       q    Type
                         _______ _______ _______ _____ _____    ______ ____

>  <TORSDO>
F 4

$$$$
=
 OpenBabel10272413233D

 32 38  0  0  1  0  0  0  0  0999 V2000
  189.5020  177.7100  136.6440 O   0  0  0  0  0  0  0  0  0  0  0  0
  188.5980  177.6560  141.2200 C   0  0  0  0  0  0  0  0  0  0  0  0
  184.2110  179.5380  142.3850 C   0  0  0  0  0  3  0  0  0  0  0  0
  184.4050  179.2010  143.6680 C   0  0  0  0  0  3  0  0  0  0  0  0
  189.9720  176.8410  143.3010 C   0  0  2  0  0  3  0  0  0  0  0  0
  191.2940  177.6540  143.2110 C   0  0  2  0  0  3  0  0  0  0  0  0
  189.1360  177.2510  138.8260 C   0  0  1  0  0  3  0  0  0  0  0  0
  187.0670  178.4000  139.2980 C   0  0  0  0  0  2  0  0  0  0  0  0
  190.1510  177.1890  145.9260 C   0  0  2  0  0  3  0  0  0  0  0  0
  188.3230  178.3790  137.0630 C   0  0  0  0  0  2  0  0  0  0  0  0
  184.9180  178.8000  141.2750 C   0  0  0  0  0  2  0  0  0  0  0  0
  187.3330  178.1630  140.7780 C   0  0  0  0  0  0  0  0  0  0  0  0
  186.2880  178.3440  141.7130 C   0  0  0  0  0  0  0  0  0  0  0  0
  187.7370  177.5300  143.4680 C   0  0  0  0  0  0  0  0  0  0  0  0
  191.6080  177.4860  145.6480 C   0  0  0  0  0  2  0  0  0  0  0  0
  188.3850  178.4800  138.5490 C   0  0  2  0  0  3  0  0  0  0  0  0
  191.6650  178.4210  144.4660 C   0  0  0  0  0  2  0  0  0  0  0  0
  190.1180  177.2100  137.7660 N   0  0  0  0  0  0  0  0  0  0  0  0
  185.3380  178.0780  144.0380 C   0  0  0  0  0  2  0  0  0  0  0  0
  186.4860  178.0000  143.0690 C   0  0  0  0  0  0  0  0  0  0  0  0
  188.0410  177.0080  144.7460 N   0  0  0  0  0  2  0  0  0  0  0  0
  189.7130  177.3600  140.2300 C   0  0  0  0  0  2  0  0  0  0  0  0
  191.3370  178.5090  142.1280 F   0  0  0  0  0  0  0  0  0  0  0  0
  190.0350  176.3000  147.1470 C   0  0  0  0  0  1  0  0  0  0  0  0
  188.7880  177.4340  142.5940 C   0  0  0  0  0  0  0  0  0  0  0  0
  189.4240  176.5420  144.7400 C   0  0  1  0  0  3  0  0  0  0  0  0
  190.4080  175.8080  137.5030 C   0  0  0  0  0  2  0  0  0  0  0  0
  191.7130  175.6730  136.7290 C   0  0  0  0  0  2  0  0  0  0  0  0
  192.9160  175.6900  137.6620 C   0  0  0  0  0  2  0  0  0  0  0  0
  193.5620  174.3180  137.7190 C   0  0  0  0  0  3  0  0  0  0  0  0
  195.0210  174.4750  138.0980 C   0  0  0  0  0  2  0  0  0  0  0  0
  194.6370  174.2370  136.6540 C   0  0  0  0  0  2  0  0  0  0  0  0
  1 10  1  0  0  0  0
  1 18  1  0  0  0  0
  2 25  1  0  0  0  0
  3  4  2  0  0  0  0
  4 19  1  0  0  0  0
  5 25  1  6  0  0  0
  5 26  1  0  0  0  0
  6 23  1  6  0  0  0
  6  5  1  0  0  0  0
  6 17  1  0  0  0  0
  7 22  1  1  0  0  0
  8 12  1  0  0  0  0
  9 24  1  1  0  0  0
 11 13  1  0  0  0  0
 11  3  1  0  0  0  0
 12  2  2  0  0  0  0
 12 13  1  0  0  0  0
 13 20  2  0  0  0  0
 14 21  1  0  0  0  0
 15  9  1  0  0  0  0
 16 10  1  6  0  0  0
 16  7  1  0  0  0  0
 16  8  1  0  0  0  0
 17 15  1  0  0  0  0
 18  7  1  0  0  0  0
 20 14  1  0  0  0  0
 20 19  1  0  0  0  0
 22  2  1  0  0  0  0
 25 14  2  0  0  0  0
 26 21  1  6  0  0  0
 26  9  1  0  0  0  0
 27 18  1  0  0  0  0
 28 27  1  0  0  0  0
 28 29  1  0  0  0  0
 29 30  1  0  0  0  0
 30 31  1  0  0  0  0
 32 30  1  0  0  0  0
 32 31  1  0  0  0  0
M  END
>  <MODEL>
4

>  <REMARK>
 VINA RESULT:      -7.8      1.828      2.863
  Name = 
  4 active torsions:
  status: ('A' for Active; 'I' for Inactive)
    1  A    between atoms: C_1  and  C_10
    2  A    between atoms: C_10  and  C_19
    3  A    between atoms: C_19  and  C_24
    4  A    between atoms: N_23  and  C_24
                            x       y       z     vdW  Elec       q    Type
                         _______ _______ _______ _____ _____    ______ ____

>  <TORSDO>
F 4

$$$$
=
 OpenBabel10272413233D

 32 38  0  0  1  0  0  0  0  0999 V2000
  190.1370  177.5200  139.4240 O   0  0  0  0  0  0  0  0  0  0  0  0
  186.0760  178.1770  141.6220 C   0  0  0  0  0  0  0  0  0  0  0  0
  186.3700  177.6590  146.5000 C   0  0  0  0  0  3  0  0  0  0  0  0
  185.0860  178.0300  146.6190 C   0  0  0  0  0  3  0  0  0  0  0  0
  183.6600  178.7470  140.7760 C   0  0  2  0  0  3  0  0  0  0  0  0
  183.3390  177.6000  139.7760 C   0  0  2  0  0  3  0  0  0  0  0  0
  188.1750  178.2310  140.2910 C   0  0  1  0  0  3  0  0  0  0  0  0
  188.3900  177.7300  142.6410 C   0  0  0  0  0  2  0  0  0  0  0  0
  181.1150  178.5710  141.5100 C   0  0  2  0  0  3  0  0  0  0  0  0
  190.1170  177.2330  140.8130 C   0  0  0  0  0  2  0  0  0  0  0  0
  187.1920  178.0870  145.3110 C   0  0  0  0  0  2  0  0  0  0  0  0
  186.8990  178.0000  142.7830 C   0  0  0  0  0  0  0  0  0  0  0  0
  186.3410  178.1860  144.0690 C   0  0  0  0  0  0  0  0  0  0  0  0
  184.2100  178.7080  143.0540 C   0  0  0  0  0  0  0  0  0  0  0  0
  180.9250  177.8670  140.1850 C   0  0  0  0  0  2  0  0  0  0  0  0
  188.6880  177.2350  141.2380 C   0  0  2  0  0  3  0  0  0  0  0  0
  182.0400  176.8620  140.0380 C   0  0  0  0  0  2  0  0  0  0  0  0
  188.8720  177.9190  139.0630 N   0  0  0  0  0  0  0  0  0  0  0  0
  184.4290  178.8810  145.5640 C   0  0  0  0  0  2  0  0  0  0  0  0
  184.9880  178.5670  144.2030 C   0  0  0  0  0  0  0  0  0  0  0  0
  182.8950  179.2260  143.0190 N   0  0  0  0  0  2  0  0  0  0  0  0
  186.6620  178.0790  140.2240 C   0  0  0  0  0  2  0  0  0  0  0  0
  184.3640  176.6830  139.6500 F   0  0  0  0  0  0  0  0  0  0  0  0
  179.9820  179.5500  141.7350 C   0  0  0  0  0  1  0  0  0  0  0  0
  184.7090  178.4460  141.8050 C   0  0  0  0  0  0  0  0  0  0  0  0
  182.4620  179.2960  141.6270 C   0  0  1  0  0  3  0  0  0  0  0  0
  189.0150  179.1650  138.3220 C   0  0  0  0  0  2  0  0  0  0  0  0
  188.6520  178.9540  136.8590 C   0  0  0  0  0  2  0  0  0  0  0  0
  187.1500  178.7820  136.6780 C   0  0  0  0  0  2  0  0  0  0  0  0
  186.8520  177.5170  135.8940 C   0  0  0  0  0  3  0  0  0  0  0  0
  185.4270  177.0850  136.1780 C   0  0  0  0  0  2  0  0  0  0  0  0
  186.5800  176.3880  136.8670 C   0  0  0  0  0  2  0  0  0  0  0  0
  1 10  1  0  0  0  0
  2 25  2  0  0  0  0
  2 12  1  0  0  0  0
  3  4  2  0  0  0  0
  5 26  1  0  0  0  0
  5 25  1  1  0  0  0
  6 23  1  1  0  0  0
  6 17  1  0  0  0  0
  6  5  1  0  0  0  0
  7 22  1  6  0  0  0
  7 16  1  0  0  0  0
  8 12  1  0  0  0  0
  9 26  1  0  0  0  0
  9 24  1  6  0  0  0
 11  3  1  0  0  0  0
 12 13  2  0  0  0  0
 13 20  1  0  0  0  0
 13 11  1  0  0  0  0
 14 20  2  0  0  0  0
 15  9  1  0  0  0  0
 16 10  1  1  0  0  0
 16  8  1  0  0  0  0
 17 15  1  0  0  0  0
 18  1  1  0  0  0  0
 18  7  1  0  0  0  0
 19  4  1  0  0  0  0
 20 19  1  0  0  0  0
 21 14  1  0  0  0  0
 22  2  1  0  0  0  0
 25 14  1  0  0  0  0
 26 21  1  1  0  0  0
 27 18  1  0  0  0  0
 28 27  1  0  0  0  0
 29 28  1  0  0  0  0
 30 31  1  0  0  0  0
 30 29  1  0  0  0  0
 30 32  1  0  0  0  0
 31 32  1  0  0  0  0
M  END
>  <MODEL>
5

>  <REMARK>
 VINA RESULT:      -7.7      2.701      5.710
  Name = 
  4 active torsions:
  status: ('A' for Active; 'I' for Inactive)
    1  A    between atoms: C_1  and  C_10
    2  A    between atoms: C_10  and  C_19
    3  A    between atoms: C_19  and  C_24
    4  A    between atoms: N_23  and  C_24
                            x       y       z     vdW  Elec       q    Type
                         _______ _______ _______ _____ _____    ______ ____

>  <TORSDO>
F 4

$$$$
=
 OpenBabel10272413233D

 32 38  0  0  1  0  0  0  0  0999 V2000
  190.4020  178.1330  143.7850 O   0  0  0  0  0  0  0  0  0  0  0  0
  189.8280  176.8680  139.3320 C   0  0  0  0  0  0  0  0  0  0  0  0
  194.0500  176.3250  136.8770 C   0  0  0  0  0  3  0  0  0  0  0  0
  193.3730  175.8910  135.8040 C   0  0  0  0  0  3  0  0  0  0  0  0
  187.7010  176.4080  137.8670 C   0  0  2  0  0  3  0  0  0  0  0  0
  186.8930  177.7320  137.9650 C   0  0  2  0  0  3  0  0  0  0  0  0
  189.9020  177.1800  141.7970 C   0  0  1  0  0  3  0  0  0  0  0  0
  192.0180  177.1670  140.6370 C   0  0  0  0  0  2  0  0  0  0  0  0
  186.9110  176.3290  135.3340 C   0  0  2  0  0  3  0  0  0  0  0  0
  191.5690  178.1110  142.9780 C   0  0  0  0  0  2  0  0  0  0  0  0
  193.4700  176.1960  138.2630 C   0  0  0  0  0  2  0  0  0  0  0  0
  191.2600  176.8180  139.3650 C   0  0  0  0  0  0  0  0  0  0  0  0
  191.9680  176.3380  138.2390 C   0  0  0  0  0  0  0  0  0  0  0  0
  189.8710  175.9710  137.0940 C   0  0  0  0  0  0  0  0  0  0  0  0
  185.8390  177.2960  135.7820 C   0  0  0  0  0  2  0  0  0  0  0  0
  191.1190  177.9650  141.5640 C   0  0  2  0  0  3  0  0  0  0  0  0
  186.5010  178.3480  136.6360 C   0  0  0  0  0  2  0  0  0  0  0  0
  189.3400  177.7760  142.9880 N   0  0  0  0  0  0  0  0  0  0  0  0
  192.0110  175.2660  135.9530 C   0  0  0  0  0  2  0  0  0  0  0  0
  191.2630  175.8880  137.1010 C   0  0  0  0  0  0  0  0  0  0  0  0
  189.0270  175.4260  136.1000 N   0  0  0  0  0  2  0  0  0  0  0  0
  189.0300  177.2880  140.5550 C   0  0  0  0  0  2  0  0  0  0  0  0
  187.5070  178.6910  138.7460 F   0  0  0  0  0  0  0  0  0  0  0  0
  186.3070  175.2830  134.4200 C   0  0  0  0  0  1  0  0  0  0  0  0
  189.1730  176.5170  138.1390 C   0  0  0  0  0  0  0  0  0  0  0  0
  187.6400  175.6440  136.4980 C   0  0  1  0  0  3  0  0  0  0  0  0
  188.6150  176.7270  143.6930 C   0  0  0  0  0  2  0  0  0  0  0  0
  188.1020  177.2440  145.0300 C   0  0  0  0  0  2  0  0  0  0  0  0
  186.5820  177.3090  145.0540 C   0  0  0  0  0  2  0  0  0  0  0  0
  186.1160  178.6490  145.5930 C   0  0  0  0  0  3  0  0  0  0  0  0
  185.1320  178.4130  146.7210 C   0  0  0  0  0  2  0  0  0  0  0  0
  184.6280  178.7890  145.3440 C   0  0  0  0  0  2  0  0  0  0  0  0
  2 12  1  0  0  0  0
  2 22  1  0  0  0  0
  3 11  1  0  0  0  0
  4 19  1  0  0  0  0
  4  3  2  0  0  0  0
  5  6  1  0  0  0  0
  5 25  1  6  0  0  0
  6 23  1  6  0  0  0
  7 22  1  6  0  0  0
  7 18  1  0  0  0  0
  9 24  1  6  0  0  0
  9 15  1  0  0  0  0
  9 26  1  0  0  0  0
 10  1  1  0  0  0  0
 12  8  1  0  0  0  0
 13 11  1  0  0  0  0
 13 12  2  0  0  0  0
 14 20  2  0  0  0  0
 14 25  1  0  0  0  0
 15 17  1  0  0  0  0
 16  8  1  6  0  0  0
 16  7  1  0  0  0  0
 16 10  1  0  0  0  0
 17  6  1  0  0  0  0
 18 27  1  0  0  0  0
 18  1  1  0  0  0  0
 19 20  1  0  0  0  0
 20 13  1  0  0  0  0
 21 14  1  0  0  0  0
 25  2  2  0  0  0  0
 26 21  1  6  0  0  0
 26  5  1  0  0  0  0
 27 28  1  0  0  0  0
 28 29  1  0  0  0  0
 29 30  1  0  0  0  0
 30 31  1  0  0  0  0
 32 30  1  0  0  0  0
 32 31  1  0  0  0  0
M  END
>  <MODEL>
6

>  <REMARK>
 VINA RESULT:      -7.6      2.494      8.710
  Name = 
  4 active torsions:
  status: ('A' for Active; 'I' for Inactive)
    1  A    between atoms: C_1  and  C_10
    2  A    between atoms: C_10  and  C_19
    3  A    between atoms: C_19  and  C_24
    4  A    between atoms: N_23  and  C_24
                            x       y       z     vdW  Elec       q    Type
                         _______ _______ _______ _____ _____    ______ ____

>  <TORSDO>
F 4

$$$$
=
 OpenBabel10272413233D

 32 38  0  0  1  0  0  0  0  0999 V2000
  183.7460  179.3300  145.8180 O   0  0  0  0  0  0  0  0  0  0  0  0
  187.6290  177.7200  143.7960 C   0  0  0  0  0  0  0  0  0  0  0  0
  191.2310  176.7010  146.9790 C   0  0  0  0  0  3  0  0  0  0  0  0
  191.9820  176.2190  145.9780 C   0  0  0  0  0  3  0  0  0  0  0  0
  188.2850  177.2690  141.2960 C   0  0  2  0  0  3  0  0  0  0  0  0
  188.0700  178.6450  140.6060 C   0  0  2  0  0  3  0  0  0  0  0  0
  185.3610  178.2410  144.6730 C   0  0  1  0  0  3  0  0  0  0  0  0
  187.1270  177.9930  146.2990 C   0  0  0  0  0  2  0  0  0  0  0  0
  190.4110  177.0200  139.7280 C   0  0  2  0  0  3  0  0  0  0  0  0
  184.8750  179.1640  146.6600 C   0  0  0  0  0  2  0  0  0  0  0  0
  189.7270  176.7300  146.8740 C   0  0  0  0  0  2  0  0  0  0  0  0
  188.0490  177.5830  145.1600 C   0  0  0  0  0  0  0  0  0  0  0  0
  189.2860  176.9630  145.4500 C   0  0  0  0  0  0  0  0  0  0  0  0
  189.6590  176.6310  143.0850 C   0  0  0  0  0  0  0  0  0  0  0  0
  189.7470  178.0880  138.8890 C   0  0  0  0  0  2  0  0  0  0  0  0
  186.0490  178.9240  145.7740 C   0  0  2  0  0  3  0  0  0  0  0  0
  189.2620  179.1670  139.8250 C   0  0  0  0  0  2  0  0  0  0  0  0
  184.1210  178.9720  144.5450 N   0  0  0  0  0  0  0  0  0  0  0  0
  191.3440  175.6960  144.7180 C   0  0  0  0  0  2  0  0  0  0  0  0
  190.0880  176.4610  144.4010 C   0  0  0  0  0  0  0  0  0  0  0  0
  190.2710  176.0560  141.9490 N   0  0  0  0  0  2  0  0  0  0  0  0
  186.2650  178.2950  143.4500 C   0  0  0  0  0  2  0  0  0  0  0  0
  187.6290  179.6280  141.4690 F   0  0  0  0  0  0  0  0  0  0  0  0
  190.9730  175.9380  138.8280 C   0  0  0  0  0  1  0  0  0  0  0  0
  188.5080  177.3080  142.7800 C   0  0  0  0  0  0  0  0  0  0  0  0
  189.4760  176.3950  140.7720 C   0  0  1  0  0  3  0  0  0  0  0  0
  183.1190  178.0370  144.0540 C   0  0  0  0  0  2  0  0  0  0  0  0
  181.9930  178.7860  143.3540 C   0  0  0  0  0  2  0  0  0  0  0  0
  182.2000  178.8180  141.8460 C   0  0  0  0  0  2  0  0  0  0  0  0
  183.4350  178.0230  141.4630 C   0  0  0  0  0  3  0  0  0  0  0  0
  184.2080  178.7880  140.4080 C   0  0  0  0  0  2  0  0  0  0  0  0
  183.3300  177.6240  140.0060 C   0  0  0  0  0  2  0  0  0  0  0  0
  1 10  1  0  0  0  0
  2 12  1  0  0  0  0
  4  3  2  0  0  0  0
  5 25  1  1  0  0  0
  6  5  1  0  0  0  0
  6 23  1  1  0  0  0
  7 22  1  6  0  0  0
  7 16  1  0  0  0  0
  9 24  1  6  0  0  0
  9 26  1  0  0  0  0
 11  3  1  0  0  0  0
 12 13  2  0  0  0  0
 12  8  1  0  0  0  0
 13 11  1  0  0  0  0
 14 20  2  0  0  0  0
 15  9  1  0  0  0  0
 15 17  1  0  0  0  0
 16  8  1  1  0  0  0
 16 10  1  0  0  0  0
 17  6  1  0  0  0  0
 18  7  1  0  0  0  0
 18  1  1  0  0  0  0
 19  4  1  0  0  0  0
 20 19  1  0  0  0  0
 20 13  1  0  0  0  0
 21 14  1  0  0  0  0
 22  2  1  0  0  0  0
 25 14  1  0  0  0  0
 25  2  2  0  0  0  0
 26  5  1  0  0  0  0
 26 21  1  1  0  0  0
 27 18  1  0  0  0  0
 28 27  1  0  0  0  0
 29 28  1  0  0  0  0
 30 29  1  0  0  0  0
 31 30  1  0  0  0  0
 32 31  1  0  0  0  0
 32 30  1  0  0  0  0
M  END
>  <MODEL>
7

>  <REMARK>
 VINA RESULT:      -7.5      2.374      5.879
  Name = 
  4 active torsions:
  status: ('A' for Active; 'I' for Inactive)
    1  A    between atoms: C_1  and  C_10
    2  A    between atoms: C_10  and  C_19
    3  A    between atoms: C_19  and  C_24
    4  A    between atoms: N_23  and  C_24
                            x       y       z     vdW  Elec       q    Type
                         _______ _______ _______ _____ _____    ______ ____

>  <TORSDO>
F 4

$$$$
=
 OpenBabel10272413233D

 32 38  0  0  1  0  0  0  0  0999 V2000
  183.5420  178.9690  145.9710 O   0  0  0  0  0  0  0  0  0  0  0  0
  186.6970  178.2660  142.6080 C   0  0  0  0  0  0  0  0  0  0  0  0
  184.7670  178.1410  138.0900 C   0  0  0  0  0  3  0  0  0  0  0  0
  185.9970  178.0410  137.5660 C   0  0  0  0  0  3  0  0  0  0  0  0
  189.2940  177.9030  142.6450 C   0  0  2  0  0  3  0  0  0  0  0  0
  189.4800  176.6660  143.5680 C   0  0  2  0  0  3  0  0  0  0  0  0
  185.2640  178.9870  144.5080 C   0  0  1  0  0  3  0  0  0  0  0  0
  184.1810  178.7170  142.3680 C   0  0  0  0  0  2  0  0  0  0  0  0
  191.2610  176.8790  141.1860 C   0  0  2  0  0  3  0  0  0  0  0  0
  183.0350  178.7660  144.6620 C   0  0  0  0  0  2  0  0  0  0  0  0
  184.5520  178.7680  139.4450 C   0  0  0  0  0  2  0  0  0  0  0  0
  185.5530  178.4520  141.7650 C   0  0  0  0  0  0  0  0  0  0  0  0
  185.7190  178.4950  140.3620 C   0  0  0  0  0  0  0  0  0  0  0  0
  188.0980  178.1800  140.6480 C   0  0  0  0  0  0  0  0  0  0  0  0
  191.5860  176.0850  142.4310 C   0  0  0  0  0  2  0  0  0  0  0  0
  184.1720  178.2870  143.8240 C   0  0  2  0  0  3  0  0  0  0  0  0
  190.2910  175.5320  142.9710 C   0  0  0  0  0  2  0  0  0  0  0  0
  184.9120  178.8770  145.9060 N   0  0  0  0  0  0  0  0  0  0  0  0
  187.2000  178.5490  138.3170 C   0  0  0  0  0  2  0  0  0  0  0  0
  187.0100  178.3820  139.8000 C   0  0  0  0  0  0  0  0  0  0  0  0
  189.4550  178.1980  140.2510 N   0  0  0  0  0  2  0  0  0  0  0  0
  186.5700  178.3080  144.1220 C   0  0  0  0  0  2  0  0  0  0  0  0
  188.2900  176.1630  144.0560 F   0  0  0  0  0  0  0  0  0  0  0  0
  192.5390  177.4070  140.5680 C   0  0  0  0  0  1  0  0  0  0  0  0
  187.9460  178.0450  142.0030 C   0  0  0  0  0  0  0  0  0  0  0  0
  190.2880  178.0380  141.4390 C   0  0  1  0  0  3  0  0  0  0  0  0
  185.4490  180.0520  146.5780 C   0  0  0  0  0  2  0  0  0  0  0  0
  186.3490  179.6360  147.7330 C   0  0  0  0  0  2  0  0  0  0  0  0
  186.8690  178.2180  147.5490 C   0  0  0  0  0  2  0  0  0  0  0  0
  188.3380  178.2360  147.1680 C   0  0  0  0  0  3  0  0  0  0  0  0
  188.9430  176.8800  147.4710 C   0  0  0  0  0  2  0  0  0  0  0  0
  189.1720  178.0390  148.4170 C   0  0  0  0  0  2  0  0  0  0  0  0
  2 22  1  0  0  0  0
  3 11  1  0  0  0  0
  4  3  2  0  0  0  0
  4 19  1  0  0  0  0
  5 25  1  6  0  0  0
  5  6  1  0  0  0  0
  6 23  1  6  0  0  0
  7 22  1  1  0  0  0
  7 18  1  0  0  0  0
  9 24  1  1  0  0  0
  9 26  1  0  0  0  0
  9 15  1  0  0  0  0
 10  1  1  0  0  0  0
 11 13  1  0  0  0  0
 12  8  1  0  0  0  0
 12  2  2  0  0  0  0
 13 12  1  0  0  0  0
 14 25  2  0  0  0  0
 15 17  1  0  0  0  0
 16  8  1  6  0  0  0
 16  7  1  0  0  0  0
 16 10  1  0  0  0  0
 17  6  1  0  0  0  0
 18  1  1  0  0  0  0
 18 27  1  0  0  0  0
 19 20  1  0  0  0  0
 20 13  2  0  0  0  0
 20 14  1  0  0  0  0
 21 14  1  0  0  0  0
 25  2  1  0  0  0  0
 26 21  1  6  0  0  0
 26  5  1  0  0  0  0
 27 28  1  0  0  0  0
 29 28  1  0  0  0  0
 30 31  1  0  0  0  0
 30 29  1  0  0  0  0
 30 32  1  0  0  0  0
 31 32  1  0  0  0  0
M  END
>  <MODEL>
8

>  <REMARK>
 VINA RESULT:      -7.5      2.490      6.219
  Name = 
  4 active torsions:
  status: ('A' for Active; 'I' for Inactive)
    1  A    between atoms: C_1  and  C_10
    2  A    between atoms: C_10  and  C_19
    3  A    between atoms: C_19  and  C_24
    4  A    between atoms: N_23  and  C_24
                            x       y       z     vdW  Elec       q    Type
                         _______ _______ _______ _____ _____    ______ ____

>  <TORSDO>
F 4

$$$$
=
 OpenBabel10272413233D

 32 38  0  0  1  0  0  0  0  0999 V2000
  181.6120  179.1110  142.0400 O   0  0  0  0  0  0  0  0  0  0  0  0
  185.8950  178.0280  143.5360 C   0  0  0  0  0  0  0  0  0  0  0  0
  186.6120  178.9660  148.3070 C   0  0  0  0  0  3  0  0  0  0  0  0
  187.8330  178.4180  148.2330 C   0  0  0  0  0  3  0  0  0  0  0  0
  188.0080  177.0370  142.3370 C   0  0  2  0  0  3  0  0  0  0  0  0
  188.2800  178.0410  141.1820 C   0  0  2  0  0  3  0  0  0  0  0  0
  183.5920  178.1850  142.6130 C   0  0  1  0  0  3  0  0  0  0  0  0
  183.8990  178.8950  144.8980 C   0  0  0  0  0  2  0  0  0  0  0  0
  190.6460  176.8880  142.5840 C   0  0  2  0  0  3  0  0  0  0  0  0
  181.9360  179.5010  143.3640 C   0  0  0  0  0  2  0  0  0  0  0  0
  185.5280  178.5740  147.3340 C   0  0  0  0  0  2  0  0  0  0  0  0
  185.3410  178.4170  144.8000 C   0  0  0  0  0  0  0  0  0  0  0  0
  186.1050  178.2520  145.9780 C   0  0  0  0  0  0  0  0  0  0  0  0
  187.9130  177.3370  144.6610 C   0  0  0  0  0  0  0  0  0  0  0  0
  190.6710  177.4490  141.1800 C   0  0  0  0  0  2  0  0  0  0  0  0
  183.4060  179.3170  143.5260 C   0  0  2  0  0  3  0  0  0  0  0  0
  189.6910  178.5950  141.1290 C   0  0  0  0  0  2  0  0  0  0  0  0
  182.7210  178.5000  141.5030 N   0  0  0  0  0  0  0  0  0  0  0  0
  188.1580  177.3970  147.1740 C   0  0  0  0  0  2  0  0  0  0  0  0
  187.3960  177.6840  145.9080 C   0  0  0  0  0  0  0  0  0  0  0  0
  189.1160  176.6270  144.4460 N   0  0  0  0  0  2  0  0  0  0  0  0
  185.0700  178.1030  142.2620 C   0  0  0  0  0  2  0  0  0  0  0  0
  187.3810  179.0890  141.1440 F   0  0  0  0  0  0  0  0  0  0  0  0
  191.6610  175.7700  142.7060 C   0  0  0  0  0  1  0  0  0  0  0  0
  187.2240  177.5730  143.5000 C   0  0  0  0  0  0  0  0  0  0  0  0
  189.2620  176.3840  143.0140 C   0  0  1  0  0  3  0  0  0  0  0  0
  182.2740  177.2350  140.9350 C   0  0  0  0  0  2  0  0  0  0  0  0
  183.0000  176.9590  139.6250 C   0  0  0  0  0  2  0  0  0  0  0  0
  182.2380  177.5290  138.4370 C   0  0  0  0  0  2  0  0  0  0  0  0
  182.2580  176.5520  137.2750 C   0  0  0  0  0  3  0  0  0  0  0  0
  180.9760  175.7450  137.2880 C   0  0  0  0  0  2  0  0  0  0  0  0
  182.2550  175.1390  137.8220 C   0  0  0  0  0  2  0  0  0  0  0  0
  1 10  1  0  0  0  0
  2 12  1  0  0  0  0
  4  3  2  0  0  0  0
  5 26  1  0  0  0  0
  5 25  1  1  0  0  0
  6 23  1  1  0  0  0
  6  5  1  0  0  0  0
  7 22  1  6  0  0  0
  7 16  1  0  0  0  0
  9 24  1  6  0  0  0
  9 26  1  0  0  0  0
 11  3  1  0  0  0  0
 12  8  1  0  0  0  0
 12 13  2  0  0  0  0
 13 11  1  0  0  0  0
 14 20  2  0  0  0  0
 15  9  1  0  0  0  0
 16 10  1  1  0  0  0
 16  8  1  0  0  0  0
 17 15  1  0  0  0  0
 17  6  1  0  0  0  0
 18  1  1  0  0  0  0
 18  7  1  0  0  0  0
 19  4  1  0  0  0  0
 20 13  1  0  0  0  0
 20 19  1  0  0  0  0
 21 14  1  0  0  0  0
 22  2  1  0  0  0  0
 25  2  2  0  0  0  0
 25 14  1  0  0  0  0
 26 21  1  1  0  0  0
 27 18  1  0  0  0  0
 28 27  1  0  0  0  0
 29 28  1  0  0  0  0
 30 31  1  0  0  0  0
 30 32  1  0  0  0  0
 30 29  1  0  0  0  0
 31 32  1  0  0  0  0
M  END
>  <MODEL>
9

>  <REMARK>
 VINA RESULT:      -7.3      2.629      4.446
  Name = 
  4 active torsions:
  status: ('A' for Active; 'I' for Inactive)
    1  A    between atoms: C_1  and  C_10
    2  A    between atoms: C_10  and  C_19
    3  A    between atoms: C_19  and  C_24
    4  A    between atoms: N_23  and  C_24
                            x       y       z     vdW  Elec       q    Type
                         _______ _______ _______ _____ _____    ______ ____

>  <TORSDO>
F 4

$$$$
