=
 OpenBabel10272402043D

 32 34  0  0  1  0  0  0  0  0999 V2000
  187.1280  177.6250  144.7560 C   0  0  1  0  0  3  0  0  0  0  0  0
  186.8420  178.8880  142.7920 C   0  0  1  0  0  3  0  0  0  0  0  0
  187.4600  177.7500  146.2450 C   0  0  0  0  0  2  0  0  0  0  0  0
  186.5930  178.9230  144.2820 C   0  0  1  0  0  3  0  0  0  0  0  0
  188.0290  178.1430  142.5980 O   0  0  0  0  0  0  0  0  0  0  0  0
  185.2100  179.2010  144.8860 C   0  0  2  0  0  3  0  0  0  0  0  0
  185.3170  179.0730  146.3960 C   0  0  0  0  0  3  0  0  0  0  0  0
  188.0000  175.8730  143.2770 C   0  0  0  0  0  1  0  0  0  0  0  0
  188.2230  177.3080  143.7290 C   0  0  2  0  0  0  0  0  0  0  0  0
  186.3060  178.3810  147.0050 C   0  0  0  0  0  3  0  0  0  0  0  0
  189.6870  177.4120  144.2460 C   0  0  2  0  0  3  0  0  0  0  0  0
  190.0090  178.7450  144.5280 O   0  0  0  0  0  1  0  0  0  0  0  0
  190.8440  176.6770  143.4820 C   0  0  2  0  0  0  0  0  0  0  0  0
  190.3180  175.6100  142.7460 O   0  0  0  0  0  1  0  0  0  0  0  0
  191.8990  176.1120  144.4830 C   0  0  1  0  0  3  0  0  0  0  0  0
  191.5560  176.3290  145.9480 C   0  0  0  0  0  1  0  0  0  0  0  0
  192.0950  174.7470  144.2730 O   0  0  0  0  0  1  0  0  0  0  0  0
  191.4640  177.5550  142.5460 O   0  0  0  0  0  0  0  0  0  0  0  0
  191.1060  177.2140  141.2220 C   0  0  0  0  0  2  0  0  0  0  0  0
  192.1200  177.6130  140.3520 O   0  0  0  0  0  1  0  0  0  0  0  0
  185.7950  178.2740  142.0990 O   0  0  0  0  0  0  0  0  0  0  0  0
  185.7970  178.8710  140.8400 C   0  0  0  0  0  2  0  0  0  0  0  0
  182.1630  179.0230  138.5850 C   0  0  0  0  0  2  0  0  0  0  0  0
  184.3780  179.8340  139.1680 O   0  0  0  0  0  0  0  0  0  0  0  0
  184.3720  179.1010  140.3710 C   0  0  1  0  0  3  0  0  0  0  0  0
  183.6420  177.7540  140.2050 C   0  0  0  0  0  2  0  0  0  0  0  0
  183.0450  180.2280  138.9470 C   0  0  0  0  0  2  0  0  0  0  0  0
  182.8570  177.6930  138.8930 C   0  0  0  0  0  2  0  0  0  0  0  0
  184.1500  178.2210  144.3770 C   0  0  0  0  0  2  0  0  0  0  0  0
  182.0630  179.0100  143.4030 C   0  0  0  0  0  0  0  0  0  0  0  0
  182.7740  178.7900  144.4740 C   0  0  0  0  0  3  0  0  0  0  0  0
  181.4000  179.2230  142.3820 O   0  0  0  0  0  0  0  0  0  0  0  0
  1  3  1  1  0  0  0
  2 21  1  6  0  0  0
  2  4  1  0  0  0  0
  3 10  1  0  0  0  0
  4  1  1  0  0  0  0
  4  6  1  0  0  0  0
  5  2  1  0  0  0  0
  5  9  1  0  0  0  0
  6  7  1  0  0  0  0
  7 10  2  0  0  0  0
  8  9  1  0  0  0  0
  9 11  1  0  0  0  0
  9  1  1  0  0  0  0
 11 12  1  0  0  0  0
 13 11  1  0  0  0  0
 13 15  1  0  0  0  0
 14 13  1  0  0  0  0
 15 16  1  0  0  0  0
 17 15  1  0  0  0  0
 18 13  1  0  0  0  0
 19 18  1  0  0  0  0
 20 19  1  0  0  0  0
 22 21  1  0  0  0  0
 23 28  1  0  0  0  0
 23 27  1  0  0  0  0
 24 25  1  0  0  0  0
 25 22  1  0  0  0  0
 26 25  1  0  0  0  0
 27 24  1  0  0  0  0
 28 26  1  0  0  0  0
 29 31  1  0  0  0  0
 29  6  1  0  0  0  0
 30 31  2  0  0  0  0
 32 30  2  0  0  0  0
M  END
>  <MODEL>
1

>  <REMARK>
 VINA RESULT:      -7.4      0.000      0.000
  Name = 
  10 active torsions:
  status: ('A' for Active; 'I' for Inactive)
    1  A    between atoms: C_2  and  O_6
    2  A    between atoms: C_3  and  C_22
    3  A    between atoms: O_6  and  C_17
    4  A    between atoms: C_7  and  O_15
    5  A    between atoms: C_12  and  C_17
    6  A    between atoms: C_14  and  C_29
    7  A    between atoms: O_15  and  C_22
    8  A    between atoms: C_16  and  C_22
    9  A    between atoms: C_16  and  C_27
   10  A    between atoms: C_18  and  C_29
                            x       y       z     vdW  Elec       q    Type
                         _______ _______ _______ _____ _____    ______ ____

>  <TORSDO>
F 10

$$$$
=
 OpenBabel10272402043D

 32 34  0  0  1  0  0  0  0  0999 V2000
  190.5830  177.5910  143.0690 C   0  0  1  0  0  3  0  0  0  0  0  0
  188.7100  176.1710  143.1570 C   0  0  1  0  0  3  0  0  0  0  0  0
  192.0680  177.6250  142.6990 C   0  0  0  0  0  2  0  0  0  0  0  0
  189.9390  176.4790  142.3330 C   0  0  1  0  0  3  0  0  0  0  0  0
  189.0480  176.4420  144.5030 O   0  0  0  0  0  0  0  0  0  0  0  0
  189.8780  176.7770  140.8300 C   0  0  2  0  0  3  0  0  0  0  0  0
  191.2800  177.1220  140.3560 C   0  0  0  0  0  3  0  0  0  0  0  0
  189.6150  178.6780  145.0440 C   0  0  0  0  0  1  0  0  0  0  0  0
  190.1390  177.3500  144.5170 C   0  0  2  0  0  0  0  0  0  0  0  0
  192.2520  177.5480  141.1930 C   0  0  0  0  0  3  0  0  0  0  0  0
  191.2470  176.8660  145.4950 C   0  0  2  0  0  3  0  0  0  0  0  0
  191.9020  175.7450  144.9690 O   0  0  0  0  0  1  0  0  0  0  0  0
  190.9300  176.6960  147.0220 C   0  0  2  0  0  0  0  0  0  0  0  0
  190.7300  175.3430  147.3130 O   0  0  0  0  0  1  0  0  0  0  0  0
  189.6380  177.4790  147.4110 C   0  0  1  0  0  3  0  0  0  0  0  0
  188.4500  176.5990  147.7610 C   0  0  0  0  0  1  0  0  0  0  0  0
  189.8860  178.3350  148.4840 O   0  0  0  0  0  1  0  0  0  0  0  0
  192.0330  177.1260  147.8150 O   0  0  0  0  0  0  0  0  0  0  0  0
  192.7360  176.0210  148.3450 C   0  0  0  0  0  2  0  0  0  0  0  0
  193.6100  176.4610  149.3380 O   0  0  0  0  0  1  0  0  0  0  0  0
  187.6200  176.9640  142.7880 O   0  0  0  0  0  0  0  0  0  0  0  0
  186.7760  176.9570  143.8970 C   0  0  0  0  0  2  0  0  0  0  0  0
  183.3880  179.5590  144.1290 C   0  0  0  0  0  2  0  0  0  0  0  0
  184.7170  177.8370  143.0480 O   0  0  0  0  0  0  0  0  0  0  0  0
  185.8370  178.1480  143.8440 C   0  0  1  0  0  3  0  0  0  0  0  0
  185.4170  178.5590  145.2680 C   0  0  0  0  0  2  0  0  0  0  0  0
  184.0430  179.0540  142.8350 C   0  0  0  0  0  2  0  0  0  0  0  0
  183.9130  178.8200  145.3630 C   0  0  0  0  0  2  0  0  0  0  0  0
  188.9430  177.9450  140.5100 C   0  0  0  0  0  2  0  0  0  0  0  0
  188.7290  178.7500  138.2220 C   0  0  0  0  0  0  0  0  0  0  0  0
  188.4030  177.8630  139.1210 C   0  0  0  0  0  3  0  0  0  0  0  0
  189.0380  179.5990  137.3780 O   0  0  0  0  0  0  0  0  0  0  0  0
  1  3  1  1  0  0  0
  1  9  1  0  0  0  0
  2 21  1  6  0  0  0
  2  5  1  0  0  0  0
  4  1  1  0  0  0  0
  4  2  1  0  0  0  0
  5  9  1  0  0  0  0
  6  4  1  0  0  0  0
  7  6  1  0  0  0  0
  7 10  2  0  0  0  0
  9  8  1  0  0  0  0
  9 11  1  0  0  0  0
 10  3  1  0  0  0  0
 11 13  1  0  0  0  0
 12 11  1  0  0  0  0
 13 14  1  0  0  0  0
 13 15  1  0  0  0  0
 13 18  1  0  0  0  0
 15 16  1  0  0  0  0
 15 17  1  0  0  0  0
 18 19  1  0  0  0  0
 19 20  1  0  0  0  0
 21 22  1  0  0  0  0
 23 28  1  0  0  0  0
 24 25  1  0  0  0  0
 25 22  1  0  0  0  0
 25 26  1  0  0  0  0
 26 28  1  0  0  0  0
 27 24  1  0  0  0  0
 27 23  1  0  0  0  0
 29  6  1  0  0  0  0
 30 31  2  0  0  0  0
 31 29  1  0  0  0  0
 32 30  2  0  0  0  0
M  END
>  <MODEL>
2

>  <REMARK>
 VINA RESULT:      -7.4      2.432      5.617
  Name = 
  10 active torsions:
  status: ('A' for Active; 'I' for Inactive)
    1  A    between atoms: C_2  and  O_6
    2  A    between atoms: C_3  and  C_22
    3  A    between atoms: O_6  and  C_17
    4  A    between atoms: C_7  and  O_15
    5  A    between atoms: C_12  and  C_17
    6  A    between atoms: C_14  and  C_29
    7  A    between atoms: O_15  and  C_22
    8  A    between atoms: C_16  and  C_22
    9  A    between atoms: C_16  and  C_27
   10  A    between atoms: C_18  and  C_29
                            x       y       z     vdW  Elec       q    Type
                         _______ _______ _______ _____ _____    ______ ____

>  <TORSDO>
F 10

$$$$
=
 OpenBabel10272402043D

 32 34  0  0  1  0  0  0  0  0999 V2000
  187.0370  177.5420  143.7520 C   0  0  1  0  0  3  0  0  0  0  0  0
  187.7500  178.8120  141.9050 C   0  0  1  0  0  3  0  0  0  0  0  0
  186.5260  177.6660  145.1900 C   0  0  0  0  0  2  0  0  0  0  0  0
  186.7520  178.8080  143.0390 C   0  0  1  0  0  3  0  0  0  0  0  0
  188.9050  178.1490  142.3820 O   0  0  0  0  0  0  0  0  0  0  0  0
  185.2440  178.9870  142.8180 C   0  0  2  0  0  3  0  0  0  0  0  0
  184.5460  178.8440  144.1600 C   0  0  0  0  0  3  0  0  0  0  0  0
  188.6660  175.8720  142.9940 C   0  0  0  0  0  1  0  0  0  0  0  0
  188.5260  177.3120  143.4640 C   0  0  2  0  0  0  0  0  0  0  0  0
  185.1070  178.2090  145.2140 C   0  0  0  0  0  3  0  0  0  0  0  0
  189.4880  177.5030  144.6720 C   0  0  2  0  0  3  0  0  0  0  0  0
  189.5080  178.8460  145.0690 O   0  0  0  0  0  1  0  0  0  0  0  0
  190.9280  176.8810  144.6370 C   0  0  2  0  0  0  0  0  0  0  0  0
  190.8760  175.6090  144.0580 O   0  0  0  0  0  1  0  0  0  0  0  0
  191.5080  176.7430  146.0790 C   0  0  1  0  0  3  0  0  0  0  0  0
  190.4630  176.7510  147.1820 C   0  0  0  0  0  1  0  0  0  0  0  0
  192.2630  175.5760  146.1950 O   0  0  0  0  0  1  0  0  0  0  0  0
  191.7950  177.6660  143.8220 O   0  0  0  0  0  0  0  0  0  0  0  0
  192.1670  176.9610  142.6560 C   0  0  0  0  0  2  0  0  0  0  0  0
  191.8130  177.7060  141.5320 O   0  0  0  0  0  1  0  0  0  0  0  0
  187.2670  178.1410  140.7790 O   0  0  0  0  0  0  0  0  0  0  0  0
  188.3580  178.0510  139.9160 C   0  0  0  0  0  2  0  0  0  0  0  0
  187.4570  177.8870  135.7370 C   0  0  0  0  0  2  0  0  0  0  0  0
  187.0090  178.5990  138.0150 O   0  0  0  0  0  0  0  0  0  0  0  0
  187.8950  177.6340  138.5330 C   0  0  1  0  0  3  0  0  0  0  0  0
  189.1070  177.4290  137.6040 C   0  0  0  0  0  2  0  0  0  0  0  0
  186.4300  178.0210  136.8700 C   0  0  0  0  0  2  0  0  0  0  0  0
  188.8910  178.0820  136.2370 C   0  0  0  0  0  2  0  0  0  0  0  0
  184.6760  177.9470  141.8490 C   0  0  0  0  0  2  0  0  0  0  0  0
  184.0440  179.3730  139.9790 C   0  0  0  0  0  0  0  0  0  0  0  0
  183.6750  178.5440  140.9160 C   0  0  0  0  0  3  0  0  0  0  0  0
  184.4030  180.1640  139.0990 O   0  0  0  0  0  0  0  0  0  0  0  0
  1  3  1  1  0  0  0
  2 21  1  6  0  0  0
  2  5  1  0  0  0  0
  2  4  1  0  0  0  0
  3 10  1  0  0  0  0
  4  1  1  0  0  0  0
  5  9  1  0  0  0  0
  6  4  1  0  0  0  0
  6  7  1  0  0  0  0
  7 10  2  0  0  0  0
  8  9  1  0  0  0  0
  9  1  1  0  0  0  0
  9 11  1  0  0  0  0
 11 12  1  0  0  0  0
 13 11  1  0  0  0  0
 13 15  1  0  0  0  0
 14 13  1  0  0  0  0
 15 17  1  0  0  0  0
 15 16  1  0  0  0  0
 18 13  1  0  0  0  0
 19 18  1  0  0  0  0
 20 19  1  0  0  0  0
 22 21  1  0  0  0  0
 23 28  1  0  0  0  0
 23 27  1  0  0  0  0
 24 25  1  0  0  0  0
 25 22  1  0  0  0  0
 26 25  1  0  0  0  0
 27 24  1  0  0  0  0
 28 26  1  0  0  0  0
 29  6  1  0  0  0  0
 30 31  2  0  0  0  0
 31 29  1  0  0  0  0
 32 30  2  0  0  0  0
M  END
>  <MODEL>
3

>  <REMARK>
 VINA RESULT:      -7.3      2.223      2.949
  Name = 
  10 active torsions:
  status: ('A' for Active; 'I' for Inactive)
    1  A    between atoms: C_2  and  O_6
    2  A    between atoms: C_3  and  C_22
    3  A    between atoms: O_6  and  C_17
    4  A    between atoms: C_7  and  O_15
    5  A    between atoms: C_12  and  C_17
    6  A    between atoms: C_14  and  C_29
    7  A    between atoms: O_15  and  C_22
    8  A    between atoms: C_16  and  C_22
    9  A    between atoms: C_16  and  C_27
   10  A    between atoms: C_18  and  C_29
                            x       y       z     vdW  Elec       q    Type
                         _______ _______ _______ _____ _____    ______ ____

>  <TORSDO>
F 10

$$$$
=
 OpenBabel10272402043D

 32 34  0  0  1  0  0  0  0  0999 V2000
  186.9690  177.4720  144.0250 C   0  0  1  0  0  3  0  0  0  0  0  0
  187.8270  178.7380  142.2380 C   0  0  1  0  0  3  0  0  0  0  0  0
  186.3750  177.5970  145.4300 C   0  0  0  0  0  2  0  0  0  0  0  0
  186.7610  178.7510  143.3090 C   0  0  1  0  0  3  0  0  0  0  0  0
  188.9330  178.0410  142.7780 O   0  0  0  0  0  0  0  0  0  0  0  0
  185.2750  178.9710  142.9980 C   0  0  2  0  0  3  0  0  0  0  0  0
  184.4920  178.8360  144.2940 C   0  0  0  0  0  3  0  0  0  0  0  0
  188.5980  175.7660  143.3510 C   0  0  0  0  0  1  0  0  0  0  0  0
  188.4670  177.2060  143.8260 C   0  0  2  0  0  0  0  0  0  0  0  0
  184.9710  178.1770  145.3730 C   0  0  0  0  0  3  0  0  0  0  0  0
  189.3570  177.3610  145.0930 C   0  0  2  0  0  3  0  0  0  0  0  0
  189.2090  178.6430  145.6350 O   0  0  0  0  0  1  0  0  0  0  0  0
  190.8590  176.9090  145.0580 C   0  0  2  0  0  0  0  0  0  0  0  0
  191.6880  178.0170  145.2590 O   0  0  0  0  0  1  0  0  0  0  0  0
  191.2150  176.2710  143.6800 C   0  0  1  0  0  3  0  0  0  0  0  0
  191.9380  177.2030  142.7230 C   0  0  0  0  0  1  0  0  0  0  0  0
  191.9940  175.1260  143.8550 O   0  0  0  0  0  1  0  0  0  0  0  0
  191.1330  175.9960  146.1180 O   0  0  0  0  0  0  0  0  0  0  0  0
  191.5260  176.6830  147.2880 C   0  0  0  0  0  2  0  0  0  0  0  0
  192.6360  176.0490  147.8460 O   0  0  0  0  0  1  0  0  0  0  0  0
  187.3960  178.0890  141.0770 O   0  0  0  0  0  0  0  0  0  0  0  0
  188.5470  177.9240  140.3080 C   0  0  0  0  0  2  0  0  0  0  0  0
  187.6030  178.3240  136.1540 C   0  0  0  0  0  2  0  0  0  0  0  0
  187.0470  178.4440  138.5150 O   0  0  0  0  0  0  0  0  0  0  0  0
  188.1720  177.6690  138.8600 C   0  0  1  0  0  3  0  0  0  0  0  0
  189.3680  177.9760  137.9380 C   0  0  0  0  0  2  0  0  0  0  0  0
  186.6100  177.9610  137.2680 C   0  0  0  0  0  2  0  0  0  0  0  0
  188.9470  178.7960  136.7160 C   0  0  0  0  0  2  0  0  0  0  0  0
  184.7400  177.9550  141.9860 C   0  0  0  0  0  2  0  0  0  0  0  0
  184.0430  179.3420  140.1090 C   0  0  0  0  0  0  0  0  0  0  0  0
  183.7050  178.5520  141.0910 C   0  0  0  0  0  3  0  0  0  0  0  0
  184.3720  180.0960  139.1870 O   0  0  0  0  0  0  0  0  0  0  0  0
  1  3  1  1  0  0  0
  2 21  1  6  0  0  0
  2  5  1  0  0  0  0
  2  4  1  0  0  0  0
  4  1  1  0  0  0  0
  5  9  1  0  0  0  0
  6  4  1  0  0  0  0
  6  7  1  0  0  0  0
  7 10  2  0  0  0  0
  8  9  1  0  0  0  0
  9  1  1  0  0  0  0
  9 11  1  0  0  0  0
 10  3  1  0  0  0  0
 11 12  1  0  0  0  0
 13 11  1  0  0  0  0
 13 14  1  0  0  0  0
 13 18  1  0  0  0  0
 15 17  1  0  0  0  0
 15 13  1  0  0  0  0
 16 15  1  0  0  0  0
 18 19  1  0  0  0  0
 19 20  1  0  0  0  0
 22 21  1  0  0  0  0
 23 28  1  0  0  0  0
 23 27  1  0  0  0  0
 24 25  1  0  0  0  0
 25 22  1  0  0  0  0
 26 25  1  0  0  0  0
 27 24  1  0  0  0  0
 28 26  1  0  0  0  0
 29  6  1  0  0  0  0
 30 31  2  0  0  0  0
 31 29  1  0  0  0  0
 32 30  2  0  0  0  0
M  END
>  <MODEL>
4

>  <REMARK>
 VINA RESULT:      -7.3      2.232      3.510
  Name = 
  10 active torsions:
  status: ('A' for Active; 'I' for Inactive)
    1  A    between atoms: C_2  and  O_6
    2  A    between atoms: C_3  and  C_22
    3  A    between atoms: O_6  and  C_17
    4  A    between atoms: C_7  and  O_15
    5  A    between atoms: C_12  and  C_17
    6  A    between atoms: C_14  and  C_29
    7  A    between atoms: O_15  and  C_22
    8  A    between atoms: C_16  and  C_22
    9  A    between atoms: C_16  and  C_27
   10  A    between atoms: C_18  and  C_29
                            x       y       z     vdW  Elec       q    Type
                         _______ _______ _______ _____ _____    ______ ____

>  <TORSDO>
F 10

$$$$
=
 OpenBabel10272402043D

 32 34  0  0  1  0  0  0  0  0999 V2000
  190.6220  177.6320  142.6970 C   0  0  1  0  0  3  0  0  0  0  0  0
  188.5950  176.4710  142.9680 C   0  0  1  0  0  3  0  0  0  0  0  0
  192.0600  177.4710  142.1970 C   0  0  0  0  0  2  0  0  0  0  0  0
  189.7750  176.6140  142.0350 C   0  0  1  0  0  3  0  0  0  0  0  0
  189.0850  176.6940  144.2760 O   0  0  0  0  0  0  0  0  0  0  0  0
  189.6180  176.9190  140.5400 C   0  0  2  0  0  3  0  0  0  0  0  0
  191.0040  177.0770  139.9390 C   0  0  0  0  0  3  0  0  0  0  0  0
  189.9870  178.8360  144.7390 C   0  0  0  0  0  1  0  0  0  0  0  0
  190.2820  177.4510  144.1820 C   0  0  2  0  0  0  0  0  0  0  0  0
  192.0960  177.3710  140.6810 C   0  0  0  0  0  3  0  0  0  0  0  0
  191.4010  176.8240  145.0630 C   0  0  2  0  0  3  0  0  0  0  0  0
  191.8680  175.6380  144.4830 O   0  0  0  0  0  1  0  0  0  0  0  0
  191.1940  176.6770  146.6110 C   0  0  2  0  0  0  0  0  0  0  0  0
  191.5960  177.8540  147.2520 O   0  0  0  0  0  1  0  0  0  0  0  0
  192.0430  175.4960  147.1750 C   0  0  1  0  0  3  0  0  0  0  0  0
  193.0610  175.8980  148.2300 C   0  0  0  0  0  1  0  0  0  0  0  0
  191.2160  174.5100  147.7130 O   0  0  0  0  0  1  0  0  0  0  0  0
  189.8150  176.4940  146.9180 O   0  0  0  0  0  0  0  0  0  0  0  0
  189.3670  177.4720  147.8340 C   0  0  0  0  0  2  0  0  0  0  0  0
  188.0560  177.8310  147.5240 O   0  0  0  0  0  1  0  0  0  0  0  0
  187.5890  177.4000  142.6890 O   0  0  0  0  0  0  0  0  0  0  0  0
  186.7860  177.4160  143.8280 C   0  0  0  0  0  2  0  0  0  0  0  0
  182.9620  179.3350  143.7710 C   0  0  0  0  0  2  0  0  0  0  0  0
  184.6150  177.7880  142.8890 O   0  0  0  0  0  0  0  0  0  0  0  0
  185.6400  178.3940  143.6430 C   0  0  1  0  0  3  0  0  0  0  0  0
  185.1220  178.8730  145.0120 C   0  0  0  0  0  2  0  0  0  0  0  0
  183.7270  178.8230  142.5410 C   0  0  0  0  0  2  0  0  0  0  0  0
  183.5930  178.8510  145.0800 C   0  0  0  0  0  2  0  0  0  0  0  0
  188.8190  178.2000  140.2920 C   0  0  0  0  0  2  0  0  0  0  0  0
  187.8020  177.6480  138.1490 C   0  0  0  0  0  0  0  0  0  0  0  0
  188.5820  178.4360  138.8370 C   0  0  0  0  0  3  0  0  0  0  0  0
  187.0670  176.8920  137.5040 O   0  0  0  0  0  0  0  0  0  0  0  0
  1  3  1  1  0  0  0
  1  9  1  0  0  0  0
  2 21  1  6  0  0  0
  2  5  1  0  0  0  0
  4  1  1  0  0  0  0
  4  2  1  0  0  0  0
  6  4  1  0  0  0  0
  7  6  1  0  0  0  0
  7 10  2  0  0  0  0
  9  5  1  0  0  0  0
  9  8  1  0  0  0  0
  9 11  1  0  0  0  0
 10  3  1  0  0  0  0
 11 13  1  0  0  0  0
 12 11  1  0  0  0  0
 13 18  1  0  0  0  0
 13 15  1  0  0  0  0
 13 14  1  0  0  0  0
 15 17  1  0  0  0  0
 15 16  1  0  0  0  0
 18 19  1  0  0  0  0
 20 19  1  0  0  0  0
 21 22  1  0  0  0  0
 23 28  1  0  0  0  0
 24 25  1  0  0  0  0
 25 22  1  0  0  0  0
 25 26  1  0  0  0  0
 26 28  1  0  0  0  0
 27 24  1  0  0  0  0
 27 23  1  0  0  0  0
 29  6  1  0  0  0  0
 30 31  2  0  0  0  0
 31 29  1  0  0  0  0
 32 30  2  0  0  0  0
M  END
>  <MODEL>
5

>  <REMARK>
 VINA RESULT:      -7.1      2.308      5.331
  Name = 
  10 active torsions:
  status: ('A' for Active; 'I' for Inactive)
    1  A    between atoms: C_2  and  O_6
    2  A    between atoms: C_3  and  C_22
    3  A    between atoms: O_6  and  C_17
    4  A    between atoms: C_7  and  O_15
    5  A    between atoms: C_12  and  C_17
    6  A    between atoms: C_14  and  C_29
    7  A    between atoms: O_15  and  C_22
    8  A    between atoms: C_16  and  C_22
    9  A    between atoms: C_16  and  C_27
   10  A    between atoms: C_18  and  C_29
                            x       y       z     vdW  Elec       q    Type
                         _______ _______ _______ _____ _____    ______ ____

>  <TORSDO>
F 10

$$$$
=
 OpenBabel10272402043D

 32 34  0  0  1  0  0  0  0  0999 V2000
  187.1370  178.0280  143.8520 C   0  0  1  0  0  3  0  0  0  0  0  0
  187.8460  178.8300  141.7580 C   0  0  1  0  0  3  0  0  0  0  0  0
  186.5700  178.4810  145.2000 C   0  0  0  0  0  2  0  0  0  0  0  0
  186.8100  179.0530  142.8340 C   0  0  1  0  0  3  0  0  0  0  0  0
  189.0170  178.3800  142.4110 O   0  0  0  0  0  0  0  0  0  0  0  0
  185.3040  179.0780  142.5440 C   0  0  2  0  0  3  0  0  0  0  0  0
  184.5680  179.2380  143.8640 C   0  0  0  0  0  3  0  0  0  0  0  0
  188.8790  176.3220  143.5770 C   0  0  0  0  0  1  0  0  0  0  0  0
  188.6450  177.8230  143.6620 C   0  0  2  0  0  0  0  0  0  0  0  0
  185.1250  178.9260  145.0560 C   0  0  0  0  0  3  0  0  0  0  0  0
  189.5530  178.3710  144.8020 C   0  0  2  0  0  3  0  0  0  0  0  0
  190.6590  179.0390  144.2620 O   0  0  0  0  0  1  0  0  0  0  0  0
  189.9560  177.4440  146.0010 C   0  0  2  0  0  0  0  0  0  0  0  0
  189.6570  176.1140  145.6870 O   0  0  0  0  0  1  0  0  0  0  0  0
  189.1710  177.8330  147.2920 C   0  0  1  0  0  3  0  0  0  0  0  0
  188.2720  176.7360  147.8370 C   0  0  0  0  0  1  0  0  0  0  0  0
  190.0500  178.2270  148.3010 O   0  0  0  0  0  1  0  0  0  0  0  0
  191.3610  177.5040  146.2320 O   0  0  0  0  0  0  0  0  0  0  0  0
  191.9100  176.2070  146.3460 C   0  0  0  0  0  2  0  0  0  0  0  0
  192.4880  176.0580  147.6060 O   0  0  0  0  0  1  0  0  0  0  0  0
  187.4390  177.8680  140.8290 O   0  0  0  0  0  0  0  0  0  0  0  0
  187.7100  178.4310  139.5840 C   0  0  0  0  0  2  0  0  0  0  0  0
  191.1550  176.6110  137.8150 C   0  0  0  0  0  2  0  0  0  0  0  0
  189.4080  176.7450  139.4970 O   0  0  0  0  0  0  0  0  0  0  0  0
  189.1210  178.0790  139.1490 C   0  0  1  0  0  3  0  0  0  0  0  0
  189.2860  178.3120  137.6350 C   0  0  0  0  0  2  0  0  0  0  0  0
  190.7930  176.5830  139.3070 C   0  0  0  0  0  2  0  0  0  0  0  0
  190.0040  177.1440  136.9560 C   0  0  0  0  0  2  0  0  0  0  0  0
  184.8260  177.7960  141.8610 C   0  0  0  0  0  2  0  0  0  0  0  0
  184.1300  179.1030  139.9280 C   0  0  0  0  0  0  0  0  0  0  0  0
  183.9170  178.0820  140.7120 C   0  0  0  0  0  3  0  0  0  0  0  0
  184.3350  180.0770  139.1960 O   0  0  0  0  0  0  0  0  0  0  0  0
  1  3  1  1  0  0  0
  2 21  1  6  0  0  0
  2  5  1  0  0  0  0
  2  4  1  0  0  0  0
  4  1  1  0  0  0  0
  5  9  1  0  0  0  0
  6  4  1  0  0  0  0
  6  7  1  0  0  0  0
  7 10  2  0  0  0  0
  8  9  1  0  0  0  0
  9  1  1  0  0  0  0
  9 11  1  0  0  0  0
 10  3  1  0  0  0  0
 11 13  1  0  0  0  0
 12 11  1  0  0  0  0
 13 18  1  0  0  0  0
 13 15  1  0  0  0  0
 14 13  1  0  0  0  0
 15 16  1  0  0  0  0
 15 17  1  0  0  0  0
 18 19  1  0  0  0  0
 19 20  1  0  0  0  0
 22 21  1  0  0  0  0
 23 27  1  0  0  0  0
 25 24  1  0  0  0  0
 25 22  1  0  0  0  0
 26 25  1  0  0  0  0
 27 24  1  0  0  0  0
 28 26  1  0  0  0  0
 28 23  1  0  0  0  0
 29  6  1  0  0  0  0
 30 31  2  0  0  0  0
 31 29  1  0  0  0  0
 32 30  2  0  0  0  0
M  END
>  <MODEL>
6

>  <REMARK>
 VINA RESULT:      -6.7      2.166      4.303
  Name = 
  10 active torsions:
  status: ('A' for Active; 'I' for Inactive)
    1  A    between atoms: C_2  and  O_6
    2  A    between atoms: C_3  and  C_22
    3  A    between atoms: O_6  and  C_17
    4  A    between atoms: C_7  and  O_15
    5  A    between atoms: C_12  and  C_17
    6  A    between atoms: C_14  and  C_29
    7  A    between atoms: O_15  and  C_22
    8  A    between atoms: C_16  and  C_22
    9  A    between atoms: C_16  and  C_27
   10  A    between atoms: C_18  and  C_29
                            x       y       z     vdW  Elec       q    Type
                         _______ _______ _______ _____ _____    ______ ____

>  <TORSDO>
F 10

$$$$
=
 OpenBabel10272402043D

 32 34  0  0  1  0  0  0  0  0999 V2000
  185.9400  178.7810  144.1060 C   0  0  1  0  0  3  0  0  0  0  0  0
  187.0450  176.8340  143.3830 C   0  0  1  0  0  3  0  0  0  0  0  0
  184.7020  179.2670  144.8620 C   0  0  0  0  0  2  0  0  0  0  0  0
  186.2390  177.3940  144.5320 C   0  0  1  0  0  3  0  0  0  0  0  0
  186.5620  177.4580  142.2090 O   0  0  0  0  0  0  0  0  0  0  0  0
  186.7310  177.3600  145.9840 C   0  0  2  0  0  3  0  0  0  0  0  0
  185.7100  178.0820  146.8490 C   0  0  0  0  0  3  0  0  0  0  0  0
  186.8110  179.8090  142.0550 C   0  0  0  0  0  1  0  0  0  0  0  0
  185.9360  178.6780  142.5750 C   0  0  2  0  0  0  0  0  0  0  0  0
  184.8270  178.9750  146.3480 C   0  0  0  0  0  3  0  0  0  0  0  0
  184.5460  178.8120  141.8900 C   0  0  2  0  0  3  0  0  0  0  0  0
  183.5940  178.0400  142.5680 O   0  0  0  0  0  1  0  0  0  0  0  0
  184.4180  178.6650  140.3330 C   0  0  2  0  0  0  0  0  0  0  0  0
  184.5720  179.9170  139.7290 O   0  0  0  0  0  1  0  0  0  0  0  0
  183.0190  178.0970  139.9420 C   0  0  1  0  0  3  0  0  0  0  0  0
  182.3120  178.8690  138.8400 C   0  0  0  0  0  1  0  0  0  0  0  0
  183.1210  176.7630  139.5510 O   0  0  0  0  0  1  0  0  0  0  0  0
  185.4560  177.8330  139.8210 O   0  0  0  0  0  0  0  0  0  0  0  0
  186.0510  178.4130  138.6780 C   0  0  0  0  0  2  0  0  0  0  0  0
  187.4370  178.4140  138.8280 O   0  0  0  0  0  1  0  0  0  0  0  0
  188.4100  177.1050  143.5180 O   0  0  0  0  0  0  0  0  0  0  0  0
  189.0470  175.9030  143.2160 C   0  0  0  0  0  2  0  0  0  0  0  0
  192.0100  177.6630  140.6790 C   0  0  0  0  0  2  0  0  0  0  0  0
  189.7290  177.0140  141.2070 O   0  0  0  0  0  0  0  0  0  0  0  0
  190.1710  176.1450  142.2240 C   0  0  1  0  0  3  0  0  0  0  0  0
  191.4070  176.7110  142.9490 C   0  0  0  0  0  2  0  0  0  0  0  0
  190.7190  176.9770  140.2080 C   0  0  0  0  0  2  0  0  0  0  0  0
  192.0150  177.8950  142.1930 C   0  0  0  0  0  2  0  0  0  0  0  0
  188.0920  178.0380  146.1500 C   0  0  0  0  0  2  0  0  0  0  0  0
  190.2390  177.0590  146.7500 C   0  0  0  0  0  0  0  0  0  0  0  0
  188.9900  177.2700  147.0620 C   0  0  0  0  0  3  0  0  0  0  0  0
  191.4190  176.8570  146.4420 O   0  0  0  0  0  0  0  0  0  0  0  0
  1  4  1  0  0  0  0
  1  3  1  1  0  0  0
  2 21  1  1  0  0  0
  2  4  1  0  0  0  0
  3 10  1  0  0  0  0
  4  6  1  0  0  0  0
  5  9  1  0  0  0  0
  5  2  1  0  0  0  0
  6 29  1  0  0  0  0
  6  7  1  0  0  0  0
  8  9  1  0  0  0  0
  9  1  1  0  0  0  0
 10  7  2  0  0  0  0
 11 12  1  0  0  0  0
 11  9  1  0  0  0  0
 13 11  1  0  0  0  0
 14 13  1  0  0  0  0
 15 13  1  0  0  0  0
 16 15  1  0  0  0  0
 17 15  1  0  0  0  0
 18 13  1  0  0  0  0
 19 20  1  0  0  0  0
 19 18  1  0  0  0  0
 22 21  1  0  0  0  0
 23 28  1  0  0  0  0
 24 25  1  0  0  0  0
 25 26  1  0  0  0  0
 25 22  1  0  0  0  0
 27 23  1  0  0  0  0
 27 24  1  0  0  0  0
 28 26  1  0  0  0  0
 29 31  1  0  0  0  0
 30 31  2  0  0  0  0
 32 30  2  0  0  0  0
M  END
>  <MODEL>
7

>  <REMARK>
 VINA RESULT:      -6.5      1.598      6.716
  Name = 
  10 active torsions:
  status: ('A' for Active; 'I' for Inactive)
    1  A    between atoms: C_2  and  O_6
    2  A    between atoms: C_3  and  C_22
    3  A    between atoms: O_6  and  C_17
    4  A    between atoms: C_7  and  O_15
    5  A    between atoms: C_12  and  C_17
    6  A    between atoms: C_14  and  C_29
    7  A    between atoms: O_15  and  C_22
    8  A    between atoms: C_16  and  C_22
    9  A    between atoms: C_16  and  C_27
   10  A    between atoms: C_18  and  C_29
                            x       y       z     vdW  Elec       q    Type
                         _______ _______ _______ _____ _____    ______ ____

>  <TORSDO>
F 10

$$$$
=
 OpenBabel10272402043D

 32 34  0  0  1  0  0  0  0  0999 V2000
  189.2990  177.2860  140.5330 C   0  0  1  0  0  3  0  0  0  0  0  0
  187.6990  178.9330  141.0430 C   0  0  1  0  0  3  0  0  0  0  0  0
  190.8070  177.0270  140.4870 C   0  0  0  0  0  2  0  0  0  0  0  0
  189.0380  178.3900  141.4850 C   0  0  1  0  0  3  0  0  0  0  0  0
  187.6360  178.7610  139.6410 O   0  0  0  0  0  0  0  0  0  0  0  0
  189.3210  177.9500  142.9270 C   0  0  2  0  0  3  0  0  0  0  0  0
  190.7300  177.3840  142.9840 C   0  0  0  0  0  3  0  0  0  0  0  0
  187.7060  176.5380  138.8230 C   0  0  0  0  0  1  0  0  0  0  0  0
  188.5390  177.7280  139.2760 C   0  0  2  0  0  0  0  0  0  0  0  0
  191.3800  176.9260  141.8900 C   0  0  0  0  0  3  0  0  0  0  0  0
  189.4190  178.1660  138.0700 C   0  0  2  0  0  3  0  0  0  0  0  0
  188.9750  179.3950  137.5660 O   0  0  0  0  0  1  0  0  0  0  0  0
  189.7460  177.1460  136.9230 C   0  0  2  0  0  0  0  0  0  0  0  0
  191.1020  177.2320  136.5910 O   0  0  0  0  0  1  0  0  0  0  0  0
  188.9060  177.4570  135.6470 C   0  0  1  0  0  3  0  0  0  0  0  0
  189.7260  177.6350  134.3800 C   0  0  0  0  0  1  0  0  0  0  0  0
  187.9600  176.4560  135.4240 O   0  0  0  0  0  1  0  0  0  0  0  0
  189.5160  175.8090  137.3600 O   0  0  0  0  0  0  0  0  0  0  0  0
  190.7010  175.0430  137.2870 C   0  0  0  0  0  2  0  0  0  0  0  0
  190.3800  173.6870  137.3460 O   0  0  0  0  0  1  0  0  0  0  0  0
  186.6350  178.2510  141.6390 O   0  0  0  0  0  0  0  0  0  0  0  0
  185.6490  179.2170  141.8310 C   0  0  0  0  0  2  0  0  0  0  0  0
  182.2490  178.7910  144.3940 C   0  0  0  0  0  2  0  0  0  0  0  0
  184.4460  179.6730  143.8510 O   0  0  0  0  0  0  0  0  0  0  0  0
  184.6200  178.7190  142.8290 C   0  0  1  0  0  3  0  0  0  0  0  0
  183.2890  178.4140  142.1150 C   0  0  0  0  0  2  0  0  0  0  0  0
  183.6940  179.0350  144.8540 C   0  0  0  0  0  2  0  0  0  0  0  0
  182.0910  178.9770  142.8820 C   0  0  0  0  0  2  0  0  0  0  0  0
  188.3360  176.8830  143.4090 C   0  0  0  0  0  2  0  0  0  0  0  0
  188.3140  177.3000  145.8080 C   0  0  0  0  0  0  0  0  0  0  0  0
  187.6610  177.2810  144.6790 C   0  0  0  0  0  3  0  0  0  0  0  0
  188.9400  177.3070  146.8740 O   0  0  0  0  0  0  0  0  0  0  0  0
  1  3  1  6  0  0  0
  1  4  1  0  0  0  0
  2  4  1  0  0  0  0
  2 21  1  1  0  0  0
  3 10  1  0  0  0  0
  4  6  1  0  0  0  0
  5  2  1  0  0  0  0
  6  7  1  0  0  0  0
  6 29  1  0  0  0  0
  8  9  1  0  0  0  0
  9  5  1  0  0  0  0
  9  1  1  0  0  0  0
 10  7  2  0  0  0  0
 11  9  1  0  0  0  0
 12 11  1  0  0  0  0
 13 18  1  0  0  0  0
 13 11  1  0  0  0  0
 14 13  1  0  0  0  0
 15 13  1  0  0  0  0
 16 15  1  0  0  0  0
 17 15  1  0  0  0  0
 19 20  1  0  0  0  0
 19 18  1  0  0  0  0
 21 22  1  0  0  0  0
 22 25  1  0  0  0  0
 23 27  1  0  0  0  0
 24 27  1  0  0  0  0
 25 24  1  0  0  0  0
 26 25  1  0  0  0  0
 26 28  1  0  0  0  0
 28 23  1  0  0  0  0
 29 31  1  0  0  0  0
 30 32  2  0  0  0  0
 31 30  2  0  0  0  0
M  END
>  <MODEL>
8

>  <REMARK>
 VINA RESULT:      -6.5      3.250      5.956
  Name = 
  10 active torsions:
  status: ('A' for Active; 'I' for Inactive)
    1  A    between atoms: C_2  and  O_6
    2  A    between atoms: C_3  and  C_22
    3  A    between atoms: O_6  and  C_17
    4  A    between atoms: C_7  and  O_15
    5  A    between atoms: C_12  and  C_17
    6  A    between atoms: C_14  and  C_29
    7  A    between atoms: O_15  and  C_22
    8  A    between atoms: C_16  and  C_22
    9  A    between atoms: C_16  and  C_27
   10  A    between atoms: C_18  and  C_29
                            x       y       z     vdW  Elec       q    Type
                         _______ _______ _______ _____ _____    ______ ____

>  <TORSDO>
F 10

$$$$
=
 OpenBabel10272402043D

 32 34  0  0  1  0  0  0  0  0999 V2000
  189.0050  177.2000  140.5780 C   0  0  1  0  0  3  0  0  0  0  0  0
  187.4350  178.9050  140.9750 C   0  0  1  0  0  3  0  0  0  0  0  0
  190.4980  176.8770  140.6630 C   0  0  0  0  0  2  0  0  0  0  0  0
  188.7040  178.2980  141.5250 C   0  0  1  0  0  3  0  0  0  0  0  0
  187.4930  178.7600  139.5700 O   0  0  0  0  0  0  0  0  0  0  0  0
  188.8350  177.8220  142.9780 C   0  0  2  0  0  3  0  0  0  0  0  0
  190.2080  177.1940  143.1500 C   0  0  0  0  0  3  0  0  0  0  0  0
  187.5450  176.5500  138.7160 C   0  0  0  0  0  1  0  0  0  0  0  0
  188.3820  177.6950  139.2670 C   0  0  2  0  0  0  0  0  0  0  0  0
  190.9360  176.7270  142.1110 C   0  0  0  0  0  3  0  0  0  0  0  0
  189.3860  178.1150  138.1550 C   0  0  2  0  0  3  0  0  0  0  0  0
  188.9820  179.3190  137.5650 O   0  0  0  0  0  1  0  0  0  0  0  0
  189.8580  177.0680  137.0860 C   0  0  2  0  0  0  0  0  0  0  0  0
  191.2560  177.0390  137.0420 O   0  0  0  0  0  1  0  0  0  0  0  0
  189.3300  177.4460  135.6680 C   0  0  1  0  0  3  0  0  0  0  0  0
  190.2460  177.0390  134.5250 C   0  0  0  0  0  1  0  0  0  0  0  0
  188.0720  176.8860  135.4460 O   0  0  0  0  0  1  0  0  0  0  0  0
  189.4330  175.7560  137.4450 O   0  0  0  0  0  0  0  0  0  0  0  0
  190.5290  174.8670  137.4990 C   0  0  0  0  0  2  0  0  0  0  0  0
  190.0720  173.5580  137.3460 O   0  0  0  0  0  1  0  0  0  0  0  0
  186.2930  178.2600  141.4580 O   0  0  0  0  0  0  0  0  0  0  0  0
  185.3730  179.2810  141.6920 C   0  0  0  0  0  2  0  0  0  0  0  0
  182.8990  178.5950  138.2690 C   0  0  0  0  0  2  0  0  0  0  0  0
  184.4760  179.9130  139.5630 O   0  0  0  0  0  0  0  0  0  0  0  0
  184.2080  179.1630  140.7250 C   0  0  1  0  0  3  0  0  0  0  0  0
  183.9430  177.6830  140.3890 C   0  0  0  0  0  2  0  0  0  0  0  0
  183.2640  179.9690  138.8500 C   0  0  0  0  0  2  0  0  0  0  0  0
  183.7340  177.4710  138.8880 C   0  0  0  0  0  2  0  0  0  0  0  0
  187.7670  176.7900  143.3460 C   0  0  0  0  0  2  0  0  0  0  0  0
  186.4080  177.9390  145.0080 C   0  0  0  0  0  0  0  0  0  0  0  0
  187.2570  176.9870  144.7350 C   0  0  0  0  0  3  0  0  0  0  0  0
  185.6090  178.8480  145.2590 O   0  0  0  0  0  0  0  0  0  0  0  0
  1  3  1  6  0  0  0
  1  4  1  0  0  0  0
  2 21  1  1  0  0  0
  2  4  1  0  0  0  0
  3 10  1  0  0  0  0
  4  6  1  0  0  0  0
  5  2  1  0  0  0  0
  6  7  1  0  0  0  0
  6 29  1  0  0  0  0
  8  9  1  0  0  0  0
  9  5  1  0  0  0  0
  9  1  1  0  0  0  0
 10  7  2  0  0  0  0
 11  9  1  0  0  0  0
 12 11  1  0  0  0  0
 13 18  1  0  0  0  0
 13 11  1  0  0  0  0
 14 13  1  0  0  0  0
 15 13  1  0  0  0  0
 16 15  1  0  0  0  0
 17 15  1  0  0  0  0
 18 19  1  0  0  0  0
 20 19  1  0  0  0  0
 21 22  1  0  0  0  0
 23 27  1  0  0  0  0
 23 28  1  0  0  0  0
 24 25  1  0  0  0  0
 25 22  1  0  0  0  0
 26 25  1  0  0  0  0
 27 24  1  0  0  0  0
 28 26  1  0  0  0  0
 29 31  1  0  0  0  0
 30 32  2  0  0  0  0
 31 30  2  0  0  0  0
M  END
>  <MODEL>
9

>  <REMARK>
 VINA RESULT:      -6.4      3.135      5.280
  Name = 
  10 active torsions:
  status: ('A' for Active; 'I' for Inactive)
    1  A    between atoms: C_2  and  O_6
    2  A    between atoms: C_3  and  C_22
    3  A    between atoms: O_6  and  C_17
    4  A    between atoms: C_7  and  O_15
    5  A    between atoms: C_12  and  C_17
    6  A    between atoms: C_14  and  C_29
    7  A    between atoms: O_15  and  C_22
    8  A    between atoms: C_16  and  C_22
    9  A    between atoms: C_16  and  C_27
   10  A    between atoms: C_18  and  C_29
                            x       y       z     vdW  Elec       q    Type
                         _______ _______ _______ _____ _____    ______ ____

>  <TORSDO>
F 10

$$$$
