=
 OpenBabel10272400493D

 25 27  0  0  1  0  0  0  0  0999 V2000
  187.5170  178.2830  141.2050 C   0  0  0  0  0  0  0  0  0  0  0  0
  187.3530  178.7230  138.8150 O   0  0  0  0  0  1  0  0  0  0  0  0
  185.3600  178.7550  140.1790 C   0  0  0  0  0  0  0  0  0  0  0  0
  184.3750  179.1330  138.7770 Cl  0  0  0  0  0  0  0  0  0  0  0  0
  186.8830  178.1520  142.4440 C   0  0  0  0  0  3  0  0  0  0  0  0
  184.7420  178.6210  141.4240 C   0  0  0  0  0  3  0  0  0  0  0  0
  185.5010  178.3190  142.5630 C   0  0  0  0  0  0  0  0  0  0  0  0
  186.7470  178.5870  140.0610 C   0  0  0  0  0  0  0  0  0  0  0  0
  189.0080  178.0830  141.1640 C   0  0  1  0  0  3  0  0  0  0  0  0
  189.9450  177.1770  139.1060 N   0  0  0  0  0  1  0  0  0  0  0  0
  189.5920  177.8560  142.4990 C   0  0  0  0  0  0  0  0  0  0  0  0
  191.2830  177.1850  144.6970 C   0  0  0  0  0  2  0  0  0  0  0  0
  190.2350  176.5230  142.5680 C   0  0  2  0  0  3  0  0  0  0  0  0
  191.5630  176.6120  143.3070 C   0  0  0  0  0  2  0  0  0  0  0  0
  190.6630  178.5930  144.6240 C   0  0  0  0  0  2  0  0  0  0  0  0
  189.4020  176.8210  140.4040 C   0  0  1  0  0  3  0  0  0  0  0  0
  190.4170  176.1000  141.1840 N   0  0  0  0  0  2  0  0  0  0  0  0
  189.7760  178.8130  143.4190 C   0  0  0  0  0  3  0  0  0  0  0  0
  184.8810  178.1720  143.8870 C   0  0  0  0  0  3  0  0  0  0  0  0
  184.6590  179.2030  144.6940 C   0  0  0  0  0  3  0  0  0  0  0  0
  184.0550  178.9930  145.9680 N   0  0  0  0  0  2  0  0  0  0  0  0
  184.7790  178.4080  147.0150 N   0  0  0  0  0  2  0  0  0  0  0  0
  186.0620  179.0900  147.0940 C   0  0  0  0  0  2  0  0  0  0  0  0
  187.1610  178.0980  147.4250 C   0  0  0  0  0  2  0  0  0  0  0  0
  187.6780  177.4450  146.1580 C   0  0  0  0  0  1  0  0  0  0  0  0
  1  5  1  0  0  0  0
  2  8  1  0  0  0  0
  3  6  2  0  0  0  0
  4  3  1  0  0  0  0
  5  7  2  0  0  0  0
  6  7  1  0  0  0  0
  7 19  1  0  0  0  0
  8  3  1  0  0  0  0
  8  1  2  0  0  0  0
  9  1  1  1  0  0  0
  9 11  1  0  0  0  0
 11 13  1  0  0  0  0
 11 18  2  0  0  0  0
 13 14  1  6  0  0  0
 14 12  1  0  0  0  0
 15 12  1  0  0  0  0
 16 10  1  6  0  0  0
 16  9  1  0  0  0  0
 16 17  1  0  0  0  0
 17 13  1  0  0  0  0
 18 15  1  0  0  0  0
 19 20  2  0  0  0  0
 20 21  1  0  0  0  0
 21 22  1  0  0  0  0
 22 23  1  0  0  0  0
 23 24  1  0  0  0  0
 25 24  1  0  0  0  0
M  END
>  <MODEL>
1

>  <REMARK>
 VINA RESULT:      -7.9      0.000      0.000
  Name = 
  6 active torsions:
  status: ('A' for Active; 'I' for Inactive)
    1  A    between atoms: C_1  and  C_3
    2  A    between atoms: C_2  and  C_12
    3  A    between atoms: C_6  and  C_23
    4  A    between atoms: C_12  and  N_25
    5  A    between atoms: C_15  and  N_21
    6  A    between atoms: N_21  and  N_25
                            x       y       z     vdW  Elec       q    Type
                         _______ _______ _______ _____ _____    ______ ____

>  <TORSDO>
F 6

$$$$
=
 OpenBabel10272400493D

 25 27  0  0  1  0  0  0  0  0999 V2000
  186.5570  177.7850  144.3260 C   0  0  0  0  0  0  0  0  0  0  0  0
  185.1050  177.9150  146.2780 O   0  0  0  0  0  1  0  0  0  0  0  0
  184.3210  178.7340  144.1460 C   0  0  0  0  0  0  0  0  0  0  0  0
  182.7840  179.1920  144.8580 Cl  0  0  0  0  0  0  0  0  0  0  0  0
  186.7530  178.0270  142.9620 C   0  0  0  0  0  3  0  0  0  0  0  0
  184.5340  178.9680  142.7860 C   0  0  0  0  0  3  0  0  0  0  0  0
  185.7510  178.6150  142.1870 C   0  0  0  0  0  0  0  0  0  0  0  0
  185.3270  178.1440  144.9230 C   0  0  0  0  0  0  0  0  0  0  0  0
  187.6880  177.1520  145.0890 C   0  0  1  0  0  3  0  0  0  0  0  0
  187.7090  177.4730  147.5030 N   0  0  0  0  0  1  0  0  0  0  0  0
  188.9070  176.9880  144.2740 C   0  0  0  0  0  0  0  0  0  0  0  0
  191.5700  176.5740  143.3400 C   0  0  0  0  0  2  0  0  0  0  0  0
  190.0290  177.7610  144.8530 C   0  0  2  0  0  3  0  0  0  0  0  0
  191.3150  176.9480  144.8010 C   0  0  0  0  0  2  0  0  0  0  0  0
  190.4260  175.7240  142.7570 C   0  0  0  0  0  2  0  0  0  0  0  0
  188.1690  178.0260  146.2430 C   0  0  1  0  0  3  0  0  0  0  0  0
  189.6370  178.0610  146.2250 N   0  0  0  0  0  2  0  0  0  0  0  0
  189.0640  176.0540  143.3250 C   0  0  0  0  0  3  0  0  0  0  0  0
  186.0050  178.8470  140.7590 C   0  0  0  0  0  3  0  0  0  0  0  0
  185.1180  178.5580  139.8150 C   0  0  0  0  0  3  0  0  0  0  0  0
  185.4260  178.8070  138.4460 N   0  0  0  0  0  2  0  0  0  0  0  0
  186.7540  178.7920  137.9980 N   0  0  0  0  0  2  0  0  0  0  0  0
  187.1010  177.4090  137.7090 C   0  0  0  0  0  2  0  0  0  0  0  0
  188.3960  177.0390  138.4080 C   0  0  0  0  0  2  0  0  0  0  0  0
  189.1130  178.2880  138.8820 C   0  0  0  0  0  1  0  0  0  0  0  0
  1  8  1  0  0  0  0
  3  4  1  0  0  0  0
  3  8  2  0  0  0  0
  5  1  2  0  0  0  0
  6  3  1  0  0  0  0
  7  6  2  0  0  0  0
  7  5  1  0  0  0  0
  8  2  1  0  0  0  0
  9  1  1  6  0  0  0
  9 16  1  0  0  0  0
 11 13  1  0  0  0  0
 11  9  1  0  0  0  0
 12 14  1  0  0  0  0
 13 14  1  1  0  0  0
 13 17  1  0  0  0  0
 15 18  1  0  0  0  0
 15 12  1  0  0  0  0
 16 10  1  1  0  0  0
 17 16  1  0  0  0  0
 18 11  2  0  0  0  0
 19  7  1  0  0  0  0
 20 19  2  0  0  0  0
 21 20  1  0  0  0  0
 22 21  1  0  0  0  0
 23 22  1  0  0  0  0
 23 24  1  0  0  0  0
 24 25  1  0  0  0  0
M  END
>  <MODEL>
2

>  <REMARK>
 VINA RESULT:      -7.7      2.888      5.531
  Name = 
  6 active torsions:
  status: ('A' for Active; 'I' for Inactive)
    1  A    between atoms: C_1  and  C_3
    2  A    between atoms: C_2  and  C_12
    3  A    between atoms: C_6  and  C_23
    4  A    between atoms: C_12  and  N_25
    5  A    between atoms: C_15  and  N_21
    6  A    between atoms: N_21  and  N_25
                            x       y       z     vdW  Elec       q    Type
                         _______ _______ _______ _____ _____    ______ ____

>  <TORSDO>
F 6

$$$$
=
 OpenBabel10272400493D

 25 27  0  0  1  0  0  0  0  0999 V2000
  186.9280  178.5380  142.1770 C   0  0  0  0  0  0  0  0  0  0  0  0
  185.5980  179.0730  140.2080 O   0  0  0  0  0  1  0  0  0  0  0  0
  184.4970  178.6150  142.3080 C   0  0  0  0  0  0  0  0  0  0  0  0
  182.9260  178.8620  141.5690 Cl  0  0  0  0  0  0  0  0  0  0  0  0
  186.9760  178.2070  143.5350 C   0  0  0  0  0  3  0  0  0  0  0  0
  184.5640  178.2840  143.6630 C   0  0  0  0  0  3  0  0  0  0  0  0
  185.8040  178.0790  144.2830 C   0  0  0  0  0  0  0  0  0  0  0  0
  185.6750  178.7430  141.5580 C   0  0  0  0  0  0  0  0  0  0  0  0
  188.2370  178.6530  141.4440 C   0  0  1  0  0  3  0  0  0  0  0  0
  188.1490  178.5830  139.0110 N   0  0  0  0  0  1  0  0  0  0  0  0
  189.3820  178.1660  142.2360 C   0  0  0  0  0  0  0  0  0  0  0  0
  191.9240  177.2280  143.1300 C   0  0  0  0  0  2  0  0  0  0  0  0
  190.0360  177.0230  141.5590 C   0  0  2  0  0  3  0  0  0  0  0  0
  191.5510  177.1500  141.6490 C   0  0  0  0  0  2  0  0  0  0  0  0
  191.2850  178.4490  143.8190 C   0  0  0  0  0  2  0  0  0  0  0  0
  188.2850  177.7670  140.2030 C   0  0  1  0  0  3  0  0  0  0  0  0
  189.5730  177.0640  140.1770 N   0  0  0  0  0  2  0  0  0  0  0  0
  189.9320  178.8320  143.2610 C   0  0  0  0  0  3  0  0  0  0  0  0
  185.9070  177.7300  145.7070 C   0  0  0  0  0  3  0  0  0  0  0  0
  186.9360  178.0950  146.4620 C   0  0  0  0  0  3  0  0  0  0  0  0
  186.9780  177.7240  147.8380 N   0  0  0  0  0  2  0  0  0  0  0  0
  188.1680  177.8250  148.5700 N   0  0  0  0  0  2  0  0  0  0  0  0
  189.2560  177.9800  147.6160 C   0  0  0  0  0  2  0  0  0  0  0  0
  189.8120  176.6200  147.2350 C   0  0  0  0  0  2  0  0  0  0  0  0
  191.3280  176.6430  147.2750 C   0  0  0  0  0  1  0  0  0  0  0  0
  1  5  1  0  0  0  0
  2  8  1  0  0  0  0
  3  6  2  0  0  0  0
  4  3  1  0  0  0  0
  5  7  2  0  0  0  0
  6  7  1  0  0  0  0
  7 19  1  0  0  0  0
  8  1  2  0  0  0  0
  8  3  1  0  0  0  0
  9  1  1  1  0  0  0
  9 11  1  0  0  0  0
 11 18  2  0  0  0  0
 12 15  1  0  0  0  0
 13 14  1  6  0  0  0
 13 11  1  0  0  0  0
 14 12  1  0  0  0  0
 16 10  1  6  0  0  0
 16  9  1  0  0  0  0
 17 16  1  0  0  0  0
 17 13  1  0  0  0  0
 18 15  1  0  0  0  0
 19 20  2  0  0  0  0
 20 21  1  0  0  0  0
 21 22  1  0  0  0  0
 23 22  1  0  0  0  0
 24 25  1  0  0  0  0
 24 23  1  0  0  0  0
M  END
>  <MODEL>
3

>  <REMARK>
 VINA RESULT:      -7.3      1.752      2.301
  Name = 
  6 active torsions:
  status: ('A' for Active; 'I' for Inactive)
    1  A    between atoms: C_1  and  C_3
    2  A    between atoms: C_2  and  C_12
    3  A    between atoms: C_6  and  C_23
    4  A    between atoms: C_12  and  N_25
    5  A    between atoms: C_15  and  N_21
    6  A    between atoms: N_21  and  N_25
                            x       y       z     vdW  Elec       q    Type
                         _______ _______ _______ _____ _____    ______ ____

>  <TORSDO>
F 6

$$$$
=
 OpenBabel10272400493D

 25 27  0  0  1  0  0  0  0  0999 V2000
  187.7380  177.4830  144.5070 C   0  0  0  0  0  0  0  0  0  0  0  0
  187.7320  177.3250  146.9380 O   0  0  0  0  0  1  0  0  0  0  0  0
  185.7580  178.1030  145.7830 C   0  0  0  0  0  0  0  0  0  0  0  0
  184.9130  178.3040  147.3070 Cl  0  0  0  0  0  0  0  0  0  0  0  0
  187.0590  177.8020  143.3260 C   0  0  0  0  0  3  0  0  0  0  0  0
  185.0950  178.4170  144.5940 C   0  0  0  0  0  3  0  0  0  0  0  0
  185.7430  178.2680  143.3600 C   0  0  0  0  0  0  0  0  0  0  0  0
  187.0800  177.6350  145.7480 C   0  0  0  0  0  0  0  0  0  0  0  0
  189.1550  176.9920  144.3820 C   0  0  1  0  0  3  0  0  0  0  0  0
  190.4890  176.9400  146.4190 N   0  0  0  0  0  1  0  0  0  0  0  0
  189.7200  177.2120  143.0380 C   0  0  0  0  0  0  0  0  0  0  0  0
  191.4350  177.5110  140.7770 C   0  0  0  0  0  2  0  0  0  0  0  0
  190.8990  178.1060  143.1070 C   0  0  2  0  0  3  0  0  0  0  0  0
  192.0050  177.5970  142.1930 C   0  0  0  0  0  2  0  0  0  0  0  0
  190.2420  176.5390  140.6960 C   0  0  0  0  0  2  0  0  0  0  0  0
  190.1160  177.7610  145.2820 C   0  0  1  0  0  3  0  0  0  0  0  0
  191.3130  178.1060  144.5050 N   0  0  0  0  0  2  0  0  0  0  0  0
  189.4060  176.4870  141.9550 C   0  0  0  0  0  3  0  0  0  0  0  0
  185.0730  178.5890  142.0930 C   0  0  0  0  0  3  0  0  0  0  0  0
  185.7190  179.0910  141.0470 C   0  0  0  0  0  3  0  0  0  0  0  0
  185.0110  179.3820  139.8440 N   0  0  0  0  0  2  0  0  0  0  0  0
  185.4620  178.8900  138.6120 N   0  0  0  0  0  2  0  0  0  0  0  0
  184.5600  177.8200  138.2130 C   0  0  0  0  0  2  0  0  0  0  0  0
  183.2050  178.0080  138.8690 C   0  0  0  0  0  2  0  0  0  0  0  0
  182.7860  176.7370  139.5810 C   0  0  0  0  0  1  0  0  0  0  0  0
  1  8  1  0  0  0  0
  3  4  1  0  0  0  0
  5  7  1  0  0  0  0
  5  1  2  0  0  0  0
  6  3  1  0  0  0  0
  7  6  2  0  0  0  0
  8  3  2  0  0  0  0
  8  2  1  0  0  0  0
  9  1  1  6  0  0  0
  9 16  1  0  0  0  0
 11 13  1  0  0  0  0
 11  9  1  0  0  0  0
 12 14  1  0  0  0  0
 13 14  1  6  0  0  0
 13 17  1  0  0  0  0
 15 12  1  0  0  0  0
 15 18  1  0  0  0  0
 16 10  1  1  0  0  0
 17 16  1  0  0  0  0
 18 11  2  0  0  0  0
 19  7  1  0  0  0  0
 20 19  2  0  0  0  0
 21 20  1  0  0  0  0
 22 21  1  0  0  0  0
 23 22  1  0  0  0  0
 23 24  1  0  0  0  0
 24 25  1  0  0  0  0
M  END
>  <MODEL>
4

>  <REMARK>
 VINA RESULT:      -7.2      3.401      5.490
  Name = 
  6 active torsions:
  status: ('A' for Active; 'I' for Inactive)
    1  A    between atoms: C_1  and  C_3
    2  A    between atoms: C_2  and  C_12
    3  A    between atoms: C_6  and  C_23
    4  A    between atoms: C_12  and  N_25
    5  A    between atoms: C_15  and  N_21
    6  A    between atoms: N_21  and  N_25
                            x       y       z     vdW  Elec       q    Type
                         _______ _______ _______ _____ _____    ______ ____

>  <TORSDO>
F 6

$$$$
=
 OpenBabel10272400493D

 25 27  0  0  1  0  0  0  0  0999 V2000
  187.7020  177.4770  144.6040 C   0  0  0  0  0  0  0  0  0  0  0  0
  187.7130  177.3930  147.0390 O   0  0  0  0  0  1  0  0  0  0  0  0
  185.7320  178.1390  145.8750 C   0  0  0  0  0  0  0  0  0  0  0  0
  184.8990  178.3880  147.3980 Cl  0  0  0  0  0  0  0  0  0  0  0  0
  187.0160  177.7620  143.4200 C   0  0  0  0  0  3  0  0  0  0  0  0
  185.0620  178.4180  144.6820 C   0  0  0  0  0  3  0  0  0  0  0  0
  185.7000  178.2310  143.4490 C   0  0  0  0  0  0  0  0  0  0  0  0
  187.0530  177.6680  145.8450 C   0  0  0  0  0  0  0  0  0  0  0  0
  189.1170  176.9800  144.4850 C   0  0  1  0  0  3  0  0  0  0  0  0
  190.4410  176.9130  146.5280 N   0  0  0  0  0  1  0  0  0  0  0  0
  189.6910  177.2030  143.1440 C   0  0  0  0  0  0  0  0  0  0  0  0
  191.4180  177.5040  140.8940 C   0  0  0  0  0  2  0  0  0  0  0  0
  190.8730  178.0910  143.2240 C   0  0  2  0  0  3  0  0  0  0  0  0
  191.9820  177.5810  142.3130 C   0  0  0  0  0  2  0  0  0  0  0  0
  190.2220  176.5380  140.8030 C   0  0  0  0  0  2  0  0  0  0  0  0
  190.0770  177.7410  145.3930 C   0  0  1  0  0  3  0  0  0  0  0  0
  191.2800  178.0830  144.6240 N   0  0  0  0  0  2  0  0  0  0  0  0
  189.3790  176.4840  142.0570 C   0  0  0  0  0  3  0  0  0  0  0  0
  185.0220  178.5150  142.1760 C   0  0  0  0  0  3  0  0  0  0  0  0
  185.6110  179.1630  141.1790 C   0  0  0  0  0  3  0  0  0  0  0  0
  184.8980  179.4090  139.9690 N   0  0  0  0  0  2  0  0  0  0  0  0
  184.6600  178.3720  139.0570 N   0  0  0  0  0  2  0  0  0  0  0  0
  185.5090  178.6070  137.8980 C   0  0  0  0  0  2  0  0  0  0  0  0
  186.5820  177.5380  137.8130 C   0  0  0  0  0  2  0  0  0  0  0  0
  187.8730  178.0380  138.4330 C   0  0  0  0  0  1  0  0  0  0  0  0
  1  8  1  0  0  0  0
  3  4  1  0  0  0  0
  5  7  1  0  0  0  0
  5  1  2  0  0  0  0
  6  3  1  0  0  0  0
  7  6  2  0  0  0  0
  8  3  2  0  0  0  0
  8  2  1  0  0  0  0
  9  1  1  6  0  0  0
  9 16  1  0  0  0  0
 11 13  1  0  0  0  0
 11  9  1  0  0  0  0
 12 14  1  0  0  0  0
 13 14  1  6  0  0  0
 13 17  1  0  0  0  0
 15 12  1  0  0  0  0
 15 18  1  0  0  0  0
 16 10  1  1  0  0  0
 17 16  1  0  0  0  0
 18 11  2  0  0  0  0
 19  7  1  0  0  0  0
 20 19  2  0  0  0  0
 21 20  1  0  0  0  0
 22 21  1  0  0  0  0
 23 22  1  0  0  0  0
 24 23  1  0  0  0  0
 24 25  1  0  0  0  0
M  END
>  <MODEL>
5

>  <REMARK>
 VINA RESULT:      -7.0      3.430      5.475
  Name = 
  6 active torsions:
  status: ('A' for Active; 'I' for Inactive)
    1  A    between atoms: C_1  and  C_3
    2  A    between atoms: C_2  and  C_12
    3  A    between atoms: C_6  and  C_23
    4  A    between atoms: C_12  and  N_25
    5  A    between atoms: C_15  and  N_21
    6  A    between atoms: N_21  and  N_25
                            x       y       z     vdW  Elec       q    Type
                         _______ _______ _______ _____ _____    ______ ____

>  <TORSDO>
F 6

$$$$
=
 OpenBabel10272400493D

 25 27  0  0  1  0  0  0  0  0999 V2000
  184.9100  178.5140  143.3550 C   0  0  0  0  0  0  0  0  0  0  0  0
  183.6670  179.5860  145.1560 O   0  0  0  0  0  1  0  0  0  0  0  0
  185.6560  178.3130  145.6650 C   0  0  0  0  0  0  0  0  0  0  0  0
  185.4710  178.6580  147.3750 Cl  0  0  0  0  0  0  0  0  0  0  0  0
  185.9950  177.7300  142.9520 C   0  0  0  0  0  3  0  0  0  0  0  0
  186.7340  177.5310  145.2450 C   0  0  0  0  0  3  0  0  0  0  0  0
  186.9090  177.2360  143.8860 C   0  0  0  0  0  0  0  0  0  0  0  0
  184.7390  178.8080  144.7270 C   0  0  0  0  0  0  0  0  0  0  0  0
  183.9700  179.0020  142.2860 C   0  0  1  0  0  3  0  0  0  0  0  0
  181.7150  179.5990  142.9860 N   0  0  0  0  0  1  0  0  0  0  0  0
  184.3000  178.4730  140.9500 C   0  0  0  0  0  0  0  0  0  0  0  0
  184.2730  177.6750  138.2110 C   0  0  0  0  0  2  0  0  0  0  0  0
  183.1810  177.6610  140.4190 C   0  0  2  0  0  3  0  0  0  0  0  0
  182.9610  177.9610  138.9430 C   0  0  0  0  0  2  0  0  0  0  0  0
  185.4240  178.5590  138.7280 C   0  0  0  0  0  2  0  0  0  0  0  0
  182.5430  178.5100  142.5010 C   0  0  1  0  0  3  0  0  0  0  0  0
  182.0170  178.0210  141.2200 N   0  0  0  0  0  2  0  0  0  0  0  0
  185.3260  178.8970  140.1990 C   0  0  0  0  0  3  0  0  0  0  0  0
  188.0330  176.4170  143.4120 C   0  0  0  0  0  3  0  0  0  0  0  0
  189.2310  176.9250  143.1490 C   0  0  0  0  0  3  0  0  0  0  0  0
  190.2800  176.0770  142.6910 N   0  0  0  0  0  2  0  0  0  0  0  0
  191.3720  175.7790  143.5170 N   0  0  0  0  0  2  0  0  0  0  0  0
  191.5710  176.9160  144.4040 C   0  0  0  0  0  2  0  0  0  0  0  0
  191.6710  176.4440  145.8420 C   0  0  0  0  0  2  0  0  0  0  0  0
  190.4740  176.9290  146.6380 C   0  0  0  0  0  1  0  0  0  0  0  0
  1  8  1  0  0  0  0
  3  4  1  0  0  0  0
  5  1  2  0  0  0  0
  5  7  1  0  0  0  0
  6  3  1  0  0  0  0
  7  6  2  0  0  0  0
  8  2  1  0  0  0  0
  8  3  2  0  0  0  0
  9 16  1  0  0  0  0
  9  1  1  1  0  0  0
 11  9  1  0  0  0  0
 12 15  1  0  0  0  0
 12 14  1  0  0  0  0
 13 14  1  6  0  0  0
 13 11  1  0  0  0  0
 13 17  1  0  0  0  0
 15 18  1  0  0  0  0
 16 10  1  6  0  0  0
 17 16  1  0  0  0  0
 18 11  2  0  0  0  0
 19  7  1  0  0  0  0
 20 19  2  0  0  0  0
 21 20  1  0  0  0  0
 21 22  1  0  0  0  0
 22 23  1  0  0  0  0
 23 24  1  0  0  0  0
 24 25  1  0  0  0  0
M  END
>  <MODEL>
6

>  <REMARK>
 VINA RESULT:      -7.0      3.058      6.548
  Name = 
  6 active torsions:
  status: ('A' for Active; 'I' for Inactive)
    1  A    between atoms: C_1  and  C_3
    2  A    between atoms: C_2  and  C_12
    3  A    between atoms: C_6  and  C_23
    4  A    between atoms: C_12  and  N_25
    5  A    between atoms: C_15  and  N_21
    6  A    between atoms: N_21  and  N_25
                            x       y       z     vdW  Elec       q    Type
                         _______ _______ _______ _____ _____    ______ ____

>  <TORSDO>
F 6

$$$$
=
 OpenBabel10272400493D

 25 27  0  0  1  0  0  0  0  0999 V2000
  186.5570  177.7720  144.3940 C   0  0  0  0  0  0  0  0  0  0  0  0
  185.1290  177.9020  146.3630 O   0  0  0  0  0  1  0  0  0  0  0  0
  184.3180  178.7190  144.2400 C   0  0  0  0  0  0  0  0  0  0  0  0
  182.7890  179.1750  144.9690 Cl  0  0  0  0  0  0  0  0  0  0  0  0
  186.7370  178.0120  143.0280 C   0  0  0  0  0  3  0  0  0  0  0  0
  184.5150  178.9510  142.8770 C   0  0  0  0  0  3  0  0  0  0  0  0
  185.7250  178.5990  142.2640 C   0  0  0  0  0  0  0  0  0  0  0  0
  185.3340  178.1300  145.0060 C   0  0  0  0  0  0  0  0  0  0  0  0
  187.6980  177.1400  145.1440 C   0  0  1  0  0  3  0  0  0  0  0  0
  187.7440  177.4590  147.5580 N   0  0  0  0  0  1  0  0  0  0  0  0
  188.9080  176.9800  144.3160 C   0  0  0  0  0  0  0  0  0  0  0  0
  191.5630  176.5740  143.3540 C   0  0  0  0  0  2  0  0  0  0  0  0
  190.0350  177.7550  144.8840 C   0  0  2  0  0  3  0  0  0  0  0  0
  191.3230  176.9450  144.8180 C   0  0  0  0  0  2  0  0  0  0  0  0
  190.4140  175.7220  142.7810 C   0  0  0  0  0  2  0  0  0  0  0  0
  188.1900  178.0140  146.2940 C   0  0  1  0  0  3  0  0  0  0  0  0
  189.6570  178.0530  146.2600 N   0  0  0  0  0  2  0  0  0  0  0  0
  189.0580  176.0480  143.3650 C   0  0  0  0  0  3  0  0  0  0  0  0
  185.9630  178.8300  140.8330 C   0  0  0  0  0  3  0  0  0  0  0  0
  184.9890  178.8090  139.9310 C   0  0  0  0  0  3  0  0  0  0  0  0
  185.2850  179.0410  138.5560 N   0  0  0  0  0  2  0  0  0  0  0  0
  185.5110  177.9680  137.6840 N   0  0  0  0  0  2  0  0  0  0  0  0
  184.3360  177.1100  137.7320 C   0  0  0  0  0  2  0  0  0  0  0  0
  183.9530  176.6700  136.3310 C   0  0  0  0  0  2  0  0  0  0  0  0
  185.0310  177.0690  135.3420 C   0  0  0  0  0  1  0  0  0  0  0  0
  1  8  1  0  0  0  0
  3  4  1  0  0  0  0
  3  8  2  0  0  0  0
  5  1  2  0  0  0  0
  6  3  1  0  0  0  0
  7  6  2  0  0  0  0
  7  5  1  0  0  0  0
  8  2  1  0  0  0  0
  9  1  1  6  0  0  0
  9 16  1  0  0  0  0
 11 13  1  0  0  0  0
 11  9  1  0  0  0  0
 12 14  1  0  0  0  0
 13 14  1  1  0  0  0
 13 17  1  0  0  0  0
 15 12  1  0  0  0  0
 15 18  1  0  0  0  0
 16 10  1  1  0  0  0
 17 16  1  0  0  0  0
 18 11  2  0  0  0  0
 19  7  1  0  0  0  0
 20 19  2  0  0  0  0
 21 20  1  0  0  0  0
 22 23  1  0  0  0  0
 22 21  1  0  0  0  0
 24 23  1  0  0  0  0
 25 24  1  0  0  0  0
M  END
>  <MODEL>
7

>  <REMARK>
 VINA RESULT:      -7.0      3.235      5.976
  Name = 
  6 active torsions:
  status: ('A' for Active; 'I' for Inactive)
    1  A    between atoms: C_1  and  C_3
    2  A    between atoms: C_2  and  C_12
    3  A    between atoms: C_6  and  C_23
    4  A    between atoms: C_12  and  N_25
    5  A    between atoms: C_15  and  N_21
    6  A    between atoms: N_21  and  N_25
                            x       y       z     vdW  Elec       q    Type
                         _______ _______ _______ _____ _____    ______ ____

>  <TORSDO>
F 6

$$$$
=
 OpenBabel10272400493D

 25 27  0  0  1  0  0  0  0  0999 V2000
  185.1120  178.2900  142.3340 C   0  0  0  0  0  0  0  0  0  0  0  0
  182.8360  178.4540  141.4820 O   0  0  0  0  0  1  0  0  0  0  0  0
  184.7020  178.6810  139.9650 C   0  0  0  0  0  0  0  0  0  0  0  0
  183.6090  178.9150  138.6130 Cl  0  0  0  0  0  0  0  0  0  0  0  0
  186.4880  178.3150  142.0850 C   0  0  0  0  0  3  0  0  0  0  0  0
  186.0790  178.7030  139.7350 C   0  0  0  0  0  3  0  0  0  0  0  0
  186.9790  178.5200  140.7940 C   0  0  0  0  0  0  0  0  0  0  0  0
  184.2100  178.4750  141.2620 C   0  0  0  0  0  0  0  0  0  0  0  0
  184.6670  178.0670  143.7540 C   0  0  1  0  0  3  0  0  0  0  0  0
  182.3740  178.6790  144.3020 N   0  0  0  0  0  1  0  0  0  0  0  0
  185.7820  178.1210  144.7180 C   0  0  0  0  0  0  0  0  0  0  0  0
  187.4050  178.2920  147.0590 C   0  0  0  0  0  2  0  0  0  0  0  0
  185.5800  179.2220  145.6880 C   0  0  2  0  0  3  0  0  0  0  0  0
  185.9510  178.7660  147.0930 C   0  0  0  0  0  2  0  0  0  0  0  0
  187.6010  177.1120  146.0890 C   0  0  0  0  0  2  0  0  0  0  0  0
  183.7390  179.1710  144.2500 C   0  0  1  0  0  3  0  0  0  0  0  0
  184.1700  179.5790  145.5930 N   0  0  0  0  0  2  0  0  0  0  0  0
  186.6900  177.1490  144.8820 C   0  0  0  0  0  3  0  0  0  0  0  0
  188.4330  178.5380  140.5840 C   0  0  0  0  0  3  0  0  0  0  0  0
  189.2290  177.5580  140.9930 C   0  0  0  0  0  3  0  0  0  0  0  0
  190.6330  177.6360  140.7600 N   0  0  0  0  0  2  0  0  0  0  0  0
  191.5410  177.0870  141.6750 N   0  0  0  0  0  2  0  0  0  0  0  0
  191.2610  177.6770  142.9750 C   0  0  0  0  0  2  0  0  0  0  0  0
  191.2720  176.6050  144.0490 C   0  0  0  0  0  2  0  0  0  0  0  0
  191.2890  177.2390  145.4260 C   0  0  0  0  0  1  0  0  0  0  0  0
  3  8  1  0  0  0  0
  4  3  1  0  0  0  0
  5  1  1  0  0  0  0
  6  3  2  0  0  0  0
  6  7  1  0  0  0  0
  7  5  2  0  0  0  0
  8  2  1  0  0  0  0
  8  1  2  0  0  0  0
  9  1  1  6  0  0  0
  9 16  1  0  0  0  0
  9 11  1  0  0  0  0
 11 18  2  0  0  0  0
 11 13  1  0  0  0  0
 12 14  1  0  0  0  0
 13 14  1  1  0  0  0
 15 12  1  0  0  0  0
 16 10  1  1  0  0  0
 16 17  1  0  0  0  0
 17 13  1  0  0  0  0
 18 15  1  0  0  0  0
 19  7  1  0  0  0  0
 19 20  2  0  0  0  0
 21 20  1  0  0  0  0
 21 22  1  0  0  0  0
 22 23  1  0  0  0  0
 23 24  1  0  0  0  0
 24 25  1  0  0  0  0
M  END
>  <MODEL>
8

>  <REMARK>
 VINA RESULT:      -7.0      1.503      5.466
  Name = 
  6 active torsions:
  status: ('A' for Active; 'I' for Inactive)
    1  A    between atoms: C_1  and  C_3
    2  A    between atoms: C_2  and  C_12
    3  A    between atoms: C_6  and  C_23
    4  A    between atoms: C_12  and  N_25
    5  A    between atoms: C_15  and  N_21
    6  A    between atoms: N_21  and  N_25
                            x       y       z     vdW  Elec       q    Type
                         _______ _______ _______ _____ _____    ______ ____

>  <TORSDO>
F 6

$$$$
=
 OpenBabel10272400493D

 25 27  0  0  1  0  0  0  0  0999 V2000
  188.7530  177.2740  145.4440 C   0  0  0  0  0  0  0  0  0  0  0  0
  190.0070  176.9840  147.5130 O   0  0  0  0  0  1  0  0  0  0  0  0
  187.7700  177.8920  147.5850 C   0  0  0  0  0  0  0  0  0  0  0  0
  187.8570  178.0380  149.3310 Cl  0  0  0  0  0  0  0  0  0  0  0  0
  187.5790  177.6810  144.8030 C   0  0  0  0  0  3  0  0  0  0  0  0
  186.6040  178.2930  146.9290 C   0  0  0  0  0  3  0  0  0  0  0  0
  186.5030  178.1900  145.5350 C   0  0  0  0  0  0  0  0  0  0  0  0
  188.8490  177.3810  146.8500 C   0  0  0  0  0  0  0  0  0  0  0  0
  189.8660  176.7420  144.5820 C   0  0  1  0  0  3  0  0  0  0  0  0
  191.9790  176.2470  145.6870 N   0  0  0  0  0  1  0  0  0  0  0  0
  189.7590  177.1770  143.1760 C   0  0  0  0  0  0  0  0  0  0  0  0
  190.2360  177.8000  140.4330 C   0  0  0  0  0  2  0  0  0  0  0  0
  190.9410  177.9810  142.7870 C   0  0  2  0  0  3  0  0  0  0  0  0
  191.4090  177.5930  141.3920 C   0  0  0  0  0  2  0  0  0  0  0  0
  189.0260  176.9220  140.8090 C   0  0  0  0  0  2  0  0  0  0  0  0
  191.2300  177.2820  144.9980 C   0  0  1  0  0  3  0  0  0  0  0  0
  191.9580  177.7010  143.7940 N   0  0  0  0  0  2  0  0  0  0  0  0
  188.8800  176.6810  142.2950 C   0  0  0  0  0  3  0  0  0  0  0  0
  185.2900  178.6030  144.8150 C   0  0  0  0  0  3  0  0  0  0  0  0
  185.1290  178.4120  143.5110 C   0  0  0  0  0  3  0  0  0  0  0  0
  183.9290  178.8370  142.8720 N   0  0  0  0  0  2  0  0  0  0  0  0
  183.6570  178.4720  141.5460 N   0  0  0  0  0  2  0  0  0  0  0  0
  184.8230  178.8190  140.7490 C   0  0  0  0  0  2  0  0  0  0  0  0
  184.4850  178.7490  139.2720 C   0  0  0  0  0  2  0  0  0  0  0  0
  183.5850  179.9060  138.8830 C   0  0  0  0  0  1  0  0  0  0  0  0
  1  8  1  0  0  0  0
  3  4  1  0  0  0  0
  5  1  2  0  0  0  0
  5  7  1  0  0  0  0
  6  3  1  0  0  0  0
  7  6  2  0  0  0  0
  8  2  1  0  0  0  0
  8  3  2  0  0  0  0
  9 16  1  0  0  0  0
  9  1  1  1  0  0  0
 11  9  1  0  0  0  0
 12 15  1  0  0  0  0
 12 14  1  0  0  0  0
 13 14  1  6  0  0  0
 13 11  1  0  0  0  0
 13 17  1  0  0  0  0
 15 18  1  0  0  0  0
 16 10  1  6  0  0  0
 17 16  1  0  0  0  0
 18 11  2  0  0  0  0
 19  7  1  0  0  0  0
 20 19  2  0  0  0  0
 21 20  1  0  0  0  0
 22 21  1  0  0  0  0
 23 22  1  0  0  0  0
 24 23  1  0  0  0  0
 25 24  1  0  0  0  0
M  END
>  <MODEL>
9

>  <REMARK>
 VINA RESULT:      -6.9      3.500      5.599
  Name = 
  6 active torsions:
  status: ('A' for Active; 'I' for Inactive)
    1  A    between atoms: C_1  and  C_3
    2  A    between atoms: C_2  and  C_12
    3  A    between atoms: C_6  and  C_23
    4  A    between atoms: C_12  and  N_25
    5  A    between atoms: C_15  and  N_21
    6  A    between atoms: N_21  and  N_25
                            x       y       z     vdW  Elec       q    Type
                         _______ _______ _______ _____ _____    ______ ____

>  <TORSDO>
F 6

$$$$
