=
 OpenBabel10272401073D

 27 31  0  0  0  0  0  0  0  0999 V2000
  187.4940  178.5990  141.3000 N   0  0  0  0  0  0  0  0  0  0  0  0
  187.7550  177.7730  143.5970 C   0  0  0  0  0  0  0  0  0  0  0  0
  189.6160  176.7510  142.2490 N   0  0  0  0  0  0  0  0  0  0  0  0
  189.9790  177.0540  147.0230 C   0  0  0  0  0  3  0  0  0  0  0  0
  192.0780  176.4310  148.1710 O   0  0  0  0  0  1  0  0  0  0  0  0
  187.2490  177.9340  144.9010 C   0  0  0  0  0  3  0  0  0  0  0  0
  191.2560  176.4850  144.5080 C   0  0  0  0  0  2  0  0  0  0  0  0
  190.5920  177.2730  138.9150 N   0  0  0  0  0  0  0  0  0  0  0  0
  191.9740  176.3430  145.8220 C   0  0  0  0  0  3  0  0  0  0  0  0
  191.1890  176.4640  137.8690 C   0  0  0  0  0  1  0  0  0  0  0  0
  189.8490  177.0400  144.6350 C   0  0  0  0  0  0  0  0  0  0  0  0
  186.9630  178.1430  142.5530 C   0  0  0  0  0  0  0  0  0  0  0  0
  191.3760  176.5950  146.9850 C   0  0  0  0  0  0  0  0  0  0  0  0
  189.2800  177.2630  145.9040 C   0  0  0  0  0  0  0  0  0  0  0  0
  188.5280  178.2140  140.6290 C   0  0  0  0  0  0  0  0  0  0  0  0
  189.0840  177.2770  143.4730 C   0  0  0  0  0  0  0  0  0  0  0  0
  190.1080  176.3470  139.9370 C   0  0  0  0  0  2  0  0  0  0  0  0
  187.9990  177.6840  146.0000 N   0  0  0  0  0  0  0  0  0  0  0  0
  189.4370  177.9420  138.3200 C   0  0  0  0  0  2  0  0  0  0  0  0
  188.8220  178.9080  139.3310 C   0  0  0  0  0  2  0  0  0  0  0  0
  189.3870  177.0880  141.0230 C   0  0  0  0  0  0  0  0  0  0  0  0
  182.7630  178.7580  143.0490 C   0  0  0  0  0  3  0  0  0  0  0  0
  185.5070  178.3960  142.7390 C   0  0  0  0  0  0  0  0  0  0  0  0
  184.9740  178.7020  144.0000 C   0  0  0  0  0  3  0  0  0  0  0  0
  183.6010  178.8910  144.1580 C   0  0  0  0  0  3  0  0  0  0  0  0
  183.2860  178.4430  141.8340 N   0  0  0  0  0  0  0  0  0  0  0  0
  184.6220  178.2560  141.6600 C   0  0  0  0  0  3  0  0  0  0  0  0
  1 12  1  0  0  0  0
  2  6  1  0  0  0  0
  3 16  1  0  0  0  0
  6 18  2  0  0  0  0
  7 11  1  0  0  0  0
  7  9  1  0  0  0  0
  8 17  1  0  0  0  0
  9 13  2  0  0  0  0
 10  8  1  0  0  0  0
 11 14  1  0  0  0  0
 12 23  1  0  0  0  0
 12  2  2  0  0  0  0
 13  4  1  0  0  0  0
 13  5  1  0  0  0  0
 14 18  1  0  0  0  0
 14  4  2  0  0  0  0
 15 21  1  0  0  0  0
 15  1  2  0  0  0  0
 16  2  1  0  0  0  0
 16 11  2  0  0  0  0
 17 21  1  0  0  0  0
 19  8  1  0  0  0  0
 19 20  1  0  0  0  0
 20 15  1  0  0  0  0
 21  3  2  0  0  0  0
 22 25  1  0  0  0  0
 23 24  1  0  0  0  0
 24 25  2  0  0  0  0
 26 22  2  0  0  0  0
 27 26  1  0  0  0  0
 27 23  2  0  0  0  0
M  END
>  <MODEL>
1

>  <REMARK>
 VINA RESULT:     -10.3      0.000      0.000
  Name = 
  1 active torsions:
  status: ('A' for Active; 'I' for Inactive)
    1  A    between atoms: C_9  and  C_15
                            x       y       z     vdW  Elec       q    Type
                         _______ _______ _______ _____ _____    ______ ____

>  <TORSDO>
F 1

$$$$
=
 OpenBabel10272401073D

 27 31  0  0  0  0  0  0  0  0999 V2000
  186.9190  178.7310  140.1600 N   0  0  0  0  0  0  0  0  0  0  0  0
  186.1500  178.1830  142.4270 C   0  0  0  0  0  0  0  0  0  0  0  0
  188.4220  177.1370  142.1660 N   0  0  0  0  0  0  0  0  0  0  0  0
  186.6460  177.9910  146.5400 C   0  0  0  0  0  3  0  0  0  0  0  0
  188.0300  177.6330  148.5560 O   0  0  0  0  0  1  0  0  0  0  0  0
  185.1200  178.4560  143.3490 C   0  0  0  0  0  3  0  0  0  0  0  0
  188.9030  177.2280  144.9270 C   0  0  0  0  0  2  0  0  0  0  0  0
  190.7610  177.3460  139.5530 N   0  0  0  0  0  0  0  0  0  0  0  0
  188.9710  177.2780  146.4290 C   0  0  0  0  0  3  0  0  0  0  0  0
  191.7630  176.4650  138.9850 C   0  0  0  0  0  1  0  0  0  0  0  0
  187.5790  177.7030  144.3580 C   0  0  0  0  0  0  0  0  0  0  0  0
  185.8950  178.3840  141.1040 C   0  0  0  0  0  0  0  0  0  0  0  0
  187.9200  177.6200  147.1730 C   0  0  0  0  0  0  0  0  0  0  0  0
  186.5090  178.0300  145.2120 C   0  0  0  0  0  0  0  0  0  0  0  0
  188.1470  178.3390  140.0620 C   0  0  0  0  0  0  0  0  0  0  0  0
  187.4010  177.7620  142.9590 C   0  0  0  0  0  0  0  0  0  0  0  0
  189.8840  176.5110  140.3720 C   0  0  0  0  0  2  0  0  0  0  0  0
  185.3130  178.3770  144.6870 N   0  0  0  0  0  0  0  0  0  0  0  0
  189.9800  177.8710  138.4350 C   0  0  0  0  0  2  0  0  0  0  0  0
  188.9750  178.9020  138.9450 C   0  0  0  0  0  2  0  0  0  0  0  0
  188.7530  177.3210  140.9310 C   0  0  0  0  0  0  0  0  0  0  0  0
  181.9420  178.8780  139.5580 C   0  0  0  0  0  3  0  0  0  0  0  0
  184.5030  178.5640  140.6040 C   0  0  0  0  0  0  0  0  0  0  0  0
  183.4590  177.7320  141.0340 C   0  0  0  0  0  3  0  0  0  0  0  0
  182.1740  177.8910  140.5170 C   0  0  0  0  0  3  0  0  0  0  0  0
  182.9640  179.6680  139.1340 N   0  0  0  0  0  0  0  0  0  0  0  0
  184.2240  179.5290  139.6260 C   0  0  0  0  0  3  0  0  0  0  0  0
  1 12  1  0  0  0  0
  2 16  1  0  0  0  0
  2  6  1  0  0  0  0
  3 16  1  0  0  0  0
  4 13  1  0  0  0  0
  6 18  2  0  0  0  0
  7  9  1  0  0  0  0
  8 17  1  0  0  0  0
  9 13  2  0  0  0  0
 10  8  1  0  0  0  0
 11  7  1  0  0  0  0
 11 14  1  0  0  0  0
 12  2  2  0  0  0  0
 13  5  1  0  0  0  0
 14  4  2  0  0  0  0
 15  1  2  0  0  0  0
 15 21  1  0  0  0  0
 16 11  2  0  0  0  0
 17 21  1  0  0  0  0
 18 14  1  0  0  0  0
 19 20  1  0  0  0  0
 19  8  1  0  0  0  0
 20 15  1  0  0  0  0
 21  3  2  0  0  0  0
 22 25  1  0  0  0  0
 23 24  1  0  0  0  0
 23 12  1  0  0  0  0
 25 24  2  0  0  0  0
 26 22  2  0  0  0  0
 26 27  1  0  0  0  0
 27 23  2  0  0  0  0
M  END
>  <MODEL>
2

>  <REMARK>
 VINA RESULT:     -10.2      1.769      2.510
  Name = 
  1 active torsions:
  status: ('A' for Active; 'I' for Inactive)
    1  A    between atoms: C_9  and  C_15
                            x       y       z     vdW  Elec       q    Type
                         _______ _______ _______ _____ _____    ______ ____

>  <TORSDO>
F 1

$$$$
=
 OpenBabel10272401073D

 27 31  0  0  0  0  0  0  0  0999 V2000
  188.4530  177.0090  143.9580 N   0  0  0  0  0  0  0  0  0  0  0  0
  186.3320  178.0740  144.5900 C   0  0  0  0  0  0  0  0  0  0  0  0
  186.6430  178.4950  142.1300 N   0  0  0  0  0  0  0  0  0  0  0  0
  182.2770  178.7880  144.0960 C   0  0  0  0  0  3  0  0  0  0  0  0
  180.2760  179.1190  142.6830 O   0  0  0  0  0  1  0  0  0  0  0  0
  185.4290  178.2030  145.6630 C   0  0  0  0  0  3  0  0  0  0  0  0
  183.8810  178.7280  141.7090 C   0  0  0  0  0  2  0  0  0  0  0  0
  189.0840  177.3250  139.8900 N   0  0  0  0  0  0  0  0  0  0  0  0
  182.3870  178.9000  141.6670 C   0  0  0  0  0  3  0  0  0  0  0  0
  189.7320  177.8410  138.6990 C   0  0  0  0  0  1  0  0  0  0  0  0
  184.4320  178.4980  143.1030 C   0  0  0  0  0  0  0  0  0  0  0  0
  187.6200  177.7340  144.8750 C   0  0  0  0  0  0  0  0  0  0  0  0
  181.6490  178.9400  142.7750 C   0  0  0  0  0  0  0  0  0  0  0  0
  183.5890  178.5740  144.2280 C   0  0  0  0  0  0  0  0  0  0  0  0
  188.5520  177.0760  142.6710 C   0  0  0  0  0  0  0  0  0  0  0  0
  185.8130  178.2640  143.2780 C   0  0  0  0  0  0  0  0  0  0  0  0
  188.4420  178.4640  140.5450 C   0  0  0  0  0  2  0  0  0  0  0  0
  184.1110  178.4430  145.4680 N   0  0  0  0  0  0  0  0  0  0  0  0
  190.1440  176.8320  140.7650 C   0  0  0  0  0  2  0  0  0  0  0  0
  189.5320  176.1630  141.9940 C   0  0  0  0  0  2  0  0  0  0  0  0
  187.8190  178.0450  141.8430 C   0  0  0  0  0  0  0  0  0  0  0  0
  189.2280  178.0380  148.8230 C   0  0  0  0  0  3  0  0  0  0  0  0
  188.1510  177.8140  146.2640 C   0  0  0  0  0  0  0  0  0  0  0  0
  187.3680  178.3060  147.3190 C   0  0  0  0  0  3  0  0  0  0  0  0
  187.9010  178.4130  148.6030 C   0  0  0  0  0  3  0  0  0  0  0  0
  189.9860  177.5800  147.7910 N   0  0  0  0  0  0  0  0  0  0  0  0
  189.4830  177.4670  146.5320 C   0  0  0  0  0  3  0  0  0  0  0  0
  1 12  1  0  0  0  0
  2 12  2  0  0  0  0
  2  6  1  0  0  0  0
  3 16  1  0  0  0  0
  4 14  2  0  0  0  0
  5 13  1  0  0  0  0
  7 11  1  0  0  0  0
  8 17  1  0  0  0  0
  8 19  1  0  0  0  0
  9  7  1  0  0  0  0
  9 13  2  0  0  0  0
 10  8  1  0  0  0  0
 11 16  2  0  0  0  0
 11 14  1  0  0  0  0
 12 23  1  0  0  0  0
 13  4  1  0  0  0  0
 14 18  1  0  0  0  0
 15  1  2  0  0  0  0
 16  2  1  0  0  0  0
 17 21  1  0  0  0  0
 18  6  2  0  0  0  0
 19 20  1  0  0  0  0
 20 15  1  0  0  0  0
 21  3  2  0  0  0  0
 21 15  1  0  0  0  0
 23 27  2  0  0  0  0
 23 24  1  0  0  0  0
 24 25  2  0  0  0  0
 25 22  1  0  0  0  0
 26 22  2  0  0  0  0
 27 26  1  0  0  0  0
M  END
>  <MODEL>
3

>  <REMARK>
 VINA RESULT:     -10.2      3.012      6.116
  Name = 
  1 active torsions:
  status: ('A' for Active; 'I' for Inactive)
    1  A    between atoms: C_9  and  C_15
                            x       y       z     vdW  Elec       q    Type
                         _______ _______ _______ _____ _____    ______ ____

>  <TORSDO>
F 1

$$$$
=
 OpenBabel10272401073D

 27 31  0  0  0  0  0  0  0  0999 V2000
  189.6550  178.3400  142.0550 N   0  0  0  0  0  0  0  0  0  0  0  0
  187.2870  178.1790  141.4240 C   0  0  0  0  0  0  0  0  0  0  0  0
  187.4230  177.5920  143.8660 N   0  0  0  0  0  0  0  0  0  0  0  0
  183.2660  179.0410  141.9580 C   0  0  0  0  0  2  0  0  0  0  0  0
  181.2930  179.4480  143.3910 O   0  0  0  0  0  1  0  0  0  0  0  0
  186.3990  178.4380  140.3620 C   0  0  0  0  0  3  0  0  0  0  0  0
  184.7800  178.4100  144.3220 C   0  0  0  0  0  3  0  0  0  0  0  0
  190.1310  177.6750  146.1020 N   0  0  0  0  0  0  0  0  0  0  0  0
  183.3330  178.8160  144.3810 C   0  0  0  0  0  3  0  0  0  0  0  0
  190.5380  176.9130  147.2670 C   0  0  0  0  0  1  0  0  0  0  0  0
  185.3730  178.4600  142.9270 C   0  0  0  0  0  0  0  0  0  0  0  0
  188.6070  178.0150  141.1290 C   0  0  0  0  0  0  0  0  0  0  0  0
  182.6310  179.0960  143.2840 C   0  0  0  0  0  0  0  0  0  0  0  0
  184.5610  178.7450  141.8130 C   0  0  0  0  0  0  0  0  0  0  0  0
  189.7250  178.1970  143.3370 C   0  0  0  0  0  0  0  0  0  0  0  0
  186.7390  178.1580  142.7380 C   0  0  0  0  0  0  0  0  0  0  0  0
  189.1040  176.8870  145.4230 C   0  0  0  0  0  2  0  0  0  0  0  0
  185.0890  178.7090  140.5690 N   0  0  0  0  0  0  0  0  0  0  0  0
  191.2970  177.7570  145.2250 C   0  0  0  0  0  2  0  0  0  0  0  0
  190.9800  178.6480  144.0250 C   0  0  0  0  0  2  0  0  0  0  0  0
  188.6820  177.5530  144.1470 C   0  0  0  0  0  0  0  0  0  0  0  0
  189.8370  177.2680  137.1060 C   0  0  0  0  0  3  0  0  0  0  0  0
  189.0640  177.7850  139.7300 C   0  0  0  0  0  0  0  0  0  0  0  0
  188.9640  178.7880  138.7550 C   0  0  0  0  0  3  0  0  0  0  0  0
  189.3570  178.5350  137.4410 C   0  0  0  0  0  3  0  0  0  0  0  0
  189.9130  176.2960  138.0530 N   0  0  0  0  0  0  0  0  0  0  0  0
  189.5360  176.5240  139.3400 C   0  0  0  0  0  3  0  0  0  0  0  0
  1 15  1  0  0  0  0
  2 16  1  0  0  0  0
  3 21  1  0  0  0  0
  4 13  1  0  0  0  0
  6 18  1  0  0  0  0
  6  2  2  0  0  0  0
  7  9  1  0  0  0  0
  8 10  1  0  0  0  0
 11  7  2  0  0  0  0
 12  2  1  0  0  0  0
 12  1  2  0  0  0  0
 13  5  1  0  0  0  0
 13  9  2  0  0  0  0
 14  4  1  0  0  0  0
 14 11  1  0  0  0  0
 15 20  1  0  0  0  0
 15 21  2  0  0  0  0
 16 11  1  0  0  0  0
 16  3  2  0  0  0  0
 17  8  1  0  0  0  0
 18 14  2  0  0  0  0
 19  8  1  0  0  0  0
 20 19  1  0  0  0  0
 21 17  1  0  0  0  0
 22 25  2  0  0  0  0
 22 26  1  0  0  0  0
 23 12  1  0  0  0  0
 24 23  2  0  0  0  0
 25 24  1  0  0  0  0
 26 27  2  0  0  0  0
 27 23  1  0  0  0  0
M  END
>  <MODEL>
4

>  <REMARK>
 VINA RESULT:      -9.9      2.659      6.670
  Name = 
  1 active torsions:
  status: ('A' for Active; 'I' for Inactive)
    1  A    between atoms: C_9  and  C_15
                            x       y       z     vdW  Elec       q    Type
                         _______ _______ _______ _____ _____    ______ ____

>  <TORSDO>
F 1

$$$$
=
 OpenBabel10272401073D

 27 31  0  0  0  0  0  0  0  0999 V2000
  189.4640  176.7460  142.7570 N   0  0  0  0  0  0  0  0  0  0  0  0
  187.6230  177.6630  144.1000 C   0  0  0  0  0  0  0  0  0  0  0  0
  187.2970  178.5140  141.7560 N   0  0  0  0  0  0  0  0  0  0  0  0
  183.6090  178.4130  144.8230 C   0  0  0  0  0  3  0  0  0  0  0  0
  181.3230  178.9690  144.0670 O   0  0  0  0  0  1  0  0  0  0  0  0
  187.0360  177.5910  145.3780 C   0  0  0  0  0  3  0  0  0  0  0  0
  184.5310  178.7910  142.1240 C   0  0  0  0  0  2  0  0  0  0  0  0
  189.0230  177.7830  138.7850 N   0  0  0  0  0  0  0  0  0  0  0  0
  183.0860  178.9540  142.5080 C   0  0  0  0  0  3  0  0  0  0  0  0
  189.3570  178.5070  137.5740 C   0  0  0  0  0  1  0  0  0  0  0  0
  185.4180  178.3240  143.2620 C   0  0  0  0  0  0  0  0  0  0  0  0
  188.9270  177.2900  143.9730 C   0  0  0  0  0  0  0  0  0  0  0  0
  182.6640  178.7900  143.7610 C   0  0  0  0  0  0  0  0  0  0  0  0
  184.9010  178.1920  144.5650 C   0  0  0  0  0  0  0  0  0  0  0  0
  189.2270  177.0410  141.5220 C   0  0  0  0  0  0  0  0  0  0  0  0
  186.7870  178.0760  143.0250 C   0  0  0  0  0  0  0  0  0  0  0  0
  188.6180  178.7810  139.7730 C   0  0  0  0  0  2  0  0  0  0  0  0
  185.7230  177.8490  145.5830 N   0  0  0  0  0  0  0  0  0  0  0  0
  190.2560  177.1530  139.2510 C   0  0  0  0  0  2  0  0  0  0  0  0
  189.9610  176.2720  140.4630 C   0  0  0  0  0  2  0  0  0  0  0  0
  188.3400  178.1330  141.0970 C   0  0  0  0  0  0  0  0  0  0  0  0
  191.5150  176.9130  147.3520 C   0  0  0  0  0  3  0  0  0  0  0  0
  189.8050  177.1280  145.1650 C   0  0  0  0  0  0  0  0  0  0  0  0
  189.3200  177.3410  146.4640 C   0  0  0  0  0  3  0  0  0  0  0  0
  190.1720  177.2270  147.5620 C   0  0  0  0  0  3  0  0  0  0  0  0
  191.9820  176.7270  146.0880 N   0  0  0  0  0  0  0  0  0  0  0  0
  191.1660  176.8320  145.0050 C   0  0  0  0  0  3  0  0  0  0  0  0
  1 12  1  0  0  0  0
  2  6  1  0  0  0  0
  3 16  1  0  0  0  0
  6 18  2  0  0  0  0
  7  9  1  0  0  0  0
  7 11  1  0  0  0  0
  8 19  1  0  0  0  0
  8 17  1  0  0  0  0
  9 13  2  0  0  0  0
 10  8  1  0  0  0  0
 11 14  1  0  0  0  0
 12  2  2  0  0  0  0
 12 23  1  0  0  0  0
 13  5  1  0  0  0  0
 13  4  1  0  0  0  0
 14  4  2  0  0  0  0
 14 18  1  0  0  0  0
 15  1  2  0  0  0  0
 16 11  2  0  0  0  0
 16  2  1  0  0  0  0
 17 21  1  0  0  0  0
 19 20  1  0  0  0  0
 20 15  1  0  0  0  0
 21 15  1  0  0  0  0
 21  3  2  0  0  0  0
 22 25  1  0  0  0  0
 23 24  1  0  0  0  0
 24 25  2  0  0  0  0
 26 22  2  0  0  0  0
 27 23  2  0  0  0  0
 27 26  1  0  0  0  0
M  END
>  <MODEL>
5

>  <REMARK>
 VINA RESULT:      -9.6      2.552      5.802
  Name = 
  1 active torsions:
  status: ('A' for Active; 'I' for Inactive)
    1  A    between atoms: C_9  and  C_15
                            x       y       z     vdW  Elec       q    Type
                         _______ _______ _______ _____ _____    ______ ____

>  <TORSDO>
F 1

$$$$
=
 OpenBabel10272401073D

 27 31  0  0  0  0  0  0  0  0999 V2000
  191.0450  177.7620  142.0130 N   0  0  0  0  0  0  0  0  0  0  0  0
  189.0880  177.6640  140.5340 C   0  0  0  0  0  0  0  0  0  0  0  0
  188.2280  177.3990  142.8830 N   0  0  0  0  0  0  0  0  0  0  0  0
  185.2790  178.8330  139.3810 C   0  0  0  0  0  2  0  0  0  0  0  0
  182.9680  179.5460  139.8890 O   0  0  0  0  0  1  0  0  0  0  0  0
  188.6990  177.8340  139.1910 C   0  0  0  0  0  3  0  0  0  0  0  0
  185.7130  178.4310  142.1960 C   0  0  0  0  0  3  0  0  0  0  0  0
  189.8850  177.6120  145.9730 N   0  0  0  0  0  0  0  0  0  0  0  0
  184.4030  178.9280  141.6500 C   0  0  0  0  0  3  0  0  0  0  0  0
  189.7390  176.9880  147.2740 C   0  0  0  0  0  1  0  0  0  0  0  0
  186.7900  178.2580  141.1420 C   0  0  0  0  0  0  0  0  0  0  0  0
  190.3950  177.3820  140.7910 C   0  0  0  0  0  0  0  0  0  0  0  0
  184.2020  179.1020  140.3440 C   0  0  0  0  0  0  0  0  0  0  0  0
  186.4930  178.4430  139.7780 C   0  0  0  0  0  0  0  0  0  0  0  0
  190.6110  177.7870  143.2300 C   0  0  0  0  0  0  0  0  0  0  0  0
  188.0860  177.8510  141.5280 C   0  0  0  0  0  0  0  0  0  0  0  0
  189.1110  176.8050  145.0310 C   0  0  0  0  0  2  0  0  0  0  0  0
  187.4450  178.2100  138.8460 N   0  0  0  0  0  0  0  0  0  0  0  0
  191.2970  177.5050  145.6130 C   0  0  0  0  0  2  0  0  0  0  0  0
  191.5540  178.2470  144.3020 C   0  0  0  0  0  2  0  0  0  0  0  0
  189.2770  177.3210  143.6320 C   0  0  0  0  0  0  0  0  0  0  0  0
  193.1150  176.0700  137.7680 C   0  0  0  0  0  3  0  0  0  0  0  0
  191.3180  176.9410  139.7090 C   0  0  0  0  0  0  0  0  0  0  0  0
  190.9010  176.0490  138.7110 C   0  0  0  0  0  3  0  0  0  0  0  0
  191.7960  175.6150  137.7330 C   0  0  0  0  0  3  0  0  0  0  0  0
  193.5170  176.9210  138.7500 N   0  0  0  0  0  0  0  0  0  0  0  0
  192.6580  177.3550  139.7110 C   0  0  0  0  0  3  0  0  0  0  0  0
  1 15  1  0  0  0  0
  2 12  1  0  0  0  0
  2 16  1  0  0  0  0
  3 21  1  0  0  0  0
  4 14  1  0  0  0  0
  4 13  1  0  0  0  0
  5 13  1  0  0  0  0
  6  2  2  0  0  0  0
  8 10  1  0  0  0  0
  9  7  1  0  0  0  0
 11 16  1  0  0  0  0
 11  7  2  0  0  0  0
 12  1  2  0  0  0  0
 13  9  2  0  0  0  0
 14 11  1  0  0  0  0
 15 21  2  0  0  0  0
 15 20  1  0  0  0  0
 16  3  2  0  0  0  0
 17  8  1  0  0  0  0
 18  6  1  0  0  0  0
 18 14  2  0  0  0  0
 19  8  1  0  0  0  0
 20 19  1  0  0  0  0
 21 17  1  0  0  0  0
 22 26  1  0  0  0  0
 23 27  1  0  0  0  0
 23 12  1  0  0  0  0
 24 23  2  0  0  0  0
 25 22  2  0  0  0  0
 25 24  1  0  0  0  0
 26 27  2  0  0  0  0
M  END
>  <MODEL>
6

>  <REMARK>
 VINA RESULT:      -9.2      3.030      7.481
  Name = 
  1 active torsions:
  status: ('A' for Active; 'I' for Inactive)
    1  A    between atoms: C_9  and  C_15
                            x       y       z     vdW  Elec       q    Type
                         _______ _______ _______ _____ _____    ______ ____

>  <TORSDO>
F 1

$$$$
=
 OpenBabel10272401073D

 27 31  0  0  0  0  0  0  0  0999 V2000
  189.4590  176.9820  140.7030 N   0  0  0  0  0  0  0  0  0  0  0  0
  187.6360  177.9830  142.0100 C   0  0  0  0  0  0  0  0  0  0  0  0
  187.1670  178.5150  139.5960 N   0  0  0  0  0  0  0  0  0  0  0  0
  183.6260  178.6500  142.8300 C   0  0  0  0  0  3  0  0  0  0  0  0
  181.2850  179.0080  142.1240 O   0  0  0  0  0  1  0  0  0  0  0  0
  187.1100  178.0500  143.3140 C   0  0  0  0  0  3  0  0  0  0  0  0
  184.4100  178.7190  140.0630 C   0  0  0  0  0  2  0  0  0  0  0  0
  188.7950  177.4840  136.6590 N   0  0  0  0  0  0  0  0  0  0  0  0
  182.9770  178.8680  140.4940 C   0  0  0  0  0  3  0  0  0  0  0  0
  189.0410  178.0620  135.3510 C   0  0  0  0  0  1  0  0  0  0  0  0
  185.3680  178.4380  141.2060 C   0  0  0  0  0  0  0  0  0  0  0  0
  188.9500  177.6530  141.8660 C   0  0  0  0  0  0  0  0  0  0  0  0
  182.6190  178.8470  141.7770 C   0  0  0  0  0  0  0  0  0  0  0  0
  184.9150  178.4520  142.5390 C   0  0  0  0  0  0  0  0  0  0  0  0
  189.1540  177.1070  139.4540 C   0  0  0  0  0  0  0  0  0  0  0  0
  186.7350  178.2210  140.9330 C   0  0  0  0  0  0  0  0  0  0  0  0
  188.3860  178.5820  137.5330 C   0  0  0  0  0  2  0  0  0  0  0  0
  185.7960  178.2770  143.5490 N   0  0  0  0  0  0  0  0  0  0  0  0
  190.0770  176.9720  137.1390 C   0  0  0  0  0  2  0  0  0  0  0  0
  189.8780  176.2400  138.4650 C   0  0  0  0  0  2  0  0  0  0  0  0
  188.1980  178.0970  138.9390 C   0  0  0  0  0  0  0  0  0  0  0  0
  191.6980  177.6480  145.1380 C   0  0  0  0  0  3  0  0  0  0  0  0
  189.8850  177.6810  143.0240 C   0  0  0  0  0  0  0  0  0  0  0  0
  190.6180  178.8340  143.3440 C   0  0  0  0  0  3  0  0  0  0  0  0
  191.5210  178.8230  144.4060 C   0  0  0  0  0  3  0  0  0  0  0  0
  190.9970  176.5300  144.8100 N   0  0  0  0  0  0  0  0  0  0  0  0
  190.1110  176.5210  143.7790 C   0  0  0  0  0  3  0  0  0  0  0  0
  1 12  1  0  0  0  0
  2  6  1  0  0  0  0
  3 16  1  0  0  0  0
  6 18  2  0  0  0  0
  7  9  1  0  0  0  0
  7 11  1  0  0  0  0
  8 19  1  0  0  0  0
  8 17  1  0  0  0  0
  9 13  2  0  0  0  0
 10  8  1  0  0  0  0
 11 14  1  0  0  0  0
 12  2  2  0  0  0  0
 12 23  1  0  0  0  0
 13  5  1  0  0  0  0
 13  4  1  0  0  0  0
 14  4  2  0  0  0  0
 14 18  1  0  0  0  0
 15  1  2  0  0  0  0
 16 11  2  0  0  0  0
 16  2  1  0  0  0  0
 17 21  1  0  0  0  0
 19 20  1  0  0  0  0
 20 15  1  0  0  0  0
 21 15  1  0  0  0  0
 21  3  2  0  0  0  0
 23 24  2  0  0  0  0
 23 27  1  0  0  0  0
 24 25  1  0  0  0  0
 25 22  2  0  0  0  0
 26 22  1  0  0  0  0
 27 26  2  0  0  0  0
M  END
>  <MODEL>
7

>  <REMARK>
 VINA RESULT:      -8.9      2.974      6.104
  Name = 
  1 active torsions:
  status: ('A' for Active; 'I' for Inactive)
    1  A    between atoms: C_9  and  C_15
                            x       y       z     vdW  Elec       q    Type
                         _______ _______ _______ _____ _____    ______ ____

>  <TORSDO>
F 1

$$$$
=
 OpenBabel10272401073D

 27 31  0  0  0  0  0  0  0  0999 V2000
  187.6810  177.3170  143.4120 N   0  0  0  0  0  0  0  0  0  0  0  0
  185.4540  178.3510  143.3300 C   0  0  0  0  0  0  0  0  0  0  0  0
  186.4420  178.5840  141.0280 N   0  0  0  0  0  0  0  0  0  0  0  0
  181.6940  178.8720  141.6590 C   0  0  0  0  0  3  0  0  0  0  0  0
  180.1690  179.0140  139.7190 O   0  0  0  0  0  1  0  0  0  0  0  0
  184.2830  178.5310  144.0910 C   0  0  0  0  0  3  0  0  0  0  0  0
  183.9070  178.6800  139.8310 C   0  0  0  0  0  2  0  0  0  0  0  0
  189.4300  177.3310  139.6720 N   0  0  0  0  0  0  0  0  0  0  0  0
  182.4840  178.7940  139.3580 C   0  0  0  0  0  3  0  0  0  0  0  0
  190.3810  177.7740  138.6710 C   0  0  0  0  0  1  0  0  0  0  0  0
  184.0460  178.5830  141.3390 C   0  0  0  0  0  0  0  0  0  0  0  0
  186.6140  178.0820  143.9930 C   0  0  0  0  0  0  0  0  0  0  0  0
  181.4630  178.8940  140.2070 C   0  0  0  0  0  0  0  0  0  0  0  0
  182.9180  178.7180  142.1710 C   0  0  0  0  0  0  0  0  0  0  0  0
  188.1380  177.2860  142.2040 C   0  0  0  0  0  0  0  0  0  0  0  0
  185.3240  178.4150  141.9140 C   0  0  0  0  0  0  0  0  0  0  0  0
  188.6150  178.4940  140.0200 C   0  0  0  0  0  2  0  0  0  0  0  0
  183.0700  178.7060  143.5150 N   0  0  0  0  0  0  0  0  0  0  0  0
  190.2070  176.9490  140.8500 C   0  0  0  0  0  2  0  0  0  0  0  0
  189.2810  176.3580  141.9110 C   0  0  0  0  0  2  0  0  0  0  0  0
  187.6560  178.1570  141.1230 C   0  0  0  0  0  0  0  0  0  0  0  0
  186.8360  178.6420  148.2230 C   0  0  0  0  0  3  0  0  0  0  0  0
  186.7300  178.2920  145.4630 C   0  0  0  0  0  0  0  0  0  0  0  0
  187.7050  177.6290  146.2210 C   0  0  0  0  0  3  0  0  0  0  0  0
  187.7660  177.8070  147.6030 C   0  0  0  0  0  3  0  0  0  0  0  0
  185.8810  179.2670  147.4830 N   0  0  0  0  0  0  0  0  0  0  0  0
  185.8070  179.1070  146.1350 C   0  0  0  0  0  3  0  0  0  0  0  0
  1 12  1  0  0  0  0
  2 12  2  0  0  0  0
  2  6  1  0  0  0  0
  3 21  2  0  0  0  0
  3 16  1  0  0  0  0
  4 14  2  0  0  0  0
  5 13  1  0  0  0  0
  7 11  1  0  0  0  0
  8 17  1  0  0  0  0
  8 19  1  0  0  0  0
  9  7  1  0  0  0  0
  9 13  2  0  0  0  0
 10  8  1  0  0  0  0
 11 16  2  0  0  0  0
 11 14  1  0  0  0  0
 12 23  1  0  0  0  0
 13  4  1  0  0  0  0
 14 18  1  0  0  0  0
 15  1  2  0  0  0  0
 16  2  1  0  0  0  0
 17 21  1  0  0  0  0
 18  6  2  0  0  0  0
 19 20  1  0  0  0  0
 20 15  1  0  0  0  0
 21 15  1  0  0  0  0
 23 27  2  0  0  0  0
 23 24  1  0  0  0  0
 24 25  2  0  0  0  0
 25 22  1  0  0  0  0
 26 22  2  0  0  0  0
 27 26  1  0  0  0  0
M  END
>  <MODEL>
8

>  <REMARK>
 VINA RESULT:      -8.8      3.425      6.321
  Name = 
  1 active torsions:
  status: ('A' for Active; 'I' for Inactive)
    1  A    between atoms: C_9  and  C_15
                            x       y       z     vdW  Elec       q    Type
                         _______ _______ _______ _____ _____    ______ ____

>  <TORSDO>
F 1

$$$$
=
 OpenBabel10272401073D

 27 31  0  0  0  0  0  0  0  0999 V2000
  186.5380  177.6040  143.1600 N   0  0  0  0  0  0  0  0  0  0  0  0
  186.2270  178.3570  140.8440 C   0  0  0  0  0  0  0  0  0  0  0  0
  188.6980  178.4520  141.3050 N   0  0  0  0  0  0  0  0  0  0  0  0
  187.0920  178.2530  136.7890 C   0  0  0  0  0  2  0  0  0  0  0  0
  188.6660  178.0050  134.8990 O   0  0  0  0  0  1  0  0  0  0  0  0
  185.2510  178.4820  139.8360 C   0  0  0  0  0  3  0  0  0  0  0  0
  189.3290  178.1220  138.5930 C   0  0  0  0  0  3  0  0  0  0  0  0
  190.5540  177.4140  144.1010 N   0  0  0  0  0  0  0  0  0  0  0  0
  189.4950  178.0170  137.1020 C   0  0  0  0  0  3  0  0  0  0  0  0
  191.7690  177.8520  144.7620 C   0  0  0  0  0  1  0  0  0  0  0  0
  187.8830  178.2060  139.0450 C   0  0  0  0  0  0  0  0  0  0  0  0
  185.8080  178.2980  142.1380 C   0  0  0  0  0  0  0  0  0  0  0  0
  188.4570  178.0900  136.2680 C   0  0  0  0  0  0  0  0  0  0  0  0
  186.8430  178.2990  138.1000 C   0  0  0  0  0  0  0  0  0  0  0  0
  187.8090  177.4950  143.3650 C   0  0  0  0  0  0  0  0  0  0  0  0
  187.5830  178.2510  140.4230 C   0  0  0  0  0  0  0  0  0  0  0  0
  190.1360  178.5050  143.2230 C   0  0  0  0  0  2  0  0  0  0  0  0
  185.5670  178.4510  138.5200 N   0  0  0  0  0  0  0  0  0  0  0  0
  189.5430  177.2550  145.1440 C   0  0  0  0  0  2  0  0  0  0  0  0
  188.2630  176.6800  144.5410 C   0  0  0  0  0  2  0  0  0  0  0  0
  188.8300  178.1810  142.5610 C   0  0  0  0  0  0  0  0  0  0  0  0
  181.7880  179.2800  143.2050 C   0  0  0  0  0  3  0  0  0  0  0  0
  184.4190  178.6800  142.5180 C   0  0  0  0  0  0  0  0  0  0  0  0
  184.1110  179.1210  143.8140 C   0  0  0  0  0  3  0  0  0  0  0  0
  182.7960  179.4290  144.1590 C   0  0  0  0  0  3  0  0  0  0  0  0
  182.0930  178.8340  141.9570 N   0  0  0  0  0  0  0  0  0  0  0  0
  183.3690  178.5290  141.6010 C   0  0  0  0  0  3  0  0  0  0  0  0
  1 15  1  0  0  0  0
  2 12  1  0  0  0  0
  3 21  1  0  0  0  0
  4 14  1  0  0  0  0
  5 13  1  0  0  0  0
  6  2  2  0  0  0  0
  7 11  2  0  0  0  0
  8 10  1  0  0  0  0
  8 19  1  0  0  0  0
  9  7  1  0  0  0  0
 11 16  1  0  0  0  0
 12 23  1  0  0  0  0
 12  1  2  0  0  0  0
 13  4  1  0  0  0  0
 13  9  2  0  0  0  0
 14 18  2  0  0  0  0
 14 11  1  0  0  0  0
 15 20  1  0  0  0  0
 16  2  1  0  0  0  0
 16  3  2  0  0  0  0
 17  8  1  0  0  0  0
 18  6  1  0  0  0  0
 20 19  1  0  0  0  0
 21 17  1  0  0  0  0
 21 15  2  0  0  0  0
 22 25  1  0  0  0  0
 23 24  1  0  0  0  0
 24 25  2  0  0  0  0
 26 22  2  0  0  0  0
 27 26  1  0  0  0  0
 27 23  2  0  0  0  0
M  END
>  <MODEL>
9

>  <REMARK>
 VINA RESULT:      -8.3      3.126      6.023
  Name = 
  1 active torsions:
  status: ('A' for Active; 'I' for Inactive)
    1  A    between atoms: C_9  and  C_15
                            x       y       z     vdW  Elec       q    Type
                         _______ _______ _______ _____ _____    ______ ____

>  <TORSDO>
F 1

$$$$
