=
 OpenBabel10272413493D

 30 35  0  0  1  0  0  0  0  0999 V2000
  187.1140  178.0770  141.1900 C   0  0  0  0  0  0  0  0  0  0  0  0
  184.7630  179.0350  140.8110 C   0  0  0  0  0  0  0  0  0  0  0  0
  186.3550  177.4890  145.2810 N   0  0  0  0  0  2  0  0  0  0  0  0
  188.0540  177.5010  142.0720 C   0  0  0  0  0  0  0  0  0  0  0  0
  187.5720  178.4490  139.8090 C   0  0  0  0  0  2  0  0  0  0  0  0
  190.4570  176.1860  139.6810 O   0  0  0  0  0  0  0  0  0  0  0  0
  190.3320  178.6610  143.4350 C   0  0  1  0  0  3  0  0  0  0  0  0
  189.5370  176.8580  140.1220 C   0  0  0  0  0  0  0  0  0  0  0  0
  189.6940  178.0770  144.6960 C   0  0  2  0  0  3  0  0  0  0  0  0
  187.6580  177.0410  145.6580 C   0  0  0  0  0  0  0  0  0  0  0  0
  188.4950  177.4070  139.1730 C   0  0  2  0  0  3  0  0  0  0  0  0
  189.4070  177.0220  141.6140 C   0  0  1  0  0  3  0  0  0  0  0  0
  183.3330  179.0610  141.2710 C   0  0  0  0  0  2  0  0  0  0  0  0
  190.7220  177.6880  145.5630 O   0  0  0  0  0  0  0  0  0  0  0  0
  191.6040  179.2470  143.9780 C   0  0  0  0  0  2  0  0  0  0  0  0
  185.0340  179.5030  139.6730 O   0  0  0  0  0  0  0  0  0  0  0  0
  186.4660  177.6720  143.8780 C   0  0  0  0  0  0  0  0  0  0  0  0
  183.1970  179.0200  142.7690 C   0  0  0  0  0  3  0  0  0  0  0  0
  185.8130  178.4220  141.6700 C   0  0  0  0  0  0  0  0  0  0  0  0
  187.7120  177.3430  143.4090 C   0  0  0  0  0  0  0  0  0  0  0  0
  187.9450  176.7330  146.8440 O   0  0  0  0  0  0  0  0  0  0  0  0
  188.6350  176.9760  144.5200 C   0  0  1  0  0  3  0  0  0  0  0  0
  191.7280  178.6520  145.3740 C   0  0  0  0  0  2  0  0  0  0  0  0
  191.6130  176.5700  142.6880 C   0  0  0  0  0  1  0  0  0  0  0  0
  184.1750  178.5900  143.5680 C   0  0  0  0  0  3  0  0  0  0  0  0
  185.4880  178.1940  143.0310 C   0  0  0  0  0  0  0  0  0  0  0  0
  190.6340  177.6660  142.2830 C   0  0  2  0  0  3  0  0  0  0  0  0
  189.1050  177.9420  137.8720 C   0  0  0  0  0  2  0  0  0  0  0  0
  187.3380  177.8940  136.1010 C   0  0  0  0  0  1  0  0  0  0  0  0
  188.1300  178.7770  137.0460 C   0  0  0  0  0  2  0  0  0  0  0  0
  1 19  2  0  0  0  0
  1  4  1  0  0  0  0
  2 13  1  0  0  0  0
  2 19  1  0  0  0  0
  3 10  1  0  0  0  0
  4 20  2  0  0  0  0
  5  1  1  0  0  0  0
  6  8  2  0  0  0  0
  7 15  1  1  0  0  0
  7  9  1  0  0  0  0
  9 14  1  1  0  0  0
 10 21  2  0  0  0  0
 11 28  1  6  0  0  0
 11  5  1  0  0  0  0
 11  8  1  0  0  0  0
 12  8  1  6  0  0  0
 12  4  1  0  0  0  0
 12 27  1  0  0  0  0
 13 18  1  0  0  0  0
 15 23  1  0  0  0  0
 16  2  2  0  0  0  0
 17  3  1  0  0  0  0
 18 25  2  0  0  0  0
 19 26  1  0  0  0  0
 20 17  1  0  0  0  0
 22 20  1  6  0  0  0
 22  9  1  0  0  0  0
 22 10  1  0  0  0  0
 23 14  1  0  0  0  0
 26 25  1  0  0  0  0
 26 17  2  0  0  0  0
 27 24  1  1  0  0  0
 27  7  1  0  0  0  0
 29 30  1  0  0  0  0
 30 28  1  0  0  0  0
M  END
>  <MODEL>
1

>  <REMARK>
 VINA RESULT:      -8.8      0.000      0.000
  Name = 
  2 active torsions:
  status: ('A' for Active; 'I' for Inactive)
    1  A    between atoms: C_9  and  C_12
    2  A    between atoms: C_9  and  C_21
                            x       y       z     vdW  Elec       q    Type
                         _______ _______ _______ _____ _____    ______ ____

>  <TORSDO>
F 2

$$$$
=
 OpenBabel10272413493D

 30 35  0  0  1  0  0  0  0  0999 V2000
  185.7660  178.2050  142.3910 C   0  0  0  0  0  0  0  0  0  0  0  0
  186.6770  177.9910  144.7820 C   0  0  0  0  0  0  0  0  0  0  0  0
  181.9050  179.0760  143.8010 N   0  0  0  0  0  2  0  0  0  0  0  0
  184.6810  178.4900  141.5350 C   0  0  0  0  0  0  0  0  0  0  0  0
  187.0360  177.6860  141.7790 C   0  0  0  0  0  2  0  0  0  0  0  0
  186.4480  178.9740  138.3950 O   0  0  0  0  0  0  0  0  0  0  0  0
  182.9230  176.7260  140.0540 C   0  0  1  0  0  3  0  0  0  0  0  0
  186.2420  178.6180  139.5450 C   0  0  0  0  0  0  0  0  0  0  0  0
  181.7990  177.5000  140.7440 C   0  0  2  0  0  3  0  0  0  0  0  0
  181.2410  179.1180  142.5370 C   0  0  0  0  0  0  0  0  0  0  0  0
  187.4140  178.3890  140.4740 C   0  0  2  0  0  3  0  0  0  0  0  0
  184.8210  178.5310  140.0360 C   0  0  1  0  0  3  0  0  0  0  0  0
  186.5290  178.4050  146.2190 C   0  0  0  0  0  2  0  0  0  0  0  0
  180.7180  177.5790  139.8580 O   0  0  0  0  0  0  0  0  0  0  0  0
  182.1510  175.7950  139.1620 C   0  0  0  0  0  2  0  0  0  0  0  0
  187.7520  177.4410  144.4250 O   0  0  0  0  0  0  0  0  0  0  0  0
  183.2600  178.8400  143.4510 C   0  0  0  0  0  0  0  0  0  0  0  0
  185.0940  178.5150  146.6540 C   0  0  0  0  0  3  0  0  0  0  0  0
  185.5880  178.2770  143.8070 C   0  0  0  0  0  0  0  0  0  0  0  0
  183.4400  178.7700  142.0930 C   0  0  0  0  0  0  0  0  0  0  0  0
  180.0090  179.3490  142.4320 O   0  0  0  0  0  0  0  0  0  0  0  0
  182.1430  178.8640  141.3640 C   0  0  1  0  0  3  0  0  0  0  0  0
  180.7350  176.3540  139.1690 C   0  0  0  0  0  2  0  0  0  0  0  0
  183.2860  178.3200  138.0790 C   0  0  0  0  0  1  0  0  0  0  0  0
  184.0880  178.6470  145.7890 C   0  0  0  0  0  3  0  0  0  0  0  0
  184.3170  178.6190  144.3340 C   0  0  0  0  0  0  0  0  0  0  0  0
  183.9380  177.5610  139.2290 C   0  0  2  0  0  3  0  0  0  0  0  0
  188.5810  177.6700  139.7860 C   0  0  0  0  0  2  0  0  0  0  0  0
  191.0150  177.2700  140.1990 C   0  0  0  0  0  1  0  0  0  0  0  0
  189.6170  177.1260  140.7660 C   0  0  0  0  0  2  0  0  0  0  0  0
  1 19  1  0  0  0  0
  2 13  1  0  0  0  0
  4 20  1  0  0  0  0
  4  1  2  0  0  0  0
  5  1  1  0  0  0  0
  6  8  2  0  0  0  0
  7 15  1  6  0  0  0
  7  9  1  0  0  0  0
  8 11  1  0  0  0  0
  9 14  1  6  0  0  0
  9 22  1  0  0  0  0
 10  3  1  0  0  0  0
 11 28  1  6  0  0  0
 11  5  1  0  0  0  0
 12  8  1  1  0  0  0
 12  4  1  0  0  0  0
 13 18  1  0  0  0  0
 15 23  1  0  0  0  0
 16  2  2  0  0  0  0
 17  3  1  0  0  0  0
 17 26  1  0  0  0  0
 19 26  2  0  0  0  0
 19  2  1  0  0  0  0
 20 17  2  0  0  0  0
 21 10  2  0  0  0  0
 22 20  1  1  0  0  0
 22 10  1  0  0  0  0
 23 14  1  0  0  0  0
 25 18  2  0  0  0  0
 26 25  1  0  0  0  0
 27 24  1  6  0  0  0
 27 12  1  0  0  0  0
 27  7  1  0  0  0  0
 28 30  1  0  0  0  0
 29 30  1  0  0  0  0
M  END
>  <MODEL>
2

>  <REMARK>
 VINA RESULT:      -8.8      2.523      6.433
  Name = 
  2 active torsions:
  status: ('A' for Active; 'I' for Inactive)
    1  A    between atoms: C_9  and  C_12
    2  A    between atoms: C_9  and  C_21
                            x       y       z     vdW  Elec       q    Type
                         _______ _______ _______ _____ _____    ______ ____

>  <TORSDO>
F 2

$$$$
=
 OpenBabel10272413493D

 30 35  0  0  1  0  0  0  0  0999 V2000
  188.4940  177.6530  141.4440 C   0  0  0  0  0  0  0  0  0  0  0  0
  186.4380  178.0160  142.9380 C   0  0  0  0  0  0  0  0  0  0  0  0
  186.3450  178.7470  138.0020 N   0  0  0  0  0  2  0  0  0  0  0  0
  189.0760  177.7100  140.1590 C   0  0  0  0  0  0  0  0  0  0  0  0
  189.2890  177.0330  142.5570 C   0  0  0  0  0  2  0  0  0  0  0  0
  192.5970  177.4920  141.0390 O   0  0  0  0  0  0  0  0  0  0  0  0
  189.6230  175.6160  138.2330 C   0  0  1  0  0  3  0  0  0  0  0  0
  191.3840  177.4080  141.1560 C   0  0  0  0  0  0  0  0  0  0  0  0
  188.8480  176.5050  137.2590 C   0  0  2  0  0  3  0  0  0  0  0  0
  187.3690  178.4830  137.0420 C   0  0  0  0  0  0  0  0  0  0  0  0
  190.7680  177.4230  142.5390 C   0  0  2  0  0  3  0  0  0  0  0  0
  190.5310  177.4060  139.9150 C   0  0  1  0  0  3  0  0  0  0  0  0
  185.1390  178.7480  143.1230 C   0  0  0  0  0  2  0  0  0  0  0  0
  189.4140  176.3560  135.9890 O   0  0  0  0  0  0  0  0  0  0  0  0
  190.0570  174.4890  137.3390 C   0  0  0  0  0  2  0  0  0  0  0  0
  186.9360  177.4210  143.9300 O   0  0  0  0  0  0  0  0  0  0  0  0
  186.9780  178.4640  139.2400 C   0  0  0  0  0  0  0  0  0  0  0  0
  184.3770  178.9250  141.8390 C   0  0  0  0  0  3  0  0  0  0  0  0
  187.1310  178.0470  141.6210 C   0  0  0  0  0  0  0  0  0  0  0  0
  188.2870  178.0860  139.0800 C   0  0  0  0  0  0  0  0  0  0  0  0
  187.1940  178.6570  135.8080 O   0  0  0  0  0  0  0  0  0  0  0  0
  188.6530  177.9830  137.6380 C   0  0  1  0  0  3  0  0  0  0  0  0
  189.8000  175.0050  135.9300 C   0  0  0  0  0  2  0  0  0  0  0  0
  191.9220  176.7180  137.9610 C   0  0  0  0  0  1  0  0  0  0  0  0
  184.9550  178.8330  140.6410 C   0  0  0  0  0  3  0  0  0  0  0  0
  186.3770  178.4750  140.4990 C   0  0  0  0  0  0  0  0  0  0  0  0
  190.8470  176.2590  138.9390 C   0  0  2  0  0  3  0  0  0  0  0  0
  191.5640  176.5890  143.5490 C   0  0  0  0  0  2  0  0  0  0  0  0
  191.8910  176.0640  145.9730 C   0  0  0  0  0  1  0  0  0  0  0  0
  191.4860  177.1300  144.9740 C   0  0  0  0  0  2  0  0  0  0  0  0
  1 19  1  0  0  0  0
  1  5  1  0  0  0  0
  2 13  1  0  0  0  0
  2 16  2  0  0  0  0
  3 17  1  0  0  0  0
  4  1  2  0  0  0  0
  6  8  2  0  0  0  0
  7 15  1  6  0  0  0
  7 27  1  0  0  0  0
  8 11  1  0  0  0  0
  9 14  1  6  0  0  0
  9 22  1  0  0  0  0
  9  7  1  0  0  0  0
 10  3  1  0  0  0  0
 11  5  1  0  0  0  0
 11 28  1  1  0  0  0
 12  4  1  1  0  0  0
 12  8  1  0  0  0  0
 17 26  1  0  0  0  0
 18 13  1  0  0  0  0
 19  2  1  0  0  0  0
 20 17  2  0  0  0  0
 20  4  1  0  0  0  0
 21 10  2  0  0  0  0
 22 10  1  6  0  0  0
 22 20  1  0  0  0  0
 23 14  1  0  0  0  0
 23 15  1  0  0  0  0
 25 18  2  0  0  0  0
 26 25  1  0  0  0  0
 26 19  2  0  0  0  0
 27 24  1  6  0  0  0
 27 12  1  0  0  0  0
 28 30  1  0  0  0  0
 30 29  1  0  0  0  0
M  END
>  <MODEL>
3

>  <REMARK>
 VINA RESULT:      -8.7      2.427      6.062
  Name = 
  2 active torsions:
  status: ('A' for Active; 'I' for Inactive)
    1  A    between atoms: C_9  and  C_12
    2  A    between atoms: C_9  and  C_21
                            x       y       z     vdW  Elec       q    Type
                         _______ _______ _______ _____ _____    ______ ____

>  <TORSDO>
F 2

$$$$
=
 OpenBabel10272413493D

 30 35  0  0  1  0  0  0  0  0999 V2000
  186.5930  178.1680  141.6340 C   0  0  0  0  0  0  0  0  0  0  0  0
  185.9920  178.0380  144.1260 C   0  0  0  0  0  0  0  0  0  0  0  0
  182.6800  179.3140  140.6180 N   0  0  0  0  0  2  0  0  0  0  0  0
  186.1970  178.4620  140.3120 C   0  0  0  0  0  0  0  0  0  0  0  0
  187.9450  177.5510  141.8490 C   0  0  0  0  0  2  0  0  0  0  0  0
  189.4480  178.6820  138.6990 O   0  0  0  0  0  0  0  0  0  0  0  0
  185.4440  176.7130  138.1280 C   0  0  1  0  0  3  0  0  0  0  0  0
  188.6080  178.4000  139.5400 C   0  0  0  0  0  0  0  0  0  0  0  0
  184.1860  177.5810  138.0540 C   0  0  2  0  0  3  0  0  0  0  0  0
  182.8420  179.3220  139.1990 C   0  0  0  0  0  0  0  0  0  0  0  0
  189.0400  178.1620  140.9710 C   0  0  2  0  0  3  0  0  0  0  0  0
  187.1540  178.4130  139.1490 C   0  0  1  0  0  3  0  0  0  0  0  0
  185.0980  178.5380  145.2260 C   0  0  0  0  0  2  0  0  0  0  0  0
  183.7950  177.6680  136.7140 O   0  0  0  0  0  0  0  0  0  0  0  0
  185.2370  175.7760  136.9710 C   0  0  0  0  0  2  0  0  0  0  0  0
  187.0390  177.4150  144.4440 O   0  0  0  0  0  0  0  0  0  0  0  0
  183.9770  178.9890  141.0920 C   0  0  0  0  0  0  0  0  0  0  0  0
  183.6770  178.7450  144.7780 C   0  0  0  0  0  3  0  0  0  0  0  0
  185.6590  178.3270  142.7040 C   0  0  0  0  0  0  0  0  0  0  0  0
  184.8810  178.8360  140.0720 C   0  0  0  0  0  0  0  0  0  0  0  0
  181.9000  179.6100  138.4160 O   0  0  0  0  0  0  0  0  0  0  0  0
  184.2250  178.9570  138.7390 C   0  0  1  0  0  3  0  0  0  0  0  0
  184.1050  176.4070  136.1730 C   0  0  0  0  0  2  0  0  0  0  0  0
  186.9640  178.1760  136.6720 C   0  0  0  0  0  1  0  0  0  0  0  0
  183.3400  178.8820  143.4950 C   0  0  0  0  0  3  0  0  0  0  0  0
  184.3400  178.7630  142.4200 C   0  0  0  0  0  0  0  0  0  0  0  0
  186.8050  177.4480  138.0020 C   0  0  2  0  0  3  0  0  0  0  0  0
  190.3340  177.3470  141.0690 C   0  0  0  0  0  2  0  0  0  0  0  0
  191.6060  176.9150  143.1790 C   0  0  0  0  0  1  0  0  0  0  0  0
  190.4190  176.4970  142.3340 C   0  0  0  0  0  2  0  0  0  0  0  0
  1  5  1  0  0  0  0
  1 19  1  0  0  0  0
  2 16  2  0  0  0  0
  2 13  1  0  0  0  0
  3 17  1  0  0  0  0
  4  1  2  0  0  0  0
  6  8  2  0  0  0  0
  7 15  1  6  0  0  0
  8 11  1  0  0  0  0
  9 14  1  6  0  0  0
  9  7  1  0  0  0  0
  9 22  1  0  0  0  0
 10  3  1  0  0  0  0
 11 28  1  6  0  0  0
 11  5  1  0  0  0  0
 12  8  1  1  0  0  0
 12  4  1  0  0  0  0
 17 26  1  0  0  0  0
 18 13  1  0  0  0  0
 19  2  1  0  0  0  0
 20  4  1  0  0  0  0
 20 17  2  0  0  0  0
 21 10  2  0  0  0  0
 22 10  1  1  0  0  0
 22 20  1  0  0  0  0
 23 14  1  0  0  0  0
 23 15  1  0  0  0  0
 25 18  2  0  0  0  0
 26 19  2  0  0  0  0
 26 25  1  0  0  0  0
 27 24  1  6  0  0  0
 27  7  1  0  0  0  0
 27 12  1  0  0  0  0
 28 30  1  0  0  0  0
 30 29  1  0  0  0  0
M  END
>  <MODEL>
4

>  <REMARK>
 VINA RESULT:      -8.0      2.251      6.197
  Name = 
  2 active torsions:
  status: ('A' for Active; 'I' for Inactive)
    1  A    between atoms: C_9  and  C_12
    2  A    between atoms: C_9  and  C_21
                            x       y       z     vdW  Elec       q    Type
                         _______ _______ _______ _____ _____    ______ ____

>  <TORSDO>
F 2

$$$$
=
 OpenBabel10272413493D

 30 35  0  0  1  0  0  0  0  0999 V2000
  186.5200  178.2070  142.4980 C   0  0  0  0  0  0  0  0  0  0  0  0
  184.1490  179.0260  143.0430 C   0  0  0  0  0  0  0  0  0  0  0  0
  187.2740  177.3020  146.5310 N   0  0  0  0  0  2  0  0  0  0  0  0
  187.7320  177.6380  142.9450 C   0  0  0  0  0  0  0  0  0  0  0  0
  186.4460  178.6970  141.0800 C   0  0  0  0  0  2  0  0  0  0  0  0
  189.1900  176.6470  139.7650 O   0  0  0  0  0  0  0  0  0  0  0  0
  190.2960  178.8580  143.5230 C   0  0  1  0  0  3  0  0  0  0  0  0
  188.4580  177.2250  140.5540 C   0  0  0  0  0  0  0  0  0  0  0  0
  190.1670  178.1510  144.8730 C   0  0  2  0  0  3  0  0  0  0  0  0
  188.6430  176.9200  146.3920 C   0  0  0  0  0  0  0  0  0  0  0  0
  187.1270  177.7640  140.0770 C   0  0  2  0  0  3  0  0  0  0  0  0
  188.8550  177.2830  142.0060 C   0  0  1  0  0  3  0  0  0  0  0  0
  182.9730  178.9250  143.9730 C   0  0  0  0  0  2  0  0  0  0  0  0
  191.4490  177.7760  145.2920 O   0  0  0  0  0  0  0  0  0  0  0  0
  191.6530  179.4920  143.6370 C   0  0  0  0  0  2  0  0  0  0  0  0
  183.9820  179.5840  141.9260 O   0  0  0  0  0  0  0  0  0  0  0  0
  186.8770  177.5840  145.1990 C   0  0  0  0  0  0  0  0  0  0  0  0
  183.3750  178.7780  145.4150 C   0  0  0  0  0  3  0  0  0  0  0  0
  185.4580  178.4300  143.4280 C   0  0  0  0  0  0  0  0  0  0  0  0
  187.8890  177.3700  144.2990 C   0  0  0  0  0  0  0  0  0  0  0  0
  189.3420  176.5560  147.3730 O   0  0  0  0  0  0  0  0  0  0  0  0
  189.1590  176.9950  144.9840 C   0  0  1  0  0  3  0  0  0  0  0  0
  192.2850  178.8170  144.8460 C   0  0  0  0  0  2  0  0  0  0  0  0
  191.3150  176.9110  142.2030 C   0  0  0  0  0  1  0  0  0  0  0  0
  184.5880  178.3640  145.7840 C   0  0  0  0  0  3  0  0  0  0  0  0
  185.6430  178.0930  144.7930 C   0  0  0  0  0  0  0  0  0  0  0  0
  190.2130  177.9630  142.2580 C   0  0  2  0  0  3  0  0  0  0  0  0
  187.2170  178.4220  138.6960 C   0  0  0  0  0  2  0  0  0  0  0  0
  184.8020  178.2560  138.0640 C   0  0  0  0  0  1  0  0  0  0  0  0
  186.2170  177.8570  137.6910 C   0  0  0  0  0  2  0  0  0  0  0  0
  1  4  2  0  0  0  0
  1 19  1  0  0  0  0
  2 19  1  0  0  0  0
  2 13  1  0  0  0  0
  4 20  1  0  0  0  0
  5  1  1  0  0  0  0
  6  8  2  0  0  0  0
  7 15  1  1  0  0  0
  7  9  1  0  0  0  0
  9 22  1  0  0  0  0
  9 14  1  6  0  0  0
 10  3  1  0  0  0  0
 10 21  2  0  0  0  0
 11 28  1  6  0  0  0
 11  8  1  0  0  0  0
 11  5  1  0  0  0  0
 12  8  1  6  0  0  0
 12 27  1  0  0  0  0
 12  4  1  0  0  0  0
 13 18  1  0  0  0  0
 15 23  1  0  0  0  0
 16  2  2  0  0  0  0
 17  3  1  0  0  0  0
 18 25  2  0  0  0  0
 19 26  2  0  0  0  0
 20 17  2  0  0  0  0
 22 20  1  6  0  0  0
 22 10  1  0  0  0  0
 23 14  1  0  0  0  0
 26 17  1  0  0  0  0
 26 25  1  0  0  0  0
 27 24  1  1  0  0  0
 27  7  1  0  0  0  0
 30 29  1  0  0  0  0
 30 28  1  0  0  0  0
M  END
>  <MODEL>
5

>  <REMARK>
 VINA RESULT:      -7.9      1.298      1.652
  Name = 
  2 active torsions:
  status: ('A' for Active; 'I' for Inactive)
    1  A    between atoms: C_9  and  C_12
    2  A    between atoms: C_9  and  C_21
                            x       y       z     vdW  Elec       q    Type
                         _______ _______ _______ _____ _____    ______ ____

>  <TORSDO>
F 2

$$$$
=
 OpenBabel10272413493D

 30 35  0  0  1  0  0  0  0  0999 V2000
  187.5000  177.9150  141.1460 C   0  0  0  0  0  0  0  0  0  0  0  0
  187.4470  177.5850  143.6910 C   0  0  0  0  0  0  0  0  0  0  0  0
  183.4650  179.0880  141.0850 N   0  0  0  0  0  2  0  0  0  0  0  0
  186.8300  178.3060  139.9660 C   0  0  0  0  0  0  0  0  0  0  0  0
  188.8640  177.3010  141.0170 C   0  0  0  0  0  2  0  0  0  0  0  0
  189.6600  178.6910  137.7160 O   0  0  0  0  0  0  0  0  0  0  0  0
  185.6180  176.7240  137.8640 C   0  0  1  0  0  3  0  0  0  0  0  0
  189.0190  178.3350  138.6940 C   0  0  0  0  0  0  0  0  0  0  0  0
  184.3780  177.5780  138.1300 C   0  0  2  0  0  3  0  0  0  0  0  0
  183.3190  179.2080  139.6690 C   0  0  0  0  0  0  0  0  0  0  0  0
  189.7470  177.9910  139.9750 C   0  0  2  0  0  3  0  0  0  0  0  0
  187.5150  178.3600  138.6260 C   0  0  1  0  0  3  0  0  0  0  0  0
  186.8110  177.9860  144.9920 C   0  0  0  0  0  2  0  0  0  0  0  0
  183.7080  177.7640  136.9150 O   0  0  0  0  0  0  0  0  0  0  0  0
  185.1630  175.8770  136.7080 C   0  0  0  0  0  2  0  0  0  0  0  0
  188.5350  176.9510  143.7260 O   0  0  0  0  0  0  0  0  0  0  0  0
  184.8320  178.7440  141.2430 C   0  0  0  0  0  0  0  0  0  0  0  0
  185.3280  178.2100  144.8770 C   0  0  0  0  0  3  0  0  0  0  0  0
  186.8180  177.9790  142.4000 C   0  0  0  0  0  0  0  0  0  0  0  0
  185.4950  178.6820  140.0440 C   0  0  0  0  0  0  0  0  0  0  0  0
  182.2310  179.5450  139.1310 O   0  0  0  0  0  0  0  0  0  0  0  0
  184.5680  178.8980  138.8960 C   0  0  1  0  0  3  0  0  0  0  0  0
  183.8890  176.5540  136.2230 C   0  0  0  0  0  2  0  0  0  0  0  0
  186.7970  178.3140  136.2360 C   0  0  0  0  0  1  0  0  0  0  0  0
  184.7240  178.4410  143.7100 C   0  0  0  0  0  3  0  0  0  0  0  0
  185.4700  178.4190  142.4410 C   0  0  0  0  0  0  0  0  0  0  0  0
  186.9230  177.4830  137.5070 C   0  0  2  0  0  3  0  0  0  0  0  0
  191.0280  177.1870  139.7290 C   0  0  0  0  0  2  0  0  0  0  0  0
  191.9750  175.8770  137.8190 C   0  0  0  0  0  1  0  0  0  0  0  0
  190.8240  175.9940  138.7990 C   0  0  0  0  0  2  0  0  0  0  0  0
  1 19  1  0  0  0  0
  2 16  2  0  0  0  0
  2 13  1  0  0  0  0
  3 17  1  0  0  0  0
  4 20  1  0  0  0  0
  4  1  2  0  0  0  0
  5  1  1  0  0  0  0
  6  8  2  0  0  0  0
  7 15  1  6  0  0  0
  7  9  1  0  0  0  0
  8 11  1  0  0  0  0
  9 14  1  6  0  0  0
  9 22  1  0  0  0  0
 10  3  1  0  0  0  0
 11 28  1  6  0  0  0
 11  5  1  0  0  0  0
 12  8  1  1  0  0  0
 12  4  1  0  0  0  0
 17 26  1  0  0  0  0
 18 13  1  0  0  0  0
 19 26  2  0  0  0  0
 19  2  1  0  0  0  0
 20 17  2  0  0  0  0
 21 10  2  0  0  0  0
 22 10  1  1  0  0  0
 22 20  1  0  0  0  0
 23 15  1  0  0  0  0
 23 14  1  0  0  0  0
 25 18  2  0  0  0  0
 26 25  1  0  0  0  0
 27 24  1  6  0  0  0
 27  7  1  0  0  0  0
 27 12  1  0  0  0  0
 29 30  1  0  0  0  0
 30 28  1  0  0  0  0
M  END
>  <MODEL>
6

>  <REMARK>
 VINA RESULT:      -7.6      2.322      5.974
  Name = 
  2 active torsions:
  status: ('A' for Active; 'I' for Inactive)
    1  A    between atoms: C_9  and  C_12
    2  A    between atoms: C_9  and  C_21
                            x       y       z     vdW  Elec       q    Type
                         _______ _______ _______ _____ _____    ______ ____

>  <TORSDO>
F 2

$$$$
=
 OpenBabel10272413493D

 30 35  0  0  1  0  0  0  0  0999 V2000
  187.5610  177.7610  142.6290 C   0  0  0  0  0  0  0  0  0  0  0  0
  188.8150  176.9140  144.7030 C   0  0  0  0  0  0  0  0  0  0  0  0
  184.3060  179.0370  144.9600 N   0  0  0  0  0  2  0  0  0  0  0  0
  186.4300  178.4060  142.0830 C   0  0  0  0  0  0  0  0  0  0  0  0
  188.5520  177.1460  141.6840 C   0  0  0  0  0  2  0  0  0  0  0  0
  187.6680  179.1630  138.7500 O   0  0  0  0  0  0  0  0  0  0  0  0
  184.0880  177.3270  140.7620 C   0  0  1  0  0  3  0  0  0  0  0  0
  187.5970  178.6320  139.8480 C   0  0  0  0  0  0  0  0  0  0  0  0
  183.3060  178.1440  141.7910 C   0  0  2  0  0  3  0  0  0  0  0  0
  183.4530  179.4510  143.8920 C   0  0  0  0  0  0  0  0  0  0  0  0
  188.8370  178.0100  140.4530 C   0  0  2  0  0  3  0  0  0  0  0  0
  186.3040  178.7150  140.6150 C   0  0  1  0  0  3  0  0  0  0  0  0
  189.0240  177.0560  146.1840 C   0  0  0  0  0  2  0  0  0  0  0  0
  182.1290  178.5960  141.1840 O   0  0  0  0  0  0  0  0  0  0  0  0
  182.9820  176.7500  139.9240 C   0  0  0  0  0  2  0  0  0  0  0  0
  189.6600  176.2550  144.0400 O   0  0  0  0  0  0  0  0  0  0  0  0
  185.4890  178.6280  144.2920 C   0  0  0  0  0  0  0  0  0  0  0  0
  187.7500  177.3420  146.9320 C   0  0  0  0  0  3  0  0  0  0  0  0
  187.6600  177.5840  144.0440 C   0  0  0  0  0  0  0  0  0  0  0  0
  185.4030  178.7950  142.9340 C   0  0  0  0  0  0  0  0  0  0  0  0
  182.3030  179.9230  144.0940 O   0  0  0  0  0  0  0  0  0  0  0  0
  184.0500  179.2710  142.5260 C   0  0  1  0  0  3  0  0  0  0  0  0
  181.7500  177.5490  140.3240 C   0  0  0  0  0  2  0  0  0  0  0  0
  184.4350  179.1840  139.0290 C   0  0  0  0  0  1  0  0  0  0  0  0
  186.6600  177.8270  146.3360 C   0  0  0  0  0  3  0  0  0  0  0  0
  186.6120  178.0450  144.8800 C   0  0  0  0  0  0  0  0  0  0  0  0
  185.0980  178.1050  139.8770 C   0  0  2  0  0  3  0  0  0  0  0  0
  189.6720  177.2370  139.4260 C   0  0  0  0  0  2  0  0  0  0  0  0
  189.3930  176.4590  137.0650 C   0  0  0  0  0  1  0  0  0  0  0  0
  188.8280  176.3980  138.4710 C   0  0  0  0  0  2  0  0  0  0  0  0
  1 19  1  0  0  0  0
  2 13  1  0  0  0  0
  4  1  2  0  0  0  0
  4 20  1  0  0  0  0
  5  1  1  0  0  0  0
  6  8  2  0  0  0  0
  7 15  1  6  0  0  0
  7  9  1  0  0  0  0
  8 11  1  0  0  0  0
  9 14  1  6  0  0  0
  9 22  1  0  0  0  0
 10 21  2  0  0  0  0
 10  3  1  0  0  0  0
 11 28  1  6  0  0  0
 11  5  1  0  0  0  0
 12  8  1  6  0  0  0
 12  4  1  0  0  0  0
 13 18  1  0  0  0  0
 15 23  1  0  0  0  0
 16  2  2  0  0  0  0
 17 26  1  0  0  0  0
 17  3  1  0  0  0  0
 19  2  1  0  0  0  0
 19 26  2  0  0  0  0
 20 17  2  0  0  0  0
 22 20  1  1  0  0  0
 22 10  1  0  0  0  0
 23 14  1  0  0  0  0
 25 18  2  0  0  0  0
 26 25  1  0  0  0  0
 27 24  1  1  0  0  0
 27 12  1  0  0  0  0
 27  7  1  0  0  0  0
 29 30  1  0  0  0  0
 30 28  1  0  0  0  0
M  END
>  <MODEL>
7

>  <REMARK>
 VINA RESULT:      -7.6      2.074      5.579
  Name = 
  2 active torsions:
  status: ('A' for Active; 'I' for Inactive)
    1  A    between atoms: C_9  and  C_12
    2  A    between atoms: C_9  and  C_21
                            x       y       z     vdW  Elec       q    Type
                         _______ _______ _______ _____ _____    ______ ____

>  <TORSDO>
F 2

$$$$
=
 OpenBabel10272413493D

 30 35  0  0  1  0  0  0  0  0999 V2000
  187.9740  177.8970  142.7440 C   0  0  0  0  0  0  0  0  0  0  0  0
  185.6290  177.8710  143.7890 C   0  0  0  0  0  0  0  0  0  0  0  0
  186.4160  178.8300  138.9550 N   0  0  0  0  0  2  0  0  0  0  0  0
  188.7860  178.1070  141.6090 C   0  0  0  0  0  0  0  0  0  0  0  0
  188.6160  177.3480  143.9850 C   0  0  0  0  0  2  0  0  0  0  0  0
  192.0480  178.3750  143.1920 O   0  0  0  0  0  0  0  0  0  0  0  0
  190.0320  176.2200  139.7980 C   0  0  1  0  0  3  0  0  0  0  0  0
  190.8640  178.1040  143.0550 C   0  0  0  0  0  0  0  0  0  0  0  0
  189.3380  177.0310  138.7020 C   0  0  2  0  0  3  0  0  0  0  0  0
  187.6400  178.7720  138.2220 C   0  0  0  0  0  0  0  0  0  0  0  0
  189.9890  177.9560  144.2810 C   0  0  2  0  0  3  0  0  0  0  0  0
  190.2890  178.0380  141.6650 C   0  0  1  0  0  3  0  0  0  0  0  0
  184.2200  178.3890  143.7160 C   0  0  0  0  0  2  0  0  0  0  0  0
  190.1640  177.0330  137.5730 O   0  0  0  0  0  0  0  0  0  0  0  0
  190.8080  175.2170  138.9910 C   0  0  0  0  0  2  0  0  0  0  0  0
  186.0040  177.3070  144.8510 O   0  0  0  0  0  0  0  0  0  0  0  0
  186.8240  178.5830  140.2910 C   0  0  0  0  0  0  0  0  0  0  0  0
  183.7130  178.5160  142.3050 C   0  0  0  0  0  3  0  0  0  0  0  0
  186.5590  178.0730  142.6440 C   0  0  0  0  0  0  0  0  0  0  0  0
  188.1800  178.4150  140.3970 C   0  0  0  0  0  0  0  0  0  0  0  0
  187.6920  178.9810  136.9820 O   0  0  0  0  0  0  0  0  0  0  0  0
  188.8410  178.4410  139.0610 C   0  0  1  0  0  3  0  0  0  0  0  0
  190.7620  175.7600  137.5700 C   0  0  0  0  0  2  0  0  0  0  0  0
  192.1350  177.6670  140.0270 C   0  0  0  0  0  1  0  0  0  0  0  0
  184.5280  178.5730  141.2510 C   0  0  0  0  0  3  0  0  0  0  0  0
  185.9870  178.4400  141.3990 C   0  0  0  0  0  0  0  0  0  0  0  0
  190.9720  177.0020  140.7530 C   0  0  2  0  0  3  0  0  0  0  0  0
  190.6860  177.2000  145.4170 C   0  0  0  0  0  2  0  0  0  0  0  0
  189.7010  177.6560  147.6710 C   0  0  0  0  0  1  0  0  0  0  0  0
  189.7230  176.7030  146.4920 C   0  0  0  0  0  2  0  0  0  0  0  0
  1  5  1  0  0  0  0
  2 16  2  0  0  0  0
  3 17  1  0  0  0  0
  4  1  2  0  0  0  0
  5 11  1  0  0  0  0
  7 15  1  6  0  0  0
  7 27  1  0  0  0  0
  8  6  2  0  0  0  0
  8 11  1  0  0  0  0
  9 14  1  6  0  0  0
  9 22  1  0  0  0  0
  9  7  1  0  0  0  0
 10  3  1  0  0  0  0
 11 28  1  1  0  0  0
 12  4  1  1  0  0  0
 12  8  1  0  0  0  0
 13  2  1  0  0  0  0
 17 20  2  0  0  0  0
 17 26  1  0  0  0  0
 18 13  1  0  0  0  0
 19  1  1  0  0  0  0
 19  2  1  0  0  0  0
 20  4  1  0  0  0  0
 21 10  2  0  0  0  0
 22 10  1  6  0  0  0
 22 20  1  0  0  0  0
 23 14  1  0  0  0  0
 23 15  1  0  0  0  0
 25 26  1  0  0  0  0
 25 18  2  0  0  0  0
 26 19  2  0  0  0  0
 27 24  1  6  0  0  0
 27 12  1  0  0  0  0
 28 30  1  0  0  0  0
 30 29  1  0  0  0  0
M  END
>  <MODEL>
8

>  <REMARK>
 VINA RESULT:      -7.5      2.081      5.617
  Name = 
  2 active torsions:
  status: ('A' for Active; 'I' for Inactive)
    1  A    between atoms: C_9  and  C_12
    2  A    between atoms: C_9  and  C_21
                            x       y       z     vdW  Elec       q    Type
                         _______ _______ _______ _____ _____    ______ ____

>  <TORSDO>
F 2

$$$$
=
 OpenBabel10272413493D

 30 35  0  0  1  0  0  0  0  0999 V2000
  185.4150  178.5690  140.4700 C   0  0  0  0  0  0  0  0  0  0  0  0
  187.9610  178.4090  140.1810 C   0  0  0  0  0  0  0  0  0  0  0  0
  184.7560  177.2980  136.5200 N   0  0  0  0  0  2  0  0  0  0  0  0
  184.1250  178.3870  139.9250 C   0  0  0  0  0  0  0  0  0  0  0  0
  185.5320  179.2420  141.8080 C   0  0  0  0  0  2  0  0  0  0  0  0
  182.1210  178.5300  142.9560 O   0  0  0  0  0  0  0  0  0  0  0  0
  182.2490  180.3000  138.8220 C   0  0  1  0  0  3  0  0  0  0  0  0
  183.0820  178.6730  142.2150 C   0  0  0  0  0  0  0  0  0  0  0  0
  182.2340  179.3700  137.6080 C   0  0  2  0  0  3  0  0  0  0  0  0
  183.3350  177.4440  136.5030 C   0  0  0  0  0  0  0  0  0  0  0  0
  184.4680  178.7910  142.8110 C   0  0  2  0  0  3  0  0  0  0  0  0
  182.8690  178.6120  140.7260 C   0  0  1  0  0  3  0  0  0  0  0  0
  189.0980  177.7470  139.4560 C   0  0  0  0  0  2  0  0  0  0  0  0
  180.9480  179.3960  137.0560 O   0  0  0  0  0  0  0  0  0  0  0  0
  181.2340  181.3350  138.4270 C   0  0  0  0  0  2  0  0  0  0  0  0
  188.2160  179.0590  141.2280 O   0  0  0  0  0  0  0  0  0  0  0  0
  185.1050  177.6500  137.8490 C   0  0  0  0  0  0  0  0  0  0  0  0
  188.8040  177.5010  138.0010 C   0  0  0  0  0  3  0  0  0  0  0  0
  186.5650  178.2460  139.6860 C   0  0  0  0  0  0  0  0  0  0  0  0
  184.0060  177.9610  138.6090 C   0  0  0  0  0  0  0  0  0  0  0  0
  182.6440  177.1800  135.4840 O   0  0  0  0  0  0  0  0  0  0  0  0
  182.7550  177.9360  137.7980 C   0  0  1  0  0  3  0  0  0  0  0  0
  180.5130  180.7210  137.2360 C   0  0  0  0  0  2  0  0  0  0  0  0
  180.4730  179.0870  140.2160 C   0  0  0  0  0  1  0  0  0  0  0  0
  187.5630  177.4750  137.5130 C   0  0  0  0  0  3  0  0  0  0  0  0
  186.3960  177.7620  138.3640 C   0  0  0  0  0  0  0  0  0  0  0  0
  181.8830  179.6650  140.1900 C   0  0  2  0  0  3  0  0  0  0  0  0
  184.4980  179.6690  144.0670 C   0  0  0  0  0  2  0  0  0  0  0  0
  185.9880  178.1040  145.3290 C   0  0  0  0  0  1  0  0  0  0  0  0
  184.6800  178.8720  145.3570 C   0  0  0  0  0  2  0  0  0  0  0  0
  1  5  1  0  0  0  0
  2 16  2  0  0  0  0
  3 17  1  0  0  0  0
  4  1  1  0  0  0  0
  5 11  1  0  0  0  0
  7 15  1  6  0  0  0
  7 27  1  0  0  0  0
  8 11  1  0  0  0  0
  8  6  2  0  0  0  0
  9 14  1  1  0  0  0
  9 22  1  0  0  0  0
  9  7  1  0  0  0  0
 10  3  1  0  0  0  0
 11 28  1  1  0  0  0
 12  4  1  6  0  0  0
 12  8  1  0  0  0  0
 13  2  1  0  0  0  0
 14 23  1  0  0  0  0
 17 26  2  0  0  0  0
 17 20  1  0  0  0  0
 18 13  1  0  0  0  0
 19  2  1  0  0  0  0
 19  1  2  0  0  0  0
 20  4  2  0  0  0  0
 21 10  2  0  0  0  0
 22 10  1  6  0  0  0
 22 20  1  0  0  0  0
 23 15  1  0  0  0  0
 25 18  2  0  0  0  0
 25 26  1  0  0  0  0
 26 19  1  0  0  0  0
 27 24  1  6  0  0  0
 27 12  1  0  0  0  0
 28 30  1  0  0  0  0
 29 30  1  0  0  0  0
M  END
>  <MODEL>
9

>  <REMARK>
 VINA RESULT:      -7.2      3.359      8.357
  Name = 
  2 active torsions:
  status: ('A' for Active; 'I' for Inactive)
    1  A    between atoms: C_9  and  C_12
    2  A    between atoms: C_9  and  C_21
                            x       y       z     vdW  Elec       q    Type
                         _______ _______ _______ _____ _____    ______ ____

>  <TORSDO>
F 2

$$$$
