=
 OpenBabel10272401073D

 27 29  0  0  1  0  0  0  0  0999 V2000
  187.3550  176.0780  143.7180 C   0  0  0  0  0  1  0  0  0  0  0  0
  188.0360  177.3910  144.1420 C   0  0  2  0  0  0  0  0  0  0  0  0
  191.5670  178.4570  143.0670 C   0  0  0  0  0  3  0  0  0  0  0  0
  191.8640  177.5070  142.0900 C   0  0  0  0  0  3  0  0  0  0  0  0
  189.3940  177.4110  143.4460 C   0  0  0  0  0  0  0  0  0  0  0  0
  190.0770  179.3830  144.6580 F   0  0  0  0  0  0  0  0  0  0  0  0
  190.9310  176.5200  141.7720 C   0  0  0  0  0  3  0  0  0  0  0  0
  189.7060  176.4780  142.4390 C   0  0  0  0  0  3  0  0  0  0  0  0
  190.3410  178.4210  143.7380 C   0  0  0  0  0  0  0  0  0  0  0  0
  188.5430  177.7180  148.4430 C   0  0  0  0  0  3  0  0  0  0  0  0
  188.2090  177.4640  145.6620 C   0  0  0  0  0  0  0  0  0  0  0  0
  187.2460  178.1260  146.4420 C   0  0  0  0  0  3  0  0  0  0  0  0
  187.4080  178.2470  147.8240 C   0  0  0  0  0  3  0  0  0  0  0  0
  189.5180  177.0720  147.6800 C   0  0  0  0  0  3  0  0  0  0  0  0
  189.3560  176.9520  146.2970 C   0  0  0  0  0  3  0  0  0  0  0  0
  187.2920  178.5120  143.6800 O   0  0  0  0  0  0  0  0  0  0  0  0
  186.4910  178.1540  142.5770 C   0  0  0  0  0  2  0  0  0  0  0  0
  183.3530  178.8200  144.5690 C   0  0  0  0  0  3  0  0  0  0  0  0
  181.1080  179.2360  143.9060 F   0  0  0  0  0  0  0  0  0  0  0  0
  182.7610  178.8630  142.2200 C   0  0  0  0  0  0  0  0  0  0  0  0
  181.7960  179.0200  141.2310 O   0  0  0  0  0  1  0  0  0  0  0  0
  184.0970  178.5970  141.8740 C   0  0  0  0  0  0  0  0  0  0  0  0
  182.3940  178.9750  143.5660 C   0  0  0  0  0  0  0  0  0  0  0  0
  185.0570  178.4240  142.8920 C   0  0  0  0  0  0  0  0  0  0  0  0
  184.6800  178.5470  144.2330 C   0  0  0  0  0  3  0  0  0  0  0  0
  184.8160  179.7150  139.9160 O   0  0  0  0  0  1  0  0  0  0  0  0
  184.4780  178.4640  140.4320 C   0  0  0  0  0  2  0  0  0  0  0  0
  2  1  1  6  0  0  0
  2 11  1  0  0  0  0
  3  9  1  0  0  0  0
  4  3  2  0  0  0  0
  5  9  2  0  0  0  0
  5  2  1  0  0  0  0
  7  4  1  0  0  0  0
  7  8  2  0  0  0  0
  8  5  1  0  0  0  0
  9  6  1  0  0  0  0
 11 15  2  0  0  0  0
 11 12  1  0  0  0  0
 12 13  2  0  0  0  0
 13 10  1  0  0  0  0
 14 10  2  0  0  0  0
 15 14  1  0  0  0  0
 16  2  1  0  0  0  0
 17 24  1  0  0  0  0
 17 16  1  0  0  0  0
 20 23  1  0  0  0  0
 21 20  1  0  0  0  0
 22 20  2  0  0  0  0
 22 24  1  0  0  0  0
 23 19  1  0  0  0  0
 23 18  2  0  0  0  0
 24 25  2  0  0  0  0
 25 18  1  0  0  0  0
 26 27  1  0  0  0  0
 27 22  1  0  0  0  0
M  END
>  <MODEL>
1

>  <REMARK>
 VINA RESULT:      -8.6      0.000      0.000
  Name = 
  6 active torsions:
  status: ('A' for Active; 'I' for Inactive)
    1  A    between atoms: O_2  and  C_6
    2  A    between atoms: O_2  and  C_15
    3  A    between atoms: C_6  and  C_17
    4  A    between atoms: C_9  and  C_15
    5  A    between atoms: C_14  and  C_19
    6  A    between atoms: C_15  and  C_18
                            x       y       z     vdW  Elec       q    Type
                         _______ _______ _______ _____ _____    ______ ____

>  <TORSDO>
F 6

$$$$
=
 OpenBabel10272401073D

 27 29  0  0  1  0  0  0  0  0999 V2000
  189.9990  178.8700  144.2590 C   0  0  0  0  0  1  0  0  0  0  0  0
  189.9630  177.4060  143.7840 C   0  0  2  0  0  0  0  0  0  0  0  0
  192.1550  174.6210  145.2680 C   0  0  0  0  0  3  0  0  0  0  0  0
  192.4790  175.1510  146.5170 C   0  0  0  0  0  3  0  0  0  0  0  0
  190.8750  176.6290  144.7300 C   0  0  0  0  0  0  0  0  0  0  0  0
  191.0350  174.7810  143.1870 F   0  0  0  0  0  0  0  0  0  0  0  0
  191.9940  176.4050  146.8890 C   0  0  0  0  0  3  0  0  0  0  0  0
  191.1940  177.1320  146.0060 C   0  0  0  0  0  3  0  0  0  0  0  0
  191.3540  175.3460  144.3790 C   0  0  0  0  0  0  0  0  0  0  0  0
  191.3620  177.1600  139.6800 C   0  0  0  0  0  3  0  0  0  0  0  0
  190.4510  177.2770  142.3390 C   0  0  0  0  0  0  0  0  0  0  0  0
  191.7830  177.5940  142.0230 C   0  0  0  0  0  3  0  0  0  0  0  0
  192.2370  177.5290  140.7030 C   0  0  0  0  0  3  0  0  0  0  0  0
  190.0300  176.8590  139.9760 C   0  0  0  0  0  3  0  0  0  0  0  0
  189.5750  176.9230  141.2960 C   0  0  0  0  0  3  0  0  0  0  0  0
  188.6500  176.8730  143.9080 O   0  0  0  0  0  0  0  0  0  0  0  0
  187.9270  177.5610  144.9030 C   0  0  0  0  0  2  0  0  0  0  0  0
  185.1570  178.2810  142.4410 C   0  0  0  0  0  3  0  0  0  0  0  0
  182.9090  178.9920  142.7400 F   0  0  0  0  0  0  0  0  0  0  0  0
  184.2880  178.6770  144.6670 C   0  0  0  0  0  0  0  0  0  0  0  0
  183.2320  179.0500  145.4920 O   0  0  0  0  0  1  0  0  0  0  0  0
  185.5310  178.3210  145.2200 C   0  0  0  0  0  0  0  0  0  0  0  0
  184.1050  178.6540  143.2790 C   0  0  0  0  0  0  0  0  0  0  0  0
  186.5930  177.9610  144.3650 C   0  0  0  0  0  0  0  0  0  0  0  0
  186.3960  177.9340  142.9820 C   0  0  0  0  0  3  0  0  0  0  0  0
  185.8240  179.6860  147.1300 O   0  0  0  0  0  1  0  0  0  0  0  0
  185.7220  178.3620  146.7040 C   0  0  0  0  0  2  0  0  0  0  0  0
  2 16  1  0  0  0  0
  2  1  1  1  0  0  0
  2  5  1  0  0  0  0
  3  4  1  0  0  0  0
  4  7  2  0  0  0  0
  5  8  2  0  0  0  0
  6  9  1  0  0  0  0
  8  7  1  0  0  0  0
  9  5  1  0  0  0  0
  9  3  2  0  0  0  0
 10 14  2  0  0  0  0
 10 13  1  0  0  0  0
 11  2  1  0  0  0  0
 12 11  1  0  0  0  0
 13 12  2  0  0  0  0
 14 15  1  0  0  0  0
 15 11  2  0  0  0  0
 16 17  1  0  0  0  0
 18 25  2  0  0  0  0
 18 23  1  0  0  0  0
 19 23  1  0  0  0  0
 20 22  1  0  0  0  0
 20 21  1  0  0  0  0
 22 27  1  0  0  0  0
 23 20  2  0  0  0  0
 24 17  1  0  0  0  0
 24 22  2  0  0  0  0
 25 24  1  0  0  0  0
 27 26  1  0  0  0  0
M  END
>  <MODEL>
2

>  <REMARK>
 VINA RESULT:      -8.1      2.304      4.797
  Name = 
  6 active torsions:
  status: ('A' for Active; 'I' for Inactive)
    1  A    between atoms: O_2  and  C_6
    2  A    between atoms: O_2  and  C_15
    3  A    between atoms: C_6  and  C_17
    4  A    between atoms: C_9  and  C_15
    5  A    between atoms: C_14  and  C_19
    6  A    between atoms: C_15  and  C_18
                            x       y       z     vdW  Elec       q    Type
                         _______ _______ _______ _____ _____    ______ ____

>  <TORSDO>
F 6

$$$$
=
 OpenBabel10272401073D

 27 29  0  0  1  0  0  0  0  0999 V2000
  187.5550  176.0600  143.6830 C   0  0  0  0  0  1  0  0  0  0  0  0
  187.4560  177.5410  144.0910 C   0  0  2  0  0  0  0  0  0  0  0  0
  189.7140  177.2390  147.1850 C   0  0  0  0  0  3  0  0  0  0  0  0
  188.8650  177.6790  148.2000 C   0  0  0  0  0  3  0  0  0  0  0  0
  187.9620  177.6220  145.5290 C   0  0  0  0  0  0  0  0  0  0  0  0
  190.1190  176.7350  144.9060 F   0  0  0  0  0  0  0  0  0  0  0  0
  187.5620  178.0740  147.8940 C   0  0  0  0  0  3  0  0  0  0  0  0
  187.1140  178.0390  146.5730 C   0  0  0  0  0  3  0  0  0  0  0  0
  189.2710  177.2010  145.8590 C   0  0  0  0  0  0  0  0  0  0  0  0
  183.4060  179.0730  143.7570 C   0  0  0  0  0  3  0  0  0  0  0  0
  186.0140  178.0490  143.9980 C   0  0  0  0  0  0  0  0  0  0  0  0
  185.3370  178.0020  142.7680 C   0  0  0  0  0  3  0  0  0  0  0  0
  184.0390  178.5040  142.6500 C   0  0  0  0  0  3  0  0  0  0  0  0
  184.0730  179.1440  144.9830 C   0  0  0  0  0  3  0  0  0  0  0  0
  185.3710  178.6410  145.1010 C   0  0  0  0  0  3  0  0  0  0  0  0
  188.3100  178.3400  143.2820 O   0  0  0  0  0  0  0  0  0  0  0  0
  188.1410  178.0240  141.9190 C   0  0  0  0  0  2  0  0  0  0  0  0
  191.8650  177.5080  141.5760 C   0  0  0  0  0  3  0  0  0  0  0  0
  193.2370  177.0270  139.6960 F   0  0  0  0  0  0  0  0  0  0  0  0
  190.8810  177.2680  139.3760 C   0  0  0  0  0  0  0  0  0  0  0  0
  191.0340  177.0250  138.0150 O   0  0  0  0  0  1  0  0  0  0  0  0
  189.6060  177.5120  139.9160 C   0  0  0  0  0  0  0  0  0  0  0  0
  192.0060  177.2650  140.2090 C   0  0  0  0  0  0  0  0  0  0  0  0
  189.4740  177.7730  141.2950 C   0  0  0  0  0  0  0  0  0  0  0  0
  190.6040  177.7590  142.1180 C   0  0  0  0  0  3  0  0  0  0  0  0
  188.2460  178.8010  138.4700 O   0  0  0  0  0  1  0  0  0  0  0  0
  188.4090  177.5280  139.0150 C   0  0  0  0  0  2  0  0  0  0  0  0
  2  1  1  6  0  0  0
  2  5  1  0  0  0  0
  3  4  1  0  0  0  0
  5  9  1  0  0  0  0
  5  8  2  0  0  0  0
  6  9  1  0  0  0  0
  7  4  2  0  0  0  0
  8  7  1  0  0  0  0
  9  3  2  0  0  0  0
 10 14  1  0  0  0  0
 11  2  1  0  0  0  0
 11 15  1  0  0  0  0
 12 11  2  0  0  0  0
 13 12  1  0  0  0  0
 13 10  2  0  0  0  0
 14 15  2  0  0  0  0
 16  2  1  0  0  0  0
 17 16  1  0  0  0  0
 18 25  1  0  0  0  0
 19 23  1  0  0  0  0
 20 22  2  0  0  0  0
 20 23  1  0  0  0  0
 21 20  1  0  0  0  0
 22 24  1  0  0  0  0
 23 18  2  0  0  0  0
 24 17  1  0  0  0  0
 24 25  2  0  0  0  0
 26 27  1  0  0  0  0
 27 22  1  0  0  0  0
M  END
>  <MODEL>
3

>  <REMARK>
 VINA RESULT:      -7.9      2.622      6.124
  Name = 
  6 active torsions:
  status: ('A' for Active; 'I' for Inactive)
    1  A    between atoms: O_2  and  C_6
    2  A    between atoms: O_2  and  C_15
    3  A    between atoms: C_6  and  C_17
    4  A    between atoms: C_9  and  C_15
    5  A    between atoms: C_14  and  C_19
    6  A    between atoms: C_15  and  C_18
                            x       y       z     vdW  Elec       q    Type
                         _______ _______ _______ _____ _____    ______ ____

>  <TORSDO>
F 6

$$$$
=
 OpenBabel10272401073D

 27 29  0  0  1  0  0  0  0  0999 V2000
  188.8460  179.3030  141.6400 C   0  0  0  0  0  1  0  0  0  0  0  0
  189.1310  177.7940  141.7460 C   0  0  2  0  0  0  0  0  0  0  0  0
  191.2660  176.1900  144.5080 C   0  0  0  0  0  3  0  0  0  0  0  0
  191.8060  177.3120  145.1370 C   0  0  0  0  0  3  0  0  0  0  0  0
  190.0980  177.6230  142.9150 C   0  0  0  0  0  0  0  0  0  0  0  0
  189.8830  175.2210  142.8470 F   0  0  0  0  0  0  0  0  0  0  0  0
  191.4850  178.5890  144.6760 C   0  0  0  0  0  3  0  0  0  0  0  0
  190.6340  178.7430  143.5810 C   0  0  0  0  0  3  0  0  0  0  0  0
  190.4120  176.3370  143.4100 C   0  0  0  0  0  0  0  0  0  0  0  0
  190.9250  176.3660  138.0580 C   0  0  0  0  0  3  0  0  0  0  0  0
  189.7480  177.2510  140.4540 C   0  0  0  0  0  0  0  0  0  0  0  0
  191.1460  177.1980  140.3190 C   0  0  0  0  0  3  0  0  0  0  0  0
  191.7310  176.7520  139.1310 C   0  0  0  0  0  3  0  0  0  0  0  0
  189.5340  176.4300  138.1700 C   0  0  0  0  0  3  0  0  0  0  0  0
  188.9490  176.8760  139.3580 C   0  0  0  0  0  3  0  0  0  0  0  0
  187.9400  177.0820  142.0570 O   0  0  0  0  0  0  0  0  0  0  0  0
  186.8370  177.9580  142.1100 C   0  0  0  0  0  2  0  0  0  0  0  0
  186.6610  177.5520  145.8590 C   0  0  0  0  0  3  0  0  0  0  0  0
  185.0200  178.1990  147.4530 F   0  0  0  0  0  0  0  0  0  0  0  0
  184.6480  178.6950  145.1440 C   0  0  0  0  0  0  0  0  0  0  0  0
  183.4300  179.2880  145.4610 O   0  0  0  0  0  1  0  0  0  0  0  0
  185.0890  178.6450  143.8100 C   0  0  0  0  0  0  0  0  0  0  0  0
  185.4370  178.1500  146.1640 C   0  0  0  0  0  0  0  0  0  0  0  0
  186.3190  178.0250  143.5080 C   0  0  0  0  0  0  0  0  0  0  0  0
  187.1010  177.4910  144.5360 C   0  0  0  0  0  3  0  0  0  0  0  0
  183.4380  178.2130  142.1700 O   0  0  0  0  0  1  0  0  0  0  0  0
  184.2320  179.2170  142.7230 C   0  0  0  0  0  2  0  0  0  0  0  0
  2  1  1  6  0  0  0
  2 16  1  0  0  0  0
  2  5  1  0  0  0  0
  3  4  1  0  0  0  0
  5  9  1  0  0  0  0
  5  8  2  0  0  0  0
  6  9  1  0  0  0  0
  7  4  2  0  0  0  0
  8  7  1  0  0  0  0
  9  3  2  0  0  0  0
 10 14  2  0  0  0  0
 10 13  1  0  0  0  0
 11  2  1  0  0  0  0
 12 11  1  0  0  0  0
 13 12  2  0  0  0  0
 14 15  1  0  0  0  0
 15 11  2  0  0  0  0
 16 17  1  0  0  0  0
 17 24  1  0  0  0  0
 18 23  1  0  0  0  0
 20 21  1  0  0  0  0
 20 23  2  0  0  0  0
 22 20  1  0  0  0  0
 23 19  1  0  0  0  0
 24 22  2  0  0  0  0
 24 25  1  0  0  0  0
 25 18  2  0  0  0  0
 26 27  1  0  0  0  0
 27 22  1  0  0  0  0
M  END
>  <MODEL>
4

>  <REMARK>
 VINA RESULT:      -7.8      2.473      4.900
  Name = 
  6 active torsions:
  status: ('A' for Active; 'I' for Inactive)
    1  A    between atoms: O_2  and  C_6
    2  A    between atoms: O_2  and  C_15
    3  A    between atoms: C_6  and  C_17
    4  A    between atoms: C_9  and  C_15
    5  A    between atoms: C_14  and  C_19
    6  A    between atoms: C_15  and  C_18
                            x       y       z     vdW  Elec       q    Type
                         _______ _______ _______ _____ _____    ______ ____

>  <TORSDO>
F 6

$$$$
=
 OpenBabel10272401073D

 27 29  0  0  1  0  0  0  0  0999 V2000
  188.4780  175.6900  143.2410 C   0  0  0  0  0  1  0  0  0  0  0  0
  189.2660  176.9810  143.5280 C   0  0  2  0  0  0  0  0  0  0  0  0
  192.2640  178.1820  141.4460 C   0  0  0  0  0  3  0  0  0  0  0  0
  192.0990  177.4550  140.2670 C   0  0  0  0  0  3  0  0  0  0  0  0
  190.2800  177.1220  142.3960 C   0  0  0  0  0  0  0  0  0  0  0  0
  191.5390  178.7770  143.6210 F   0  0  0  0  0  0  0  0  0  0  0  0
  191.0230  176.5760  140.1350 C   0  0  0  0  0  3  0  0  0  0  0  0
  190.1190  176.4180  141.1870 C   0  0  0  0  0  3  0  0  0  0  0  0
  191.3610  178.0270  142.5030 C   0  0  0  0  0  0  0  0  0  0  0  0
  191.2610  176.6620  147.3720 C   0  0  0  0  0  3  0  0  0  0  0  0
  189.9780  176.9110  144.8820 C   0  0  0  0  0  0  0  0  0  0  0  0
  191.1830  176.1990  144.9980 C   0  0  0  0  0  3  0  0  0  0  0  0
  191.8250  176.0810  146.2340 C   0  0  0  0  0  3  0  0  0  0  0  0
  190.0540  177.3580  147.2760 C   0  0  0  0  0  3  0  0  0  0  0  0
  189.4120  177.4760  146.0400 C   0  0  0  0  0  3  0  0  0  0  0  0
  188.4050  178.1120  143.4850 O   0  0  0  0  0  0  0  0  0  0  0  0
  187.3150  177.8740  142.6240 C   0  0  0  0  0  2  0  0  0  0  0  0
  184.8840  178.6280  145.4110 C   0  0  0  0  0  3  0  0  0  0  0  0
  182.5740  179.1880  145.3980 F   0  0  0  0  0  0  0  0  0  0  0  0
  183.6800  178.7930  143.3160 C   0  0  0  0  0  0  0  0  0  0  0  0
  182.4940  179.0390  142.6320 O   0  0  0  0  0  1  0  0  0  0  0  0
  184.8530  178.4690  142.6120 C   0  0  0  0  0  0  0  0  0  0  0  0
  183.7000  178.8730  144.7140 C   0  0  0  0  0  0  0  0  0  0  0  0
  186.0410  178.2070  143.3250 C   0  0  0  0  0  0  0  0  0  0  0  0
  186.0500  178.2980  144.7200 C   0  0  0  0  0  3  0  0  0  0  0  0
  185.0800  179.6220  140.5570 O   0  0  0  0  0  1  0  0  0  0  0  0
  184.8180  178.3720  141.1180 C   0  0  0  0  0  2  0  0  0  0  0  0
  2  1  1  6  0  0  0
  2 11  1  0  0  0  0
  3  9  1  0  0  0  0
  4  3  2  0  0  0  0
  5  9  2  0  0  0  0
  5  2  1  0  0  0  0
  7  4  1  0  0  0  0
  7  8  2  0  0  0  0
  8  5  1  0  0  0  0
  9  6  1  0  0  0  0
 11 12  2  0  0  0  0
 11 15  1  0  0  0  0
 12 13  1  0  0  0  0
 13 10  2  0  0  0  0
 14 10  1  0  0  0  0
 15 14  2  0  0  0  0
 16  2  1  0  0  0  0
 17 24  1  0  0  0  0
 17 16  1  0  0  0  0
 20 23  1  0  0  0  0
 21 20  1  0  0  0  0
 22 20  2  0  0  0  0
 22 24  1  0  0  0  0
 23 19  1  0  0  0  0
 23 18  2  0  0  0  0
 24 25  2  0  0  0  0
 25 18  1  0  0  0  0
 26 27  1  0  0  0  0
 27 22  1  0  0  0  0
M  END
>  <MODEL>
5

>  <REMARK>
 VINA RESULT:      -7.8      1.365      2.003
  Name = 
  6 active torsions:
  status: ('A' for Active; 'I' for Inactive)
    1  A    between atoms: O_2  and  C_6
    2  A    between atoms: O_2  and  C_15
    3  A    between atoms: C_6  and  C_17
    4  A    between atoms: C_9  and  C_15
    5  A    between atoms: C_14  and  C_19
    6  A    between atoms: C_15  and  C_18
                            x       y       z     vdW  Elec       q    Type
                         _______ _______ _______ _____ _____    ______ ____

>  <TORSDO>
F 6

$$$$
=
 OpenBabel10272401073D

 27 29  0  0  1  0  0  0  0  0999 V2000
  191.7040  179.1970  144.0880 C   0  0  0  0  0  1  0  0  0  0  0  0
  190.6810  178.0650  143.8850 C   0  0  2  0  0  0  0  0  0  0  0  0
  191.8880  175.7990  146.7440 C   0  0  0  0  0  3  0  0  0  0  0  0
  192.3200  174.6700  146.0480 C   0  0  0  0  0  3  0  0  0  0  0  0
  191.2240  176.8590  144.6480 C   0  0  0  0  0  0  0  0  0  0  0  0
  190.9740  177.9830  146.7680 F   0  0  0  0  0  0  0  0  0  0  0  0
  192.2250  174.6310  144.6560 C   0  0  0  0  0  3  0  0  0  0  0  0
  191.6890  175.7180  143.9640 C   0  0  0  0  0  3  0  0  0  0  0  0
  191.3510  176.8910  146.0560 C   0  0  0  0  0  0  0  0  0  0  0  0
  190.2370  177.2210  139.6490 C   0  0  0  0  0  3  0  0  0  0  0  0
  190.5070  177.7290  142.4010 C   0  0  0  0  0  0  0  0  0  0  0  0
  191.6410  177.5480  141.5920 C   0  0  0  0  0  3  0  0  0  0  0  0
  191.5070  177.2880  140.2250 C   0  0  0  0  0  3  0  0  0  0  0  0
  189.1000  177.4160  140.4370 C   0  0  0  0  0  3  0  0  0  0  0  0
  189.2350  177.6760  141.8040 C   0  0  0  0  0  3  0  0  0  0  0  0
  189.4280  178.4150  144.4580 O   0  0  0  0  0  0  0  0  0  0  0  0
  188.5750  177.2930  144.5100 C   0  0  0  0  0  2  0  0  0  0  0  0
  185.0420  178.4140  143.7930 C   0  0  0  0  0  3  0  0  0  0  0  0
  183.2210  178.9440  145.2260 F   0  0  0  0  0  0  0  0  0  0  0  0
  185.3000  178.2750  146.1980 C   0  0  0  0  0  0  0  0  0  0  0  0
  184.7570  178.4140  147.4710 O   0  0  0  0  0  1  0  0  0  0  0  0
  186.6340  177.8610  146.0350 C   0  0  0  0  0  0  0  0  0  0  0  0
  184.5080  178.5490  145.0760 C   0  0  0  0  0  0  0  0  0  0  0  0
  187.1700  177.7430  144.7370 C   0  0  0  0  0  0  0  0  0  0  0  0
  186.3680  178.0110  143.6240 C   0  0  0  0  0  3  0  0  0  0  0  0
  187.6610  178.7610  147.9680 O   0  0  0  0  0  1  0  0  0  0  0  0
  187.4770  177.5850  147.2410 C   0  0  0  0  0  2  0  0  0  0  0  0
  2  1  1  1  0  0  0
  2 16  1  0  0  0  0
  2  5  1  0  0  0  0
  4  3  2  0  0  0  0
  5  9  2  0  0  0  0
  7  4  1  0  0  0  0
  8  5  1  0  0  0  0
  8  7  2  0  0  0  0
  9  3  1  0  0  0  0
  9  6  1  0  0  0  0
 10 13  2  0  0  0  0
 10 14  1  0  0  0  0
 11  2  1  0  0  0  0
 12 11  2  0  0  0  0
 13 12  1  0  0  0  0
 14 15  2  0  0  0  0
 15 11  1  0  0  0  0
 16 17  1  0  0  0  0
 17 24  1  0  0  0  0
 18 23  1  0  0  0  0
 20 21  1  0  0  0  0
 22 20  1  0  0  0  0
 22 27  1  0  0  0  0
 23 19  1  0  0  0  0
 23 20  2  0  0  0  0
 24 22  2  0  0  0  0
 25 18  2  0  0  0  0
 25 24  1  0  0  0  0
 27 26  1  0  0  0  0
M  END
>  <MODEL>
6

>  <REMARK>
 VINA RESULT:      -7.5      2.517      5.013
  Name = 
  6 active torsions:
  status: ('A' for Active; 'I' for Inactive)
    1  A    between atoms: O_2  and  C_6
    2  A    between atoms: O_2  and  C_15
    3  A    between atoms: C_6  and  C_17
    4  A    between atoms: C_9  and  C_15
    5  A    between atoms: C_14  and  C_19
    6  A    between atoms: C_15  and  C_18
                            x       y       z     vdW  Elec       q    Type
                         _______ _______ _______ _____ _____    ______ ____

>  <TORSDO>
F 6

$$$$
=
 OpenBabel10272401073D

 27 29  0  0  1  0  0  0  0  0999 V2000
  190.1380  178.8310  143.6580 C   0  0  0  0  0  1  0  0  0  0  0  0
  190.0830  177.3810  143.1450 C   0  0  2  0  0  0  0  0  0  0  0  0
  191.6390  176.1610  146.4390 C   0  0  0  0  0  3  0  0  0  0  0  0
  192.3570  175.0420  146.0160 C   0  0  0  0  0  3  0  0  0  0  0  0
  190.8530  176.5400  144.1590 C   0  0  0  0  0  0  0  0  0  0  0  0
  190.2400  178.0140  145.9690 F   0  0  0  0  0  0  0  0  0  0  0  0
  192.3440  174.6750  144.6700 C   0  0  0  0  0  3  0  0  0  0  0  0
  191.6050  175.4210  143.7510 C   0  0  0  0  0  3  0  0  0  0  0  0
  190.8980  176.9130  145.5230 C   0  0  0  0  0  0  0  0  0  0  0  0
  191.8670  176.9090  139.2140 C   0  0  0  0  0  3  0  0  0  0  0  0
  190.7130  177.2580  141.7540 C   0  0  0  0  0  0  0  0  0  0  0  0
  189.9750  176.6850  140.7050 C   0  0  0  0  0  3  0  0  0  0  0  0
  190.5460  176.5180  139.4410 C   0  0  0  0  0  3  0  0  0  0  0  0
  192.6190  177.4640  140.2520 C   0  0  0  0  0  3  0  0  0  0  0  0
  192.0480  177.6310  141.5170 C   0  0  0  0  0  3  0  0  0  0  0  0
  188.7410  176.9120  143.1180 O   0  0  0  0  0  0  0  0  0  0  0  0
  187.8460  177.9780  142.8960 C   0  0  0  0  0  2  0  0  0  0  0  0
  186.3610  177.6620  146.3520 C   0  0  0  0  0  3  0  0  0  0  0  0
  184.2190  178.2220  147.2190 F   0  0  0  0  0  0  0  0  0  0  0  0
  184.6710  178.6240  144.9060 C   0  0  0  0  0  0  0  0  0  0  0  0
  183.3860  179.1280  144.7370 O   0  0  0  0  0  1  0  0  0  0  0  0
  185.5640  178.5720  143.8220 C   0  0  0  0  0  0  0  0  0  0  0  0
  185.0740  178.1700  146.1680 C   0  0  0  0  0  0  0  0  0  0  0  0
  186.8570  178.0420  144.0110 C   0  0  0  0  0  0  0  0  0  0  0  0
  187.2490  177.6000  145.2780 C   0  0  0  0  0  3  0  0  0  0  0  0
  184.4040  178.0360  141.8290 O   0  0  0  0  0  1  0  0  0  0  0  0
  185.1200  179.0460  142.4720 C   0  0  0  0  0  2  0  0  0  0  0  0
  2  1  1  1  0  0  0
  2  5  1  0  0  0  0
  4  3  1  0  0  0  0
  5  9  1  0  0  0  0
  7  4  2  0  0  0  0
  8  5  2  0  0  0  0
  8  7  1  0  0  0  0
  9  6  1  0  0  0  0
  9  3  2  0  0  0  0
 10 13  2  0  0  0  0
 10 14  1  0  0  0  0
 11  2  1  0  0  0  0
 12 11  2  0  0  0  0
 13 12  1  0  0  0  0
 14 15  2  0  0  0  0
 15 11  1  0  0  0  0
 16  2  1  0  0  0  0
 17 16  1  0  0  0  0
 17 24  1  0  0  0  0
 20 23  2  0  0  0  0
 21 20  1  0  0  0  0
 22 24  2  0  0  0  0
 22 20  1  0  0  0  0
 23 18  1  0  0  0  0
 23 19  1  0  0  0  0
 24 25  1  0  0  0  0
 25 18  2  0  0  0  0
 26 27  1  0  0  0  0
 27 22  1  0  0  0  0
M  END
>  <MODEL>
7

>  <REMARK>
 VINA RESULT:      -7.3      2.185      4.492
  Name = 
  6 active torsions:
  status: ('A' for Active; 'I' for Inactive)
    1  A    between atoms: O_2  and  C_6
    2  A    between atoms: O_2  and  C_15
    3  A    between atoms: C_6  and  C_17
    4  A    between atoms: C_9  and  C_15
    5  A    between atoms: C_14  and  C_19
    6  A    between atoms: C_15  and  C_18
                            x       y       z     vdW  Elec       q    Type
                         _______ _______ _______ _____ _____    ______ ____

>  <TORSDO>
F 6

$$$$
=
 OpenBabel10272401073D

 27 29  0  0  1  0  0  0  0  0999 V2000
  187.7040  176.0630  143.2410 C   0  0  0  0  0  1  0  0  0  0  0  0
  187.9120  177.4790  143.8070 C   0  0  2  0  0  0  0  0  0  0  0  0
  191.5760  177.5610  144.9630 C   0  0  0  0  0  3  0  0  0  0  0  0
  191.4600  177.1760  146.2980 C   0  0  0  0  0  3  0  0  0  0  0  0
  189.1550  177.4060  144.6910 C   0  0  0  0  0  0  0  0  0  0  0  0
  190.5960  178.0160  142.8550 F   0  0  0  0  0  0  0  0  0  0  0  0
  190.2050  176.8880  146.8340 C   0  0  0  0  0  3  0  0  0  0  0  0
  189.0650  176.9950  146.0350 C   0  0  0  0  0  3  0  0  0  0  0  0
  190.4370  177.6700  144.1580 C   0  0  0  0  0  0  0  0  0  0  0  0
  184.4700  178.8830  146.0540 C   0  0  0  0  0  3  0  0  0  0  0  0
  186.6990  177.9380  144.6220 C   0  0  0  0  0  0  0  0  0  0  0  0
  185.4540  178.0930  143.9890 C   0  0  0  0  0  3  0  0  0  0  0  0
  184.3460  178.5570  144.7020 C   0  0  0  0  0  3  0  0  0  0  0  0
  185.7060  178.7500  146.6930 C   0  0  0  0  0  3  0  0  0  0  0  0
  186.8140  178.2870  145.9800 C   0  0  0  0  0  3  0  0  0  0  0  0
  188.1760  178.4030  142.7590 O   0  0  0  0  0  0  0  0  0  0  0  0
  187.1110  178.4230  141.8360 C   0  0  0  0  0  2  0  0  0  0  0  0
  189.5750  178.0970  138.9950 C   0  0  0  0  0  3  0  0  0  0  0  0
  189.2800  177.9980  136.6380 F   0  0  0  0  0  0  0  0  0  0  0  0
  187.3540  178.2150  138.0360 C   0  0  0  0  0  0  0  0  0  0  0  0
  186.5320  178.2200  136.9140 O   0  0  0  0  0  1  0  0  0  0  0  0
  186.7990  178.3190  139.3240 C   0  0  0  0  0  0  0  0  0  0  0  0
  188.7400  178.1030  137.8760 C   0  0  0  0  0  0  0  0  0  0  0  0
  187.6510  178.3290  140.4480 C   0  0  0  0  0  0  0  0  0  0  0  0
  189.0330  178.2080  140.2760 C   0  0  0  0  0  3  0  0  0  0  0  0
  184.9530  179.7980  139.4010 O   0  0  0  0  0  1  0  0  0  0  0  0
  185.3160  178.4540  139.4850 C   0  0  0  0  0  2  0  0  0  0  0  0
  2  1  1  6  0  0  0
  2 11  1  0  0  0  0
  2  5  1  0  0  0  0
  3  4  1  0  0  0  0
  4  7  2  0  0  0  0
  5  8  2  0  0  0  0
  6  9  1  0  0  0  0
  8  7  1  0  0  0  0
  9  5  1  0  0  0  0
  9  3  2  0  0  0  0
 10 14  1  0  0  0  0
 11 15  1  0  0  0  0
 12 11  2  0  0  0  0
 12 13  1  0  0  0  0
 13 10  2  0  0  0  0
 15 14  2  0  0  0  0
 16  2  1  0  0  0  0
 17 16  1  0  0  0  0
 18 25  1  0  0  0  0
 19 23  1  0  0  0  0
 20 22  2  0  0  0  0
 21 20  1  0  0  0  0
 22 27  1  0  0  0  0
 22 24  1  0  0  0  0
 23 20  1  0  0  0  0
 23 18  2  0  0  0  0
 24 17  1  0  0  0  0
 25 24  2  0  0  0  0
 26 27  1  0  0  0  0
M  END
>  <MODEL>
8

>  <REMARK>
 VINA RESULT:      -7.2      2.601      4.572
  Name = 
  6 active torsions:
  status: ('A' for Active; 'I' for Inactive)
    1  A    between atoms: O_2  and  C_6
    2  A    between atoms: O_2  and  C_15
    3  A    between atoms: C_6  and  C_17
    4  A    between atoms: C_9  and  C_15
    5  A    between atoms: C_14  and  C_19
    6  A    between atoms: C_15  and  C_18
                            x       y       z     vdW  Elec       q    Type
                         _______ _______ _______ _____ _____    ______ ____

>  <TORSDO>
F 6

$$$$
=
 OpenBabel10272401073D

 27 29  0  0  1  0  0  0  0  0999 V2000
  188.3340  175.7810  143.3460 C   0  0  0  0  0  1  0  0  0  0  0  0
  188.4390  177.2100  143.9080 C   0  0  2  0  0  0  0  0  0  0  0  0
  191.5960  176.5380  145.9930 C   0  0  0  0  0  3  0  0  0  0  0  0
  191.1750  176.9040  147.2710 C   0  0  0  0  0  3  0  0  0  0  0  0
  189.4110  177.1350  145.0830 C   0  0  0  0  0  0  0  0  0  0  0  0
  191.1630  176.2460  143.6820 F   0  0  0  0  0  0  0  0  0  0  0  0
  189.8740  177.3670  147.4690 C   0  0  0  0  0  3  0  0  0  0  0  0
  188.9990  177.4740  146.3870 C   0  0  0  0  0  3  0  0  0  0  0  0
  190.7250  176.6430  144.9040 C   0  0  0  0  0  0  0  0  0  0  0  0
  184.5950  178.7890  145.1690 C   0  0  0  0  0  3  0  0  0  0  0  0
  187.0740  177.7290  144.3710 C   0  0  0  0  0  0  0  0  0  0  0  0
  186.0890  178.0390  143.4190 C   0  0  0  0  0  3  0  0  0  0  0  0
  184.8540  178.5590  143.8160 C   0  0  0  0  0  3  0  0  0  0  0  0
  185.5710  178.5020  146.1260 C   0  0  0  0  0  3  0  0  0  0  0  0
  186.8060  177.9820  145.7290 C   0  0  0  0  0  3  0  0  0  0  0  0
  188.9940  178.0890  142.9380 O   0  0  0  0  0  0  0  0  0  0  0  0
  189.6470  177.3600  141.9240 C   0  0  0  0  0  2  0  0  0  0  0  0
  187.0550  178.4140  139.3890 C   0  0  0  0  0  3  0  0  0  0  0  0
  187.1120  178.5450  137.0160 F   0  0  0  0  0  0  0  0  0  0  0  0
  189.0610  177.7950  138.1810 C   0  0  0  0  0  0  0  0  0  0  0  0
  189.7310  177.6380  136.9720 O   0  0  0  0  0  1  0  0  0  0  0  0
  189.7050  177.4990  139.3950 C   0  0  0  0  0  0  0  0  0  0  0  0
  187.7380  178.2540  138.1830 C   0  0  0  0  0  0  0  0  0  0  0  0
  189.0030  177.6480  140.6080 C   0  0  0  0  0  0  0  0  0  0  0  0
  187.6850  178.1140  140.5980 C   0  0  0  0  0  3  0  0  0  0  0  0
  191.1430  175.6800  138.9160 O   0  0  0  0  0  1  0  0  0  0  0  0
  191.1150  176.9950  139.3820 C   0  0  0  0  0  2  0  0  0  0  0  0
  2  1  1  6  0  0  0
  2 11  1  0  0  0  0
  2  5  1  0  0  0  0
  3  4  1  0  0  0  0
  4  7  2  0  0  0  0
  5  8  2  0  0  0  0
  6  9  1  0  0  0  0
  8  7  1  0  0  0  0
  9  5  1  0  0  0  0
  9  3  2  0  0  0  0
 10 14  1  0  0  0  0
 11 15  1  0  0  0  0
 12 13  1  0  0  0  0
 12 11  2  0  0  0  0
 13 10  2  0  0  0  0
 15 14  2  0  0  0  0
 16  2  1  0  0  0  0
 17 16  1  0  0  0  0
 18 25  1  0  0  0  0
 19 23  1  0  0  0  0
 20 23  1  0  0  0  0
 20 22  2  0  0  0  0
 21 20  1  0  0  0  0
 22 24  1  0  0  0  0
 23 18  2  0  0  0  0
 24 17  1  0  0  0  0
 25 24  2  0  0  0  0
 26 27  1  0  0  0  0
 27 22  1  0  0  0  0
M  END
>  <MODEL>
9

>  <REMARK>
 VINA RESULT:      -7.2      3.079      5.194
  Name = 
  6 active torsions:
  status: ('A' for Active; 'I' for Inactive)
    1  A    between atoms: O_2  and  C_6
    2  A    between atoms: O_2  and  C_15
    3  A    between atoms: C_6  and  C_17
    4  A    between atoms: C_9  and  C_15
    5  A    between atoms: C_14  and  C_19
    6  A    between atoms: C_15  and  C_18
                            x       y       z     vdW  Elec       q    Type
                         _______ _______ _______ _____ _____    ______ ____

>  <TORSDO>
F 6

$$$$
