=
 OpenBabel10272414583D

 37 41  0  0  1  0  0  0  0  0999 V2000
  190.0810  176.0330  137.7180 C   0  0  0  0  0  0  0  0  0  0  0  0
  189.0500  172.7410  136.1130 C   0  0  0  0  0  2  0  0  0  0  0  0
  188.8990  176.5760  138.1110 C   0  0  0  0  0  0  0  0  0  0  0  0
  188.9830  173.9550  137.0320 C   0  0  1  0  0  3  0  0  0  0  0  0
  190.1110  174.9160  136.7230 C   0  0  0  0  0  2  0  0  0  0  0  0
  187.6650  174.6960  136.8150 C   0  0  1  0  0  3  0  0  0  0  0  0
  186.5290  172.5440  136.2510 C   0  0  0  0  0  2  0  0  0  0  0  0
  186.4900  173.7810  137.1470 C   0  0  0  0  0  2  0  0  0  0  0  0
  187.5730  176.0210  137.5960 C   0  0  2  0  0  3  0  0  0  0  0  0
  187.8670  171.8100  136.3980 C   0  0  1  0  0  3  0  0  0  0  0  0
  186.1130  176.5520  135.6240 O   0  0  0  0  0  0  0  0  0  0  0  0
  187.2810  177.3020  135.3630 C   0  0  0  0  0  0  0  0  0  0  0  0
  186.9360  178.6100  134.6750 C   0  0  0  0  0  1  0  0  0  0  0  0
  188.3500  176.4200  134.7430 C   0  0  0  0  0  1  0  0  0  0  0  0
  186.8040  177.0520  136.7490 C   0  0  2  0  0  0  0  0  0  0  0  0
  186.1800  178.1510  137.3720 O   0  0  0  0  0  0  0  0  0  0  0  0
  185.0390  177.6690  138.0220 C   0  0  0  0  0  2  0  0  0  0  0  0
  184.4200  178.7810  138.8470 C   0  0  0  0  0  2  0  0  0  0  0  0
  184.1440  178.5170  141.3100 C   0  0  0  0  0  1  0  0  0  0  0  0
  185.1070  178.8820  140.1970 C   0  0  0  0  0  2  0  0  0  0  0  0
  188.8960  178.8650  138.7900 O   0  0  0  0  0  0  0  0  0  0  0  0
  188.6770  177.3080  140.5080 N   0  0  0  0  0  2  0  0  0  0  0  0
  188.8310  177.6520  139.1290 C   0  0  0  0  0  0  0  0  0  0  0  0
  189.7270  178.7320  143.8650 C   0  0  0  0  0  2  0  0  0  0  0  0
  189.1270  177.7370  142.8870 C   0  0  1  0  0  0  0  0  0  0  0  0
  189.5600  176.2720  142.9660 C   0  0  0  0  0  2  0  0  0  0  0  0
  191.4970  174.9950  143.5170 O   0  0  0  0  0  0  0  0  0  0  0  0
  191.6840  177.2630  143.9920 N   0  0  0  0  0  2  0  0  0  0  0  0
  190.9650  176.1340  143.4800 C   0  0  0  0  0  0  0  0  0  0  0  0
  187.6520  177.9330  142.6270 C   0  0  0  0  0  2  0  0  0  0  0  0
  191.2430  178.6370  143.7710 C   0  0  0  0  0  2  0  0  0  0  0  0
  188.6660  178.3170  141.5580 C   0  0  2  0  0  3  0  0  0  0  0  0
  187.9180  170.5620  135.5210 C   0  0  0  0  0  2  0  0  0  0  0  0
  186.5490  170.1780  134.9760 C   0  0  0  0  0  1  0  0  0  0  0  0
  191.3990  176.4370  138.3020 C   0  0  0  0  0  2  0  0  0  0  0  0
  193.6750  175.5490  137.9090 C   0  0  0  0  0  1  0  0  0  0  0  0
  192.5060  176.2730  137.2770 C   0  0  0  0  0  2  0  0  0  0  0  0
  1  3  2  0  0  0  0
  1 35  1  0  0  0  0
  2 10  1  0  0  0  0
  3 23  1  0  0  0  0
  4  2  1  6  0  0  0
  5  4  1  0  0  0  0
  5  1  1  0  0  0  0
  6  4  1  0  0  0  0
  6  8  1  1  0  0  0
  6  9  1  0  0  0  0
  7 10  1  0  0  0  0
  7  8  1  0  0  0  0
  9  3  1  6  0  0  0
 10 33  1  6  0  0  0
 11 15  1  0  0  0  0
 12 11  1  0  0  0  0
 12 15  1  0  0  0  0
 13 12  1  0  0  0  0
 14 12  1  0  0  0  0
 15 16  1  1  0  0  0
 15  9  1  0  0  0  0
 16 17  1  0  0  0  0
 17 18  1  0  0  0  0
 18 20  1  0  0  0  0
 20 19  1  0  0  0  0
 21 23  2  0  0  0  0
 23 22  1  0  0  0  0
 25 30  1  1  0  0  0
 25 26  1  0  0  0  0
 25 24  1  0  0  0  0
 26 29  1  0  0  0  0
 29 27  2  0  0  0  0
 29 28  1  0  0  0  0
 31 24  1  0  0  0  0
 31 28  1  0  0  0  0
 32 22  1  6  0  0  0
 32 30  1  0  0  0  0
 32 25  1  0  0  0  0
 34 33  1  0  0  0  0
 37 36  1  0  0  0  0
 37 35  1  0  0  0  0
M  END
>  <MODEL>
1

>  <REMARK>
 VINA RESULT:      -6.5      0.000      0.000
  Name = 
  10 active torsions:
  status: ('A' for Active; 'I' for Inactive)
    1  A    between atoms: C_3  and  C_32
    2  A    between atoms: C_4  and  C_24
    3  A    between atoms: C_10  and  C_27
    4  A    between atoms: N_14  and  C_37
    5  A    between atoms: C_17  and  C_26
    6  A    between atoms: C_17  and  O_33
    7  A    between atoms: C_24  and  C_28
    8  A    between atoms: C_26  and  C_34
    9  A    between atoms: C_29  and  C_36
   10  A    between atoms: O_33  and  C_36
                            x       y       z     vdW  Elec       q    Type
                         _______ _______ _______ _____ _____    ______ ____

>  <TORSDO>
F 10

$$$$
=
 OpenBabel10272414583D

 37 41  0  0  1  0  0  0  0  0999 V2000
  185.3380  178.1880  139.3520 C   0  0  0  0  0  0  0  0  0  0  0  0
  183.1530  175.8690  137.2730 C   0  0  0  0  0  2  0  0  0  0  0  0
  184.6690  178.2760  140.5320 C   0  0  0  0  0  0  0  0  0  0  0  0
  183.7800  176.4960  138.5120 C   0  0  1  0  0  3  0  0  0  0  0  0
  184.6510  177.6730  138.1260 C   0  0  0  0  0  2  0  0  0  0  0  0
  182.6820  177.0120  139.4410 C   0  0  1  0  0  3  0  0  0  0  0  0
  181.1530  175.1940  138.6720 C   0  0  0  0  0  2  0  0  0  0  0  0
  181.7920  175.8570  139.8900 C   0  0  0  0  0  2  0  0  0  0  0  0
  183.2250  177.7960  140.6520 C   0  0  2  0  0  3  0  0  0  0  0  0
  182.2280  174.7200  137.6870 C   0  0  1  0  0  3  0  0  0  0  0  0
  182.7100  179.9030  141.9170 O   0  0  0  0  0  0  0  0  0  0  0  0
  181.7060  179.0140  142.3600 C   0  0  0  0  0  0  0  0  0  0  0  0
  180.4060  179.7560  142.6140 C   0  0  0  0  0  1  0  0  0  0  0  0
  182.2450  178.1070  143.4530 C   0  0  0  0  0  1  0  0  0  0  0  0
  182.2570  178.9470  140.9810 C   0  0  2  0  0  0  0  0  0  0  0  0
  181.4170  179.4700  139.9780 O   0  0  0  0  0  0  0  0  0  0  0  0
  182.1940  180.3250  139.1880 C   0  0  0  0  0  2  0  0  0  0  0  0
  181.5300  180.5050  137.8360 C   0  0  0  0  0  2  0  0  0  0  0  0
  181.2730  178.6860  136.1510 C   0  0  0  0  0  1  0  0  0  0  0  0
  180.7550  179.2560  137.4570 C   0  0  0  0  0  2  0  0  0  0  0  0
  185.4770  179.9700  142.0090 O   0  0  0  0  0  0  0  0  0  0  0  0
  185.8010  177.7770  142.7240 N   0  0  0  0  0  2  0  0  0  0  0  0
  185.3330  178.7390  141.7760 C   0  0  0  0  0  0  0  0  0  0  0  0
  188.8940  178.0620  144.9030 C   0  0  0  0  0  2  0  0  0  0  0  0
  187.8080  177.3810  144.0890 C   0  0  1  0  0  0  0  0  0  0  0  0
  188.2120  176.3650  143.0190 C   0  0  0  0  0  2  0  0  0  0  0  0
  189.9970  175.9820  141.4850 O   0  0  0  0  0  0  0  0  0  0  0  0
  190.3950  177.7010  142.9990 N   0  0  0  0  0  2  0  0  0  0  0  0
  189.5630  176.6760  142.4400 C   0  0  0  0  0  0  0  0  0  0  0  0
  186.5880  176.9850  144.8880 C   0  0  0  0  0  2  0  0  0  0  0  0
  189.8840  178.6970  143.9380 C   0  0  0  0  0  2  0  0  0  0  0  0
  186.5150  178.1680  143.9310 C   0  0  2  0  0  3  0  0  0  0  0  0
  181.6080  174.0400  136.4690 C   0  0  0  0  0  2  0  0  0  0  0  0
  180.3850  174.7820  135.9480 C   0  0  0  0  0  1  0  0  0  0  0  0
  186.7940  178.5040  139.2130 C   0  0  0  0  0  2  0  0  0  0  0  0
  188.3720  176.9200  138.1530 C   0  0  0  0  0  1  0  0  0  0  0  0
  187.3270  177.9820  137.8910 C   0  0  0  0  0  2  0  0  0  0  0  0
  1  3  2  0  0  0  0
  2 10  1  0  0  0  0
  3 23  1  0  0  0  0
  4  2  1  6  0  0  0
  4  6  1  0  0  0  0
  5  4  1  0  0  0  0
  5  1  1  0  0  0  0
  6  8  1  1  0  0  0
  6  9  1  0  0  0  0
  7  8  1  0  0  0  0
  9  3  1  6  0  0  0
  9 15  1  0  0  0  0
 10 33  1  6  0  0  0
 10  7  1  0  0  0  0
 11 12  1  0  0  0  0
 12 13  1  0  0  0  0
 12 14  1  0  0  0  0
 15 16  1  6  0  0  0
 15 11  1  0  0  0  0
 15 12  1  0  0  0  0
 17 16  1  0  0  0  0
 18 17  1  0  0  0  0
 19 20  1  0  0  0  0
 20 18  1  0  0  0  0
 23 21  2  0  0  0  0
 23 22  1  0  0  0  0
 25 26  1  6  0  0  0
 25 30  1  0  0  0  0
 25 24  1  0  0  0  0
 27 29  2  0  0  0  0
 28 31  1  0  0  0  0
 29 28  1  0  0  0  0
 29 26  1  0  0  0  0
 31 24  1  0  0  0  0
 32 22  1  6  0  0  0
 32 25  1  0  0  0  0
 32 30  1  0  0  0  0
 34 33  1  0  0  0  0
 35  1  1  0  0  0  0
 37 36  1  0  0  0  0
 37 35  1  0  0  0  0
M  END
>  <MODEL>
2

>  <REMARK>
 VINA RESULT:      -6.4      3.414      5.677
  Name = 
  10 active torsions:
  status: ('A' for Active; 'I' for Inactive)
    1  A    between atoms: C_3  and  C_32
    2  A    between atoms: C_4  and  C_24
    3  A    between atoms: C_10  and  C_27
    4  A    between atoms: N_14  and  C_37
    5  A    between atoms: C_17  and  C_26
    6  A    between atoms: C_17  and  O_33
    7  A    between atoms: C_24  and  C_28
    8  A    between atoms: C_26  and  C_34
    9  A    between atoms: C_29  and  C_36
   10  A    between atoms: O_33  and  C_36
                            x       y       z     vdW  Elec       q    Type
                         _______ _______ _______ _____ _____    ______ ____

>  <TORSDO>
F 10

$$$$
=
 OpenBabel10272414583D

 37 41  0  0  1  0  0  0  0  0999 V2000
  186.0380  173.6380  137.2630 C   0  0  0  0  0  0  0  0  0  0  0  0
  189.3690  172.5040  135.8150 C   0  0  0  0  0  2  0  0  0  0  0  0
  185.9130  174.9110  136.8050 C   0  0  0  0  0  0  0  0  0  0  0  0
  188.0630  173.2810  135.9340 C   0  0  1  0  0  3  0  0  0  0  0  0
  187.3660  172.9470  137.2360 C   0  0  0  0  0  2  0  0  0  0  0  0
  188.3540  174.7810  135.9300 C   0  0  1  0  0  3  0  0  0  0  0  0
  190.3390  174.4110  134.4610 C   0  0  0  0  0  2  0  0  0  0  0  0
  189.0280  175.1800  134.6210 C   0  0  0  0  0  2  0  0  0  0  0  0
  187.1050  175.6450  136.1960 C   0  0  2  0  0  3  0  0  0  0  0  0
  190.0910  172.8990  134.5230 C   0  0  1  0  0  3  0  0  0  0  0  0
  186.5120  177.8460  137.2490 O   0  0  0  0  0  0  0  0  0  0  0  0
  187.5350  178.1950  136.3410 C   0  0  0  0  0  0  0  0  0  0  0  0
  188.3880  179.3190  136.9000 C   0  0  0  0  0  1  0  0  0  0  0  0
  186.9710  178.3470  134.9380 C   0  0  0  0  0  1  0  0  0  0  0  0
  187.5130  176.8760  137.0260 C   0  0  2  0  0  0  0  0  0  0  0  0
  188.4340  176.7390  138.0840 O   0  0  0  0  0  0  0  0  0  0  0  0
  187.7900  177.1590  139.2530 C   0  0  0  0  0  2  0  0  0  0  0  0
  188.7920  177.8450  140.1620 C   0  0  0  0  0  2  0  0  0  0  0  0
  190.9710  177.3830  141.2800 C   0  0  0  0  0  1  0  0  0  0  0  0
  190.1640  177.2140  140.0080 C   0  0  0  0  0  2  0  0  0  0  0  0
  184.1120  176.0100  135.6850 O   0  0  0  0  0  0  0  0  0  0  0  0
  183.8890  175.8160  137.9960 N   0  0  0  0  0  2  0  0  0  0  0  0
  184.6040  175.6090  136.7750 C   0  0  0  0  0  0  0  0  0  0  0  0
  181.7080  178.7760  138.9330 C   0  0  0  0  0  2  0  0  0  0  0  0
  182.6350  177.5920  139.1440 C   0  0  1  0  0  0  0  0  0  0  0  0
  183.8850  177.7770  140.0070 C   0  0  0  0  0  2  0  0  0  0  0  0
  185.4710  179.4770  140.5350 O   0  0  0  0  0  0  0  0  0  0  0  0
  183.6510  180.2240  139.2960 N   0  0  0  0  0  2  0  0  0  0  0  0
  184.3970  179.1880  139.9480 C   0  0  0  0  0  0  0  0  0  0  0  0
  181.9250  176.2760  139.3600 C   0  0  0  0  0  2  0  0  0  0  0  0
  182.5330  179.9380  138.4010 C   0  0  0  0  0  2  0  0  0  0  0  0
  182.6310  176.5470  138.0380 C   0  0  2  0  0  3  0  0  0  0  0  0
  191.3880  172.1140  134.3480 C   0  0  0  0  0  2  0  0  0  0  0  0
  192.3700  172.3510  135.4870 C   0  0  0  0  0  1  0  0  0  0  0  0
  184.8750  172.8200  137.7310 C   0  0  0  0  0  2  0  0  0  0  0  0
  183.0160  171.3610  136.9980 C   0  0  0  0  0  1  0  0  0  0  0  0
  184.3600  171.9380  136.6100 C   0  0  0  0  0  2  0  0  0  0  0  0
  1 35  1  0  0  0  0
  3  1  2  0  0  0  0
  4  2  1  1  0  0  0
  4  5  1  0  0  0  0
  5  1  1  0  0  0  0
  6  8  1  6  0  0  0
  6  4  1  0  0  0  0
  6  9  1  0  0  0  0
  7 10  1  0  0  0  0
  7  8  1  0  0  0  0
  9  3  1  1  0  0  0
  9 15  1  0  0  0  0
 10 33  1  1  0  0  0
 10  2  1  0  0  0  0
 12 13  1  0  0  0  0
 12 15  1  0  0  0  0
 12 11  1  0  0  0  0
 14 12  1  0  0  0  0
 15 11  1  0  0  0  0
 15 16  1  1  0  0  0
 16 17  1  0  0  0  0
 17 18  1  0  0  0  0
 20 18  1  0  0  0  0
 20 19  1  0  0  0  0
 21 23  2  0  0  0  0
 23  3  1  0  0  0  0
 23 22  1  0  0  0  0
 25 24  1  6  0  0  0
 25 30  1  0  0  0  0
 25 26  1  0  0  0  0
 28 29  1  0  0  0  0
 29 26  1  0  0  0  0
 29 27  2  0  0  0  0
 31 24  1  0  0  0  0
 31 28  1  0  0  0  0
 32 22  1  1  0  0  0
 32 25  1  0  0  0  0
 32 30  1  0  0  0  0
 33 34  1  0  0  0  0
 37 36  1  0  0  0  0
 37 35  1  0  0  0  0
M  END
>  <MODEL>
3

>  <REMARK>
 VINA RESULT:      -6.2      2.918      5.883
  Name = 
  10 active torsions:
  status: ('A' for Active; 'I' for Inactive)
    1  A    between atoms: C_3  and  C_32
    2  A    between atoms: C_4  and  C_24
    3  A    between atoms: C_10  and  C_27
    4  A    between atoms: N_14  and  C_37
    5  A    between atoms: C_17  and  C_26
    6  A    between atoms: C_17  and  O_33
    7  A    between atoms: C_24  and  C_28
    8  A    between atoms: C_26  and  C_34
    9  A    between atoms: C_29  and  C_36
   10  A    between atoms: O_33  and  C_36
                            x       y       z     vdW  Elec       q    Type
                         _______ _______ _______ _____ _____    ______ ____

>  <TORSDO>
F 10

$$$$
=
 OpenBabel10272414583D

 37 41  0  0  1  0  0  0  0  0999 V2000
  185.5290  178.0560  138.9510 C   0  0  0  0  0  0  0  0  0  0  0  0
  183.4930  175.6430  136.8280 C   0  0  0  0  0  2  0  0  0  0  0  0
  184.8220  178.1320  140.1080 C   0  0  0  0  0  0  0  0  0  0  0  0
  184.0580  176.3040  138.0800 C   0  0  1  0  0  3  0  0  0  0  0  0
  184.9000  177.5060  137.7090 C   0  0  0  0  0  2  0  0  0  0  0  0
  182.9150  176.7890  138.9690 C   0  0  1  0  0  3  0  0  0  0  0  0
  181.4740  174.9120  138.1710 C   0  0  0  0  0  2  0  0  0  0  0  0
  182.0520  175.6080  139.4020 C   0  0  0  0  0  2  0  0  0  0  0  0
  183.3920  177.6030  140.1880 C   0  0  2  0  0  3  0  0  0  0  0  0
  182.5950  174.4660  137.2250 C   0  0  1  0  0  3  0  0  0  0  0  0
  181.0990  178.5800  139.8880 O   0  0  0  0  0  0  0  0  0  0  0  0
  181.9390  179.5700  139.3330 C   0  0  0  0  0  0  0  0  0  0  0  0
  181.3810  180.9560  139.5960 C   0  0  0  0  0  1  0  0  0  0  0  0
  182.3210  179.2040  137.9090 C   0  0  0  0  0  1  0  0  0  0  0  0
  182.3750  178.7230  140.4740 C   0  0  2  0  0  0  0  0  0  0  0  0
  182.3680  179.3650  141.7290 O   0  0  0  0  0  0  0  0  0  0  0  0
  181.3320  178.7990  142.4810 C   0  0  0  0  0  2  0  0  0  0  0  0
  181.7490  178.7230  143.9370 C   0  0  0  0  0  2  0  0  0  0  0  0
  183.7310  178.7890  145.4460 C   0  0  0  0  0  1  0  0  0  0  0  0
  183.1720  179.2240  144.1060 C   0  0  0  0  0  2  0  0  0  0  0  0
  185.3940  179.8560  141.6590 O   0  0  0  0  0  0  0  0  0  0  0  0
  186.0500  177.7040  142.2620 N   0  0  0  0  0  2  0  0  0  0  0  0
  185.4290  178.6290  141.3670 C   0  0  0  0  0  0  0  0  0  0  0  0
  189.0810  178.1760  144.4960 C   0  0  0  0  0  2  0  0  0  0  0  0
  188.0510  177.4310  143.6650 C   0  0  1  0  0  0  0  0  0  0  0  0
  188.5350  176.4380  142.6060 C   0  0  0  0  0  2  0  0  0  0  0  0
  190.3660  176.1580  141.1050 O   0  0  0  0  0  0  0  0  0  0  0  0
  190.6340  177.9010  142.6200 N   0  0  0  0  0  2  0  0  0  0  0  0
  189.8750  176.8270  142.0500 C   0  0  0  0  0  0  0  0  0  0  0  0
  186.8430  176.9650  144.4440 C   0  0  0  0  0  2  0  0  0  0  0  0
  190.0490  178.8670  143.5460 C   0  0  0  0  0  2  0  0  0  0  0  0
  186.7170  178.1390  143.4810 C   0  0  2  0  0  3  0  0  0  0  0  0
  182.0370  173.7540  135.9960 C   0  0  0  0  0  2  0  0  0  0  0  0
  181.7800  172.2750  136.2470 C   0  0  0  0  0  1  0  0  0  0  0  0
  186.9780  178.4220  138.8530 C   0  0  0  0  0  2  0  0  0  0  0  0
  188.8550  178.7430  137.2740 C   0  0  0  0  0  1  0  0  0  0  0  0
  187.5300  178.0440  137.4910 C   0  0  0  0  0  2  0  0  0  0  0  0
  1  3  2  0  0  0  0
  2 10  1  0  0  0  0
  3 23  1  0  0  0  0
  4  2  1  6  0  0  0
  4  6  1  0  0  0  0
  5  4  1  0  0  0  0
  5  1  1  0  0  0  0
  6  8  1  1  0  0  0
  6  9  1  0  0  0  0
  7  8  1  0  0  0  0
  9  3  1  6  0  0  0
  9 15  1  0  0  0  0
 10 33  1  6  0  0  0
 10  7  1  0  0  0  0
 11 15  1  0  0  0  0
 12 13  1  0  0  0  0
 12 11  1  0  0  0  0
 12 15  1  0  0  0  0
 14 12  1  0  0  0  0
 15 16  1  1  0  0  0
 16 17  1  0  0  0  0
 17 18  1  0  0  0  0
 18 20  1  0  0  0  0
 20 19  1  0  0  0  0
 23 21  2  0  0  0  0
 23 22  1  0  0  0  0
 25 26  1  6  0  0  0
 25 30  1  0  0  0  0
 25 24  1  0  0  0  0
 27 29  2  0  0  0  0
 28 31  1  0  0  0  0
 29 26  1  0  0  0  0
 29 28  1  0  0  0  0
 31 24  1  0  0  0  0
 32 22  1  6  0  0  0
 32 25  1  0  0  0  0
 32 30  1  0  0  0  0
 33 34  1  0  0  0  0
 35  1  1  0  0  0  0
 36 37  1  0  0  0  0
 37 35  1  0  0  0  0
M  END
>  <MODEL>
4

>  <REMARK>
 VINA RESULT:      -5.8      3.495      5.043
  Name = 
  10 active torsions:
  status: ('A' for Active; 'I' for Inactive)
    1  A    between atoms: C_3  and  C_32
    2  A    between atoms: C_4  and  C_24
    3  A    between atoms: C_10  and  C_27
    4  A    between atoms: N_14  and  C_37
    5  A    between atoms: C_17  and  C_26
    6  A    between atoms: C_17  and  O_33
    7  A    between atoms: C_24  and  C_28
    8  A    between atoms: C_26  and  C_34
    9  A    between atoms: C_29  and  C_36
   10  A    between atoms: O_33  and  C_36
                            x       y       z     vdW  Elec       q    Type
                         _______ _______ _______ _____ _____    ______ ____

>  <TORSDO>
F 10

$$$$
=
 OpenBabel10272414583D

 37 41  0  0  1  0  0  0  0  0999 V2000
  186.0060  178.0720  138.0470 C   0  0  0  0  0  0  0  0  0  0  0  0
  182.8280  179.2890  139.7490 C   0  0  0  0  0  2  0  0  0  0  0  0
  185.5570  177.5590  136.8710 C   0  0  0  0  0  0  0  0  0  0  0  0
  183.7760  178.9070  138.6190 C   0  0  1  0  0  3  0  0  0  0  0  0
  185.0580  178.3260  139.1770 C   0  0  0  0  0  2  0  0  0  0  0  0
  183.1260  177.8420  137.7370 C   0  0  1  0  0  3  0  0  0  0  0  0
  180.8690  178.7930  138.2230 C   0  0  0  0  0  2  0  0  0  0  0  0
  181.8430  178.3880  137.1180 C   0  0  0  0  0  2  0  0  0  0  0  0
  184.0710  177.2870  136.6530 C   0  0  2  0  0  3  0  0  0  0  0  0
  181.5130  179.8170  139.1650 C   0  0  1  0  0  3  0  0  0  0  0  0
  184.2450  175.2120  135.2500 O   0  0  0  0  0  0  0  0  0  0  0  0
  182.8500  175.4060  135.3570 C   0  0  0  0  0  0  0  0  0  0  0  0
  182.1260  174.0730  135.4170 C   0  0  0  0  0  1  0  0  0  0  0  0
  182.3790  176.4380  134.3470 C   0  0  0  0  0  1  0  0  0  0  0  0
  183.7800  175.7880  136.4520 C   0  0  2  0  0  0  0  0  0  0  0  0
  183.7910  174.9140  137.5570 O   0  0  0  0  0  0  0  0  0  0  0  0
  185.0380  174.2800  137.5740 C   0  0  0  0  0  2  0  0  0  0  0  0
  184.8410  172.7820  137.7100 C   0  0  0  0  0  2  0  0  0  0  0  0
  186.6190  172.7420  135.9630 C   0  0  0  0  0  1  0  0  0  0  0  0
  185.3620  172.0670  136.4770 C   0  0  0  0  0  2  0  0  0  0  0  0
  186.2370  177.8940  134.6070 O   0  0  0  0  0  0  0  0  0  0  0  0
  187.6060  176.4950  135.8700 N   0  0  0  0  0  2  0  0  0  0  0  0
  186.4610  177.3380  135.7160 C   0  0  0  0  0  0  0  0  0  0  0  0
  190.8470  175.2320  134.3530 C   0  0  0  0  0  2  0  0  0  0  0  0
  189.9420  176.0960  135.2140 C   0  0  1  0  0  0  0  0  0  0  0  0
  190.2830  176.2760  136.6950 C   0  0  0  0  0  2  0  0  0  0  0  0
  191.2720  175.0390  138.4770 O   0  0  0  0  0  0  0  0  0  0  0  0
  191.4490  174.0180  136.3960 N   0  0  0  0  0  2  0  0  0  0  0  0
  191.0030  175.0800  137.2490 C   0  0  0  0  0  0  0  0  0  0  0  0
  189.4530  177.3540  134.5340 C   0  0  0  0  0  2  0  0  0  0  0  0
  190.9800  173.8710  135.0210 C   0  0  0  0  0  2  0  0  0  0  0  0
  188.4940  176.1910  134.7570 C   0  0  2  0  0  3  0  0  0  0  0  0
  180.5480  180.2450  140.2670 C   0  0  0  0  0  2  0  0  0  0  0  0
  180.6370  179.3530  141.4970 C   0  0  0  0  0  1  0  0  0  0  0  0
  187.4250  178.4960  138.2640 C   0  0  0  0  0  2  0  0  0  0  0  0
  188.4770  178.4200  140.5020 C   0  0  0  0  0  1  0  0  0  0  0  0
  188.0960  177.6010  139.2890 C   0  0  0  0  0  2  0  0  0  0  0  0
  1 35  1  0  0  0  0
  1  5  1  0  0  0  0
  3  1  2  0  0  0  0
  4  5  1  1  0  0  0
  4  2  1  0  0  0  0
  6  8  1  6  0  0  0
  6  4  1  0  0  0  0
  7 10  1  0  0  0  0
  8  7  1  0  0  0  0
  9  3  1  1  0  0  0
  9  6  1  0  0  0  0
 10  2  1  0  0  0  0
 10 33  1  1  0  0  0
 11 12  1  0  0  0  0
 11 15  1  0  0  0  0
 12 13  1  0  0  0  0
 12 15  1  0  0  0  0
 14 12  1  0  0  0  0
 15  9  1  0  0  0  0
 15 16  1  1  0  0  0
 16 17  1  0  0  0  0
 17 18  1  0  0  0  0
 19 20  1  0  0  0  0
 20 18  1  0  0  0  0
 21 23  2  0  0  0  0
 23 22  1  0  0  0  0
 23  3  1  0  0  0  0
 24 31  1  0  0  0  0
 25 24  1  6  0  0  0
 25 26  1  0  0  0  0
 26 29  1  0  0  0  0
 28 29  1  0  0  0  0
 29 27  2  0  0  0  0
 30 32  1  0  0  0  0
 30 25  1  0  0  0  0
 31 28  1  0  0  0  0
 32 25  1  0  0  0  0
 32 22  1  1  0  0  0
 33 34  1  0  0  0  0
 35 37  1  0  0  0  0
 37 36  1  0  0  0  0
M  END
>  <MODEL>
5

>  <REMARK>
 VINA RESULT:      -5.8      2.846      7.092
  Name = 
  10 active torsions:
  status: ('A' for Active; 'I' for Inactive)
    1  A    between atoms: C_3  and  C_32
    2  A    between atoms: C_4  and  C_24
    3  A    between atoms: C_10  and  C_27
    4  A    between atoms: N_14  and  C_37
    5  A    between atoms: C_17  and  C_26
    6  A    between atoms: C_17  and  O_33
    7  A    between atoms: C_24  and  C_28
    8  A    between atoms: C_26  and  C_34
    9  A    between atoms: C_29  and  C_36
   10  A    between atoms: O_33  and  C_36
                            x       y       z     vdW  Elec       q    Type
                         _______ _______ _______ _____ _____    ______ ____

>  <TORSDO>
F 10

$$$$
=
 OpenBabel10272414583D

 37 41  0  0  1  0  0  0  0  0999 V2000
  190.0740  176.3620  141.8010 C   0  0  0  0  0  0  0  0  0  0  0  0
  186.6480  177.5280  142.9760 C   0  0  0  0  0  2  0  0  0  0  0  0
  190.2510  177.0310  140.6320 C   0  0  0  0  0  0  0  0  0  0  0  0
  187.9950  177.5690  142.2630 C   0  0  1  0  0  3  0  0  0  0  0  0
  188.7130  176.2450  142.4120 C   0  0  0  0  0  2  0  0  0  0  0  0
  187.7820  177.8210  140.7720 C   0  0  1  0  0  3  0  0  0  0  0  0
  185.7380  179.1650  141.2730 C   0  0  0  0  0  2  0  0  0  0  0  0
  187.0900  179.1640  140.5610 C   0  0  0  0  0  2  0  0  0  0  0  0
  189.0800  177.7310  139.9460 C   0  0  2  0  0  3  0  0  0  0  0  0
  185.9100  178.8540  142.7640 C   0  0  1  0  0  3  0  0  0  0  0  0
  189.7600  177.2260  137.5820 O   0  0  0  0  0  0  0  0  0  0  0  0
  188.6150  178.0360  137.4160 C   0  0  0  0  0  0  0  0  0  0  0  0
  187.8200  177.5970  136.2000 C   0  0  0  0  0  1  0  0  0  0  0  0
  188.9790  179.5040  137.5490 C   0  0  0  0  0  1  0  0  0  0  0  0
  188.7600  177.1130  138.5720 C   0  0  2  0  0  0  0  0  0  0  0  0
  187.9950  175.9320  138.4910 O   0  0  0  0  0  0  0  0  0  0  0  0
  188.7450  174.9980  137.7670 C   0  0  0  0  0  2  0  0  0  0  0  0
  187.8090  174.0260  137.0770 C   0  0  0  0  0  2  0  0  0  0  0  0
  185.5440  173.1640  137.6600 C   0  0  0  0  0  1  0  0  0  0  0  0
  186.3630  174.4010  137.3470 C   0  0  0  0  0  2  0  0  0  0  0  0
  192.4020  178.0570  140.4810 O   0  0  0  0  0  0  0  0  0  0  0  0
  191.9720  176.3890  138.9120 N   0  0  0  0  0  2  0  0  0  0  0  0
  191.5920  177.2060  140.0230 C   0  0  0  0  0  0  0  0  0  0  0  0
  194.4140  175.8030  136.0670 C   0  0  0  0  0  2  0  0  0  0  0  0
  193.4850  175.4510  137.2160 C   0  0  1  0  0  0  0  0  0  0  0  0
  192.4140  174.3800  136.9990 C   0  0  0  0  0  2  0  0  0  0  0  0
  191.0220  173.5580  135.2470 O   0  0  0  0  0  0  0  0  0  0  0  0
  192.6300  175.0840  134.5480 N   0  0  0  0  0  2  0  0  0  0  0  0
  191.9630  174.3270  135.5670 C   0  0  0  0  0  0  0  0  0  0  0  0
  194.1630  175.3830  138.5650 C   0  0  0  0  0  2  0  0  0  0  0  0
  193.5610  176.1650  134.8600 C   0  0  0  0  0  2  0  0  0  0  0  0
  193.2500  176.5570  138.2340 C   0  0  2  0  0  3  0  0  0  0  0  0
  184.5700  178.8660  143.4940 C   0  0  0  0  0  2  0  0  0  0  0  0
  184.7310  178.8120  145.0070 C   0  0  0  0  0  1  0  0  0  0  0  0
  191.2080  175.7860  142.5920 C   0  0  0  0  0  2  0  0  0  0  0  0
  191.6080  177.8080  143.9610 C   0  0  0  0  0  1  0  0  0  0  0  0
  191.2110  176.3480  144.0010 C   0  0  0  0  0  2  0  0  0  0  0  0
  1  5  1  0  0  0  0
  1 35  1  0  0  0  0
  3  1  2  0  0  0  0
  4  5  1  6  0  0  0
  4  2  1  0  0  0  0
  6  8  1  1  0  0  0
  6  4  1  0  0  0  0
  7 10  1  0  0  0  0
  8  7  1  0  0  0  0
  9  3  1  1  0  0  0
  9  6  1  0  0  0  0
 10  2  1  0  0  0  0
 10 33  1  6  0  0  0
 11 15  1  0  0  0  0
 12 14  1  0  0  0  0
 12 11  1  0  0  0  0
 12 15  1  0  0  0  0
 13 12  1  0  0  0  0
 15 16  1  6  0  0  0
 15  9  1  0  0  0  0
 17 16  1  0  0  0  0
 18 20  1  0  0  0  0
 18 17  1  0  0  0  0
 20 19  1  0  0  0  0
 22 23  1  0  0  0  0
 23 21  2  0  0  0  0
 23  3  1  0  0  0  0
 25 24  1  6  0  0  0
 25 32  1  0  0  0  0
 25 30  1  0  0  0  0
 26 25  1  0  0  0  0
 27 29  2  0  0  0  0
 28 31  1  0  0  0  0
 28 29  1  0  0  0  0
 29 26  1  0  0  0  0
 31 24  1  0  0  0  0
 32 30  1  0  0  0  0
 32 22  1  1  0  0  0
 33 34  1  0  0  0  0
 35 37  1  0  0  0  0
 36 37  1  0  0  0  0
M  END
>  <MODEL>
6

>  <REMARK>
 VINA RESULT:      -5.7      2.419      6.789
  Name = 
  10 active torsions:
  status: ('A' for Active; 'I' for Inactive)
    1  A    between atoms: C_3  and  C_32
    2  A    between atoms: C_4  and  C_24
    3  A    between atoms: C_10  and  C_27
    4  A    between atoms: N_14  and  C_37
    5  A    between atoms: C_17  and  C_26
    6  A    between atoms: C_17  and  O_33
    7  A    between atoms: C_24  and  C_28
    8  A    between atoms: C_26  and  C_34
    9  A    between atoms: C_29  and  C_36
   10  A    between atoms: O_33  and  C_36
                            x       y       z     vdW  Elec       q    Type
                         _______ _______ _______ _____ _____    ______ ____

>  <TORSDO>
F 10

$$$$
=
 OpenBabel10272414583D

 37 41  0  0  1  0  0  0  0  0999 V2000
  188.9960  178.4020  139.7950 C   0  0  0  0  0  0  0  0  0  0  0  0
  186.0820  178.8570  142.1980 C   0  0  0  0  0  2  0  0  0  0  0  0
  189.7210  177.4030  140.3640 C   0  0  0  0  0  0  0  0  0  0  0  0
  187.2160  178.1580  141.4580 C   0  0  1  0  0  3  0  0  0  0  0  0
  187.9690  179.1450  140.5910 C   0  0  0  0  0  2  0  0  0  0  0  0
  188.2040  177.5710  142.4640 C   0  0  1  0  0  3  0  0  0  0  0  0
  186.3500  177.2030  144.0960 C   0  0  0  0  0  2  0  0  0  0  0  0
  187.5030  176.5410  143.3440 C   0  0  0  0  0  2  0  0  0  0  0  0
  189.4630  176.9720  141.8060 C   0  0  2  0  0  3  0  0  0  0  0  0
  185.3700  177.8580  143.1160 C   0  0  1  0  0  3  0  0  0  0  0  0
  191.8650  176.5390  142.3940 O   0  0  0  0  0  0  0  0  0  0  0  0
  191.1740  176.1050  143.5470 C   0  0  0  0  0  0  0  0  0  0  0  0
  191.9820  176.3940  144.7980 C   0  0  0  0  0  1  0  0  0  0  0  0
  190.6340  174.7000  143.3440 C   0  0  0  0  0  1  0  0  0  0  0  0
  190.6780  177.2330  142.7150 C   0  0  2  0  0  0  0  0  0  0  0  0
  190.8850  178.5140  143.2640 O   0  0  0  0  0  0  0  0  0  0  0  0
  189.7880  178.7980  144.0850 C   0  0  0  0  0  2  0  0  0  0  0  0
  190.1360  178.4680  145.5240 C   0  0  0  0  0  2  0  0  0  0  0  0
  188.9780  178.0020  147.6810 C   0  0  0  0  0  1  0  0  0  0  0  0
  188.9870  177.7320  146.1890 C   0  0  0  0  0  2  0  0  0  0  0  0
  191.9450  176.8770  139.6730 O   0  0  0  0  0  0  0  0  0  0  0  0
  190.2680  175.5460  138.7570 N   0  0  0  0  0  2  0  0  0  0  0  0
  190.7140  176.6170  139.5920 C   0  0  0  0  0  0  0  0  0  0  0  0
  191.8890  174.5990  135.4590 C   0  0  0  0  0  2  0  0  0  0  0  0
  190.7710  174.8100  136.4650 C   0  0  1  0  0  0  0  0  0  0  0  0
  189.5410  175.6180  136.0440 C   0  0  0  0  0  2  0  0  0  0  0  0
  188.9920  177.4510  134.6210 O   0  0  0  0  0  0  0  0  0  0  0  0
  191.1760  176.6870  134.3920 N   0  0  0  0  0  2  0  0  0  0  0  0
  189.8810  176.6470  135.0040 C   0  0  0  0  0  0  0  0  0  0  0  0
  190.4550  173.5970  137.3080 C   0  0  0  0  0  2  0  0  0  0  0  0
  192.3210  175.9610  134.9350 C   0  0  0  0  0  2  0  0  0  0  0  0
  191.1880  174.7800  137.9280 C   0  0  2  0  0  3  0  0  0  0  0  0
  184.2020  178.5120  143.8490 C   0  0  0  0  0  2  0  0  0  0  0  0
  184.6200  179.1310  145.1760 C   0  0  0  0  0  1  0  0  0  0  0  0
  189.1030  178.7650  138.3470 C   0  0  0  0  0  2  0  0  0  0  0  0
  187.1550  177.4700  137.5410 C   0  0  0  0  0  1  0  0  0  0  0  0
  187.7240  178.8600  137.7200 C   0  0  0  0  0  2  0  0  0  0  0  0
  1  3  2  0  0  0  0
  1  5  1  0  0  0  0
  2 10  1  0  0  0  0
  4  5  1  6  0  0  0
  4  2  1  0  0  0  0
  4  6  1  0  0  0  0
  6  8  1  6  0  0  0
  8  7  1  0  0  0  0
  9  3  1  6  0  0  0
  9  6  1  0  0  0  0
  9 15  1  0  0  0  0
 10 33  1  1  0  0  0
 10  7  1  0  0  0  0
 11 15  1  0  0  0  0
 11 12  1  0  0  0  0
 12 13  1  0  0  0  0
 14 12  1  0  0  0  0
 15 16  1  1  0  0  0
 15 12  1  0  0  0  0
 16 17  1  0  0  0  0
 17 18  1  0  0  0  0
 18 20  1  0  0  0  0
 20 19  1  0  0  0  0
 22 23  1  0  0  0  0
 23 21  2  0  0  0  0
 23  3  1  0  0  0  0
 25 24  1  6  0  0  0
 25 30  1  0  0  0  0
 25 32  1  0  0  0  0
 26 25  1  0  0  0  0
 27 29  2  0  0  0  0
 28 31  1  0  0  0  0
 28 29  1  0  0  0  0
 29 26  1  0  0  0  0
 30 32  1  0  0  0  0
 31 24  1  0  0  0  0
 32 22  1  1  0  0  0
 33 34  1  0  0  0  0
 35  1  1  0  0  0  0
 36 37  1  0  0  0  0
 37 35  1  0  0  0  0
M  END
>  <MODEL>
7

>  <REMARK>
 VINA RESULT:      -5.6      2.673      7.836
  Name = 
  10 active torsions:
  status: ('A' for Active; 'I' for Inactive)
    1  A    between atoms: C_3  and  C_32
    2  A    between atoms: C_4  and  C_24
    3  A    between atoms: C_10  and  C_27
    4  A    between atoms: N_14  and  C_37
    5  A    between atoms: C_17  and  C_26
    6  A    between atoms: C_17  and  O_33
    7  A    between atoms: C_24  and  C_28
    8  A    between atoms: C_26  and  C_34
    9  A    between atoms: C_29  and  C_36
   10  A    between atoms: O_33  and  C_36
                            x       y       z     vdW  Elec       q    Type
                         _______ _______ _______ _____ _____    ______ ____

>  <TORSDO>
F 10

$$$$
=
 OpenBabel10272414583D

 37 41  0  0  1  0  0  0  0  0999 V2000
  190.3100  176.8220  138.5670 C   0  0  0  0  0  0  0  0  0  0  0  0
  190.0540  173.9380  136.0980 C   0  0  0  0  0  2  0  0  0  0  0  0
  189.0160  177.0640  138.9040 C   0  0  0  0  0  0  0  0  0  0  0  0
  189.6780  174.8510  137.2590 C   0  0  1  0  0  3  0  0  0  0  0  0
  190.6410  176.0150  137.3500 C   0  0  0  0  0  2  0  0  0  0  0  0
  188.2770  175.4190  137.0370 C   0  0  1  0  0  3  0  0  0  0  0  0
  187.6080  173.3410  135.8240 C   0  0  0  0  0  2  0  0  0  0  0  0
  187.2580  174.2860  136.9720 C   0  0  0  0  0  2  0  0  0  0  0  0
  187.8710  176.4710  138.0880 C   0  0  2  0  0  3  0  0  0  0  0  0
  189.0340  172.8010  135.9830 C   0  0  1  0  0  3  0  0  0  0  0  0
  186.6620  177.3290  136.0620 O   0  0  0  0  0  0  0  0  0  0  0  0
  187.6370  178.3240  136.2940 C   0  0  0  0  0  0  0  0  0  0  0  0
  187.0980  179.6970  135.9360 C   0  0  0  0  0  1  0  0  0  0  0  0
  188.9760  177.9000  135.7140 C   0  0  0  0  0  1  0  0  0  0  0  0
  187.0190  177.5590  137.4080 C   0  0  2  0  0  0  0  0  0  0  0  0
  186.0540  178.2650  138.1520 O   0  0  0  0  0  0  0  0  0  0  0  0
  184.8600  177.5380  138.0820 C   0  0  0  0  0  2  0  0  0  0  0  0
  183.9040  178.0320  139.1510 C   0  0  0  0  0  2  0  0  0  0  0  0
  182.8040  180.2480  138.8460 C   0  0  0  0  0  1  0  0  0  0  0  0
  184.0480  179.5320  139.3350 C   0  0  0  0  0  2  0  0  0  0  0  0
  188.4240  179.0590  140.0750 O   0  0  0  0  0  0  0  0  0  0  0  0
  188.5530  177.1320  141.3760 N   0  0  0  0  0  2  0  0  0  0  0  0
  188.6540  177.8200  140.1280 C   0  0  0  0  0  0  0  0  0  0  0  0
  189.2130  178.0360  145.0020 C   0  0  0  0  0  2  0  0  0  0  0  0
  188.9220  177.1450  143.8070 C   0  0  1  0  0  0  0  0  0  0  0  0
  189.7930  175.9080  143.5800 C   0  0  0  0  0  2  0  0  0  0  0  0
  192.0480  175.2080  143.9140 O   0  0  0  0  0  0  0  0  0  0  0  0
  191.5340  177.2590  144.8800 N   0  0  0  0  0  2  0  0  0  0  0  0
  191.1870  176.1040  144.1060 C   0  0  0  0  0  0  0  0  0  0  0  0
  187.4520  176.9240  143.5390 C   0  0  0  0  0  2  0  0  0  0  0  0
  190.6790  178.4410  144.9480 C   0  0  0  0  0  2  0  0  0  0  0  0
  188.2620  177.8300  142.6200 C   0  0  2  0  0  3  0  0  0  0  0  0
  189.3960  171.8420  134.8520 C   0  0  0  0  0  2  0  0  0  0  0  0
  188.6090  170.5400  134.9180 C   0  0  0  0  0  1  0  0  0  0  0  0
  191.4690  177.2530  139.4120 C   0  0  0  0  0  2  0  0  0  0  0  0
  193.8750  176.9140  139.8780 C   0  0  0  0  0  1  0  0  0  0  0  0
  192.7600  176.6490  138.8910 C   0  0  0  0  0  2  0  0  0  0  0  0
  1  3  2  0  0  0  0
  1 35  1  0  0  0  0
  3 23  1  0  0  0  0
  4  2  1  6  0  0  0
  4  5  1  0  0  0  0
  5  1  1  0  0  0  0
  6  8  1  1  0  0  0
  6  4  1  0  0  0  0
  6  9  1  0  0  0  0
  7 10  1  0  0  0  0
  7  8  1  0  0  0  0
  9  3  1  6  0  0  0
 10 33  1  6  0  0  0
 10  2  1  0  0  0  0
 11 12  1  0  0  0  0
 11 15  1  0  0  0  0
 12 15  1  0  0  0  0
 13 12  1  0  0  0  0
 14 12  1  0  0  0  0
 15  9  1  0  0  0  0
 15 16  1  1  0  0  0
 17 16  1  0  0  0  0
 17 18  1  0  0  0  0
 18 20  1  0  0  0  0
 19 20  1  0  0  0  0
 21 23  2  0  0  0  0
 23 22  1  0  0  0  0
 25 30  1  1  0  0  0
 25 24  1  0  0  0  0
 26 25  1  0  0  0  0
 26 29  1  0  0  0  0
 27 29  2  0  0  0  0
 28 31  1  0  0  0  0
 29 28  1  0  0  0  0
 31 24  1  0  0  0  0
 32 22  1  6  0  0  0
 32 30  1  0  0  0  0
 32 25  1  0  0  0  0
 33 34  1  0  0  0  0
 37 35  1  0  0  0  0
 37 36  1  0  0  0  0
M  END
>  <MODEL>
8

>  <REMARK>
 VINA RESULT:      -5.6      1.196      1.409
  Name = 
  10 active torsions:
  status: ('A' for Active; 'I' for Inactive)
    1  A    between atoms: C_3  and  C_32
    2  A    between atoms: C_4  and  C_24
    3  A    between atoms: C_10  and  C_27
    4  A    between atoms: N_14  and  C_37
    5  A    between atoms: C_17  and  C_26
    6  A    between atoms: C_17  and  O_33
    7  A    between atoms: C_24  and  C_28
    8  A    between atoms: C_26  and  C_34
    9  A    between atoms: C_29  and  C_36
   10  A    between atoms: O_33  and  C_36
                            x       y       z     vdW  Elec       q    Type
                         _______ _______ _______ _____ _____    ______ ____

>  <TORSDO>
F 10

$$$$
=
 OpenBabel10272414583D

 37 41  0  0  1  0  0  0  0  0999 V2000
  189.1980  176.0740  137.7290 C   0  0  0  0  0  0  0  0  0  0  0  0
  187.9190  172.9160  136.0340 C   0  0  0  0  0  2  0  0  0  0  0  0
  188.0750  176.6200  138.2660 C   0  0  0  0  0  0  0  0  0  0  0  0
  187.9770  174.0710  137.0280 C   0  0  1  0  0  3  0  0  0  0  0  0
  189.1000  175.0210  136.6690 C   0  0  0  0  0  2  0  0  0  0  0  0
  186.6680  174.8560  136.9840 C   0  0  1  0  0  3  0  0  0  0  0  0
  185.4180  172.7720  136.4030 C   0  0  0  0  0  2  0  0  0  0  0  0
  185.5020  173.9500  137.3720 C   0  0  0  0  0  2  0  0  0  0  0  0
  186.6910  176.1310  137.8490 C   0  0  2  0  0  3  0  0  0  0  0  0
  186.7410  171.9980  136.3760 C   0  0  1  0  0  3  0  0  0  0  0  0
  185.7710  178.4670  137.8200 O   0  0  0  0  0  0  0  0  0  0  0  0
  184.6070  177.6680  137.7840 C   0  0  0  0  0  0  0  0  0  0  0  0
  183.5290  178.3270  136.9420 C   0  0  0  0  0  1  0  0  0  0  0  0
  184.2430  177.1970  139.1810 C   0  0  0  0  0  1  0  0  0  0  0  0
  185.8760  177.2320  137.1440 C   0  0  2  0  0  0  0  0  0  0  0  0
  185.9030  177.3380  135.7400 O   0  0  0  0  0  0  0  0  0  0  0  0
  186.8990  178.2650  135.4120 C   0  0  0  0  0  2  0  0  0  0  0  0
  187.8040  177.6770  134.3460 C   0  0  0  0  0  2  0  0  0  0  0  0
  190.1680  176.8910  134.4190 C   0  0  0  0  0  1  0  0  0  0  0  0
  189.2450  178.0810  134.5950 C   0  0  0  0  0  2  0  0  0  0  0  0
  188.3730  178.8420  139.0880 O   0  0  0  0  0  0  0  0  0  0  0  0
  187.9140  177.2270  140.7030 N   0  0  0  0  0  2  0  0  0  0  0  0
  188.1370  177.6310  139.3490 C   0  0  0  0  0  0  0  0  0  0  0  0
  189.3240  178.4160  144.0190 C   0  0  0  0  0  2  0  0  0  0  0  0
  188.6160  177.4920  143.0450 C   0  0  1  0  0  0  0  0  0  0  0  0
  189.0420  176.0240  142.9770 C   0  0  0  0  0  2  0  0  0  0  0  0
  191.0140  174.7090  143.2330 O   0  0  0  0  0  0  0  0  0  0  0  0
  191.2710  176.9390  143.8380 N   0  0  0  0  0  2  0  0  0  0  0  0
  190.4920  175.8480  143.3290 C   0  0  0  0  0  0  0  0  0  0  0  0
  187.1230  177.7070  142.9560 C   0  0  0  0  0  2  0  0  0  0  0  0
  190.8200  178.3250  143.7590 C   0  0  0  0  0  2  0  0  0  0  0  0
  188.0230  178.1620  141.8140 C   0  0  2  0  0  3  0  0  0  0  0  0
  186.6710  170.8070  135.4240 C   0  0  0  0  0  2  0  0  0  0  0  0
  185.2430  170.3350  135.1880 C   0  0  0  0  0  1  0  0  0  0  0  0
  190.5770  176.4080  138.2050 C   0  0  0  0  0  2  0  0  0  0  0  0
  192.8520  175.4470  138.0440 C   0  0  0  0  0  1  0  0  0  0  0  0
  191.4040  175.1450  138.3650 C   0  0  0  0  0  2  0  0  0  0  0  0
  1 35  1  0  0  0  0
  1  3  2  0  0  0  0
  2 10  1  0  0  0  0
  3 23  1  0  0  0  0
  4  2  1  6  0  0  0
  5  4  1  0  0  0  0
  5  1  1  0  0  0  0
  6  4  1  0  0  0  0
  6  8  1  1  0  0  0
  6  9  1  0  0  0  0
  7  8  1  0  0  0  0
  9  3  1  6  0  0  0
 10 33  1  6  0  0  0
 10  7  1  0  0  0  0
 12 11  1  0  0  0  0
 12 14  1  0  0  0  0
 13 12  1  0  0  0  0
 15 16  1  6  0  0  0
 15 12  1  0  0  0  0
 15 11  1  0  0  0  0
 15  9  1  0  0  0  0
 17 16  1  0  0  0  0
 18 20  1  0  0  0  0
 18 17  1  0  0  0  0
 19 20  1  0  0  0  0
 21 23  2  0  0  0  0
 23 22  1  0  0  0  0
 25 30  1  1  0  0  0
 25 24  1  0  0  0  0
 26 25  1  0  0  0  0
 26 29  1  0  0  0  0
 27 29  2  0  0  0  0
 29 28  1  0  0  0  0
 31 28  1  0  0  0  0
 31 24  1  0  0  0  0
 32 22  1  6  0  0  0
 32 30  1  0  0  0  0
 32 25  1  0  0  0  0
 34 33  1  0  0  0  0
 35 37  1  0  0  0  0
 36 37  1  0  0  0  0
M  END
>  <MODEL>
9

>  <REMARK>
 VINA RESULT:      -5.5      1.011      2.765
  Name = 
  10 active torsions:
  status: ('A' for Active; 'I' for Inactive)
    1  A    between atoms: C_3  and  C_32
    2  A    between atoms: C_4  and  C_24
    3  A    between atoms: C_10  and  C_27
    4  A    between atoms: N_14  and  C_37
    5  A    between atoms: C_17  and  C_26
    6  A    between atoms: C_17  and  O_33
    7  A    between atoms: C_24  and  C_28
    8  A    between atoms: C_26  and  C_34
    9  A    between atoms: C_29  and  C_36
   10  A    between atoms: O_33  and  C_36
                            x       y       z     vdW  Elec       q    Type
                         _______ _______ _______ _____ _____    ______ ____

>  <TORSDO>
F 10

$$$$
