=
 OpenBabel10272415223D

 34 40  0  0  0  0  0  0  0  0999 V2000
  190.2170  176.4900  138.1230 C   0  0  0  0  0  0  0  0  0  0  0  0
  192.5940  175.5890  135.3090 C   0  0  0  0  0  3  0  0  0  0  0  0
  189.8560  175.5790  135.1370 S   0  0  0  0  0  0  0  0  0  0  0  0
  188.2280  177.7970  139.5110 N   0  0  0  0  0  0  0  0  0  0  0  0
  190.2680  176.6280  139.4770 N   0  0  0  0  0  0  0  0  0  0  0  0
  188.1240  177.6990  138.1630 C   0  0  0  0  0  0  0  0  0  0  0  0
  186.9630  178.2350  136.1090 C   0  0  0  0  0  3  0  0  0  0  0  0
  187.0730  178.3340  137.4970 C   0  0  0  0  0  3  0  0  0  0  0  0
  189.2760  177.2410  140.1780 C   0  0  0  0  0  0  0  0  0  0  0  0
  188.9380  176.8280  136.0400 C   0  0  0  0  0  0  0  0  0  0  0  0
  189.0910  176.9780  137.4310 C   0  0  0  0  0  0  0  0  0  0  0  0
  187.8830  177.4710  135.3860 C   0  0  0  0  0  3  0  0  0  0  0  0
  193.8210  175.5950  135.9760 C   0  0  0  0  0  0  0  0  0  0  0  0
  193.8510  175.8090  137.3610 C   0  0  0  0  0  3  0  0  0  0  0  0
  191.4020  175.8090  136.0070 C   0  0  0  0  0  0  0  0  0  0  0  0
  192.6650  176.0420  138.0600 C   0  0  0  0  0  3  0  0  0  0  0  0
  191.4300  176.0490  137.3950 C   0  0  0  0  0  0  0  0  0  0  0  0
  190.7060  177.5570  143.6670 C   0  0  0  0  0  3  0  0  0  0  0  0
  188.1990  177.3550  142.4280 C   0  0  0  0  0  3  0  0  0  0  0  0
  188.4640  177.6690  146.6150 C   0  0  0  0  0  0  0  0  0  0  0  0
  189.6280  177.6640  145.8330 C   0  0  0  0  0  3  0  0  0  0  0  0
  189.5450  177.5610  144.4420 C   0  0  0  0  0  0  0  0  0  0  0  0
  187.1220  177.4620  144.5950 C   0  0  0  0  0  3  0  0  0  0  0  0
  188.2820  177.4580  143.8190 C   0  0  0  0  0  0  0  0  0  0  0  0
  187.2120  177.5660  145.9860 C   0  0  0  0  0  3  0  0  0  0  0  0
  189.3650  177.3510  141.6460 C   0  0  0  0  0  0  0  0  0  0  0  0
  190.6150  177.4530  142.2750 C   0  0  0  0  0  3  0  0  0  0  0  0
  188.5550  177.7760  148.0420 N   0  0  0  0  0  0  0  0  0  0  0  0
  187.6810  177.2640  148.7730 O   0  0  0  0  0  0  0  0  0  0  0  0
  189.6080  178.4440  148.6220 O   0  0  0  0  0  0  0  0  0  0  0  0
  194.9910  175.3740  135.2420 O   0  0  0  0  0  0  0  0  0  0  0  0
  196.2230  176.0130  135.5480 C   0  0  0  0  0  3  0  0  0  0  0  0
  197.1440  175.9230  134.3490 C   0  0  0  0  0  2  0  0  0  0  0  0
  196.4000  177.2090  134.6370 C   0  0  0  0  0  2  0  0  0  0  0  0
  1  5  2  0  0  0  0
  2 13  2  0  0  0  0
  2 15  1  0  0  0  0
  3 15  1  0  0  0  0
  3 10  1  0  0  0  0
  4  9  2  0  0  0  0
  5  9  1  0  0  0  0
  6  4  1  0  0  0  0
  7  8  2  0  0  0  0
  8  6  1  0  0  0  0
  9 26  1  0  0  0  0
 10 11  1  0  0  0  0
 11  1  1  0  0  0  0
 11  6  2  0  0  0  0
 12 10  2  0  0  0  0
 12  7  1  0  0  0  0
 13 14  1  0  0  0  0
 14 16  2  0  0  0  0
 15 17  2  0  0  0  0
 17 16  1  0  0  0  0
 17  1  1  0  0  0  0
 18 22  1  0  0  0  0
 19 24  1  0  0  0  0
 20 28  1  0  0  0  0
 21 20  2  0  0  0  0
 22 21  1  0  0  0  0
 23 25  2  0  0  0  0
 24 22  2  0  0  0  0
 24 23  1  0  0  0  0
 25 20  1  0  0  0  0
 26 27  1  0  0  0  0
 26 19  2  0  0  0  0
 27 18  2  0  0  0  0
 28 30  2  0  0  0  0
 28 29  2  0  0  0  0
 31 32  1  0  0  0  0
 31 13  1  0  0  0  0
 33 34  1  0  0  0  0
 33 32  1  0  0  0  0
 34 32  1  0  0  0  0
M  END
>  <MODEL>
1

>  <REMARK>
 VINA RESULT:      -9.4      0.000      0.000
  Name = 
  4 active torsions:
  status: ('A' for Active; 'I' for Inactive)
    1  A    between atoms: C_3  and  O_25
    2  A    between atoms: C_7  and  N_11
    3  A    between atoms: C_18  and  C_30
    4  A    between atoms: C_23  and  O_25
                            x       y       z     vdW  Elec       q    Type
                         _______ _______ _______ _____ _____    ______ ____

>  <TORSDO>
F 4

$$$$
=
 OpenBabel10272415223D

 34 40  0  0  0  0  0  0  0  0999 V2000
  187.5260  177.6580  144.1920 C   0  0  0  0  0  0  0  0  0  0  0  0
  183.9600  178.7120  144.9390 C   0  0  0  0  0  3  0  0  0  0  0  0
  185.5970  177.3280  146.6520 S   0  0  0  0  0  0  0  0  0  0  0  0
  190.2610  177.4350  144.4300 N   0  0  0  0  0  0  0  0  0  0  0  0
  188.3250  177.5200  143.0990 N   0  0  0  0  0  0  0  0  0  0  0  0
  189.5190  177.5770  145.5560 C   0  0  0  0  0  0  0  0  0  0  0  0
  189.3900  177.8470  147.9570 C   0  0  0  0  0  3  0  0  0  0  0  0
  190.1520  177.7000  146.7960 C   0  0  0  0  0  3  0  0  0  0  0  0
  189.6740  177.3750  143.2040 C   0  0  0  0  0  0  0  0  0  0  0  0
  187.3500  177.7080  146.6530 C   0  0  0  0  0  0  0  0  0  0  0  0
  188.1120  177.6260  145.4720 C   0  0  0  0  0  0  0  0  0  0  0  0
  187.9950  177.8330  147.8870 C   0  0  0  0  0  3  0  0  0  0  0  0
  183.5580  179.2120  143.6990 C   0  0  0  0  0  0  0  0  0  0  0  0
  184.4300  179.1210  142.6040 C   0  0  0  0  0  3  0  0  0  0  0  0
  185.2250  178.1370  145.0990 C   0  0  0  0  0  0  0  0  0  0  0  0
  185.6980  178.5600  142.7620 C   0  0  0  0  0  3  0  0  0  0  0  0
  186.1130  178.0660  144.0080 C   0  0  0  0  0  0  0  0  0  0  0  0
  192.6640  177.3230  140.8860 C   0  0  0  0  0  3  0  0  0  0  0  0
  189.9140  176.7910  140.7880 C   0  0  0  0  0  3  0  0  0  0  0  0
  192.2750  176.3280  137.3380 C   0  0  0  0  0  0  0  0  0  0  0  0
  192.8600  176.7490  138.5410 C   0  0  0  0  0  3  0  0  0  0  0  0
  192.0800  176.9030  139.6900 C   0  0  0  0  0  0  0  0  0  0  0  0
  190.1090  176.2170  138.4430 C   0  0  0  0  0  3  0  0  0  0  0  0
  190.6940  176.6360  139.6400 C   0  0  0  0  0  0  0  0  0  0  0  0
  190.8960  176.0640  137.2980 C   0  0  0  0  0  3  0  0  0  0  0  0
  190.4990  177.2110  141.9930 C   0  0  0  0  0  0  0  0  0  0  0  0
  191.8770  177.4750  142.0320 C   0  0  0  0  0  3  0  0  0  0  0  0
  193.0800  176.1700  136.1620 N   0  0  0  0  0  0  0  0  0  0  0  0
  192.6010  175.6580  135.1290 O   0  0  0  0  0  0  0  0  0  0  0  0
  194.3930  176.5840  136.1590 O   0  0  0  0  0  0  0  0  0  0  0  0
  182.2870  179.7820  143.5790 O   0  0  0  0  0  0  0  0  0  0  0  0
  181.2480  179.1910  142.8080 C   0  0  0  0  0  3  0  0  0  0  0  0
  180.1540  178.7030  143.7350 C   0  0  0  0  0  2  0  0  0  0  0  0
  179.9820  180.0020  142.9780 C   0  0  0  0  0  2  0  0  0  0  0  0
  1 11  1  0  0  0  0
  2 15  1  0  0  0  0
  3 10  1  0  0  0  0
  4  6  1  0  0  0  0
  5  9  1  0  0  0  0
  5  1  2  0  0  0  0
  6  8  1  0  0  0  0
  8  7  2  0  0  0  0
  9  4  2  0  0  0  0
 10 12  2  0  0  0  0
 11  6  2  0  0  0  0
 11 10  1  0  0  0  0
 12  7  1  0  0  0  0
 13  2  2  0  0  0  0
 14 16  2  0  0  0  0
 14 13  1  0  0  0  0
 15  3  1  0  0  0  0
 16 17  1  0  0  0  0
 17  1  1  0  0  0  0
 17 15  2  0  0  0  0
 18 27  1  0  0  0  0
 19 26  1  0  0  0  0
 20 21  2  0  0  0  0
 21 22  1  0  0  0  0
 22 18  2  0  0  0  0
 23 24  1  0  0  0  0
 24 22  1  0  0  0  0
 24 19  2  0  0  0  0
 25 20  1  0  0  0  0
 25 23  2  0  0  0  0
 26 27  2  0  0  0  0
 26  9  1  0  0  0  0
 28 20  1  0  0  0  0
 29 28  2  0  0  0  0
 30 28  2  0  0  0  0
 31 13  1  0  0  0  0
 32 34  1  0  0  0  0
 32 31  1  0  0  0  0
 32 33  1  0  0  0  0
 34 33  1  0  0  0  0
M  END
>  <MODEL>
2

>  <REMARK>
 VINA RESULT:      -9.4      3.885     10.658
  Name = 
  4 active torsions:
  status: ('A' for Active; 'I' for Inactive)
    1  A    between atoms: C_3  and  O_25
    2  A    between atoms: C_7  and  N_11
    3  A    between atoms: C_18  and  C_30
    4  A    between atoms: C_23  and  O_25
                            x       y       z     vdW  Elec       q    Type
                         _______ _______ _______ _____ _____    ______ ____

>  <TORSDO>
F 4

$$$$
=
 OpenBabel10272415223D

 34 40  0  0  0  0  0  0  0  0999 V2000
  185.3590  178.0150  141.6260 C   0  0  0  0  0  0  0  0  0  0  0  0
  185.2370  178.3760  137.8530 C   0  0  0  0  0  3  0  0  0  0  0  0
  183.0990  177.7580  139.4560 S   0  0  0  0  0  0  0  0  0  0  0  0
  184.7980  178.4570  144.2860 N   0  0  0  0  0  0  0  0  0  0  0  0
  186.3050  177.8450  142.5890 N   0  0  0  0  0  0  0  0  0  0  0  0
  183.8150  178.6510  143.3730 C   0  0  0  0  0  0  0  0  0  0  0  0
  181.5620  179.3550  142.8400 C   0  0  0  0  0  3  0  0  0  0  0  0
  182.5760  179.1540  143.7790 C   0  0  0  0  0  3  0  0  0  0  0  0
  186.0320  178.0270  143.9100 C   0  0  0  0  0  0  0  0  0  0  0  0
  183.0030  178.5100  141.0820 C   0  0  0  0  0  0  0  0  0  0  0  0
  184.0510  178.3680  142.0110 C   0  0  0  0  0  0  0  0  0  0  0  0
  181.7690  179.0180  141.5000 C   0  0  0  0  0  3  0  0  0  0  0  0
  186.5930  178.5190  137.5480 C   0  0  0  0  0  0  0  0  0  0  0  0
  187.5440  178.4090  138.5730 C   0  0  0  0  0  3  0  0  0  0  0  0
  184.8230  178.1400  139.1670 C   0  0  0  0  0  0  0  0  0  0  0  0
  187.1340  178.1870  139.8890 C   0  0  0  0  0  3  0  0  0  0  0  0
  185.7740  178.0540  140.2030 C   0  0  0  0  0  0  0  0  0  0  0  0
  187.8010  177.7990  147.2470 C   0  0  0  0  0  3  0  0  0  0  0  0
  188.3760  177.4270  144.5290 C   0  0  0  0  0  3  0  0  0  0  0  0
  191.3720  176.8240  147.4200 C   0  0  0  0  0  0  0  0  0  0  0  0
  190.0820  177.2120  147.8110 C   0  0  0  0  0  3  0  0  0  0  0  0
  189.0840  177.4130  146.8550 C   0  0  0  0  0  0  0  0  0  0  0  0
  190.6570  176.8400  145.0930 C   0  0  0  0  0  3  0  0  0  0  0  0
  189.3740  177.2260  145.4850 C   0  0  0  0  0  0  0  0  0  0  0  0
  191.6510  176.6410  146.0550 C   0  0  0  0  0  3  0  0  0  0  0  0
  187.0850  177.8140  144.9210 C   0  0  0  0  0  0  0  0  0  0  0  0
  186.8070  177.9980  146.2840 C   0  0  0  0  0  3  0  0  0  0  0  0
  192.3930  176.6180  148.4060 N   0  0  0  0  0  0  0  0  0  0  0  0
  192.9900  175.5250  148.4810 O   0  0  0  0  0  0  0  0  0  0  0  0
  192.7260  177.6270  149.2800 O   0  0  0  0  0  0  0  0  0  0  0  0
  186.9670  178.7560  136.2220 O   0  0  0  0  0  0  0  0  0  0  0  0
  186.6810  177.8480  135.1670 C   0  0  0  0  0  3  0  0  0  0  0  0
  187.9550  177.5540  134.4010 C   0  0  0  0  0  2  0  0  0  0  0  0
  187.4300  176.5550  135.4090 C   0  0  0  0  0  2  0  0  0  0  0  0
  1 11  1  0  0  0  0
  1  5  2  0  0  0  0
  2 15  1  0  0  0  0
  3 10  1  0  0  0  0
  5  9  1  0  0  0  0
  6  8  1  0  0  0  0
  6  4  1  0  0  0  0
  7  8  2  0  0  0  0
  9  4  2  0  0  0  0
  9 26  1  0  0  0  0
 10 12  2  0  0  0  0
 10 11  1  0  0  0  0
 11  6  2  0  0  0  0
 12  7  1  0  0  0  0
 13  2  2  0  0  0  0
 13 14  1  0  0  0  0
 14 16  2  0  0  0  0
 15  3  1  0  0  0  0
 15 17  2  0  0  0  0
 16 17  1  0  0  0  0
 17  1  1  0  0  0  0
 19 26  2  0  0  0  0
 19 24  1  0  0  0  0
 20 21  1  0  0  0  0
 20 28  1  0  0  0  0
 22 18  1  0  0  0  0
 22 21  2  0  0  0  0
 23 24  2  0  0  0  0
 23 25  1  0  0  0  0
 24 22  1  0  0  0  0
 25 20  2  0  0  0  0
 26 27  1  0  0  0  0
 27 18  2  0  0  0  0
 28 29  2  0  0  0  0
 28 30  2  0  0  0  0
 31 13  1  0  0  0  0
 32 34  1  0  0  0  0
 32 31  1  0  0  0  0
 33 32  1  0  0  0  0
 33 34  1  0  0  0  0
M  END
>  <MODEL>
3

>  <REMARK>
 VINA RESULT:      -9.4      4.559      6.452
  Name = 
  4 active torsions:
  status: ('A' for Active; 'I' for Inactive)
    1  A    between atoms: C_3  and  O_25
    2  A    between atoms: C_7  and  N_11
    3  A    between atoms: C_18  and  C_30
    4  A    between atoms: C_23  and  O_25
                            x       y       z     vdW  Elec       q    Type
                         _______ _______ _______ _____ _____    ______ ____

>  <TORSDO>
F 4

$$$$
=
 OpenBabel10272415223D

 34 40  0  0  0  0  0  0  0  0999 V2000
  189.9310  176.7730  138.3700 C   0  0  0  0  0  0  0  0  0  0  0  0
  192.8070  176.0120  136.0190 C   0  0  0  0  0  3  0  0  0  0  0  0
  190.1460  175.8780  135.3650 S   0  0  0  0  0  0  0  0  0  0  0  0
  187.6680  177.9720  139.3870 N   0  0  0  0  0  0  0  0  0  0  0  0
  189.7350  176.8990  139.7120 N   0  0  0  0  0  0  0  0  0  0  0  0
  187.8090  177.8840  138.0420 C   0  0  0  0  0  0  0  0  0  0  0  0
  187.0050  178.3870  135.8160 C   0  0  0  0  0  3  0  0  0  0  0  0
  186.8630  178.4760  137.2020 C   0  0  0  0  0  3  0  0  0  0  0  0
  188.6070  177.4580  140.2280 C   0  0  0  0  0  0  0  0  0  0  0  0
  189.0250  177.0730  136.0940 C   0  0  0  0  0  0  0  0  0  0  0  0
  188.9240  177.2150  137.4910 C   0  0  0  0  0  0  0  0  0  0  0  0
  188.0730  177.6740  135.2650 C   0  0  0  0  0  3  0  0  0  0  0  0
  193.8960  176.0670  136.8920 C   0  0  0  0  0  0  0  0  0  0  0  0
  193.6700  176.2690  138.2620 C   0  0  0  0  0  3  0  0  0  0  0  0
  191.5020  176.1690  136.4960 C   0  0  0  0  0  0  0  0  0  0  0  0
  192.3700  176.4390  138.7410 C   0  0  0  0  0  3  0  0  0  0  0  0
  191.2730  176.3960  137.8670 C   0  0  0  0  0  0  0  0  0  0  0  0
  187.0060  177.9890  143.6140 C   0  0  0  0  0  3  0  0  0  0  0  0
  189.5110  177.3180  142.5510 C   0  0  0  0  0  3  0  0  0  0  0  0
  188.9960  177.6040  146.7160 C   0  0  0  0  0  0  0  0  0  0  0  0
  187.9160  177.8440  145.8540 C   0  0  0  0  0  3  0  0  0  0  0  0
  188.0820  177.7500  144.4700 C   0  0  0  0  0  0  0  0  0  0  0  0
  190.4210  177.1730  144.7910 C   0  0  0  0  0  3  0  0  0  0  0  0
  189.3450  177.4120  143.9350 C   0  0  0  0  0  0  0  0  0  0  0  0
  190.2480  177.2690  146.1740 C   0  0  0  0  0  3  0  0  0  0  0  0
  188.4300  177.5570  141.6880 C   0  0  0  0  0  0  0  0  0  0  0  0
  187.1790  177.8920  142.2300 C   0  0  0  0  0  3  0  0  0  0  0  0
  188.8200  177.7020  148.1360 N   0  0  0  0  0  0  0  0  0  0  0  0
  187.8530  177.1430  148.6950 O   0  0  0  0  0  0  0  0  0  0  0  0
  189.7170  178.4130  148.8990 O   0  0  0  0  0  0  0  0  0  0  0  0
  195.1860  175.9080  136.3770 O   0  0  0  0  0  0  0  0  0  0  0  0
  195.8430  174.6490  136.3230 C   0  0  0  0  0  3  0  0  0  0  0  0
  197.2660  174.8480  135.8430 C   0  0  0  0  0  2  0  0  0  0  0  0
  196.9850  174.6430  137.3160 C   0  0  0  0  0  2  0  0  0  0  0  0
  1  5  2  0  0  0  0
  2 15  2  0  0  0  0
  2 13  1  0  0  0  0
  3 10  1  0  0  0  0
  3 15  1  0  0  0  0
  4  9  2  0  0  0  0
  5  9  1  0  0  0  0
  6  4  1  0  0  0  0
  7  8  1  0  0  0  0
  8  6  2  0  0  0  0
  9 26  1  0  0  0  0
 10 11  2  0  0  0  0
 11  6  1  0  0  0  0
 11  1  1  0  0  0  0
 12  7  2  0  0  0  0
 12 10  1  0  0  0  0
 13 14  2  0  0  0  0
 14 16  1  0  0  0  0
 15 17  1  0  0  0  0
 17  1  1  0  0  0  0
 17 16  2  0  0  0  0
 18 22  1  0  0  0  0
 19 24  1  0  0  0  0
 20 28  1  0  0  0  0
 21 20  2  0  0  0  0
 22 21  1  0  0  0  0
 23 25  2  0  0  0  0
 24 22  2  0  0  0  0
 24 23  1  0  0  0  0
 25 20  1  0  0  0  0
 26 27  1  0  0  0  0
 26 19  2  0  0  0  0
 27 18  2  0  0  0  0
 28 29  2  0  0  0  0
 28 30  2  0  0  0  0
 31 13  1  0  0  0  0
 32 31  1  0  0  0  0
 32 34  1  0  0  0  0
 33 32  1  0  0  0  0
 33 34  1  0  0  0  0
M  END
>  <MODEL>
4

>  <REMARK>
 VINA RESULT:      -9.1      0.927      1.573
  Name = 
  4 active torsions:
  status: ('A' for Active; 'I' for Inactive)
    1  A    between atoms: C_3  and  O_25
    2  A    between atoms: C_7  and  N_11
    3  A    between atoms: C_18  and  C_30
    4  A    between atoms: C_23  and  O_25
                            x       y       z     vdW  Elec       q    Type
                         _______ _______ _______ _____ _____    ______ ____

>  <TORSDO>
F 4

$$$$
=
 OpenBabel10272415223D

 34 40  0  0  0  0  0  0  0  0999 V2000
  188.9030  177.1380  138.0860 C   0  0  0  0  0  0  0  0  0  0  0  0
  186.3980  177.2430  135.2410 C   0  0  0  0  0  3  0  0  0  0  0  0
  189.1220  177.4140  134.9620 S   0  0  0  0  0  0  0  0  0  0  0  0
  191.0200  176.3040  139.6390 N   0  0  0  0  0  0  0  0  0  0  0  0
  188.8950  177.2880  139.4390 N   0  0  0  0  0  0  0  0  0  0  0  0
  191.0850  176.1200  138.2970 C   0  0  0  0  0  0  0  0  0  0  0  0
  192.2370  175.2440  136.3580 C   0  0  0  0  0  3  0  0  0  0  0  0
  192.1680  175.4360  137.7390 C   0  0  0  0  0  3  0  0  0  0  0  0
  189.9480  176.9120  140.2140 C   0  0  0  0  0  0  0  0  0  0  0  0
  190.1560  176.4570  136.0720 C   0  0  0  0  0  0  0  0  0  0  0  0
  190.0470  176.5960  137.4680 C   0  0  0  0  0  0  0  0  0  0  0  0
  191.2430  175.7680  135.5270 C   0  0  0  0  0  3  0  0  0  0  0  0
  185.1900  177.2910  135.9410 C   0  0  0  0  0  0  0  0  0  0  0  0
  185.2100  177.3750  137.3410 C   0  0  0  0  0  3  0  0  0  0  0  0
  187.6190  177.2640  135.9220 C   0  0  0  0  0  0  0  0  0  0  0  0
  186.4260  177.3830  138.0260 C   0  0  0  0  0  3  0  0  0  0  0  0
  187.6420  177.3240  137.3290 C   0  0  0  0  0  0  0  0  0  0  0  0
  191.0520  177.4540  143.7920 C   0  0  0  0  0  3  0  0  0  0  0  0
  188.6700  177.1460  142.3460 C   0  0  0  0  0  3  0  0  0  0  0  0
  188.5490  177.7120  146.5130 C   0  0  0  0  0  0  0  0  0  0  0  0
  189.7800  177.6770  145.8420 C   0  0  0  0  0  3  0  0  0  0  0  0
  189.8250  177.4890  144.4580 C   0  0  0  0  0  0  0  0  0  0  0  0
  187.3980  177.3680  144.3960 C   0  0  0  0  0  3  0  0  0  0  0  0
  188.6250  177.3330  143.7300 C   0  0  0  0  0  0  0  0  0  0  0  0
  187.3610  177.5560  145.7800 C   0  0  0  0  0  3  0  0  0  0  0  0
  189.9020  177.1110  141.6740 C   0  0  0  0  0  0  0  0  0  0  0  0
  191.0890  177.2670  142.4070 C   0  0  0  0  0  3  0  0  0  0  0  0
  188.5090  177.9050  147.9330 N   0  0  0  0  0  0  0  0  0  0  0  0
  187.4830  177.6130  148.5840 O   0  0  0  0  0  0  0  0  0  0  0  0
  189.6020  178.4140  148.5960 O   0  0  0  0  0  0  0  0  0  0  0  0
  183.9900  177.2650  135.2250 O   0  0  0  0  0  0  0  0  0  0  0  0
  182.7170  177.3000  135.8550 C   0  0  0  0  0  3  0  0  0  0  0  0
  181.7390  178.0410  134.9660 C   0  0  0  0  0  2  0  0  0  0  0  0
  181.7250  176.5290  135.0120 C   0  0  0  0  0  2  0  0  0  0  0  0
  1  5  2  0  0  0  0
  2 15  2  0  0  0  0
  2 13  1  0  0  0  0
  3 15  1  0  0  0  0
  3 10  1  0  0  0  0
  4  9  2  0  0  0  0
  5  9  1  0  0  0  0
  6  4  1  0  0  0  0
  7  8  2  0  0  0  0
  8  6  1  0  0  0  0
  9 26  1  0  0  0  0
 10 11  1  0  0  0  0
 11  1  1  0  0  0  0
 11  6  2  0  0  0  0
 12 10  2  0  0  0  0
 12  7  1  0  0  0  0
 13 14  2  0  0  0  0
 14 16  1  0  0  0  0
 15 17  1  0  0  0  0
 17 16  2  0  0  0  0
 17  1  1  0  0  0  0
 18 22  1  0  0  0  0
 19 24  1  0  0  0  0
 20 28  1  0  0  0  0
 21 20  1  0  0  0  0
 22 21  2  0  0  0  0
 23 25  1  0  0  0  0
 24 23  2  0  0  0  0
 24 22  1  0  0  0  0
 25 20  2  0  0  0  0
 26 19  2  0  0  0  0
 26 27  1  0  0  0  0
 27 18  2  0  0  0  0
 28 29  2  0  0  0  0
 28 30  2  0  0  0  0
 31 32  1  0  0  0  0
 31 13  1  0  0  0  0
 33 34  1  0  0  0  0
 33 32  1  0  0  0  0
 34 32  1  0  0  0  0
M  END
>  <MODEL>
5

>  <REMARK>
 VINA RESULT:      -8.9      2.604      5.830
  Name = 
  4 active torsions:
  status: ('A' for Active; 'I' for Inactive)
    1  A    between atoms: C_3  and  O_25
    2  A    between atoms: C_7  and  N_11
    3  A    between atoms: C_18  and  C_30
    4  A    between atoms: C_23  and  O_25
                            x       y       z     vdW  Elec       q    Type
                         _______ _______ _______ _____ _____    ______ ____

>  <TORSDO>
F 4

$$$$
=
 OpenBabel10272415223D

 34 40  0  0  0  0  0  0  0  0999 V2000
  189.5450  176.5190  137.6880 C   0  0  0  0  0  0  0  0  0  0  0  0
  187.3490  175.4360  134.7920 C   0  0  0  0  0  3  0  0  0  0  0  0
  189.8170  176.6120  134.5580 S   0  0  0  0  0  0  0  0  0  0  0  0
  191.7300  176.6820  139.3590 N   0  0  0  0  0  0  0  0  0  0  0  0
  189.4040  176.7600  139.0210 N   0  0  0  0  0  0  0  0  0  0  0  0
  191.9340  176.4310  138.0420 C   0  0  0  0  0  0  0  0  0  0  0  0
  193.4390  175.9130  136.2190 C   0  0  0  0  0  3  0  0  0  0  0  0
  193.2250  176.1710  137.5750 C   0  0  0  0  0  3  0  0  0  0  0  0
  190.4760  176.8770  139.8510 C   0  0  0  0  0  0  0  0  0  0  0  0
  191.0730  176.2130  135.7750 C   0  0  0  0  0  0  0  0  0  0  0  0
  190.8410  176.4090  137.1490 C   0  0  0  0  0  0  0  0  0  0  0  0
  192.3690  175.9500  135.3210 C   0  0  0  0  0  3  0  0  0  0  0  0
  186.1770  175.0730  135.4580 C   0  0  0  0  0  0  0  0  0  0  0  0
  186.0850  175.2680  136.8440 C   0  0  0  0  0  3  0  0  0  0  0  0
  188.4320  175.9750  135.4950 C   0  0  0  0  0  0  0  0  0  0  0  0
  187.1670  175.7940  137.5520 C   0  0  0  0  0  3  0  0  0  0  0  0
  188.3510  176.1490  136.8900 C   0  0  0  0  0  0  0  0  0  0  0  0
  191.1580  177.8920  143.4310 C   0  0  0  0  0  3  0  0  0  0  0  0
  189.0210  176.9560  141.8780 C   0  0  0  0  0  3  0  0  0  0  0  0
  188.4610  177.7560  145.9700 C   0  0  0  0  0  0  0  0  0  0  0  0
  189.7170  177.9560  145.3770 C   0  0  0  0  0  3  0  0  0  0  0  0
  189.9070  177.6920  144.0190 C   0  0  0  0  0  0  0  0  0  0  0  0
  187.5800  177.0200  143.8240 C   0  0  0  0  0  3  0  0  0  0  0  0
  188.8300  177.2200  143.2360 C   0  0  0  0  0  0  0  0  0  0  0  0
  187.3960  177.2860  145.1830 C   0  0  0  0  0  3  0  0  0  0  0  0
  190.2770  177.1570  141.2850 C   0  0  0  0  0  0  0  0  0  0  0  0
  191.3400  177.6260  142.0710 C   0  0  0  0  0  3  0  0  0  0  0  0
  188.2710  178.0290  147.3640 N   0  0  0  0  0  0  0  0  0  0  0  0
  189.2250  177.9350  148.1640 O   0  0  0  0  0  0  0  0  0  0  0  0
  187.0330  178.4000  147.8370 O   0  0  0  0  0  0  0  0  0  0  0  0
  185.1180  174.5350  134.7210 O   0  0  0  0  0  0  0  0  0  0  0  0
  184.0360  173.8380  135.3250 C   0  0  0  0  0  3  0  0  0  0  0  0
  182.8830  173.7600  134.3460 C   0  0  0  0  0  2  0  0  0  0  0  0
  183.7800  172.5590  134.5560 C   0  0  0  0  0  2  0  0  0  0  0  0
  1  5  2  0  0  0  0
  2 13  2  0  0  0  0
  2 15  1  0  0  0  0
  3 15  1  0  0  0  0
  3 10  1  0  0  0  0
  4  9  2  0  0  0  0
  5  9  1  0  0  0  0
  6  4  1  0  0  0  0
  7  8  2  0  0  0  0
  8  6  1  0  0  0  0
  9 26  1  0  0  0  0
 10 11  1  0  0  0  0
 11  1  1  0  0  0  0
 11  6  2  0  0  0  0
 12 10  2  0  0  0  0
 12  7  1  0  0  0  0
 13 14  1  0  0  0  0
 14 16  2  0  0  0  0
 15 17  2  0  0  0  0
 17 16  1  0  0  0  0
 17  1  1  0  0  0  0
 18 22  1  0  0  0  0
 19 24  1  0  0  0  0
 20 28  1  0  0  0  0
 21 20  1  0  0  0  0
 22 21  2  0  0  0  0
 23 25  1  0  0  0  0
 24 23  2  0  0  0  0
 24 22  1  0  0  0  0
 25 20  2  0  0  0  0
 26 19  2  0  0  0  0
 26 27  1  0  0  0  0
 27 18  2  0  0  0  0
 28 30  2  0  0  0  0
 28 29  2  0  0  0  0
 31 32  1  0  0  0  0
 31 13  1  0  0  0  0
 33 34  1  0  0  0  0
 33 32  1  0  0  0  0
 34 32  1  0  0  0  0
M  END
>  <MODEL>
6

>  <REMARK>
 VINA RESULT:      -8.4      2.752      5.452
  Name = 
  4 active torsions:
  status: ('A' for Active; 'I' for Inactive)
    1  A    between atoms: C_3  and  O_25
    2  A    between atoms: C_7  and  N_11
    3  A    between atoms: C_18  and  C_30
    4  A    between atoms: C_23  and  O_25
                            x       y       z     vdW  Elec       q    Type
                         _______ _______ _______ _____ _____    ______ ____

>  <TORSDO>
F 4

$$$$
=
 OpenBabel10272415223D

 34 40  0  0  0  0  0  0  0  0999 V2000
  184.9940  178.4130  141.8190 C   0  0  0  0  0  0  0  0  0  0  0  0
  181.6320  179.6520  140.5770 C   0  0  0  0  0  3  0  0  0  0  0  0
  182.0590  178.3260  142.9410 S   0  0  0  0  0  0  0  0  0  0  0  0
  187.1970  178.1010  143.4430 N   0  0  0  0  0  0  0  0  0  0  0  0
  186.2300  178.1710  141.3010 N   0  0  0  0  0  0  0  0  0  0  0  0
  185.9950  178.3480  144.0180 C   0  0  0  0  0  0  0  0  0  0  0  0
  184.6710  178.7860  145.9960 C   0  0  0  0  0  3  0  0  0  0  0  0
  185.9080  178.5310  145.4000 C   0  0  0  0  0  3  0  0  0  0  0  0
  187.3200  177.9810  142.0930 C   0  0  0  0  0  0  0  0  0  0  0  0
  183.5840  178.6370  143.8320 C   0  0  0  0  0  0  0  0  0  0  0  0
  184.8360  178.4460  143.2180 C   0  0  0  0  0  0  0  0  0  0  0  0
  183.5120  178.8220  145.2160 C   0  0  0  0  0  3  0  0  0  0  0  0
  181.9580  180.0820  139.2890 C   0  0  0  0  0  0  0  0  0  0  0  0
  183.2590  179.8830  138.8060 C   0  0  0  0  0  3  0  0  0  0  0  0
  182.5930  179.0410  141.3890 C   0  0  0  0  0  0  0  0  0  0  0  0
  184.2250  179.2860  139.6170 C   0  0  0  0  0  3  0  0  0  0  0  0
  183.9070  178.8630  140.9160 C   0  0  0  0  0  0  0  0  0  0  0  0
  191.0520  177.4970  141.7010 C   0  0  0  0  0  3  0  0  0  0  0  0
  188.7360  177.3820  140.1260 C   0  0  0  0  0  3  0  0  0  0  0  0
  192.4950  176.5930  138.4100 C   0  0  0  0  0  0  0  0  0  0  0  0
  192.3950  176.9150  139.7710 C   0  0  0  0  0  3  0  0  0  0  0  0
  191.1490  177.1770  140.3460 C   0  0  0  0  0  0  0  0  0  0  0  0
  190.0800  176.8000  138.1960 C   0  0  0  0  0  3  0  0  0  0  0  0
  189.9830  177.1200  139.5520 C   0  0  0  0  0  0  0  0  0  0  0  0
  191.3290  176.5390  137.6280 C   0  0  0  0  0  3  0  0  0  0  0  0
  188.6360  177.7030  141.4880 C   0  0  0  0  0  0  0  0  0  0  0  0
  189.8010  177.7580  142.2690 C   0  0  0  0  0  3  0  0  0  0  0  0
  193.7770  176.3240  137.8260 N   0  0  0  0  0  0  0  0  0  0  0  0
  194.5860  175.5630  138.3950 O   0  0  0  0  0  0  0  0  0  0  0  0
  194.1290  176.9030  136.6280 O   0  0  0  0  0  0  0  0  0  0  0  0
  180.9700  180.6910  138.5090 O   0  0  0  0  0  0  0  0  0  0  0  0
  181.2320  181.8100  137.6720 C   0  0  0  0  0  3  0  0  0  0  0  0
  180.3580  181.7270  136.4380 C   0  0  0  0  0  2  0  0  0  0  0  0
  179.9820  182.6570  137.5710 C   0  0  0  0  0  2  0  0  0  0  0  0
  1 11  1  0  0  0  0
  2 15  1  0  0  0  0
  3 10  1  0  0  0  0
  4  6  1  0  0  0  0
  5  1  2  0  0  0  0
  5  9  1  0  0  0  0
  6  8  1  0  0  0  0
  8  7  2  0  0  0  0
  9  4  2  0  0  0  0
 10 12  2  0  0  0  0
 11 10  1  0  0  0  0
 11  6  2  0  0  0  0
 12  7  1  0  0  0  0
 13  2  2  0  0  0  0
 14 13  1  0  0  0  0
 14 16  2  0  0  0  0
 15  3  1  0  0  0  0
 16 17  1  0  0  0  0
 17 15  2  0  0  0  0
 17  1  1  0  0  0  0
 18 27  1  0  0  0  0
 19 26  1  0  0  0  0
 20 21  2  0  0  0  0
 21 22  1  0  0  0  0
 22 18  2  0  0  0  0
 23 24  1  0  0  0  0
 24 19  2  0  0  0  0
 24 22  1  0  0  0  0
 25 23  2  0  0  0  0
 25 20  1  0  0  0  0
 26  9  1  0  0  0  0
 26 27  2  0  0  0  0
 28 29  2  0  0  0  0
 28 20  1  0  0  0  0
 30 28  2  0  0  0  0
 31 13  1  0  0  0  0
 32 31  1  0  0  0  0
 33 34  1  0  0  0  0
 33 32  1  0  0  0  0
 34 32  1  0  0  0  0
M  END
>  <MODEL>
7

>  <REMARK>
 VINA RESULT:      -8.2      4.706      9.912
  Name = 
  4 active torsions:
  status: ('A' for Active; 'I' for Inactive)
    1  A    between atoms: C_3  and  O_25
    2  A    between atoms: C_7  and  N_11
    3  A    between atoms: C_18  and  C_30
    4  A    between atoms: C_23  and  O_25
                            x       y       z     vdW  Elec       q    Type
                         _______ _______ _______ _____ _____    ______ ____

>  <TORSDO>
F 4

$$$$
=
 OpenBabel10272415223D

 34 40  0  0  0  0  0  0  0  0999 V2000
  189.9270  177.1660  139.7590 C   0  0  0  0  0  0  0  0  0  0  0  0
  188.2220  177.5440  143.1250 C   0  0  0  0  0  3  0  0  0  0  0  0
  187.4340  178.7710  140.8010 S   0  0  0  0  0  0  0  0  0  0  0  0
  190.2840  176.5760  137.0910 N   0  0  0  0  0  0  0  0  0  0  0  0
  191.1240  176.7270  139.2820 N   0  0  0  0  0  0  0  0  0  0  0  0
  189.0660  177.0010  137.5060 C   0  0  0  0  0  0  0  0  0  0  0  0
  186.7420  177.4820  137.0300 C   0  0  0  0  0  3  0  0  0  0  0  0
  187.9990  177.0450  136.6050 C   0  0  0  0  0  3  0  0  0  0  0  0
  191.3240  176.4650  137.9620 C   0  0  0  0  0  0  0  0  0  0  0  0
  187.6180  177.8770  139.2570 C   0  0  0  0  0  0  0  0  0  0  0  0
  188.8690  177.3760  138.8530 C   0  0  0  0  0  0  0  0  0  0  0  0
  186.5580  177.9130  138.3460 C   0  0  0  0  0  3  0  0  0  0  0  0
  189.1110  176.8630  143.9600 C   0  0  0  0  0  0  0  0  0  0  0  0
  190.3070  176.3600  143.4270 C   0  0  0  0  0  3  0  0  0  0  0  0
  188.5070  177.7130  141.7660 C   0  0  0  0  0  0  0  0  0  0  0  0
  190.5900  176.5150  142.0690 C   0  0  0  0  0  3  0  0  0  0  0  0
  189.6950  177.1870  141.2230 C   0  0  0  0  0  0  0  0  0  0  0  0
  194.2740  175.7740  135.6950 C   0  0  0  0  0  3  0  0  0  0  0  0
  193.5330  175.3740  138.3690 C   0  0  0  0  0  3  0  0  0  0  0  0
  197.2950  174.0760  137.0070 C   0  0  0  0  0  0  0  0  0  0  0  0
  196.4070  174.7100  136.1260 C   0  0  0  0  0  3  0  0  0  0  0  0
  195.1560  175.1430  136.5740 C   0  0  0  0  0  0  0  0  0  0  0  0
  195.6650  174.3100  138.7990 C   0  0  0  0  0  3  0  0  0  0  0  0
  194.7830  174.9410  137.9210 C   0  0  0  0  0  0  0  0  0  0  0  0
  196.9150  173.8790  138.3450 C   0  0  0  0  0  3  0  0  0  0  0  0
  192.6440  176.0090  137.4880 C   0  0  0  0  0  0  0  0  0  0  0  0
  193.0240  176.2050  136.1510 C   0  0  0  0  0  3  0  0  0  0  0  0
  198.5770  173.6330  136.5420 N   0  0  0  0  0  0  0  0  0  0  0  0
  198.7400  172.4570  136.1540 O   0  0  0  0  0  0  0  0  0  0  0  0
  199.6440  174.5020  136.5170 O   0  0  0  0  0  0  0  0  0  0  0  0
  188.7900  176.7120  145.3120 O   0  0  0  0  0  0  0  0  0  0  0  0
  189.1450  177.6710  146.2990 C   0  0  0  0  0  3  0  0  0  0  0  0
  188.5620  177.2540  147.6340 C   0  0  0  0  0  2  0  0  0  0  0  0
  190.0270  177.0110  147.3370 C   0  0  0  0  0  2  0  0  0  0  0  0
  1 17  1  0  0  0  0
  2 13  1  0  0  0  0
  3 15  1  0  0  0  0
  4  6  1  0  0  0  0
  4  9  2  0  0  0  0
  5  1  2  0  0  0  0
  6 11  1  0  0  0  0
  7 12  2  0  0  0  0
  8  7  1  0  0  0  0
  8  6  2  0  0  0  0
  9  5  1  0  0  0  0
 10  3  1  0  0  0  0
 11 10  2  0  0  0  0
 11  1  1  0  0  0  0
 12 10  1  0  0  0  0
 13 31  1  0  0  0  0
 14 13  2  0  0  0  0
 15  2  2  0  0  0  0
 16 14  1  0  0  0  0
 17 15  1  0  0  0  0
 17 16  2  0  0  0  0
 18 27  2  0  0  0  0
 18 22  1  0  0  0  0
 20 25  1  0  0  0  0
 21 22  1  0  0  0  0
 21 20  2  0  0  0  0
 22 24  2  0  0  0  0
 24 19  1  0  0  0  0
 24 23  1  0  0  0  0
 25 23  2  0  0  0  0
 26  9  1  0  0  0  0
 26 19  2  0  0  0  0
 27 26  1  0  0  0  0
 28 20  1  0  0  0  0
 29 28  2  0  0  0  0
 30 28  2  0  0  0  0
 31 32  1  0  0  0  0
 32 34  1  0  0  0  0
 32 33  1  0  0  0  0
 34 33  1  0  0  0  0
M  END
>  <MODEL>
8

>  <REMARK>
 VINA RESULT:      -8.2      2.742      9.384
  Name = 
  4 active torsions:
  status: ('A' for Active; 'I' for Inactive)
    1  A    between atoms: C_3  and  O_25
    2  A    between atoms: C_7  and  N_11
    3  A    between atoms: C_18  and  C_30
    4  A    between atoms: C_23  and  O_25
                            x       y       z     vdW  Elec       q    Type
                         _______ _______ _______ _____ _____    ______ ____

>  <TORSDO>
F 4

$$$$
=
 OpenBabel10272415223D

 34 40  0  0  0  0  0  0  0  0999 V2000
  188.7700  177.8210  144.8550 C   0  0  0  0  0  0  0  0  0  0  0  0
  190.7160  177.0330  148.0120 C   0  0  0  0  0  3  0  0  0  0  0  0
  188.4790  178.6160  147.8820 S   0  0  0  0  0  0  0  0  0  0  0  0
  186.6640  177.9790  143.0850 N   0  0  0  0  0  0  0  0  0  0  0  0
  188.9650  177.7490  143.5090 N   0  0  0  0  0  0  0  0  0  0  0  0
  186.4040  178.0480  144.4140 C   0  0  0  0  0  0  0  0  0  0  0  0
  184.8110  178.1770  146.2310 C   0  0  0  0  0  3  0  0  0  0  0  0
  185.0820  178.1050  144.8630 C   0  0  0  0  0  3  0  0  0  0  0  0
  187.9380  177.8600  142.6230 C   0  0  0  0  0  0  0  0  0  0  0  0
  187.1880  178.1770  146.7150 C   0  0  0  0  0  0  0  0  0  0  0  0
  187.4670  178.0380  145.3430 C   0  0  0  0  0  0  0  0  0  0  0  0
  185.8610  178.2300  147.1520 C   0  0  0  0  0  3  0  0  0  0  0  0
  191.8190  176.3530  147.4910 C   0  0  0  0  0  0  0  0  0  0  0  0
  191.9600  176.2330  146.1010 C   0  0  0  0  0  3  0  0  0  0  0  0
  189.7490  177.5800  147.1630 C   0  0  0  0  0  0  0  0  0  0  0  0
  190.9900  176.7660  145.2500 C   0  0  0  0  0  3  0  0  0  0  0  0
  189.8740  177.4390  145.7670 C   0  0  0  0  0  0  0  0  0  0  0  0
  187.5360  178.3020  138.8870 C   0  0  0  0  0  3  0  0  0  0  0  0
  189.3560  177.1640  140.6890 C   0  0  0  0  0  3  0  0  0  0  0  0
  190.0920  176.9820  136.5520 C   0  0  0  0  0  0  0  0  0  0  0  0
  188.9360  177.6120  137.0350 C   0  0  0  0  0  3  0  0  0  0  0  0
  188.6870  177.6750  138.4080 C   0  0  0  0  0  0  0  0  0  0  0  0
  190.7560  176.4730  138.8370 C   0  0  0  0  0  3  0  0  0  0  0  0
  189.6040  177.1010  139.3160 C   0  0  0  0  0  0  0  0  0  0  0  0
  190.9980  176.4130  137.4620 C   0  0  0  0  0  3  0  0  0  0  0  0
  188.1990  177.7950  141.1730 C   0  0  0  0  0  0  0  0  0  0  0  0
  187.2940  178.3620  140.2630 C   0  0  0  0  0  3  0  0  0  0  0  0
  190.3420  176.9200  135.1410 N   0  0  0  0  0  0  0  0  0  0  0  0
  189.6590  177.5990  134.3460 O   0  0  0  0  0  0  0  0  0  0  0  0
  191.3400  176.1110  134.6480 O   0  0  0  0  0  0  0  0  0  0  0  0
  192.7630  175.8190  148.3730 O   0  0  0  0  0  0  0  0  0  0  0  0
  192.8280  176.1840  149.7450 C   0  0  0  0  0  3  0  0  0  0  0  0
  194.2520  176.5660  150.0930 C   0  0  0  0  0  2  0  0  0  0  0  0
  193.2160  177.6430  149.8520 C   0  0  0  0  0  2  0  0  0  0  0  0
  1 11  1  0  0  0  0
  1 17  1  0  0  0  0
  4  6  1  0  0  0  0
  5  1  2  0  0  0  0
  6  8  2  0  0  0  0
  6 11  1  0  0  0  0
  7 12  2  0  0  0  0
  8  7  1  0  0  0  0
  9  4  2  0  0  0  0
  9  5  1  0  0  0  0
 10 12  1  0  0  0  0
 10  3  1  0  0  0  0
 11 10  2  0  0  0  0
 13  2  1  0  0  0  0
 13 31  1  0  0  0  0
 14 13  2  0  0  0  0
 15  3  1  0  0  0  0
 15  2  2  0  0  0  0
 16 17  2  0  0  0  0
 16 14  1  0  0  0  0
 17 15  1  0  0  0  0
 18 27  1  0  0  0  0
 19 26  1  0  0  0  0
 20 21  2  0  0  0  0
 20 25  1  0  0  0  0
 21 22  1  0  0  0  0
 22 18  2  0  0  0  0
 22 24  1  0  0  0  0
 23 24  1  0  0  0  0
 24 19  2  0  0  0  0
 25 23  2  0  0  0  0
 26  9  1  0  0  0  0
 27 26  2  0  0  0  0
 28 20  1  0  0  0  0
 29 28  2  0  0  0  0
 30 28  2  0  0  0  0
 31 32  1  0  0  0  0
 32 34  1  0  0  0  0
 32 33  1  0  0  0  0
 34 33  1  0  0  0  0
M  END
>  <MODEL>
9

>  <REMARK>
 VINA RESULT:      -8.0      3.706      9.931
  Name = 
  4 active torsions:
  status: ('A' for Active; 'I' for Inactive)
    1  A    between atoms: C_3  and  O_25
    2  A    between atoms: C_7  and  N_11
    3  A    between atoms: C_18  and  C_30
    4  A    between atoms: C_23  and  O_25
                            x       y       z     vdW  Elec       q    Type
                         _______ _______ _______ _____ _____    ______ ____

>  <TORSDO>
F 4

$$$$
