=
 OpenBabel10272402093D

 32 34  0  0  1  0  0  0  0  0999 V2000
  185.1920  179.6300  143.2770 C   0  0  1  0  0  3  0  0  0  0  0  0
  186.1950  177.2830  143.8060 C   0  0  0  0  0  2  0  0  0  0  0  0
  183.8570  179.9100  143.6670 O   0  0  0  0  0  0  0  0  0  0  0  0
  186.0200  178.7430  144.2580 C   0  0  2  0  0  3  0  0  0  0  0  0
  188.3500  177.2720  146.3090 C   0  0  0  0  0  3  0  0  0  0  0  0
  189.2810  177.5520  143.8840 C   0  0  0  0  0  0  0  0  0  0  0  0
  185.3630  178.8160  145.6530 C   0  0  2  0  0  3  0  0  0  0  0  0
  188.8190  177.4040  145.1000 C   0  0  0  0  0  0  0  0  0  0  0  0
  186.0460  177.9740  146.7290 C   0  0  0  0  0  2  0  0  0  0  0  0
  183.8700  178.4730  145.6040 C   0  0  0  0  0  2  0  0  0  0  0  0
  187.1200  177.1740  142.6820 N   0  0  0  0  0  0  0  0  0  0  0  0
  187.5110  178.3510  146.8950 C   0  0  1  0  0  3  0  0  0  0  0  0
  183.2840  178.7480  144.2190 C   0  0  0  0  0  2  0  0  0  0  0  0
  188.4180  177.3030  142.7000 C   0  0  0  0  0  3  0  0  0  0  0  0
  191.1630  179.2210  143.9960 C   0  0  0  0  0  1  0  0  0  0  0  0
  190.6710  177.8880  143.6840 N   0  0  0  0  0  0  0  0  0  0  0  0
  191.6640  175.6610  143.8750 C   0  0  0  0  0  1  0  0  0  0  0  0
  191.6200  176.9550  143.0820 C   0  0  0  0  0  2  0  0  0  0  0  0
  187.8540  178.5030  148.3650 C   0  0  0  0  0  2  0  0  0  0  0  0
  189.3330  178.2500  148.5930 C   0  0  0  0  0  1  0  0  0  0  0  0
  186.3360  179.6440  141.1890 O   0  0  0  0  0  0  0  0  0  0  0  0
  185.2950  179.3170  141.8180 C   0  0  0  0  0  0  0  0  0  0  0  0
  184.2450  178.6530  141.1800 O   0  0  0  0  0  0  0  0  0  0  0  0
  184.2890  180.3780  139.1760 O   0  0  0  0  0  0  0  0  0  0  0  0
  183.7590  179.0180  139.5710 P   0  0  2  0  0  0  0  0  0  0  0  0
  182.0710  179.0240  139.4800 O   0  0  0  0  0  1  0  0  0  0  0  0
  183.4570  177.5430  137.2750 C   0  0  0  0  0  2  0  0  0  0  0  0
  184.4250  177.7600  138.4470 C   0  0  0  0  0  3  0  0  0  0  0  0
  184.1420  177.0450  135.9980 C   0  0  0  0  0  2  0  0  0  0  0  0
  186.4310  177.1050  137.0570 C   0  0  0  0  0  2  0  0  0  0  0  0
  185.8040  178.1830  137.9500 C   0  0  0  0  0  2  0  0  0  0  0  0
  185.4010  176.2470  136.3120 C   0  0  0  0  0  2  0  0  0  0  0  0
  1 22  1  6  0  0  0
  1  3  1  0  0  0  0
  1  4  1  0  0  0  0
  3 13  1  0  0  0  0
  4  2  1  6  0  0  0
  4  7  1  0  0  0  0
  5 12  1  0  0  0  0
  6  8  2  0  0  0  0
  7 10  1  6  0  0  0
  7  9  1  0  0  0  0
  8  5  2  0  0  0  0
  9 12  1  0  0  0  0
 11 14  2  0  0  0  0
 11  2  1  0  0  0  0
 12 19  1  1  0  0  0
 13 10  1  0  0  0  0
 14  6  1  0  0  0  0
 16  6  1  0  0  0  0
 16 15  1  0  0  0  0
 18 16  1  0  0  0  0
 18 17  1  0  0  0  0
 19 20  1  0  0  0  0
 21 22  2  0  0  0  0
 23 22  1  0  0  0  0
 25 24  2  6  0  0  0
 25 23  1  0  0  0  0
 26 25  1  0  0  0  0
 27 28  1  0  0  0  0
 28 25  1  0  0  0  0
 29 32  1  0  0  0  0
 29 27  1  0  0  0  0
 30 31  1  0  0  0  0
 31 28  1  0  0  0  0
 32 30  1  0  0  0  0
M  END
>  <MODEL>
1

>  <REMARK>
 VINA RESULT:      -8.7      0.000      0.000
  Name = 
  7 active torsions:
  status: ('A' for Active; 'I' for Inactive)
    1  A    between atoms: C_1  and  C_27
    2  A    between atoms: C_7  and  P_22
    3  A    between atoms: C_10  and  N_12
    4  A    between atoms: N_12  and  C_31
    5  A    between atoms: C_13  and  C_29
    6  A    between atoms: O_16  and  P_22
    7  A    between atoms: O_16  and  C_27
                            x       y       z     vdW  Elec       q    Type
                         _______ _______ _______ _____ _____    ______ ____

>  <TORSDO>
F 7

$$$$
=
 OpenBabel10272402093D

 32 34  0  0  1  0  0  0  0  0999 V2000
  185.2240  179.6420  143.3490 C   0  0  1  0  0  3  0  0  0  0  0  0
  186.2460  177.2990  143.8570 C   0  0  0  0  0  2  0  0  0  0  0  0
  183.8870  179.9080  143.7410 O   0  0  0  0  0  0  0  0  0  0  0  0
  186.0590  178.7540  144.3230 C   0  0  2  0  0  3  0  0  0  0  0  0
  188.4000  177.2830  146.3610 C   0  0  0  0  0  3  0  0  0  0  0  0
  189.3300  177.5920  143.9400 C   0  0  0  0  0  0  0  0  0  0  0  0
  185.4010  178.8080  145.7180 C   0  0  2  0  0  3  0  0  0  0  0  0
  188.8680  177.4300  145.1540 C   0  0  0  0  0  0  0  0  0  0  0  0
  186.0900  177.9620  146.7860 C   0  0  0  0  0  2  0  0  0  0  0  0
  183.9100  178.4530  145.6650 C   0  0  0  0  0  2  0  0  0  0  0  0
  187.1730  177.2080  142.7320 N   0  0  0  0  0  0  0  0  0  0  0  0
  187.5510  178.3490  146.9560 C   0  0  1  0  0  3  0  0  0  0  0  0
  183.3230  178.7360  144.2820 C   0  0  0  0  0  2  0  0  0  0  0  0
  188.4690  177.3470  142.7520 C   0  0  0  0  0  3  0  0  0  0  0  0
  191.1970  179.2770  144.0640 C   0  0  0  0  0  1  0  0  0  0  0  0
  190.7170  177.9420  143.7430 N   0  0  0  0  0  0  0  0  0  0  0  0
  191.6830  175.6990  143.8830 C   0  0  0  0  0  1  0  0  0  0  0  0
  191.6750  177.0220  143.1360 C   0  0  0  0  0  2  0  0  0  0  0  0
  187.8930  178.4910  148.4280 C   0  0  0  0  0  2  0  0  0  0  0  0
  189.3540  178.1590  148.6680 C   0  0  0  0  0  1  0  0  0  0  0  0
  186.3520  179.7190  141.2540 O   0  0  0  0  0  0  0  0  0  0  0  0
  185.3300  179.3440  141.8870 C   0  0  0  0  0  0  0  0  0  0  0  0
  184.3050  178.6390  141.2520 O   0  0  0  0  0  0  0  0  0  0  0  0
  185.1430  178.0240  138.8210 O   0  0  0  0  0  0  0  0  0  0  0  0
  184.0300  178.7330  139.5570 P   0  0  2  0  0  0  0  0  0  0  0  0
  183.9850  180.3550  139.0820 O   0  0  0  0  0  1  0  0  0  0  0  0
  182.5780  176.4170  139.2960 C   0  0  0  0  0  2  0  0  0  0  0  0
  182.4450  177.9410  139.1660 C   0  0  0  0  0  3  0  0  0  0  0  0
  181.2580  175.7130  139.6290 C   0  0  0  0  0  2  0  0  0  0  0  0
  179.9820  177.8880  139.7320 C   0  0  0  0  0  2  0  0  0  0  0  0
  181.3540  178.4790  140.0860 C   0  0  0  0  0  2  0  0  0  0  0  0
  180.0580  176.4920  139.1020 C   0  0  0  0  0  2  0  0  0  0  0  0
  1 22  1  6  0  0  0
  1  3  1  0  0  0  0
  1  4  1  0  0  0  0
  3 13  1  0  0  0  0
  4  2  1  6  0  0  0
  4  7  1  0  0  0  0
  5 12  1  0  0  0  0
  6  8  2  0  0  0  0
  7 10  1  6  0  0  0
  7  9  1  0  0  0  0
  8  5  2  0  0  0  0
  9 12  1  0  0  0  0
 11 14  2  0  0  0  0
 11  2  1  0  0  0  0
 12 19  1  1  0  0  0
 13 10  1  0  0  0  0
 14  6  1  0  0  0  0
 16  6  1  0  0  0  0
 16 15  1  0  0  0  0
 18 16  1  0  0  0  0
 18 17  1  0  0  0  0
 19 20  1  0  0  0  0
 21 22  2  0  0  0  0
 23 22  1  0  0  0  0
 25 24  2  6  0  0  0
 25 23  1  0  0  0  0
 26 25  1  0  0  0  0
 27 29  1  0  0  0  0
 28 27  1  0  0  0  0
 28 25  1  0  0  0  0
 28 31  1  0  0  0  0
 30 31  1  0  0  0  0
 32 29  1  0  0  0  0
 32 30  1  0  0  0  0
M  END
>  <MODEL>
2

>  <REMARK>
 VINA RESULT:      -8.7      1.571      2.211
  Name = 
  7 active torsions:
  status: ('A' for Active; 'I' for Inactive)
    1  A    between atoms: C_1  and  C_27
    2  A    between atoms: C_7  and  P_22
    3  A    between atoms: C_10  and  N_12
    4  A    between atoms: N_12  and  C_31
    5  A    between atoms: C_13  and  C_29
    6  A    between atoms: O_16  and  P_22
    7  A    between atoms: O_16  and  C_27
                            x       y       z     vdW  Elec       q    Type
                         _______ _______ _______ _____ _____    ______ ____

>  <TORSDO>
F 7

$$$$
=
 OpenBabel10272402093D

 32 34  0  0  1  0  0  0  0  0999 V2000
  186.6900  179.1050  141.7270 C   0  0  1  0  0  3  0  0  0  0  0  0
  187.1150  176.8410  142.9490 C   0  0  0  0  0  2  0  0  0  0  0  0
  185.3580  179.4700  141.4040 O   0  0  0  0  0  0  0  0  0  0  0  0
  186.8830  178.3560  143.0840 C   0  0  2  0  0  3  0  0  0  0  0  0
  187.8500  177.1560  146.1530 C   0  0  0  0  0  3  0  0  0  0  0  0
  189.8220  177.0480  144.4430 C   0  0  0  0  0  0  0  0  0  0  0  0
  185.6630  178.6520  143.9820 C   0  0  2  0  0  3  0  0  0  0  0  0
  188.8370  177.0950  145.3040 C   0  0  0  0  0  0  0  0  0  0  0  0
  185.6890  177.9650  145.3460 C   0  0  0  0  0  2  0  0  0  0  0  0
  184.3390  178.3390  143.2750 C   0  0  0  0  0  2  0  0  0  0  0  0
  188.4430  176.5440  142.4170 N   0  0  0  0  0  0  0  0  0  0  0  0
  186.9370  178.3290  146.1370 C   0  0  1  0  0  3  0  0  0  0  0  0
  184.4920  178.4180  141.7550 C   0  0  0  0  0  2  0  0  0  0  0  0
  189.5890  176.6440  143.0310 C   0  0  0  0  0  3  0  0  0  0  0  0
  191.7150  176.6500  146.0540 C   0  0  0  0  0  1  0  0  0  0  0  0
  191.1700  177.3190  144.8840 N   0  0  0  0  0  0  0  0  0  0  0  0
  191.2410  179.6290  144.0830 C   0  0  0  0  0  1  0  0  0  0  0  0
  192.0100  178.3300  144.2460 C   0  0  0  0  0  2  0  0  0  0  0  0
  186.5700  178.6920  147.5640 C   0  0  0  0  0  2  0  0  0  0  0  0
  187.7030  178.3360  148.5090 C   0  0  0  0  0  1  0  0  0  0  0  0
  188.6810  178.7090  140.4830 O   0  0  0  0  0  0  0  0  0  0  0  0
  187.4300  178.5740  140.5410 C   0  0  0  0  0  0  0  0  0  0  0  0
  186.7260  177.9240  139.5240 O   0  0  0  0  0  0  0  0  0  0  0  0
  187.7930  179.0990  137.4090 O   0  0  0  0  0  1  0  0  0  0  0  0
  187.3490  177.7510  137.9310 P   0  0  2  0  0  0  0  0  0  0  0  0
  186.1470  177.1240  136.9210 O   0  0  0  0  0  0  0  0  0  0  0  0
  188.4640  175.3790  137.1130 C   0  0  0  0  0  2  0  0  0  0  0  0
  188.7670  176.6200  137.9650 C   0  0  0  0  0  3  0  0  0  0  0  0
  189.7180  174.7060  136.5420 C   0  0  0  0  0  2  0  0  0  0  0  0
  191.2540  176.4330  137.5550 C   0  0  0  0  0  2  0  0  0  0  0  0
  190.0170  177.3380  137.4670 C   0  0  0  0  0  2  0  0  0  0  0  0
  190.9330  174.9380  137.4320 C   0  0  0  0  0  2  0  0  0  0  0  0
  1 22  1  6  0  0  0
  1  4  1  0  0  0  0
  3  1  1  0  0  0  0
  3 13  1  0  0  0  0
  4  2  1  6  0  0  0
  4  7  1  0  0  0  0
  6 16  1  0  0  0  0
  6  8  2  0  0  0  0
  7 10  1  6  0  0  0
  7  9  1  0  0  0  0
  8  5  2  0  0  0  0
  9 12  1  0  0  0  0
 11  2  1  0  0  0  0
 11 14  2  0  0  0  0
 12  5  1  0  0  0  0
 12 19  1  1  0  0  0
 13 10  1  0  0  0  0
 14  6  1  0  0  0  0
 16 15  1  0  0  0  0
 17 18  1  0  0  0  0
 18 16  1  0  0  0  0
 19 20  1  0  0  0  0
 21 22  2  0  0  0  0
 23 22  1  0  0  0  0
 24 25  1  0  0  0  0
 25 26  2  6  0  0  0
 25 28  1  0  0  0  0
 25 23  1  0  0  0  0
 27 28  1  0  0  0  0
 29 27  1  0  0  0  0
 29 32  1  0  0  0  0
 31 30  1  0  0  0  0
 31 28  1  0  0  0  0
 32 30  1  0  0  0  0
M  END
>  <MODEL>
3

>  <REMARK>
 VINA RESULT:      -8.2      2.461      3.191
  Name = 
  7 active torsions:
  status: ('A' for Active; 'I' for Inactive)
    1  A    between atoms: C_1  and  C_27
    2  A    between atoms: C_7  and  P_22
    3  A    between atoms: C_10  and  N_12
    4  A    between atoms: N_12  and  C_31
    5  A    between atoms: C_13  and  C_29
    6  A    between atoms: O_16  and  P_22
    7  A    between atoms: O_16  and  C_27
                            x       y       z     vdW  Elec       q    Type
                         _______ _______ _______ _____ _____    ______ ____

>  <TORSDO>
F 7

$$$$
=
 OpenBabel10272402093D

 32 34  0  0  1  0  0  0  0  0999 V2000
  190.0620  176.1810  142.5710 C   0  0  1  0  0  3  0  0  0  0  0  0
  189.0920  178.5840  142.8520 C   0  0  0  0  0  2  0  0  0  0  0  0
  191.1090  175.7590  143.4310 O   0  0  0  0  0  0  0  0  0  0  0  0
  188.9730  177.0930  143.2170 C   0  0  2  0  0  3  0  0  0  0  0  0
  186.1240  178.6770  144.2980 C   0  0  0  0  0  3  0  0  0  0  0  0
  186.2190  178.6020  141.6890 C   0  0  0  0  0  0  0  0  0  0  0  0
  189.0130  176.8930  144.7470 C   0  0  2  0  0  3  0  0  0  0  0  0
  186.1670  178.6470  142.9960 C   0  0  0  0  0  0  0  0  0  0  0  0
  188.0160  177.7430  145.5320 C   0  0  0  0  0  2  0  0  0  0  0  0
  190.4220  177.0970  145.3160 C   0  0  0  0  0  2  0  0  0  0  0  0
  188.7000  178.8320  141.4670 N   0  0  0  0  0  0  0  0  0  0  0  0
  186.5860  177.4980  145.0770 C   0  0  1  0  0  3  0  0  0  0  0  0
  191.4910  176.8340  144.2550 C   0  0  0  0  0  2  0  0  0  0  0  0
  187.4970  178.8250  140.9630 C   0  0  0  0  0  3  0  0  0  0  0  0
  183.7870  177.9570  141.5880 C   0  0  0  0  0  1  0  0  0  0  0  0
  185.0050  178.4070  140.9320 N   0  0  0  0  0  0  0  0  0  0  0  0
  183.9620  179.6350  139.0920 C   0  0  0  0  0  1  0  0  0  0  0  0
  184.9590  178.5570  139.4800 C   0  0  0  0  0  2  0  0  0  0  0  0
  185.6750  177.3090  146.2770 C   0  0  0  0  0  2  0  0  0  0  0  0
  184.7460  178.4990  146.4310 C   0  0  0  0  0  1  0  0  0  0  0  0
  191.6250  177.2540  141.1300 O   0  0  0  0  0  0  0  0  0  0  0  0
  190.5700  176.5710  141.2200 C   0  0  0  0  0  0  0  0  0  0  0  0
  189.8780  176.1580  140.0780 O   0  0  0  0  0  0  0  0  0  0  0  0
  190.8400  174.6660  138.1190 O   0  0  0  0  0  0  0  0  0  0  0  0
  190.6080  176.1040  138.5220 P   0  0  2  0  0  0  0  0  0  0  0  0
  192.0880  176.9210  138.5650 O   0  0  0  0  0  1  0  0  0  0  0  0
  188.2320  176.0630  137.1470 C   0  0  0  0  0  2  0  0  0  0  0  0
  189.5080  176.9000  137.3190 C   0  0  0  0  0  3  0  0  0  0  0  0
  187.0140  176.8860  136.7120 C   0  0  0  0  0  2  0  0  0  0  0  0
  188.3110  179.0500  136.7410 C   0  0  0  0  0  2  0  0  0  0  0  0
  189.1790  178.3180  137.7740 C   0  0  0  0  0  2  0  0  0  0  0  0
  187.4250  178.1140  135.9100 C   0  0  0  0  0  2  0  0  0  0  0  0
  1 22  1  6  0  0  0
  1  4  1  0  0  0  0
  1  3  1  0  0  0  0
  3 13  1  0  0  0  0
  4  2  1  1  0  0  0
  4  7  1  0  0  0  0
  5 12  1  0  0  0  0
  6  8  2  0  0  0  0
  7 10  1  1  0  0  0
  7  9  1  0  0  0  0
  8  5  2  0  0  0  0
 11  2  1  0  0  0  0
 12  9  1  0  0  0  0
 12 19  1  1  0  0  0
 13 10  1  0  0  0  0
 14 11  2  0  0  0  0
 14  6  1  0  0  0  0
 16 15  1  0  0  0  0
 16  6  1  0  0  0  0
 17 18  1  0  0  0  0
 18 16  1  0  0  0  0
 19 20  1  0  0  0  0
 21 22  2  0  0  0  0
 23 22  1  0  0  0  0
 25 24  2  6  0  0  0
 25 26  1  0  0  0  0
 25 23  1  0  0  0  0
 27 28  1  0  0  0  0
 28 31  1  0  0  0  0
 28 25  1  0  0  0  0
 29 27  1  0  0  0  0
 30 31  1  0  0  0  0
 32 29  1  0  0  0  0
 32 30  1  0  0  0  0
M  END
>  <MODEL>
4

>  <REMARK>
 VINA RESULT:      -7.9      3.517      5.748
  Name = 
  7 active torsions:
  status: ('A' for Active; 'I' for Inactive)
    1  A    between atoms: C_1  and  C_27
    2  A    between atoms: C_7  and  P_22
    3  A    between atoms: C_10  and  N_12
    4  A    between atoms: N_12  and  C_31
    5  A    between atoms: C_13  and  C_29
    6  A    between atoms: O_16  and  P_22
    7  A    between atoms: O_16  and  C_27
                            x       y       z     vdW  Elec       q    Type
                         _______ _______ _______ _____ _____    ______ ____

>  <TORSDO>
F 7

$$$$
=
 OpenBabel10272402093D

 32 34  0  0  1  0  0  0  0  0999 V2000
  186.7630  177.0440  143.6710 C   0  0  1  0  0  3  0  0  0  0  0  0
  186.6420  179.1470  142.1350 C   0  0  0  0  0  2  0  0  0  0  0  0
  186.3620  177.1610  145.0270 O   0  0  0  0  0  0  0  0  0  0  0  0
  185.9380  177.8750  142.6400 C   0  0  2  0  0  3  0  0  0  0  0  0
  184.1300  179.1070  139.9920 C   0  0  0  0  0  3  0  0  0  0  0  0
  186.4390  178.1800  139.1970 C   0  0  0  0  0  0  0  0  0  0  0  0
  184.5700  178.2140  143.2690 C   0  0  2  0  0  3  0  0  0  0  0  0
  185.2820  178.6510  139.5890 C   0  0  0  0  0  0  0  0  0  0  0  0
  183.6470  179.0530  142.3880 C   0  0  0  0  0  2  0  0  0  0  0  0
  184.7180  178.8820  144.6410 C   0  0  0  0  0  2  0  0  0  0  0  0
  187.7440  178.8290  141.2310 N   0  0  0  0  0  0  0  0  0  0  0  0
  183.3800  178.3800  141.0500 C   0  0  1  0  0  3  0  0  0  0  0  0
  186.0450  178.5050  145.3010 C   0  0  0  0  0  2  0  0  0  0  0  0
  187.6710  178.4050  139.9990 C   0  0  0  0  0  3  0  0  0  0  0  0
  185.3540  177.2470  137.1260 C   0  0  0  0  0  1  0  0  0  0  0  0
  186.5400  177.4970  137.9300 N   0  0  0  0  0  0  0  0  0  0  0  0
  188.3620  177.8180  136.3290 C   0  0  0  0  0  1  0  0  0  0  0  0
  187.8010  176.9460  137.4390 C   0  0  0  0  0  2  0  0  0  0  0  0
  181.8980  178.4210  140.7250 C   0  0  0  0  0  2  0  0  0  0  0  0
  181.0900  178.7340  141.9710 C   0  0  0  0  0  1  0  0  0  0  0  0
  188.8180  176.1030  142.9220 O   0  0  0  0  0  0  0  0  0  0  0  0
  188.2510  177.0530  143.5240 C   0  0  0  0  0  0  0  0  0  0  0  0
  188.9880  178.1220  144.0400 O   0  0  0  0  0  0  0  0  0  0  0  0
  191.1170  179.6860  143.9390 O   0  0  0  0  0  1  0  0  0  0  0  0
  190.6960  178.2370  143.8730 P   0  0  2  0  0  0  0  0  0  0  0  0
  191.1610  177.5820  142.3850 O   0  0  0  0  0  0  0  0  0  0  0  0
  190.6500  177.4330  146.4980 C   0  0  0  0  0  2  0  0  0  0  0  0
  191.4900  177.3130  145.2180 C   0  0  0  0  0  3  0  0  0  0  0  0
  190.8230  176.2500  147.4570 C   0  0  0  0  0  2  0  0  0  0  0  0
  192.4080  175.0590  145.8970 C   0  0  0  0  0  2  0  0  0  0  0  0
  191.6690  175.8540  144.8120 C   0  0  0  0  0  2  0  0  0  0  0  0
  192.1970  175.6080  147.3130 C   0  0  0  0  0  2  0  0  0  0  0  0
  1 22  1  1  0  0  0
  1  3  1  0  0  0  0
  3 13  1  0  0  0  0
  4  2  1  1  0  0  0
  4  7  1  0  0  0  0
  4  1  1  0  0  0  0
  5 12  1  0  0  0  0
  6  8  2  0  0  0  0
  6 14  1  0  0  0  0
  7  9  1  6  0  0  0
  7 10  1  0  0  0  0
  8  5  2  0  0  0  0
 10 13  1  0  0  0  0
 11  2  1  0  0  0  0
 12 19  1  6  0  0  0
 12  9  1  0  0  0  0
 14 11  2  0  0  0  0
 15 16  1  0  0  0  0
 16  6  1  0  0  0  0
 17 18  1  0  0  0  0
 18 16  1  0  0  0  0
 19 20  1  0  0  0  0
 21 22  2  0  0  0  0
 22 23  1  0  0  0  0
 25 26  2  6  0  0  0
 25 24  1  0  0  0  0
 25 23  1  0  0  0  0
 25 28  1  0  0  0  0
 27 29  1  0  0  0  0
 28 27  1  0  0  0  0
 30 32  1  0  0  0  0
 31 28  1  0  0  0  0
 31 30  1  0  0  0  0
 32 29  1  0  0  0  0
M  END
>  <MODEL>
5

>  <REMARK>
 VINA RESULT:      -7.8      3.142      7.544
  Name = 
  7 active torsions:
  status: ('A' for Active; 'I' for Inactive)
    1  A    between atoms: C_1  and  C_27
    2  A    between atoms: C_7  and  P_22
    3  A    between atoms: C_10  and  N_12
    4  A    between atoms: N_12  and  C_31
    5  A    between atoms: C_13  and  C_29
    6  A    between atoms: O_16  and  P_22
    7  A    between atoms: O_16  and  C_27
                            x       y       z     vdW  Elec       q    Type
                         _______ _______ _______ _____ _____    ______ ____

>  <TORSDO>
F 7

$$$$
=
 OpenBabel10272402093D

 32 34  0  0  1  0  0  0  0  0999 V2000
  186.3960  177.3790  143.5580 C   0  0  1  0  0  3  0  0  0  0  0  0
  185.5930  179.4340  142.1680 C   0  0  0  0  0  2  0  0  0  0  0  0
  186.5060  177.5040  144.9660 O   0  0  0  0  0  0  0  0  0  0  0  0
  185.2020  178.1350  142.8950 C   0  0  2  0  0  3  0  0  0  0  0  0
  182.4830  179.1940  141.0830 C   0  0  0  0  0  3  0  0  0  0  0  0
  184.4020  178.3870  139.5050 C   0  0  0  0  0  0  0  0  0  0  0  0
  184.1360  178.4070  143.9780 C   0  0  2  0  0  3  0  0  0  0  0  0
  183.4380  178.7970  140.2900 C   0  0  0  0  0  0  0  0  0  0  0  0
  182.9050  179.1690  143.4910 C   0  0  0  0  0  2  0  0  0  0  0  0
  184.7280  179.1160  145.2020 C   0  0  0  0  0  2  0  0  0  0  0  0
  186.3110  179.1600  140.9260 N   0  0  0  0  0  0  0  0  0  0  0  0
  182.2150  178.4500  142.3420 C   0  0  1  0  0  3  0  0  0  0  0  0
  186.2250  178.8330  145.3360 C   0  0  0  0  0  2  0  0  0  0  0  0
  185.8230  178.7030  139.8060 C   0  0  0  0  0  3  0  0  0  0  0  0
  185.1160  177.3730  137.3140 C   0  0  0  0  0  1  0  0  0  0  0  0
  184.0810  177.6800  138.2880 N   0  0  0  0  0  0  0  0  0  0  0  0
  182.3690  175.9410  138.4580 C   0  0  0  0  0  1  0  0  0  0  0  0
  182.7090  177.3250  137.9320 C   0  0  0  0  0  2  0  0  0  0  0  0
  180.7170  178.3950  142.5770 C   0  0  0  0  0  2  0  0  0  0  0  0
  180.4120  178.4030  144.0630 C   0  0  0  0  0  1  0  0  0  0  0  0
  188.0320  176.6250  142.0010 O   0  0  0  0  0  0  0  0  0  0  0  0
  187.7260  177.4730  142.8810 C   0  0  0  0  0  0  0  0  0  0  0  0
  188.6010  178.5070  143.2210 O   0  0  0  0  0  0  0  0  0  0  0  0
  190.8830  179.5300  144.0800 O   0  0  0  0  0  1  0  0  0  0  0  0
  190.2360  178.2260  143.6750 P   0  0  2  0  0  0  0  0  0  0  0  0
  191.0770  177.5620  142.3670 O   0  0  0  0  0  0  0  0  0  0  0  0
  191.7230  176.6400  145.3520 C   0  0  0  0  0  2  0  0  0  0  0  0
  190.2760  177.0710  145.0730 C   0  0  0  0  0  3  0  0  0  0  0  0
  191.9710  176.2310  146.8080 C   0  0  0  0  0  2  0  0  0  0  0  0
  189.5950  176.7440  147.4850 C   0  0  0  0  0  2  0  0  0  0  0  0
  189.6480  177.7200  146.3020 C   0  0  0  0  0  2  0  0  0  0  0  0
  190.7060  175.6870  147.4610 C   0  0  0  0  0  2  0  0  0  0  0  0
  1 22  1  6  0  0  0
  1  3  1  0  0  0  0
  3 13  1  0  0  0  0
  4  2  1  1  0  0  0
  4  1  1  0  0  0  0
  4  7  1  0  0  0  0
  5 12  1  0  0  0  0
  6 14  1  0  0  0  0
  6  8  2  0  0  0  0
  7  9  1  6  0  0  0
  7 10  1  0  0  0  0
  8  5  2  0  0  0  0
 10 13  1  0  0  0  0
 11  2  1  0  0  0  0
 12 19  1  1  0  0  0
 12  9  1  0  0  0  0
 14 11  2  0  0  0  0
 15 16  1  0  0  0  0
 16  6  1  0  0  0  0
 18 16  1  0  0  0  0
 18 17  1  0  0  0  0
 19 20  1  0  0  0  0
 21 22  2  0  0  0  0
 22 23  1  0  0  0  0
 23 25  1  0  0  0  0
 25 26  2  6  0  0  0
 25 24  1  0  0  0  0
 25 28  1  0  0  0  0
 27 29  1  0  0  0  0
 28 27  1  0  0  0  0
 28 31  1  0  0  0  0
 29 32  1  0  0  0  0
 31 30  1  0  0  0  0
 32 30  1  0  0  0  0
M  END
>  <MODEL>
6

>  <REMARK>
 VINA RESULT:      -7.8      2.958      7.671
  Name = 
  7 active torsions:
  status: ('A' for Active; 'I' for Inactive)
    1  A    between atoms: C_1  and  C_27
    2  A    between atoms: C_7  and  P_22
    3  A    between atoms: C_10  and  N_12
    4  A    between atoms: N_12  and  C_31
    5  A    between atoms: C_13  and  C_29
    6  A    between atoms: O_16  and  P_22
    7  A    between atoms: O_16  and  C_27
                            x       y       z     vdW  Elec       q    Type
                         _______ _______ _______ _____ _____    ______ ____

>  <TORSDO>
F 7

$$$$
=
 OpenBabel10272402093D

 32 34  0  0  1  0  0  0  0  0999 V2000
  186.9890  179.0490  141.3850 C   0  0  1  0  0  3  0  0  0  0  0  0
  187.0830  176.8630  142.8030 C   0  0  0  0  0  2  0  0  0  0  0  0
  185.7600  179.4240  140.7830 O   0  0  0  0  0  0  0  0  0  0  0  0
  186.8860  178.3900  142.7960 C   0  0  2  0  0  3  0  0  0  0  0  0
  187.1910  177.3770  146.0640 C   0  0  0  0  0  3  0  0  0  0  0  0
  189.4530  177.1060  144.7860 C   0  0  0  0  0  0  0  0  0  0  0  0
  185.5260  178.7750  143.4170 C   0  0  2  0  0  3  0  0  0  0  0  0
  188.3210  177.2350  145.4310 C   0  0  0  0  0  0  0  0  0  0  0  0
  185.2600  178.1820  144.7990 C   0  0  0  0  0  2  0  0  0  0  0  0
  184.3550  178.4470  142.4830 C   0  0  0  0  0  2  0  0  0  0  0  0
  188.4780  176.5000  142.5630 N   0  0  0  0  0  0  0  0  0  0  0  0
  186.3420  178.5680  145.7960 C   0  0  1  0  0  3  0  0  0  0  0  0
  184.8040  178.4190  141.0210 C   0  0  0  0  0  2  0  0  0  0  0  0
  189.4850  176.6130  143.3840 C   0  0  0  0  0  3  0  0  0  0  0  0
  191.7920  178.0370  144.7760 C   0  0  0  0  0  1  0  0  0  0  0  0
  190.6980  177.3740  145.4670 N   0  0  0  0  0  0  0  0  0  0  0  0
  191.9810  175.7990  146.8300 C   0  0  0  0  0  1  0  0  0  0  0  0
  190.9540  176.9180  146.8310 C   0  0  0  0  0  2  0  0  0  0  0  0
  185.7180  179.0350  147.0980 C   0  0  0  0  0  2  0  0  0  0  0  0
  186.7760  179.1600  148.1780 C   0  0  0  0  0  1  0  0  0  0  0  0
  189.1680  178.5630  140.5580 O   0  0  0  0  0  0  0  0  0  0  0  0
  187.9260  178.4220  140.4030 C   0  0  0  0  0  0  0  0  0  0  0  0
  187.4120  177.6770  139.3390 O   0  0  0  0  0  0  0  0  0  0  0  0
  188.9590  176.8740  137.3510 O   0  0  0  0  0  0  0  0  0  0  0  0
  187.9200  177.9100  137.7130 P   0  0  2  0  0  0  0  0  0  0  0  0
  188.5850  179.4560  137.5470 O   0  0  0  0  0  1  0  0  0  0  0  0
  186.7880  176.7000  135.5240 C   0  0  0  0  0  2  0  0  0  0  0  0
  186.4890  177.7420  136.6110 C   0  0  0  0  0  3  0  0  0  0  0  0
  185.5340  176.0130  134.9710 C   0  0  0  0  0  2  0  0  0  0  0  0
  184.0050  177.2800  136.5280 C   0  0  0  0  0  2  0  0  0  0  0  0
  185.2540  177.3560  137.4180 C   0  0  0  0  0  2  0  0  0  0  0  0
  184.3110  176.9160  135.0700 C   0  0  0  0  0  2  0  0  0  0  0  0
  1 22  1  6  0  0  0
  1  4  1  0  0  0  0
  3 13  1  0  0  0  0
  3  1  1  0  0  0  0
  4  2  1  6  0  0  0
  4  7  1  0  0  0  0
  6  8  2  0  0  0  0
  6 16  1  0  0  0  0
  7 10  1  6  0  0  0
  7  9  1  0  0  0  0
  8  5  2  0  0  0  0
  9 12  1  0  0  0  0
 11  2  1  0  0  0  0
 11 14  2  0  0  0  0
 12  5  1  0  0  0  0
 12 19  1  1  0  0  0
 13 10  1  0  0  0  0
 14  6  1  0  0  0  0
 15 16  1  0  0  0  0
 16 18  1  0  0  0  0
 17 18  1  0  0  0  0
 19 20  1  0  0  0  0
 22 21  2  0  0  0  0
 23 22  1  0  0  0  0
 25 24  2  6  0  0  0
 25 23  1  0  0  0  0
 26 25  1  0  0  0  0
 27 28  1  0  0  0  0
 28 31  1  0  0  0  0
 28 25  1  0  0  0  0
 29 32  1  0  0  0  0
 29 27  1  0  0  0  0
 30 31  1  0  0  0  0
 32 30  1  0  0  0  0
M  END
>  <MODEL>
7

>  <REMARK>
 VINA RESULT:      -7.7      2.151      2.990
  Name = 
  7 active torsions:
  status: ('A' for Active; 'I' for Inactive)
    1  A    between atoms: C_1  and  C_27
    2  A    between atoms: C_7  and  P_22
    3  A    between atoms: C_10  and  N_12
    4  A    between atoms: N_12  and  C_31
    5  A    between atoms: C_13  and  C_29
    6  A    between atoms: O_16  and  P_22
    7  A    between atoms: O_16  and  C_27
                            x       y       z     vdW  Elec       q    Type
                         _______ _______ _______ _____ _____    ______ ____

>  <TORSDO>
F 7

$$$$
=
 OpenBabel10272402093D

 32 34  0  0  1  0  0  0  0  0999 V2000
  190.0470  176.2300  142.3900 C   0  0  1  0  0  3  0  0  0  0  0  0
  189.0250  178.6090  142.6930 C   0  0  0  0  0  2  0  0  0  0  0  0
  191.1180  175.8310  143.2290 O   0  0  0  0  0  0  0  0  0  0  0  0
  188.9480  177.1160  143.0570 C   0  0  2  0  0  3  0  0  0  0  0  0
  186.0830  178.6310  144.1940 C   0  0  0  0  0  3  0  0  0  0  0  0
  186.1320  178.5620  141.5830 C   0  0  0  0  0  0  0  0  0  0  0  0
  189.0220  176.9140  144.5860 C   0  0  2  0  0  3  0  0  0  0  0  0
  186.1040  178.6040  142.8920 C   0  0  0  0  0  0  0  0  0  0  0  0
  188.0200  177.7390  145.3910 C   0  0  0  0  0  2  0  0  0  0  0  0
  190.4360  177.1500  145.1300 C   0  0  0  0  0  2  0  0  0  0  0  0
  188.6030  178.8500  141.3160 N   0  0  0  0  0  0  0  0  0  0  0  0
  186.5870  177.4620  144.9620 C   0  0  1  0  0  3  0  0  0  0  0  0
  191.4910  176.9140  144.0490 C   0  0  0  0  0  2  0  0  0  0  0  0
  187.3910  178.8160  140.8350 C   0  0  0  0  0  3  0  0  0  0  0  0
  184.8470  178.5950  139.4190 C   0  0  0  0  0  1  0  0  0  0  0  0
  184.9090  178.3390  140.8490 N   0  0  0  0  0  0  0  0  0  0  0  0
  182.4720  178.5410  140.7830 C   0  0  0  0  0  1  0  0  0  0  0  0
  183.6660  177.9430  141.5060 C   0  0  0  0  0  2  0  0  0  0  0  0
  185.7040  177.2490  146.1780 C   0  0  0  0  0  2  0  0  0  0  0  0
  185.3420  178.5800  146.8100 C   0  0  0  0  0  1  0  0  0  0  0  0
  191.5060  177.4110  140.9260 O   0  0  0  0  0  0  0  0  0  0  0  0
  190.5200  176.6340  141.0300 C   0  0  0  0  0  0  0  0  0  0  0  0
  189.8740  176.1310  139.8980 O   0  0  0  0  0  0  0  0  0  0  0  0
  191.6990  176.6020  138.0440 O   0  0  0  0  0  0  0  0  0  0  0  0
  190.2150  176.6960  138.3100 P   0  0  2  0  0  0  0  0  0  0  0  0
  189.7180  178.3060  138.1670 O   0  0  0  0  0  1  0  0  0  0  0  0
  189.8190  174.2240  137.1830 C   0  0  0  0  0  2  0  0  0  0  0  0
  189.3190  175.6740  137.1090 C   0  0  0  0  0  3  0  0  0  0  0  0
  188.7750  173.1920  136.7430 C   0  0  0  0  0  2  0  0  0  0  0  0
  187.0230  174.9600  136.3290 C   0  0  0  0  0  2  0  0  0  0  0  0
  187.8190  175.7520  137.3750 C   0  0  0  0  0  2  0  0  0  0  0  0
  187.7980  173.7790  135.7320 C   0  0  0  0  0  2  0  0  0  0  0  0
  1 22  1  6  0  0  0
  1  4  1  0  0  0  0
  1  3  1  0  0  0  0
  3 13  1  0  0  0  0
  4  2  1  1  0  0  0
  4  7  1  0  0  0  0
  5 12  1  0  0  0  0
  6  8  2  0  0  0  0
  7 10  1  1  0  0  0
  7  9  1  0  0  0  0
  8  5  2  0  0  0  0
 11  2  1  0  0  0  0
 12  9  1  0  0  0  0
 12 19  1  1  0  0  0
 13 10  1  0  0  0  0
 14 11  2  0  0  0  0
 14  6  1  0  0  0  0
 15 16  1  0  0  0  0
 16 18  1  0  0  0  0
 16  6  1  0  0  0  0
 17 18  1  0  0  0  0
 19 20  1  0  0  0  0
 21 22  2  0  0  0  0
 23 22  1  0  0  0  0
 25 24  2  6  0  0  0
 25 23  1  0  0  0  0
 26 25  1  0  0  0  0
 28 27  1  0  0  0  0
 28 31  1  0  0  0  0
 28 25  1  0  0  0  0
 29 27  1  0  0  0  0
 30 31  1  0  0  0  0
 32 30  1  0  0  0  0
 32 29  1  0  0  0  0
M  END
>  <MODEL>
8

>  <REMARK>
 VINA RESULT:      -7.6      3.425      5.767
  Name = 
  7 active torsions:
  status: ('A' for Active; 'I' for Inactive)
    1  A    between atoms: C_1  and  C_27
    2  A    between atoms: C_7  and  P_22
    3  A    between atoms: C_10  and  N_12
    4  A    between atoms: N_12  and  C_31
    5  A    between atoms: C_13  and  C_29
    6  A    between atoms: O_16  and  P_22
    7  A    between atoms: O_16  and  C_27
                            x       y       z     vdW  Elec       q    Type
                         _______ _______ _______ _____ _____    ______ ____

>  <TORSDO>
F 7

$$$$
=
 OpenBabel10272402093D

 32 34  0  0  1  0  0  0  0  0999 V2000
  186.7440  177.2720  137.7780 C   0  0  1  0  0  3  0  0  0  0  0  0
  188.9130  178.5310  138.4900 C   0  0  0  0  0  2  0  0  0  0  0  0
  186.3690  177.2710  136.4100 O   0  0  0  0  0  0  0  0  0  0  0  0
  188.2760  177.1960  138.0670 C   0  0  2  0  0  3  0  0  0  0  0  0
  191.4580  176.5450  139.1840 C   0  0  0  0  0  3  0  0  0  0  0  0
  189.9120  177.2960  141.1510 C   0  0  0  0  0  0  0  0  0  0  0  0
  188.9800  176.6170  136.8210 C   0  0  2  0  0  3  0  0  0  0  0  0
  190.6940  176.9230  140.1690 C   0  0  0  0  0  0  0  0  0  0  0  0
  190.4980  176.5030  136.9360 C   0  0  0  0  0  2  0  0  0  0  0  0
  188.6180  177.3890  135.5470 C   0  0  0  0  0  2  0  0  0  0  0  0
  188.5180  178.9110  139.8440 N   0  0  0  0  0  0  0  0  0  0  0  0
  190.9110  175.6530  138.1280 C   0  0  1  0  0  3  0  0  0  0  0  0
  187.2620  178.0830  135.6850 C   0  0  0  0  0  2  0  0  0  0  0  0
  188.9190  178.3870  140.9690 C   0  0  0  0  0  3  0  0  0  0  0  0
  188.9110  176.1650  143.1650 C   0  0  0  0  0  1  0  0  0  0  0  0
  190.0640  176.6930  142.4540 N   0  0  0  0  0  0  0  0  0  0  0  0
  191.5150  177.9170  143.9960 C   0  0  0  0  0  1  0  0  0  0  0  0
  191.3450  176.6640  143.1550 C   0  0  0  0  0  2  0  0  0  0  0  0
  191.9780  174.6540  137.7210 C   0  0  0  0  0  2  0  0  0  0  0  0
  193.2180  175.3740  137.2260 C   0  0  0  0  0  1  0  0  0  0  0  0
  185.5060  179.2910  138.0200 O   0  0  0  0  0  0  0  0  0  0  0  0
  185.9440  178.2490  138.5780 C   0  0  0  0  0  0  0  0  0  0  0  0
  185.6790  177.9850  139.9230 O   0  0  0  0  0  0  0  0  0  0  0  0
  183.2070  177.4750  140.7120 O   0  0  0  0  0  1  0  0  0  0  0  0
  184.2640  178.5550  140.7180 P   0  0  2  0  0  0  0  0  0  0  0  0
  183.6770  179.9210  139.9120 O   0  0  0  0  0  0  0  0  0  0  0  0
  183.3930  179.0740  143.2700 C   0  0  0  0  0  2  0  0  0  0  0  0
  184.6760  178.9900  142.4310 C   0  0  0  0  0  3  0  0  0  0  0  0
  183.6150  178.7890  144.7600 C   0  0  0  0  0  2  0  0  0  0  0  0
  186.0770  178.3410  144.4320 C   0  0  0  0  0  2  0  0  0  0  0  0
  185.6450  177.9630  143.0080 C   0  0  0  0  0  2  0  0  0  0  0  0
  185.0280  179.1580  145.1960 C   0  0  0  0  0  2  0  0  0  0  0  0
  1  4  1  0  0  0  0
  1 22  1  6  0  0  0
  2 11  1  0  0  0  0
  3  1  1  0  0  0  0
  4  2  1  6  0  0  0
  5  8  2  0  0  0  0
  6 16  1  0  0  0  0
  7 10  1  6  0  0  0
  7  9  1  0  0  0  0
  7  4  1  0  0  0  0
  8  6  2  0  0  0  0
  9 12  1  0  0  0  0
 10 13  1  0  0  0  0
 11 14  2  0  0  0  0
 12 19  1  6  0  0  0
 12  5  1  0  0  0  0
 13  3  1  0  0  0  0
 14  6  1  0  0  0  0
 16 18  1  0  0  0  0
 16 15  1  0  0  0  0
 18 17  1  0  0  0  0
 20 19  1  0  0  0  0
 21 22  2  0  0  0  0
 22 23  1  0  0  0  0
 23 25  1  0  0  0  0
 24 25  1  0  0  0  0
 25 26  2  6  0  0  0
 25 28  1  0  0  0  0
 27 29  1  0  0  0  0
 28 31  1  0  0  0  0
 28 27  1  0  0  0  0
 29 32  1  0  0  0  0
 30 32  1  0  0  0  0
 31 30  1  0  0  0  0
M  END
>  <MODEL>
9

>  <REMARK>
 VINA RESULT:      -7.6      2.740      6.837
  Name = 
  7 active torsions:
  status: ('A' for Active; 'I' for Inactive)
    1  A    between atoms: C_1  and  C_27
    2  A    between atoms: C_7  and  P_22
    3  A    between atoms: C_10  and  N_12
    4  A    between atoms: N_12  and  C_31
    5  A    between atoms: C_13  and  C_29
    6  A    between atoms: O_16  and  P_22
    7  A    between atoms: O_16  and  C_27
                            x       y       z     vdW  Elec       q    Type
                         _______ _______ _______ _____ _____    ______ ____

>  <TORSDO>
F 7

$$$$
