=
 OpenBabel10272413503D

 30 32  0  0  1  0  0  0  0  0999 V2000
  188.3040  177.7400  144.7880 C   0  0  1  0  0  3  0  0  0  0  0  0
  187.1670  177.6280  145.7910 C   0  0  1  0  0  3  0  0  0  0  0  0
  187.8150  177.5070  147.1560 C   0  0  0  0  0  2  0  0  0  0  0  0
  189.5990  177.4870  145.5430 C   0  0  0  0  0  2  0  0  0  0  0  0
  189.1950  176.9460  146.8980 C   0  0  0  0  0  2  0  0  0  0  0  0
  187.3180  175.8430  143.7570 O   0  0  0  0  0  0  0  0  0  0  0  0
  188.1290  176.7570  143.6660 C   0  0  0  0  0  0  0  0  0  0  0  0
  188.9990  176.8870  142.4520 C   0  0  2  0  0  3  0  0  0  0  0  0
  190.5060  175.0870  142.9700 O   0  0  0  0  0  0  0  0  0  0  0  0
  190.3640  176.3040  142.6680 C   0  0  0  0  0  0  0  0  0  0  0  0
  191.5130  177.1300  142.5150 N   0  0  0  0  0  1  0  0  0  0  0  0
  189.0620  178.3410  141.9910 C   0  0  0  0  0  2  0  0  0  0  0  0
  187.0300  178.5880  140.7770 C   0  0  0  0  0  1  0  0  0  0  0  0
  188.4810  178.4960  140.6540 N   0  0  0  0  0  0  0  0  0  0  0  0
  188.8290  177.4050  139.8180 N   0  0  0  0  0  2  0  0  0  0  0  0
  190.0340  176.8870  137.7710 C   0  0  0  0  0  2  0  0  0  0  0  0
  190.8390  176.3620  138.9380 C   0  0  0  0  0  2  0  0  0  0  0  0
  190.0690  177.6580  139.0740 C   0  0  0  0  0  3  0  0  0  0  0  0
  186.3000  178.8760  145.7210 C   0  0  0  0  0  2  0  0  0  0  0  0
  184.9190  178.5190  145.4210 N   0  0  0  0  0  0  0  0  0  0  0  0
  184.2540  178.5200  146.5990 O   0  0  0  0  0  1  0  0  0  0  0  0
  184.3460  179.5970  144.6250 C   0  0  0  0  0  2  0  0  0  0  0  0
  181.9350  178.2020  140.9870 C   0  0  0  0  0  0  0  0  0  0  0  0
  181.0520  179.1470  141.7350 C   0  0  0  0  0  2  0  0  0  0  0  0
  181.4310  177.5640  139.9060 F   0  0  0  0  0  0  0  0  0  0  0  0
  183.4240  179.0550  143.5820 C   0  0  0  0  0  0  0  0  0  0  0  0
  180.9700  178.7950  143.1820 C   0  0  0  0  0  3  0  0  0  0  0  0
  183.2360  178.0750  141.2600 C   0  0  0  0  0  3  0  0  0  0  0  0
  182.0280  178.7980  143.9920 C   0  0  0  0  0  3  0  0  0  0  0  0
  183.9460  178.6930  142.3990 C   0  0  0  0  0  3  0  0  0  0  0  0
  1  7  1  6  0  0  0
  1  4  1  0  0  0  0
  1  2  1  0  0  0  0
  2 19  1  1  0  0  0
  2  3  1  0  0  0  0
  4  5  1  0  0  0  0
  5  3  1  0  0  0  0
  7  6  2  0  0  0  0
  8 12  1  1  0  0  0
  8 10  1  0  0  0  0
  8  7  1  0  0  0  0
 10  9  2  0  0  0  0
 11 10  1  0  0  0  0
 14 13  1  0  0  0  0
 14 12  1  0  0  0  0
 15 14  1  0  0  0  0
 16 17  1  0  0  0  0
 16 18  1  0  0  0  0
 17 18  1  0  0  0  0
 18 15  1  0  0  0  0
 20 19  1  0  0  0  0
 20 21  1  0  0  0  0
 22 20  1  0  0  0  0
 23 28  2  0  0  0  0
 23 24  1  0  0  0  0
 24 27  1  0  0  0  0
 25 23  1  0  0  0  0
 26 29  1  0  0  0  0
 26 22  1  0  0  0  0
 27 29  2  0  0  0  0
 28 30  1  0  0  0  0
 30 26  2  0  0  0  0
M  END
>  <MODEL>
1

>  <REMARK>
 VINA RESULT:      -7.6      0.000      0.000
  Name = 
  11 active torsions:
  status: ('A' for Active; 'I' for Inactive)
    1  A    between atoms: C_3  and  N_11
    2  A    between atoms: C_3  and  C_19
    3  A    between atoms: C_4  and  C_13
    4  A    between atoms: C_7  and  C_30
    5  A    between atoms: C_8  and  N_12
    6  A    between atoms: C_8  and  C_13
    7  A    between atoms: N_9  and  N_12
    8  A    between atoms: N_9  and  C_21
    9  A    between atoms: C_10  and  C_25
   10  A    between atoms: N_11  and  C_25
   11  A    between atoms: C_13  and  C_30
                            x       y       z     vdW  Elec       q    Type
                         _______ _______ _______ _____ _____    ______ ____

>  <TORSDO>
F 11

$$$$
=
 OpenBabel10272413503D

 30 32  0  0  1  0  0  0  0  0999 V2000
  185.1340  178.2280  140.7530 C   0  0  1  0  0  3  0  0  0  0  0  0
  186.0080  179.0320  141.7020 C   0  0  1  0  0  3  0  0  0  0  0  0
  185.2940  179.0340  143.0390 C   0  0  0  0  0  2  0  0  0  0  0  0
  183.8300  177.9350  141.4790 C   0  0  0  0  0  2  0  0  0  0  0  0
  183.8350  178.8070  142.7160 C   0  0  0  0  0  2  0  0  0  0  0  0
  184.4200  180.1170  139.5060 O   0  0  0  0  0  0  0  0  0  0  0  0
  184.8870  178.9850  139.4790 C   0  0  0  0  0  0  0  0  0  0  0  0
  185.1770  178.3100  138.1730 C   0  0  2  0  0  3  0  0  0  0  0  0
  182.9340  177.4530  138.0750 O   0  0  0  0  0  0  0  0  0  0  0  0
  184.1570  177.2620  137.8360 C   0  0  0  0  0  0  0  0  0  0  0  0
  184.5750  176.0460  137.2250 N   0  0  0  0  0  1  0  0  0  0  0  0
  186.5980  177.7510  138.1630 C   0  0  0  0  0  2  0  0  0  0  0  0
  187.8380  178.6660  136.3490 C   0  0  0  0  0  1  0  0  0  0  0  0
  187.5670  178.7820  137.7780 N   0  0  0  0  0  0  0  0  0  0  0  0
  188.7730  178.6480  138.5130 N   0  0  0  0  0  2  0  0  0  0  0  0
  190.2250  177.1520  139.7630 C   0  0  0  0  0  2  0  0  0  0  0  0
  190.5820  177.0400  138.2980 C   0  0  0  0  0  2  0  0  0  0  0  0
  189.1390  177.2400  138.7110 C   0  0  0  0  0  3  0  0  0  0  0  0
  187.3710  178.3680  141.8250 C   0  0  0  0  0  2  0  0  0  0  0  0
  187.4610  177.6220  143.0740 N   0  0  0  0  0  0  0  0  0  0  0  0
  187.6180  176.3210  142.7380 O   0  0  0  0  0  1  0  0  0  0  0  0
  188.6910  178.0250  143.7430 C   0  0  0  0  0  2  0  0  0  0  0  0
  188.0240  177.7080  148.2650 C   0  0  0  0  0  0  0  0  0  0  0  0
  189.4660  178.0470  148.0790 C   0  0  0  0  0  2  0  0  0  0  0  0
  187.5710  177.4630  149.5170 F   0  0  0  0  0  0  0  0  0  0  0  0
  188.6110  177.7560  145.2100 C   0  0  0  0  0  0  0  0  0  0  0  0
  190.1240  177.1340  147.1010 C   0  0  0  0  0  3  0  0  0  0  0  0
  187.1400  177.7790  147.2650 C   0  0  0  0  0  3  0  0  0  0  0  0
  189.7550  177.0490  145.8240 C   0  0  0  0  0  3  0  0  0  0  0  0
  187.4590  178.0290  145.8440 C   0  0  0  0  0  3  0  0  0  0  0  0
  1  7  1  6  0  0  0
  1  4  1  0  0  0  0
  1  2  1  0  0  0  0
  2 19  1  1  0  0  0
  2  3  1  0  0  0  0
  4  5  1  0  0  0  0
  5  3  1  0  0  0  0
  7  6  2  0  0  0  0
  8 12  1  1  0  0  0
  8  7  1  0  0  0  0
 10  9  2  0  0  0  0
 10  8  1  0  0  0  0
 11 10  1  0  0  0  0
 13 14  1  0  0  0  0
 14 12  1  0  0  0  0
 14 15  1  0  0  0  0
 15 18  1  0  0  0  0
 17 18  1  0  0  0  0
 17 16  1  0  0  0  0
 18 16  1  0  0  0  0
 19 20  1  0  0  0  0
 20 22  1  0  0  0  0
 21 20  1  0  0  0  0
 22 26  1  0  0  0  0
 23 25  1  0  0  0  0
 24 23  1  0  0  0  0
 26 29  1  0  0  0  0
 26 30  2  0  0  0  0
 27 24  1  0  0  0  0
 28 23  2  0  0  0  0
 29 27  2  0  0  0  0
 30 28  1  0  0  0  0
M  END
>  <MODEL>
2

>  <REMARK>
 VINA RESULT:      -7.6      3.383      6.486
  Name = 
  11 active torsions:
  status: ('A' for Active; 'I' for Inactive)
    1  A    between atoms: C_3  and  N_11
    2  A    between atoms: C_3  and  C_19
    3  A    between atoms: C_4  and  C_13
    4  A    between atoms: C_7  and  C_30
    5  A    between atoms: C_8  and  N_12
    6  A    between atoms: C_8  and  C_13
    7  A    between atoms: N_9  and  N_12
    8  A    between atoms: N_9  and  C_21
    9  A    between atoms: C_10  and  C_25
   10  A    between atoms: N_11  and  C_25
   11  A    between atoms: C_13  and  C_30
                            x       y       z     vdW  Elec       q    Type
                         _______ _______ _______ _____ _____    ______ ____

>  <TORSDO>
F 11

$$$$
=
 OpenBabel10272413503D

 30 32  0  0  1  0  0  0  0  0999 V2000
  184.9490  177.9860  143.0900 C   0  0  1  0  0  3  0  0  0  0  0  0
  186.2450  178.0200  143.8830 C   0  0  1  0  0  3  0  0  0  0  0  0
  185.8600  178.3370  145.3150 C   0  0  0  0  0  2  0  0  0  0  0  0
  183.8430  178.4740  144.0120 C   0  0  0  0  0  2  0  0  0  0  0  0
  184.5350  179.0590  145.2240 C   0  0  0  0  0  2  0  0  0  0  0  0
  185.7170  179.8720  141.8700 O   0  0  0  0  0  0  0  0  0  0  0  0
  185.0490  178.8440  141.8610 C   0  0  0  0  0  0  0  0  0  0  0  0
  184.2780  178.4460  140.6390 C   0  0  2  0  0  3  0  0  0  0  0  0
  185.7530  178.6500  138.7530 O   0  0  0  0  0  0  0  0  0  0  0  0
  184.7820  179.1280  139.4020 C   0  0  0  0  0  0  0  0  0  0  0  0
  184.1490  180.3180  138.9480 N   0  0  0  0  0  1  0  0  0  0  0  0
  182.7830  178.6760  140.8520 C   0  0  0  0  0  2  0  0  0  0  0  0
  180.6960  177.5410  140.7250 C   0  0  0  0  0  1  0  0  0  0  0  0
  181.9870  177.7230  140.0720 N   0  0  0  0  0  0  0  0  0  0  0  0
  182.6540  176.4770  139.9570 N   0  0  0  0  0  2  0  0  0  0  0  0
  183.6150  175.5520  137.9250 C   0  0  0  0  0  2  0  0  0  0  0  0
  182.7100  176.7000  137.5390 C   0  0  0  0  0  2  0  0  0  0  0  0
  182.3350  175.7990  138.6950 C   0  0  0  0  0  3  0  0  0  0  0  0
  186.9290  176.6630  143.8020 C   0  0  0  0  0  2  0  0  0  0  0  0
  188.2410  176.7920  143.1810 N   0  0  0  0  0  0  0  0  0  0  0  0
  188.0250  177.1030  141.8820 O   0  0  0  0  0  1  0  0  0  0  0  0
  188.9000  177.9470  143.7760 C   0  0  0  0  0  2  0  0  0  0  0  0
  191.6060  176.1870  147.0280 C   0  0  0  0  0  0  0  0  0  0  0  0
  190.2160  176.1420  147.5730 C   0  0  0  0  0  2  0  0  0  0  0  0
  192.6290  175.8080  147.8290 F   0  0  0  0  0  0  0  0  0  0  0  0
  189.7210  177.5410  144.9570 C   0  0  0  0  0  0  0  0  0  0  0  0
  189.5330  177.4620  147.4490 C   0  0  0  0  0  3  0  0  0  0  0  0
  191.8600  176.4500  145.7420 C   0  0  0  0  0  3  0  0  0  0  0  0
  189.2890  178.0460  146.2760 C   0  0  0  0  0  3  0  0  0  0  0  0
  190.8700  176.8820  144.7360 C   0  0  0  0  0  3  0  0  0  0  0  0
  1  7  1  6  0  0  0
  1  2  1  0  0  0  0
  1  4  1  0  0  0  0
  2 19  1  1  0  0  0
  2  3  1  0  0  0  0
  4  5  1  0  0  0  0
  5  3  1  0  0  0  0
  7  6  2  0  0  0  0
  8 12  1  1  0  0  0
  8  7  1  0  0  0  0
  9 10  2  0  0  0  0
 10  8  1  0  0  0  0
 11 10  1  0  0  0  0
 14 13  1  0  0  0  0
 14 12  1  0  0  0  0
 15 14  1  0  0  0  0
 16 18  1  0  0  0  0
 17 16  1  0  0  0  0
 17 18  1  0  0  0  0
 18 15  1  0  0  0  0
 20 22  1  0  0  0  0
 20 19  1  0  0  0  0
 21 20  1  0  0  0  0
 22 26  1  0  0  0  0
 23 24  1  0  0  0  0
 23 25  1  0  0  0  0
 26 29  1  0  0  0  0
 27 24  1  0  0  0  0
 28 23  2  0  0  0  0
 29 27  2  0  0  0  0
 30 26  2  0  0  0  0
 30 28  1  0  0  0  0
M  END
>  <MODEL>
3

>  <REMARK>
 VINA RESULT:      -7.6      3.882      7.236
  Name = 
  11 active torsions:
  status: ('A' for Active; 'I' for Inactive)
    1  A    between atoms: C_3  and  N_11
    2  A    between atoms: C_3  and  C_19
    3  A    between atoms: C_4  and  C_13
    4  A    between atoms: C_7  and  C_30
    5  A    between atoms: C_8  and  N_12
    6  A    between atoms: C_8  and  C_13
    7  A    between atoms: N_9  and  N_12
    8  A    between atoms: N_9  and  C_21
    9  A    between atoms: C_10  and  C_25
   10  A    between atoms: N_11  and  C_25
   11  A    between atoms: C_13  and  C_30
                            x       y       z     vdW  Elec       q    Type
                         _______ _______ _______ _____ _____    ______ ____

>  <TORSDO>
F 11

$$$$
=
 OpenBabel10272413503D

 30 32  0  0  1  0  0  0  0  0999 V2000
  183.6800  178.1500  139.7510 C   0  0  1  0  0  3  0  0  0  0  0  0
  183.6930  178.6920  141.1710 C   0  0  1  0  0  3  0  0  0  0  0  0
  182.2470  178.7230  141.6270 C   0  0  0  0  0  2  0  0  0  0  0  0
  182.2260  178.0550  139.3170 C   0  0  0  0  0  2  0  0  0  0  0  0
  181.4280  178.8070  140.3600 C   0  0  0  0  0  2  0  0  0  0  0  0
  184.3130  180.2560  138.8570 O   0  0  0  0  0  0  0  0  0  0  0  0
  184.4650  179.0410  138.8290 C   0  0  0  0  0  0  0  0  0  0  0  0
  185.4000  178.4110  137.8420 C   0  0  2  0  0  3  0  0  0  0  0  0
  183.7760  177.5140  136.3140 O   0  0  0  0  0  0  0  0  0  0  0  0
  184.7520  177.2920  137.0800 C   0  0  0  0  0  0  0  0  0  0  0  0
  185.2560  175.9680  137.2140 N   0  0  0  0  0  1  0  0  0  0  0  0
  186.6870  177.9660  138.5330 C   0  0  0  0  0  2  0  0  0  0  0  0
  188.3250  178.3560  136.8520 C   0  0  0  0  0  1  0  0  0  0  0  0
  187.8160  178.8140  138.1400 N   0  0  0  0  0  0  0  0  0  0  0  0
  188.8480  178.7700  139.1120 N   0  0  0  0  0  2  0  0  0  0  0  0
  188.9900  178.0670  141.4350 C   0  0  0  0  0  2  0  0  0  0  0  0
  190.0410  177.3150  140.6490 C   0  0  0  0  0  2  0  0  0  0  0  0
  188.7010  177.6230  140.0160 C   0  0  0  0  0  3  0  0  0  0  0  0
  184.5140  177.7710  142.0610 C   0  0  0  0  0  2  0  0  0  0  0  0
  185.5590  178.5230  142.7430 N   0  0  0  0  0  0  0  0  0  0  0  0
  185.5690  179.7590  142.1920 O   0  0  0  0  0  1  0  0  0  0  0  0
  185.1480  178.6950  144.1300 C   0  0  0  0  0  2  0  0  0  0  0  0
  188.3040  177.7620  147.3180 C   0  0  0  0  0  0  0  0  0  0  0  0
  189.0370  177.8540  146.0200 C   0  0  0  0  0  2  0  0  0  0  0  0
  188.9920  177.4010  148.4260 F   0  0  0  0  0  0  0  0  0  0  0  0
  186.2080  178.2060  145.0620 C   0  0  0  0  0  0  0  0  0  0  0  0
  188.4010  177.0100  144.9680 C   0  0  0  0  0  3  0  0  0  0  0  0
  187.0350  178.1600  147.4490 C   0  0  0  0  0  3  0  0  0  0  0  0
  187.1590  177.2080  144.5300 C   0  0  0  0  0  3  0  0  0  0  0  0
  186.1410  178.5780  146.3510 C   0  0  0  0  0  3  0  0  0  0  0  0
  1  7  1  6  0  0  0
  1  2  1  0  0  0  0
  2  3  1  0  0  0  0
  2 19  1  1  0  0  0
  4  1  1  0  0  0  0
  4  5  1  0  0  0  0
  5  3  1  0  0  0  0
  7  6  2  0  0  0  0
  8 12  1  1  0  0  0
  8  7  1  0  0  0  0
  9 10  2  0  0  0  0
 10 11  1  0  0  0  0
 10  8  1  0  0  0  0
 13 14  1  0  0  0  0
 14 12  1  0  0  0  0
 14 15  1  0  0  0  0
 15 18  1  0  0  0  0
 17 16  1  0  0  0  0
 18 17  1  0  0  0  0
 18 16  1  0  0  0  0
 19 20  1  0  0  0  0
 20 22  1  0  0  0  0
 21 20  1  0  0  0  0
 22 26  1  0  0  0  0
 23 28  2  0  0  0  0
 23 25  1  0  0  0  0
 24 23  1  0  0  0  0
 26 30  2  0  0  0  0
 27 24  1  0  0  0  0
 29 27  2  0  0  0  0
 29 26  1  0  0  0  0
 30 28  1  0  0  0  0
M  END
>  <MODEL>
4

>  <REMARK>
 VINA RESULT:      -7.6      3.583      6.556
  Name = 
  11 active torsions:
  status: ('A' for Active; 'I' for Inactive)
    1  A    between atoms: C_3  and  N_11
    2  A    between atoms: C_3  and  C_19
    3  A    between atoms: C_4  and  C_13
    4  A    between atoms: C_7  and  C_30
    5  A    between atoms: C_8  and  N_12
    6  A    between atoms: C_8  and  C_13
    7  A    between atoms: N_9  and  N_12
    8  A    between atoms: N_9  and  C_21
    9  A    between atoms: C_10  and  C_25
   10  A    between atoms: N_11  and  C_25
   11  A    between atoms: C_13  and  C_30
                            x       y       z     vdW  Elec       q    Type
                         _______ _______ _______ _____ _____    ______ ____

>  <TORSDO>
F 11

$$$$
=
 OpenBabel10272413503D

 30 32  0  0  1  0  0  0  0  0999 V2000
  187.5750  177.4720  138.3470 C   0  0  1  0  0  3  0  0  0  0  0  0
  186.3150  178.2810  138.0870 C   0  0  1  0  0  3  0  0  0  0  0  0
  185.8190  177.8670  136.7150 C   0  0  0  0  0  2  0  0  0  0  0  0
  187.9180  176.7430  137.0570 C   0  0  0  0  0  2  0  0  0  0  0  0
  187.0390  177.3520  135.9860 C   0  0  0  0  0  2  0  0  0  0  0  0
  188.9880  179.3680  138.1440 O   0  0  0  0  0  0  0  0  0  0  0  0
  188.7040  178.3620  138.7830 C   0  0  0  0  0  0  0  0  0  0  0  0
  189.5060  177.9710  139.9870 C   0  0  2  0  0  3  0  0  0  0  0  0
  191.8730  177.5730  139.8670 O   0  0  0  0  0  0  0  0  0  0  0  0
  190.7100  177.1510  139.6250 C   0  0  0  0  0  0  0  0  0  0  0  0
  190.5340  175.8760  139.0170 N   0  0  0  0  0  1  0  0  0  0  0  0
  188.6210  177.2690  141.0150 C   0  0  0  0  0  2  0  0  0  0  0  0
  188.5640  176.0500  143.0570 C   0  0  0  0  0  1  0  0  0  0  0  0
  189.3890  176.9010  142.2080 N   0  0  0  0  0  0  0  0  0  0  0  0
  189.7970  178.0540  142.9270 N   0  0  0  0  0  2  0  0  0  0  0  0
  191.3490  177.8930  144.7900 C   0  0  0  0  0  2  0  0  0  0  0  0
  191.5680  179.2240  144.1080 C   0  0  0  0  0  2  0  0  0  0  0  0
  191.2190  178.0020  143.2860 C   0  0  0  0  0  3  0  0  0  0  0  0
  185.2740  177.9600  139.1500 C   0  0  0  0  0  2  0  0  0  0  0  0
  184.9620  179.1500  139.9300 N   0  0  0  0  0  0  0  0  0  0  0  0
  184.6820  180.1320  139.0420 O   0  0  0  0  0  1  0  0  0  0  0  0
  183.7260  178.8900  140.6570 C   0  0  0  0  0  2  0  0  0  0  0  0
  184.1210  178.7930  145.2210 C   0  0  0  0  0  0  0  0  0  0  0  0
  185.4610  179.1900  144.6950 C   0  0  0  0  0  2  0  0  0  0  0  0
  183.9800  178.5960  146.5530 F   0  0  0  0  0  0  0  0  0  0  0  0
  183.9970  178.7000  142.1140 C   0  0  0  0  0  0  0  0  0  0  0  0
  185.9340  178.2570  143.6320 C   0  0  0  0  0  3  0  0  0  0  0  0
  183.0320  178.7650  144.4480 C   0  0  0  0  0  3  0  0  0  0  0  0
  185.2900  178.0840  142.4790 C   0  0  0  0  0  3  0  0  0  0  0  0
  183.0050  178.9500  142.9830 C   0  0  0  0  0  3  0  0  0  0  0  0
  1  7  1  6  0  0  0
  2  1  1  0  0  0  0
  2 19  1  1  0  0  0
  3  2  1  0  0  0  0
  4  1  1  0  0  0  0
  5  3  1  0  0  0  0
  5  4  1  0  0  0  0
  6  7  2  0  0  0  0
  7  8  1  0  0  0  0
  8 12  1  1  0  0  0
 10  9  2  0  0  0  0
 10  8  1  0  0  0  0
 11 10  1  0  0  0  0
 12 14  1  0  0  0  0
 14 15  1  0  0  0  0
 14 13  1  0  0  0  0
 15 18  1  0  0  0  0
 17 16  1  0  0  0  0
 18 17  1  0  0  0  0
 18 16  1  0  0  0  0
 19 20  1  0  0  0  0
 20 22  1  0  0  0  0
 21 20  1  0  0  0  0
 22 26  1  0  0  0  0
 23 25  1  0  0  0  0
 24 23  1  0  0  0  0
 26 29  1  0  0  0  0
 26 30  2  0  0  0  0
 27 24  1  0  0  0  0
 28 23  2  0  0  0  0
 29 27  2  0  0  0  0
 30 28  1  0  0  0  0
M  END
>  <MODEL>
5

>  <REMARK>
 VINA RESULT:      -7.5      3.123      5.734
  Name = 
  11 active torsions:
  status: ('A' for Active; 'I' for Inactive)
    1  A    between atoms: C_3  and  N_11
    2  A    between atoms: C_3  and  C_19
    3  A    between atoms: C_4  and  C_13
    4  A    between atoms: C_7  and  C_30
    5  A    between atoms: C_8  and  N_12
    6  A    between atoms: C_8  and  C_13
    7  A    between atoms: N_9  and  N_12
    8  A    between atoms: N_9  and  C_21
    9  A    between atoms: C_10  and  C_25
   10  A    between atoms: N_11  and  C_25
   11  A    between atoms: C_13  and  C_30
                            x       y       z     vdW  Elec       q    Type
                         _______ _______ _______ _____ _____    ______ ____

>  <TORSDO>
F 11

$$$$
=
 OpenBabel10272413503D

 30 32  0  0  1  0  0  0  0  0999 V2000
  188.1970  178.0910  144.5870 C   0  0  1  0  0  3  0  0  0  0  0  0
  186.9180  177.8480  145.3730 C   0  0  1  0  0  3  0  0  0  0  0  0
  187.3360  177.6560  146.8170 C   0  0  0  0  0  2  0  0  0  0  0  0
  189.3610  177.8440  145.5340 C   0  0  0  0  0  2  0  0  0  0  0  0
  188.7710  177.1850  146.7610 C   0  0  0  0  0  2  0  0  0  0  0  0
  187.7840  176.0630  143.4250 O   0  0  0  0  0  0  0  0  0  0  0  0
  188.2700  177.1870  143.3890 C   0  0  0  0  0  0  0  0  0  0  0  0
  188.9920  177.6690  142.1670 C   0  0  2  0  0  3  0  0  0  0  0  0
  188.5280  178.8780  140.1430 O   0  0  0  0  0  0  0  0  0  0  0  0
  188.0880  178.4150  141.2310 C   0  0  0  0  0  0  0  0  0  0  0  0
  186.7170  178.5890  141.5680 N   0  0  0  0  0  1  0  0  0  0  0  0
  189.7040  176.5080  141.4750 C   0  0  0  0  0  2  0  0  0  0  0  0
  191.5440  177.7480  142.3340 C   0  0  0  0  0  1  0  0  0  0  0  0
  191.1340  176.7870  141.3160 N   0  0  0  0  0  0  0  0  0  0  0  0
  191.4120  177.3010  140.0240 N   0  0  0  0  0  2  0  0  0  0  0  0
  191.8160  176.5350  137.7520 C   0  0  0  0  0  2  0  0  0  0  0  0
  190.4870  177.2550  137.7780 C   0  0  0  0  0  2  0  0  0  0  0  0
  190.9150  176.4170  138.9630 C   0  0  0  0  0  3  0  0  0  0  0  0
  186.0000  179.0540  145.2380 C   0  0  0  0  0  2  0  0  0  0  0  0
  184.6090  178.6270  145.1600 N   0  0  0  0  0  0  0  0  0  0  0  0
  184.1370  178.6120  146.4280 O   0  0  0  0  0  1  0  0  0  0  0  0
  183.8660  179.6660  144.4580 C   0  0  0  0  0  2  0  0  0  0  0  0
  181.6130  178.1140  140.7830 C   0  0  0  0  0  0  0  0  0  0  0  0
  180.6800  179.0500  141.4790 C   0  0  0  0  0  2  0  0  0  0  0  0
  181.1620  177.4340  139.7030 F   0  0  0  0  0  0  0  0  0  0  0  0
  182.9940  179.0720  143.4000 C   0  0  0  0  0  0  0  0  0  0  0  0
  180.5620  178.7310  142.9310 C   0  0  0  0  0  3  0  0  0  0  0  0
  182.9080  178.0310  141.0990 C   0  0  0  0  0  3  0  0  0  0  0  0
  181.5930  178.7850  143.7730 C   0  0  0  0  0  3  0  0  0  0  0  0
  183.5640  178.6960  142.2440 C   0  0  0  0  0  3  0  0  0  0  0  0
  1  7  1  6  0  0  0
  1  2  1  0  0  0  0
  1  4  1  0  0  0  0
  2 19  1  1  0  0  0
  2  3  1  0  0  0  0
  4  5  1  0  0  0  0
  5  3  1  0  0  0  0
  7  6  2  0  0  0  0
  8 12  1  6  0  0  0
  8  7  1  0  0  0  0
  9 10  2  0  0  0  0
 10 11  1  0  0  0  0
 10  8  1  0  0  0  0
 14 12  1  0  0  0  0
 14 13  1  0  0  0  0
 15 14  1  0  0  0  0
 16 17  1  0  0  0  0
 16 18  1  0  0  0  0
 17 18  1  0  0  0  0
 18 15  1  0  0  0  0
 20 19  1  0  0  0  0
 20 21  1  0  0  0  0
 22 20  1  0  0  0  0
 23 28  2  0  0  0  0
 23 24  1  0  0  0  0
 24 27  1  0  0  0  0
 25 23  1  0  0  0  0
 26 29  1  0  0  0  0
 26 22  1  0  0  0  0
 27 29  2  0  0  0  0
 28 30  1  0  0  0  0
 30 26  2  0  0  0  0
M  END
>  <MODEL>
6

>  <REMARK>
 VINA RESULT:      -7.3      1.287      2.012
  Name = 
  11 active torsions:
  status: ('A' for Active; 'I' for Inactive)
    1  A    between atoms: C_3  and  N_11
    2  A    between atoms: C_3  and  C_19
    3  A    between atoms: C_4  and  C_13
    4  A    between atoms: C_7  and  C_30
    5  A    between atoms: C_8  and  N_12
    6  A    between atoms: C_8  and  C_13
    7  A    between atoms: N_9  and  N_12
    8  A    between atoms: N_9  and  C_21
    9  A    between atoms: C_10  and  C_25
   10  A    between atoms: N_11  and  C_25
   11  A    between atoms: C_13  and  C_30
                            x       y       z     vdW  Elec       q    Type
                         _______ _______ _______ _____ _____    ______ ____

>  <TORSDO>
F 11

$$$$
=
 OpenBabel10272413503D

 30 32  0  0  1  0  0  0  0  0999 V2000
  187.8670  178.2120  144.6640 C   0  0  1  0  0  3  0  0  0  0  0  0
  186.5350  177.9340  145.3420 C   0  0  1  0  0  3  0  0  0  0  0  0
  186.8460  177.6910  146.8070 C   0  0  0  0  0  2  0  0  0  0  0  0
  188.9590  177.9380  145.6850 C   0  0  0  0  0  2  0  0  0  0  0  0
  188.2850  177.2300  146.8410 C   0  0  0  0  0  2  0  0  0  0  0  0
  187.6060  176.2070  143.4210 O   0  0  0  0  0  0  0  0  0  0  0  0
  188.0370  177.3540  143.4430 C   0  0  0  0  0  0  0  0  0  0  0  0
  188.7860  177.9100  142.2710 C   0  0  2  0  0  3  0  0  0  0  0  0
  188.2060  178.0830  139.9450 O   0  0  0  0  0  0  0  0  0  0  0  0
  187.8740  178.2940  141.1430 C   0  0  0  0  0  0  0  0  0  0  0  0
  186.6130  178.8880  141.4310 N   0  0  0  0  0  1  0  0  0  0  0  0
  189.8750  176.9380  141.8220 C   0  0  0  0  0  2  0  0  0  0  0  0
  191.8370  177.4710  140.5860 C   0  0  0  0  0  1  0  0  0  0  0  0
  191.2010  177.5600  141.8950 N   0  0  0  0  0  0  0  0  0  0  0  0
  192.0080  176.9240  142.8720 N   0  0  0  0  0  2  0  0  0  0  0  0
  191.7520  176.1210  145.1520 C   0  0  0  0  0  2  0  0  0  0  0  0
  192.1280  174.9460  144.2780 C   0  0  0  0  0  2  0  0  0  0  0  0
  191.2250  176.0330  143.7360 C   0  0  0  0  0  3  0  0  0  0  0  0
  185.6200  179.1390  145.1840 C   0  0  0  0  0  2  0  0  0  0  0  0
  184.2400  178.7080  145.0010 N   0  0  0  0  0  0  0  0  0  0  0  0
  183.6500  178.7720  146.2170 O   0  0  0  0  0  1  0  0  0  0  0  0
  183.5730  179.7000  144.1680 C   0  0  0  0  0  2  0  0  0  0  0  0
  181.1080  177.9550  140.7220 C   0  0  0  0  0  0  0  0  0  0  0  0
  180.1950  178.8760  141.4620 C   0  0  0  0  0  2  0  0  0  0  0  0
  180.6030  177.2280  139.6980 F   0  0  0  0  0  0  0  0  0  0  0  0
  182.6460  179.0420  143.1980 C   0  0  0  0  0  0  0  0  0  0  0  0
  180.2010  178.5970  142.9270 C   0  0  0  0  0  3  0  0  0  0  0  0
  182.4270  177.9310  140.9390 C   0  0  0  0  0  3  0  0  0  0  0  0
  181.2900  178.7140  143.6850 C   0  0  0  0  0  3  0  0  0  0  0  0
  183.1400  178.6540  142.0110 C   0  0  0  0  0  3  0  0  0  0  0  0
  1  7  1  6  0  0  0
  1  2  1  0  0  0  0
  1  4  1  0  0  0  0
  2 19  1  1  0  0  0
  2  3  1  0  0  0  0
  3  5  1  0  0  0  0
  4  5  1  0  0  0  0
  6  7  2  0  0  0  0
  8 12  1  6  0  0  0
  8  7  1  0  0  0  0
  9 10  2  0  0  0  0
 10 11  1  0  0  0  0
 10  8  1  0  0  0  0
 12 14  1  0  0  0  0
 13 14  1  0  0  0  0
 14 15  1  0  0  0  0
 15 18  1  0  0  0  0
 17 16  1  0  0  0  0
 18 17  1  0  0  0  0
 18 16  1  0  0  0  0
 20 19  1  0  0  0  0
 20 21  1  0  0  0  0
 22 20  1  0  0  0  0
 23 28  2  0  0  0  0
 23 24  1  0  0  0  0
 24 27  1  0  0  0  0
 25 23  1  0  0  0  0
 26 29  1  0  0  0  0
 26 22  1  0  0  0  0
 27 29  2  0  0  0  0
 28 30  1  0  0  0  0
 30 26  2  0  0  0  0
M  END
>  <MODEL>
7

>  <REMARK>
 VINA RESULT:      -7.2      1.437      2.894
  Name = 
  11 active torsions:
  status: ('A' for Active; 'I' for Inactive)
    1  A    between atoms: C_3  and  N_11
    2  A    between atoms: C_3  and  C_19
    3  A    between atoms: C_4  and  C_13
    4  A    between atoms: C_7  and  C_30
    5  A    between atoms: C_8  and  N_12
    6  A    between atoms: C_8  and  C_13
    7  A    between atoms: N_9  and  N_12
    8  A    between atoms: N_9  and  C_21
    9  A    between atoms: C_10  and  C_25
   10  A    between atoms: N_11  and  C_25
   11  A    between atoms: C_13  and  C_30
                            x       y       z     vdW  Elec       q    Type
                         _______ _______ _______ _____ _____    ______ ____

>  <TORSDO>
F 11

$$$$
=
 OpenBabel10272413503D

 30 32  0  0  1  0  0  0  0  0999 V2000
  190.4690  176.9080  141.2510 C   0  0  1  0  0  3  0  0  0  0  0  0
  190.8400  178.0990  142.1200 C   0  0  1  0  0  3  0  0  0  0  0  0
  189.5330  178.7470  142.5340 C   0  0  0  0  0  2  0  0  0  0  0  0
  188.9710  176.9820  140.9990 C   0  0  0  0  0  2  0  0  0  0  0  0
  188.5350  178.3530  141.4690 C   0  0  0  0  0  2  0  0  0  0  0  0
  192.4120  177.2740  139.9380 O   0  0  0  0  0  0  0  0  0  0  0  0
  191.2370  176.9260  139.9600 C   0  0  0  0  0  0  0  0  0  0  0  0
  190.5270  176.5570  138.6930 C   0  0  2  0  0  3  0  0  0  0  0  0
  191.1310  174.3710  137.8980 O   0  0  0  0  0  0  0  0  0  0  0  0
  191.3300  175.6160  137.8450 C   0  0  0  0  0  0  0  0  0  0  0  0
  192.3160  176.1350  136.9600 N   0  0  0  0  0  1  0  0  0  0  0  0
  190.1160  177.8120  137.9260 C   0  0  0  0  0  2  0  0  0  0  0  0
  189.0230  177.6570  135.8180 C   0  0  0  0  0  1  0  0  0  0  0  0
  188.8220  177.6240  137.2630 N   0  0  0  0  0  0  0  0  0  0  0  0
  187.9010  178.6310  137.6480 N   0  0  0  0  0  2  0  0  0  0  0  0
  185.5360  178.4070  138.1650 C   0  0  0  0  0  2  0  0  0  0  0  0
  186.0150  177.1010  137.5710 C   0  0  0  0  0  2  0  0  0  0  0  0
  186.5730  178.4130  137.0620 C   0  0  0  0  0  3  0  0  0  0  0  0
  191.6070  177.6180  143.3430 C   0  0  0  0  0  2  0  0  0  0  0  0
  190.7880  176.7040  144.1290 N   0  0  0  0  0  0  0  0  0  0  0  0
  191.4210  175.5080  144.1160 O   0  0  0  0  0  1  0  0  0  0  0  0
  190.8120  177.1670  145.5110 C   0  0  0  0  0  2  0  0  0  0  0  0
  186.4470  177.9990  146.6270 C   0  0  0  0  0  0  0  0  0  0  0  0
  187.2760  178.5860  147.7220 C   0  0  0  0  0  2  0  0  0  0  0  0
  185.1000  178.0230  146.7510 F   0  0  0  0  0  0  0  0  0  0  0  0
  189.4250  177.3130  146.0460 C   0  0  0  0  0  0  0  0  0  0  0  0
  188.2710  177.6050  148.2450 C   0  0  0  0  0  3  0  0  0  0  0  0
  186.9790  177.5850  145.4730 C   0  0  0  0  0  3  0  0  0  0  0  0
  189.2390  177.0820  147.4940 C   0  0  0  0  0  3  0  0  0  0  0  0
  188.4220  177.4880  145.1710 C   0  0  0  0  0  3  0  0  0  0  0  0
  1  7  1  6  0  0  0
  1  2  1  0  0  0  0
  2  3  1  0  0  0  0
  2 19  1  1  0  0  0
  4  1  1  0  0  0  0
  4  5  1  0  0  0  0
  5  3  1  0  0  0  0
  6  7  2  0  0  0  0
  8 12  1  6  0  0  0
  8  7  1  0  0  0  0
 10  9  2  0  0  0  0
 10  8  1  0  0  0  0
 11 10  1  0  0  0  0
 13 14  1  0  0  0  0
 14 15  1  0  0  0  0
 14 12  1  0  0  0  0
 17 16  1  0  0  0  0
 18 17  1  0  0  0  0
 18 15  1  0  0  0  0
 18 16  1  0  0  0  0
 19 20  1  0  0  0  0
 20 22  1  0  0  0  0
 21 20  1  0  0  0  0
 22 26  1  0  0  0  0
 23 25  1  0  0  0  0
 23 24  1  0  0  0  0
 24 27  1  0  0  0  0
 26 29  1  0  0  0  0
 28 23  2  0  0  0  0
 29 27  2  0  0  0  0
 30 28  1  0  0  0  0
 30 26  2  0  0  0  0
M  END
>  <MODEL>
8

>  <REMARK>
 VINA RESULT:      -7.0      3.700      5.927
  Name = 
  11 active torsions:
  status: ('A' for Active; 'I' for Inactive)
    1  A    between atoms: C_3  and  N_11
    2  A    between atoms: C_3  and  C_19
    3  A    between atoms: C_4  and  C_13
    4  A    between atoms: C_7  and  C_30
    5  A    between atoms: C_8  and  N_12
    6  A    between atoms: C_8  and  C_13
    7  A    between atoms: N_9  and  N_12
    8  A    between atoms: N_9  and  C_21
    9  A    between atoms: C_10  and  C_25
   10  A    between atoms: N_11  and  C_25
   11  A    between atoms: C_13  and  C_30
                            x       y       z     vdW  Elec       q    Type
                         _______ _______ _______ _____ _____    ______ ____

>  <TORSDO>
F 11

$$$$
=
 OpenBabel10272413503D

 30 32  0  0  1  0  0  0  0  0999 V2000
  187.4460  177.4550  142.2370 C   0  0  1  0  0  3  0  0  0  0  0  0
  188.6370  178.0850  141.5340 C   0  0  1  0  0  3  0  0  0  0  0  0
  189.8610  177.6990  142.3410 C   0  0  0  0  0  2  0  0  0  0  0  0
  187.9500  176.8760  143.5490 C   0  0  0  0  0  2  0  0  0  0  0  0
  189.3500  177.4210  143.7370 C   0  0  0  0  0  2  0  0  0  0  0  0
  186.3510  179.5250  141.8510 O   0  0  0  0  0  0  0  0  0  0  0  0
  186.3630  178.4690  142.4730 C   0  0  0  0  0  0  0  0  0  0  0  0
  185.3250  178.1860  143.5160 C   0  0  2  0  0  3  0  0  0  0  0  0
  183.5950  177.9010  141.8730 O   0  0  0  0  0  0  0  0  0  0  0  0
  183.9300  178.3700  142.9940 C   0  0  0  0  0  0  0  0  0  0  0  0
  182.9720  179.0680  143.7820 N   0  0  0  0  0  1  0  0  0  0  0  0
  185.5840  179.0220  144.7680 C   0  0  0  0  0  2  0  0  0  0  0  0
  184.7960  178.2900  146.8910 C   0  0  0  0  0  1  0  0  0  0  0  0
  185.8790  178.1660  145.9210 N   0  0  0  0  0  0  0  0  0  0  0  0
  187.1120  178.5270  146.5210 N   0  0  0  0  0  2  0  0  0  0  0  0
  188.2570  178.0190  148.6050 C   0  0  0  0  0  2  0  0  0  0  0  0
  189.1620  177.6210  147.4600 C   0  0  0  0  0  2  0  0  0  0  0  0
  187.6640  177.4390  147.3380 C   0  0  0  0  0  3  0  0  0  0  0  0
  188.7390  177.5400  140.1170 C   0  0  0  0  0  2  0  0  0  0  0  0
  188.0520  178.4230  139.1830 N   0  0  0  0  0  0  0  0  0  0  0  0
  188.9870  179.2670  138.6890 O   0  0  0  0  0  1  0  0  0  0  0  0
  187.5960  177.6130  138.0620 C   0  0  0  0  0  2  0  0  0  0  0  0
  183.0550  178.2150  137.9800 C   0  0  0  0  0  0  0  0  0  0  0  0
  183.3130  176.9060  137.3100 C   0  0  0  0  0  2  0  0  0  0  0  0
  181.7870  178.6870  138.0110 F   0  0  0  0  0  0  0  0  0  0  0  0
  186.1350  177.8130  137.8200 C   0  0  0  0  0  0  0  0  0  0  0  0
  184.3560  177.0260  136.2500 C   0  0  0  0  0  3  0  0  0  0  0  0
  183.9990  178.8630  138.6680 C   0  0  0  0  0  3  0  0  0  0  0  0
  185.6110  177.3930  136.5040 C   0  0  0  0  0  3  0  0  0  0  0  0
  185.4270  178.4930  138.7370 C   0  0  0  0  0  3  0  0  0  0  0  0
  1  7  1  1  0  0  0
  1  4  1  0  0  0  0
  2 19  1  6  0  0  0
  2  1  1  0  0  0  0
  2  3  1  0  0  0  0
  3  5  1  0  0  0  0
  4  5  1  0  0  0  0
  6  7  2  0  0  0  0
  7  8  1  0  0  0  0
  8 12  1  1  0  0  0
  9 10  2  0  0  0  0
 10  8  1  0  0  0  0
 10 11  1  0  0  0  0
 12 14  1  0  0  0  0
 14 15  1  0  0  0  0
 14 13  1  0  0  0  0
 15 18  1  0  0  0  0
 17 16  1  0  0  0  0
 18 17  1  0  0  0  0
 18 16  1  0  0  0  0
 20 19  1  0  0  0  0
 21 20  1  0  0  0  0
 22 20  1  0  0  0  0
 23 25  1  0  0  0  0
 23 28  2  0  0  0  0
 24 23  1  0  0  0  0
 26 22  1  0  0  0  0
 26 30  2  0  0  0  0
 27 29  2  0  0  0  0
 27 24  1  0  0  0  0
 28 30  1  0  0  0  0
 29 26  1  0  0  0  0
M  END
>  <MODEL>
9

>  <REMARK>
 VINA RESULT:      -7.0      2.780      6.298
  Name = 
  11 active torsions:
  status: ('A' for Active; 'I' for Inactive)
    1  A    between atoms: C_3  and  N_11
    2  A    between atoms: C_3  and  C_19
    3  A    between atoms: C_4  and  C_13
    4  A    between atoms: C_7  and  C_30
    5  A    between atoms: C_8  and  N_12
    6  A    between atoms: C_8  and  C_13
    7  A    between atoms: N_9  and  N_12
    8  A    between atoms: N_9  and  C_21
    9  A    between atoms: C_10  and  C_25
   10  A    between atoms: N_11  and  C_25
   11  A    between atoms: C_13  and  C_30
                            x       y       z     vdW  Elec       q    Type
                         _______ _______ _______ _____ _____    ______ ____

>  <TORSDO>
F 11

$$$$
