=
 OpenBabel10272400063D

 34 39  0  0  1  0  0  0  0  0999 V2000
  187.3630  178.2660  147.2530 C   0  0  0  0  0  0  0  0  0  0  0  0
  189.4270  177.1420  146.5780 C   0  0  0  0  0  0  0  0  0  0  0  0
  187.6390  177.8600  144.8450 C   0  0  0  0  0  0  0  0  0  0  0  0
  187.8110  177.6000  142.4240 C   0  0  0  0  0  0  0  0  0  0  0  0
  189.3630  178.0860  148.7620 C   0  0  0  0  0  3  0  0  0  0  0  0
  190.0420  177.5200  147.8120 N   0  0  0  0  0  0  0  0  0  0  0  0
  189.9120  177.7460  143.7130 C   0  0  0  0  0  3  0  0  0  0  0  0
  188.1470  177.7850  146.1840 C   0  0  0  0  0  0  0  0  0  0  0  0
  190.6410  177.6990  142.6020 C   0  0  0  0  0  3  0  0  0  0  0  0
  188.5890  177.2770  141.1790 C   0  0  0  0  0  3  0  0  0  0  0  0
  187.8720  178.2730  148.6700 C   0  0  0  0  0  2  0  0  0  0  0  0
  186.2610  178.1860  144.6620 C   0  0  1  0  0  3  0  0  0  0  0  0
  186.0380  178.6270  147.0410 C   0  0  0  0  0  3  0  0  0  0  0  0
  189.9230  176.1970  145.9100 O   0  0  0  0  0  0  0  0  0  0  0  0
  186.4770  177.7990  142.3130 N   0  0  0  0  0  0  0  0  0  0  0  0
  185.6860  178.1250  143.3670 C   0  0  0  0  0  0  0  0  0  0  0  0
  190.0170  177.5610  141.3210 N   0  0  0  0  0  0  0  0  0  0  0  0
  188.4370  177.6770  143.6810 C   0  0  0  0  0  0  0  0  0  0  0  0
  185.4910  178.5620  145.7690 C   0  0  0  0  0  3  0  0  0  0  0  0
  182.4510  178.5960  141.4570 C   0  0  0  0  0  0  0  0  0  0  0  0
  181.5620  178.9530  142.4730 C   0  0  0  0  0  3  0  0  0  0  0  0
  184.2490  178.3870  143.0850 C   0  0  0  0  0  0  0  0  0  0  0  0
  182.0110  179.0370  143.7930 C   0  0  0  0  0  3  0  0  0  0  0  0
  183.7870  178.3210  141.7600 C   0  0  0  0  0  3  0  0  0  0  0  0
  183.3480  178.7610  144.0950 C   0  0  0  0  0  3  0  0  0  0  0  0
  182.0190  178.5210  140.1750 F   0  0  0  0  0  0  0  0  0  0  0  0
  190.8320  177.6240  140.1190 C   0  0  0  0  0  2  0  0  0  0  0  0
  190.3510  176.3050  138.9610 S   0  0  0  0  0  0  0  0  0  0  0  0
  188.9490  179.3410  137.8260 N   0  0  0  0  0  1  0  0  0  0  0  0
  188.9760  177.9320  137.4780 C   0  0  2  0  0  3  0  0  0  0  0  0
  189.3340  176.5850  135.5610 C   0  0  0  0  0  2  0  0  0  0  0  0
  190.5970  176.6280  136.3930 C   0  0  0  0  0  2  0  0  0  0  0  0
  190.3370  177.4210  137.5920 N   0  0  0  0  0  0  0  0  0  0  0  0
  188.5260  177.7510  136.0500 C   0  0  0  0  0  2  0  0  0  0  0  0
  1 11  1  0  0  0  0
  2  6  1  0  0  0  0
  3  8  1  0  0  0  0
  4 18  1  0  0  0  0
  6  5  2  0  0  0  0
  8  2  1  0  0  0  0
  8  1  2  0  0  0  0
  9  7  2  0  0  0  0
 10 17  1  0  0  0  0
 10  4  2  0  0  0  0
 11  5  1  0  0  0  0
 12  3  1  0  0  0  0
 12 19  1  1  0  0  0
 13  1  1  0  0  0  0
 14  2  2  0  0  0  0
 15  4  1  0  0  0  0
 15 16  2  0  0  0  0
 16 12  1  0  0  0  0
 17  9  1  0  0  0  0
 18  7  1  0  0  0  0
 18  3  2  0  0  0  0
 19 13  2  0  0  0  0
 20 24  2  0  0  0  0
 20 21  1  0  0  0  0
 21 23  2  0  0  0  0
 22 16  1  0  0  0  0
 22 25  2  0  0  0  0
 23 25  1  0  0  0  0
 24 22  1  0  0  0  0
 26 20  1  0  0  0  0
 27 17  1  0  0  0  0
 28 27  1  0  0  0  0
 30 33  1  0  0  0  0
 30 29  1  6  0  0  0
 31 34  1  0  0  0  0
 31 32  1  0  0  0  0
 32 33  1  0  0  0  0
 33 28  1  0  0  0  0
 34 30  1  0  0  0  0
M  END
>  <MODEL>
1

>  <REMARK>
 VINA RESULT:     -11.2      0.000      0.000
  Name = 
  4 active torsions:
  status: ('A' for Active; 'I' for Inactive)
    1  A    between atoms: C_3  and  S_13
    2  A    between atoms: C_3  and  N_29
    3  A    between atoms: C_12  and  C_28
    4  A    between atoms: S_13  and  N_33
                            x       y       z     vdW  Elec       q    Type
                         _______ _______ _______ _____ _____    ______ ____

>  <TORSDO>
F 4

$$$$
=
 OpenBabel10272400063D

 34 39  0  0  1  0  0  0  0  0999 V2000
  189.3780  177.2230  146.2950 C   0  0  0  0  0  0  0  0  0  0  0  0
  191.0280  176.1790  144.8240 C   0  0  0  0  0  0  0  0  0  0  0  0
  188.8880  177.2980  143.8880 C   0  0  0  0  0  0  0  0  0  0  0  0
  188.3090  177.5250  141.5280 C   0  0  0  0  0  0  0  0  0  0  0  0
  191.7060  176.6660  147.0540 C   0  0  0  0  0  3  0  0  0  0  0  0
  192.0150  176.2770  145.8540 N   0  0  0  0  0  0  0  0  0  0  0  0
  190.7010  177.3270  142.1080 C   0  0  0  0  0  3  0  0  0  0  0  0
  189.7590  176.9370  144.9680 C   0  0  0  0  0  0  0  0  0  0  0  0
  191.0610  177.4770  140.8370 C   0  0  0  0  0  3  0  0  0  0  0  0
  188.6490  177.4290  140.0660 C   0  0  0  0  0  3  0  0  0  0  0  0
  190.2810  176.9250  147.4620 C   0  0  0  0  0  2  0  0  0  0  0  0
  187.5560  177.7080  144.2020 C   0  0  1  0  0  3  0  0  0  0  0  0
  188.0910  177.6690  146.5720 C   0  0  0  0  0  3  0  0  0  0  0  0
  191.2090  175.3690  143.8780 O   0  0  0  0  0  0  0  0  0  0  0  0
  187.0280  177.7930  141.8720 N   0  0  0  0  0  0  0  0  0  0  0  0
  186.6210  177.9310  143.1600 C   0  0  0  0  0  0  0  0  0  0  0  0
  190.0750  177.6230  139.8080 N   0  0  0  0  0  0  0  0  0  0  0  0
  189.2830  177.3230  142.5220 C   0  0  0  0  0  0  0  0  0  0  0  0
  187.1880  177.8820  145.5420 C   0  0  0  0  0  3  0  0  0  0  0  0
  182.9780  178.7040  142.4710 C   0  0  0  0  0  0  0  0  0  0  0  0
  182.5140  179.0670  143.7360 C   0  0  0  0  0  3  0  0  0  0  0  0
  185.1970  178.2980  143.3880 C   0  0  0  0  0  0  0  0  0  0  0  0
  183.3860  179.0580  144.8270 C   0  0  0  0  0  3  0  0  0  0  0  0
  184.3130  178.3280  142.2970 C   0  0  0  0  0  3  0  0  0  0  0  0
  184.7200  178.6800  144.6520 C   0  0  0  0  0  3  0  0  0  0  0  0
  182.1360  178.7200  141.4090 F   0  0  0  0  0  0  0  0  0  0  0  0
  190.5000  177.8950  138.4450 C   0  0  0  0  0  2  0  0  0  0  0  0
  189.8430  176.6300  137.3150 S   0  0  0  0  0  0  0  0  0  0  0  0
  187.5950  179.3420  137.0690 N   0  0  0  0  0  1  0  0  0  0  0  0
  187.8160  178.0280  136.4940 C   0  0  2  0  0  3  0  0  0  0  0  0
  187.9140  177.0250  134.3490 C   0  0  0  0  0  2  0  0  0  0  0  0
  189.3170  177.2800  134.8530 C   0  0  0  0  0  2  0  0  0  0  0  0
  189.2330  177.8510  136.1950 N   0  0  0  0  0  0  0  0  0  0  0  0
  187.0460  177.9000  135.2030 C   0  0  0  0  0  2  0  0  0  0  0  0
  1 13  1  0  0  0  0
  1 11  1  0  0  0  0
  2  8  1  0  0  0  0
  2  6  1  0  0  0  0
  3 12  1  0  0  0  0
  3  8  1  0  0  0  0
  4 15  1  0  0  0  0
  4 18  1  0  0  0  0
  5 11  1  0  0  0  0
  6  5  2  0  0  0  0
  7 18  1  0  0  0  0
  8  1  2  0  0  0  0
  9  7  2  0  0  0  0
 10  4  2  0  0  0  0
 12 19  1  1  0  0  0
 14  2  2  0  0  0  0
 15 16  2  0  0  0  0
 16 22  1  0  0  0  0
 16 12  1  0  0  0  0
 17 10  1  0  0  0  0
 17  9  1  0  0  0  0
 18  3  2  0  0  0  0
 19 13  2  0  0  0  0
 20 21  1  0  0  0  0
 21 23  2  0  0  0  0
 22 25  2  0  0  0  0
 24 20  2  0  0  0  0
 24 22  1  0  0  0  0
 25 23  1  0  0  0  0
 26 20  1  0  0  0  0
 27 17  1  0  0  0  0
 28 27  1  0  0  0  0
 30 29  1  6  0  0  0
 31 32  1  0  0  0  0
 31 34  1  0  0  0  0
 32 33  1  0  0  0  0
 33 30  1  0  0  0  0
 33 28  1  0  0  0  0
 34 30  1  0  0  0  0
M  END
>  <MODEL>
2

>  <REMARK>
 VINA RESULT:     -11.1      1.402      1.868
  Name = 
  4 active torsions:
  status: ('A' for Active; 'I' for Inactive)
    1  A    between atoms: C_3  and  S_13
    2  A    between atoms: C_3  and  N_29
    3  A    between atoms: C_12  and  C_28
    4  A    between atoms: S_13  and  N_33
                            x       y       z     vdW  Elec       q    Type
                         _______ _______ _______ _____ _____    ______ ____

>  <TORSDO>
F 4

$$$$
=
 OpenBabel10272400063D

 34 39  0  0  1  0  0  0  0  0999 V2000
  189.3680  177.2100  146.2510 C   0  0  0  0  0  0  0  0  0  0  0  0
  191.0200  176.1740  144.7740 C   0  0  0  0  0  0  0  0  0  0  0  0
  188.8790  177.2980  143.8430 C   0  0  0  0  0  0  0  0  0  0  0  0
  188.3010  177.5370  141.4840 C   0  0  0  0  0  0  0  0  0  0  0  0
  191.6960  176.6500  147.0070 C   0  0  0  0  0  3  0  0  0  0  0  0
  192.0050  176.2670  145.8060 N   0  0  0  0  0  0  0  0  0  0  0  0
  190.6930  177.3380  142.0640 C   0  0  0  0  0  3  0  0  0  0  0  0
  189.7500  176.9310  144.9220 C   0  0  0  0  0  0  0  0  0  0  0  0
  191.0530  177.4940  140.7940 C   0  0  0  0  0  3  0  0  0  0  0  0
  188.6410  177.4500  140.0220 C   0  0  0  0  0  3  0  0  0  0  0  0
  190.2710  176.9050  147.4160 C   0  0  0  0  0  2  0  0  0  0  0  0
  187.5470  177.7050  144.1600 C   0  0  1  0  0  3  0  0  0  0  0  0
  188.0810  177.6540  146.5290 C   0  0  0  0  0  3  0  0  0  0  0  0
  191.2010  175.3690  143.8240 O   0  0  0  0  0  0  0  0  0  0  0  0
  187.0200  177.8030  141.8300 N   0  0  0  0  0  0  0  0  0  0  0  0
  186.6120  177.9340  143.1180 C   0  0  0  0  0  0  0  0  0  0  0  0
  190.0670  177.6460  139.7660 N   0  0  0  0  0  0  0  0  0  0  0  0
  189.2750  177.3310  142.4780 C   0  0  0  0  0  0  0  0  0  0  0  0
  187.1780  177.8720  145.5000 C   0  0  0  0  0  3  0  0  0  0  0  0
  182.9680  178.7040  142.4320 C   0  0  0  0  0  0  0  0  0  0  0  0
  182.5040  179.0650  143.6990 C   0  0  0  0  0  3  0  0  0  0  0  0
  185.1880  178.3000  143.3470 C   0  0  0  0  0  0  0  0  0  0  0  0
  183.3770  179.0550  144.7890 C   0  0  0  0  0  3  0  0  0  0  0  0
  184.3030  178.3300  142.2570 C   0  0  0  0  0  3  0  0  0  0  0  0
  184.7110  178.6790  144.6120 C   0  0  0  0  0  3  0  0  0  0  0  0
  182.1250  178.7200  141.3720 F   0  0  0  0  0  0  0  0  0  0  0  0
  190.4930  177.9250  138.4050 C   0  0  0  0  0  2  0  0  0  0  0  0
  189.9860  176.5750  137.2950 S   0  0  0  0  0  0  0  0  0  0  0  0
  193.4510  176.6870  137.9720 N   0  0  0  0  0  1  0  0  0  0  0  0
  192.5180  176.0610  137.0510 C   0  0  2  0  0  3  0  0  0  0  0  0
  192.0600  173.9030  136.1860 C   0  0  0  0  0  2  0  0  0  0  0  0
  191.0860  174.2190  137.2990 C   0  0  0  0  0  2  0  0  0  0  0  0
  191.3550  175.5720  137.7820 N   0  0  0  0  0  0  0  0  0  0  0  0
  193.1790  174.8830  136.3790 C   0  0  0  0  0  2  0  0  0  0  0  0
  1 13  1  0  0  0  0
  1 11  1  0  0  0  0
  2  8  1  0  0  0  0
  2  6  1  0  0  0  0
  3 12  1  0  0  0  0
  3  8  1  0  0  0  0
  4 15  1  0  0  0  0
  4 18  1  0  0  0  0
  5 11  1  0  0  0  0
  6  5  2  0  0  0  0
  7 18  1  0  0  0  0
  8  1  2  0  0  0  0
  9  7  2  0  0  0  0
 10  4  2  0  0  0  0
 12 19  1  1  0  0  0
 14  2  2  0  0  0  0
 15 16  2  0  0  0  0
 16 22  1  0  0  0  0
 16 12  1  0  0  0  0
 17 10  1  0  0  0  0
 17  9  1  0  0  0  0
 18  3  2  0  0  0  0
 19 13  2  0  0  0  0
 20 21  1  0  0  0  0
 21 23  2  0  0  0  0
 22 25  2  0  0  0  0
 24 20  2  0  0  0  0
 24 22  1  0  0  0  0
 25 23  1  0  0  0  0
 26 20  1  0  0  0  0
 27 17  1  0  0  0  0
 28 33  1  0  0  0  0
 28 27  1  0  0  0  0
 30 33  1  0  0  0  0
 30 29  1  1  0  0  0
 31 34  1  0  0  0  0
 31 32  1  0  0  0  0
 32 33  1  0  0  0  0
 34 30  1  0  0  0  0
M  END
>  <MODEL>
3

>  <REMARK>
 VINA RESULT:     -10.9      1.700      2.430
  Name = 
  4 active torsions:
  status: ('A' for Active; 'I' for Inactive)
    1  A    between atoms: C_3  and  S_13
    2  A    between atoms: C_3  and  N_29
    3  A    between atoms: C_12  and  C_28
    4  A    between atoms: S_13  and  N_33
                            x       y       z     vdW  Elec       q    Type
                         _______ _______ _______ _____ _____    ______ ____

>  <TORSDO>
F 4

$$$$
=
 OpenBabel10272400063D

 34 39  0  0  1  0  0  0  0  0999 V2000
  187.2970  178.3120  147.1930 C   0  0  0  0  0  0  0  0  0  0  0  0
  189.3870  177.1520  146.6770 C   0  0  0  0  0  0  0  0  0  0  0  0
  187.7240  177.8500  144.8160 C   0  0  0  0  0  0  0  0  0  0  0  0
  188.0490  177.5350  142.4180 C   0  0  0  0  0  0  0  0  0  0  0  0
  189.1920  178.1450  148.8320 C   0  0  0  0  0  3  0  0  0  0  0  0
  189.9250  177.5510  147.9400 N   0  0  0  0  0  0  0  0  0  0  0  0
  190.0640  177.6880  143.8380 C   0  0  0  0  0  3  0  0  0  0  0  0
  188.1430  177.8000  146.1870 C   0  0  0  0  0  0  0  0  0  0  0  0
  190.8630  177.6090  142.7780 C   0  0  0  0  0  3  0  0  0  0  0  0
  188.9030  177.1770  141.2340 C   0  0  0  0  0  3  0  0  0  0  0  0
  187.7130  178.3440  148.6390 C   0  0  0  0  0  2  0  0  0  0  0  0
  186.3640  178.1860  144.5380 C   0  0  1  0  0  3  0  0  0  0  0  0
  185.9930  178.6810  146.8870 C   0  0  0  0  0  3  0  0  0  0  0  0
  189.9140  176.1870  146.0640 O   0  0  0  0  0  0  0  0  0  0  0  0
  186.7280  177.7450  142.2160 N   0  0  0  0  0  0  0  0  0  0  0  0
  185.8740  178.1020  143.2100 C   0  0  0  0  0  0  0  0  0  0  0  0
  190.3210  177.4490  141.4620 N   0  0  0  0  0  0  0  0  0  0  0  0
  188.5930  177.6340  143.7120 C   0  0  0  0  0  0  0  0  0  0  0  0
  185.5280  178.5930  145.5840 C   0  0  0  0  0  3  0  0  0  0  0  0
  182.1690  178.8230  143.5170 C   0  0  0  0  0  0  0  0  0  0  0  0
  181.7580  178.8050  142.1830 C   0  0  0  0  0  3  0  0  0  0  0  0
  184.4610  178.3720  142.8290 C   0  0  0  0  0  0  0  0  0  0  0  0
  182.6880  178.5610  141.1700 C   0  0  0  0  0  3  0  0  0  0  0  0
  183.5110  178.6020  143.8380 C   0  0  0  0  0  3  0  0  0  0  0  0
  184.0300  178.3420  141.4930 C   0  0  0  0  0  3  0  0  0  0  0  0
  181.2670  179.0510  144.5010 F   0  0  0  0  0  0  0  0  0  0  0  0
  191.2130  177.4770  140.3150 C   0  0  0  0  0  2  0  0  0  0  0  0
  190.2920  177.1090  138.7900 S   0  0  0  0  0  0  0  0  0  0  0  0
  193.6760  176.2470  138.2680 N   0  0  0  0  0  1  0  0  0  0  0  0
  192.4150  176.2770  137.5500 C   0  0  2  0  0  3  0  0  0  0  0  0
  191.1240  174.8440  136.1720 C   0  0  0  0  0  2  0  0  0  0  0  0
  190.5720  174.8240  137.5800 C   0  0  0  0  0  2  0  0  0  0  0  0
  191.3510  175.7510  138.3980 N   0  0  0  0  0  0  0  0  0  0  0  0
  192.5070  175.4070  136.3210 C   0  0  0  0  0  2  0  0  0  0  0  0
  1 11  1  0  0  0  0
  2  6  1  0  0  0  0
  3  8  1  0  0  0  0
  4 18  1  0  0  0  0
  6  5  2  0  0  0  0
  8  2  1  0  0  0  0
  8  1  2  0  0  0  0
  9  7  2  0  0  0  0
 10 17  1  0  0  0  0
 10  4  2  0  0  0  0
 11  5  1  0  0  0  0
 12  3  1  0  0  0  0
 12 19  1  1  0  0  0
 13  1  1  0  0  0  0
 14  2  2  0  0  0  0
 15  4  1  0  0  0  0
 15 16  2  0  0  0  0
 16 12  1  0  0  0  0
 17  9  1  0  0  0  0
 18  7  1  0  0  0  0
 18  3  2  0  0  0  0
 19 13  2  0  0  0  0
 20 24  1  0  0  0  0
 20 26  1  0  0  0  0
 21 20  2  0  0  0  0
 22 16  1  0  0  0  0
 22 24  2  0  0  0  0
 23 25  2  0  0  0  0
 23 21  1  0  0  0  0
 25 22  1  0  0  0  0
 27 17  1  0  0  0  0
 28 27  1  0  0  0  0
 30 29  1  1  0  0  0
 30 33  1  0  0  0  0
 31 34  1  0  0  0  0
 31 32  1  0  0  0  0
 32 33  1  0  0  0  0
 33 28  1  0  0  0  0
 34 30  1  0  0  0  0
M  END
>  <MODEL>
4

>  <REMARK>
 VINA RESULT:     -10.7      1.559      1.949
  Name = 
  4 active torsions:
  status: ('A' for Active; 'I' for Inactive)
    1  A    between atoms: C_3  and  S_13
    2  A    between atoms: C_3  and  N_29
    3  A    between atoms: C_12  and  C_28
    4  A    between atoms: S_13  and  N_33
                            x       y       z     vdW  Elec       q    Type
                         _______ _______ _______ _____ _____    ______ ____

>  <TORSDO>
F 4

$$$$
=
 OpenBabel10272400063D

 34 39  0  0  1  0  0  0  0  0999 V2000
  185.1740  178.1780  143.7660 C   0  0  0  0  0  0  0  0  0  0  0  0
  185.2440  179.0660  141.4890 C   0  0  0  0  0  0  0  0  0  0  0  0
  187.3230  177.9810  142.5900 C   0  0  0  0  0  0  0  0  0  0  0  0
  189.4920  177.6410  141.5220 C   0  0  0  0  0  0  0  0  0  0  0  0
  183.0980  178.6830  142.4460 C   0  0  0  0  0  3  0  0  0  0  0  0
  183.8180  178.9880  141.4100 N   0  0  0  0  0  0  0  0  0  0  0  0
  187.5030  177.7740  140.0640 C   0  0  0  0  0  3  0  0  0  0  0  0
  185.9430  178.3700  142.6000 C   0  0  1  0  0  3  0  0  0  0  0  0
  188.2360  177.5360  138.9800 C   0  0  0  0  0  3  0  0  0  0  0  0
  190.3860  177.6370  140.3140 C   0  0  0  0  0  3  0  0  0  0  0  0
  183.7060  178.5070  143.8120 C   0  0  0  0  0  2  0  0  0  0  0  0
  187.9390  177.6460  143.8340 C   0  0  0  0  0  0  0  0  0  0  0  0
  185.7890  177.8010  144.9540 C   0  0  0  0  0  3  0  0  0  0  0  0
  185.8620  179.8110  140.6840 O   0  0  0  0  0  0  0  0  0  0  0  0
  190.0540  177.4460  142.7370 N   0  0  0  0  0  0  0  0  0  0  0  0
  189.3350  177.4010  143.8880 C   0  0  0  0  0  0  0  0  0  0  0  0
  189.6550  177.3690  139.0760 N   0  0  0  0  0  0  0  0  0  0  0  0
  188.1070  177.8600  141.4090 C   0  0  0  0  0  0  0  0  0  0  0  0
  187.1540  177.5660  144.9910 C   0  0  0  0  0  3  0  0  0  0  0  0
  190.2900  177.3890  147.5520 C   0  0  0  0  0  0  0  0  0  0  0  0
  191.4770  176.6550  147.5410 C   0  0  0  0  0  3  0  0  0  0  0  0
  190.0770  177.1050  145.1430 C   0  0  0  0  0  0  0  0  0  0  0  0
  191.9740  176.1520  146.3360 C   0  0  0  0  0  3  0  0  0  0  0  0
  189.5980  177.6180  146.3600 C   0  0  0  0  0  3  0  0  0  0  0  0
  191.2800  176.3810  145.1450 C   0  0  0  0  0  3  0  0  0  0  0  0
  189.8110  177.8850  148.7190 F   0  0  0  0  0  0  0  0  0  0  0  0
  190.4120  177.0010  137.8920 C   0  0  0  0  0  2  0  0  0  0  0  0
  190.2130  175.2270  137.5400 S   0  0  0  0  0  0  0  0  0  0  0  0
  192.3320  173.0400  135.7530 N   0  0  0  0  0  1  0  0  0  0  0  0
  192.3410  173.8660  136.9470 C   0  0  2  0  0  3  0  0  0  0  0  0
  193.7370  175.4840  137.9720 C   0  0  0  0  0  2  0  0  0  0  0  0
  192.6130  176.1790  137.2350 C   0  0  0  0  0  2  0  0  0  0  0  0
  191.7390  175.1620  136.6550 N   0  0  0  0  0  0  0  0  0  0  0  0
  193.7630  174.1000  137.3930 C   0  0  0  0  0  2  0  0  0  0  0  0
  1 11  1  0  0  0  0
  1 13  2  0  0  0  0
  3  8  1  0  0  0  0
  3 12  1  0  0  0  0
  4 15  1  0  0  0  0
  5 11  1  0  0  0  0
  6  2  1  0  0  0  0
  6  5  2  0  0  0  0
  7 18  1  0  0  0  0
  8  2  1  1  0  0  0
  8  1  1  0  0  0  0
  9 17  1  0  0  0  0
  9  7  2  0  0  0  0
 10  4  2  0  0  0  0
 12 16  1  0  0  0  0
 12 19  2  0  0  0  0
 13 19  1  0  0  0  0
 14  2  2  0  0  0  0
 15 16  2  0  0  0  0
 16 22  1  0  0  0  0
 17 10  1  0  0  0  0
 18  4  1  0  0  0  0
 18  3  2  0  0  0  0
 20 26  1  0  0  0  0
 21 20  1  0  0  0  0
 22 25  2  0  0  0  0
 22 24  1  0  0  0  0
 23 21  2  0  0  0  0
 24 20  2  0  0  0  0
 25 23  1  0  0  0  0
 27 17  1  0  0  0  0
 28 27  1  0  0  0  0
 30 29  1  6  0  0  0
 30 34  1  0  0  0  0
 32 31  1  0  0  0  0
 33 30  1  0  0  0  0
 33 32  1  0  0  0  0
 33 28  1  0  0  0  0
 34 31  1  0  0  0  0
M  END
>  <MODEL>
5

>  <REMARK>
 VINA RESULT:     -10.4      3.116      6.087
  Name = 
  4 active torsions:
  status: ('A' for Active; 'I' for Inactive)
    1  A    between atoms: C_3  and  S_13
    2  A    between atoms: C_3  and  N_29
    3  A    between atoms: C_12  and  C_28
    4  A    between atoms: S_13  and  N_33
                            x       y       z     vdW  Elec       q    Type
                         _______ _______ _______ _____ _____    ______ ____

>  <TORSDO>
F 4

$$$$
=
 OpenBabel10272400063D

 34 39  0  0  1  0  0  0  0  0999 V2000
  183.6260  178.6340  142.2290 C   0  0  0  0  0  0  0  0  0  0  0  0
  183.8270  179.4700  139.9400 C   0  0  0  0  0  0  0  0  0  0  0  0
  185.8650  178.5130  141.2220 C   0  0  0  0  0  0  0  0  0  0  0  0
  188.1210  178.2520  140.3280 C   0  0  0  0  0  0  0  0  0  0  0  0
  181.6350  179.0070  140.7450 C   0  0  0  0  0  3  0  0  0  0  0  0
  182.4160  179.3220  139.7580 N   0  0  0  0  0  0  0  0  0  0  0  0
  186.2440  178.2550  138.7220 C   0  0  0  0  0  3  0  0  0  0  0  0
  184.4720  178.8350  141.1180 C   0  0  1  0  0  3  0  0  0  0  0  0
  187.0670  178.0270  137.7020 C   0  0  0  0  0  3  0  0  0  0  0  0
  189.1030  178.2630  139.1890 C   0  0  0  0  0  3  0  0  0  0  0  0
  182.1450  178.8930  142.1560 C   0  0  0  0  0  2  0  0  0  0  0  0
  186.4000  178.2370  142.5170 C   0  0  0  0  0  0  0  0  0  0  0  0
  184.1660  178.3150  143.4690 C   0  0  0  0  0  3  0  0  0  0  0  0
  184.4690  180.2250  139.1640 O   0  0  0  0  0  0  0  0  0  0  0  0
  188.5990  178.1130  141.5860 N   0  0  0  0  0  0  0  0  0  0  0  0
  187.7970  178.0600  142.6800 C   0  0  0  0  0  0  0  0  0  0  0  0
  188.4810  177.9310  137.9080 N   0  0  0  0  0  0  0  0  0  0  0  0
  186.7400  178.4020  140.1060 C   0  0  0  0  0  0  0  0  0  0  0  0
  185.5340  178.1460  143.6130 C   0  0  0  0  0  3  0  0  0  0  0  0
  190.4930  177.4050  145.2580 C   0  0  0  0  0  0  0  0  0  0  0  0
  189.7510  177.3080  146.4360 C   0  0  0  0  0  3  0  0  0  0  0  0
  188.4550  177.8300  143.9950 C   0  0  0  0  0  0  0  0  0  0  0  0
  188.3630  177.4610  146.4000 C   0  0  0  0  0  3  0  0  0  0  0  0
  189.8490  177.6580  144.0450 C   0  0  0  0  0  3  0  0  0  0  0  0
  187.7200  177.7150  145.1860 C   0  0  0  0  0  3  0  0  0  0  0  0
  191.8390  177.2490  145.2900 F   0  0  0  0  0  0  0  0  0  0  0  0
  189.3420  177.5730  136.7940 C   0  0  0  0  0  2  0  0  0  0  0  0
  188.5230  176.3410  135.7350 S   0  0  0  0  0  0  0  0  0  0  0  0
  190.5490  174.1840  137.6620 N   0  0  0  0  0  1  0  0  0  0  0  0
  189.4440  174.1240  136.7220 C   0  0  2  0  0  3  0  0  0  0  0  0
  187.3200  173.0900  136.5450 C   0  0  0  0  0  2  0  0  0  0  0  0
  187.1480  174.5250  136.9900 C   0  0  0  0  0  2  0  0  0  0  0  0
  188.4650  175.1560  137.0430 N   0  0  0  0  0  0  0  0  0  0  0  0
  188.7620  172.7830  136.8210 C   0  0  0  0  0  2  0  0  0  0  0  0
  1 13  2  0  0  0  0
  3 12  1  0  0  0  0
  4 15  1  0  0  0  0
  5 11  1  0  0  0  0
  6  2  1  0  0  0  0
  6  5  2  0  0  0  0
  7 18  1  0  0  0  0
  8  2  1  1  0  0  0
  8  3  1  0  0  0  0
  8  1  1  0  0  0  0
  9 17  1  0  0  0  0
  9  7  2  0  0  0  0
 10  4  2  0  0  0  0
 11  1  1  0  0  0  0
 12 16  1  0  0  0  0
 12 19  2  0  0  0  0
 13 19  1  0  0  0  0
 14  2  2  0  0  0  0
 15 16  2  0  0  0  0
 16 22  1  0  0  0  0
 17 10  1  0  0  0  0
 18  4  1  0  0  0  0
 18  3  2  0  0  0  0
 20 26  1  0  0  0  0
 20 21  1  0  0  0  0
 22 24  1  0  0  0  0
 22 25  2  0  0  0  0
 23 21  2  0  0  0  0
 24 20  2  0  0  0  0
 25 23  1  0  0  0  0
 27 17  1  0  0  0  0
 28 27  1  0  0  0  0
 28 33  1  0  0  0  0
 30 34  1  0  0  0  0
 30 33  1  0  0  0  0
 30 29  1  1  0  0  0
 31 34  1  0  0  0  0
 31 32  1  0  0  0  0
 32 33  1  0  0  0  0
M  END
>  <MODEL>
6

>  <REMARK>
 VINA RESULT:     -10.3      3.313      6.206
  Name = 
  4 active torsions:
  status: ('A' for Active; 'I' for Inactive)
    1  A    between atoms: C_3  and  S_13
    2  A    between atoms: C_3  and  N_29
    3  A    between atoms: C_12  and  C_28
    4  A    between atoms: S_13  and  N_33
                            x       y       z     vdW  Elec       q    Type
                         _______ _______ _______ _____ _____    ______ ____

>  <TORSDO>
F 4

$$$$
=
 OpenBabel10272400063D

 34 39  0  0  1  0  0  0  0  0999 V2000
  188.9940  177.2250  145.2130 C   0  0  0  0  0  0  0  0  0  0  0  0
  190.4710  176.3900  143.4520 C   0  0  0  0  0  0  0  0  0  0  0  0
  188.2170  177.5420  142.9030 C   0  0  0  0  0  0  0  0  0  0  0  0
  187.3540  178.0020  140.6660 C   0  0  0  0  0  0  0  0  0  0  0  0
  191.4060  176.6560  145.6250 C   0  0  0  0  0  3  0  0  0  0  0  0
  191.5730  176.4050  144.3630 N   0  0  0  0  0  0  0  0  0  0  0  0
  189.8020  177.8120  140.9350 C   0  0  0  0  0  3  0  0  0  0  0  0
  189.2170  177.0920  143.8260 C   0  0  0  0  0  0  0  0  0  0  0  0
  190.0030  178.1060  139.6540 C   0  0  0  0  0  3  0  0  0  0  0  0
  187.5170  178.0720  139.1730 C   0  0  0  0  0  3  0  0  0  0  0  0
  190.0360  176.8290  146.2250 C   0  0  0  0  0  2  0  0  0  0  0  0
  186.9260  177.8780  143.4150 C   0  0  1  0  0  3  0  0  0  0  0  0
  187.7440  177.6030  145.6870 C   0  0  0  0  0  3  0  0  0  0  0  0
  190.5490  175.6910  142.4080 O   0  0  0  0  0  0  0  0  0  0  0  0
  186.1210  178.1970  141.1870 N   0  0  0  0  0  0  0  0  0  0  0  0
  185.8690  178.1840  142.5210 C   0  0  0  0  0  0  0  0  0  0  0  0
  188.8980  178.3330  138.7710 N   0  0  0  0  0  0  0  0  0  0  0  0
  188.4440  177.7240  141.5110 C   0  0  0  0  0  0  0  0  0  0  0  0
  186.7200  177.8990  144.8000 C   0  0  0  0  0  3  0  0  0  0  0  0
  182.1470  178.8620  142.3600 C   0  0  0  0  0  0  0  0  0  0  0  0
  181.8430  179.1330  143.6960 C   0  0  0  0  0  3  0  0  0  0  0  0
  184.4780  178.4860  142.9550 C   0  0  0  0  0  0  0  0  0  0  0  0
  182.8510  179.0920  144.6620 C   0  0  0  0  0  3  0  0  0  0  0  0
  183.4570  178.5470  141.9920 C   0  0  0  0  0  3  0  0  0  0  0  0
  184.1610  178.7750  144.2910 C   0  0  0  0  0  3  0  0  0  0  0  0
  181.1720  178.9100  141.4200 F   0  0  0  0  0  0  0  0  0  0  0  0
  189.1520  178.7600  137.4060 C   0  0  0  0  0  2  0  0  0  0  0  0
  188.0870  177.8440  136.2500 S   0  0  0  0  0  0  0  0  0  0  0  0
  190.8130  176.3500  134.5720 N   0  0  0  0  0  1  0  0  0  0  0  0
  189.4210  176.0810  134.8890 C   0  0  2  0  0  3  0  0  0  0  0  0
  188.1140  174.3150  135.7780 C   0  0  0  0  0  2  0  0  0  0  0  0
  188.3910  175.3350  136.8610 C   0  0  0  0  0  2  0  0  0  0  0  0
  189.1530  176.4360  136.2780 N   0  0  0  0  0  0  0  0  0  0  0  0
  189.1340  174.6100  134.7180 C   0  0  0  0  0  2  0  0  0  0  0  0
  1 13  1  0  0  0  0
  1 11  1  0  0  0  0
  2  8  1  0  0  0  0
  2  6  1  0  0  0  0
  3 12  1  0  0  0  0
  3  8  1  0  0  0  0
  4 15  1  0  0  0  0
  4 18  1  0  0  0  0
  5 11  1  0  0  0  0
  6  5  2  0  0  0  0
  7 18  1  0  0  0  0
  8  1  2  0  0  0  0
  9  7  2  0  0  0  0
 10  4  2  0  0  0  0
 12 19  1  6  0  0  0
 14  2  2  0  0  0  0
 15 16  2  0  0  0  0
 16 22  1  0  0  0  0
 16 12  1  0  0  0  0
 17 10  1  0  0  0  0
 17  9  1  0  0  0  0
 18  3  2  0  0  0  0
 19 13  2  0  0  0  0
 20 21  1  0  0  0  0
 21 23  2  0  0  0  0
 22 25  2  0  0  0  0
 24 20  2  0  0  0  0
 24 22  1  0  0  0  0
 25 23  1  0  0  0  0
 26 20  1  0  0  0  0
 27 17  1  0  0  0  0
 28 33  1  0  0  0  0
 28 27  1  0  0  0  0
 30 29  1  1  0  0  0
 30 33  1  0  0  0  0
 31 32  1  0  0  0  0
 33 32  1  0  0  0  0
 34 30  1  0  0  0  0
 34 31  1  0  0  0  0
M  END
>  <MODEL>
7

>  <REMARK>
 VINA RESULT:     -10.1      1.806      2.640
  Name = 
  4 active torsions:
  status: ('A' for Active; 'I' for Inactive)
    1  A    between atoms: C_3  and  S_13
    2  A    between atoms: C_3  and  N_29
    3  A    between atoms: C_12  and  C_28
    4  A    between atoms: S_13  and  N_33
                            x       y       z     vdW  Elec       q    Type
                         _______ _______ _______ _____ _____    ______ ____

>  <TORSDO>
F 4

$$$$
=
 OpenBabel10272400063D

 34 39  0  0  1  0  0  0  0  0999 V2000
  185.9930  177.8140  136.9960 C   0  0  0  0  0  0  0  0  0  0  0  0
  188.3990  178.2390  136.8980 C   0  0  0  0  0  0  0  0  0  0  0  0
  187.1300  178.1150  139.1540 C   0  0  0  0  0  0  0  0  0  0  0  0
  188.1340  178.3090  141.3700 C   0  0  0  0  0  0  0  0  0  0  0  0
  187.3650  177.3610  134.9420 C   0  0  0  0  0  3  0  0  0  0  0  0
  188.4470  177.6880  135.5800 N   0  0  0  0  0  0  0  0  0  0  0  0
  189.5710  177.5150  139.5260 C   0  0  0  0  0  3  0  0  0  0  0  0
  187.1820  178.0270  137.7240 C   0  0  1  0  0  3  0  0  0  0  0  0
  190.5960  177.3320  140.3530 C   0  0  0  0  0  3  0  0  0  0  0  0
  189.3280  178.3740  142.2820 C   0  0  0  0  0  3  0  0  0  0  0  0
  185.9980  177.6490  135.5000 C   0  0  0  0  0  2  0  0  0  0  0  0
  185.8510  178.2350  139.7770 C   0  0  0  0  0  0  0  0  0  0  0  0
  184.7610  177.8850  137.6340 C   0  0  0  0  0  3  0  0  0  0  0  0
  189.3380  178.9830  137.2860 O   0  0  0  0  0  0  0  0  0  0  0  0
  186.9090  178.5360  141.9000 N   0  0  0  0  0  0  0  0  0  0  0  0
  185.7650  178.4730  141.1730 C   0  0  0  0  0  0  0  0  0  0  0  0
  190.4840  177.6580  141.7440 N   0  0  0  0  0  0  0  0  0  0  0  0
  188.2740  178.0400  139.9970 C   0  0  0  0  0  0  0  0  0  0  0  0
  184.6930  178.1180  138.9990 C   0  0  0  0  0  3  0  0  0  0  0  0
  183.3180  178.9950  144.0150 C   0  0  0  0  0  0  0  0  0  0  0  0
  182.0910  178.9710  143.3500 C   0  0  0  0  0  3  0  0  0  0  0  0
  184.4830  178.6730  141.9020 C   0  0  0  0  0  0  0  0  0  0  0  0
  182.0520  178.7890  141.9660 C   0  0  0  0  0  3  0  0  0  0  0  0
  184.5060  178.8410  143.2960 C   0  0  0  0  0  3  0  0  0  0  0  0
  183.2410  178.6360  141.2480 C   0  0  0  0  0  3  0  0  0  0  0  0
  183.3580  179.1640  145.3590 F   0  0  0  0  0  0  0  0  0  0  0  0
  191.5830  177.3450  142.6410 C   0  0  0  0  0  2  0  0  0  0  0  0
  191.4270  178.2960  144.1850 S   0  0  0  0  0  0  0  0  0  0  0  0
  188.2930  177.2870  145.4610 N   0  0  0  0  0  1  0  0  0  0  0  0
  189.6440  177.5600  145.9200 C   0  0  2  0  0  3  0  0  0  0  0  0
  191.2950  176.5370  147.2770 C   0  0  0  0  0  2  0  0  0  0  0  0
  191.6090  176.2820  145.8190 C   0  0  0  0  0  2  0  0  0  0  0  0
  190.6070  176.9630  145.0020 N   0  0  0  0  0  0  0  0  0  0  0  0
  189.8520  176.9470  147.2830 C   0  0  0  0  0  2  0  0  0  0  0  0
  1 13  2  0  0  0  0
  1  8  1  0  0  0  0
  2 14  2  0  0  0  0
  3 12  1  0  0  0  0
  3 18  2  0  0  0  0
  4 15  1  0  0  0  0
  4 10  2  0  0  0  0
  5 11  1  0  0  0  0
  5  6  2  0  0  0  0
  6  2  1  0  0  0  0
  7 18  1  0  0  0  0
  7  9  2  0  0  0  0
  8  2  1  6  0  0  0
  8  3  1  0  0  0  0
  9 17  1  0  0  0  0
 11  1  1  0  0  0  0
 12 16  1  0  0  0  0
 13 19  1  0  0  0  0
 16 15  2  0  0  0  0
 16 22  1  0  0  0  0
 17 10  1  0  0  0  0
 17 27  1  0  0  0  0
 18  4  1  0  0  0  0
 19 12  2  0  0  0  0
 20 26  1  0  0  0  0
 21 20  1  0  0  0  0
 22 24  1  0  0  0  0
 23 21  2  0  0  0  0
 24 20  2  0  0  0  0
 25 22  2  0  0  0  0
 25 23  1  0  0  0  0
 27 28  1  0  0  0  0
 28 33  1  0  0  0  0
 30 29  1  6  0  0  0
 30 34  1  0  0  0  0
 31 34  1  0  0  0  0
 32 31  1  0  0  0  0
 33 32  1  0  0  0  0
 33 30  1  0  0  0  0
M  END
>  <MODEL>
8

>  <REMARK>
 VINA RESULT:     -10.1      2.754      7.211
  Name = 
  4 active torsions:
  status: ('A' for Active; 'I' for Inactive)
    1  A    between atoms: C_3  and  S_13
    2  A    between atoms: C_3  and  N_29
    3  A    between atoms: C_12  and  C_28
    4  A    between atoms: S_13  and  N_33
                            x       y       z     vdW  Elec       q    Type
                         _______ _______ _______ _____ _____    ______ ____

>  <TORSDO>
F 4

$$$$
=
 OpenBabel10272400063D

 34 39  0  0  1  0  0  0  0  0999 V2000
  188.7160  177.3290  145.9170 C   0  0  0  0  0  0  0  0  0  0  0  0
  186.7440  178.5440  146.7030 C   0  0  0  0  0  0  0  0  0  0  0  0
  187.1330  178.0660  144.1860 C   0  0  0  0  0  0  0  0  0  0  0  0
  185.6160  178.6580  142.3680 C   0  0  0  0  0  0  0  0  0  0  0  0
  187.9800  177.3060  148.3180 C   0  0  0  0  0  3  0  0  0  0  0  0
  186.9270  178.0010  148.0130 N   0  0  0  0  0  0  0  0  0  0  0  0
  184.6440  178.3430  144.6160 C   0  0  0  0  0  3  0  0  0  0  0  0
  187.5010  177.9570  145.5670 C   0  0  0  0  0  0  0  0  0  0  0  0
  183.4140  178.5460  144.1540 C   0  0  0  0  0  3  0  0  0  0  0  0
  184.2920  179.1530  141.8570 C   0  0  0  0  0  3  0  0  0  0  0  0
  189.1210  177.1290  147.3530 C   0  0  0  0  0  2  0  0  0  0  0  0
  188.1190  177.7630  143.1980 C   0  0  1  0  0  3  0  0  0  0  0  0
  189.6390  176.9970  144.9330 C   0  0  0  0  0  3  0  0  0  0  0  0
  186.0350  179.5740  146.5600 O   0  0  0  0  0  0  0  0  0  0  0  0
  186.6180  178.4720  141.4780 N   0  0  0  0  0  0  0  0  0  0  0  0
  187.8420  178.0000  141.8280 C   0  0  0  0  0  0  0  0  0  0  0  0
  183.1910  178.8570  142.7730 N   0  0  0  0  0  0  0  0  0  0  0  0
  185.8290  178.4100  143.7360 C   0  0  0  0  0  0  0  0  0  0  0  0
  189.3530  177.2360  143.5970 C   0  0  0  0  0  3  0  0  0  0  0  0
  189.5150  178.1970  138.4370 C   0  0  0  0  0  0  0  0  0  0  0  0
  190.5960  177.3270  138.5950 C   0  0  0  0  0  3  0  0  0  0  0  0
  188.8240  177.7750  140.7330 C   0  0  0  0  0  0  0  0  0  0  0  0
  190.7900  176.6720  139.8130 C   0  0  0  0  0  3  0  0  0  0  0  0
  188.6320  178.4150  139.4970 C   0  0  0  0  0  3  0  0  0  0  0  0
  189.9060  176.8920  140.8730 C   0  0  0  0  0  3  0  0  0  0  0  0
  189.3200  178.8270  137.2530 F   0  0  0  0  0  0  0  0  0  0  0  0
  181.8300  178.9640  142.2760 C   0  0  0  0  0  2  0  0  0  0  0  0
  181.6590  178.0630  140.7050 S   0  0  0  0  0  0  0  0  0  0  0  0
  179.9820  181.1210  140.1490 N   0  0  0  0  0  1  0  0  0  0  0  0
  180.3610  179.9160  139.4330 C   0  0  2  0  0  3  0  0  0  0  0  0
  181.3950  179.3220  137.3850 C   0  0  0  0  0  2  0  0  0  0  0  0
  182.4060  179.2350  138.5070 C   0  0  0  0  0  2  0  0  0  0  0  0
  181.7350  179.5560  139.7640 N   0  0  0  0  0  0  0  0  0  0  0  0
  180.2860  180.1620  137.9470 C   0  0  0  0  0  2  0  0  0  0  0  0
  1 11  1  0  0  0  0
  2  6  1  0  0  0  0
  3  8  1  0  0  0  0
  4 18  1  0  0  0  0
  6  5  2  0  0  0  0
  8  1  2  0  0  0  0
  8  2  1  0  0  0  0
  9  7  2  0  0  0  0
 10  4  2  0  0  0  0
 10 17  1  0  0  0  0
 11  5  1  0  0  0  0
 12 19  1  1  0  0  0
 12  3  1  0  0  0  0
 13  1  1  0  0  0  0
 14  2  2  0  0  0  0
 15 16  2  0  0  0  0
 15  4  1  0  0  0  0
 16 12  1  0  0  0  0
 17  9  1  0  0  0  0
 18  3  2  0  0  0  0
 18  7  1  0  0  0  0
 19 13  2  0  0  0  0
 20 21  2  0  0  0  0
 20 24  1  0  0  0  0
 21 23  1  0  0  0  0
 22 25  1  0  0  0  0
 22 16  1  0  0  0  0
 23 25  2  0  0  0  0
 24 22  2  0  0  0  0
 26 20  1  0  0  0  0
 27 17  1  0  0  0  0
 28 27  1  0  0  0  0
 30 33  1  0  0  0  0
 30 29  1  1  0  0  0
 31 34  1  0  0  0  0
 31 32  1  0  0  0  0
 32 33  1  0  0  0  0
 33 28  1  0  0  0  0
 34 30  1  0  0  0  0
M  END
>  <MODEL>
9

>  <REMARK>
 VINA RESULT:     -10.0      3.275      6.347
  Name = 
  4 active torsions:
  status: ('A' for Active; 'I' for Inactive)
    1  A    between atoms: C_3  and  S_13
    2  A    between atoms: C_3  and  N_29
    3  A    between atoms: C_12  and  C_28
    4  A    between atoms: S_13  and  N_33
                            x       y       z     vdW  Elec       q    Type
                         _______ _______ _______ _____ _____    ______ ____

>  <TORSDO>
F 4

$$$$
