=
 OpenBabel10272413223D

 32 37  0  0  1  0  0  0  0  0999 V2000
  191.0320  177.5960  144.6130 C   0  0  2  0  0  3  0  0  0  0  0  0
  186.9340  178.2010  143.2010 C   0  0  0  0  0  0  0  0  0  0  0  0
  188.5230  178.2310  138.6490 C   0  0  0  0  0  3  0  0  0  0  0  0
  187.2180  178.4040  138.1890 C   0  0  0  0  0  3  0  0  0  0  0  0
  184.4760  178.4910  143.6080 C   0  0  0  0  0  0  0  0  0  0  0  0
  183.2090  178.6620  143.0520 C   0  0  0  0  0  0  0  0  0  0  0  0
  188.6560  178.2650  145.0610 C   0  0  2  0  0  3  0  0  0  0  0  0
  189.4390  178.0080  142.7170 C   0  0  0  0  0  2  0  0  0  0  0  0
  181.6290  178.9280  141.3090 C   0  0  2  0  0  3  0  0  0  0  0  0
  191.4520  178.9160  144.5870 F   0  0  0  0  0  0  0  0  0  0  0  0
  188.7530  178.1380  139.9840 N   0  0  0  0  0  0  0  0  0  0  0  0
  187.9990  178.1060  142.2650 C   0  0  0  0  0  0  0  0  0  0  0  0
  187.7390  178.2090  140.8910 C   0  0  0  0  0  0  0  0  0  0  0  0
  185.3600  178.4740  141.3300 C   0  0  0  0  0  0  0  0  0  0  0  0
  180.8900  178.9990  142.6540 C   0  0  0  0  0  3  0  0  0  0  0  0
  190.0250  177.3850  146.9530 C   0  0  0  0  0  3  0  0  0  0  0  0
  189.5810  177.4800  144.1360 C   0  0  1  0  0  3  0  0  0  0  0  0
  181.9250  178.8040  143.7740 C   0  0  0  0  0  3  0  0  0  0  0  0
  188.8720  177.9040  146.5060 C   0  0  0  0  0  3  0  0  0  0  0  0
  191.1830  177.0390  146.0360 C   0  0  1  0  0  3  0  0  0  0  0  0
  186.2000  178.4780  139.0860 N   0  0  0  0  0  0  0  0  0  0  0  0
  186.4230  178.3860  140.4260 C   0  0  0  0  0  0  0  0  0  0  0  0
  184.0920  178.6460  140.8550 N   0  0  0  0  0  0  0  0  0  0  0  0
  187.2140  177.9820  144.6720 C   0  0  0  0  0  2  0  0  0  0  0  0
  184.5950  178.4410  144.9920 O   0  0  0  0  0  1  0  0  0  0  0  0
  181.1330  177.7280  140.5240 C   0  0  0  0  0  1  0  0  0  0  0  0
  185.5990  178.3840  142.7370 C   0  0  0  0  0  0  0  0  0  0  0  0
  183.0400  178.7290  141.7040 C   0  0  0  0  0  0  0  0  0  0  0  0
  191.5100  175.5420  146.0210 C   0  0  2  0  0  3  0  0  0  0  0  0
  192.4710  175.1380  147.1330 C   0  0  0  0  0  1  0  0  0  0  0  0
  192.0580  175.1270  144.6650 C   0  0  0  0  0  2  0  0  0  0  0  0
  192.6060  173.8450  144.7420 O   0  0  0  0  0  1  0  0  0  0  0  0
  1 10  1  1  0  0  0
  1 20  1  0  0  0  0
  2 24  1  0  0  0  0
  3 11  1  0  0  0  0
  4  3  2  0  0  0  0
  4 21  1  0  0  0  0
  5 25  1  0  0  0  0
  6  5  1  0  0  0  0
  6 18  1  0  0  0  0
  7 24  1  6  0  0  0
  7 19  1  0  0  0  0
  9 26  1  6  0  0  0
  9 28  1  0  0  0  0
  9 15  1  0  0  0  0
 11 13  2  0  0  0  0
 12  8  1  0  0  0  0
 12  2  2  0  0  0  0
 13 12  1  0  0  0  0
 14 27  1  0  0  0  0
 15 18  2  0  0  0  0
 17  8  1  6  0  0  0
 17  1  1  0  0  0  0
 17  7  1  0  0  0  0
 19 16  2  0  0  0  0
 20 29  1  6  0  0  0
 20 16  1  0  0  0  0
 21 22  2  0  0  0  0
 22 13  1  0  0  0  0
 22 14  1  0  0  0  0
 23 14  2  0  0  0  0
 23 28  1  0  0  0  0
 27  2  1  0  0  0  0
 27  5  2  0  0  0  0
 28  6  2  0  0  0  0
 29 30  1  1  0  0  0
 31 32  1  0  0  0  0
 31 29  1  0  0  0  0
M  END
>  <MODEL>
1

>  <REMARK>
 VINA RESULT:     -10.1      0.000      0.000
  Name = 
  2 active torsions:
  status: ('A' for Active; 'I' for Inactive)
    1  A    between atoms: C_1  and  C_10
    2  A    between atoms: C_10  and  C_24
                            x       y       z     vdW  Elec       q    Type
                         _______ _______ _______ _____ _____    ______ ____

>  <TORSDO>
F 2

$$$$
=
 OpenBabel10272413223D

 32 37  0  0  1  0  0  0  0  0999 V2000
  189.3810  177.3820  137.2410 C   0  0  2  0  0  3  0  0  0  0  0  0
  189.4050  177.4320  141.6170 C   0  0  0  0  0  0  0  0  0  0  0  0
  184.8540  179.0240  141.6090 C   0  0  0  0  0  3  0  0  0  0  0  0
  184.8460  179.0250  143.0030 C   0  0  0  0  0  3  0  0  0  0  0  0
  190.5330  177.0590  143.8250 C   0  0  0  0  0  0  0  0  0  0  0  0
  190.4280  177.0910  145.2150 C   0  0  0  0  0  0  0  0  0  0  0  0
  190.6460  177.3720  139.4070 C   0  0  2  0  0  3  0  0  0  0  0  0
  188.2240  177.9270  139.4020 C   0  0  0  0  0  2  0  0  0  0  0  0
  189.3610  177.4620  147.2950 C   0  0  2  0  0  3  0  0  0  0  0  0
  189.6670  178.7190  137.0220 F   0  0  0  0  0  0  0  0  0  0  0  0
  185.9730  178.6300  140.9480 N   0  0  0  0  0  0  0  0  0  0  0  0
  188.2360  177.8260  140.9100 C   0  0  0  0  0  0  0  0  0  0  0  0
  187.0930  178.2330  141.6130 C   0  0  0  0  0  0  0  0  0  0  0  0
  188.2220  177.8450  143.7340 C   0  0  0  0  0  0  0  0  0  0  0  0
  190.8040  177.0070  147.5600 C   0  0  0  0  0  3  0  0  0  0  0  0
  191.7080  176.3390  137.3990 C   0  0  0  0  0  3  0  0  0  0  0  0
  189.3040  177.0840  138.7410 C   0  0  1  0  0  3  0  0  0  0  0  0
  191.4770  176.7510  146.2020 C   0  0  0  0  0  3  0  0  0  0  0  0
  191.7830  176.6940  138.6900 C   0  0  0  0  0  3  0  0  0  0  0  0
  190.4520  176.5130  136.5670 C   0  0  1  0  0  3  0  0  0  0  0  0
  185.9600  178.6320  143.6760 N   0  0  0  0  0  0  0  0  0  0  0  0
  187.0850  178.2360  143.0200 C   0  0  0  0  0  0  0  0  0  0  0  0
  188.1900  177.8560  145.0990 N   0  0  0  0  0  0  0  0  0  0  0  0
  190.5930  176.8950  140.8490 C   0  0  0  0  0  2  0  0  0  0  0  0
  191.7410  176.6680  143.2580 O   0  0  0  0  0  1  0  0  0  0  0  0
  188.3970  176.4370  147.8650 C   0  0  0  0  0  1  0  0  0  0  0  0
  189.4050  177.4370  143.0420 C   0  0  0  0  0  0  0  0  0  0  0  0
  189.2720  177.4780  145.8200 C   0  0  0  0  0  0  0  0  0  0  0  0
  189.8680  175.1820  136.0770 C   0  0  2  0  0  3  0  0  0  0  0  0
  188.3440  175.1740  136.0760 C   0  0  0  0  0  1  0  0  0  0  0  0
  190.4090  174.0240  136.9010 C   0  0  0  0  0  2  0  0  0  0  0  0
  189.3550  173.2400  137.3740 O   0  0  0  0  0  1  0  0  0  0  0  0
  1 10  1  1  0  0  0
  1 17  1  0  0  0  0
  2 27  1  0  0  0  0
  3  4  1  0  0  0  0
  4 21  2  0  0  0  0
  5  6  1  0  0  0  0
  6 28  2  0  0  0  0
  6 18  1  0  0  0  0
  7 19  1  6  0  0  0
  7 24  1  0  0  0  0
  8 12  1  0  0  0  0
  9 15  1  0  0  0  0
  9 26  1  1  0  0  0
 11  3  2  0  0  0  0
 11 13  1  0  0  0  0
 12 13  1  0  0  0  0
 12  2  2  0  0  0  0
 13 22  2  0  0  0  0
 14 23  2  0  0  0  0
 16 19  2  0  0  0  0
 17  8  1  1  0  0  0
 17  7  1  0  0  0  0
 18 15  2  0  0  0  0
 20 29  1  1  0  0  0
 20  1  1  0  0  0  0
 20 16  1  0  0  0  0
 22 21  1  0  0  0  0
 22 14  1  0  0  0  0
 23 28  1  0  0  0  0
 24  2  1  0  0  0  0
 25  5  1  0  0  0  0
 27 14  1  0  0  0  0
 27  5  2  0  0  0  0
 28  9  1  0  0  0  0
 29 30  1  1  0  0  0
 29 31  1  0  0  0  0
 31 32  1  0  0  0  0
M  END
>  <MODEL>
2

>  <REMARK>
 VINA RESULT:     -10.1      3.108      7.210
  Name = 
  2 active torsions:
  status: ('A' for Active; 'I' for Inactive)
    1  A    between atoms: C_1  and  C_10
    2  A    between atoms: C_10  and  C_24
                            x       y       z     vdW  Elec       q    Type
                         _______ _______ _______ _____ _____    ______ ____

>  <TORSDO>
F 2

$$$$
=
 OpenBabel10272413223D

 32 37  0  0  1  0  0  0  0  0999 V2000
  182.3410  179.3340  138.1090 C   0  0  2  0  0  3  0  0  0  0  0  0
  185.3000  178.4420  141.2070 C   0  0  0  0  0  0  0  0  0  0  0  0
  188.7550  178.3030  137.8470 C   0  0  0  0  0  3  0  0  0  0  0  0
  189.7070  178.0370  138.8300 C   0  0  0  0  0  3  0  0  0  0  0  0
  185.9440  178.0350  143.5960 C   0  0  0  0  0  0  0  0  0  0  0  0
  186.9670  177.7700  144.5050 C   0  0  0  0  0  0  0  0  0  0  0  0
  182.8900  178.5540  140.4290 C   0  0  2  0  0  3  0  0  0  0  0  0
  184.7010  178.7530  138.7390 C   0  0  0  0  0  2  0  0  0  0  0  0
  189.1910  177.3420  145.1940 C   0  0  2  0  0  3  0  0  0  0  0  0
  182.1060  178.0400  137.6750 F   0  0  0  0  0  0  0  0  0  0  0  0
  187.4540  178.4660  138.2040 N   0  0  0  0  0  0  0  0  0  0  0  0
  185.7070  178.5550  139.8500 C   0  0  0  0  0  0  0  0  0  0  0  0
  187.0540  178.3780  139.5030 C   0  0  0  0  0  0  0  0  0  0  0  0
  187.6370  178.0010  141.8350 C   0  0  0  0  0  0  0  0  0  0  0  0
  188.2790  177.2890  146.4280 C   0  0  0  0  0  3  0  0  0  0  0  0
  180.6570  179.5910  140.0140 C   0  0  0  0  0  3  0  0  0  0  0  0
  183.3880  179.3490  139.2250 C   0  0  1  0  0  3  0  0  0  0  0  0
  186.8420  177.5900  145.9680 C   0  0  0  0  0  3  0  0  0  0  0  0
  181.5120  178.9890  140.8540 C   0  0  0  0  0  3  0  0  0  0  0  0
  181.0230  179.9590  138.5890 C   0  0  1  0  0  3  0  0  0  0  0  0
  189.3170  177.9460  140.1280 N   0  0  0  0  0  0  0  0  0  0  0  0
  188.0160  178.1090  140.4940 C   0  0  0  0  0  0  0  0  0  0  0  0
  188.5880  177.7390  142.7790 N   0  0  0  0  0  0  0  0  0  0  0  0
  183.8640  178.7410  141.5810 C   0  0  0  0  0  2  0  0  0  0  0  0
  184.6430  178.1520  144.0740 O   0  0  0  0  0  1  0  0  0  0  0  0
  190.1860  178.4770  145.3500 C   0  0  0  0  0  1  0  0  0  0  0  0
  186.2680  178.1660  142.2150 C   0  0  0  0  0  0  0  0  0  0  0  0
  188.2550  177.6360  144.0870 C   0  0  0  0  0  0  0  0  0  0  0  0
  180.9940  181.4710  138.3340 C   0  0  2  0  0  3  0  0  0  0  0  0
  179.9820  182.1960  139.2130 C   0  0  0  0  0  1  0  0  0  0  0  0
  180.7300  181.7610  136.8640 C   0  0  0  0  0  2  0  0  0  0  0  0
  180.8810  183.1260  136.6120 O   0  0  0  0  0  1  0  0  0  0  0  0
  1 10  1  1  0  0  0
  1 20  1  0  0  0  0
  1 17  1  0  0  0  0
  2 24  1  0  0  0  0
  2 27  1  0  0  0  0
  3 11  2  0  0  0  0
  3  4  1  0  0  0  0
  4 21  2  0  0  0  0
  5 25  1  0  0  0  0
  5  6  1  0  0  0  0
  6 18  1  0  0  0  0
  7 19  1  1  0  0  0
  7 24  1  0  0  0  0
  8 12  1  0  0  0  0
  9 26  1  1  0  0  0
  9 15  1  0  0  0  0
 11 13  1  0  0  0  0
 12  2  2  0  0  0  0
 13 12  1  0  0  0  0
 13 22  2  0  0  0  0
 14 27  1  0  0  0  0
 14 23  2  0  0  0  0
 16 19  2  0  0  0  0
 17  8  1  6  0  0  0
 17  7  1  0  0  0  0
 18 15  2  0  0  0  0
 20 29  1  1  0  0  0
 20 16  1  0  0  0  0
 21 22  1  0  0  0  0
 22 14  1  0  0  0  0
 23 28  1  0  0  0  0
 27  5  2  0  0  0  0
 28  6  2  0  0  0  0
 28  9  1  0  0  0  0
 29 30  1  1  0  0  0
 31 29  1  0  0  0  0
 32 31  1  0  0  0  0
M  END
>  <MODEL>
3

>  <REMARK>
 VINA RESULT:      -9.4      3.385      8.374
  Name = 
  2 active torsions:
  status: ('A' for Active; 'I' for Inactive)
    1  A    between atoms: C_1  and  C_10
    2  A    between atoms: C_10  and  C_24
                            x       y       z     vdW  Elec       q    Type
                         _______ _______ _______ _____ _____    ______ ____

>  <TORSDO>
F 2

$$$$
=
 OpenBabel10272413223D

 32 37  0  0  1  0  0  0  0  0999 V2000
  181.5340  178.9900  140.6700 C   0  0  2  0  0  3  0  0  0  0  0  0
  185.7320  178.3400  141.7230 C   0  0  0  0  0  0  0  0  0  0  0  0
  184.5530  178.4030  146.3980 C   0  0  0  0  0  3  0  0  0  0  0  0
  185.8850  178.1770  146.7420 C   0  0  0  0  0  3  0  0  0  0  0  0
  188.1360  177.9890  141.1050 C   0  0  0  0  0  0  0  0  0  0  0  0
  189.4390  177.7610  141.5470 C   0  0  0  0  0  0  0  0  0  0  0  0
  183.9620  179.0280  140.0430 C   0  0  2  0  0  3  0  0  0  0  0  0
  183.3140  178.7900  142.4290 C   0  0  0  0  0  2  0  0  0  0  0  0
  191.1550  177.4380  143.1460 C   0  0  2  0  0  3  0  0  0  0  0  0
  181.4990  180.3670  140.8190 F   0  0  0  0  0  0  0  0  0  0  0  0
  184.2080  178.4930  145.0870 N   0  0  0  0  0  0  0  0  0  0  0  0
  184.7540  178.4560  142.7480 C   0  0  0  0  0  0  0  0  0  0  0  0
  185.1330  178.3650  144.0950 C   0  0  0  0  0  0  0  0  0  0  0  0
  187.4530  178.0140  143.4500 C   0  0  0  0  0  0  0  0  0  0  0  0
  191.7830  177.4230  141.7440 C   0  0  0  0  0  3  0  0  0  0  0  0
  182.2680  178.7180  138.2370 C   0  0  0  0  0  3  0  0  0  0  0  0
  182.9260  178.4460  140.9990 C   0  0  1  0  0  3  0  0  0  0  0  0
  190.6540  177.6130  140.7170 C   0  0  0  0  0  3  0  0  0  0  0  0
  183.5490  178.8660  138.6040 C   0  0  0  0  0  3  0  0  0  0  0  0
  181.1290  178.6210  139.2350 C   0  0  1  0  0  3  0  0  0  0  0  0
  186.8150  178.0510  145.7590 N   0  0  0  0  0  0  0  0  0  0  0  0
  186.4770  178.1390  144.4430 C   0  0  0  0  0  0  0  0  0  0  0  0
  188.7500  177.7950  143.8130 N   0  0  0  0  0  0  0  0  0  0  0  0
  185.2940  178.3330  140.2740 C   0  0  0  0  0  2  0  0  0  0  0  0
  187.9060  178.0920  139.7380 O   0  0  0  0  0  1  0  0  0  0  0  0
  191.3550  176.0850  143.8030 C   0  0  0  0  0  1  0  0  0  0  0  0
  187.0950  178.1140  142.0700 C   0  0  0  0  0  0  0  0  0  0  0  0
  189.7180  177.6630  142.8750 C   0  0  0  0  0  0  0  0  0  0  0  0
  180.4030  177.2720  139.1870 C   0  0  2  0  0  3  0  0  0  0  0  0
  179.9880  176.7770  140.5670 C   0  0  0  0  0  1  0  0  0  0  0  0
  181.2550  176.2300  138.4790 C   0  0  0  0  0  2  0  0  0  0  0  0
  180.9000  174.9500  138.9090 O   0  0  0  0  0  1  0  0  0  0  0  0
  1 10  1  6  0  0  0
  1 17  1  0  0  0  0
  2 27  2  0  0  0  0
  2 12  1  0  0  0  0
  3  4  1  0  0  0  0
  5  6  2  0  0  0  0
  5 27  1  0  0  0  0
  6 28  1  0  0  0  0
  7 19  1  6  0  0  0
  7 24  1  0  0  0  0
  7 17  1  0  0  0  0
  8 12  1  0  0  0  0
  9 26  1  6  0  0  0
 11  3  2  0  0  0  0
 12 13  2  0  0  0  0
 13 22  1  0  0  0  0
 13 11  1  0  0  0  0
 14 23  1  0  0  0  0
 14 22  2  0  0  0  0
 15  9  1  0  0  0  0
 16 19  2  0  0  0  0
 16 20  1  0  0  0  0
 17  8  1  1  0  0  0
 18  6  1  0  0  0  0
 18 15  2  0  0  0  0
 20 29  1  1  0  0  0
 20  1  1  0  0  0  0
 21  4  2  0  0  0  0
 22 21  1  0  0  0  0
 24  2  1  0  0  0  0
 25  5  1  0  0  0  0
 27 14  1  0  0  0  0
 28  9  1  0  0  0  0
 28 23  2  0  0  0  0
 29 30  1  1  0  0  0
 31 32  1  0  0  0  0
 31 29  1  0  0  0  0
M  END
>  <MODEL>
4

>  <REMARK>
 VINA RESULT:      -8.5      3.396      8.614
  Name = 
  2 active torsions:
  status: ('A' for Active; 'I' for Inactive)
    1  A    between atoms: C_1  and  C_10
    2  A    between atoms: C_10  and  C_24
                            x       y       z     vdW  Elec       q    Type
                         _______ _______ _______ _____ _____    ______ ____

>  <TORSDO>
F 2

$$$$
=
 OpenBabel10272413223D

 32 37  0  0  1  0  0  0  0  0999 V2000
  184.9520  178.6260  138.5550 C   0  0  2  0  0  3  0  0  0  0  0  0
  187.3130  177.9830  142.1840 C   0  0  0  0  0  0  0  0  0  0  0  0
  183.4380  178.9990  144.8670 C   0  0  0  0  0  3  0  0  0  0  0  0
  184.1770  178.7780  146.0270 C   0  0  0  0  0  3  0  0  0  0  0  0
  189.4530  177.4010  143.3530 C   0  0  0  0  0  0  0  0  0  0  0  0
  190.1070  177.1990  144.5680 C   0  0  0  0  0  0  0  0  0  0  0  0
  187.1800  178.4240  139.6900 C   0  0  2  0  0  3  0  0  0  0  0  0
  185.1220  178.6790  141.0590 C   0  0  0  0  0  2  0  0  0  0  0  0
  190.3130  177.1030  146.9240 C   0  0  2  0  0  3  0  0  0  0  0  0
  185.0550  180.0060  138.4890 F   0  0  0  0  0  0  0  0  0  0  0  0
  184.0360  178.8530  143.6560 N   0  0  0  0  0  0  0  0  0  0  0  0
  185.9410  178.3420  142.2850 C   0  0  0  0  0  0  0  0  0  0  0  0
  185.3450  178.4920  143.5450 C   0  0  0  0  0  0  0  0  0  0  0  0
  187.4390  177.9100  144.6390 C   0  0  0  0  0  0  0  0  0  0  0  0
  191.6810  176.7890  146.3010 C   0  0  0  0  0  3  0  0  0  0  0  0
  187.0200  177.8580  137.2650 C   0  0  0  0  0  3  0  0  0  0  0  0
  185.6940  178.0870  139.7810 C   0  0  1  0  0  3  0  0  0  0  0  0
  191.5260  176.8340  144.7720 C   0  0  0  0  0  3  0  0  0  0  0  0
  187.7680  178.0090  138.3680 C   0  0  0  0  0  3  0  0  0  0  0  0
  185.5100  178.0100  137.2640 C   0  0  1  0  0  3  0  0  0  0  0  0
  185.4840  178.4190  145.9270 N   0  0  0  0  0  0  0  0  0  0  0  0
  186.0910  178.2700  144.7170 C   0  0  0  0  0  0  0  0  0  0  0  0
  188.1420  177.7000  145.7900 N   0  0  0  0  0  0  0  0  0  0  0  0
  187.9150  177.7200  140.8200 C   0  0  0  0  0  2  0  0  0  0  0  0
  190.1760  177.2520  142.1750 O   0  0  0  0  0  1  0  0  0  0  0  0
  189.8200  175.8930  147.6960 C   0  0  0  0  0  1  0  0  0  0  0  0
  188.0740  177.7610  143.3670 C   0  0  0  0  0  0  0  0  0  0  0  0
  189.4470  177.3430  145.7490 C   0  0  0  0  0  0  0  0  0  0  0  0
  184.7770  176.7140  136.8990 C   0  0  2  0  0  3  0  0  0  0  0  0
  185.3820  176.0190  135.6850 C   0  0  0  0  0  1  0  0  0  0  0  0
  183.2960  176.9810  136.6790 C   0  0  0  0  0  2  0  0  0  0  0  0
  182.5350  176.1950  137.5460 O   0  0  0  0  0  1  0  0  0  0  0  0
  1 10  1  6  0  0  0
  1 17  1  0  0  0  0
  2 12  2  0  0  0  0
  2 27  1  0  0  0  0
  3  4  1  0  0  0  0
  5 27  2  0  0  0  0
  5  6  1  0  0  0  0
  6 18  1  0  0  0  0
  6 28  2  0  0  0  0
  7 19  1  6  0  0  0
  7 17  1  0  0  0  0
  7 24  1  0  0  0  0
  8 12  1  0  0  0  0
  9 26  1  6  0  0  0
 11  3  2  0  0  0  0
 12 13  1  0  0  0  0
 13 11  1  0  0  0  0
 13 22  2  0  0  0  0
 14 22  1  0  0  0  0
 14 23  2  0  0  0  0
 15  9  1  0  0  0  0
 16 19  2  0  0  0  0
 17  8  1  1  0  0  0
 18 15  2  0  0  0  0
 20 29  1  1  0  0  0
 20 16  1  0  0  0  0
 20  1  1  0  0  0  0
 21  4  2  0  0  0  0
 22 21  1  0  0  0  0
 24  2  1  0  0  0  0
 25  5  1  0  0  0  0
 27 14  1  0  0  0  0
 28 23  1  0  0  0  0
 28  9  1  0  0  0  0
 29 30  1  6  0  0  0
 31 29  1  0  0  0  0
 31 32  1  0  0  0  0
M  END
>  <MODEL>
5

>  <REMARK>
 VINA RESULT:      -8.4      3.147      8.145
  Name = 
  2 active torsions:
  status: ('A' for Active; 'I' for Inactive)
    1  A    between atoms: C_1  and  C_10
    2  A    between atoms: C_10  and  C_24
                            x       y       z     vdW  Elec       q    Type
                         _______ _______ _______ _____ _____    ______ ____

>  <TORSDO>
F 2

$$$$
=
 OpenBabel10272413223D

 32 37  0  0  1  0  0  0  0  0999 V2000
  189.4460  177.3880  137.1630 C   0  0  2  0  0  3  0  0  0  0  0  0
  188.1890  177.8130  141.3330 C   0  0  0  0  0  0  0  0  0  0  0  0
  183.7810  179.0920  139.8590 C   0  0  0  0  0  3  0  0  0  0  0  0
  183.3670  179.2120  141.1840 C   0  0  0  0  0  3  0  0  0  0  0  0
  188.6370  177.7050  143.7980 C   0  0  0  0  0  0  0  0  0  0  0  0
  188.1290  177.8480  145.0890 C   0  0  0  0  0  0  0  0  0  0  0  0
  190.0230  177.6470  139.5900 C   0  0  2  0  0  3  0  0  0  0  0  0
  187.6890  178.0380  138.8340 C   0  0  0  0  0  2  0  0  0  0  0  0
  186.4880  178.3230  146.7270 C   0  0  2  0  0  3  0  0  0  0  0  0
  189.7320  178.7180  136.9010 F   0  0  0  0  0  0  0  0  0  0  0  0
  185.0590  178.7190  139.5900 N   0  0  0  0  0  0  0  0  0  0  0  0
  187.2640  178.0670  140.2850 C   0  0  0  0  0  0  0  0  0  0  0  0
  185.9510  178.4560  140.5850 C   0  0  0  0  0  0  0  0  0  0  0  0
  186.4250  178.3250  142.9680 C   0  0  0  0  0  0  0  0  0  0  0  0
  187.8070  177.9900  147.4390 C   0  0  0  0  0  3  0  0  0  0  0  0
  191.6650  176.5190  138.0860 C   0  0  0  0  0  3  0  0  0  0  0  0
  188.9460  177.2150  138.5990 C   0  0  1  0  0  3  0  0  0  0  0  0
  188.8570  177.6630  146.3640 C   0  0  0  0  0  3  0  0  0  0  0  0
  191.3450  176.9870  139.3010 C   0  0  0  0  0  3  0  0  0  0  0  0
  190.7000  176.5380  136.9150 C   0  0  1  0  0  3  0  0  0  0  0  0
  184.2490  178.9530  142.1850 N   0  0  0  0  0  0  0  0  0  0  0  0
  185.5320  178.5780  141.9230 C   0  0  0  0  0  0  0  0  0  0  0  0
  185.9950  178.4510  144.2580 N   0  0  0  0  0  0  0  0  0  0  0  0
  189.5700  177.2920  140.9970 C   0  0  0  0  0  2  0  0  0  0  0  0
  189.9720  177.3480  143.6440 O   0  0  0  0  0  1  0  0  0  0  0  0
  185.4410  177.2890  147.0960 C   0  0  0  0  0  1  0  0  0  0  0  0
  187.7730  177.9390  142.6900 C   0  0  0  0  0  0  0  0  0  0  0  0
  186.8330  178.2070  145.2940 C   0  0  0  0  0  0  0  0  0  0  0  0
  190.3370  175.1350  136.4150 C   0  0  2  0  0  3  0  0  0  0  0  0
  191.2590  174.0550  136.9710 C   0  0  0  0  0  1  0  0  0  0  0  0
  190.3230  175.0950  134.8950 C   0  0  0  0  0  2  0  0  0  0  0  0
  191.0840  176.1470  134.3820 O   0  0  0  0  0  1  0  0  0  0  0  0
  1 10  1  1  0  0  0
  1 17  1  0  0  0  0
  2 27  1  0  0  0  0
  3  4  1  0  0  0  0
  4 21  2  0  0  0  0
  5  6  1  0  0  0  0
  6 28  2  0  0  0  0
  6 18  1  0  0  0  0
  7 19  1  6  0  0  0
  7 24  1  0  0  0  0
  8 12  1  0  0  0  0
  9 26  1  1  0  0  0
  9 15  1  0  0  0  0
 11  3  2  0  0  0  0
 11 13  1  0  0  0  0
 12 13  1  0  0  0  0
 12  2  2  0  0  0  0
 13 22  2  0  0  0  0
 14 23  2  0  0  0  0
 16 19  2  0  0  0  0
 17  8  1  6  0  0  0
 17  7  1  0  0  0  0
 18 15  2  0  0  0  0
 20 29  1  1  0  0  0
 20  1  1  0  0  0  0
 20 16  1  0  0  0  0
 22 21  1  0  0  0  0
 22 14  1  0  0  0  0
 23 28  1  0  0  0  0
 24  2  1  0  0  0  0
 25  5  1  0  0  0  0
 27 14  1  0  0  0  0
 27  5  2  0  0  0  0
 28  9  1  0  0  0  0
 29 30  1  6  0  0  0
 31 29  1  0  0  0  0
 32 31  1  0  0  0  0
M  END
>  <MODEL>
6

>  <REMARK>
 VINA RESULT:      -8.3      3.359      6.436
  Name = 
  2 active torsions:
  status: ('A' for Active; 'I' for Inactive)
    1  A    between atoms: C_1  and  C_10
    2  A    between atoms: C_10  and  C_24
                            x       y       z     vdW  Elec       q    Type
                         _______ _______ _______ _____ _____    ______ ____

>  <TORSDO>
F 2

$$$$
=
 OpenBabel10272413223D

 32 37  0  0  1  0  0  0  0  0999 V2000
  191.4950  177.8320  144.1440 C   0  0  2  0  0  3  0  0  0  0  0  0
  189.5520  177.4890  140.2370 C   0  0  0  0  0  0  0  0  0  0  0  0
  193.7670  176.2160  138.2700 C   0  0  0  0  0  3  0  0  0  0  0  0
  193.1520  176.0850  137.0250 C   0  0  0  0  0  3  0  0  0  0  0  0
  187.5360  177.6210  138.7520 C   0  0  0  0  0  0  0  0  0  0  0  0
  187.0120  177.4610  137.4700 C   0  0  0  0  0  0  0  0  0  0  0  0
  189.5660  178.3430  142.6240 C   0  0  2  0  0  3  0  0  0  0  0  0
  191.6700  177.4270  141.6720 C   0  0  0  0  0  2  0  0  0  0  0  0
  187.0720  176.9710  135.1550 C   0  0  2  0  0  3  0  0  0  0  0  0
  192.0110  179.1090  144.0010 F   0  0  0  0  0  0  0  0  0  0  0  0
  193.0250  176.5870  139.3450 N   0  0  0  0  0  0  0  0  0  0  0  0
  190.9410  177.2140  140.3640 C   0  0  0  0  0  0  0  0  0  0  0  0
  191.6890  176.8360  139.2400 C   0  0  0  0  0  0  0  0  0  0  0  0
  189.7040  176.9640  137.8380 C   0  0  0  0  0  0  0  0  0  0  0  0
  185.6430  177.3920  135.5290 C   0  0  0  0  0  3  0  0  0  0  0  0
  189.1630  178.2810  145.0860 C   0  0  0  0  0  3  0  0  0  0  0  0
  190.7440  177.4080  142.8780 C   0  0  1  0  0  3  0  0  0  0  0  0
  185.6150  177.6860  137.0380 C   0  0  0  0  0  3  0  0  0  0  0  0
  188.7000  178.4970  143.8460 C   0  0  0  0  0  3  0  0  0  0  0  0
  190.5690  177.7870  145.3670 C   0  0  1  0  0  3  0  0  0  0  0  0
  191.8210  176.3330  136.9100 N   0  0  0  0  0  0  0  0  0  0  0  0
  191.0700  176.7060  137.9830 C   0  0  0  0  0  0  0  0  0  0  0  0
  189.1260  176.8310  136.6090 N   0  0  0  0  0  0  0  0  0  0  0  0
  188.7370  177.7910  141.4760 C   0  0  0  0  0  2  0  0  0  0  0  0
  186.6860  178.0360  139.7710 O   0  0  0  0  0  1  0  0  0  0  0  0
  187.0630  175.5340  134.6670 C   0  0  0  0  0  1  0  0  0  0  0  0
  188.9210  177.3620  138.9660 C   0  0  0  0  0  0  0  0  0  0  0  0
  187.8040  177.0680  136.4360 C   0  0  0  0  0  0  0  0  0  0  0  0
  190.5980  176.4120  146.0430 C   0  0  2  0  0  3  0  0  0  0  0  0
  189.6240  176.3100  147.2110 C   0  0  0  0  0  1  0  0  0  0  0  0
  192.0090  176.0650  146.4930 C   0  0  0  0  0  2  0  0  0  0  0  0
  192.2620  176.6250  147.7470 O   0  0  0  0  0  1  0  0  0  0  0  0
  1 10  1  6  0  0  0
  1 20  1  0  0  0  0
  2 12  1  0  0  0  0
  2 24  1  0  0  0  0
  3 11  2  0  0  0  0
  4  3  1  0  0  0  0
  5 27  1  0  0  0  0
  5 25  1  0  0  0  0
  6  5  2  0  0  0  0
  7 24  1  6  0  0  0
  7 17  1  0  0  0  0
  7 19  1  0  0  0  0
  9 26  1  1  0  0  0
  9 15  1  0  0  0  0
  9 28  1  0  0  0  0
 12  8  1  0  0  0  0
 13 11  1  0  0  0  0
 13 12  2  0  0  0  0
 14 22  2  0  0  0  0
 14 27  1  0  0  0  0
 15 18  2  0  0  0  0
 16 20  1  0  0  0  0
 17  8  1  6  0  0  0
 17  1  1  0  0  0  0
 18  6  1  0  0  0  0
 19 16  2  0  0  0  0
 20 29  1  6  0  0  0
 21  4  2  0  0  0  0
 21 22  1  0  0  0  0
 22 13  1  0  0  0  0
 23 14  1  0  0  0  0
 27  2  2  0  0  0  0
 28 23  2  0  0  0  0
 28  6  1  0  0  0  0
 29 31  1  0  0  0  0
 29 30  1  1  0  0  0
 31 32  1  0  0  0  0
M  END
>  <MODEL>
7

>  <REMARK>
 VINA RESULT:      -8.3      3.652      5.140
  Name = 
  2 active torsions:
  status: ('A' for Active; 'I' for Inactive)
    1  A    between atoms: C_1  and  C_10
    2  A    between atoms: C_10  and  C_24
                            x       y       z     vdW  Elec       q    Type
                         _______ _______ _______ _____ _____    ______ ____

>  <TORSDO>
F 2

$$$$
=
 OpenBabel10272413223D

 32 37  0  0  1  0  0  0  0  0999 V2000
  191.6810  177.3730  144.6990 C   0  0  2  0  0  3  0  0  0  0  0  0
  188.6430  177.8470  141.5840 C   0  0  0  0  0  0  0  0  0  0  0  0
  191.8940  176.6100  138.2450 C   0  0  0  0  0  3  0  0  0  0  0  0
  190.9270  176.7410  137.2490 C   0  0  0  0  0  3  0  0  0  0  0  0
  186.3100  178.3830  140.8360 C   0  0  0  0  0  0  0  0  0  0  0  0
  185.4150  178.4830  139.7720 C   0  0  0  0  0  0  0  0  0  0  0  0
  189.4680  178.2800  143.9420 C   0  0  2  0  0  3  0  0  0  0  0  0
  191.0650  177.3820  142.2640 C   0  0  0  0  0  2  0  0  0  0  0  0
  184.7260  178.3900  137.5090 C   0  0  2  0  0  3  0  0  0  0  0  0
  192.2870  178.6130  144.5810 F   0  0  0  0  0  0  0  0  0  0  0  0
  191.5550  176.8490  139.5390 N   0  0  0  0  0  0  0  0  0  0  0  0
  189.9620  177.4500  141.2330 C   0  0  0  0  0  0  0  0  0  0  0  0
  190.2900  177.2130  139.8910 C   0  0  0  0  0  0  0  0  0  0  0  0
  188.0120  177.7280  139.2100 C   0  0  0  0  0  0  0  0  0  0  0  0
  183.5350  178.8490  138.3640 C   0  0  0  0  0  3  0  0  0  0  0  0
  189.8070  177.8310  146.3740 C   0  0  0  0  0  3  0  0  0  0  0  0
  190.5430  177.2280  143.6850 C   0  0  1  0  0  3  0  0  0  0  0  0
  183.9920  178.8840  139.8320 C   0  0  0  0  0  3  0  0  0  0  0  0
  189.0290  178.2890  145.3820 C   0  0  0  0  0  3  0  0  0  0  0  0
  191.1610  177.1920  146.1320 C   0  0  1  0  0  3  0  0  0  0  0  0
  189.6630  177.1050  137.5900 N   0  0  0  0  0  0  0  0  0  0  0  0
  189.3160  177.3450  138.8840 C   0  0  0  0  0  0  0  0  0  0  0  0
  187.0840  177.8500  138.2160 N   0  0  0  0  0  0  0  0  0  0  0  0
  188.2750  177.9960  143.0450 C   0  0  0  0  0  2  0  0  0  0  0  0
  185.8590  178.6820  142.1170 O   0  0  0  0  0  1  0  0  0  0  0  0
  184.3940  177.0620  136.8550 C   0  0  0  0  0  1  0  0  0  0  0  0
  187.6530  177.9870  140.5690 C   0  0  0  0  0  0  0  0  0  0  0  0
  185.8100  178.2120  138.4980 C   0  0  0  0  0  0  0  0  0  0  0  0
  191.2170  175.7230  146.5680 C   0  0  2  0  0  3  0  0  0  0  0  0
  190.3150  175.4280  147.7600 C   0  0  0  0  0  1  0  0  0  0  0  0
  192.6490  175.3070  146.8660 C   0  0  0  0  0  2  0  0  0  0  0  0
  193.0930  175.9240  148.0370 O   0  0  0  0  0  1  0  0  0  0  0  0
  1 10  1  1  0  0  0
  1 20  1  0  0  0  0
  2 24  1  0  0  0  0
  3 11  2  0  0  0  0
  4 21  2  0  0  0  0
  4  3  1  0  0  0  0
  5 25  1  0  0  0  0
  6 18  1  0  0  0  0
  6  5  2  0  0  0  0
  7 24  1  6  0  0  0
  7 19  1  0  0  0  0
  9 26  1  1  0  0  0
  9 15  1  0  0  0  0
  9 28  1  0  0  0  0
 11 13  1  0  0  0  0
 12  2  1  0  0  0  0
 12  8  1  0  0  0  0
 13 12  2  0  0  0  0
 14 27  1  0  0  0  0
 15 18  2  0  0  0  0
 17  8  1  6  0  0  0
 17  7  1  0  0  0  0
 17  1  1  0  0  0  0
 19 16  2  0  0  0  0
 20 16  1  0  0  0  0
 20 29  1  6  0  0  0
 21 22  1  0  0  0  0
 22 14  2  0  0  0  0
 22 13  1  0  0  0  0
 23 28  2  0  0  0  0
 23 14  1  0  0  0  0
 27  5  1  0  0  0  0
 27  2  2  0  0  0  0
 28  6  1  0  0  0  0
 29 31  1  0  0  0  0
 29 30  1  1  0  0  0
 31 32  1  0  0  0  0
M  END
>  <MODEL>
8

>  <REMARK>
 VINA RESULT:      -7.5      2.214      3.138
  Name = 
  2 active torsions:
  status: ('A' for Active; 'I' for Inactive)
    1  A    between atoms: C_1  and  C_10
    2  A    between atoms: C_10  and  C_24
                            x       y       z     vdW  Elec       q    Type
                         _______ _______ _______ _____ _____    ______ ____

>  <TORSDO>
F 2

$$$$
