=
 OpenBabel10272400413D

 25 27  0  0  1  0  0  0  0  0999 V2000
  187.3400  176.8840  144.4920 C   0  0  2  0  0  3  0  0  0  0  0  0
  188.3510  176.2660  143.5210 C   0  0  0  0  0  2  0  0  0  0  0  0
  189.0110  178.1380  146.0040 C   0  0  0  0  0  2  0  0  0  0  0  0
  186.6930  178.2060  144.0270 C   0  0  2  0  0  3  0  0  0  0  0  0
  184.7090  179.5350  144.5640 C   0  0  0  0  0  2  0  0  0  0  0  0
  190.2760  177.8170  145.2240 C   0  0  0  0  0  2  0  0  0  0  0  0
  185.6160  178.0400  146.3290 C   0  0  0  0  0  2  0  0  0  0  0  0
  185.9820  178.9620  145.1610 C   0  0  1  0  0  3  0  0  0  0  0  0
  190.7640  177.7210  142.7900 C   0  0  0  0  0  2  0  0  0  0  0  0
  191.2150  179.8000  144.0650 C   0  0  0  0  0  1  0  0  0  0  0  0
  188.0700  176.5780  142.1890 O   0  0  0  0  0  0  0  0  0  0  0  0
  184.6890  179.1400  143.1000 C   0  0  0  0  0  2  0  0  0  0  0  0
  187.9480  177.0330  145.9000 C   0  0  1  0  0  3  0  0  0  0  0  0
  186.8470  177.3390  146.9250 C   0  0  0  0  0  2  0  0  0  0  0  0
  188.9380  178.7750  141.0700 O   0  0  0  0  0  0  0  0  0  0  0  0
  185.6310  177.9660  142.9750 C   0  0  0  0  0  2  0  0  0  0  0  0
  189.4140  177.4370  141.5870 P   0  0  1  0  0  0  0  0  0  0  0  0
  190.2910  178.6090  143.9260 C   0  0  2  0  0  3  0  0  0  0  0  0
  190.1090  176.5020  140.1920 C   0  0  0  0  0  2  0  0  0  0  0  0
  189.4210  176.8570  138.9590 N   0  0  0  0  0  2  0  0  0  0  0  0
  190.1140  177.0690  137.7280 C   0  0  0  0  0  0  0  0  0  0  0  0
  191.3520  176.8550  137.6420 O   0  0  0  0  0  0  0  0  0  0  0  0
  189.3710  177.5760  136.5400 C   0  0  0  0  0  2  0  0  0  0  0  0
  188.9550  179.7550  137.4180 O   0  0  0  0  0  1  0  0  0  0  0  0
  188.3310  178.5970  136.9580 C   0  0  0  0  0  2  0  0  0  0  0  0
  1  2  1  6  0  0  0
  1 13  1  0  0  0  0
  4 16  1  6  0  0  0
  4  1  1  0  0  0  0
  4  8  1  0  0  0  0
  6  3  1  0  0  0  0
  7 14  1  0  0  0  0
  8  5  1  6  0  0  0
  8  7  1  0  0  0  0
  9 18  1  0  0  0  0
 11  2  1  0  0  0  0
 12  5  1  0  0  0  0
 13  3  1  6  0  0  0
 13 14  1  0  0  0  0
 16 12  1  0  0  0  0
 17 15  2  6  0  0  0
 17 11  1  0  0  0  0
 17  9  1  0  0  0  0
 18 10  1  1  0  0  0
 18  6  1  0  0  0  0
 19 17  1  0  0  0  0
 20 19  1  0  0  0  0
 21 20  1  0  0  0  0
 22 21  2  0  0  0  0
 23 25  1  0  0  0  0
 23 21  1  0  0  0  0
 25 24  1  0  0  0  0
M  END
>  <MODEL>
1

>  <REMARK>
 VINA RESULT:      -8.3      0.000      0.000
  Name = 
  4 active torsions:
  status: ('A' for Active; 'I' for Inactive)
    1  A    between atoms: C_2  and  C_12
    2  A    between atoms: C_2  and  C_21
    3  A    between atoms: C_6  and  N_15
    4  A    between atoms: C_6  and  P_23
                            x       y       z     vdW  Elec       q    Type
                         _______ _______ _______ _____ _____    ______ ____

>  <TORSDO>
F 4

$$$$
=
 OpenBabel10272400413D

 25 27  0  0  1  0  0  0  0  0999 V2000
  187.4230  176.8690  144.5890 C   0  0  2  0  0  3  0  0  0  0  0  0
  188.3120  176.3400  143.4590 C   0  0  0  0  0  2  0  0  0  0  0  0
  189.2640  177.9910  146.0030 C   0  0  0  0  0  2  0  0  0  0  0  0
  186.7360  178.2240  144.3170 C   0  0  2  0  0  3  0  0  0  0  0  0
  184.8360  179.4960  145.1900 C   0  0  0  0  0  2  0  0  0  0  0  0
  190.4300  177.7420  145.0600 C   0  0  0  0  0  2  0  0  0  0  0  0
  185.9280  177.8560  146.7040 C   0  0  0  0  0  2  0  0  0  0  0  0
  186.1650  178.8770  145.5860 C   0  0  1  0  0  3  0  0  0  0  0  0
  190.6370  177.8590  142.5860 C   0  0  0  0  0  2  0  0  0  0  0  0
  191.2450  179.8210  143.9770 C   0  0  0  0  0  1  0  0  0  0  0  0
  187.8830  176.7660  142.2000 O   0  0  0  0  0  0  0  0  0  0  0  0
  184.6470  179.2290  143.7090 C   0  0  0  0  0  2  0  0  0  0  0  0
  188.1890  176.8960  145.9260 C   0  0  1  0  0  3  0  0  0  0  0  0
  187.2130  177.1100  147.0920 C   0  0  0  0  0  2  0  0  0  0  0  0
  188.6350  179.0530  141.1830 O   0  0  0  0  0  0  0  0  0  0  0  0
  185.5600  178.0730  143.3760 C   0  0  0  0  0  2  0  0  0  0  0  0
  189.1560  177.6770  141.5250 P   0  0  1  0  0  0  0  0  0  0  0  0
  190.3030  178.6440  143.8420 C   0  0  2  0  0  3  0  0  0  0  0  0
  189.6810  176.8680  139.9840 C   0  0  0  0  0  2  0  0  0  0  0  0
  188.6170  176.9390  138.9950 N   0  0  0  0  0  2  0  0  0  0  0  0
  188.5400  177.9830  138.0220 C   0  0  0  0  0  0  0  0  0  0  0  0
  189.4620  178.8370  137.9230 O   0  0  0  0  0  0  0  0  0  0  0  0
  187.3470  178.0820  137.1370 C   0  0  0  0  0  2  0  0  0  0  0  0
  185.8300  178.9150  138.7790 O   0  0  0  0  0  1  0  0  0  0  0  0
  186.0760  177.8400  137.9260 C   0  0  0  0  0  2  0  0  0  0  0  0
  1  2  1  6  0  0  0
  1 13  1  0  0  0  0
  4 16  1  6  0  0  0
  4  1  1  0  0  0  0
  4  8  1  0  0  0  0
  6  3  1  0  0  0  0
  7 14  1  0  0  0  0
  8  5  1  6  0  0  0
  8  7  1  0  0  0  0
  9 18  1  0  0  0  0
 11  2  1  0  0  0  0
 12  5  1  0  0  0  0
 13  3  1  6  0  0  0
 13 14  1  0  0  0  0
 16 12  1  0  0  0  0
 17 15  2  6  0  0  0
 17 11  1  0  0  0  0
 17  9  1  0  0  0  0
 18 10  1  1  0  0  0
 18  6  1  0  0  0  0
 19 17  1  0  0  0  0
 20 19  1  0  0  0  0
 21 20  1  0  0  0  0
 22 21  2  0  0  0  0
 23 25  1  0  0  0  0
 23 21  1  0  0  0  0
 25 24  1  0  0  0  0
M  END
>  <MODEL>
2

>  <REMARK>
 VINA RESULT:      -8.0      1.031      1.235
  Name = 
  4 active torsions:
  status: ('A' for Active; 'I' for Inactive)
    1  A    between atoms: C_2  and  C_12
    2  A    between atoms: C_2  and  C_21
    3  A    between atoms: C_6  and  N_15
    4  A    between atoms: C_6  and  P_23
                            x       y       z     vdW  Elec       q    Type
                         _______ _______ _______ _____ _____    ______ ____

>  <TORSDO>
F 4

$$$$
=
 OpenBabel10272400413D

 25 27  0  0  1  0  0  0  0  0999 V2000
  187.4470  176.8540  144.7260 C   0  0  2  0  0  3  0  0  0  0  0  0
  188.2900  176.2600  143.5930 C   0  0  0  0  0  2  0  0  0  0  0  0
  189.3480  178.0240  146.0160 C   0  0  0  0  0  2  0  0  0  0  0  0
  186.7640  178.2020  144.4110 C   0  0  2  0  0  3  0  0  0  0  0  0
  184.9080  179.5360  145.2860 C   0  0  0  0  0  2  0  0  0  0  0  0
  190.4770  177.7160  145.0460 C   0  0  0  0  0  2  0  0  0  0  0  0
  186.0370  177.9620  146.8400 C   0  0  0  0  0  2  0  0  0  0  0  0
  186.2450  178.9230  145.6650 C   0  0  1  0  0  3  0  0  0  0  0  0
  190.5960  177.7080  142.5640 C   0  0  0  0  0  2  0  0  0  0  0  0
  191.2730  179.7300  143.8330 C   0  0  0  0  0  1  0  0  0  0  0  0
  187.8200  176.6280  142.3310 O   0  0  0  0  0  0  0  0  0  0  0  0
  184.6640  179.1990  143.8270 C   0  0  0  0  0  2  0  0  0  0  0  0
  188.2600  176.9390  146.0320 C   0  0  1  0  0  3  0  0  0  0  0  0
  187.3290  177.2210  147.2200 C   0  0  0  0  0  2  0  0  0  0  0  0
  188.5560  178.8540  141.1750 O   0  0  0  0  0  0  0  0  0  0  0  0
  185.5530  178.0180  143.5210 C   0  0  0  0  0  2  0  0  0  0  0  0
  189.0770  177.4910  141.5660 P   0  0  1  0  0  0  0  0  0  0  0  0
  190.3150  178.5580  143.7900 C   0  0  2  0  0  3  0  0  0  0  0  0
  189.5390  176.6010  140.0500 C   0  0  0  0  0  2  0  0  0  0  0  0
  190.8750  176.9930  139.6270 N   0  0  0  0  0  2  0  0  0  0  0  0
  191.6640  176.1950  138.7420 C   0  0  0  0  0  0  0  0  0  0  0  0
  191.1840  175.1590  138.2100 O   0  0  0  0  0  0  0  0  0  0  0  0
  193.0780  176.5750  138.4680 C   0  0  0  0  0  2  0  0  0  0  0  0
  194.3600  176.8660  136.4770 O   0  0  0  0  0  1  0  0  0  0  0  0
  193.5510  175.9630  137.1640 C   0  0  0  0  0  2  0  0  0  0  0  0
  1  2  1  6  0  0  0
  1 13  1  0  0  0  0
  4 16  1  6  0  0  0
  4  1  1  0  0  0  0
  4  8  1  0  0  0  0
  6  3  1  0  0  0  0
  7 14  1  0  0  0  0
  8  5  1  6  0  0  0
  8  7  1  0  0  0  0
  9 18  1  0  0  0  0
 11  2  1  0  0  0  0
 12  5  1  0  0  0  0
 13  3  1  6  0  0  0
 13 14  1  0  0  0  0
 16 12  1  0  0  0  0
 17 15  2  6  0  0  0
 17 11  1  0  0  0  0
 17  9  1  0  0  0  0
 18 10  1  1  0  0  0
 18  6  1  0  0  0  0
 19 17  1  0  0  0  0
 20 19  1  0  0  0  0
 21 20  1  0  0  0  0
 22 21  2  0  0  0  0
 23 21  1  0  0  0  0
 24 25  1  0  0  0  0
 25 23  1  0  0  0  0
M  END
>  <MODEL>
3

>  <REMARK>
 VINA RESULT:      -7.9      1.497      2.050
  Name = 
  4 active torsions:
  status: ('A' for Active; 'I' for Inactive)
    1  A    between atoms: C_2  and  C_12
    2  A    between atoms: C_2  and  C_21
    3  A    between atoms: C_6  and  N_15
    4  A    between atoms: C_6  and  P_23
                            x       y       z     vdW  Elec       q    Type
                         _______ _______ _______ _____ _____    ______ ____

>  <TORSDO>
F 4

$$$$
=
 OpenBabel10272400413D

 25 27  0  0  1  0  0  0  0  0999 V2000
  189.6680  177.4710  137.7530 C   0  0  2  0  0  3  0  0  0  0  0  0
  190.4250  176.9140  136.5430 C   0  0  0  0  0  2  0  0  0  0  0  0
  187.5180  176.0700  137.5100 C   0  0  0  0  0  2  0  0  0  0  0  0
  190.0030  176.8120  139.1090 C   0  0  2  0  0  3  0  0  0  0  0  0
  189.7740  177.3490  141.4850 C   0  0  0  0  0  2  0  0  0  0  0  0
  187.9610  175.2140  136.3340 C   0  0  0  0  0  2  0  0  0  0  0  0
  188.1860  178.4130  139.8980 C   0  0  0  0  0  2  0  0  0  0  0  0
  188.9800  177.1400  140.2080 C   0  0  1  0  0  3  0  0  0  0  0  0
  190.1230  174.1220  135.7780 C   0  0  0  0  0  2  0  0  0  0  0  0
  188.3590  172.8480  136.9700 C   0  0  0  0  0  1  0  0  0  0  0  0
  191.6840  176.4160  136.8860 O   0  0  0  0  0  0  0  0  0  0  0  0
  191.2340  177.1250  141.1420 C   0  0  0  0  0  2  0  0  0  0  0  0
  188.1480  177.4710  137.5000 C   0  0  1  0  0  3  0  0  0  0  0  0
  187.4330  178.3180  138.5620 C   0  0  0  0  0  2  0  0  0  0  0  0
  192.0200  173.9630  137.7230 O   0  0  0  0  0  0  0  0  0  0  0  0
  191.3370  177.2890  139.6440 C   0  0  0  0  0  2  0  0  0  0  0  0
  191.6880  174.7590  136.4820 P   0  0  1  0  0  0  0  0  0  0  0  0
  189.0020  174.2080  136.7990 C   0  0  2  0  0  3  0  0  0  0  0  0
  192.9980  174.4750  135.2550 C   0  0  0  0  0  2  0  0  0  0  0  0
  194.1690  173.8990  135.8980 N   0  0  0  0  0  2  0  0  0  0  0  0
  195.1840  174.7010  136.5060 C   0  0  0  0  0  0  0  0  0  0  0  0
  195.0470  175.9510  136.5950 O   0  0  0  0  0  0  0  0  0  0  0  0
  196.4290  174.0600  137.0130 C   0  0  0  0  0  2  0  0  0  0  0  0
  195.5000  173.1640  139.0190 O   0  0  0  0  0  1  0  0  0  0  0  0
  196.4480  174.0590  138.5290 C   0  0  0  0  0  2  0  0  0  0  0  0
  1  2  1  6  0  0  0
  1  4  1  0  0  0  0
  2 11  1  0  0  0  0
  4 16  1  1  0  0  0
  4  8  1  0  0  0  0
  6 18  1  0  0  0  0
  6  3  1  0  0  0  0
  8  7  1  6  0  0  0
  8  5  1  0  0  0  0
  9 17  1  0  0  0  0
  9 18  1  0  0  0  0
 12  5  1  0  0  0  0
 13  3  1  1  0  0  0
 13  1  1  0  0  0  0
 13 14  1  0  0  0  0
 14  7  1  0  0  0  0
 16 12  1  0  0  0  0
 17 11  1  0  0  0  0
 17 15  2  1  0  0  0
 18 10  1  6  0  0  0
 19 20  1  0  0  0  0
 19 17  1  0  0  0  0
 20 21  1  0  0  0  0
 21 22  2  0  0  0  0
 21 23  1  0  0  0  0
 23 25  1  0  0  0  0
 25 24  1  0  0  0  0
M  END
>  <MODEL>
4

>  <REMARK>
 VINA RESULT:      -5.4      4.396      7.494
  Name = 
  4 active torsions:
  status: ('A' for Active; 'I' for Inactive)
    1  A    between atoms: C_2  and  C_12
    2  A    between atoms: C_2  and  C_21
    3  A    between atoms: C_6  and  N_15
    4  A    between atoms: C_6  and  P_23
                            x       y       z     vdW  Elec       q    Type
                         _______ _______ _______ _____ _____    ______ ____

>  <TORSDO>
F 4

$$$$
