=
 OpenBabel10262423553D

 34 38  0  0  1  0  0  0  0  0999 V2000
  189.8950  177.2250  146.4080 C   0  0  0  0  0  0  0  0  0  0  0  0
  191.5470  176.3220  144.8730 C   0  0  0  0  0  0  0  0  0  0  0  0
  189.6610  177.8440  143.9850 C   0  0  2  0  0  3  0  0  0  0  0  0
  189.0230  177.4340  141.5930 C   0  0  0  0  0  0  0  0  0  0  0  0
  191.6530  175.7810  147.2370 C   0  0  0  0  0  3  0  0  0  0  0  0
  192.1650  175.6640  145.9430 C   0  0  0  0  0  3  0  0  0  0  0  0
  190.3770  177.0870  145.0920 C   0  0  0  0  0  0  0  0  0  0  0  0
  190.5280  176.5720  147.4710 C   0  0  0  0  0  3  0  0  0  0  0  0
  188.1580  177.9400  144.2300 C   0  0  0  0  0  0  0  0  0  0  0  0
  188.7460  178.1380  146.6910 C   0  0  0  0  0  2  0  0  0  0  0  0
  192.1110  176.2150  143.6440 F   0  0  0  0  0  0  0  0  0  0  0  0
  187.7960  177.7680  141.8410 N   0  0  0  0  0  0  0  0  0  0  0  0
  187.3060  178.0000  143.1740 C   0  0  0  0  0  0  0  0  0  0  0  0
  189.9510  177.2930  142.6650 N   0  0  0  0  0  2  0  0  0  0  0  0
  187.6430  177.9710  145.6520 C   0  0  0  0  0  2  0  0  0  0  0  0
  183.9020  178.8060  144.6690 C   0  0  0  0  0  0  0  0  0  0  0  0
  183.0890  178.7450  143.5330 C   0  0  0  0  0  3  0  0  0  0  0  0
  185.8450  178.2270  143.3230 C   0  0  0  0  0  0  0  0  0  0  0  0
  183.6510  178.4370  142.2920 C   0  0  0  0  0  3  0  0  0  0  0  0
  185.2720  178.5550  144.5630 C   0  0  0  0  0  3  0  0  0  0  0  0
  185.0220  178.1850  142.1870 C   0  0  0  0  0  3  0  0  0  0  0  0
  183.3480  179.1160  145.9030 O   0  0  0  0  0  1  0  0  0  0  0  0
  189.4360  177.0960  140.2030 C   0  0  0  0  0  2  0  0  0  0  0  0
  189.0140  179.1490  139.0700 O   0  0  0  0  0  0  0  0  0  0  0  0
  187.5830  177.3870  138.5170 N   0  0  0  0  0  2  0  0  0  0  0  0
  188.6870  177.9430  139.2310 C   0  0  0  0  0  0  0  0  0  0  0  0
  186.7490  178.1840  137.6330 C   0  0  0  0  0  2  0  0  0  0  0  0
  184.8840  179.8240  139.0860 O   0  0  0  0  0  1  0  0  0  0  0  0
  185.3180  177.8010  137.8140 C   0  0  0  0  0  0  0  0  0  0  0  0
  184.4350  178.6370  138.5170 C   0  0  0  0  0  0  0  0  0  0  0  0
  182.6220  177.0890  138.0770 C   0  0  0  0  0  3  0  0  0  0  0  0
  183.4990  176.2580  137.3730 C   0  0  0  0  0  3  0  0  0  0  0  0
  184.8450  176.6140  137.2390 C   0  0  0  0  0  3  0  0  0  0  0  0
  183.0890  178.2760  138.6480 C   0  0  0  0  0  3  0  0  0  0  0  0
  1 10  1  0  0  0  0
  1  8  1  0  0  0  0
  2  7  1  0  0  0  0
  2  6  2  0  0  0  0
  3 14  1  6  0  0  0
  3  9  1  0  0  0  0
  3  7  1  0  0  0  0
  4 12  2  0  0  0  0
  4 14  1  0  0  0  0
  5  8  2  0  0  0  0
  6  5  1  0  0  0  0
  7  1  2  0  0  0  0
  9 15  1  0  0  0  0
 11  2  1  0  0  0  0
 12 13  1  0  0  0  0
 13 18  1  0  0  0  0
 13  9  2  0  0  0  0
 15 10  1  0  0  0  0
 16 22  1  0  0  0  0
 17 16  2  0  0  0  0
 18 20  2  0  0  0  0
 19 17  1  0  0  0  0
 20 16  1  0  0  0  0
 21 19  2  0  0  0  0
 21 18  1  0  0  0  0
 23  4  1  0  0  0  0
 24 26  2  0  0  0  0
 25 26  1  0  0  0  0
 26 23  1  0  0  0  0
 27 29  1  0  0  0  0
 27 25  1  0  0  0  0
 29 30  1  0  0  0  0
 30 34  2  0  0  0  0
 30 28  1  0  0  0  0
 31 34  1  0  0  0  0
 32 31  2  0  0  0  0
 33 32  1  0  0  0  0
 33 29  2  0  0  0  0
M  END
>  <MODEL>
1

>  <REMARK>
 VINA RESULT:     -10.9      0.000      0.000
  Name = 
  5 active torsions:
  status: ('A' for Active; 'I' for Inactive)
    1  A    between atoms: C_3  and  C_13
    2  A    between atoms: C_3  and  N_17
    3  A    between atoms: C_5  and  C_18
    4  A    between atoms: C_12  and  C_28
    5  A    between atoms: C_18  and  C_29
                            x       y       z     vdW  Elec       q    Type
                         _______ _______ _______ _____ _____    ______ ____

>  <TORSDO>
F 5

$$$$
=
 OpenBabel10262423553D

 34 38  0  0  1  0  0  0  0  0999 V2000
  189.8390  176.5210  137.5010 C   0  0  0  0  0  0  0  0  0  0  0  0
  187.5240  176.9350  136.8930 C   0  0  0  0  0  0  0  0  0  0  0  0
  188.5430  178.1100  138.9520 C   0  0  2  0  0  3  0  0  0  0  0  0
  186.8890  178.7080  140.7420 C   0  0  0  0  0  0  0  0  0  0  0  0
  188.8760  175.4040  135.5810 C   0  0  0  0  0  3  0  0  0  0  0  0
  187.6610  176.0520  135.8150 C   0  0  0  0  0  3  0  0  0  0  0  0
  188.6100  177.1530  137.7730 C   0  0  0  0  0  0  0  0  0  0  0  0
  189.9680  175.6500  136.4150 C   0  0  0  0  0  3  0  0  0  0  0  0
  189.4320  177.6630  140.1090 C   0  0  0  0  0  0  0  0  0  0  0  0
  191.0430  176.8410  138.3290 C   0  0  0  0  0  2  0  0  0  0  0  0
  186.3380  177.5740  137.0490 F   0  0  0  0  0  0  0  0  0  0  0  0
  187.7880  178.5360  141.6600 N   0  0  0  0  0  0  0  0  0  0  0  0
  189.0830  177.9730  141.3860 C   0  0  0  0  0  0  0  0  0  0  0  0
  187.1720  178.3430  139.3940 N   0  0  0  0  0  2  0  0  0  0  0  0
  190.6940  176.8830  139.8120 C   0  0  0  0  0  2  0  0  0  0  0  0
  191.3640  176.1930  143.8550 C   0  0  0  0  0  0  0  0  0  0  0  0
  191.6810  177.2380  144.7280 C   0  0  0  0  0  3  0  0  0  0  0  0
  189.9550  177.6920  142.5550 C   0  0  0  0  0  0  0  0  0  0  0  0
  191.1470  178.5100  144.5130 C   0  0  0  0  0  3  0  0  0  0  0  0
  190.5120  176.4210  142.7720 C   0  0  0  0  0  3  0  0  0  0  0  0
  190.2940  178.7370  143.4290 C   0  0  0  0  0  3  0  0  0  0  0  0
  191.8970  174.9280  144.0640 O   0  0  0  0  0  1  0  0  0  0  0  0
  185.5290  179.1870  141.1130 C   0  0  0  0  0  2  0  0  0  0  0  0
  184.4200  177.5850  142.4840 O   0  0  0  0  0  0  0  0  0  0  0  0
  185.5440  179.2810  143.6340 N   0  0  0  0  0  2  0  0  0  0  0  0
  185.1350  178.6210  142.4360 C   0  0  0  0  0  0  0  0  0  0  0  0
  185.1090  178.8420  144.9490 C   0  0  0  0  0  2  0  0  0  0  0  0
  185.6300  179.7010  147.6440 O   0  0  0  0  0  1  0  0  0  0  0  0
  186.2840  178.3570  145.7300 C   0  0  0  0  0  0  0  0  0  0  0  0
  186.4950  178.7890  147.0500 C   0  0  0  0  0  0  0  0  0  0  0  0
  188.4620  177.3780  147.1950 C   0  0  0  0  0  3  0  0  0  0  0  0
  188.2490  176.9440  145.8820 C   0  0  0  0  0  3  0  0  0  0  0  0
  187.1620  177.4310  145.1510 C   0  0  0  0  0  3  0  0  0  0  0  0
  187.5860  178.2980  147.7770 C   0  0  0  0  0  3  0  0  0  0  0  0
  1  7  1  0  0  0  0
  1 10  1  0  0  0  0
  2 11  1  0  0  0  0
  2  7  2  0  0  0  0
  3  7  1  6  0  0  0
  3 14  1  0  0  0  0
  3  9  1  0  0  0  0
  4 23  1  0  0  0  0
  4 12  2  0  0  0  0
  5  6  2  0  0  0  0
  5  8  1  0  0  0  0
  6  2  1  0  0  0  0
  8  1  2  0  0  0  0
  9 13  2  0  0  0  0
 10 15  1  0  0  0  0
 13 12  1  0  0  0  0
 13 18  1  0  0  0  0
 14  4  1  0  0  0  0
 15  9  1  0  0  0  0
 16 22  1  0  0  0  0
 16 17  1  0  0  0  0
 18 20  1  0  0  0  0
 18 21  2  0  0  0  0
 19 17  2  0  0  0  0
 20 16  2  0  0  0  0
 21 19  1  0  0  0  0
 23 26  1  0  0  0  0
 25 27  1  0  0  0  0
 26 24  2  0  0  0  0
 26 25  1  0  0  0  0
 27 29  1  0  0  0  0
 29 30  1  0  0  0  0
 30 28  1  0  0  0  0
 30 34  2  0  0  0  0
 31 34  1  0  0  0  0
 32 31  2  0  0  0  0
 33 29  2  0  0  0  0
 33 32  1  0  0  0  0
M  END
>  <MODEL>
2

>  <REMARK>
 VINA RESULT:     -10.6      2.819      7.734
  Name = 
  5 active torsions:
  status: ('A' for Active; 'I' for Inactive)
    1  A    between atoms: C_3  and  C_13
    2  A    between atoms: C_3  and  N_17
    3  A    between atoms: C_5  and  C_18
    4  A    between atoms: C_12  and  C_28
    5  A    between atoms: C_18  and  C_29
                            x       y       z     vdW  Elec       q    Type
                         _______ _______ _______ _____ _____    ______ ____

>  <TORSDO>
F 5

$$$$
=
 OpenBabel10262423553D

 34 38  0  0  1  0  0  0  0  0999 V2000
  189.9220  177.2180  146.3950 C   0  0  0  0  0  0  0  0  0  0  0  0
  191.5660  176.2580  144.8860 C   0  0  0  0  0  0  0  0  0  0  0  0
  189.7040  177.7860  143.9580 C   0  0  2  0  0  3  0  0  0  0  0  0
  189.0680  177.3310  141.5740 C   0  0  0  0  0  0  0  0  0  0  0  0
  191.6570  175.7700  147.2620 C   0  0  0  0  0  3  0  0  0  0  0  0
  192.1710  175.6170  145.9730 C   0  0  0  0  0  3  0  0  0  0  0  0
  190.4050  177.0440  145.0840 C   0  0  0  0  0  0  0  0  0  0  0  0
  190.5420  176.5810  147.4750 C   0  0  0  0  0  3  0  0  0  0  0  0
  188.2010  177.9080  144.1960 C   0  0  0  0  0  0  0  0  0  0  0  0
  188.7840  178.1540  146.6530 C   0  0  0  0  0  2  0  0  0  0  0  0
  192.1320  176.1160  143.6620 F   0  0  0  0  0  0  0  0  0  0  0  0
  187.8440  177.6870  141.8100 N   0  0  0  0  0  0  0  0  0  0  0  0
  187.3530  177.9560  143.1350 C   0  0  0  0  0  0  0  0  0  0  0  0
  189.9900  177.2010  142.6520 N   0  0  0  0  0  2  0  0  0  0  0  0
  187.6820  177.9780  145.6150 C   0  0  0  0  0  2  0  0  0  0  0  0
  183.9500  178.8020  144.6100 C   0  0  0  0  0  0  0  0  0  0  0  0
  183.1470  178.7690  143.4660 C   0  0  0  0  0  3  0  0  0  0  0  0
  185.8950  178.2060  143.2740 C   0  0  0  0  0  0  0  0  0  0  0  0
  183.7140  178.4660  142.2270 C   0  0  0  0  0  3  0  0  0  0  0  0
  185.3170  178.5290  144.5130 C   0  0  0  0  0  3  0  0  0  0  0  0
  185.0820  178.1920  142.1300 C   0  0  0  0  0  3  0  0  0  0  0  0
  183.3900  179.1080  145.8430 O   0  0  0  0  0  1  0  0  0  0  0  0
  189.4800  176.9560  140.1930 C   0  0  0  0  0  2  0  0  0  0  0  0
  189.0470  179.0740  139.1920 O   0  0  0  0  0  0  0  0  0  0  0  0
  187.8480  177.2790  138.2970 N   0  0  0  0  0  2  0  0  0  0  0  0
  188.8000  177.8390  139.2020 C   0  0  0  0  0  0  0  0  0  0  0  0
  187.0750  178.0990  137.3780 C   0  0  0  0  0  2  0  0  0  0  0  0
  185.7360  175.9520  136.0090 O   0  0  0  0  0  1  0  0  0  0  0  0
  185.6210  177.8190  137.5590 C   0  0  0  0  0  0  0  0  0  0  0  0
  185.0070  176.7500  136.8840 C   0  0  0  0  0  0  0  0  0  0  0  0
  182.9040  177.2750  137.9710 C   0  0  0  0  0  3  0  0  0  0  0  0
  183.5160  178.3360  138.6470 C   0  0  0  0  0  3  0  0  0  0  0  0
  184.8720  178.6070  138.4430 C   0  0  0  0  0  3  0  0  0  0  0  0
  183.6490  176.4840  137.0910 C   0  0  0  0  0  3  0  0  0  0  0  0
  1 10  1  0  0  0  0
  1  8  1  0  0  0  0
  2  7  1  0  0  0  0
  2  6  2  0  0  0  0
  3 14  1  6  0  0  0
  3  9  1  0  0  0  0
  3  7  1  0  0  0  0
  4 12  2  0  0  0  0
  4 14  1  0  0  0  0
  5  8  2  0  0  0  0
  6  5  1  0  0  0  0
  7  1  2  0  0  0  0
  9 15  1  0  0  0  0
 11  2  1  0  0  0  0
 12 13  1  0  0  0  0
 13 18  1  0  0  0  0
 13  9  2  0  0  0  0
 15 10  1  0  0  0  0
 16 22  1  0  0  0  0
 17 16  2  0  0  0  0
 18 20  2  0  0  0  0
 19 17  1  0  0  0  0
 20 16  1  0  0  0  0
 21 19  2  0  0  0  0
 21 18  1  0  0  0  0
 23  4  1  0  0  0  0
 24 26  2  0  0  0  0
 25 26  1  0  0  0  0
 26 23  1  0  0  0  0
 27 29  1  0  0  0  0
 27 25  1  0  0  0  0
 28 30  1  0  0  0  0
 29 33  1  0  0  0  0
 30 34  1  0  0  0  0
 30 29  2  0  0  0  0
 31 32  1  0  0  0  0
 33 32  2  0  0  0  0
 34 31  2  0  0  0  0
M  END
>  <MODEL>
3

>  <REMARK>
 VINA RESULT:     -10.5      0.886      1.211
  Name = 
  5 active torsions:
  status: ('A' for Active; 'I' for Inactive)
    1  A    between atoms: C_3  and  C_13
    2  A    between atoms: C_3  and  N_17
    3  A    between atoms: C_5  and  C_18
    4  A    between atoms: C_12  and  C_28
    5  A    between atoms: C_18  and  C_29
                            x       y       z     vdW  Elec       q    Type
                         _______ _______ _______ _____ _____    ______ ____

>  <TORSDO>
F 5

$$$$
=
 OpenBabel10262423553D

 34 38  0  0  1  0  0  0  0  0999 V2000
  188.9900  177.3410  146.3760 C   0  0  0  0  0  0  0  0  0  0  0  0
  186.8780  178.2670  147.1400 C   0  0  0  0  0  0  0  0  0  0  0  0
  187.0660  177.2800  144.7620 C   0  0  2  0  0  3  0  0  0  0  0  0
  185.4800  178.2710  143.0890 C   0  0  0  0  0  0  0  0  0  0  0  0
  188.8180  178.2850  148.5990 C   0  0  0  0  0  3  0  0  0  0  0  0
  187.4740  178.5830  148.3660 C   0  0  0  0  0  3  0  0  0  0  0  0
  187.6460  177.6690  146.1120 C   0  0  0  0  0  0  0  0  0  0  0  0
  189.5710  177.6510  147.6090 C   0  0  0  0  0  3  0  0  0  0  0  0
  188.0970  177.3750  143.6420 C   0  0  0  0  0  0  0  0  0  0  0  0
  189.7860  176.5830  145.3620 C   0  0  0  0  0  2  0  0  0  0  0  0
  185.5570  178.5350  146.9810 F   0  0  0  0  0  0  0  0  0  0  0  0
  186.3400  178.0920  142.1360 N   0  0  0  0  0  0  0  0  0  0  0  0
  187.6940  177.6710  142.3780 C   0  0  0  0  0  0  0  0  0  0  0  0
  185.8610  178.0390  144.4420 N   0  0  0  0  0  2  0  0  0  0  0  0
  189.5560  177.1340  143.9590 C   0  0  0  0  0  2  0  0  0  0  0  0
  189.2540  178.4150  138.9890 C   0  0  0  0  0  0  0  0  0  0  0  0
  190.4300  177.6640  139.0650 C   0  0  0  0  0  3  0  0  0  0  0  0
  188.6110  177.6530  141.2100 C   0  0  0  0  0  0  0  0  0  0  0  0
  190.7050  176.9160  140.2120 C   0  0  0  0  0  3  0  0  0  0  0  0
  188.3530  178.4150  140.0580 C   0  0  0  0  0  3  0  0  0  0  0  0
  189.8030  176.9160  141.2810 C   0  0  0  0  0  3  0  0  0  0  0  0
  188.9790  179.1620  137.8520 O   0  0  0  0  0  1  0  0  0  0  0  0
  184.1300  178.8190  142.7800 C   0  0  0  0  0  2  0  0  0  0  0  0
  183.2610  177.4620  141.0250 O   0  0  0  0  0  0  0  0  0  0  0  0
  184.1020  179.5390  140.3620 N   0  0  0  0  0  2  0  0  0  0  0  0
  183.7910  178.5570  141.3510 C   0  0  0  0  0  0  0  0  0  0  0  0
  183.8920  179.3050  138.9430 C   0  0  0  0  0  2  0  0  0  0  0  0
  181.8450  177.5390  137.9630 O   0  0  0  0  0  1  0  0  0  0  0  0
  182.5380  179.7910  138.5500 C   0  0  0  0  0  0  0  0  0  0  0  0
  181.5590  178.8940  138.0910 C   0  0  0  0  0  0  0  0  0  0  0  0
  179.9820  180.7230  137.8840 C   0  0  0  0  0  3  0  0  0  0  0  0
  180.9540  181.6160  138.3460 C   0  0  0  0  0  3  0  0  0  0  0  0
  182.2290  181.1510  138.6810 C   0  0  0  0  0  3  0  0  0  0  0  0
  180.2850  179.3640  137.7570 C   0  0  0  0  0  3  0  0  0  0  0  0
  1  8  1  0  0  0  0
  2  6  2  0  0  0  0
  3  9  1  6  0  0  0
  3  7  1  0  0  0  0
  4 14  1  0  0  0  0
  6  5  1  0  0  0  0
  7  1  2  0  0  0  0
  7  2  1  0  0  0  0
  8  5  2  0  0  0  0
  9 15  1  0  0  0  0
 10  1  1  0  0  0  0
 11  2  1  0  0  0  0
 12 13  1  0  0  0  0
 12  4  2  0  0  0  0
 13  9  2  0  0  0  0
 14  3  1  0  0  0  0
 15 10  1  0  0  0  0
 16 17  2  0  0  0  0
 16 20  1  0  0  0  0
 17 19  1  0  0  0  0
 18 21  1  0  0  0  0
 18 13  1  0  0  0  0
 19 21  2  0  0  0  0
 20 18  2  0  0  0  0
 22 16  1  0  0  0  0
 23  4  1  0  0  0  0
 24 26  2  0  0  0  0
 25 26  1  0  0  0  0
 26 23  1  0  0  0  0
 27 25  1  0  0  0  0
 28 30  1  0  0  0  0
 29 33  1  0  0  0  0
 29 27  1  0  0  0  0
 30 29  2  0  0  0  0
 31 32  1  0  0  0  0
 32 33  2  0  0  0  0
 34 31  2  0  0  0  0
 34 30  1  0  0  0  0
M  END
>  <MODEL>
4

>  <REMARK>
 VINA RESULT:     -10.1      2.488      4.973
  Name = 
  5 active torsions:
  status: ('A' for Active; 'I' for Inactive)
    1  A    between atoms: C_3  and  C_13
    2  A    between atoms: C_3  and  N_17
    3  A    between atoms: C_5  and  C_18
    4  A    between atoms: C_12  and  C_28
    5  A    between atoms: C_18  and  C_29
                            x       y       z     vdW  Elec       q    Type
                         _______ _______ _______ _____ _____    ______ ____

>  <TORSDO>
F 5

$$$$
=
 OpenBabel10262423553D

 34 38  0  0  1  0  0  0  0  0999 V2000
  188.8300  177.4300  146.2870 C   0  0  0  0  0  0  0  0  0  0  0  0
  186.6670  178.3110  146.9560 C   0  0  0  0  0  0  0  0  0  0  0  0
  186.9700  177.2900  144.6050 C   0  0  2  0  0  3  0  0  0  0  0  0
  185.4210  178.2100  142.8580 C   0  0  0  0  0  0  0  0  0  0  0  0
  188.5500  178.4060  148.4850 C   0  0  0  0  0  3  0  0  0  0  0  0
  187.2080  178.6640  148.1980 C   0  0  0  0  0  3  0  0  0  0  0  0
  187.4890  177.7180  145.9680 C   0  0  0  0  0  0  0  0  0  0  0  0
  189.3570  177.7770  147.5350 C   0  0  0  0  0  3  0  0  0  0  0  0
  188.0390  177.3950  143.5220 C   0  0  0  0  0  0  0  0  0  0  0  0
  189.6830  176.6770  145.3170 C   0  0  0  0  0  2  0  0  0  0  0  0
  185.3470  178.5400  146.7450 F   0  0  0  0  0  0  0  0  0  0  0  0
  186.3200  178.0380  141.9400 N   0  0  0  0  0  0  0  0  0  0  0  0
  187.6750  177.6580  142.2390 C   0  0  0  0  0  0  0  0  0  0  0  0
  185.7580  178.0110  144.2270 N   0  0  0  0  0  2  0  0  0  0  0  0
  189.4910  177.1990  143.8970 C   0  0  0  0  0  2  0  0  0  0  0  0
  189.3570  178.4130  138.9110 C   0  0  0  0  0  0  0  0  0  0  0  0
  190.5330  177.6670  139.0300 C   0  0  0  0  0  3  0  0  0  0  0  0
  188.6360  177.6460  141.1060 C   0  0  0  0  0  0  0  0  0  0  0  0
  190.7690  176.9200  140.1870 C   0  0  0  0  0  3  0  0  0  0  0  0
  188.4170  178.4080  139.9450 C   0  0  0  0  0  3  0  0  0  0  0  0
  189.8280  176.9140  141.2210 C   0  0  0  0  0  3  0  0  0  0  0  0
  189.1210  179.1600  137.7660 O   0  0  0  0  0  1  0  0  0  0  0  0
  184.0700  178.7150  142.4890 C   0  0  0  0  0  2  0  0  0  0  0  0
  184.4090  179.8400  140.4170 O   0  0  0  0  0  0  0  0  0  0  0  0
  183.3000  177.7880  140.2740 N   0  0  0  0  0  2  0  0  0  0  0  0
  183.9550  178.8240  141.0060 C   0  0  0  0  0  0  0  0  0  0  0  0
  183.0630  177.8810  138.8420 C   0  0  0  0  0  2  0  0  0  0  0  0
  182.7230  175.1370  138.0470 O   0  0  0  0  0  1  0  0  0  0  0  0
  184.1200  177.1230  138.1100 C   0  0  0  0  0  0  0  0  0  0  0  0
  183.9090  175.7890  137.7250 C   0  0  0  0  0  0  0  0  0  0  0  0
  186.0950  175.7480  136.6760 C   0  0  0  0  0  3  0  0  0  0  0  0
  186.3040  177.0780  137.0550 C   0  0  0  0  0  3  0  0  0  0  0  0
  185.3180  177.7660  137.7690 C   0  0  0  0  0  3  0  0  0  0  0  0
  184.8990  175.1050  137.0110 C   0  0  0  0  0  3  0  0  0  0  0  0
  1  8  1  0  0  0  0
  2  6  2  0  0  0  0
  3  9  1  6  0  0  0
  3  7  1  0  0  0  0
  4 14  1  0  0  0  0
  6  5  1  0  0  0  0
  7  1  2  0  0  0  0
  7  2  1  0  0  0  0
  8  5  2  0  0  0  0
  9 15  1  0  0  0  0
 10  1  1  0  0  0  0
 11  2  1  0  0  0  0
 12 13  1  0  0  0  0
 12  4  2  0  0  0  0
 13  9  2  0  0  0  0
 14  3  1  0  0  0  0
 15 10  1  0  0  0  0
 16 17  2  0  0  0  0
 16 20  1  0  0  0  0
 17 19  1  0  0  0  0
 18 21  1  0  0  0  0
 18 13  1  0  0  0  0
 19 21  2  0  0  0  0
 20 18  2  0  0  0  0
 22 16  1  0  0  0  0
 23  4  1  0  0  0  0
 24 26  2  0  0  0  0
 25 26  1  0  0  0  0
 26 23  1  0  0  0  0
 27 25  1  0  0  0  0
 29 27  1  0  0  0  0
 30 28  1  0  0  0  0
 30 29  2  0  0  0  0
 31 34  2  0  0  0  0
 31 32  1  0  0  0  0
 32 33  2  0  0  0  0
 33 29  1  0  0  0  0
 34 30  1  0  0  0  0
M  END
>  <MODEL>
5

>  <REMARK>
 VINA RESULT:     -10.0      2.270      4.832
  Name = 
  5 active torsions:
  status: ('A' for Active; 'I' for Inactive)
    1  A    between atoms: C_3  and  C_13
    2  A    between atoms: C_3  and  N_17
    3  A    between atoms: C_5  and  C_18
    4  A    between atoms: C_12  and  C_28
    5  A    between atoms: C_18  and  C_29
                            x       y       z     vdW  Elec       q    Type
                         _______ _______ _______ _____ _____    ______ ____

>  <TORSDO>
F 5

$$$$
=
 OpenBabel10262423553D

 34 38  0  0  1  0  0  0  0  0999 V2000
  190.5190  176.4980  144.3860 C   0  0  0  0  0  0  0  0  0  0  0  0
  188.8720  177.6030  145.7890 C   0  0  0  0  0  0  0  0  0  0  0  0
  188.2690  176.9510  143.3650 C   0  0  2  0  0  3  0  0  0  0  0  0
  186.5140  178.3930  142.3000 C   0  0  0  0  0  0  0  0  0  0  0  0
  191.0900  177.1280  146.6530 C   0  0  0  0  0  3  0  0  0  0  0  0
  189.8070  177.6490  146.8300 C   0  0  0  0  0  3  0  0  0  0  0  0
  189.2340  177.0540  144.5360 C   0  0  0  0  0  0  0  0  0  0  0  0
  191.4410  176.5400  145.4370 C   0  0  0  0  0  3  0  0  0  0  0  0
  188.9810  177.0550  142.0200 C   0  0  0  0  0  0  0  0  0  0  0  0
  190.8830  175.7860  143.1230 C   0  0  0  0  0  2  0  0  0  0  0  0
  187.6250  178.0800  146.0270 F   0  0  0  0  0  0  0  0  0  0  0  0
  187.0560  178.2290  141.1340 N   0  0  0  0  0  0  0  0  0  0  0  0
  188.3300  177.5850  140.9520 C   0  0  0  0  0  0  0  0  0  0  0  0
  187.1790  177.9160  143.4660 N   0  0  0  0  0  2  0  0  0  0  0  0
  190.4060  176.5610  141.8990 C   0  0  0  0  0  2  0  0  0  0  0  0
  189.9070  176.4720  137.6730 C   0  0  0  0  0  0  0  0  0  0  0  0
  189.8800  177.6650  136.9450 C   0  0  0  0  0  3  0  0  0  0  0  0
  188.9010  177.6020  139.5810 C   0  0  0  0  0  0  0  0  0  0  0  0
  189.3570  178.8220  137.5250 C   0  0  0  0  0  3  0  0  0  0  0  0
  189.4140  176.4390  138.9800 C   0  0  0  0  0  3  0  0  0  0  0  0
  188.8640  178.7890  138.8340 C   0  0  0  0  0  3  0  0  0  0  0  0
  190.4220  175.3190  137.0980 O   0  0  0  0  0  1  0  0  0  0  0  0
  185.2500  179.1700  142.4290 C   0  0  0  0  0  2  0  0  0  0  0  0
  183.4480  177.9850  141.4170 O   0  0  0  0  0  0  0  0  0  0  0  0
  184.5250  179.5370  140.0410 N   0  0  0  0  0  2  0  0  0  0  0  0
  184.3440  178.8610  141.2860 C   0  0  0  0  0  0  0  0  0  0  0  0
  183.7450  179.2100  138.8590 C   0  0  0  0  0  2  0  0  0  0  0  0
  182.2270  176.8010  138.4550 O   0  0  0  0  0  1  0  0  0  0  0  0
  184.3210  178.0030  138.1970 C   0  0  0  0  0  0  0  0  0  0  0  0
  183.5410  176.8510  138.0040 C   0  0  0  0  0  0  0  0  0  0  0  0
  185.4080  175.7780  136.8890 C   0  0  0  0  0  3  0  0  0  0  0  0
  186.1830  176.9260  137.0770 C   0  0  0  0  0  3  0  0  0  0  0  0
  185.6410  178.0380  137.7280 C   0  0  0  0  0  3  0  0  0  0  0  0
  184.0890  175.7410  137.3520 C   0  0  0  0  0  3  0  0  0  0  0  0
  1  7  2  0  0  0  0
  1  8  1  0  0  0  0
  2 11  1  0  0  0  0
  2  6  2  0  0  0  0
  3  9  1  6  0  0  0
  3 14  1  0  0  0  0
  3  7  1  0  0  0  0
  4 23  1  0  0  0  0
  4 14  1  0  0  0  0
  5  6  1  0  0  0  0
  7  2  1  0  0  0  0
  8  5  2  0  0  0  0
 10  1  1  0  0  0  0
 12  4  2  0  0  0  0
 13 12  1  0  0  0  0
 13  9  2  0  0  0  0
 15  9  1  0  0  0  0
 15 10  1  0  0  0  0
 16 20  1  0  0  0  0
 17 19  1  0  0  0  0
 17 16  2  0  0  0  0
 18 13  1  0  0  0  0
 19 21  2  0  0  0  0
 20 18  2  0  0  0  0
 21 18  1  0  0  0  0
 22 16  1  0  0  0  0
 25 26  1  0  0  0  0
 26 24  2  0  0  0  0
 26 23  1  0  0  0  0
 27 25  1  0  0  0  0
 29 27  1  0  0  0  0
 30 29  1  0  0  0  0
 30 28  1  0  0  0  0
 31 32  2  0  0  0  0
 31 34  1  0  0  0  0
 32 33  1  0  0  0  0
 33 29  2  0  0  0  0
 34 30  2  0  0  0  0
M  END
>  <MODEL>
6

>  <REMARK>
 VINA RESULT:      -9.9      2.056      4.832
  Name = 
  5 active torsions:
  status: ('A' for Active; 'I' for Inactive)
    1  A    between atoms: C_3  and  C_13
    2  A    between atoms: C_3  and  N_17
    3  A    between atoms: C_5  and  C_18
    4  A    between atoms: C_12  and  C_28
    5  A    between atoms: C_18  and  C_29
                            x       y       z     vdW  Elec       q    Type
                         _______ _______ _______ _____ _____    ______ ____

>  <TORSDO>
F 5

$$$$
=
 OpenBabel10262423553D

 34 38  0  0  1  0  0  0  0  0999 V2000
  182.9710  178.5670  141.8100 C   0  0  0  0  0  0  0  0  0  0  0  0
  185.2370  179.2670  142.3360 C   0  0  0  0  0  0  0  0  0  0  0  0
  184.5570  178.8440  139.8820 C   0  0  2  0  0  3  0  0  0  0  0  0
  186.4410  178.1440  138.3800 C   0  0  0  0  0  0  0  0  0  0  0  0
  183.6150  178.9450  144.1130 C   0  0  0  0  0  3  0  0  0  0  0  0
  184.9030  179.2860  143.6950 C   0  0  0  0  0  3  0  0  0  0  0  0
  184.2750  178.8710  141.3760 C   0  0  0  0  0  0  0  0  0  0  0  0
  182.6460  178.6000  143.1700 C   0  0  0  0  0  3  0  0  0  0  0  0
  183.7580  177.7600  139.1640 C   0  0  0  0  0  0  0  0  0  0  0  0
  181.8980  178.2830  140.8090 C   0  0  0  0  0  2  0  0  0  0  0  0
  186.4880  179.6520  141.9780 F   0  0  0  0  0  0  0  0  0  0  0  0
  185.6330  177.4240  137.6660 N   0  0  0  0  0  0  0  0  0  0  0  0
  184.2680  177.1750  138.0490 C   0  0  0  0  0  0  0  0  0  0  0  0
  185.9830  178.7330  139.5930 N   0  0  0  0  0  2  0  0  0  0  0  0
  182.4050  177.3580  139.7080 C   0  0  0  0  0  2  0  0  0  0  0  0
  182.7390  173.9510  136.7290 C   0  0  0  0  0  0  0  0  0  0  0  0
  181.9580  174.4370  135.6760 C   0  0  0  0  0  3  0  0  0  0  0  0
  183.5030  176.2100  137.2180 C   0  0  0  0  0  0  0  0  0  0  0  0
  181.9380  175.8050  135.3990 C   0  0  0  0  0  3  0  0  0  0  0  0
  183.5010  174.8330  137.4990 C   0  0  0  0  0  3  0  0  0  0  0  0
  182.7020  176.6880  136.1690 C   0  0  0  0  0  3  0  0  0  0  0  0
  182.7570  172.5920  137.0100 O   0  0  0  0  0  1  0  0  0  0  0  0
  187.8710  178.2670  137.9860 C   0  0  0  0  0  2  0  0  0  0  0  0
  189.0940  176.2600  138.3780 O   0  0  0  0  0  0  0  0  0  0  0  0
  189.0410  177.7670  140.1630 N   0  0  0  0  0  2  0  0  0  0  0  0
  188.7100  177.3700  138.8320 C   0  0  0  0  0  0  0  0  0  0  0  0
  189.7670  176.8970  141.0740 C   0  0  0  0  0  2  0  0  0  0  0  0
  191.3930  178.2930  142.9920 O   0  0  0  0  0  1  0  0  0  0  0  0
  189.3150  177.1480  142.4730 C   0  0  0  0  0  0  0  0  0  0  0  0
  190.1330  177.8480  143.3760 C   0  0  0  0  0  0  0  0  0  0  0  0
  188.4120  177.6650  145.0740 C   0  0  0  0  0  3  0  0  0  0  0  0
  187.5950  176.9720  144.1750 C   0  0  0  0  0  3  0  0  0  0  0  0
  188.0450  176.7150  142.8760 C   0  0  0  0  0  3  0  0  0  0  0  0
  189.6780  178.1020  144.6750 C   0  0  0  0  0  3  0  0  0  0  0  0
  1  8  1  0  0  0  0
  2  6  2  0  0  0  0
  3  9  1  1  0  0  0
  3  7  1  0  0  0  0
  4 14  1  0  0  0  0
  6  5  1  0  0  0  0
  7  1  2  0  0  0  0
  7  2  1  0  0  0  0
  8  5  2  0  0  0  0
  9 15  1  0  0  0  0
 10  1  1  0  0  0  0
 11  2  1  0  0  0  0
 12 13  1  0  0  0  0
 12  4  2  0  0  0  0
 13  9  2  0  0  0  0
 14  3  1  0  0  0  0
 15 10  1  0  0  0  0
 16 22  1  0  0  0  0
 16 20  1  0  0  0  0
 17 16  2  0  0  0  0
 18 20  2  0  0  0  0
 18 13  1  0  0  0  0
 19 17  1  0  0  0  0
 19 21  2  0  0  0  0
 21 18  1  0  0  0  0
 23  4  1  0  0  0  0
 23 26  1  0  0  0  0
 24 26  2  0  0  0  0
 25 27  1  0  0  0  0
 26 25  1  0  0  0  0
 27 29  1  0  0  0  0
 28 30  1  0  0  0  0
 29 33  2  0  0  0  0
 29 30  1  0  0  0  0
 30 34  2  0  0  0  0
 32 31  2  0  0  0  0
 33 32  1  0  0  0  0
 34 31  1  0  0  0  0
M  END
>  <MODEL>
7

>  <REMARK>
 VINA RESULT:      -9.7      2.729      7.232
  Name = 
  5 active torsions:
  status: ('A' for Active; 'I' for Inactive)
    1  A    between atoms: C_3  and  C_13
    2  A    between atoms: C_3  and  N_17
    3  A    between atoms: C_5  and  C_18
    4  A    between atoms: C_12  and  C_28
    5  A    between atoms: C_18  and  C_29
                            x       y       z     vdW  Elec       q    Type
                         _______ _______ _______ _____ _____    ______ ____

>  <TORSDO>
F 5

$$$$
=
 OpenBabel10262423553D

 34 38  0  0  1  0  0  0  0  0999 V2000
  190.8050  176.1030  136.9340 C   0  0  0  0  0  0  0  0  0  0  0  0
  192.9150  176.3850  138.1060 C   0  0  0  0  0  0  0  0  0  0  0  0
  190.7010  176.3430  139.4320 C   0  0  2  0  0  3  0  0  0  0  0  0
  190.7480  177.6250  141.5890 C   0  0  0  0  0  0  0  0  0  0  0  0
  192.8810  176.1620  135.6890 C   0  0  0  0  0  3  0  0  0  0  0  0
  193.5900  176.3270  136.8810 C   0  0  0  0  0  3  0  0  0  0  0  0
  191.5020  176.3070  138.1410 C   0  0  0  0  0  0  0  0  0  0  0  0
  191.4910  176.0350  135.7170 C   0  0  0  0  0  3  0  0  0  0  0  0
  189.3260  176.9760  139.2400 C   0  0  0  0  0  0  0  0  0  0  0  0
  189.3280  175.8760  136.9530 C   0  0  0  0  0  2  0  0  0  0  0  0
  193.6520  176.4990  139.2390 F   0  0  0  0  0  0  0  0  0  0  0  0
  189.4920  177.9210  141.4650 N   0  0  0  0  0  0  0  0  0  0  0  0
  188.7400  177.6390  140.2710 C   0  0  0  0  0  0  0  0  0  0  0  0
  191.4350  176.9850  140.5170 N   0  0  0  0  0  2  0  0  0  0  0  0
  188.6350  176.8500  137.9000 C   0  0  0  0  0  2  0  0  0  0  0  0
  185.2570  178.5320  139.0280 C   0  0  0  0  0  0  0  0  0  0  0  0
  184.6990  179.0970  140.1780 C   0  0  0  0  0  3  0  0  0  0  0  0
  187.3530  178.1690  140.2110 C   0  0  0  0  0  0  0  0  0  0  0  0
  185.4580  179.1890  141.3460 C   0  0  0  0  0  3  0  0  0  0  0  0
  186.5740  178.0650  139.0460 C   0  0  0  0  0  3  0  0  0  0  0  0
  186.7760  178.7230  141.3640 C   0  0  0  0  0  3  0  0  0  0  0  0
  184.5040  178.4350  137.8660 O   0  0  0  0  0  1  0  0  0  0  0  0
  191.4950  178.0470  142.8050 C   0  0  0  0  0  2  0  0  0  0  0  0
  191.2480  176.1270  144.1940 O   0  0  0  0  0  0  0  0  0  0  0  0
  190.0940  178.0310  144.9030 N   0  0  0  0  0  2  0  0  0  0  0  0
  190.9590  177.3380  144.0030 C   0  0  0  0  0  0  0  0  0  0  0  0
  189.4560  177.3710  146.0290 C   0  0  0  0  0  2  0  0  0  0  0  0
  188.1160  178.1780  148.4430 O   0  0  0  0  0  1  0  0  0  0  0  0
  188.0060  177.7210  146.0600 C   0  0  0  0  0  0  0  0  0  0  0  0
  187.3920  178.1260  147.2570 C   0  0  0  0  0  0  0  0  0  0  0  0
  185.2990  178.4390  146.0740 C   0  0  0  0  0  3  0  0  0  0  0  0
  185.9110  178.0410  144.8820 C   0  0  0  0  0  3  0  0  0  0  0  0
  187.2620  177.6840  144.8740 C   0  0  0  0  0  3  0  0  0  0  0  0
  186.0390  178.4820  147.2600 C   0  0  0  0  0  3  0  0  0  0  0  0
  1 10  1  0  0  0  0
  1  7  1  0  0  0  0
  2  7  2  0  0  0  0
  2 11  1  0  0  0  0
  3  7  1  6  0  0  0
  3 14  1  0  0  0  0
  4 23  1  0  0  0  0
  5  8  1  0  0  0  0
  5  6  2  0  0  0  0
  6  2  1  0  0  0  0
  8  1  2  0  0  0  0
  9  3  1  0  0  0  0
  9 13  2  0  0  0  0
 10 15  1  0  0  0  0
 12  4  2  0  0  0  0
 13 12  1  0  0  0  0
 14  4  1  0  0  0  0
 15  9  1  0  0  0  0
 16 20  2  0  0  0  0
 16 17  1  0  0  0  0
 17 19  2  0  0  0  0
 18 13  1  0  0  0  0
 18 21  2  0  0  0  0
 19 21  1  0  0  0  0
 20 18  1  0  0  0  0
 22 16  1  0  0  0  0
 23 26  1  0  0  0  0
 25 27  1  0  0  0  0
 26 24  2  0  0  0  0
 26 25  1  0  0  0  0
 27 29  1  0  0  0  0
 29 30  1  0  0  0  0
 30 34  2  0  0  0  0
 30 28  1  0  0  0  0
 31 34  1  0  0  0  0
 32 31  2  0  0  0  0
 33 32  1  0  0  0  0
 33 29  2  0  0  0  0
M  END
>  <MODEL>
8

>  <REMARK>
 VINA RESULT:      -9.5      2.917      7.132
  Name = 
  5 active torsions:
  status: ('A' for Active; 'I' for Inactive)
    1  A    between atoms: C_3  and  C_13
    2  A    between atoms: C_3  and  N_17
    3  A    between atoms: C_5  and  C_18
    4  A    between atoms: C_12  and  C_28
    5  A    between atoms: C_18  and  C_29
                            x       y       z     vdW  Elec       q    Type
                         _______ _______ _______ _____ _____    ______ ____

>  <TORSDO>
F 5

$$$$
=
 OpenBabel10262423553D

 34 38  0  0  1  0  0  0  0  0999 V2000
  190.1830  177.0350  146.2310 C   0  0  0  0  0  0  0  0  0  0  0  0
  191.6820  176.0250  144.6080 C   0  0  0  0  0  0  0  0  0  0  0  0
  189.8160  177.6230  143.8160 C   0  0  2  0  0  3  0  0  0  0  0  0
  189.0000  177.2030  141.4810 C   0  0  0  0  0  0  0  0  0  0  0  0
  191.9210  175.5210  146.9700 C   0  0  0  0  0  3  0  0  0  0  0  0
  192.3390  175.3560  145.6480 C   0  0  0  0  0  3  0  0  0  0  0  0
  190.5670  176.8510  144.8890 C   0  0  0  0  0  0  0  0  0  0  0  0
  190.8530  176.3700  147.2630 C   0  0  0  0  0  3  0  0  0  0  0  0
  188.3400  177.7980  144.1580 C   0  0  0  0  0  0  0  0  0  0  0  0
  189.1000  178.0090  146.5700 C   0  0  0  0  0  2  0  0  0  0  0  0
  192.1570  175.8690  143.3470 F   0  0  0  0  0  0  0  0  0  0  0  0
  187.8100  177.6020  141.8020 N   0  0  0  0  0  0  0  0  0  0  0  0
  187.4220  177.8810  143.1600 C   0  0  0  0  0  0  0  0  0  0  0  0
  189.9900  177.0350  142.4920 N   0  0  0  0  0  2  0  0  0  0  0  0
  187.9230  177.8790  145.6110 C   0  0  0  0  0  2  0  0  0  0  0  0
  184.1480  178.7590  144.8870 C   0  0  0  0  0  0  0  0  0  0  0  0
  183.2830  178.8470  143.7920 C   0  0  0  0  0  3  0  0  0  0  0  0
  185.9870  178.1820  143.4000 C   0  0  0  0  0  0  0  0  0  0  0  0
  183.7670  178.6150  142.5030 C   0  0  0  0  0  3  0  0  0  0  0  0
  185.4930  178.4350  144.6910 C   0  0  0  0  0  3  0  0  0  0  0  0
  185.1130  178.2900  142.3080 C   0  0  0  0  0  3  0  0  0  0  0  0
  183.6710  178.9930  146.1690 O   0  0  0  0  0  1  0  0  0  0  0  0
  189.3010  176.8210  140.0730 C   0  0  0  0  0  2  0  0  0  0  0  0
  191.4820  177.6970  140.4660 O   0  0  0  0  0  0  0  0  0  0  0  0
  191.3600  175.9880  138.8780 N   0  0  0  0  0  2  0  0  0  0  0  0
  190.7740  176.8660  139.8390 C   0  0  0  0  0  0  0  0  0  0  0  0
  192.7690  176.0510  138.5270 C   0  0  0  0  0  2  0  0  0  0  0  0
  195.4710  175.0890  138.3000 O   0  0  0  0  0  1  0  0  0  0  0  0
  193.1300  174.8700  137.6890 C   0  0  0  0  0  0  0  0  0  0  0  0
  194.4600  174.4220  137.6170 C   0  0  0  0  0  0  0  0  0  0  0  0
  193.7680  172.6100  136.1620 C   0  0  0  0  0  3  0  0  0  0  0  0
  192.4430  173.0530  136.2370 C   0  0  0  0  0  3  0  0  0  0  0  0
  192.1240  174.1800  137.0010 C   0  0  0  0  0  3  0  0  0  0  0  0
  194.7740  173.2940  136.8510 C   0  0  0  0  0  3  0  0  0  0  0  0
  1 10  1  0  0  0  0
  1  8  1  0  0  0  0
  2  7  1  0  0  0  0
  2  6  2  0  0  0  0
  3 14  1  6  0  0  0
  3  9  1  0  0  0  0
  3  7  1  0  0  0  0
  4 12  2  0  0  0  0
  4 14  1  0  0  0  0
  5  8  2  0  0  0  0
  6  5  1  0  0  0  0
  7  1  2  0  0  0  0
  9 15  1  0  0  0  0
 11  2  1  0  0  0  0
 12 13  1  0  0  0  0
 13 18  1  0  0  0  0
 13  9  2  0  0  0  0
 15 10  1  0  0  0  0
 16 22  1  0  0  0  0
 17 16  2  0  0  0  0
 18 20  2  0  0  0  0
 19 17  1  0  0  0  0
 20 16  1  0  0  0  0
 21 19  2  0  0  0  0
 21 18  1  0  0  0  0
 23  4  1  0  0  0  0
 25 26  1  0  0  0  0
 26 23  1  0  0  0  0
 26 24  2  0  0  0  0
 27 25  1  0  0  0  0
 29 27  1  0  0  0  0
 30 29  1  0  0  0  0
 30 28  1  0  0  0  0
 31 32  2  0  0  0  0
 31 34  1  0  0  0  0
 32 33  1  0  0  0  0
 33 29  2  0  0  0  0
 34 30  2  0  0  0  0
M  END
>  <MODEL>
9

>  <REMARK>
 VINA RESULT:      -9.4      3.187      5.040
  Name = 
  5 active torsions:
  status: ('A' for Active; 'I' for Inactive)
    1  A    between atoms: C_3  and  C_13
    2  A    between atoms: C_3  and  N_17
    3  A    between atoms: C_5  and  C_18
    4  A    between atoms: C_12  and  C_28
    5  A    between atoms: C_18  and  C_29
                            x       y       z     vdW  Elec       q    Type
                         _______ _______ _______ _____ _____    ______ ____

>  <TORSDO>
F 5

$$$$
