=
 OpenBabel10272413193D

 32 35  0  0  1  0  0  0  0  0999 V2000
  192.0950  177.2170  140.0070 C   0  0  0  0  0  0  0  0  0  0  0  0
  193.5030  177.3930  139.9050 N   0  0  0  0  0  1  0  0  0  0  0  0
  188.0010  175.6100  143.1770 O   0  0  0  0  0  1  0  0  0  0  0  0
  189.0370  177.5210  139.8060 S   0  0  0  0  0  0  0  0  0  0  0  0
  189.5470  177.1880  142.4440 C   0  0  0  0  0  0  0  0  0  0  0  0
  191.3960  176.4380  138.9590 C   0  0  0  0  0  3  0  0  0  0  0  0
  190.0780  177.4110  141.2520 C   0  0  0  0  0  0  0  0  0  0  0  0
  191.4840  177.5870  141.0960 N   0  0  0  0  0  0  0  0  0  0  0  0
  189.6470  177.0300  143.9360 O   0  0  0  0  0  0  0  0  0  0  0  0
  190.0650  176.3810  138.8430 C   0  0  0  0  0  0  0  0  0  0  0  0
  188.4700  176.9250  143.2560 C   0  0  2  0  0  0  0  0  0  0  0  0
  187.4910  178.0780  143.4550 C   0  0  1  0  0  3  0  0  0  0  0  0
  186.1780  177.7470  142.7690 C   0  0  1  0  0  3  0  0  0  0  0  0
  186.2950  177.6610  144.3010 C   0  0  2  0  0  3  0  0  0  0  0  0
  185.6470  178.7920  145.1370 C   0  0  1  0  0  3  0  0  0  0  0  0
  184.1480  178.6740  145.3920 C   0  0  0  0  0  1  0  0  0  0  0  0
  186.3650  179.0290  146.3820 N   0  0  0  0  0  2  0  0  0  0  0  0
  187.1600  177.5200  146.8510 S   0  0  0  0  0  0  0  0  0  0  0  0
  187.9570  178.2850  148.2950 C   0  0  0  0  0  2  0  0  0  0  0  0
  189.4280  177.9200  148.3280 C   0  0  0  0  0  2  0  0  0  0  0  0
  189.7040  176.8150  147.3240 C   0  0  0  0  0  2  0  0  0  0  0  0
  191.9530  175.8580  147.5710 C   0  0  0  0  0  2  0  0  0  0  0  0
  191.1620  176.7640  146.9960 C   0  0  0  0  0  3  0  0  0  0  0  0
  185.4860  179.2820  142.0650 S   0  0  0  0  0  0  0  0  0  0  0  0
  183.9750  178.4330  141.5340 C   0  0  0  0  0  1  0  0  0  0  0  0
  189.5410  175.4580  137.9130 O   0  0  0  0  0  0  0  0  0  0  0  0
  188.0200  174.4920  136.2330 C   0  0  0  0  0  2  0  0  0  0  0  0
  188.8730  175.6690  136.6550 C   0  0  1  0  0  3  0  0  0  0  0  0
  187.3650  175.7550  136.7770 C   0  0  1  0  0  3  0  0  0  0  0  0
  186.8570  176.5080  135.7180 O   0  0  0  0  0  0  0  0  0  0  0  0
  185.8800  177.8010  137.4580 C   0  0  0  0  0  1  0  0  0  0  0  0
  186.7560  177.8070  136.2230 C   0  0  0  0  0  2  0  0  0  0  0  0
  1  8  2  0  0  0  0
  2  1  1  0  0  0  0
  4  7  1  0  0  0  0
  5 11  1  0  0  0  0
  5  9  1  0  0  0  0
  6  1  1  0  0  0  0
  7  5  2  0  0  0  0
  8  7  1  0  0  0  0
 10  6  2  0  0  0  0
 10  4  1  0  0  0  0
 11  3  1  6  0  0  0
 11  9  1  0  0  0  0
 12 11  1  6  0  0  0
 12 14  1  0  0  0  0
 13 24  1  1  0  0  0
 13 12  1  0  0  0  0
 13 14  1  0  0  0  0
 14 15  1  1  0  0  0
 15 16  1  1  0  0  0
 15 17  1  0  0  0  0
 17 18  1  0  0  0  0
 18 19  1  0  0  0  0
 19 20  1  0  0  0  0
 21 20  1  0  0  0  0
 23 21  1  0  0  0  0
 23 22  2  0  0  0  0
 25 24  1  0  0  0  0
 26 10  1  0  0  0  0
 27 28  1  0  0  0  0
 27 29  1  0  0  0  0
 28 29  1  0  0  0  0
 28 26  1  1  0  0  0
 29 30  1  6  0  0  0
 30 32  1  0  0  0  0
 32 31  1  0  0  0  0
M  END
>  <MODEL>
1

>  <REMARK>
 VINA RESULT:      -6.9      0.000      0.000
  Name = 
  13 active torsions:
  status: ('A' for Active; 'I' for Inactive)
    1  A    between atoms: C_1  and  N_4
    2  A    between atoms: C_1  and  C_30
    3  A    between atoms: C_2  and  C_27
    4  A    between atoms: N_4  and  S_17
    5  A    between atoms: C_5  and  S_14
    6  A    between atoms: C_6  and  S_17
    7  A    between atoms: C_6  and  C_29
    8  A    between atoms: O_7  and  C_26
    9  A    between atoms: O_7  and  C_31
   10  A    between atoms: C_12  and  O_28
   11  A    between atoms: C_18  and  C_25
   12  A    between atoms: C_18  and  C_29
   13  A    between atoms: O_28  and  C_32
                            x       y       z     vdW  Elec       q    Type
                         _______ _______ _______ _____ _____    ______ ____

>  <TORSDO>
F 13

$$$$
=
 OpenBabel10272413193D

 32 35  0  0  1  0  0  0  0  0999 V2000
  192.3150  177.2080  139.8960 C   0  0  0  0  0  0  0  0  0  0  0  0
  193.7200  177.3640  139.7380 N   0  0  0  0  0  1  0  0  0  0  0  0
  188.3440  175.3910  143.1100 O   0  0  0  0  0  1  0  0  0  0  0  0
  189.2600  177.5940  139.8840 S   0  0  0  0  0  0  0  0  0  0  0  0
  189.8910  176.9990  142.4490 C   0  0  0  0  0  0  0  0  0  0  0  0
  191.5450  176.5480  138.8170 C   0  0  0  0  0  3  0  0  0  0  0  0
  190.3680  177.3240  141.2570 C   0  0  0  0  0  0  0  0  0  0  0  0
  191.7690  177.4850  141.0460 N   0  0  0  0  0  0  0  0  0  0  0  0
  190.0620  176.6980  143.9120 O   0  0  0  0  0  0  0  0  0  0  0  0
  190.2090  176.5290  138.7660 C   0  0  0  0  0  0  0  0  0  0  0  0
  188.8500  176.6830  143.2870 C   0  0  2  0  0  0  0  0  0  0  0  0
  187.9120  177.8320  143.6450 C   0  0  1  0  0  3  0  0  0  0  0  0
  186.5350  177.5550  143.0690 C   0  0  1  0  0  3  0  0  0  0  0  0
  186.7950  177.3770  144.5750 C   0  0  2  0  0  3  0  0  0  0  0  0
  186.2470  178.4640  145.5340 C   0  0  1  0  0  3  0  0  0  0  0  0
  184.9470  178.1330  146.2600 C   0  0  0  0  0  1  0  0  0  0  0  0
  187.2610  178.9240  146.4730 N   0  0  0  0  0  2  0  0  0  0  0  0
  187.0880  177.9920  147.9660 S   0  0  0  0  0  0  0  0  0  0  0  0
  188.8850  177.9000  148.2220 C   0  0  0  0  0  2  0  0  0  0  0  0
  189.4800  176.8270  147.3320 C   0  0  0  0  0  2  0  0  0  0  0  0
  190.9760  177.0470  147.1940 C   0  0  0  0  0  2  0  0  0  0  0  0
  192.7930  175.6760  148.1170 C   0  0  0  0  0  2  0  0  0  0  0  0
  191.7080  175.7530  147.3470 C   0  0  0  0  0  3  0  0  0  0  0  0
  185.8040  179.1350  142.5240 S   0  0  0  0  0  0  0  0  0  0  0  0
  184.1820  178.3670  142.2620 C   0  0  0  0  0  1  0  0  0  0  0  0
  189.6160  175.7110  137.7810 O   0  0  0  0  0  0  0  0  0  0  0  0
  189.2250  174.0040  136.0480 C   0  0  0  0  0  2  0  0  0  0  0  0
  189.9910  174.4110  137.2880 C   0  0  1  0  0  3  0  0  0  0  0  0
  190.6780  174.4510  135.9380 C   0  0  1  0  0  3  0  0  0  0  0  0
  191.4990  173.3310  135.8040 O   0  0  0  0  0  0  0  0  0  0  0  0
  193.6390  173.7350  136.7580 C   0  0  0  0  0  1  0  0  0  0  0  0
  192.7660  173.8510  135.5260 C   0  0  0  0  0  2  0  0  0  0  0  0
  1  8  2  0  0  0  0
  2  1  1  0  0  0  0
  4  7  1  0  0  0  0
  5 11  1  0  0  0  0
  5  9  1  0  0  0  0
  6  1  1  0  0  0  0
  7  5  2  0  0  0  0
  8  7  1  0  0  0  0
 10  6  2  0  0  0  0
 10  4  1  0  0  0  0
 11  3  1  6  0  0  0
 11  9  1  0  0  0  0
 12 11  1  6  0  0  0
 12 14  1  0  0  0  0
 13 24  1  1  0  0  0
 13 12  1  0  0  0  0
 13 14  1  0  0  0  0
 14 15  1  1  0  0  0
 15 16  1  1  0  0  0
 15 17  1  0  0  0  0
 17 18  1  0  0  0  0
 18 19  1  0  0  0  0
 20 19  1  0  0  0  0
 21 20  1  0  0  0  0
 21 23  1  0  0  0  0
 23 22  2  0  0  0  0
 25 24  1  0  0  0  0
 26 10  1  0  0  0  0
 27 28  1  0  0  0  0
 28 26  1  6  0  0  0
 29 30  1  1  0  0  0
 29 27  1  0  0  0  0
 29 28  1  0  0  0  0
 32 30  1  0  0  0  0
 32 31  1  0  0  0  0
M  END
>  <MODEL>
2

>  <REMARK>
 VINA RESULT:      -6.3      1.542      2.466
  Name = 
  13 active torsions:
  status: ('A' for Active; 'I' for Inactive)
    1  A    between atoms: C_1  and  N_4
    2  A    between atoms: C_1  and  C_30
    3  A    between atoms: C_2  and  C_27
    4  A    between atoms: N_4  and  S_17
    5  A    between atoms: C_5  and  S_14
    6  A    between atoms: C_6  and  S_17
    7  A    between atoms: C_6  and  C_29
    8  A    between atoms: O_7  and  C_26
    9  A    between atoms: O_7  and  C_31
   10  A    between atoms: C_12  and  O_28
   11  A    between atoms: C_18  and  C_25
   12  A    between atoms: C_18  and  C_29
   13  A    between atoms: O_28  and  C_32
                            x       y       z     vdW  Elec       q    Type
                         _______ _______ _______ _____ _____    ______ ____

>  <TORSDO>
F 13

$$$$
=
 OpenBabel10272413193D

 32 35  0  0  1  0  0  0  0  0999 V2000
  190.8310  176.4570  144.2830 C   0  0  0  0  0  0  0  0  0  0  0  0
  191.9820  176.0660  145.0200 N   0  0  0  0  0  1  0  0  0  0  0  0
  188.9830  179.1590  139.9610 O   0  0  0  0  0  1  0  0  0  0  0  0
  188.0890  176.5620  142.8850 S   0  0  0  0  0  0  0  0  0  0  0  0
  189.8830  177.2730  140.9860 C   0  0  0  0  0  0  0  0  0  0  0  0
  189.7230  177.1330  144.9960 C   0  0  0  0  0  3  0  0  0  0  0  0
  189.7240  176.7730  142.2010 C   0  0  0  0  0  0  0  0  0  0  0  0
  190.8480  176.3740  142.9830 N   0  0  0  0  0  0  0  0  0  0  0  0
  190.7360  177.6730  139.8130 O   0  0  0  0  0  0  0  0  0  0  0  0
  188.5210  177.3580  144.4540 C   0  0  0  0  0  0  0  0  0  0  0  0
  189.3800  177.8250  139.8320 C   0  0  2  0  0  0  0  0  0  0  0  0
  188.6000  176.8750  138.9270 C   0  0  1  0  0  3  0  0  0  0  0  0
  188.0900  177.6390  137.7180 C   0  0  1  0  0  3  0  0  0  0  0  0
  189.2910  176.6860  137.5830 C   0  0  2  0  0  3  0  0  0  0  0  0
  189.0490  175.3160  136.9020 C   0  0  1  0  0  3  0  0  0  0  0  0
  189.0810  175.3020  135.3770 C   0  0  0  0  0  1  0  0  0  0  0  0
  189.9130  174.2770  137.4450 N   0  0  0  0  0  2  0  0  0  0  0  0
  190.5590  173.3390  136.0930 S   0  0  0  0  0  0  0  0  0  0  0  0
  192.2560  173.9250  136.3820 C   0  0  0  0  0  2  0  0  0  0  0  0
  192.3330  174.6510  137.7100 C   0  0  0  0  0  2  0  0  0  0  0  0
  193.1540  175.9190  137.5530 C   0  0  0  0  0  2  0  0  0  0  0  0
  194.6280  176.6420  135.7260 C   0  0  0  0  0  2  0  0  0  0  0  0
  193.4380  176.1790  136.1090 C   0  0  0  0  0  3  0  0  0  0  0  0
  186.4460  176.9880  137.2700 S   0  0  0  0  0  0  0  0  0  0  0  0
  185.6110  178.1540  138.3790 C   0  0  0  0  0  1  0  0  0  0  0  0
  187.6290  178.1700  145.1860 O   0  0  0  0  0  0  0  0  0  0  0  0
  186.0630  178.2780  147.0850 C   0  0  0  0  0  2  0  0  0  0  0  0
  186.2820  177.9220  145.6300 C   0  0  1  0  0  3  0  0  0  0  0  0
  185.5200  179.1830  145.9860 C   0  0  1  0  0  3  0  0  0  0  0  0
  184.1530  178.9560  145.8320 O   0  0  0  0  0  0  0  0  0  0  0  0
  182.5740  178.7880  144.0610 C   0  0  0  0  0  1  0  0  0  0  0  0
  183.8570  179.4270  144.5490 C   0  0  0  0  0  2  0  0  0  0  0  0
  1  6  1  0  0  0  0
  1  2  1  0  0  0  0
  4 10  1  0  0  0  0
  5  7  2  0  0  0  0
  7  4  1  0  0  0  0
  7  8  1  0  0  0  0
  8  1  2  0  0  0  0
  9 11  1  0  0  0  0
  9  5  1  0  0  0  0
 10  6  2  0  0  0  0
 10 26  1  0  0  0  0
 11  3  1  1  0  0  0
 11  5  1  0  0  0  0
 12 11  1  1  0  0  0
 13 24  1  6  0  0  0
 13 12  1  0  0  0  0
 14 15  1  6  0  0  0
 14 13  1  0  0  0  0
 14 12  1  0  0  0  0
 15 16  1  6  0  0  0
 15 17  1  0  0  0  0
 18 19  1  0  0  0  0
 18 17  1  0  0  0  0
 19 20  1  0  0  0  0
 21 20  1  0  0  0  0
 22 23  2  0  0  0  0
 23 21  1  0  0  0  0
 24 25  1  0  0  0  0
 28 26  1  1  0  0  0
 28 29  1  0  0  0  0
 28 27  1  0  0  0  0
 29 30  1  6  0  0  0
 29 27  1  0  0  0  0
 31 32  1  0  0  0  0
 32 30  1  0  0  0  0
M  END
>  <MODEL>
3

>  <REMARK>
 VINA RESULT:      -6.3      2.922      8.241
  Name = 
  13 active torsions:
  status: ('A' for Active; 'I' for Inactive)
    1  A    between atoms: C_1  and  N_4
    2  A    between atoms: C_1  and  C_30
    3  A    between atoms: C_2  and  C_27
    4  A    between atoms: N_4  and  S_17
    5  A    between atoms: C_5  and  S_14
    6  A    between atoms: C_6  and  S_17
    7  A    between atoms: C_6  and  C_29
    8  A    between atoms: O_7  and  C_26
    9  A    between atoms: O_7  and  C_31
   10  A    between atoms: C_12  and  O_28
   11  A    between atoms: C_18  and  C_25
   12  A    between atoms: C_18  and  C_29
   13  A    between atoms: O_28  and  C_32
                            x       y       z     vdW  Elec       q    Type
                         _______ _______ _______ _____ _____    ______ ____

>  <TORSDO>
F 13

$$$$
=
 OpenBabel10272413193D

 32 35  0  0  1  0  0  0  0  0999 V2000
  190.7250  176.4730  144.2750 C   0  0  0  0  0  0  0  0  0  0  0  0
  191.8680  176.0630  145.0160 N   0  0  0  0  0  1  0  0  0  0  0  0
  188.9400  179.2100  139.9480 O   0  0  0  0  0  1  0  0  0  0  0  0
  187.9910  176.6250  142.8650 S   0  0  0  0  0  0  0  0  0  0  0  0
  189.8050  177.3090  140.9740 C   0  0  0  0  0  0  0  0  0  0  0  0
  189.6260  177.1670  144.9840 C   0  0  0  0  0  3  0  0  0  0  0  0
  189.6330  176.8100  142.1890 C   0  0  0  0  0  0  0  0  0  0  0  0
  190.7470  176.3910  142.9750 N   0  0  0  0  0  0  0  0  0  0  0  0
  190.6690  177.6950  139.8060 O   0  0  0  0  0  0  0  0  0  0  0  0
  188.4300  177.4130  144.4370 C   0  0  0  0  0  0  0  0  0  0  0  0
  189.3160  177.8690  139.8200 C   0  0  2  0  0  0  0  0  0  0  0  0
  188.5240  176.9340  138.9100 C   0  0  1  0  0  3  0  0  0  0  0  0
  187.8640  177.7430  137.8090 C   0  0  1  0  0  3  0  0  0  0  0  0
  189.1070  176.8900  137.5040 C   0  0  2  0  0  3  0  0  0  0  0  0
  188.8980  175.5590  136.7410 C   0  0  1  0  0  3  0  0  0  0  0  0
  189.2150  175.5750  135.2490 C   0  0  0  0  0  1  0  0  0  0  0  0
  189.5640  174.4430  137.3980 N   0  0  0  0  0  2  0  0  0  0  0  0
  189.5310  173.0600  136.2960 S   0  0  0  0  0  0  0  0  0  0  0  0
  187.9740  172.4300  136.9900 C   0  0  0  0  0  2  0  0  0  0  0  0
  186.8840  172.4720  135.9380 C   0  0  0  0  0  2  0  0  0  0  0  0
  185.7540  173.3720  136.4060 C   0  0  0  0  0  2  0  0  0  0  0  0
  183.8360  172.0390  137.1670 C   0  0  0  0  0  2  0  0  0  0  0  0
  184.9570  172.6920  137.4730 C   0  0  0  0  0  3  0  0  0  0  0  0
  186.2330  177.0100  137.4470 S   0  0  0  0  0  0  0  0  0  0  0  0
  185.3690  178.3420  138.3240 C   0  0  0  0  0  1  0  0  0  0  0  0
  187.5480  178.2380  145.1660 O   0  0  0  0  0  0  0  0  0  0  0  0
  186.0500  178.7480  147.0540 C   0  0  0  0  0  2  0  0  0  0  0  0
  186.2880  177.9410  145.7960 C   0  0  1  0  0  3  0  0  0  0  0  0
  185.3100  179.0990  145.7690 C   0  0  1  0  0  3  0  0  0  0  0  0
  184.0070  178.6050  145.8340 O   0  0  0  0  0  0  0  0  0  0  0  0
  184.0390  178.8100  143.4650 C   0  0  0  0  0  1  0  0  0  0  0  0
  183.3480  179.2000  144.7540 C   0  0  0  0  0  2  0  0  0  0  0  0
  1  6  1  0  0  0  0
  1  2  1  0  0  0  0
  4 10  1  0  0  0  0
  5  7  2  0  0  0  0
  7  4  1  0  0  0  0
  7  8  1  0  0  0  0
  8  1  2  0  0  0  0
  9 11  1  0  0  0  0
  9  5  1  0  0  0  0
 10  6  2  0  0  0  0
 10 26  1  0  0  0  0
 11  3  1  1  0  0  0
 11  5  1  0  0  0  0
 12 11  1  1  0  0  0
 13 24  1  6  0  0  0
 13 12  1  0  0  0  0
 14 15  1  6  0  0  0
 14 13  1  0  0  0  0
 14 12  1  0  0  0  0
 15 16  1  6  0  0  0
 15 17  1  0  0  0  0
 18 19  1  0  0  0  0
 18 17  1  0  0  0  0
 20 21  1  0  0  0  0
 20 19  1  0  0  0  0
 21 23  1  0  0  0  0
 22 23  2  0  0  0  0
 24 25  1  0  0  0  0
 28 26  1  6  0  0  0
 28 27  1  0  0  0  0
 29 28  1  0  0  0  0
 29 30  1  1  0  0  0
 29 27  1  0  0  0  0
 31 32  1  0  0  0  0
 32 30  1  0  0  0  0
M  END
>  <MODEL>
4

>  <REMARK>
 VINA RESULT:      -6.1      2.898      8.470
  Name = 
  13 active torsions:
  status: ('A' for Active; 'I' for Inactive)
    1  A    between atoms: C_1  and  N_4
    2  A    between atoms: C_1  and  C_30
    3  A    between atoms: C_2  and  C_27
    4  A    between atoms: N_4  and  S_17
    5  A    between atoms: C_5  and  S_14
    6  A    between atoms: C_6  and  S_17
    7  A    between atoms: C_6  and  C_29
    8  A    between atoms: O_7  and  C_26
    9  A    between atoms: O_7  and  C_31
   10  A    between atoms: C_12  and  O_28
   11  A    between atoms: C_18  and  C_25
   12  A    between atoms: C_18  and  C_29
   13  A    between atoms: O_28  and  C_32
                            x       y       z     vdW  Elec       q    Type
                         _______ _______ _______ _____ _____    ______ ____

>  <TORSDO>
F 13

$$$$
=
 OpenBabel10272413193D

 32 35  0  0  1  0  0  0  0  0999 V2000
  188.8630  178.1600  139.6290 C   0  0  0  0  0  0  0  0  0  0  0  0
  187.9200  178.7870  138.7700 N   0  0  0  0  0  1  0  0  0  0  0  0
  191.9800  178.7240  144.0290 O   0  0  0  0  0  1  0  0  0  0  0  0
  190.4420  176.1580  141.3570 S   0  0  0  0  0  0  0  0  0  0  0  0
  189.9530  178.2680  142.9810 C   0  0  0  0  0  0  0  0  0  0  0  0
  190.0710  177.5420  139.0330 C   0  0  0  0  0  3  0  0  0  0  0  0
  189.6720  177.7010  141.8180 C   0  0  0  0  0  0  0  0  0  0  0  0
  188.7390  178.2940  140.9190 N   0  0  0  0  0  0  0  0  0  0  0  0
  189.7610  179.3400  144.0180 O   0  0  0  0  0  0  0  0  0  0  0  0
  190.9130  176.7570  139.7130 C   0  0  0  0  0  0  0  0  0  0  0  0
  190.6500  178.3160  144.1640 C   0  0  2  0  0  0  0  0  0  0  0  0
  190.2720  177.2610  145.2010 C   0  0  1  0  0  3  0  0  0  0  0  0
  191.3370  177.2140  146.2820 C   0  0  1  0  0  3  0  0  0  0  0  0
  189.9800  177.8860  146.5580 C   0  0  2  0  0  3  0  0  0  0  0  0
  188.9620  177.1180  147.4370 C   0  0  1  0  0  3  0  0  0  0  0  0
  188.4890  177.8260  148.7030 C   0  0  0  0  0  1  0  0  0  0  0  0
  187.8280  176.6350  146.6610 N   0  0  0  0  0  2  0  0  0  0  0  0
  186.8240  178.0260  146.2340 S   0  0  0  0  0  0  0  0  0  0  0  0
  186.6700  177.4970  144.5030 C   0  0  0  0  0  2  0  0  0  0  0  0
  185.4760  178.1730  143.8590 C   0  0  0  0  0  2  0  0  0  0  0  0
  184.6340  178.8510  144.9250 C   0  0  0  0  0  2  0  0  0  0  0  0
  182.4600  178.8350  143.7820 C   0  0  0  0  0  2  0  0  0  0  0  0
  183.4640  179.5410  144.3020 C   0  0  0  0  0  3  0  0  0  0  0  0
  191.5420  175.4840  146.8220 S   0  0  0  0  0  0  0  0  0  0  0  0
  192.7280  175.9590  148.1080 C   0  0  0  0  0  1  0  0  0  0  0  0
  192.1110  176.3900  139.0650 O   0  0  0  0  0  0  0  0  0  0  0  0
  193.3130  176.2750  136.9170 C   0  0  0  0  0  2  0  0  0  0  0  0
  192.3360  175.6200  137.8690 C   0  0  1  0  0  3  0  0  0  0  0  0
  193.7460  175.0780  137.7540 C   0  0  1  0  0  3  0  0  0  0  0  0
  193.7370  173.9300  136.9610 O   0  0  0  0  0  0  0  0  0  0  0  0
  195.3650  173.5670  138.6560 C   0  0  0  0  0  1  0  0  0  0  0  0
  194.9630  173.3100  137.2190 C   0  0  0  0  0  2  0  0  0  0  0  0
  1  8  2  0  0  0  0
  2  1  1  0  0  0  0
  4  7  1  0  0  0  0
  5  9  1  0  0  0  0
  5 11  1  0  0  0  0
  6  1  1  0  0  0  0
  6 10  2  0  0  0  0
  7  5  2  0  0  0  0
  8  7  1  0  0  0  0
  9 11  1  0  0  0  0
 10  4  1  0  0  0  0
 11  3  1  6  0  0  0
 12 11  1  6  0  0  0
 12 13  1  0  0  0  0
 12 14  1  0  0  0  0
 13 14  1  0  0  0  0
 13 24  1  1  0  0  0
 14 15  1  1  0  0  0
 15 16  1  1  0  0  0
 17 15  1  0  0  0  0
 18 17  1  0  0  0  0
 19 18  1  0  0  0  0
 20 19  1  0  0  0  0
 20 21  1  0  0  0  0
 22 23  2  0  0  0  0
 23 21  1  0  0  0  0
 24 25  1  0  0  0  0
 26 10  1  0  0  0  0
 27 29  1  0  0  0  0
 27 28  1  0  0  0  0
 28 26  1  1  0  0  0
 29 30  1  6  0  0  0
 29 28  1  0  0  0  0
 30 32  1  0  0  0  0
 32 31  1  0  0  0  0
M  END
>  <MODEL>
5

>  <REMARK>
 VINA RESULT:      -6.0      2.756      5.751
  Name = 
  13 active torsions:
  status: ('A' for Active; 'I' for Inactive)
    1  A    between atoms: C_1  and  N_4
    2  A    between atoms: C_1  and  C_30
    3  A    between atoms: C_2  and  C_27
    4  A    between atoms: N_4  and  S_17
    5  A    between atoms: C_5  and  S_14
    6  A    between atoms: C_6  and  S_17
    7  A    between atoms: C_6  and  C_29
    8  A    between atoms: O_7  and  C_26
    9  A    between atoms: O_7  and  C_31
   10  A    between atoms: C_12  and  O_28
   11  A    between atoms: C_18  and  C_25
   12  A    between atoms: C_18  and  C_29
   13  A    between atoms: O_28  and  C_32
                            x       y       z     vdW  Elec       q    Type
                         _______ _______ _______ _____ _____    ______ ____

>  <TORSDO>
F 13

$$$$
=
 OpenBabel10272413193D

 32 35  0  0  1  0  0  0  0  0999 V2000
  190.9050  174.4000  136.6100 C   0  0  0  0  0  0  0  0  0  0  0  0
  190.5880  173.1940  135.9270 N   0  0  0  0  0  1  0  0  0  0  0  0
  189.3080  179.4550  137.7470 O   0  0  0  0  0  1  0  0  0  0  0  0
  191.8720  176.5020  138.6430 S   0  0  0  0  0  0  0  0  0  0  0  0
  189.2980  177.1570  138.1120 C   0  0  0  0  0  0  0  0  0  0  0  0
  192.2260  175.0280  136.3720 C   0  0  0  0  0  3  0  0  0  0  0  0
  190.2410  176.2390  137.9650 C   0  0  0  0  0  0  0  0  0  0  0  0
  189.9750  175.0160  137.2820 N   0  0  0  0  0  0  0  0  0  0  0  0
  187.8880  177.6530  137.9460 O   0  0  0  0  0  0  0  0  0  0  0  0
  192.7070  176.0390  137.1030 C   0  0  0  0  0  0  0  0  0  0  0  0
  188.8710  178.3900  138.5400 C   0  0  2  0  0  0  0  0  0  0  0  0
  188.7410  178.5600  140.0510 C   0  0  1  0  0  3  0  0  0  0  0  0
  187.3700  178.0840  140.4950 C   0  0  1  0  0  3  0  0  0  0  0  0
  188.6140  177.2180  140.7590 C   0  0  2  0  0  3  0  0  0  0  0  0
  189.1680  177.1760  142.2050 C   0  0  1  0  0  3  0  0  0  0  0  0
  188.9670  175.8720  142.9710 C   0  0  0  0  0  1  0  0  0  0  0  0
  190.5590  177.6020  142.2680 N   0  0  0  0  0  2  0  0  0  0  0  0
  191.4210  176.5010  143.3500 S   0  0  0  0  0  0  0  0  0  0  0  0
  191.3590  177.6720  144.7380 C   0  0  0  0  0  2  0  0  0  0  0  0
  190.5090  177.1040  145.8570 C   0  0  0  0  0  2  0  0  0  0  0  0
  189.3600  178.0500  146.1580 C   0  0  0  0  0  2  0  0  0  0  0  0
  187.0050  177.6690  145.5720 C   0  0  0  0  0  2  0  0  0  0  0  0
  188.0770  177.2910  146.2690 C   0  0  0  0  0  3  0  0  0  0  0  0
  186.7910  179.1580  141.8510 S   0  0  0  0  0  0  0  0  0  0  0  0
  185.2800  178.1790  142.0670 C   0  0  0  0  0  1  0  0  0  0  0  0
  193.8950  176.6510  136.6480 O   0  0  0  0  0  0  0  0  0  0  0  0
  195.4110  177.7380  135.0390 C   0  0  0  0  0  2  0  0  0  0  0  0
  194.6110  176.5070  135.4070 C   0  0  1  0  0  3  0  0  0  0  0  0
  196.1170  176.4980  135.5750 C   0  0  1  0  0  3  0  0  0  0  0  0
  196.6950  175.7990  134.5150 O   0  0  0  0  0  0  0  0  0  0  0  0
  197.5510  174.9230  136.5530 C   0  0  0  0  0  1  0  0  0  0  0  0
  197.7980  175.1500  135.0770 C   0  0  0  0  0  2  0  0  0  0  0  0
  1  8  2  0  0  0  0
  2  1  1  0  0  0  0
  5 11  1  0  0  0  0
  6  1  1  0  0  0  0
  6 10  2  0  0  0  0
  7  5  2  0  0  0  0
  7  4  1  0  0  0  0
  8  7  1  0  0  0  0
  9  5  1  0  0  0  0
  9 11  1  0  0  0  0
 10  4  1  0  0  0  0
 11  3  1  6  0  0  0
 12 11  1  6  0  0  0
 12 13  1  0  0  0  0
 12 14  1  0  0  0  0
 13 14  1  0  0  0  0
 13 24  1  1  0  0  0
 14 15  1  1  0  0  0
 15 17  1  0  0  0  0
 15 16  1  6  0  0  0
 17 18  1  0  0  0  0
 18 19  1  0  0  0  0
 19 20  1  0  0  0  0
 20 21  1  0  0  0  0
 21 23  1  0  0  0  0
 22 23  2  0  0  0  0
 24 25  1  0  0  0  0
 26 10  1  0  0  0  0
 27 28  1  0  0  0  0
 27 29  1  0  0  0  0
 28 29  1  0  0  0  0
 28 26  1  1  0  0  0
 29 30  1  6  0  0  0
 30 32  1  0  0  0  0
 32 31  1  0  0  0  0
M  END
>  <MODEL>
6

>  <REMARK>
 VINA RESULT:      -5.5      3.804      5.815
  Name = 
  13 active torsions:
  status: ('A' for Active; 'I' for Inactive)
    1  A    between atoms: C_1  and  N_4
    2  A    between atoms: C_1  and  C_30
    3  A    between atoms: C_2  and  C_27
    4  A    between atoms: N_4  and  S_17
    5  A    between atoms: C_5  and  S_14
    6  A    between atoms: C_6  and  S_17
    7  A    between atoms: C_6  and  C_29
    8  A    between atoms: O_7  and  C_26
    9  A    between atoms: O_7  and  C_31
   10  A    between atoms: C_12  and  O_28
   11  A    between atoms: C_18  and  C_25
   12  A    between atoms: C_18  and  C_29
   13  A    between atoms: O_28  and  C_32
                            x       y       z     vdW  Elec       q    Type
                         _______ _______ _______ _____ _____    ______ ____

>  <TORSDO>
F 13

$$$$
=
 OpenBabel10272413193D

 32 35  0  0  1  0  0  0  0  0999 V2000
  192.0780  176.8360  138.8220 C   0  0  0  0  0  0  0  0  0  0  0  0
  193.4700  176.5920  138.6590 N   0  0  0  0  0  1  0  0  0  0  0  0
  187.7570  179.5370  136.9720 O   0  0  0  0  0  1  0  0  0  0  0  0
  189.0550  176.5760  139.3480 S   0  0  0  0  0  0  0  0  0  0  0  0
  189.2560  177.7580  136.9200 C   0  0  0  0  0  0  0  0  0  0  0  0
  191.5770  177.2400  140.1560 C   0  0  0  0  0  3  0  0  0  0  0  0
  189.9130  177.1320  137.8840 C   0  0  0  0  0  0  0  0  0  0  0  0
  191.3100  176.8710  137.7710 N   0  0  0  0  0  0  0  0  0  0  0  0
  189.1820  178.4030  135.5630 O   0  0  0  0  0  0  0  0  0  0  0  0
  190.2790  177.2960  140.4730 C   0  0  0  0  0  0  0  0  0  0  0  0
  188.1090  178.3100  136.4020 C   0  0  2  0  0  0  0  0  0  0  0  0
  187.0280  177.3210  135.9780 C   0  0  1  0  0  3  0  0  0  0  0  0
  187.3690  175.9420  136.5150 C   0  0  1  0  0  3  0  0  0  0  0  0
  186.2600  176.7800  137.1770 C   0  0  2  0  0  3  0  0  0  0  0  0
  184.7900  176.3780  136.8960 C   0  0  1  0  0  3  0  0  0  0  0  0
  184.2350  175.2220  137.7210 C   0  0  0  0  0  1  0  0  0  0  0  0
  183.8930  177.5250  136.9450 N   0  0  0  0  0  2  0  0  0  0  0  0
  182.8600  177.3520  138.3690 S   0  0  0  0  0  0  0  0  0  0  0  0
  183.8720  178.4970  139.3520 C   0  0  0  0  0  2  0  0  0  0  0  0
  183.8090  178.1160  140.8180 C   0  0  0  0  0  2  0  0  0  0  0  0
  184.9020  178.8410  141.5830 C   0  0  0  0  0  2  0  0  0  0  0  0
  184.5580  178.6510  144.0080 C   0  0  0  0  0  2  0  0  0  0  0  0
  185.1370  178.1800  142.9040 C   0  0  0  0  0  3  0  0  0  0  0  0
  186.8590  174.6960  135.2850 S   0  0  0  0  0  0  0  0  0  0  0  0
  187.2190  173.3320  136.4240 C   0  0  0  0  0  1  0  0  0  0  0  0
  189.9470  177.8700  141.7190 O   0  0  0  0  0  0  0  0  0  0  0  0
  188.6210  176.2660  143.0370 C   0  0  0  0  0  2  0  0  0  0  0  0
  188.7910  177.6910  142.5580 C   0  0  1  0  0  3  0  0  0  0  0  0
  189.1310  177.3380  143.9920 C   0  0  1  0  0  3  0  0  0  0  0  0
  188.0930  177.7470  144.8280 O   0  0  0  0  0  0  0  0  0  0  0  0
  187.5190  177.8990  147.1300 C   0  0  0  0  0  1  0  0  0  0  0  0
  188.6200  177.6580  146.1190 C   0  0  0  0  0  2  0  0  0  0  0  0
  1  6  1  0  0  0  0
  2  1  1  0  0  0  0
  4 10  1  0  0  0  0
  5  7  2  0  0  0  0
  6 10  2  0  0  0  0
  7  4  1  0  0  0  0
  8  7  1  0  0  0  0
  8  1  2  0  0  0  0
  9 11  1  0  0  0  0
  9  5  1  0  0  0  0
 10 26  1  0  0  0  0
 11  5  1  0  0  0  0
 11  3  1  1  0  0  0
 12 11  1  1  0  0  0
 12 13  1  0  0  0  0
 12 14  1  0  0  0  0
 13 24  1  6  0  0  0
 13 14  1  0  0  0  0
 14 15  1  6  0  0  0
 15 17  1  0  0  0  0
 15 16  1  1  0  0  0
 17 18  1  0  0  0  0
 18 19  1  0  0  0  0
 19 20  1  0  0  0  0
 20 21  1  0  0  0  0
 21 23  1  0  0  0  0
 23 22  2  0  0  0  0
 24 25  1  0  0  0  0
 27 29  1  0  0  0  0
 28 26  1  6  0  0  0
 28 27  1  0  0  0  0
 28 29  1  0  0  0  0
 29 30  1  1  0  0  0
 30 32  1  0  0  0  0
 32 31  1  0  0  0  0
M  END
>  <MODEL>
7

>  <REMARK>
 VINA RESULT:      -5.3      3.005      7.250
  Name = 
  13 active torsions:
  status: ('A' for Active; 'I' for Inactive)
    1  A    between atoms: C_1  and  N_4
    2  A    between atoms: C_1  and  C_30
    3  A    between atoms: C_2  and  C_27
    4  A    between atoms: N_4  and  S_17
    5  A    between atoms: C_5  and  S_14
    6  A    between atoms: C_6  and  S_17
    7  A    between atoms: C_6  and  C_29
    8  A    between atoms: O_7  and  C_26
    9  A    between atoms: O_7  and  C_31
   10  A    between atoms: C_12  and  O_28
   11  A    between atoms: C_18  and  C_25
   12  A    between atoms: C_18  and  C_29
   13  A    between atoms: O_28  and  C_32
                            x       y       z     vdW  Elec       q    Type
                         _______ _______ _______ _____ _____    ______ ____

>  <TORSDO>
F 13

$$$$
=
 OpenBabel10272413193D

 32 35  0  0  1  0  0  0  0  0999 V2000
  183.4820  178.9510  138.3560 C   0  0  0  0  0  0  0  0  0  0  0  0
  182.6670  179.9770  138.9080 N   0  0  0  0  0  1  0  0  0  0  0  0
  188.1350  177.8040  135.8220 O   0  0  0  0  0  1  0  0  0  0  0  0
  184.9770  176.3170  137.7980 S   0  0  0  0  0  0  0  0  0  0  0  0
  186.8790  178.2420  137.7310 C   0  0  0  0  0  0  0  0  0  0  0  0
  182.8860  178.0190  137.3710 C   0  0  0  0  0  3  0  0  0  0  0  0
  185.6220  177.9630  138.0400 C   0  0  0  0  0  0  0  0  0  0  0  0
  184.7630  178.9600  138.5900 N   0  0  0  0  0  0  0  0  0  0  0  0
  188.0590  179.1740  137.6710 O   0  0  0  0  0  0  0  0  0  0  0  0
  183.4910  176.9050  136.9450 C   0  0  0  0  0  0  0  0  0  0  0  0
  188.1030  177.8880  137.2170 C   0  0  2  0  0  0  0  0  0  0  0  0
  188.9250  176.9200  138.0640 C   0  0  1  0  0  3  0  0  0  0  0  0
  190.3770  176.9760  137.6240 C   0  0  1  0  0  3  0  0  0  0  0  0
  189.9370  177.6540  138.9330 C   0  0  2  0  0  3  0  0  0  0  0  0
  190.2990  176.9520  140.2650 C   0  0  1  0  0  3  0  0  0  0  0  0
  191.6600  177.2930  140.8630 C   0  0  0  0  0  1  0  0  0  0  0  0
  189.2470  177.0970  141.2620 N   0  0  0  0  0  2  0  0  0  0  0  0
  189.7130  176.1640  142.6900 S   0  0  0  0  0  0  0  0  0  0  0  0
  189.6590  177.6240  143.7710 C   0  0  0  0  0  2  0  0  0  0  0  0
  188.8290  177.3240  145.0040 C   0  0  0  0  0  2  0  0  0  0  0  0
  187.3730  177.6600  144.7360 C   0  0  0  0  0  2  0  0  0  0  0  0
  185.4530  178.4190  146.0670 C   0  0  0  0  0  2  0  0  0  0  0  0
  186.6220  177.7790  146.0230 C   0  0  0  0  0  3  0  0  0  0  0  0
  191.0850  175.2990  137.7440 S   0  0  0  0  0  0  0  0  0  0  0  0
  192.7520  175.9080  137.3690 C   0  0  0  0  0  1  0  0  0  0  0  0
  182.8830  176.2150  135.8750 O   0  0  0  0  0  0  0  0  0  0  0  0
  182.2390  174.3900  134.3500 C   0  0  0  0  0  2  0  0  0  0  0  0
  182.4140  174.8570  135.7790 C   0  0  1  0  0  3  0  0  0  0  0  0
  183.4270  173.9070  135.1720 C   0  0  1  0  0  3  0  0  0  0  0  0
  183.1790  172.6130  135.6290 O   0  0  0  0  0  0  0  0  0  0  0  0
  185.2430  172.5310  136.8080 C   0  0  0  0  0  1  0  0  0  0  0  0
  183.7330  172.5770  136.9120 C   0  0  0  0  0  2  0  0  0  0  0  0
  1  8  2  0  0  0  0
  1  2  1  0  0  0  0
  4  7  1  0  0  0  0
  5  7  2  0  0  0  0
  6  1  1  0  0  0  0
  7  8  1  0  0  0  0
  9  5  1  0  0  0  0
 10  6  2  0  0  0  0
 10  4  1  0  0  0  0
 11  3  1  6  0  0  0
 11  9  1  0  0  0  0
 11  5  1  0  0  0  0
 12 11  1  6  0  0  0
 12 14  1  0  0  0  0
 13 24  1  1  0  0  0
 13 12  1  0  0  0  0
 13 14  1  0  0  0  0
 14 15  1  1  0  0  0
 15 16  1  1  0  0  0
 15 17  1  0  0  0  0
 17 18  1  0  0  0  0
 18 19  1  0  0  0  0
 19 20  1  0  0  0  0
 21 20  1  0  0  0  0
 21 23  1  0  0  0  0
 23 22  2  0  0  0  0
 25 24  1  0  0  0  0
 26 10  1  0  0  0  0
 27 29  1  0  0  0  0
 27 28  1  0  0  0  0
 28 26  1  6  0  0  0
 29 30  1  1  0  0  0
 29 28  1  0  0  0  0
 30 32  1  0  0  0  0
 31 32  1  0  0  0  0
M  END
>  <MODEL>
8

>  <REMARK>
 VINA RESULT:      -5.3      3.535      6.738
  Name = 
  13 active torsions:
  status: ('A' for Active; 'I' for Inactive)
    1  A    between atoms: C_1  and  N_4
    2  A    between atoms: C_1  and  C_30
    3  A    between atoms: C_2  and  C_27
    4  A    between atoms: N_4  and  S_17
    5  A    between atoms: C_5  and  S_14
    6  A    between atoms: C_6  and  S_17
    7  A    between atoms: C_6  and  C_29
    8  A    between atoms: O_7  and  C_26
    9  A    between atoms: O_7  and  C_31
   10  A    between atoms: C_12  and  O_28
   11  A    between atoms: C_18  and  C_25
   12  A    between atoms: C_18  and  C_29
   13  A    between atoms: O_28  and  C_32
                            x       y       z     vdW  Elec       q    Type
                         _______ _______ _______ _____ _____    ______ ____

>  <TORSDO>
F 13

$$$$
=
 OpenBabel10272413193D

 32 35  0  0  1  0  0  0  0  0999 V2000
  187.2470  178.1750  146.8570 C   0  0  0  0  0  0  0  0  0  0  0  0
  186.0660  178.4900  147.5840 N   0  0  0  0  0  1  0  0  0  0  0  0
  189.3950  175.1750  142.8840 O   0  0  0  0  0  1  0  0  0  0  0  0
  189.9370  178.2840  145.3610 S   0  0  0  0  0  0  0  0  0  0  0  0
  188.2330  177.0320  143.6700 C   0  0  0  0  0  0  0  0  0  0  0  0
  188.4650  177.7900  147.6070 C   0  0  0  0  0  3  0  0  0  0  0  0
  188.3390  177.7260  144.7920 C   0  0  0  0  0  0  0  0  0  0  0  0
  187.1860  178.0600  145.5610 N   0  0  0  0  0  0  0  0  0  0  0  0
  187.4260  176.3370  142.6080 O   0  0  0  0  0  0  0  0  0  0  0  0
  189.6730  177.6720  147.0470 C   0  0  0  0  0  0  0  0  0  0  0  0
  188.7890  176.3990  142.5850 C   0  0  2  0  0  0  0  0  0  0  0  0
  189.3870  177.3110  141.5180 C   0  0  1  0  0  3  0  0  0  0  0  0
  190.4490  176.5510  140.7440 C   0  0  1  0  0  3  0  0  0  0  0  0
  189.0710  176.8160  140.1130 C   0  0  2  0  0  3  0  0  0  0  0  0
  188.9760  177.9170  139.0270 C   0  0  1  0  0  3  0  0  0  0  0  0
  189.1710  177.4650  137.5840 C   0  0  0  0  0  1  0  0  0  0  0  0
  187.7610  178.7100  139.1600 N   0  0  0  0  0  2  0  0  0  0  0  0
  186.5630  178.0700  138.0280 S   0  0  0  0  0  0  0  0  0  0  0  0
  185.1690  178.5870  139.0730 C   0  0  0  0  0  2  0  0  0  0  0  0
  185.6480  178.8350  140.4900 C   0  0  0  0  0  2  0  0  0  0  0  0
  184.4730  178.7590  141.4480 C   0  0  0  0  0  2  0  0  0  0  0  0
  184.0830  178.7830  143.8740 C   0  0  0  0  0  2  0  0  0  0  0  0
  184.9510  178.8270  142.8630 C   0  0  0  0  0  3  0  0  0  0  0  0
  191.8000  177.7030  140.3250 S   0  0  0  0  0  0  0  0  0  0  0  0
  192.4770  176.5600  139.0910 C   0  0  0  0  0  1  0  0  0  0  0  0
  190.7000  177.1250  147.8440 O   0  0  0  0  0  0  0  0  0  0  0  0
  192.4510  175.5010  148.4500 C   0  0  0  0  0  2  0  0  0  0  0  0
  191.9730  176.5600  147.4800 C   0  0  1  0  0  3  0  0  0  0  0  0
  191.8980  175.0980  147.0880 C   0  0  1  0  0  3  0  0  0  0  0  0
  192.9540  174.7950  146.2300 O   0  0  0  0  0  0  0  0  0  0  0  0
  191.9940  175.4420  144.1530 C   0  0  0  0  0  1  0  0  0  0  0  0
  192.3420  174.2940  145.0770 C   0  0  0  0  0  2  0  0  0  0  0  0
  1  2  1  0  0  0  0
  1  6  1  0  0  0  0
  4 10  1  0  0  0  0
  5  7  2  0  0  0  0
  7  4  1  0  0  0  0
  7  8  1  0  0  0  0
  8  1  2  0  0  0  0
  9  5  1  0  0  0  0
 10  6  2  0  0  0  0
 10 26  1  0  0  0  0
 11  9  1  0  0  0  0
 11  3  1  1  0  0  0
 11  5  1  0  0  0  0
 12 11  1  1  0  0  0
 13 24  1  6  0  0  0
 13 12  1  0  0  0  0
 14 15  1  6  0  0  0
 14 13  1  0  0  0  0
 14 12  1  0  0  0  0
 15 16  1  6  0  0  0
 15 17  1  0  0  0  0
 18 19  1  0  0  0  0
 18 17  1  0  0  0  0
 19 20  1  0  0  0  0
 20 21  1  0  0  0  0
 21 23  1  0  0  0  0
 23 22  2  0  0  0  0
 25 24  1  0  0  0  0
 28 26  1  1  0  0  0
 28 27  1  0  0  0  0
 29 30  1  6  0  0  0
 29 28  1  0  0  0  0
 29 27  1  0  0  0  0
 31 32  1  0  0  0  0
 32 30  1  0  0  0  0
M  END
>  <MODEL>
9

>  <REMARK>
 VINA RESULT:      -5.3      2.702      8.221
  Name = 
  13 active torsions:
  status: ('A' for Active; 'I' for Inactive)
    1  A    between atoms: C_1  and  N_4
    2  A    between atoms: C_1  and  C_30
    3  A    between atoms: C_2  and  C_27
    4  A    between atoms: N_4  and  S_17
    5  A    between atoms: C_5  and  S_14
    6  A    between atoms: C_6  and  S_17
    7  A    between atoms: C_6  and  C_29
    8  A    between atoms: O_7  and  C_26
    9  A    between atoms: O_7  and  C_31
   10  A    between atoms: C_12  and  O_28
   11  A    between atoms: C_18  and  C_25
   12  A    between atoms: C_18  and  C_29
   13  A    between atoms: O_28  and  C_32
                            x       y       z     vdW  Elec       q    Type
                         _______ _______ _______ _____ _____    ______ ____

>  <TORSDO>
F 13

$$$$
