=
 OpenBabel10272400213D

 31 35  0  0  1  0  0  0  0  0999 V2000
  185.0760  178.5750  145.0270 C   0  0  0  0  0  0  0  0  0  0  0  0
  187.9820  177.1500  142.9480 C   0  0  1  0  0  3  0  0  0  0  0  0
  189.0870  176.8990  143.9840 C   0  0  0  0  0  0  0  0  0  0  0  0
  189.5330  177.6740  146.2910 C   0  0  0  0  0  3  0  0  0  0  0  0
  186.7600  177.9570  143.3770 C   0  0  0  0  0  0  0  0  0  0  0  0
  184.4050  179.3380  144.0710 C   0  0  0  0  0  3  0  0  0  0  0  0
  188.7410  176.7460  145.4340 C   0  0  0  0  0  2  0  0  0  0  0  0
  187.5260  177.9030  140.5890 C   0  0  2  0  0  3  0  0  0  0  0  0
  184.5540  178.4970  146.4160 C   0  0  0  0  0  1  0  0  0  0  0  0
  190.5750  176.3790  142.0990 C   0  0  0  0  0  3  0  0  0  0  0  0
  190.8540  177.5760  146.4120 C   0  0  0  0  0  3  0  0  0  0  0  0
  186.4760  178.7360  141.0770 O   0  0  0  0  0  0  0  0  0  0  0  0
  188.5950  177.7460  141.6650 C   0  0  2  0  0  3  0  0  0  0  0  0
  186.2350  177.8800  144.6770 C   0  0  0  0  0  3  0  0  0  0  0  0
  191.6870  176.6150  145.6680 C   0  0  0  0  0  3  0  0  0  0  0  0
  186.0420  178.6910  142.4050 C   0  0  0  0  0  0  0  0  0  0  0  0
  184.8850  179.3910  142.7610 C   0  0  0  0  0  3  0  0  0  0  0  0
  189.7500  176.9120  141.2000 C   0  0  0  0  0  3  0  0  0  0  0  0
  190.3160  176.5140  143.5480 C   0  0  0  0  0  0  0  0  0  0  0  0
  191.4440  176.1510  144.4360 C   0  0  0  0  0  3  0  0  0  0  0  0
  186.9930  177.0690  137.9140 O   0  0  0  0  0  0  0  0  0  0  0  0
  187.7810  178.0410  138.0770 C   0  0  0  0  0  0  0  0  0  0  0  0
  188.0970  178.5030  139.3910 N   0  0  0  0  0  2  0  0  0  0  0  0
  188.9600  179.9500  137.2820 O   0  0  0  0  0  1  0  0  0  0  0  0
  188.3650  178.7450  136.8950 C   0  0  1  0  0  3  0  0  0  0  0  0
  190.2470  175.7230  136.5320 C   0  0  2  0  0  3  0  0  0  0  0  0
  188.6620  176.8920  135.1940 C   0  0  0  0  0  2  0  0  0  0  0  0
  191.5870  175.3660  136.3920 O   0  0  0  0  0  1  0  0  0  0  0  0
  189.5690  175.6960  135.1810 C   0  0  0  0  0  2  0  0  0  0  0  0
  189.3500  177.8540  136.1400 C   0  0  2  0  0  3  0  0  0  0  0  0
  190.1500  177.0730  137.0770 N   0  0  0  0  0  2  0  0  0  0  0  0
  1  9  1  0  0  0  0
  2  5  1  1  0  0  0
  2  3  1  0  0  0  0
  3  7  1  0  0  0  0
  4 11  2  0  0  0  0
  5 14  2  0  0  0  0
  6  1  2  0  0  0  0
  7  4  1  0  0  0  0
  8 23  1  6  0  0  0
  8 12  1  0  0  0  0
  8 13  1  0  0  0  0
 10 19  1  0  0  0  0
 12 16  1  0  0  0  0
 13 18  1  6  0  0  0
 13  2  1  0  0  0  0
 14  1  1  0  0  0  0
 15 11  1  0  0  0  0
 16 17  2  0  0  0  0
 16  5  1  0  0  0  0
 17  6  1  0  0  0  0
 18 10  2  0  0  0  0
 19  3  2  0  0  0  0
 19 20  1  0  0  0  0
 20 15  2  0  0  0  0
 21 22  2  0  0  0  0
 22 23  1  0  0  0  0
 25 24  1  1  0  0  0
 25 22  1  0  0  0  0
 26 28  1  6  0  0  0
 26 31  1  0  0  0  0
 27 30  1  0  0  0  0
 29 27  1  0  0  0  0
 29 26  1  0  0  0  0
 30 25  1  1  0  0  0
 30 31  1  0  0  0  0
M  END
>  <MODEL>
1

>  <REMARK>
 VINA RESULT:     -10.3      0.000      0.000
  Name = 
  3 active torsions:
  status: ('A' for Active; 'I' for Inactive)
    1  A    between atoms: C_9  and  C_22
    2  A    between atoms: C_15  and  N_23
    3  A    between atoms: C_19  and  C_22
                            x       y       z     vdW  Elec       q    Type
                         _______ _______ _______ _____ _____    ______ ____

>  <TORSDO>
F 3

$$$$
=
 OpenBabel10272400213D

 31 35  0  0  1  0  0  0  0  0999 V2000
  185.3620  178.5110  143.1380 C   0  0  0  0  0  0  0  0  0  0  0  0
  188.8160  176.8980  143.6490 C   0  0  1  0  0  3  0  0  0  0  0  0
  189.0650  177.0320  145.1580 C   0  0  0  0  0  0  0  0  0  0  0  0
  188.1090  178.4150  146.9740 C   0  0  0  0  0  3  0  0  0  0  0  0
  187.6430  177.6610  143.0400 C   0  0  0  0  0  0  0  0  0  0  0  0
  185.4500  178.9320  141.8110 C   0  0  0  0  0  3  0  0  0  0  0  0
  187.9140  177.2230  146.0990 C   0  0  0  0  0  2  0  0  0  0  0  0
  189.9100  176.9700  141.3820 C   0  0  2  0  0  3  0  0  0  0  0  0
  184.1120  178.7410  143.9090 C   0  0  0  0  0  1  0  0  0  0  0  0
  191.3380  176.1970  144.7390 C   0  0  0  0  0  3  0  0  0  0  0  0
  189.0870  178.4830  147.8730 C   0  0  0  0  0  3  0  0  0  0  0  0
  188.8430  177.7910  140.9130 O   0  0  0  0  0  0  0  0  0  0  0  0
  190.1150  177.2020  142.8760 C   0  0  2  0  0  3  0  0  0  0  0  0
  186.4440  177.8680  143.7400 C   0  0  0  0  0  3  0  0  0  0  0  0
  190.1240  177.4520  148.0530 C   0  0  0  0  0  3  0  0  0  0  0  0
  187.7020  178.0460  141.6800 C   0  0  0  0  0  0  0  0  0  0  0  0
  186.6170  178.6950  141.0830 C   0  0  0  0  0  3  0  0  0  0  0  0
  191.2520  176.3960  143.4250 C   0  0  0  0  0  3  0  0  0  0  0  0
  190.2790  176.6740  145.6540 C   0  0  0  0  0  0  0  0  0  0  0  0
  190.6260  176.6650  147.0930 C   0  0  0  0  0  3  0  0  0  0  0  0
  190.7620  175.7160  138.9670 O   0  0  0  0  0  0  0  0  0  0  0  0
  191.4900  176.6330  139.4370 C   0  0  0  0  0  0  0  0  0  0  0  0
  191.1250  177.2960  140.6480 N   0  0  0  0  0  2  0  0  0  0  0  0
  193.7860  177.2410  139.6050 O   0  0  0  0  0  1  0  0  0  0  0  0
  192.7240  177.0640  138.7120 C   0  0  1  0  0  3  0  0  0  0  0  0
  194.9280  175.8750  136.1560 C   0  0  2  0  0  3  0  0  0  0  0  0
  193.9230  174.9200  138.0910 C   0  0  0  0  0  2  0  0  0  0  0  0
  194.8640  175.6290  134.7850 O   0  0  0  0  0  1  0  0  0  0  0  0
  194.7860  174.5740  136.9130 C   0  0  0  0  0  2  0  0  0  0  0  0
  193.0910  176.0850  137.5970 C   0  0  2  0  0  3  0  0  0  0  0  0
  193.8430  176.7670  136.5500 N   0  0  0  0  0  2  0  0  0  0  0  0
  1 14  1  0  0  0  0
  1  9  1  0  0  0  0
  2  5  1  6  0  0  0
  2  3  1  0  0  0  0
  3 19  2  0  0  0  0
  3  7  1  0  0  0  0
  4 11  2  0  0  0  0
  5 14  2  0  0  0  0
  6  1  2  0  0  0  0
  7  4  1  0  0  0  0
  8 23  1  6  0  0  0
  8 13  1  0  0  0  0
 10 19  1  0  0  0  0
 11 15  1  0  0  0  0
 12  8  1  0  0  0  0
 12 16  1  0  0  0  0
 13 18  1  1  0  0  0
 13  2  1  0  0  0  0
 16  5  1  0  0  0  0
 17 16  2  0  0  0  0
 17  6  1  0  0  0  0
 18 10  2  0  0  0  0
 19 20  1  0  0  0  0
 20 15  2  0  0  0  0
 21 22  2  0  0  0  0
 22 23  1  0  0  0  0
 25 22  1  0  0  0  0
 25 24  1  1  0  0  0
 26 28  1  6  0  0  0
 26 31  1  0  0  0  0
 26 29  1  0  0  0  0
 29 27  1  0  0  0  0
 30 27  1  0  0  0  0
 30 25  1  1  0  0  0
 31 30  1  0  0  0  0
M  END
>  <MODEL>
2

>  <REMARK>
 VINA RESULT:     -10.3      2.507      3.331
  Name = 
  3 active torsions:
  status: ('A' for Active; 'I' for Inactive)
    1  A    between atoms: C_9  and  C_22
    2  A    between atoms: C_15  and  N_23
    3  A    between atoms: C_19  and  C_22
                            x       y       z     vdW  Elec       q    Type
                         _______ _______ _______ _____ _____    ______ ____

>  <TORSDO>
F 3

$$$$
=
 OpenBabel10272400213D

 31 35  0  0  1  0  0  0  0  0999 V2000
  191.2680  177.4410  140.6980 C   0  0  0  0  0  0  0  0  0  0  0  0
  189.2150  178.0340  143.8970 C   0  0  1  0  0  3  0  0  0  0  0  0
  190.0940  177.4490  145.0120 C   0  0  0  0  0  0  0  0  0  0  0  0
  192.0120  175.8880  145.0920 C   0  0  0  0  0  3  0  0  0  0  0  0
  189.6000  177.7460  142.4480 C   0  0  0  0  0  0  0  0  0  0  0  0
  190.2610  177.3800  139.7340 C   0  0  0  0  0  3  0  0  0  0  0  0
  191.5690  177.2810  144.8000 C   0  0  0  0  0  2  0  0  0  0  0  0
  186.8420  178.3210  143.1040 C   0  0  2  0  0  3  0  0  0  0  0  0
  192.6920  177.3040  140.2950 C   0  0  0  0  0  1  0  0  0  0  0  0
  188.2070  177.8280  146.5390 C   0  0  0  0  0  3  0  0  0  0  0  0
  191.9470  175.3630  146.3120 C   0  0  0  0  0  3  0  0  0  0  0  0
  187.2490  177.9190  141.7980 O   0  0  0  0  0  0  0  0  0  0  0  0
  187.7400  177.6600  144.1450 C   0  0  2  0  0  3  0  0  0  0  0  0
  190.9390  177.6380  142.0400 C   0  0  0  0  0  3  0  0  0  0  0  0
  191.3640  176.0460  147.4800 C   0  0  0  0  0  3  0  0  0  0  0  0
  188.5920  177.7350  141.4560 C   0  0  0  0  0  0  0  0  0  0  0  0
  188.9260  177.5310  140.1130 C   0  0  0  0  0  3  0  0  0  0  0  0
  187.3390  178.0110  145.5450 C   0  0  0  0  0  3  0  0  0  0  0  0
  189.5900  177.3780  146.2720 C   0  0  0  0  0  0  0  0  0  0  0  0
  190.3540  176.9250  147.4560 C   0  0  0  0  0  3  0  0  0  0  0  0
  184.6980  180.1200  143.6470 O   0  0  0  0  0  0  0  0  0  0  0  0
  184.4240  178.8910  143.5750 C   0  0  0  0  0  0  0  0  0  0  0  0
  185.4540  177.9360  143.3150 N   0  0  0  0  0  2  0  0  0  0  0  0
  182.5340  178.6920  145.0100 O   0  0  0  0  0  1  0  0  0  0  0  0
  183.0140  178.4210  143.7240 C   0  0  1  0  0  3  0  0  0  0  0  0
  181.1970  178.2150  140.6480 C   0  0  2  0  0  3  0  0  0  0  0  0
  180.6380  178.7380  142.9020 C   0  0  0  0  0  2  0  0  0  0  0  0
  181.1610  178.9020  139.4350 O   0  0  0  0  0  1  0  0  0  0  0  0
  180.0500  178.6670  141.5230 C   0  0  0  0  0  2  0  0  0  0  0  0
  182.1040  179.0230  142.6530 C   0  0  2  0  0  3  0  0  0  0  0  0
  182.4510  178.4950  141.3380 N   0  0  0  0  0  2  0  0  0  0  0  0
  1 14  1  0  0  0  0
  2  5  1  6  0  0  0
  2 13  1  0  0  0  0
  2  3  1  0  0  0  0
  3 19  2  0  0  0  0
  4 11  2  0  0  0  0
  6 17  1  0  0  0  0
  6  1  2  0  0  0  0
  7  3  1  0  0  0  0
  7  4  1  0  0  0  0
  8 23  1  1  0  0  0
  8 13  1  0  0  0  0
  9  1  1  0  0  0  0
 11 15  1  0  0  0  0
 12  8  1  0  0  0  0
 13 18  1  1  0  0  0
 14  5  2  0  0  0  0
 16 12  1  0  0  0  0
 16  5  1  0  0  0  0
 17 16  2  0  0  0  0
 18 10  2  0  0  0  0
 19 10  1  0  0  0  0
 19 20  1  0  0  0  0
 20 15  2  0  0  0  0
 22 21  2  0  0  0  0
 22 25  1  0  0  0  0
 23 22  1  0  0  0  0
 25 24  1  1  0  0  0
 26 28  1  6  0  0  0
 26 31  1  0  0  0  0
 26 29  1  0  0  0  0
 29 27  1  0  0  0  0
 30 27  1  0  0  0  0
 30 25  1  1  0  0  0
 31 30  1  0  0  0  0
M  END
>  <MODEL>
3

>  <REMARK>
 VINA RESULT:      -9.9      3.160      6.685
  Name = 
  3 active torsions:
  status: ('A' for Active; 'I' for Inactive)
    1  A    between atoms: C_9  and  C_22
    2  A    between atoms: C_15  and  N_23
    3  A    between atoms: C_19  and  C_22
                            x       y       z     vdW  Elec       q    Type
                         _______ _______ _______ _____ _____    ______ ____

>  <TORSDO>
F 3

$$$$
=
 OpenBabel10272400213D

 31 35  0  0  1  0  0  0  0  0999 V2000
  187.0860  178.0050  147.1260 C   0  0  0  0  0  0  0  0  0  0  0  0
  187.5460  177.5390  143.3360 C   0  0  1  0  0  3  0  0  0  0  0  0
  189.0690  177.4830  143.1540 C   0  0  0  0  0  0  0  0  0  0  0  0
  191.0210  178.1430  144.5250 C   0  0  0  0  0  3  0  0  0  0  0  0
  186.9960  177.9730  144.6910 C   0  0  0  0  0  0  0  0  0  0  0  0
  185.8520  178.6550  147.1740 C   0  0  0  0  0  3  0  0  0  0  0  0
  189.9550  177.1240  144.3090 C   0  0  0  0  0  2  0  0  0  0  0  0
  185.3940  178.3550  142.3130 C   0  0  2  0  0  3  0  0  0  0  0  0
  187.8040  177.6780  148.3860 C   0  0  0  0  0  1  0  0  0  0  0  0
  188.6650  177.5180  140.7310 C   0  0  0  0  0  3  0  0  0  0  0  0
  191.9790  178.3680  143.6300 C   0  0  0  0  0  3  0  0  0  0  0  0
  184.9970  178.8520  143.5890 O   0  0  0  0  0  0  0  0  0  0  0  0
  186.9150  178.3780  142.2060 C   0  0  2  0  0  3  0  0  0  0  0  0
  187.6430  177.6550  145.8950 C   0  0  0  0  0  3  0  0  0  0  0  0
  192.0550  177.7150  142.3120 C   0  0  0  0  0  3  0  0  0  0  0  0
  185.7220  178.5850  144.7550 C   0  0  0  0  0  0  0  0  0  0  0  0
  185.1700  178.9400  145.9900 C   0  0  0  0  0  3  0  0  0  0  0  0
  187.3970  177.9030  140.8700 C   0  0  0  0  0  3  0  0  0  0  0  0
  189.5760  177.4580  141.8930 C   0  0  0  0  0  0  0  0  0  0  0  0
  191.0140  177.3130  141.5710 C   0  0  0  0  0  3  0  0  0  0  0  0
  183.0720  177.6800  140.8010 O   0  0  0  0  0  0  0  0  0  0  0  0
  183.6290  178.7850  140.5550 C   0  0  0  0  0  0  0  0  0  0  0  0
  184.8000  179.1800  141.2700 N   0  0  0  0  0  2  0  0  0  0  0  0
  184.0590  180.3960  138.8560 O   0  0  0  0  0  1  0  0  0  0  0  0
  183.0480  179.7130  139.5380 C   0  0  1  0  0  3  0  0  0  0  0  0
  181.3090  179.4460  136.4210 C   0  0  2  0  0  3  0  0  0  0  0  0
  182.8760  178.0940  137.5970 C   0  0  0  0  0  2  0  0  0  0  0  0
  179.9890  179.2900  135.9980 O   0  0  0  0  0  1  0  0  0  0  0  0
  182.0230  178.1150  136.3620 C   0  0  0  0  0  2  0  0  0  0  0  0
  182.1220  178.9760  138.5690 C   0  0  2  0  0  3  0  0  0  0  0  0
  181.3320  179.9290  137.7980 N   0  0  0  0  0  2  0  0  0  0  0  0
  1  6  1  0  0  0  0
  1  9  1  0  0  0  0
  2  3  1  1  0  0  0
  2  5  1  0  0  0  0
  3  7  1  0  0  0  0
  5 16  2  0  0  0  0
  5 14  1  0  0  0  0
  7  4  1  0  0  0  0
  8 23  1  6  0  0  0
  8 12  1  0  0  0  0
 10 18  2  0  0  0  0
 10 19  1  0  0  0  0
 11  4  2  0  0  0  0
 12 16  1  0  0  0  0
 13 18  1  6  0  0  0
 13  8  1  0  0  0  0
 13  2  1  0  0  0  0
 14  1  2  0  0  0  0
 15 11  1  0  0  0  0
 16 17  1  0  0  0  0
 17  6  2  0  0  0  0
 19  3  2  0  0  0  0
 20 19  1  0  0  0  0
 20 15  2  0  0  0  0
 22 21  2  0  0  0  0
 22 23  1  0  0  0  0
 25 24  1  6  0  0  0
 25 22  1  0  0  0  0
 26 28  1  1  0  0  0
 26 31  1  0  0  0  0
 27 30  1  0  0  0  0
 29 26  1  0  0  0  0
 29 27  1  0  0  0  0
 30 25  1  1  0  0  0
 31 30  1  0  0  0  0
M  END
>  <MODEL>
4

>  <REMARK>
 VINA RESULT:      -9.9      3.477      4.943
  Name = 
  3 active torsions:
  status: ('A' for Active; 'I' for Inactive)
    1  A    between atoms: C_9  and  C_22
    2  A    between atoms: C_15  and  N_23
    3  A    between atoms: C_19  and  C_22
                            x       y       z     vdW  Elec       q    Type
                         _______ _______ _______ _____ _____    ______ ____

>  <TORSDO>
F 3

$$$$
=
 OpenBabel10272400213D

 31 35  0  0  1  0  0  0  0  0999 V2000
  185.0820  178.3830  145.0990 C   0  0  0  0  0  0  0  0  0  0  0  0
  188.4900  176.9180  144.0800 C   0  0  1  0  0  3  0  0  0  0  0  0
  189.2920  176.9060  145.3880 C   0  0  0  0  0  0  0  0  0  0  0  0
  189.0810  178.0340  147.5810 C   0  0  0  0  0  3  0  0  0  0  0  0
  187.1650  177.6760  144.0510 C   0  0  0  0  0  0  0  0  0  0  0  0
  184.6550  178.9460  143.8960 C   0  0  0  0  0  3  0  0  0  0  0  0
  188.5820  176.9330  146.7090 C   0  0  0  0  0  2  0  0  0  0  0  0
  188.6410  177.2900  141.5940 C   0  0  2  0  0  3  0  0  0  0  0  0
  184.2160  178.4600  146.3040 C   0  0  0  0  0  1  0  0  0  0  0  0
  191.2440  176.2470  144.0510 C   0  0  0  0  0  3  0  0  0  0  0  0
  190.3260  178.0610  148.0480 C   0  0  0  0  0  3  0  0  0  0  0  0
  187.4660  178.0950  141.6610 O   0  0  0  0  0  0  0  0  0  0  0  0
  189.3940  177.3740  142.9170 C   0  0  2  0  0  3  0  0  0  0  0  0
  186.3200  177.7410  145.1690 C   0  0  0  0  0  3  0  0  0  0  0  0
  191.3650  177.0760  147.7020 C   0  0  0  0  0  3  0  0  0  0  0  0
  186.6990  178.2040  142.8250 C   0  0  0  0  0  0  0  0  0  0  0  0
  185.4610  178.8520  142.7600 C   0  0  0  0  0  3  0  0  0  0  0  0
  190.6640  176.5780  142.8990 C   0  0  0  0  0  3  0  0  0  0  0  0
  190.6070  176.5650  145.3460 C   0  0  0  0  0  0  0  0  0  0  0  0
  191.4740  176.4230  146.5370 C   0  0  0  0  0  3  0  0  0  0  0  0
  189.2940  175.7900  139.2580 O   0  0  0  0  0  0  0  0  0  0  0  0
  189.7640  176.9570  139.3530 C   0  0  0  0  0  0  0  0  0  0  0  0
  189.4830  177.7580  140.5010 N   0  0  0  0  0  2  0  0  0  0  0  0
  191.6040  176.6420  137.8750 O   0  0  0  0  0  1  0  0  0  0  0  0
  190.5910  177.5300  138.2480 C   0  0  1  0  0  3  0  0  0  0  0  0
  187.6750  177.1790  136.2030 C   0  0  2  0  0  3  0  0  0  0  0  0
  188.6900  178.9720  137.3960 C   0  0  0  0  0  2  0  0  0  0  0  0
  187.3920  176.9170  134.8630 O   0  0  0  0  0  1  0  0  0  0  0  0
  187.5510  178.6620  136.4690 C   0  0  0  0  0  2  0  0  0  0  0  0
  189.7290  177.9270  137.0490 C   0  0  2  0  0  3  0  0  0  0  0  0
  189.0370  176.7600  136.5130 N   0  0  0  0  0  2  0  0  0  0  0  0
  1 14  1  0  0  0  0
  1  9  1  0  0  0  0
  2  5  1  1  0  0  0
  2  3  1  0  0  0  0
  3  7  1  0  0  0  0
  4 11  2  0  0  0  0
  5 14  2  0  0  0  0
  6  1  2  0  0  0  0
  7  4  1  0  0  0  0
  8 23  1  6  0  0  0
  8 12  1  0  0  0  0
  8 13  1  0  0  0  0
 10 19  1  0  0  0  0
 12 16  1  0  0  0  0
 13 18  1  6  0  0  0
 13  2  1  0  0  0  0
 15 11  1  0  0  0  0
 16  5  1  0  0  0  0
 17 16  2  0  0  0  0
 17  6  1  0  0  0  0
 18 10  2  0  0  0  0
 19  3  2  0  0  0  0
 19 20  1  0  0  0  0
 20 15  2  0  0  0  0
 21 22  2  0  0  0  0
 22 23  1  0  0  0  0
 25 24  1  6  0  0  0
 25 22  1  0  0  0  0
 26 28  1  6  0  0  0
 26 29  1  0  0  0  0
 26 31  1  0  0  0  0
 29 27  1  0  0  0  0
 30 27  1  0  0  0  0
 30 25  1  1  0  0  0
 31 30  1  0  0  0  0
M  END
>  <MODEL>
5

>  <REMARK>
 VINA RESULT:      -9.6      1.495      2.153
  Name = 
  3 active torsions:
  status: ('A' for Active; 'I' for Inactive)
    1  A    between atoms: C_9  and  C_22
    2  A    between atoms: C_15  and  N_23
    3  A    between atoms: C_19  and  C_22
                            x       y       z     vdW  Elec       q    Type
                         _______ _______ _______ _____ _____    ______ ____

>  <TORSDO>
F 3

$$$$
=
 OpenBabel10272400213D

 31 35  0  0  1  0  0  0  0  0999 V2000
  190.7580  176.8740  145.9590 C   0  0  0  0  0  0  0  0  0  0  0  0
  188.2030  178.3250  143.4760 C   0  0  1  0  0  3  0  0  0  0  0  0
  186.9310  178.5000  144.3170 C   0  0  0  0  0  0  0  0  0  0  0  0
  186.1250  177.6050  146.4790 C   0  0  0  0  0  3  0  0  0  0  0  0
  189.3600  177.5290  144.0740 C   0  0  0  0  0  0  0  0  0  0  0  0
  191.6060  176.1740  145.1000 C   0  0  0  0  0  3  0  0  0  0  0  0
  187.0200  178.5920  145.8110 C   0  0  0  0  0  2  0  0  0  0  0  0
  189.0770  177.6970  141.2000 C   0  0  2  0  0  3  0  0  0  0  0  0
  191.0330  176.8990  147.4190 C   0  0  0  0  0  1  0  0  0  0  0  0
  185.7680  179.0730  142.2300 C   0  0  0  0  0  3  0  0  0  0  0  0
  184.8000  177.6660  146.3770 C   0  0  0  0  0  3  0  0  0  0  0  0
  190.0550  176.8680  141.8240 O   0  0  0  0  0  0  0  0  0  0  0  0
  187.8360  177.7760  142.0830 C   0  0  2  0  0  3  0  0  0  0  0  0
  189.6540  177.5570  145.4460 C   0  0  0  0  0  3  0  0  0  0  0  0
  184.0750  178.6400  145.5430 C   0  0  0  0  0  3  0  0  0  0  0  0
  190.2560  176.8600  143.2080 C   0  0  0  0  0  0  0  0  0  0  0  0
  191.3570  176.1710  143.7270 C   0  0  0  0  0  3  0  0  0  0  0  0
  186.7510  178.6040  141.4630 C   0  0  0  0  0  3  0  0  0  0  0  0
  185.7820  178.8750  143.6950 C   0  0  0  0  0  0  0  0  0  0  0  0
  184.5090  179.1680  144.3910 C   0  0  0  0  0  3  0  0  0  0  0  0
  188.9840  179.1640  138.7560 O   0  0  0  0  0  0  0  0  0  0  0  0
  188.7180  177.9320  138.7080 C   0  0  0  0  0  0  0  0  0  0  0  0
  188.7370  177.1410  139.8970 N   0  0  0  0  0  2  0  0  0  0  0  0
  188.4080  175.8830  137.5340 O   0  0  0  0  0  1  0  0  0  0  0  0
  188.4140  177.2750  137.4000 C   0  0  1  0  0  3  0  0  0  0  0  0
  185.3120  176.7550  135.6920 C   0  0  2  0  0  3  0  0  0  0  0  0
  185.9450  177.6950  137.7860 C   0  0  0  0  0  2  0  0  0  0  0  0
  184.6870  177.2350  134.5420 O   0  0  0  0  0  1  0  0  0  0  0  0
  184.7520  177.4600  136.9070 C   0  0  0  0  0  2  0  0  0  0  0  0
  187.0980  177.7840  136.8090 C   0  0  2  0  0  3  0  0  0  0  0  0
  186.7460  177.0150  135.6210 N   0  0  0  0  0  2  0  0  0  0  0  0
  1  9  1  0  0  0  0
  2  5  1  1  0  0  0
  2  3  1  0  0  0  0
  3  7  1  0  0  0  0
  5 14  2  0  0  0  0
  6  1  2  0  0  0  0
  7  4  1  0  0  0  0
  8 23  1  6  0  0  0
  8 12  1  0  0  0  0
  8 13  1  0  0  0  0
 10 19  1  0  0  0  0
 11  4  2  0  0  0  0
 12 16  1  0  0  0  0
 13 18  1  6  0  0  0
 13  2  1  0  0  0  0
 14  1  1  0  0  0  0
 15 11  1  0  0  0  0
 16 17  2  0  0  0  0
 16  5  1  0  0  0  0
 17  6  1  0  0  0  0
 18 10  2  0  0  0  0
 19  3  2  0  0  0  0
 19 20  1  0  0  0  0
 20 15  2  0  0  0  0
 22 21  2  0  0  0  0
 22 23  1  0  0  0  0
 25 24  1  1  0  0  0
 25 22  1  0  0  0  0
 26 28  1  6  0  0  0
 26 29  1  0  0  0  0
 29 27  1  0  0  0  0
 30 25  1  1  0  0  0
 30 27  1  0  0  0  0
 31 26  1  0  0  0  0
 31 30  1  0  0  0  0
M  END
>  <MODEL>
6

>  <REMARK>
 VINA RESULT:      -9.3      1.854      4.709
  Name = 
  3 active torsions:
  status: ('A' for Active; 'I' for Inactive)
    1  A    between atoms: C_9  and  C_22
    2  A    between atoms: C_15  and  N_23
    3  A    between atoms: C_19  and  C_22
                            x       y       z     vdW  Elec       q    Type
                         _______ _______ _______ _____ _____    ______ ____

>  <TORSDO>
F 3

$$$$
=
 OpenBabel10272400213D

 31 35  0  0  1  0  0  0  0  0999 V2000
  190.9150  176.6630  146.0670 C   0  0  0  0  0  0  0  0  0  0  0  0
  188.6690  178.0230  143.2560 C   0  0  1  0  0  3  0  0  0  0  0  0
  187.3290  178.2920  143.9540 C   0  0  0  0  0  0  0  0  0  0  0  0
  186.2830  177.5670  146.0760 C   0  0  0  0  0  3  0  0  0  0  0  0
  189.7320  177.2340  144.0140 C   0  0  0  0  0  0  0  0  0  0  0  0
  191.8170  175.8820  145.3430 C   0  0  0  0  0  3  0  0  0  0  0  0
  187.2760  178.4810  145.4400 C   0  0  0  0  0  2  0  0  0  0  0  0
  189.7370  177.2190  141.1220 C   0  0  2  0  0  3  0  0  0  0  0  0
  191.0480  176.7760  147.5430 C   0  0  0  0  0  1  0  0  0  0  0  0
  186.3970  178.7610  141.7290 C   0  0  0  0  0  3  0  0  0  0  0  0
  184.9780  177.6610  145.8390 C   0  0  0  0  0  3  0  0  0  0  0  0
  190.6180  176.4040  141.8910 O   0  0  0  0  0  0  0  0  0  0  0  0
  188.4200  177.3950  141.8700 C   0  0  2  0  0  3  0  0  0  0  0  0
  189.8920  177.3440  145.4040 C   0  0  0  0  0  3  0  0  0  0  0  0
  184.3740  178.6000  144.8780 C   0  0  0  0  0  3  0  0  0  0  0  0
  190.6830  176.4820  143.2860 C   0  0  0  0  0  0  0  0  0  0  0  0
  191.7030  175.7960  143.9540 C   0  0  0  0  0  3  0  0  0  0  0  0
  187.4320  178.2120  141.0950 C   0  0  0  0  0  3  0  0  0  0  0  0
  186.2600  178.6600  143.1970 C   0  0  0  0  0  0  0  0  0  0  0  0
  184.9370  179.0370  143.7440 C   0  0  0  0  0  3  0  0  0  0  0  0
  191.6160  177.1150  138.9790 O   0  0  0  0  0  0  0  0  0  0  0  0
  190.4950  176.5650  138.8000 C   0  0  0  0  0  0  0  0  0  0  0  0
  189.5050  176.5890  139.8290 N   0  0  0  0  0  2  0  0  0  0  0  0
  189.8880  174.5090  137.7650 O   0  0  0  0  0  1  0  0  0  0  0  0
  190.2010  175.8500  137.5220 C   0  0  1  0  0  3  0  0  0  0  0  0
  186.9530  177.3330  137.2760 C   0  0  2  0  0  3  0  0  0  0  0  0
  189.1740  178.0550  136.8140 C   0  0  0  0  0  2  0  0  0  0  0  0
  185.7970  177.1410  136.5200 O   0  0  0  0  0  1  0  0  0  0  0  0
  187.7420  178.4940  136.7150 C   0  0  0  0  0  2  0  0  0  0  0  0
  189.0920  176.5450  136.7310 C   0  0  2  0  0  3  0  0  0  0  0  0
  187.7830  176.1340  137.2230 N   0  0  0  0  0  2  0  0  0  0  0  0
  1  9  1  0  0  0  0
  2  3  1  1  0  0  0
  2  5  1  0  0  0  0
  3  7  1  0  0  0  0
  5 14  2  0  0  0  0
  6  1  2  0  0  0  0
  7  4  1  0  0  0  0
  8 23  1  6  0  0  0
  8 13  1  0  0  0  0
  8 12  1  0  0  0  0
 10 19  1  0  0  0  0
 11  4  2  0  0  0  0
 12 16  1  0  0  0  0
 13 18  1  6  0  0  0
 13  2  1  0  0  0  0
 14  1  1  0  0  0  0
 15 11  1  0  0  0  0
 16 17  2  0  0  0  0
 16  5  1  0  0  0  0
 17  6  1  0  0  0  0
 18 10  2  0  0  0  0
 19 20  1  0  0  0  0
 19  3  2  0  0  0  0
 20 15  2  0  0  0  0
 22 21  2  0  0  0  0
 22 23  1  0  0  0  0
 25 24  1  1  0  0  0
 25 22  1  0  0  0  0
 26 28  1  6  0  0  0
 29 27  1  0  0  0  0
 29 26  1  0  0  0  0
 30 27  1  0  0  0  0
 30 31  1  0  0  0  0
 30 25  1  1  0  0  0
 31 26  1  0  0  0  0
M  END
>  <MODEL>
7

>  <REMARK>
 VINA RESULT:      -9.2      1.682      4.652
  Name = 
  3 active torsions:
  status: ('A' for Active; 'I' for Inactive)
    1  A    between atoms: C_9  and  C_22
    2  A    between atoms: C_15  and  N_23
    3  A    between atoms: C_19  and  C_22
                            x       y       z     vdW  Elec       q    Type
                         _______ _______ _______ _____ _____    ______ ____

>  <TORSDO>
F 3

$$$$
=
 OpenBabel10272400213D

 31 35  0  0  1  0  0  0  0  0999 V2000
  190.7570  176.8770  145.9720 C   0  0  0  0  0  0  0  0  0  0  0  0
  188.1980  178.3070  143.4810 C   0  0  1  0  0  3  0  0  0  0  0  0
  186.9270  178.4860  144.3220 C   0  0  0  0  0  0  0  0  0  0  0  0
  186.1230  177.6050  146.4900 C   0  0  0  0  0  3  0  0  0  0  0  0
  189.3570  177.5170  144.0830 C   0  0  0  0  0  0  0  0  0  0  0  0
  191.6060  176.1730  145.1190 C   0  0  0  0  0  3  0  0  0  0  0  0
  187.0170  178.5890  145.8150 C   0  0  0  0  0  2  0  0  0  0  0  0
  189.0720  177.6630  141.2090 C   0  0  2  0  0  3  0  0  0  0  0  0
  191.0340  176.9130  147.4330 C   0  0  0  0  0  1  0  0  0  0  0  0
  185.7620  179.0420  142.2310 C   0  0  0  0  0  3  0  0  0  0  0  0
  184.7980  177.6630  146.3890 C   0  0  0  0  0  3  0  0  0  0  0  0
  190.0520  176.8400  141.8380 O   0  0  0  0  0  0  0  0  0  0  0  0
  187.8310  177.7470  142.0920 C   0  0  2  0  0  3  0  0  0  0  0  0
  189.6520  177.5550  145.4550 C   0  0  0  0  0  3  0  0  0  0  0  0
  184.0710  178.6300  145.5480 C   0  0  0  0  0  3  0  0  0  0  0  0
  190.2540  176.8420  143.2220 C   0  0  0  0  0  0  0  0  0  0  0  0
  191.3560  176.1590  143.7450 C   0  0  0  0  0  3  0  0  0  0  0  0
  186.7450  178.5680  141.4670 C   0  0  0  0  0  3  0  0  0  0  0  0
  185.7770  178.8540  143.6970 C   0  0  0  0  0  0  0  0  0  0  0  0
  184.5040  179.1510  144.3930 C   0  0  0  0  0  3  0  0  0  0  0  0
  188.9820  179.1110  138.7540 O   0  0  0  0  0  0  0  0  0  0  0  0
  188.7140  177.8790  138.7150 C   0  0  0  0  0  0  0  0  0  0  0  0
  188.7320  177.0970  139.9100 N   0  0  0  0  0  2  0  0  0  0  0  0
  187.9600  178.1450  136.4720 O   0  0  0  0  0  1  0  0  0  0  0  0
  188.4100  177.2120  137.4130 C   0  0  1  0  0  3  0  0  0  0  0  0
  191.6440  175.7400  137.8340 C   0  0  2  0  0  3  0  0  0  0  0  0
  189.5060  174.9430  137.1570 C   0  0  0  0  0  2  0  0  0  0  0  0
  192.8980  175.8400  137.2320 O   0  0  0  0  0  1  0  0  0  0  0  0
  190.9320  174.5070  137.3240 C   0  0  0  0  0  2  0  0  0  0  0  0
  189.6130  176.4290  136.8880 C   0  0  2  0  0  3  0  0  0  0  0  0
  190.8430  176.9130  137.5040 N   0  0  0  0  0  2  0  0  0  0  0  0
  1  9  1  0  0  0  0
  2  5  1  1  0  0  0
  2  3  1  0  0  0  0
  3  7  1  0  0  0  0
  5 14  2  0  0  0  0
  6  1  2  0  0  0  0
  7  4  1  0  0  0  0
  8 23  1  6  0  0  0
  8 12  1  0  0  0  0
  8 13  1  0  0  0  0
 10 19  1  0  0  0  0
 11  4  2  0  0  0  0
 12 16  1  0  0  0  0
 13 18  1  6  0  0  0
 13  2  1  0  0  0  0
 14  1  1  0  0  0  0
 15 11  1  0  0  0  0
 16 17  2  0  0  0  0
 16  5  1  0  0  0  0
 17  6  1  0  0  0  0
 18 10  2  0  0  0  0
 19  3  2  0  0  0  0
 19 20  1  0  0  0  0
 20 15  2  0  0  0  0
 22 21  2  0  0  0  0
 22 23  1  0  0  0  0
 25 24  1  6  0  0  0
 25 22  1  0  0  0  0
 26 28  1  6  0  0  0
 27 29  1  0  0  0  0
 29 26  1  0  0  0  0
 30 27  1  0  0  0  0
 30 25  1  1  0  0  0
 30 31  1  0  0  0  0
 31 26  1  0  0  0  0
M  END
>  <MODEL>
8

>  <REMARK>
 VINA RESULT:      -9.2      1.403      4.241
  Name = 
  3 active torsions:
  status: ('A' for Active; 'I' for Inactive)
    1  A    between atoms: C_9  and  C_22
    2  A    between atoms: C_15  and  N_23
    3  A    between atoms: C_19  and  C_22
                            x       y       z     vdW  Elec       q    Type
                         _______ _______ _______ _____ _____    ______ ____

>  <TORSDO>
F 3

$$$$
=
 OpenBabel10272400213D

 31 35  0  0  1  0  0  0  0  0999 V2000
  189.3400  177.6360  147.1780 C   0  0  0  0  0  0  0  0  0  0  0  0
  187.9160  178.4330  143.6950 C   0  0  1  0  0  3  0  0  0  0  0  0
  186.4270  178.7000  143.9580 C   0  0  0  0  0  0  0  0  0  0  0  0
  184.8600  178.2030  145.8070 C   0  0  0  0  0  3  0  0  0  0  0  0
  188.7520  177.8330  144.8220 C   0  0  0  0  0  0  0  0  0  0  0  0
  190.4290  176.8290  146.8500 C   0  0  0  0  0  3  0  0  0  0  0  0
  185.9610  179.0880  145.3290 C   0  0  0  0  0  2  0  0  0  0  0  0
  189.5550  177.4200  142.0740 C   0  0  2  0  0  3  0  0  0  0  0  0
  189.0560  177.9610  148.6010 C   0  0  0  0  0  1  0  0  0  0  0  0
  186.1320  178.7900  141.5200 C   0  0  0  0  0  3  0  0  0  0  0  0
  183.6680  178.1710  145.2160 C   0  0  0  0  0  3  0  0  0  0  0  0
  190.2150  176.7840  143.1660 O   0  0  0  0  0  0  0  0  0  0  0  0
  188.0780  177.6040  142.4050 C   0  0  2  0  0  3  0  0  0  0  0  0
  188.5190  178.1450  146.1700 C   0  0  0  0  0  3  0  0  0  0  0  0
  183.3250  178.9220  143.9970 C   0  0  0  0  0  3  0  0  0  0  0  0
  189.8900  177.0570  144.4990 C   0  0  0  0  0  0  0  0  0  0  0  0
  190.7050  176.5440  145.5120 C   0  0  0  0  0  3  0  0  0  0  0  0
  187.3180  178.2340  141.2790 C   0  0  0  0  0  3  0  0  0  0  0  0
  185.5990  178.8830  142.8960 C   0  0  0  0  0  0  0  0  0  0  0  0
  184.1650  179.2380  143.0030 C   0  0  0  0  0  3  0  0  0  0  0  0
  191.6650  177.6630  140.1710 O   0  0  0  0  0  0  0  0  0  0  0  0
  190.7960  176.7720  139.9680 C   0  0  0  0  0  0  0  0  0  0  0  0
  189.7080  176.6030  140.8780 N   0  0  0  0  0  2  0  0  0  0  0  0
  189.6890  175.7430  138.1290 O   0  0  0  0  0  1  0  0  0  0  0  0
  190.9140  175.8560  138.7940 C   0  0  1  0  0  3  0  0  0  0  0  0
  193.8100  175.2000  136.7970 C   0  0  2  0  0  3  0  0  0  0  0  0
  191.6550  176.1220  136.3860 C   0  0  0  0  0  2  0  0  0  0  0  0
  195.1200  175.6710  136.7120 O   0  0  0  0  0  1  0  0  0  0  0  0
  192.9680  175.8400  135.7170 C   0  0  0  0  0  2  0  0  0  0  0  0
  192.0250  176.3020  137.8430 C   0  0  2  0  0  3  0  0  0  0  0  0
  193.2450  175.5440  138.0970 N   0  0  0  0  0  2  0  0  0  0  0  0
  1  9  1  0  0  0  0
  2  3  1  1  0  0  0
  2  5  1  0  0  0  0
  3  7  1  0  0  0  0
  5 14  1  0  0  0  0
  6  1  1  0  0  0  0
  7  4  1  0  0  0  0
  8 23  1  6  0  0  0
  8 13  1  0  0  0  0
  8 12  1  0  0  0  0
 10 19  1  0  0  0  0
 11  4  2  0  0  0  0
 12 16  1  0  0  0  0
 13 18  1  6  0  0  0
 13  2  1  0  0  0  0
 14  1  2  0  0  0  0
 15 11  1  0  0  0  0
 16  5  2  0  0  0  0
 16 17  1  0  0  0  0
 17  6  2  0  0  0  0
 18 10  2  0  0  0  0
 19 20  1  0  0  0  0
 19  3  2  0  0  0  0
 20 15  2  0  0  0  0
 22 21  2  0  0  0  0
 22 23  1  0  0  0  0
 25 24  1  6  0  0  0
 25 22  1  0  0  0  0
 26 28  1  1  0  0  0
 26 31  1  0  0  0  0
 27 30  1  0  0  0  0
 29 27  1  0  0  0  0
 29 26  1  0  0  0  0
 30 31  1  0  0  0  0
 30 25  1  1  0  0  0
M  END
>  <MODEL>
9

>  <REMARK>
 VINA RESULT:      -9.1      2.227      4.688
  Name = 
  3 active torsions:
  status: ('A' for Active; 'I' for Inactive)
    1  A    between atoms: C_9  and  C_22
    2  A    between atoms: C_15  and  N_23
    3  A    between atoms: C_19  and  C_22
                            x       y       z     vdW  Elec       q    Type
                         _______ _______ _______ _____ _____    ______ ____

>  <TORSDO>
F 3

$$$$
