=
 OpenBabel10272400363D

 31 36  0  0  1  0  0  0  0  0999 V2000
  186.9110  176.2070  135.4260 O   0  0  0  0  0  0  0  0  0  0  0  0
  190.2200  176.8000  137.0490 C   0  0  1  0  0  3  0  0  0  0  0  0
  187.2750  173.6430  137.4410 C   0  0  0  0  0  1  0  0  0  0  0  0
  188.0730  174.3230  136.3360 C   0  0  2  0  0  3  0  0  0  0  0  0
  187.9520  175.8500  136.3110 C   0  0  2  0  0  0  0  0  0  0  0  0
  189.8260  176.3370  134.4790 C   0  0  0  0  0  2  0  0  0  0  0  0
  187.6280  176.5760  137.9580 S   0  0  0  0  0  0  0  0  0  0  0  0
  189.2930  176.4620  135.8960 C   0  0  0  0  0  0  0  0  0  0  0  0
  186.7120  175.1210  134.5480 C   0  0  1  0  0  3  0  0  0  0  0  0
  187.4860  173.9110  135.0230 C   0  0  0  0  0  2  0  0  0  0  0  0
  189.4140  176.6470  138.3420 C   0  0  2  0  0  3  0  0  0  0  0  0
  189.1870  177.6370  134.9400 C   0  0  0  0  0  2  0  0  0  0  0  0
  191.4500  175.9390  137.0630 C   0  0  0  0  0  0  0  0  0  0  0  0
  192.5500  173.8030  137.3090 C   0  0  0  0  0  3  0  0  0  0  0  0
  191.3790  174.5620  137.3190 C   0  0  0  0  0  3  0  0  0  0  0  0
  193.7470  174.3970  137.0510 N   0  0  0  0  0  0  0  0  0  0  0  0
  194.9610  176.2470  136.5560 O   0  0  0  0  0  0  0  0  0  0  0  0
  192.6890  176.5240  136.7950 C   0  0  0  0  0  2  0  0  0  0  0  0
  193.8390  175.7300  136.7940 C   0  0  0  0  0  0  0  0  0  0  0  0
  184.2040  177.2930  134.5180 C   0  0  0  0  0  2  0  0  0  0  0  0
  184.9020  173.5940  134.3460 O   0  0  0  0  0  0  0  0  0  0  0  0
  182.7480  177.2960  134.4520 C   0  0  0  0  0  2  0  0  0  0  0  0
  182.8400  175.8710  134.3470 N   0  0  0  0  0  2  0  0  0  0  0  0
  185.2560  174.7990  134.4180 C   0  0  0  0  0  0  0  0  0  0  0  0
  184.2620  175.8260  134.4140 N   0  0  0  0  0  0  0  0  0  0  0  0
  188.6660  178.7540  141.2930 O   0  0  0  0  0  0  0  0  0  0  0  0
  189.7110  177.7390  139.3700 C   0  0  1  0  0  3  0  0  0  0  0  0
  190.0800  176.8070  141.7250 C   0  0  0  0  0  2  0  0  0  0  0  0
  188.8180  177.6090  142.0950 C   0  0  0  0  0  2  0  0  0  0  0  0
  188.4190  178.2790  139.9940 C   0  0  0  0  0  2  0  0  0  0  0  0
  190.7380  177.3120  140.4340 C   0  0  0  0  0  2  0  0  0  0  0  0
  2 13  1  1  0  0  0
  2 11  1  0  0  0  0
  4  3  1  1  0  0  0
  5  1  1  6  0  0  0
  5  4  1  0  0  0  0
  5  7  1  0  0  0  0
  6 12  1  0  0  0  0
  6  8  1  0  0  0  0
  8  5  1  0  0  0  0
  8  2  1  0  0  0  0
  9 24  1  1  0  0  0
  9 10  1  0  0  0  0
  9  1  1  0  0  0  0
 10  4  1  0  0  0  0
 11  7  1  6  0  0  0
 11 27  1  0  0  0  0
 12  8  1  0  0  0  0
 13 15  2  0  0  0  0
 14 15  1  0  0  0  0
 16 14  2  0  0  0  0
 17 19  2  0  0  0  0
 18 13  1  0  0  0  0
 19 18  1  0  0  0  0
 19 16  1  0  0  0  0
 21 24  2  0  0  0  0
 22 20  1  0  0  0  0
 23 25  1  0  0  0  0
 23 22  1  0  0  0  0
 25 24  1  0  0  0  0
 25 20  1  0  0  0  0
 26 29  1  0  0  0  0
 27 30  1  1  0  0  0
 27 31  1  0  0  0  0
 28 29  1  0  0  0  0
 30 26  1  0  0  0  0
 31 28  1  0  0  0  0
M  END
>  <MODEL>
1

>  <REMARK>
 VINA RESULT:      -5.3      0.000      0.000
  Name = 
  3 active torsions:
  status: ('A' for Active; 'I' for Inactive)
    1  A    between atoms: C_4  and  C_5
    2  A    between atoms: C_12  and  C_27
    3  A    between atoms: C_19  and  C_22
                            x       y       z     vdW  Elec       q    Type
                         _______ _______ _______ _____ _____    ______ ____

>  <TORSDO>
F 3

$$$$
=
 OpenBabel10272400363D

 31 36  0  0  1  0  0  0  0  0999 V2000
  182.5030  178.8330  137.5170 O   0  0  0  0  0  0  0  0  0  0  0  0
  184.9150  176.2490  136.3190 C   0  0  1  0  0  3  0  0  0  0  0  0
  183.3000  177.1760  140.2340 C   0  0  0  0  0  1  0  0  0  0  0  0
  182.7840  176.8570  138.8370 C   0  0  2  0  0  3  0  0  0  0  0  0
  183.3680  177.7370  137.7270 C   0  0  2  0  0  0  0  0  0  0  0  0
  182.3670  176.4090  135.6420 C   0  0  0  0  0  2  0  0  0  0  0  0
  185.0500  178.3480  138.0990 S   0  0  0  0  0  0  0  0  0  0  0  0
  183.5520  176.9010  136.4560 C   0  0  0  0  0  0  0  0  0  0  0  0
  181.2340  178.4730  138.0160 C   0  0  1  0  0  3  0  0  0  0  0  0
  181.3240  177.1820  138.8000 C   0  0  0  0  0  2  0  0  0  0  0  0
  185.8140  176.8370  137.4090 C   0  0  2  0  0  3  0  0  0  0  0  0
  183.1720  177.6080  135.1680 C   0  0  0  0  0  2  0  0  0  0  0  0
  184.8440  174.7520  136.4150 C   0  0  0  0  0  0  0  0  0  0  0  0
  184.4080  172.7160  137.6370 C   0  0  0  0  0  3  0  0  0  0  0  0
  184.4710  174.1090  137.6030 C   0  0  0  0  0  3  0  0  0  0  0  0
  184.7040  171.9910  136.5240 N   0  0  0  0  0  0  0  0  0  0  0  0
  185.3280  171.8940  134.3460 O   0  0  0  0  0  0  0  0  0  0  0  0
  185.1380  173.9860  135.2840 C   0  0  0  0  0  2  0  0  0  0  0  0
  185.0640  172.5940  135.3580 C   0  0  0  0  0  0  0  0  0  0  0  0
  180.6590  181.6020  137.0770 C   0  0  0  0  0  2  0  0  0  0  0  0
  180.3920  179.3270  140.0690 O   0  0  0  0  0  0  0  0  0  0  0  0
  180.1760  182.8540  137.6460 C   0  0  0  0  0  2  0  0  0  0  0  0
  179.9850  182.1230  138.8620 N   0  0  0  0  0  2  0  0  0  0  0  0
  180.6620  179.5660  138.8630 C   0  0  0  0  0  0  0  0  0  0  0  0
  180.4560  180.8820  138.3440 N   0  0  0  0  0  0  0  0  0  0  0  0
  188.9180  178.8360  137.1230 O   0  0  0  0  0  0  0  0  0  0  0  0
  187.2400  177.1130  136.9320 C   0  0  1  0  0  3  0  0  0  0  0  0
  188.9450  177.0970  138.8410 C   0  0  0  0  0  2  0  0  0  0  0  0
  189.1570  178.5800  138.4860 C   0  0  0  0  0  2  0  0  0  0  0  0
  187.5440  178.6170  136.9300 C   0  0  0  0  0  2  0  0  0  0  0  0
  188.3060  176.3050  137.6930 C   0  0  0  0  0  2  0  0  0  0  0  0
  1  9  1  0  0  0  0
  2 13  1  1  0  0  0
  2  8  1  0  0  0  0
  2 11  1  0  0  0  0
  4  3  1  1  0  0  0
  5  1  1  6  0  0  0
  5  7  1  0  0  0  0
  5  4  1  0  0  0  0
  6  8  1  0  0  0  0
  8  5  1  0  0  0  0
  9 10  1  0  0  0  0
  9 24  1  1  0  0  0
 10  4  1  0  0  0  0
 11  7  1  6  0  0  0
 12  6  1  0  0  0  0
 12  8  1  0  0  0  0
 13 15  2  0  0  0  0
 15 14  1  0  0  0  0
 16 14  2  0  0  0  0
 17 19  2  0  0  0  0
 18 19  1  0  0  0  0
 18 13  1  0  0  0  0
 19 16  1  0  0  0  0
 20 22  1  0  0  0  0
 20 25  1  0  0  0  0
 22 23  1  0  0  0  0
 24 21  2  0  0  0  0
 25 23  1  0  0  0  0
 25 24  1  0  0  0  0
 26 29  1  0  0  0  0
 27 30  1  1  0  0  0
 27 11  1  0  0  0  0
 27 31  1  0  0  0  0
 29 28  1  0  0  0  0
 30 26  1  0  0  0  0
 31 28  1  0  0  0  0
M  END
>  <MODEL>
2

>  <REMARK>
 VINA RESULT:      -5.3      4.116      6.687
  Name = 
  3 active torsions:
  status: ('A' for Active; 'I' for Inactive)
    1  A    between atoms: C_4  and  C_5
    2  A    between atoms: C_12  and  C_27
    3  A    between atoms: C_19  and  C_22
                            x       y       z     vdW  Elec       q    Type
                         _______ _______ _______ _____ _____    ______ ____

>  <TORSDO>
F 3

$$$$
=
 OpenBabel10272400363D

 31 36  0  0  1  0  0  0  0  0999 V2000
  189.1430  178.5310  142.3700 O   0  0  0  0  0  0  0  0  0  0  0  0
  190.0000  177.7410  145.9160 C   0  0  1  0  0  3  0  0  0  0  0  0
  188.8290  175.2700  142.5520 C   0  0  0  0  0  1  0  0  0  0  0  0
  189.8870  176.3150  142.8820 C   0  0  2  0  0  3  0  0  0  0  0  0
  189.3310  177.6290  143.4400 C   0  0  2  0  0  0  0  0  0  0  0  0
  191.6530  178.7500  144.1200 C   0  0  0  0  0  2  0  0  0  0  0  0
  187.7570  177.4210  144.3470 S   0  0  0  0  0  0  0  0  0  0  0  0
  190.2940  178.1840  144.4940 C   0  0  0  0  0  0  0  0  0  0  0  0
  189.9650  178.1040  141.3060 C   0  0  1  0  0  3  0  0  0  0  0  0
  190.5360  176.7330  141.6000 C   0  0  0  0  0  2  0  0  0  0  0  0
  188.6380  177.0420  145.9040 C   0  0  2  0  0  3  0  0  0  0  0  0
  190.4990  179.6870  144.4400 C   0  0  0  0  0  2  0  0  0  0  0  0
  191.0710  176.8460  146.4670 C   0  0  0  0  0  0  0  0  0  0  0  0
  192.5380  174.9340  146.3090 C   0  0  0  0  0  3  0  0  0  0  0  0
  191.5320  175.7280  145.7570 C   0  0  0  0  0  3  0  0  0  0  0  0
  193.0680  175.2460  147.5230 N   0  0  0  0  0  0  0  0  0  0  0  0
  193.1530  176.5920  149.3460 O   0  0  0  0  0  0  0  0  0  0  0  0
  191.6340  177.1490  147.7090 C   0  0  0  0  0  2  0  0  0  0  0  0
  192.6400  176.3290  148.2270 C   0  0  0  0  0  0  0  0  0  0  0  0
  186.7140  178.6410  140.9190 C   0  0  0  0  0  2  0  0  0  0  0  0
  189.8210  177.8240  138.9500 O   0  0  0  0  0  0  0  0  0  0  0  0
  185.7180  178.6570  139.8560 C   0  0  0  0  0  2  0  0  0  0  0  0
  186.7990  178.3740  138.9620 N   0  0  0  0  0  2  0  0  0  0  0  0
  189.2090  178.0940  140.0150 C   0  0  0  0  0  0  0  0  0  0  0  0
  187.8020  178.3440  139.9730 N   0  0  0  0  0  0  0  0  0  0  0  0
  187.1870  179.3090  148.4470 O   0  0  0  0  0  0  0  0  0  0  0  0
  187.7740  177.3830  147.1180 C   0  0  1  0  0  3  0  0  0  0  0  0
  185.7550  178.8390  146.5220 C   0  0  0  0  0  2  0  0  0  0  0  0
  186.4200  179.8950  147.4240 C   0  0  0  0  0  2  0  0  0  0  0  0
  188.2570  178.6680  147.8010 C   0  0  0  0  0  2  0  0  0  0  0  0
  186.2680  177.4200  146.8050 C   0  0  0  0  0  2  0  0  0  0  0  0
  2 13  1  6  0  0  0
  4  3  1  6  0  0  0
  4  5  1  0  0  0  0
  5  1  1  6  0  0  0
  5  7  1  0  0  0  0
  5  8  1  0  0  0  0
  6 12  1  0  0  0  0
  6  8  1  0  0  0  0
  8  2  1  0  0  0  0
  9 24  1  6  0  0  0
  9 10  1  0  0  0  0
  9  1  1  0  0  0  0
 10  4  1  0  0  0  0
 11  7  1  6  0  0  0
 11  2  1  0  0  0  0
 11 27  1  0  0  0  0
 12  8  1  0  0  0  0
 13 18  1  0  0  0  0
 14 16  2  0  0  0  0
 15 14  1  0  0  0  0
 15 13  2  0  0  0  0
 16 19  1  0  0  0  0
 18 19  1  0  0  0  0
 19 17  2  0  0  0  0
 21 24  2  0  0  0  0
 22 20  1  0  0  0  0
 23 22  1  0  0  0  0
 23 25  1  0  0  0  0
 25 24  1  0  0  0  0
 25 20  1  0  0  0  0
 27 31  1  6  0  0  0
 27 30  1  0  0  0  0
 28 31  1  0  0  0  0
 28 29  1  0  0  0  0
 29 26  1  0  0  0  0
 30 26  1  0  0  0  0
M  END
>  <MODEL>
3

>  <REMARK>
 VINA RESULT:      -5.1      5.141      8.385
  Name = 
  3 active torsions:
  status: ('A' for Active; 'I' for Inactive)
    1  A    between atoms: C_4  and  C_5
    2  A    between atoms: C_12  and  C_27
    3  A    between atoms: C_19  and  C_22
                            x       y       z     vdW  Elec       q    Type
                         _______ _______ _______ _____ _____    ______ ____

>  <TORSDO>
F 3

$$$$
=
 OpenBabel10272400363D

 31 36  0  0  1  0  0  0  0  0999 V2000
  189.9090  178.0850  142.2470 O   0  0  0  0  0  0  0  0  0  0  0  0
  190.0090  177.7800  145.9660 C   0  0  1  0  0  3  0  0  0  0  0  0
  190.0440  174.8490  142.7720 C   0  0  0  0  0  1  0  0  0  0  0  0
  190.8280  176.0860  143.1890 C   0  0  2  0  0  3  0  0  0  0  0  0
  189.9690  177.3300  143.4390 C   0  0  2  0  0  0  0  0  0  0  0  0
  191.8730  178.8910  144.4610 C   0  0  0  0  0  2  0  0  0  0  0  0
  188.2740  176.9370  143.9990 S   0  0  0  0  0  0  0  0  0  0  0  0
  190.5630  178.1360  144.5980 C   0  0  0  0  0  0  0  0  0  0  0  0
  191.0130  177.7110  141.4530 C   0  0  1  0  0  3  0  0  0  0  0  0
  191.6930  176.4920  142.0370 C   0  0  0  0  0  2  0  0  0  0  0  0
  188.8070  176.8590  145.7460 C   0  0  2  0  0  3  0  0  0  0  0  0
  190.5520  179.6400  144.3990 C   0  0  0  0  0  2  0  0  0  0  0  0
  191.0390  177.1370  146.8480 C   0  0  0  0  0  0  0  0  0  0  0  0
  192.5720  175.3460  147.3760 C   0  0  0  0  0  3  0  0  0  0  0  0
  191.6090  175.8960  146.5280 C   0  0  0  0  0  2  0  0  0  0  0  0
  192.9530  176.0110  148.5000 N   0  0  0  0  0  0  0  0  0  0  0  0
  192.7950  177.8090  149.8730 O   0  0  0  0  0  0  0  0  0  0  0  0
  191.4520  177.8020  148.0050 C   0  0  0  0  0  3  0  0  0  0  0  0
  192.4180  177.2190  148.8270 C   0  0  0  0  0  0  0  0  0  0  0  0
  188.0170  178.2840  140.1480 C   0  0  0  0  0  2  0  0  0  0  0  0
  191.4170  176.9350  139.2420 O   0  0  0  0  0  0  0  0  0  0  0  0
  187.3130  178.1110  138.8830 C   0  0  0  0  0  2  0  0  0  0  0  0
  188.5460  177.5980  138.3710 N   0  0  0  0  0  2  0  0  0  0  0  0
  190.5930  177.4540  140.0400 C   0  0  0  0  0  0  0  0  0  0  0  0
  189.2680  177.7460  139.5900 N   0  0  0  0  0  0  0  0  0  0  0  0
  186.6500  179.0420  147.8170 O   0  0  0  0  0  0  0  0  0  0  0  0
  187.6390  177.1540  146.6880 C   0  0  1  0  0  3  0  0  0  0  0  0
  185.7980  178.5450  145.5800 C   0  0  0  0  0  2  0  0  0  0  0  0
  186.1600  179.6130  146.6280 C   0  0  0  0  0  2  0  0  0  0  0  0
  187.8760  178.4480  147.4770 C   0  0  0  0  0  2  0  0  0  0  0  0
  186.2700  177.1420  145.9870 C   0  0  0  0  0  2  0  0  0  0  0  0
  2 13  1  1  0  0  0
  4  3  1  6  0  0  0
  4  5  1  0  0  0  0
  5  1  1  6  0  0  0
  5  7  1  0  0  0  0
  5  8  1  0  0  0  0
  6  8  1  0  0  0  0
  8  2  1  0  0  0  0
  9 24  1  6  0  0  0
  9 10  1  0  0  0  0
  9  1  1  0  0  0  0
 10  4  1  0  0  0  0
 11  7  1  6  0  0  0
 11  2  1  0  0  0  0
 11 27  1  0  0  0  0
 12  6  1  0  0  0  0
 12  8  1  0  0  0  0
 13 18  2  0  0  0  0
 14 16  2  0  0  0  0
 15 13  1  0  0  0  0
 15 14  1  0  0  0  0
 16 19  1  0  0  0  0
 18 19  1  0  0  0  0
 19 17  2  0  0  0  0
 21 24  2  0  0  0  0
 22 20  1  0  0  0  0
 23 22  1  0  0  0  0
 23 25  1  0  0  0  0
 25 24  1  0  0  0  0
 25 20  1  0  0  0  0
 27 31  1  6  0  0  0
 27 30  1  0  0  0  0
 28 31  1  0  0  0  0
 28 29  1  0  0  0  0
 29 26  1  0  0  0  0
 30 26  1  0  0  0  0
M  END
>  <MODEL>
4

>  <REMARK>
 VINA RESULT:      -5.1      5.108      8.653
  Name = 
  3 active torsions:
  status: ('A' for Active; 'I' for Inactive)
    1  A    between atoms: C_4  and  C_5
    2  A    between atoms: C_12  and  C_27
    3  A    between atoms: C_19  and  C_22
                            x       y       z     vdW  Elec       q    Type
                         _______ _______ _______ _____ _____    ______ ____

>  <TORSDO>
F 3

$$$$
=
 OpenBabel10272400363D

 31 36  0  0  1  0  0  0  0  0999 V2000
  189.3690  178.3030  142.2970 O   0  0  0  0  0  0  0  0  0  0  0  0
  190.0110  177.7070  145.9250 C   0  0  1  0  0  3  0  0  0  0  0  0
  189.2450  175.0380  142.5960 C   0  0  0  0  0  1  0  0  0  0  0  0
  190.2090  176.1620  142.9550 C   0  0  2  0  0  3  0  0  0  0  0  0
  189.5340  177.4570  143.4150 C   0  0  2  0  0  0  0  0  0  0  0  0
  191.7250  178.7520  144.2090 C   0  0  0  0  0  2  0  0  0  0  0  0
  187.9140  177.1820  144.2170 S   0  0  0  0  0  0  0  0  0  0  0  0
  190.3800  178.1130  144.5100 C   0  0  0  0  0  0  0  0  0  0  0  0
  190.2910  177.8900  141.3140 C   0  0  1  0  0  3  0  0  0  0  0  0
  190.9240  176.5720  141.7050 C   0  0  0  0  0  2  0  0  0  0  0  0
  188.7000  176.9210  145.8470 C   0  0  2  0  0  3  0  0  0  0  0  0
  190.4960  179.6230  144.4070 C   0  0  0  0  0  2  0  0  0  0  0  0
  191.0930  176.9050  146.5890 C   0  0  0  0  0  0  0  0  0  0  0  0
  192.6240  175.0390  146.6530 C   0  0  0  0  0  3  0  0  0  0  0  0
  191.6110  175.7420  146.0010 C   0  0  0  0  0  3  0  0  0  0  0  0
  193.1050  175.4810  147.8460 N   0  0  0  0  0  0  0  0  0  0  0  0
  193.0900  176.9940  149.5360 O   0  0  0  0  0  0  0  0  0  0  0  0
  191.6070  177.3420  147.8120 C   0  0  0  0  0  2  0  0  0  0  0  0
  192.6210  176.6100  148.4330 C   0  0  0  0  0  0  0  0  0  0  0  0
  191.6050  176.5620  138.5720 C   0  0  0  0  0  2  0  0  0  0  0  0
  188.4810  178.2620  139.8180 O   0  0  0  0  0  0  0  0  0  0  0  0
  191.2570  176.3530  137.1710 C   0  0  0  0  0  2  0  0  0  0  0  0
  189.9980  176.9560  137.4870 N   0  0  0  0  0  2  0  0  0  0  0  0
  189.6340  177.7810  139.9740 C   0  0  0  0  0  0  0  0  0  0  0  0
  190.3020  177.1830  138.8610 N   0  0  0  0  0  0  0  0  0  0  0  0
  187.0280  179.1650  148.2720 O   0  0  0  0  0  0  0  0  0  0  0  0
  187.7300  177.2510  146.9820 C   0  0  1  0  0  3  0  0  0  0  0  0
  185.7760  178.7180  146.2200 C   0  0  0  0  0  2  0  0  0  0  0  0
  186.3570  179.7630  147.1900 C   0  0  0  0  0  2  0  0  0  0  0  0
  188.1510  178.5290  147.7180 C   0  0  0  0  0  2  0  0  0  0  0  0
  186.2580  177.2960  146.5340 C   0  0  0  0  0  2  0  0  0  0  0  0
  2 13  1  6  0  0  0
  4  3  1  6  0  0  0
  4  5  1  0  0  0  0
  5  1  1  6  0  0  0
  5  7  1  0  0  0  0
  5  8  1  0  0  0  0
  6 12  1  0  0  0  0
  6  8  1  0  0  0  0
  8  2  1  0  0  0  0
  9 24  1  6  0  0  0
  9 10  1  0  0  0  0
  9  1  1  0  0  0  0
 10  4  1  0  0  0  0
 11  7  1  6  0  0  0
 11  2  1  0  0  0  0
 11 27  1  0  0  0  0
 12  8  1  0  0  0  0
 13 18  1  0  0  0  0
 14 16  2  0  0  0  0
 15 13  2  0  0  0  0
 15 14  1  0  0  0  0
 16 19  1  0  0  0  0
 18 19  1  0  0  0  0
 19 17  2  0  0  0  0
 20 25  1  0  0  0  0
 21 24  2  0  0  0  0
 22 23  1  0  0  0  0
 22 20  1  0  0  0  0
 23 25  1  0  0  0  0
 25 24  1  0  0  0  0
 27 31  1  6  0  0  0
 27 30  1  0  0  0  0
 28 31  1  0  0  0  0
 28 29  1  0  0  0  0
 29 26  1  0  0  0  0
 30 26  1  0  0  0  0
M  END
>  <MODEL>
5

>  <REMARK>
 VINA RESULT:      -4.9      4.906      8.606
  Name = 
  3 active torsions:
  status: ('A' for Active; 'I' for Inactive)
    1  A    between atoms: C_4  and  C_5
    2  A    between atoms: C_12  and  C_27
    3  A    between atoms: C_19  and  C_22
                            x       y       z     vdW  Elec       q    Type
                         _______ _______ _______ _____ _____    ______ ____

>  <TORSDO>
F 3

$$$$
=
 OpenBabel10272400363D

 31 36  0  0  1  0  0  0  0  0999 V2000
  191.3360  176.0890  135.7790 O   0  0  0  0  0  0  0  0  0  0  0  0
  194.1140  173.6190  135.4300 C   0  0  1  0  0  3  0  0  0  0  0  0
  193.1250  176.5220  138.4940 C   0  0  0  0  0  1  0  0  0  0  0  0
  192.4550  175.3640  137.7660 C   0  0  2  0  0  3  0  0  0  0  0  0
  192.5120  175.4560  136.2380 C   0  0  2  0  0  0  0  0  0  0  0  0
  191.5520  173.0300  135.6880 C   0  0  0  0  0  2  0  0  0  0  0  0
  193.9740  176.3650  135.6220 S   0  0  0  0  0  0  0  0  0  0  0  0
  192.6750  174.0520  135.6470 C   0  0  0  0  0  0  0  0  0  0  0  0
  190.3610  175.9540  136.7890 C   0  0  1  0  0  3  0  0  0  0  0  0
  190.9890  175.4220  138.0590 C   0  0  0  0  0  2  0  0  0  0  0  0
  194.9980  174.8500  135.6460 C   0  0  2  0  0  3  0  0  0  0  0  0
  191.8480  173.7850  134.4030 C   0  0  0  0  0  2  0  0  0  0  0  0
  194.5130  172.4900  136.3340 C   0  0  0  0  0  0  0  0  0  0  0  0
  195.3650  171.6390  138.4280 C   0  0  0  0  0  3  0  0  0  0  0  0
  195.0190  172.7240  137.6210 C   0  0  0  0  0  3  0  0  0  0  0  0
  195.2080  170.3680  137.9690 N   0  0  0  0  0  0  0  0  0  0  0  0
  194.5780  168.9300  136.3330 O   0  0  0  0  0  0  0  0  0  0  0  0
  194.3560  171.1760  135.8880 C   0  0  0  0  0  2  0  0  0  0  0  0
  194.7130  170.1180  136.7260 C   0  0  0  0  0  0  0  0  0  0  0  0
  189.3320  177.0960  139.7290 C   0  0  0  0  0  2  0  0  0  0  0  0
  189.4080  178.0110  136.0750 O   0  0  0  0  0  0  0  0  0  0  0  0
  188.6270  178.2460  140.2810 C   0  0  0  0  0  2  0  0  0  0  0  0
  188.5970  178.7550  138.9430 N   0  0  0  0  0  2  0  0  0  0  0  0
  189.6740  177.2580  137.0470 C   0  0  0  0  0  0  0  0  0  0  0  0
  189.2780  177.6450  138.3650 N   0  0  0  0  0  0  0  0  0  0  0  0
  198.4400  175.6990  134.5810 O   0  0  0  0  0  0  0  0  0  0  0  0
  196.1480  174.9500  134.6440 C   0  0  1  0  0  3  0  0  0  0  0  0
  198.0780  173.3600  135.1890 C   0  0  0  0  0  2  0  0  0  0  0  0
  198.9040  174.6440  135.3860 C   0  0  0  0  0  2  0  0  0  0  0  0
  197.1630  176.0190  135.0690 C   0  0  0  0  0  2  0  0  0  0  0  0
  196.8180  173.5980  134.3460 C   0  0  0  0  0  2  0  0  0  0  0  0
  1  5  1  0  0  0  0
  1  9  1  0  0  0  0
  2 11  1  0  0  0  0
  2  8  1  0  0  0  0
  2 13  1  1  0  0  0
  4 10  1  0  0  0  0
  4  3  1  1  0  0  0
  5  7  1  6  0  0  0
  5  4  1  0  0  0  0
  8  6  1  0  0  0  0
  8  5  1  0  0  0  0
  9 24  1  1  0  0  0
  9 10  1  0  0  0  0
 11  7  1  6  0  0  0
 12  8  1  0  0  0  0
 12  6  1  0  0  0  0
 13 15  2  0  0  0  0
 15 14  1  0  0  0  0
 16 14  2  0  0  0  0
 17 19  2  0  0  0  0
 18 13  1  0  0  0  0
 18 19  1  0  0  0  0
 19 16  1  0  0  0  0
 20 22  1  0  0  0  0
 21 24  2  0  0  0  0
 23 22  1  0  0  0  0
 24 25  1  0  0  0  0
 25 23  1  0  0  0  0
 25 20  1  0  0  0  0
 26 30  1  0  0  0  0
 26 29  1  0  0  0  0
 27 31  1  1  0  0  0
 27 30  1  0  0  0  0
 27 11  1  0  0  0  0
 28 29  1  0  0  0  0
 31 28  1  0  0  0  0
M  END
>  <MODEL>
6

>  <REMARK>
 VINA RESULT:      -4.8      3.966      6.964
  Name = 
  3 active torsions:
  status: ('A' for Active; 'I' for Inactive)
    1  A    between atoms: C_4  and  C_5
    2  A    between atoms: C_12  and  C_27
    3  A    between atoms: C_19  and  C_22
                            x       y       z     vdW  Elec       q    Type
                         _______ _______ _______ _____ _____    ______ ____

>  <TORSDO>
F 3

$$$$
=
 OpenBabel10272400363D

 31 36  0  0  1  0  0  0  0  0999 V2000
  190.5470  175.4770  134.6540 O   0  0  0  0  0  0  0  0  0  0  0  0
  187.3120  176.5450  136.1800 C   0  0  1  0  0  3  0  0  0  0  0  0
  190.5370  174.0140  137.5910 C   0  0  0  0  0  1  0  0  0  0  0  0
  190.3540  175.4220  137.0380 C   0  0  2  0  0  3  0  0  0  0  0  0
  189.6030  175.4900  135.7050 C   0  0  2  0  0  0  0  0  0  0  0  0
  189.3290  178.1380  135.5720 C   0  0  0  0  0  2  0  0  0  0  0  0
  188.4140  174.1200  135.4740 S   0  0  0  0  0  0  0  0  0  0  0  0
  188.7290  176.7470  135.6740 C   0  0  0  0  0  0  0  0  0  0  0  0
  191.7820  175.8980  135.1890 C   0  0  1  0  0  3  0  0  0  0  0  0
  191.7070  175.9620  136.6990 C   0  0  0  0  0  2  0  0  0  0  0  0
  187.0980  175.0390  136.3500 C   0  0  2  0  0  3  0  0  0  0  0  0
  188.7160  177.4820  134.3460 C   0  0  0  0  0  2  0  0  0  0  0  0
  187.0530  177.2840  137.4610 C   0  0  0  0  0  0  0  0  0  0  0  0
  187.7490  178.1060  139.6220 C   0  0  0  0  0  3  0  0  0  0  0  0
  188.0360  177.3990  138.4540 C   0  0  0  0  0  3  0  0  0  0  0  0
  186.5280  178.6810  139.7910 N   0  0  0  0  0  0  0  0  0  0  0  0
  184.4420  179.1330  139.0250 O   0  0  0  0  0  0  0  0  0  0  0  0
  185.8080  177.8870  137.6550 C   0  0  0  0  0  2  0  0  0  0  0  0
  185.5600  178.5870  138.8380 C   0  0  0  0  0  0  0  0  0  0  0  0
  195.0120  176.6470  135.0780 C   0  0  0  0  0  2  0  0  0  0  0  0
  192.6110  173.8360  134.3460 O   0  0  0  0  0  0  0  0  0  0  0  0
  196.2740  176.0340  134.6810 C   0  0  0  0  0  2  0  0  0  0  0  0
  195.5060  174.8640  134.3790 N   0  0  0  0  0  2  0  0  0  0  0  0
  192.8910  174.9930  134.7530 C   0  0  0  0  0  0  0  0  0  0  0  0
  194.2520  175.4290  134.7510 N   0  0  0  0  0  0  0  0  0  0  0  0
  184.6520  172.5700  135.0730 O   0  0  0  0  0  0  0  0  0  0  0  0
  185.7130  174.5710  135.9020 C   0  0  1  0  0  3  0  0  0  0  0  0
  184.6800  172.8600  137.5000 C   0  0  0  0  0  2  0  0  0  0  0  0
  184.7560  171.8950  136.3030 C   0  0  0  0  0  2  0  0  0  0  0  0
  185.8110  173.3560  134.9710 C   0  0  0  0  0  2  0  0  0  0  0  0
  184.7410  174.3320  137.0710 C   0  0  0  0  0  2  0  0  0  0  0  0
  1  9  1  0  0  0  0
  2 11  1  0  0  0  0
  2 13  1  1  0  0  0
  4  3  1  6  0  0  0
  5  1  1  6  0  0  0
  5  4  1  0  0  0  0
  6  8  1  0  0  0  0
  7  5  1  0  0  0  0
  8  5  1  0  0  0  0
  8  2  1  0  0  0  0
  9 24  1  1  0  0  0
  9 10  1  0  0  0  0
 10  4  1  0  0  0  0
 11  7  1  6  0  0  0
 12  6  1  0  0  0  0
 12  8  1  0  0  0  0
 13 18  1  0  0  0  0
 13 15  2  0  0  0  0
 14 16  2  0  0  0  0
 15 14  1  0  0  0  0
 18 19  1  0  0  0  0
 19 17  2  0  0  0  0
 19 16  1  0  0  0  0
 21 24  2  0  0  0  0
 22 20  1  0  0  0  0
 23 22  1  0  0  0  0
 23 25  1  0  0  0  0
 25 24  1  0  0  0  0
 25 20  1  0  0  0  0
 26 29  1  0  0  0  0
 27 30  1  1  0  0  0
 27 11  1  0  0  0  0
 27 31  1  0  0  0  0
 29 28  1  0  0  0  0
 30 26  1  0  0  0  0
 31 28  1  0  0  0  0
M  END
>  <MODEL>
7

>  <REMARK>
 VINA RESULT:      -4.8      2.924      7.228
  Name = 
  3 active torsions:
  status: ('A' for Active; 'I' for Inactive)
    1  A    between atoms: C_4  and  C_5
    2  A    between atoms: C_12  and  C_27
    3  A    between atoms: C_19  and  C_22
                            x       y       z     vdW  Elec       q    Type
                         _______ _______ _______ _____ _____    ______ ____

>  <TORSDO>
F 3

$$$$
=
 OpenBabel10272400363D

 31 36  0  0  1  0  0  0  0  0999 V2000
  187.6290  175.0940  135.0320 O   0  0  0  0  0  0  0  0  0  0  0  0
  184.6460  176.9280  136.3260 C   0  0  1  0  0  3  0  0  0  0  0  0
  186.0820  172.8770  136.8900 C   0  0  0  0  0  1  0  0  0  0  0  0
  186.6030  174.3000  137.0420 C   0  0  2  0  0  3  0  0  0  0  0  0
  186.4430  175.1730  135.7940 C   0  0  2  0  0  0  0  0  0  0  0  0
  187.1650  177.4990  136.8780 C   0  0  0  0  0  2  0  0  0  0  0  0
  185.0160  174.6940  134.7560 S   0  0  0  0  0  0  0  0  0  0  0  0
  186.1260  176.6120  136.2150 C   0  0  0  0  0  0  0  0  0  0  0  0
  188.6610  174.6750  135.8970 C   0  0  1  0  0  3  0  0  0  0  0  0
  188.0870  174.2300  137.2240 C   0  0  0  0  0  2  0  0  0  0  0  0
  183.8810  175.7440  135.7300 C   0  0  2  0  0  3  0  0  0  0  0  0
  186.8370  177.6820  135.4060 C   0  0  0  0  0  2  0  0  0  0  0  0
  184.2250  177.1980  137.7410 C   0  0  0  0  0  0  0  0  0  0  0  0
  182.9780  176.6440  139.7340 C   0  0  0  0  0  3  0  0  0  0  0  0
  183.3290  176.3560  138.4140 C   0  0  0  0  0  2  0  0  0  0  0  0
  183.5060  177.7300  140.3600 N   0  0  0  0  0  0  0  0  0  0  0  0
  184.8550  179.5530  140.3380 O   0  0  0  0  0  0  0  0  0  0  0  0
  184.7580  178.3040  138.4080 C   0  0  0  0  0  3  0  0  0  0  0  0
  184.3830  178.5580  139.7280 C   0  0  0  0  0  0  0  0  0  0  0  0
  191.7850  173.8510  136.6500 C   0  0  0  0  0  2  0  0  0  0  0  0
  188.9600  172.8980  134.3460 O   0  0  0  0  0  0  0  0  0  0  0  0
  192.8120  172.9100  136.2210 C   0  0  0  0  0  2  0  0  0  0  0  0
  191.8380  172.4070  135.3000 N   0  0  0  0  0  2  0  0  0  0  0  0
  189.4660  173.5770  135.2760 C   0  0  0  0  0  0  0  0  0  0  0  0
  190.8100  173.3130  135.6880 N   0  0  0  0  0  0  0  0  0  0  0  0
  180.2780  176.3510  135.1290 O   0  0  0  0  0  0  0  0  0  0  0  0
  182.6710  176.1660  134.8950 C   0  0  1  0  0  3  0  0  0  0  0  0
  181.5860  178.3230  135.7420 C   0  0  0  0  0  2  0  0  0  0  0  0
  180.3570  177.4380  136.0180 C   0  0  0  0  0  2  0  0  0  0  0  0
  181.3800  175.5330  135.4290 C   0  0  0  0  0  2  0  0  0  0  0  0
  182.5470  177.6900  134.7270 C   0  0  0  0  0  2  0  0  0  0  0  0
  1  5  1  0  0  0  0
  1  9  1  0  0  0  0
  2 13  1  1  0  0  0
  4  3  1  6  0  0  0
  4 10  1  0  0  0  0
  5  7  1  6  0  0  0
  5  8  1  0  0  0  0
  5  4  1  0  0  0  0
  8  2  1  0  0  0  0
  8  6  1  0  0  0  0
  9 24  1  6  0  0  0
  9 10  1  0  0  0  0
 11  7  1  6  0  0  0
 11  2  1  0  0  0  0
 12  8  1  0  0  0  0
 12  6  1  0  0  0  0
 13 18  2  0  0  0  0
 13 15  1  0  0  0  0
 14 16  2  0  0  0  0
 15 14  1  0  0  0  0
 18 19  1  0  0  0  0
 19 17  2  0  0  0  0
 19 16  1  0  0  0  0
 21 24  2  0  0  0  0
 22 20  1  0  0  0  0
 23 25  1  0  0  0  0
 23 22  1  0  0  0  0
 24 25  1  0  0  0  0
 25 20  1  0  0  0  0
 26 30  1  0  0  0  0
 26 29  1  0  0  0  0
 27 31  1  1  0  0  0
 27 30  1  0  0  0  0
 27 11  1  0  0  0  0
 28 29  1  0  0  0  0
 31 28  1  0  0  0  0
M  END
>  <MODEL>
8

>  <REMARK>
 VINA RESULT:      -4.4      3.442      7.538
  Name = 
  3 active torsions:
  status: ('A' for Active; 'I' for Inactive)
    1  A    between atoms: C_4  and  C_5
    2  A    between atoms: C_12  and  C_27
    3  A    between atoms: C_19  and  C_22
                            x       y       z     vdW  Elec       q    Type
                         _______ _______ _______ _____ _____    ______ ____

>  <TORSDO>
F 3

$$$$
=
 OpenBabel10272400363D

 31 36  0  0  1  0  0  0  0  0999 V2000
  186.4520  177.9850  137.0150 O   0  0  0  0  0  0  0  0  0  0  0  0
  189.8120  177.4900  138.5640 C   0  0  1  0  0  3  0  0  0  0  0  0
  186.4570  174.8270  137.9020 C   0  0  0  0  0  1  0  0  0  0  0  0
  187.3410  175.7650  137.0910 C   0  0  2  0  0  3  0  0  0  0  0  0
  187.4340  177.1900  137.6460 C   0  0  2  0  0  0  0  0  0  0  0  0
  189.3560  178.0880  136.0320 C   0  0  0  0  0  2  0  0  0  0  0  0
  187.2150  177.2750  139.4590 S   0  0  0  0  0  0  0  0  0  0  0  0
  188.8470  177.7360  137.4190 C   0  0  0  0  0  0  0  0  0  0  0  0
  186.1030  177.3470  135.8070 C   0  0  1  0  0  3  0  0  0  0  0  0
  186.7020  175.9580  135.7520 C   0  0  0  0  0  2  0  0  0  0  0  0
  188.9940  176.9660  139.7460 C   0  0  2  0  0  3  0  0  0  0  0  0
  188.9050  179.1870  136.9790 C   0  0  0  0  0  2  0  0  0  0  0  0
  190.9100  176.5380  138.1900 C   0  0  0  0  0  0  0  0  0  0  0  0
  193.2400  175.9110  138.0810 C   0  0  0  0  0  3  0  0  0  0  0  0
  192.2580  176.8360  138.4370 C   0  0  0  0  0  3  0  0  0  0  0  0
  192.8910  174.7310  137.5020 N   0  0  0  0  0  0  0  0  0  0  0  0
  191.2990  173.3150  136.7240 O   0  0  0  0  0  0  0  0  0  0  0  0
  190.5760  175.3160  137.6000 C   0  0  0  0  0  2  0  0  0  0  0  0
  191.5890  174.4170  137.2580 C   0  0  0  0  0  0  0  0  0  0  0  0
  183.8510  177.2300  138.2400 C   0  0  0  0  0  2  0  0  0  0  0  0
  184.1320  177.2390  134.4820 O   0  0  0  0  0  0  0  0  0  0  0  0
  182.4060  177.1280  138.4020 C   0  0  0  0  0  2  0  0  0  0  0  0
  182.3350  177.1490  136.9730 N   0  0  0  0  0  2  0  0  0  0  0  0
  184.6170  177.2880  135.6420 C   0  0  0  0  0  0  0  0  0  0  0  0
  183.7430  177.2440  136.7720 N   0  0  0  0  0  0  0  0  0  0  0  0
  188.5400  177.9000  143.3000 O   0  0  0  0  0  0  0  0  0  0  0  0
  189.4400  177.5400  141.0910 C   0  0  1  0  0  3  0  0  0  0  0  0
  189.6430  175.7530  142.9130 C   0  0  0  0  0  2  0  0  0  0  0  0
  188.5120  176.5290  143.6120 C   0  0  0  0  0  2  0  0  0  0  0  0
  188.2370  177.9850  141.9310 C   0  0  0  0  0  2  0  0  0  0  0  0
  190.3820  176.6060  141.8720 C   0  0  0  0  0  2  0  0  0  0  0  0
  2 13  1  6  0  0  0
  2 11  1  0  0  0  0
  4  5  1  0  0  0  0
  4  3  1  1  0  0  0
  5  1  1  6  0  0  0
  5  7  1  0  0  0  0
  6 12  1  0  0  0  0
  6  8  1  0  0  0  0
  8  5  1  0  0  0  0
  8  2  1  0  0  0  0
  9 24  1  1  0  0  0
  9  1  1  0  0  0  0
 10  9  1  0  0  0  0
 10  4  1  0  0  0  0
 11  7  1  6  0  0  0
 11 27  1  0  0  0  0
 12  8  1  0  0  0  0
 13 15  2  0  0  0  0
 14 15  1  0  0  0  0
 16 14  2  0  0  0  0
 17 19  2  0  0  0  0
 18 13  1  0  0  0  0
 19 16  1  0  0  0  0
 19 18  1  0  0  0  0
 20 22  1  0  0  0  0
 21 24  2  0  0  0  0
 23 22  1  0  0  0  0
 24 25  1  0  0  0  0
 25 23  1  0  0  0  0
 25 20  1  0  0  0  0
 26 29  1  0  0  0  0
 27 31  1  1  0  0  0
 27 30  1  0  0  0  0
 28 29  1  0  0  0  0
 30 26  1  0  0  0  0
 31 28  1  0  0  0  0
M  END
>  <MODEL>
9

>  <REMARK>
 VINA RESULT:      -4.3      2.105      2.491
  Name = 
  3 active torsions:
  status: ('A' for Active; 'I' for Inactive)
    1  A    between atoms: C_4  and  C_5
    2  A    between atoms: C_12  and  C_27
    3  A    between atoms: C_19  and  C_22
                            x       y       z     vdW  Elec       q    Type
                         _______ _______ _______ _____ _____    ______ ____

>  <TORSDO>
F 3

$$$$
