=
 OpenBabel10272402023D

 28 30  0  0  1  0  0  0  0  0999 V2000
  190.8230  177.9400  143.0060 C   0  0  0  0  0  2  0  0  0  0  0  0
  191.8700  178.0030  144.1230 C   0  0  0  0  0  2  0  0  0  0  0  0
  191.4590  177.2980  145.4320 C   0  0  1  0  0  3  0  0  0  0  0  0
  189.1630  178.5940  145.2770 C   0  0  0  0  0  2  0  0  0  0  0  0
  188.3350  177.7920  144.2530 C   0  0  1  0  0  3  0  0  0  0  0  0
  190.1920  177.8430  146.1350 C   0  0  1  0  0  3  0  0  0  0  0  0
  188.9360  176.4970  143.6340 C   0  0  1  0  0  3  0  0  0  0  0  0
  188.9670  176.5050  142.1510 C   0  0  2  0  0  3  0  0  0  0  0  0
  190.2410  176.5980  142.9120 N   0  0  1  0  0  0  0  0  0  0  0  0
  189.0530  177.5860  148.2220 O   0  0  0  0  0  1  0  0  0  0  0  0
  189.5550  176.8800  147.1270 C   0  0  0  0  0  2  0  0  0  0  0  0
  192.3460  175.4180  146.2090 C   0  0  0  0  0  1  0  0  0  0  0  0
  191.4290  175.9060  145.2760 O   0  0  0  0  0  0  0  0  0  0  0  0
  186.8570  177.6740  144.6490 C   0  0  1  0  0  3  0  0  0  0  0  0
  185.9640  177.0180  146.5660 C   0  0  0  0  0  1  0  0  0  0  0  0
  186.6650  178.0700  145.9770 O   0  0  0  0  0  0  0  0  0  0  0  0
  185.9210  178.4190  143.7390 C   0  0  0  0  0  0  0  0  0  0  0  0
  185.7560  177.9580  142.4920 C   0  0  0  0  0  3  0  0  0  0  0  0
  184.8770  178.6250  141.4820 C   0  0  0  0  0  2  0  0  0  0  0  0
  185.6280  179.5370  140.7440 O   0  0  0  0  0  1  0  0  0  0  0  0
  185.2280  179.6610  144.2250 C   0  0  0  0  0  2  0  0  0  0  0  0
  183.7460  179.4010  144.4250 C   0  0  0  0  0  2  0  0  0  0  0  0
  183.4940  179.1640  145.7750 O   0  0  0  0  0  1  0  0  0  0  0  0
  188.5450  177.8060  141.4480 C   0  0  0  0  0  2  0  0  0  0  0  0
  188.3750  177.5660  140.0850 O   0  0  0  0  0  0  0  0  0  0  0  0
  189.5150  178.1020  139.4880 C   0  0  0  0  0  3  0  0  0  0  0  0
  189.3620  178.0450  137.9820 C   0  0  0  0  0  2  0  0  0  0  0  0
  190.2150  177.0180  138.6940 C   0  0  0  0  0  2  0  0  0  0  0  0
  1  2  1  0  0  0  0
  2  3  1  0  0  0  0
  3 13  1  6  0  0  0
  3  6  1  0  0  0  0
  4  6  1  0  0  0  0
  5 14  1  1  0  0  0
  5  4  1  0  0  0  0
  6 11  1  6  0  0  0
  7  5  1  0  0  0  0
  8  9  1  0  0  0  0
  8  7  1  0  0  0  0
  9  1  1  0  0  0  0
  9  7  1  0  0  0  0
 11 10  1  0  0  0  0
 13 12  1  0  0  0  0
 14 16  1  0  0  0  0
 16 15  1  0  0  0  0
 17 21  1  0  0  0  0
 17 14  1  0  0  0  0
 18 17  2  0  0  0  0
 19 18  1  0  0  0  0
 20 19  1  0  0  0  0
 21 22  1  0  0  0  0
 22 23  1  0  0  0  0
 24  8  1  0  0  0  0
 25 24  1  0  0  0  0
 26 25  1  0  0  0  0
 27 28  1  0  0  0  0
 27 26  1  0  0  0  0
 28 26  1  0  0  0  0
M  END
>  <MODEL>
1

>  <REMARK>
 VINA RESULT:      -6.0      0.000      0.000
  Name = 
  11 active torsions:
  status: ('A' for Active; 'I' for Inactive)
    1  A    between atoms: C_3  and  O_28
    2  A    between atoms: C_5  and  O_21
    3  A    between atoms: C_9  and  C_13
    4  A    between atoms: C_9  and  C_14
    5  A    between atoms: C_10  and  C_13
    6  A    between atoms: C_11  and  C_22
    7  A    between atoms: C_12  and  C_15
    8  A    between atoms: C_13  and  O_24
    9  A    between atoms: C_14  and  C_18
   10  A    between atoms: C_16  and  C_20
   11  A    between atoms: C_16  and  O_21
                            x       y       z     vdW  Elec       q    Type
                         _______ _______ _______ _____ _____    ______ ____

>  <TORSDO>
F 11

$$$$
=
 OpenBabel10272402023D

 28 30  0  0  1  0  0  0  0  0999 V2000
  187.5230  178.5880  142.4340 C   0  0  0  0  0  2  0  0  0  0  0  0
  188.1610  179.0560  141.1220 C   0  0  0  0  0  2  0  0  0  0  0  0
  189.3330  178.1850  140.6270 C   0  0  1  0  0  3  0  0  0  0  0  0
  190.3300  178.3370  143.0680 C   0  0  0  0  0  2  0  0  0  0  0  0
  189.5290  177.2990  143.8780 C   0  0  1  0  0  3  0  0  0  0  0  0
  190.5560  178.0820  141.5710 C   0  0  1  0  0  3  0  0  0  0  0  0
  188.4560  176.4320  143.1560 C   0  0  1  0  0  3  0  0  0  0  0  0
  187.1090  176.5190  143.7710 C   0  0  2  0  0  3  0  0  0  0  0  0
  187.3490  177.1310  142.4370 N   0  0  1  0  0  0  0  0  0  0  0  0
  192.4530  177.2500  140.3760 O   0  0  0  0  0  1  0  0  0  0  0  0
  191.4670  176.8930  141.2970 C   0  0  0  0  0  2  0  0  0  0  0  0
  188.5450  177.1210  138.8450 C   0  0  0  0  0  1  0  0  0  0  0  0
  188.8880  176.9320  140.1860 O   0  0  0  0  0  0  0  0  0  0  0  0
  190.4030  176.5210  144.8720 C   0  0  1  0  0  3  0  0  0  0  0  0
  191.9590  175.0940  144.2070 C   0  0  0  0  0  1  0  0  0  0  0  0
  191.7250  176.4520  144.4220 O   0  0  0  0  0  0  0  0  0  0  0  0
  190.3530  177.0570  146.2750 C   0  0  0  0  0  0  0  0  0  0  0  0
  189.1940  177.5690  146.7130 C   0  0  0  0  0  3  0  0  0  0  0  0
  189.0240  178.1600  148.0770 C   0  0  0  0  0  2  0  0  0  0  0  0
  187.6720  178.1690  148.4120 O   0  0  0  0  0  1  0  0  0  0  0  0
  191.5880  177.0390  147.1330 C   0  0  0  0  0  2  0  0  0  0  0  0
  191.8330  175.6460  147.6840 C   0  0  0  0  0  2  0  0  0  0  0  0
  193.1990  175.4610  147.8860 O   0  0  0  0  0  1  0  0  0  0  0  0
  186.9250  177.5290  144.9160 C   0  0  0  0  0  2  0  0  0  0  0  0
  185.5940  177.5240  145.3320 O   0  0  0  0  0  0  0  0  0  0  0  0
  185.1570  178.8330  145.1290 C   0  0  0  0  0  3  0  0  0  0  0  0
  183.6540  178.8890  145.3090 C   0  0  0  0  0  2  0  0  0  0  0  0
  184.2480  178.8700  143.9170 C   0  0  0  0  0  2  0  0  0  0  0  0
  1  9  1  0  0  0  0
  2  1  1  0  0  0  0
  3 13  1  1  0  0  0
  3  2  1  0  0  0  0
  3  6  1  0  0  0  0
  4  5  1  0  0  0  0
  5 14  1  6  0  0  0
  6 11  1  1  0  0  0
  6  4  1  0  0  0  0
  7  8  1  0  0  0  0
  7  5  1  0  0  0  0
  8 24  1  0  0  0  0
  9  7  1  0  0  0  0
  9  8  1  0  0  0  0
 10 11  1  0  0  0  0
 12 13  1  0  0  0  0
 14 17  1  0  0  0  0
 15 16  1  0  0  0  0
 16 14  1  0  0  0  0
 17 18  2  0  0  0  0
 17 21  1  0  0  0  0
 18 19  1  0  0  0  0
 19 20  1  0  0  0  0
 21 22  1  0  0  0  0
 22 23  1  0  0  0  0
 24 25  1  0  0  0  0
 26 27  1  0  0  0  0
 26 25  1  0  0  0  0
 28 26  1  0  0  0  0
 28 27  1  0  0  0  0
M  END
>  <MODEL>
2

>  <REMARK>
 VINA RESULT:      -5.9      1.724      6.298
  Name = 
  11 active torsions:
  status: ('A' for Active; 'I' for Inactive)
    1  A    between atoms: C_3  and  O_28
    2  A    between atoms: C_5  and  O_21
    3  A    between atoms: C_9  and  C_13
    4  A    between atoms: C_9  and  C_14
    5  A    between atoms: C_10  and  C_13
    6  A    between atoms: C_11  and  C_22
    7  A    between atoms: C_12  and  C_15
    8  A    between atoms: C_13  and  O_24
    9  A    between atoms: C_14  and  C_18
   10  A    between atoms: C_16  and  C_20
   11  A    between atoms: C_16  and  O_21
                            x       y       z     vdW  Elec       q    Type
                         _______ _______ _______ _____ _____    ______ ____

>  <TORSDO>
F 11

$$$$
=
 OpenBabel10272402023D

 28 30  0  0  1  0  0  0  0  0999 V2000
  186.1520  179.0020  144.3900 C   0  0  0  0  0  2  0  0  0  0  0  0
  185.0840  179.7590  143.5930 C   0  0  0  0  0  2  0  0  0  0  0  0
  184.8150  179.2000  142.1810 C   0  0  1  0  0  3  0  0  0  0  0  0
  187.4290  179.1980  141.8070 C   0  0  0  0  0  2  0  0  0  0  0  0
  187.9220  177.9260  142.5250 C   0  0  1  0  0  3  0  0  0  0  0  0
  186.0170  179.1990  141.2050 C   0  0  1  0  0  3  0  0  0  0  0  0
  186.8840  176.9810  143.1990 C   0  0  1  0  0  3  0  0  0  0  0  0
  187.1550  176.7280  144.6350 C   0  0  2  0  0  3  0  0  0  0  0  0
  185.9810  177.5530  144.2430 N   0  0  1  0  0  0  0  0  0  0  0  0
  186.5220  178.7790  138.9060 O   0  0  0  0  0  1  0  0  0  0  0  0
  185.8700  178.2520  140.0220 C   0  0  0  0  0  2  0  0  0  0  0  0
  182.8110  178.2520  142.0870 C   0  0  0  0  0  1  0  0  0  0  0  0
  184.1680  177.9600  142.2360 O   0  0  0  0  0  0  0  0  0  0  0  0
  189.0260  177.1970  141.7470 C   0  0  1  0  0  3  0  0  0  0  0  0
  189.5240  176.7800  139.6300 C   0  0  0  0  0  1  0  0  0  0  0  0
  189.2650  177.8230  140.5200 O   0  0  0  0  0  0  0  0  0  0  0  0
  190.3090  177.0400  142.5150 C   0  0  0  0  0  0  0  0  0  0  0  0
  190.5160  175.8870  143.1660 C   0  0  0  0  0  3  0  0  0  0  0  0
  191.7360  175.6190  143.9880 C   0  0  0  0  0  2  0  0  0  0  0  0
  191.5500  176.1240  145.2730 O   0  0  0  0  0  1  0  0  0  0  0  0
  191.3010  178.1690  142.5630 C   0  0  0  0  0  2  0  0  0  0  0  0
  190.9770  179.1150  143.7040 C   0  0  0  0  0  2  0  0  0  0  0  0
  192.1390  179.3940  144.4200 O   0  0  0  0  0  1  0  0  0  0  0  0
  188.3050  177.5180  145.2810 C   0  0  0  0  0  2  0  0  0  0  0  0
  188.6100  176.9640  146.5240 O   0  0  0  0  0  0  0  0  0  0  0  0
  188.7200  178.0600  147.3800 C   0  0  0  0  0  3  0  0  0  0  0  0
  188.2240  177.6670  148.7570 C   0  0  0  0  0  2  0  0  0  0  0  0
  187.3360  178.4740  147.8350 C   0  0  0  0  0  2  0  0  0  0  0  0
  2  1  1  0  0  0  0
  3 13  1  1  0  0  0
  3  2  1  0  0  0  0
  4  5  1  0  0  0  0
  5 14  1  6  0  0  0
  5  7  1  0  0  0  0
  6 11  1  1  0  0  0
  6  4  1  0  0  0  0
  6  3  1  0  0  0  0
  7  9  1  0  0  0  0
  7  8  1  0  0  0  0
  8 24  1  0  0  0  0
  9  1  1  0  0  0  0
  9  8  1  0  0  0  0
 10 11  1  0  0  0  0
 12 13  1  0  0  0  0
 14 17  1  0  0  0  0
 15 16  1  0  0  0  0
 16 14  1  0  0  0  0
 17 21  1  0  0  0  0
 17 18  2  0  0  0  0
 18 19  1  0  0  0  0
 19 20  1  0  0  0  0
 21 22  1  0  0  0  0
 22 23  1  0  0  0  0
 24 25  1  0  0  0  0
 25 26  1  0  0  0  0
 26 28  1  0  0  0  0
 26 27  1  0  0  0  0
 28 27  1  0  0  0  0
M  END
>  <MODEL>
3

>  <REMARK>
 VINA RESULT:      -5.8      1.875      6.983
  Name = 
  11 active torsions:
  status: ('A' for Active; 'I' for Inactive)
    1  A    between atoms: C_3  and  O_28
    2  A    between atoms: C_5  and  O_21
    3  A    between atoms: C_9  and  C_13
    4  A    between atoms: C_9  and  C_14
    5  A    between atoms: C_10  and  C_13
    6  A    between atoms: C_11  and  C_22
    7  A    between atoms: C_12  and  C_15
    8  A    between atoms: C_13  and  O_24
    9  A    between atoms: C_14  and  C_18
   10  A    between atoms: C_16  and  C_20
   11  A    between atoms: C_16  and  O_21
                            x       y       z     vdW  Elec       q    Type
                         _______ _______ _______ _____ _____    ______ ____

>  <TORSDO>
F 11

$$$$
=
 OpenBabel10272402023D

 28 30  0  0  1  0  0  0  0  0999 V2000
  191.2380  176.3230  143.9980 C   0  0  0  0  0  2  0  0  0  0  0  0
  191.3770  175.7810  142.5720 C   0  0  0  0  0  2  0  0  0  0  0  0
  190.5390  176.5260  141.5140 C   0  0  1  0  0  3  0  0  0  0  0  0
  188.4780  176.2980  143.1490 C   0  0  0  0  0  2  0  0  0  0  0  0
  188.6820  177.4190  144.1870 C   0  0  1  0  0  3  0  0  0  0  0  0
  189.0050  176.5150  141.7230 C   0  0  1  0  0  3  0  0  0  0  0  0
  189.8970  178.3820  144.0400 C   0  0  1  0  0  3  0  0  0  0  0  0
  190.7630  178.4360  145.2430 C   0  0  2  0  0  3  0  0  0  0  0  0
  191.2680  177.7890  144.0030 N   0  0  1  0  0  0  0  0  0  0  0  0
  188.3660  177.3930  139.5920 O   0  0  0  0  0  1  0  0  0  0  0  0
  188.2560  177.6040  140.9670 C   0  0  0  0  0  2  0  0  0  0  0  0
  192.1720  177.6200  140.4830 C   0  0  0  0  0  1  0  0  0  0  0  0
  191.0400  177.8120  141.2770 O   0  0  0  0  0  0  0  0  0  0  0  0
  187.3700  178.1150  144.5740 C   0  0  1  0  0  3  0  0  0  0  0  0
  185.7690  178.6210  143.1300 C   0  0  0  0  0  1  0  0  0  0  0  0
  186.2910  177.5630  143.8750 O   0  0  0  0  0  0  0  0  0  0  0  0
  187.0940  178.1150  146.0510 C   0  0  0  0  0  0  0  0  0  0  0  0
  187.7700  177.2510  146.8190 C   0  0  0  0  0  3  0  0  0  0  0  0
  187.5650  177.1330  148.2960 C   0  0  0  0  0  2  0  0  0  0  0  0
  188.3980  178.0340  148.9530 O   0  0  0  0  0  1  0  0  0  0  0  0
  186.0600  179.0460  146.6230 C   0  0  0  0  0  2  0  0  0  0  0  0
  184.7060  178.3630  146.6870 C   0  0  0  0  0  2  0  0  0  0  0  0
  183.7970  179.0610  145.8940 O   0  0  0  0  0  1  0  0  0  0  0  0
  190.4360  177.4600  146.3860 C   0  0  0  0  0  2  0  0  0  0  0  0
  191.5130  177.3980  147.2690 O   0  0  0  0  0  0  0  0  0  0  0  0
  191.5130  176.0830  147.7330 C   0  0  0  0  0  3  0  0  0  0  0  0
  192.8690  175.7670  148.3300 C   0  0  0  0  0  2  0  0  0  0  0  0
  192.5220  175.2780  146.9410 C   0  0  0  0  0  2  0  0  0  0  0  0
  1  9  1  0  0  0  0
  2  1  1  0  0  0  0
  3 13  1  1  0  0  0
  3  6  1  0  0  0  0
  3  2  1  0  0  0  0
  4  5  1  0  0  0  0
  5 14  1  6  0  0  0
  6 11  1  1  0  0  0
  6  4  1  0  0  0  0
  7  5  1  0  0  0  0
  7  8  1  0  0  0  0
  8 24  1  0  0  0  0
  9  7  1  0  0  0  0
  9  8  1  0  0  0  0
 10 11  1  0  0  0  0
 12 13  1  0  0  0  0
 14 17  1  0  0  0  0
 15 16  1  0  0  0  0
 16 14  1  0  0  0  0
 17 21  1  0  0  0  0
 17 18  2  0  0  0  0
 18 19  1  0  0  0  0
 19 20  1  0  0  0  0
 21 22  1  0  0  0  0
 23 22  1  0  0  0  0
 24 25  1  0  0  0  0
 25 26  1  0  0  0  0
 26 27  1  0  0  0  0
 28 26  1  0  0  0  0
 28 27  1  0  0  0  0
M  END
>  <MODEL>
4

>  <REMARK>
 VINA RESULT:      -5.8      1.700      5.419
  Name = 
  11 active torsions:
  status: ('A' for Active; 'I' for Inactive)
    1  A    between atoms: C_3  and  O_28
    2  A    between atoms: C_5  and  O_21
    3  A    between atoms: C_9  and  C_13
    4  A    between atoms: C_9  and  C_14
    5  A    between atoms: C_10  and  C_13
    6  A    between atoms: C_11  and  C_22
    7  A    between atoms: C_12  and  C_15
    8  A    between atoms: C_13  and  O_24
    9  A    between atoms: C_14  and  C_18
   10  A    between atoms: C_16  and  C_20
   11  A    between atoms: C_16  and  O_21
                            x       y       z     vdW  Elec       q    Type
                         _______ _______ _______ _____ _____    ______ ____

>  <TORSDO>
F 11

$$$$
=
 OpenBabel10272402023D

 28 30  0  0  1  0  0  0  0  0999 V2000
  186.6030  177.3820  143.0480 C   0  0  0  0  0  2  0  0  0  0  0  0
  187.0260  176.6860  144.3460 C   0  0  0  0  0  2  0  0  0  0  0  0
  188.5160  176.8470  144.7080 C   0  0  1  0  0  3  0  0  0  0  0  0
  189.0800  176.1470  142.2260 C   0  0  0  0  0  2  0  0  0  0  0  0
  188.8510  177.4280  141.4000 C   0  0  1  0  0  3  0  0  0  0  0  0
  189.5340  176.2880  143.6860 C   0  0  1  0  0  3  0  0  0  0  0  0
  188.4340  178.7390  142.1290 C   0  0  1  0  0  3  0  0  0  0  0  0
  187.1810  179.3380  141.6070 C   0  0  2  0  0  3  0  0  0  0  0  0
  187.1920  178.7220  142.9600 N   0  0  1  0  0  0  0  0  0  0  0  0
  191.8750  175.8120  143.7930 O   0  0  0  0  0  1  0  0  0  0  0  0
  190.9430  176.8490  143.8230 C   0  0  0  0  0  2  0  0  0  0  0  0
  188.7200  178.1590  146.4870 C   0  0  0  0  0  1  0  0  0  0  0  0
  188.8090  178.1610  145.0940 O   0  0  0  0  0  0  0  0  0  0  0  0
  189.9070  177.6250  140.3050 C   0  0  1  0  0  3  0  0  0  0  0  0
  192.1130  177.4400  140.3520 C   0  0  0  0  0  1  0  0  0  0  0  0
  190.9400  176.6910  140.4380 O   0  0  0  0  0  0  0  0  0  0  0  0
  189.3500  177.5970  138.9100 C   0  0  0  0  0  0  0  0  0  0  0  0
  189.2150  178.7620  138.2620 C   0  0  0  0  0  3  0  0  0  0  0  0
  188.6460  178.8710  136.8820 C   0  0  0  0  0  2  0  0  0  0  0  0
  187.3060  179.2420  136.9610 O   0  0  0  0  0  1  0  0  0  0  0  0
  188.9330  176.2910  138.2910 C   0  0  0  0  0  2  0  0  0  0  0  0
  190.0310  175.7520  137.3930 C   0  0  0  0  0  2  0  0  0  0  0  0
  190.5940  174.6200  137.9790 O   0  0  0  0  0  1  0  0  0  0  0  0
  186.4110  178.5360  140.5440 C   0  0  0  0  0  2  0  0  0  0  0  0
  185.3310  179.2890  140.0840 O   0  0  0  0  0  0  0  0  0  0  0  0
  184.2700  178.3850  140.0320 C   0  0  0  0  0  3  0  0  0  0  0  0
  182.9630  179.1530  140.0210 C   0  0  0  0  0  2  0  0  0  0  0  0
  183.4510  178.5080  141.3010 C   0  0  0  0  0  2  0  0  0  0  0  0
  1  2  1  0  0  0  0
  2  3  1  0  0  0  0
  3 13  1  6  0  0  0
  4  6  1  0  0  0  0
  5 14  1  1  0  0  0
  5  7  1  0  0  0  0
  5  4  1  0  0  0  0
  6 11  1  6  0  0  0
  6  3  1  0  0  0  0
  7  9  1  0  0  0  0
  8  7  1  0  0  0  0
  8  9  1  0  0  0  0
  9  1  1  0  0  0  0
 10 11  1  0  0  0  0
 13 12  1  0  0  0  0
 14 16  1  0  0  0  0
 15 16  1  0  0  0  0
 17 14  1  0  0  0  0
 18 17  2  0  0  0  0
 19 20  1  0  0  0  0
 19 18  1  0  0  0  0
 21 17  1  0  0  0  0
 22 23  1  0  0  0  0
 22 21  1  0  0  0  0
 24  8  1  0  0  0  0
 25 24  1  0  0  0  0
 26 25  1  0  0  0  0
 26 28  1  0  0  0  0
 27 26  1  0  0  0  0
 27 28  1  0  0  0  0
M  END
>  <MODEL>
5

>  <REMARK>
 VINA RESULT:      -5.5      2.151      5.703
  Name = 
  11 active torsions:
  status: ('A' for Active; 'I' for Inactive)
    1  A    between atoms: C_3  and  O_28
    2  A    between atoms: C_5  and  O_21
    3  A    between atoms: C_9  and  C_13
    4  A    between atoms: C_9  and  C_14
    5  A    between atoms: C_10  and  C_13
    6  A    between atoms: C_11  and  C_22
    7  A    between atoms: C_12  and  C_15
    8  A    between atoms: C_13  and  O_24
    9  A    between atoms: C_14  and  C_18
   10  A    between atoms: C_16  and  C_20
   11  A    between atoms: C_16  and  O_21
                            x       y       z     vdW  Elec       q    Type
                         _______ _______ _______ _____ _____    ______ ____

>  <TORSDO>
F 11

$$$$
=
 OpenBabel10272402023D

 28 30  0  0  1  0  0  0  0  0999 V2000
  187.9740  176.8120  142.9670 C   0  0  0  0  0  2  0  0  0  0  0  0
  189.3250  176.1980  143.3490 C   0  0  0  0  0  2  0  0  0  0  0  0
  190.5400  176.8080  142.6210 C   0  0  1  0  0  3  0  0  0  0  0  0
  189.1960  176.5130  140.3670 C   0  0  0  0  0  2  0  0  0  0  0  0
  188.2210  177.7070  140.3380 C   0  0  1  0  0  3  0  0  0  0  0  0
  190.5460  176.6860  141.0770 C   0  0  1  0  0  3  0  0  0  0  0  0
  188.2660  178.7550  141.4890 C   0  0  1  0  0  3  0  0  0  0  0  0
  186.9610  178.9500  142.1670 C   0  0  2  0  0  3  0  0  0  0  0  0
  188.0700  178.2740  142.8900 N   0  0  1  0  0  0  0  0  0  0  0  0
  192.1920  177.0020  139.3710 O   0  0  0  0  0  1  0  0  0  0  0  0
  191.4740  177.6640  140.3690 C   0  0  0  0  0  2  0  0  0  0  0  0
  191.4810  177.9660  144.2640 C   0  0  0  0  0  1  0  0  0  0  0  0
  190.7950  178.1140  143.0570 O   0  0  0  0  0  0  0  0  0  0  0  0
  188.0710  178.3160  138.9380 C   0  0  1  0  0  3  0  0  0  0  0  0
  189.1100  179.1810  137.1830 C   0  0  0  0  0  1  0  0  0  0  0  0
  189.2960  178.3170  138.2630 O   0  0  0  0  0  0  0  0  0  0  0  0
  187.0110  177.6610  138.0990 C   0  0  0  0  0  0  0  0  0  0  0  0
  187.2030  176.3900  137.7200 C   0  0  0  0  0  3  0  0  0  0  0  0
  186.2380  175.6360  136.8600 C   0  0  0  0  0  2  0  0  0  0  0  0
  186.6910  175.6390  135.5430 O   0  0  0  0  0  1  0  0  0  0  0  0
  185.7930  178.4380  137.6820 C   0  0  0  0  0  2  0  0  0  0  0  0
  184.8160  178.5590  138.8380 C   0  0  0  0  0  2  0  0  0  0  0  0
  184.6470  179.9030  139.1640 O   0  0  0  0  0  1  0  0  0  0  0  0
  185.8090  178.0220  141.7490 C   0  0  0  0  0  2  0  0  0  0  0  0
  184.8370  178.0050  142.7500 O   0  0  0  0  0  0  0  0  0  0  0  0
  185.0040  179.2150  143.4220 C   0  0  0  0  0  3  0  0  0  0  0  0
  184.8530  178.9810  144.9120 C   0  0  0  0  0  2  0  0  0  0  0  0
  183.7090  179.5770  144.1200 C   0  0  0  0  0  2  0  0  0  0  0  0
  1  2  1  0  0  0  0
  3 13  1  6  0  0  0
  3  2  1  0  0  0  0
  4  6  1  0  0  0  0
  5 14  1  6  0  0  0
  5  4  1  0  0  0  0
  5  7  1  0  0  0  0
  6 11  1  6  0  0  0
  6  3  1  0  0  0  0
  7  8  1  0  0  0  0
  7  9  1  0  0  0  0
  8  9  1  0  0  0  0
  9  1  1  0  0  0  0
 10 11  1  0  0  0  0
 13 12  1  0  0  0  0
 15 16  1  0  0  0  0
 16 14  1  0  0  0  0
 17 14  1  0  0  0  0
 18 17  2  0  0  0  0
 19 18  1  0  0  0  0
 20 19  1  0  0  0  0
 21 17  1  0  0  0  0
 21 22  1  0  0  0  0
 22 23  1  0  0  0  0
 24  8  1  0  0  0  0
 24 25  1  0  0  0  0
 25 26  1  0  0  0  0
 26 28  1  0  0  0  0
 26 27  1  0  0  0  0
 28 27  1  0  0  0  0
M  END
>  <MODEL>
6

>  <REMARK>
 VINA RESULT:      -5.0      2.338      5.862
  Name = 
  11 active torsions:
  status: ('A' for Active; 'I' for Inactive)
    1  A    between atoms: C_3  and  O_28
    2  A    between atoms: C_5  and  O_21
    3  A    between atoms: C_9  and  C_13
    4  A    between atoms: C_9  and  C_14
    5  A    between atoms: C_10  and  C_13
    6  A    between atoms: C_11  and  C_22
    7  A    between atoms: C_12  and  C_15
    8  A    between atoms: C_13  and  O_24
    9  A    between atoms: C_14  and  C_18
   10  A    between atoms: C_16  and  C_20
   11  A    between atoms: C_16  and  O_21
                            x       y       z     vdW  Elec       q    Type
                         _______ _______ _______ _____ _____    ______ ____

>  <TORSDO>
F 11

$$$$
=
 OpenBabel10272402023D

 28 30  0  0  1  0  0  0  0  0999 V2000
  187.9660  176.8300  142.7880 C   0  0  0  0  0  2  0  0  0  0  0  0
  189.3220  176.1820  143.0850 C   0  0  0  0  0  2  0  0  0  0  0  0
  190.5090  176.7840  142.3060 C   0  0  1  0  0  3  0  0  0  0  0  0
  189.0420  176.5610  140.1210 C   0  0  0  0  0  2  0  0  0  0  0  0
  188.0920  177.7740  140.1680 C   0  0  1  0  0  3  0  0  0  0  0  0
  190.4310  176.6930  140.7620 C   0  0  1  0  0  3  0  0  0  0  0  0
  188.2190  178.7970  141.3350 C   0  0  1  0  0  3  0  0  0  0  0  0
  186.9560  179.0040  142.0850 C   0  0  2  0  0  3  0  0  0  0  0  0
  188.0870  178.2910  142.7350 N   0  0  1  0  0  0  0  0  0  0  0  0
  192.6700  177.2570  140.1380 O   0  0  0  0  0  1  0  0  0  0  0  0
  191.3400  177.6670  140.0250 C   0  0  0  0  0  2  0  0  0  0  0  0
  191.5380  177.8890  143.9320 C   0  0  0  0  0  1  0  0  0  0  0  0
  190.8130  178.0750  142.7530 O   0  0  0  0  0  0  0  0  0  0  0  0
  187.8810  178.4150  138.7890 C   0  0  1  0  0  3  0  0  0  0  0  0
  189.2540  179.4300  137.3800 C   0  0  0  0  0  1  0  0  0  0  0  0
  188.9870  178.1920  137.9640 O   0  0  0  0  0  0  0  0  0  0  0  0
  186.6170  177.9790  138.1030 C   0  0  0  0  0  0  0  0  0  0  0  0
  185.4480  178.3680  138.6290 C   0  0  0  0  0  3  0  0  0  0  0  0
  184.1220  177.9770  138.0580 C   0  0  0  0  0  2  0  0  0  0  0  0
  183.5330  177.0120  138.8720 O   0  0  0  0  0  1  0  0  0  0  0  0
  186.6870  177.1060  136.8810 C   0  0  0  0  0  2  0  0  0  0  0  0
  186.8550  175.6500  137.2760 C   0  0  0  0  0  2  0  0  0  0  0  0
  185.6750  174.9580  137.0110 O   0  0  0  0  0  1  0  0  0  0  0  0
  185.7640  178.1070  141.7110 C   0  0  0  0  0  2  0  0  0  0  0  0
  184.9730  177.8890  142.8390 O   0  0  0  0  0  0  0  0  0  0  0  0
  184.6350  179.1660  143.2840 C   0  0  0  0  0  3  0  0  0  0  0  0
  184.4570  179.1380  144.7880 C   0  0  0  0  0  2  0  0  0  0  0  0
  183.2440  179.1310  143.8830 C   0  0  0  0  0  2  0  0  0  0  0  0
  1  2  1  0  0  0  0
  3 13  1  6  0  0  0
  3  2  1  0  0  0  0
  4  5  1  0  0  0  0
  4  6  1  0  0  0  0
  5 14  1  6  0  0  0
  5  7  1  0  0  0  0
  6 11  1  6  0  0  0
  6  3  1  0  0  0  0
  7  8  1  0  0  0  0
  7  9  1  0  0  0  0
  8  9  1  0  0  0  0
  9  1  1  0  0  0  0
 11 10  1  0  0  0  0
 13 12  1  0  0  0  0
 15 16  1  0  0  0  0
 16 14  1  0  0  0  0
 17 18  2  0  0  0  0
 17 14  1  0  0  0  0
 19 18  1  0  0  0  0
 19 20  1  0  0  0  0
 21 22  1  0  0  0  0
 21 17  1  0  0  0  0
 23 22  1  0  0  0  0
 24  8  1  0  0  0  0
 24 25  1  0  0  0  0
 25 26  1  0  0  0  0
 26 28  1  0  0  0  0
 26 27  1  0  0  0  0
 28 27  1  0  0  0  0
M  END
>  <MODEL>
7

>  <REMARK>
 VINA RESULT:      -5.0      2.476      6.065
  Name = 
  11 active torsions:
  status: ('A' for Active; 'I' for Inactive)
    1  A    between atoms: C_3  and  O_28
    2  A    between atoms: C_5  and  O_21
    3  A    between atoms: C_9  and  C_13
    4  A    between atoms: C_9  and  C_14
    5  A    between atoms: C_10  and  C_13
    6  A    between atoms: C_11  and  C_22
    7  A    between atoms: C_12  and  C_15
    8  A    between atoms: C_13  and  O_24
    9  A    between atoms: C_14  and  C_18
   10  A    between atoms: C_16  and  C_20
   11  A    between atoms: C_16  and  O_21
                            x       y       z     vdW  Elec       q    Type
                         _______ _______ _______ _____ _____    ______ ____

>  <TORSDO>
F 11

$$$$
=
 OpenBabel10272402023D

 28 30  0  0  1  0  0  0  0  0999 V2000
  186.9830  177.4230  143.1180 C   0  0  0  0  0  2  0  0  0  0  0  0
  187.4080  176.7940  144.4490 C   0  0  0  0  0  2  0  0  0  0  0  0
  188.9170  176.8870  144.7540 C   0  0  1  0  0  3  0  0  0  0  0  0
  189.3510  175.9800  142.3120 C   0  0  0  0  0  2  0  0  0  0  0  0
  189.1710  177.2120  141.4040 C   0  0  1  0  0  3  0  0  0  0  0  0
  189.8640  176.1940  143.7430 C   0  0  1  0  0  3  0  0  0  0  0  0
  188.8600  178.5950  142.0490 C   0  0  1  0  0  3  0  0  0  0  0  0
  187.6280  179.2330  141.5230 C   0  0  2  0  0  3  0  0  0  0  0  0
  187.6490  178.7130  142.9160 N   0  0  1  0  0  0  0  0  0  0  0  0
  191.9330  176.1810  144.9430 O   0  0  0  0  0  1  0  0  0  0  0  0
  191.3070  176.6750  143.7970 C   0  0  0  0  0  2  0  0  0  0  0  0
  189.2290  178.3150  146.4240 C   0  0  0  0  0  1  0  0  0  0  0  0
  189.3020  178.2040  145.0340 O   0  0  0  0  0  0  0  0  0  0  0  0
  190.1990  177.2650  140.2650 C   0  0  1  0  0  3  0  0  0  0  0  0
  192.3670  177.6580  140.4830 C   0  0  0  0  0  1  0  0  0  0  0  0
  191.4010  176.6660  140.6540 O   0  0  0  0  0  0  0  0  0  0  0  0
  189.7090  176.6700  138.9750 C   0  0  0  0  0  0  0  0  0  0  0  0
  190.4410  175.7000  138.4100 C   0  0  0  0  0  3  0  0  0  0  0  0
  190.0780  175.0500  137.1130 C   0  0  0  0  0  2  0  0  0  0  0  0
  189.9230  173.6790  137.3090 O   0  0  0  0  0  1  0  0  0  0  0  0
  188.4490  177.1880  138.3380 C   0  0  0  0  0  2  0  0  0  0  0  0
  188.7610  178.3360  137.3960 C   0  0  0  0  0  2  0  0  0  0  0  0
  188.9890  179.4940  138.1360 O   0  0  0  0  0  1  0  0  0  0  0  0
  186.7740  178.4080  140.5450 C   0  0  0  0  0  2  0  0  0  0  0  0
  185.4920  178.9510  140.4740 O   0  0  0  0  0  0  0  0  0  0  0  0
  185.2000  178.9870  139.1100 C   0  0  0  0  0  3  0  0  0  0  0  0
  183.7260  179.2830  138.9250 C   0  0  0  0  0  2  0  0  0  0  0  0
  184.2370  177.8660  138.7790 C   0  0  0  0  0  2  0  0  0  0  0  0
  1  2  1  0  0  0  0
  2  3  1  0  0  0  0
  3 13  1  6  0  0  0
  4  6  1  0  0  0  0
  5 14  1  1  0  0  0
  5  7  1  0  0  0  0
  5  4  1  0  0  0  0
  6 11  1  6  0  0  0
  6  3  1  0  0  0  0
  7  9  1  0  0  0  0
  8  7  1  0  0  0  0
  8  9  1  0  0  0  0
  9  1  1  0  0  0  0
 11 10  1  0  0  0  0
 13 12  1  0  0  0  0
 14 16  1  0  0  0  0
 15 16  1  0  0  0  0
 17 14  1  0  0  0  0
 18 17  2  0  0  0  0
 19 20  1  0  0  0  0
 19 18  1  0  0  0  0
 21 17  1  0  0  0  0
 22 23  1  0  0  0  0
 22 21  1  0  0  0  0
 24  8  1  0  0  0  0
 25 24  1  0  0  0  0
 26 25  1  0  0  0  0
 27 26  1  0  0  0  0
 28 27  1  0  0  0  0
 28 26  1  0  0  0  0
M  END
>  <MODEL>
8

>  <REMARK>
 VINA RESULT:      -4.8      2.244      5.533
  Name = 
  11 active torsions:
  status: ('A' for Active; 'I' for Inactive)
    1  A    between atoms: C_3  and  O_28
    2  A    between atoms: C_5  and  O_21
    3  A    between atoms: C_9  and  C_13
    4  A    between atoms: C_9  and  C_14
    5  A    between atoms: C_10  and  C_13
    6  A    between atoms: C_11  and  C_22
    7  A    between atoms: C_12  and  C_15
    8  A    between atoms: C_13  and  O_24
    9  A    between atoms: C_14  and  C_18
   10  A    between atoms: C_16  and  C_20
   11  A    between atoms: C_16  and  O_21
                            x       y       z     vdW  Elec       q    Type
                         _______ _______ _______ _____ _____    ______ ____

>  <TORSDO>
F 11

$$$$
=
 OpenBabel10272402023D

 28 30  0  0  1  0  0  0  0  0999 V2000
  185.8040  177.8240  141.7530 C   0  0  0  0  0  2  0  0  0  0  0  0
  184.5240  177.8080  142.5950 C   0  0  0  0  0  2  0  0  0  0  0  0
  184.6760  178.3990  144.0120 C   0  0  1  0  0  3  0  0  0  0  0  0
  186.8260  176.8900  144.2890 C   0  0  0  0  0  2  0  0  0  0  0  0
  187.9350  177.6570  143.5430 C   0  0  1  0  0  3  0  0  0  0  0  0
  185.6920  177.6940  144.9420 C   0  0  1  0  0  3  0  0  0  0  0  0
  187.6080  179.0370  142.9000 C   0  0  1  0  0  3  0  0  0  0  0  0
  187.9240  179.1090  141.4520 C   0  0  2  0  0  3  0  0  0  0  0  0
  186.5050  179.1040  141.8950 N   0  0  1  0  0  0  0  0  0  0  0  0
  185.1230  178.6780  147.0470 O   0  0  0  0  0  1  0  0  0  0  0  0
  186.1590  178.5360  146.1220 C   0  0  0  0  0  2  0  0  0  0  0  0
  183.5770  180.3260  144.0950 C   0  0  0  0  0  1  0  0  0  0  0  0
  184.8590  179.7870  143.9700 O   0  0  0  0  0  0  0  0  0  0  0  0
  189.2840  177.6060  144.2720 C   0  0  1  0  0  3  0  0  0  0  0  0
  189.6830  177.7960  146.4420 C   0  0  0  0  0  1  0  0  0  0  0  0
  189.1660  176.9220  145.4860 O   0  0  0  0  0  0  0  0  0  0  0  0
  190.4000  177.0280  143.4500 C   0  0  0  0  0  0  0  0  0  0  0  0
  191.1680  177.8720  142.7470 C   0  0  0  0  0  3  0  0  0  0  0  0
  192.2900  177.4190  141.8670 C   0  0  0  0  0  2  0  0  0  0  0  0
  191.9630  177.6630  140.5350 O   0  0  0  0  0  1  0  0  0  0  0  0
  190.6100  175.5390  143.4050 C   0  0  0  0  0  2  0  0  0  0  0  0
  191.9080  175.1630  144.0950 C   0  0  0  0  0  2  0  0  0  0  0  0
  191.9790  175.8020  145.3310 O   0  0  0  0  0  1  0  0  0  0  0  0
  188.3870  177.8110  140.7710 C   0  0  0  0  0  2  0  0  0  0  0  0
  189.0290  178.1170  139.5710 O   0  0  0  0  0  0  0  0  0  0  0  0
  188.0380  177.9920  138.5990 C   0  0  0  0  0  3  0  0  0  0  0  0
  188.5840  177.1920  137.4330 C   0  0  0  0  0  2  0  0  0  0  0  0
  188.4880  178.7000  137.3370 C   0  0  0  0  0  2  0  0  0  0  0  0
  1  9  1  0  0  0  0
  1  2  1  0  0  0  0
  2  3  1  0  0  0  0
  3 13  1  6  0  0  0
  3  6  1  0  0  0  0
  4  6  1  0  0  0  0
  5 14  1  1  0  0  0
  5  4  1  0  0  0  0
  6 11  1  6  0  0  0
  7  5  1  0  0  0  0
  8  9  1  0  0  0  0
  8  7  1  0  0  0  0
  9  7  1  0  0  0  0
 11 10  1  0  0  0  0
 13 12  1  0  0  0  0
 14 16  1  0  0  0  0
 16 15  1  0  0  0  0
 17 14  1  0  0  0  0
 18 17  2  0  0  0  0
 19 18  1  0  0  0  0
 20 19  1  0  0  0  0
 21 17  1  0  0  0  0
 21 22  1  0  0  0  0
 22 23  1  0  0  0  0
 24  8  1  0  0  0  0
 25 24  1  0  0  0  0
 26 25  1  0  0  0  0
 27 26  1  0  0  0  0
 28 27  1  0  0  0  0
 28 26  1  0  0  0  0
M  END
>  <MODEL>
9

>  <REMARK>
 VINA RESULT:      -4.5      1.804      5.378
  Name = 
  11 active torsions:
  status: ('A' for Active; 'I' for Inactive)
    1  A    between atoms: C_3  and  O_28
    2  A    between atoms: C_5  and  O_21
    3  A    between atoms: C_9  and  C_13
    4  A    between atoms: C_9  and  C_14
    5  A    between atoms: C_10  and  C_13
    6  A    between atoms: C_11  and  C_22
    7  A    between atoms: C_12  and  C_15
    8  A    between atoms: C_13  and  O_24
    9  A    between atoms: C_14  and  C_18
   10  A    between atoms: C_16  and  C_20
   11  A    between atoms: C_16  and  O_21
                            x       y       z     vdW  Elec       q    Type
                         _______ _______ _______ _____ _____    ______ ____

>  <TORSDO>
F 11

$$$$
