=
 OpenBabel10272400553D

 25 28  0  0  1  0  0  0  0  0999 V2000
  187.6330  177.6040  146.0380 C   0  0  0  0  0  0  0  0  0  0  0  0
  187.1110  177.7970  144.7410 C   0  0  0  0  0  0  0  0  0  0  0  0
  185.7550  178.7010  147.0630 C   0  0  0  0  0  3  0  0  0  0  0  0
  188.9140  176.9450  146.4260 C   0  0  2  0  0  3  0  0  0  0  0  0
  187.9180  177.6360  142.3330 C   0  0  0  0  0  0  0  0  0  0  0  0
  185.2020  178.9060  145.7970 C   0  0  0  0  0  3  0  0  0  0  0  0
  188.9650  177.0280  147.9700 C   0  0  1  0  0  3  0  0  0  0  0  0
  189.0030  178.4600  148.4900 C   0  0  0  0  0  2  0  0  0  0  0  0
  185.1110  178.7040  143.3470 C   0  0  0  0  0  0  0  0  0  0  0  0
  184.0110  179.3210  143.3710 O   0  0  0  0  0  0  0  0  0  0  0  0
  187.9360  177.2800  143.6190 C   0  0  0  0  0  3  0  0  0  0  0  0
  186.9730  178.0430  147.1570 C   0  0  0  0  0  0  0  0  0  0  0  0
  187.6760  177.7260  148.4250 C   0  0  1  0  0  3  0  0  0  0  0  0
  185.5880  178.2300  142.0190 C   0  0  0  0  0  2  0  0  0  0  0  0
  187.0080  178.6820  141.7990 C   0  0  0  0  0  2  0  0  0  0  0  0
  185.8460  178.4620  144.6220 C   0  0  0  0  0  0  0  0  0  0  0  0
  188.8620  176.9670  141.3880 C   0  0  0  0  0  2  0  0  0  0  0  0
  190.2890  175.5220  142.6810 N   0  0  0  0  0  2  0  0  0  0  0  0
  190.1620  176.6480  142.0590 C   0  0  0  0  0  0  0  0  0  0  0  0
  191.3180  177.5460  141.9260 C   0  0  0  0  0  0  0  0  0  0  0  0
  192.0950  177.5190  140.7720 O   0  0  0  0  0  0  0  0  0  0  0  0
  191.6200  178.3400  142.8540 O   0  0  0  0  0  1  0  0  0  0  0  0
  190.1240  177.6280  145.7940 C   0  0  0  0  0  2  0  0  0  0  0  0
  192.0300  176.8700  147.0080 O   0  0  0  0  0  1  0  0  0  0  0  0
  191.3260  176.7000  145.8170 C   0  0  0  0  0  2  0  0  0  0  0  0
  1  4  1  0  0  0  0
  1 12  1  0  0  0  0
  2  1  2  0  0  0  0
  3 12  2  0  0  0  0
  4 23  1  6  0  0  0
  4  7  1  0  0  0  0
  5 11  2  0  0  0  0
  6  3  1  0  0  0  0
  7 13  1  0  0  0  0
  7  8  1  6  0  0  0
  9 10  2  0  0  0  0
  9 16  1  0  0  0  0
 11  2  1  0  0  0  0
 12 13  1  0  0  0  0
 13  8  1  6  0  0  0
 14  9  1  0  0  0  0
 15 14  1  0  0  0  0
 15  5  1  0  0  0  0
 16  2  1  0  0  0  0
 16  6  2  0  0  0  0
 17 19  1  0  0  0  0
 17  5  1  0  0  0  0
 19 18  2  0  0  0  0
 20 19  1  0  0  0  0
 20 22  1  0  0  0  0
 21 20  2  0  0  0  0
 23 25  1  0  0  0  0
 25 24  1  0  0  0  0
M  END
>  <MODEL>
1

>  <REMARK>
 VINA RESULT:     -10.1      0.000      0.000
  Name = 
  5 active torsions:
  status: ('A' for Active; 'I' for Inactive)
    1  A    between atoms: C_2  and  CA_25
    2  A    between atoms: C_5  and  C_22
    3  A    between atoms: C_6  and  C_15
    4  A    between atoms: C_15  and  CA_25
    5  A    between atoms: C_17  and  C_22
                            x       y       z     vdW  Elec       q    Type
                         _______ _______ _______ _____ _____    ______ ____

>  <TORSDO>
F 5

$$$$
=
 OpenBabel10272400553D

 25 28  0  0  1  0  0  0  0  0999 V2000
  188.6300  177.2440  144.5590 C   0  0  0  0  0  0  0  0  0  0  0  0
  187.3000  177.6730  144.7570 C   0  0  0  0  0  0  0  0  0  0  0  0
  189.2130  177.6730  146.8520 C   0  0  0  0  0  3  0  0  0  0  0  0
  189.2590  176.7480  143.3000 C   0  0  2  0  0  3  0  0  0  0  0  0
  185.2830  178.3010  143.3380 C   0  0  0  0  0  0  0  0  0  0  0  0
  187.9060  178.1010  147.0890 C   0  0  0  0  0  3  0  0  0  0  0  0
  190.7260  176.4300  143.6750 C   0  0  1  0  0  3  0  0  0  0  0  0
  191.5050  177.6580  144.1330 C   0  0  0  0  0  2  0  0  0  0  0  0
  185.5600  178.5380  146.4870 C   0  0  0  0  0  0  0  0  0  0  0  0
  185.3620  178.9170  147.6730 O   0  0  0  0  0  0  0  0  0  0  0  0
  186.4130  177.6280  143.5660 C   0  0  0  0  0  3  0  0  0  0  0  0
  189.5510  177.2460  145.5760 C   0  0  0  0  0  0  0  0  0  0  0  0
  190.8850  176.7390  145.1700 C   0  0  1  0  0  3  0  0  0  0  0  0
  184.3820  178.5250  145.5780 C   0  0  0  0  0  2  0  0  0  0  0  0
  184.7100  179.2680  144.3090 C   0  0  0  0  0  2  0  0  0  0  0  0
  186.9260  178.1060  146.0720 C   0  0  0  0  0  0  0  0  0  0  0  0
  184.5670  178.0860  142.0450 C   0  0  0  0  0  2  0  0  0  0  0  0
  186.2440  179.5610  141.1450 N   0  0  0  0  0  2  0  0  0  0  0  0
  185.0950  178.9950  140.9780 C   0  0  0  0  0  0  0  0  0  0  0  0
  184.3750  179.1610  139.7070 C   0  0  0  0  0  0  0  0  0  0  0  0
  183.7090  178.0820  139.1340 O   0  0  0  0  0  1  0  0  0  0  0  0
  184.3590  180.2760  139.1230 O   0  0  0  0  0  0  0  0  0  0  0  0
  189.1850  177.7810  142.1790 C   0  0  0  0  0  2  0  0  0  0  0  0
  189.0610  177.9660  139.8050 O   0  0  0  0  0  1  0  0  0  0  0  0
  189.4740  177.1270  140.8390 C   0  0  0  0  0  2  0  0  0  0  0  0
  1  2  2  0  0  0  0
  1 12  1  0  0  0  0
  2 16  1  0  0  0  0
  3  6  1  0  0  0  0
  4 23  1  6  0  0  0
  4  7  1  0  0  0  0
  4  1  1  0  0  0  0
  5 11  2  0  0  0  0
  5 15  1  0  0  0  0
  7  8  1  6  0  0  0
  7 13  1  0  0  0  0
  9 10  2  0  0  0  0
 11  2  1  0  0  0  0
 12  3  2  0  0  0  0
 13  8  1  6  0  0  0
 13 12  1  0  0  0  0
 14  9  1  0  0  0  0
 15 14  1  0  0  0  0
 16  9  1  0  0  0  0
 16  6  2  0  0  0  0
 17  5  1  0  0  0  0
 19 18  2  0  0  0  0
 19 17  1  0  0  0  0
 20 19  1  0  0  0  0
 21 20  1  0  0  0  0
 22 20  2  0  0  0  0
 24 25  1  0  0  0  0
 25 23  1  0  0  0  0
M  END
>  <MODEL>
2

>  <REMARK>
 VINA RESULT:      -9.8      2.526      4.807
  Name = 
  5 active torsions:
  status: ('A' for Active; 'I' for Inactive)
    1  A    between atoms: C_2  and  CA_25
    2  A    between atoms: C_5  and  C_22
    3  A    between atoms: C_6  and  C_15
    4  A    between atoms: C_15  and  CA_25
    5  A    between atoms: C_17  and  C_22
                            x       y       z     vdW  Elec       q    Type
                         _______ _______ _______ _____ _____    ______ ____

>  <TORSDO>
F 5

$$$$
=
 OpenBabel10272400553D

 25 28  0  0  1  0  0  0  0  0999 V2000
  187.4720  177.6340  145.7080 C   0  0  0  0  0  0  0  0  0  0  0  0
  186.8520  177.8660  144.4620 C   0  0  0  0  0  0  0  0  0  0  0  0
  185.5840  178.4980  146.9200 C   0  0  0  0  0  3  0  0  0  0  0  0
  188.8250  177.0600  145.9710 C   0  0  2  0  0  3  0  0  0  0  0  0
  187.5090  177.9320  142.0050 C   0  0  0  0  0  0  0  0  0  0  0  0
  184.9350  178.7380  145.7070 C   0  0  0  0  0  3  0  0  0  0  0  0
  188.9710  177.0470  147.5110 C   0  0  1  0  0  3  0  0  0  0  0  0
  188.9270  178.4400  148.1270 C   0  0  0  0  0  2  0  0  0  0  0  0
  184.6990  178.6900  143.2580 C   0  0  0  0  0  0  0  0  0  0  0  0
  183.5560  179.2100  143.3930 O   0  0  0  0  0  0  0  0  0  0  0  0
  187.6400  177.4950  143.2580 C   0  0  0  0  0  3  0  0  0  0  0  0
  186.8540  177.9410  146.8930 C   0  0  0  0  0  0  0  0  0  0  0  0
  187.6630  177.6020  148.0910 C   0  0  1  0  0  3  0  0  0  0  0  0
  185.1230  178.3470  141.8740 C   0  0  0  0  0  2  0  0  0  0  0  0
  186.4860  178.9300  141.6010 C   0  0  0  0  0  2  0  0  0  0  0  0
  185.5320  178.4290  144.4660 C   0  0  0  0  0  0  0  0  0  0  0  0
  188.4390  177.4080  140.9600 C   0  0  0  0  0  2  0  0  0  0  0  0
  189.0660  179.1970  139.4740 N   0  0  0  0  0  2  0  0  0  0  0  0
  188.3010  178.1760  139.6800 C   0  0  0  0  0  0  0  0  0  0  0  0
  187.3890  177.7180  138.6220 C   0  0  0  0  0  0  0  0  0  0  0  0
  186.2910  178.4910  138.2630 O   0  0  0  0  0  1  0  0  0  0  0  0
  187.5890  176.6210  138.0380 O   0  0  0  0  0  0  0  0  0  0  0  0
  189.9310  177.8830  145.3170 C   0  0  0  0  0  2  0  0  0  0  0  0
  191.9570  176.9760  146.1850 O   0  0  0  0  0  1  0  0  0  0  0  0
  191.1480  177.0140  145.0510 C   0  0  0  0  0  2  0  0  0  0  0  0
  1  4  1  0  0  0  0
  1 12  1  0  0  0  0
  2 16  1  0  0  0  0
  2  1  2  0  0  0  0
  4 23  1  6  0  0  0
  4  7  1  0  0  0  0
  5 11  2  0  0  0  0
  6  3  1  0  0  0  0
  7 13  1  0  0  0  0
  7  8  1  6  0  0  0
  9 10  2  0  0  0  0
  9 16  1  0  0  0  0
 11  2  1  0  0  0  0
 12  3  2  0  0  0  0
 12 13  1  0  0  0  0
 13  8  1  6  0  0  0
 14  9  1  0  0  0  0
 15 14  1  0  0  0  0
 15  5  1  0  0  0  0
 16  6  2  0  0  0  0
 17  5  1  0  0  0  0
 18 19  2  0  0  0  0
 19 17  1  0  0  0  0
 20 19  1  0  0  0  0
 21 20  1  0  0  0  0
 22 20  2  0  0  0  0
 25 23  1  0  0  0  0
 25 24  1  0  0  0  0
M  END
>  <MODEL>
3

>  <REMARK>
 VINA RESULT:      -9.7      2.062      2.464
  Name = 
  5 active torsions:
  status: ('A' for Active; 'I' for Inactive)
    1  A    between atoms: C_2  and  CA_25
    2  A    between atoms: C_5  and  C_22
    3  A    between atoms: C_6  and  C_15
    4  A    between atoms: C_15  and  CA_25
    5  A    between atoms: C_17  and  C_22
                            x       y       z     vdW  Elec       q    Type
                         _______ _______ _______ _____ _____    ______ ____

>  <TORSDO>
F 5

$$$$
=
 OpenBabel10272400553D

 25 28  0  0  1  0  0  0  0  0999 V2000
  186.3580  177.9480  144.5320 C   0  0  0  0  0  0  0  0  0  0  0  0
  186.7190  177.9800  143.1690 C   0  0  0  0  0  0  0  0  0  0  0  0
  184.4090  179.3040  144.1500 C   0  0  0  0  0  3  0  0  0  0  0  0
  187.0690  177.2720  145.6570 C   0  0  2  0  0  3  0  0  0  0  0  0
  188.7410  177.4130  141.7320 C   0  0  0  0  0  0  0  0  0  0  0  0
  184.7290  179.3540  142.7920 C   0  0  0  0  0  3  0  0  0  0  0  0
  186.2260  177.5800  146.9170 C   0  0  1  0  0  3  0  0  0  0  0  0
  186.1550  179.0680  147.2390 C   0  0  0  0  0  2  0  0  0  0  0  0
  186.0490  178.7980  140.7920 C   0  0  0  0  0  0  0  0  0  0  0  0
  185.2380  179.4820  140.1090 O   0  0  0  0  0  0  0  0  0  0  0  0
  187.9590  177.2500  142.8010 C   0  0  0  0  0  3  0  0  0  0  0  0
  185.2400  178.5900  145.0020 C   0  0  0  0  0  0  0  0  0  0  0  0
  185.0250  178.4200  146.4600 C   0  0  1  0  0  3  0  0  0  0  0  0
  187.1360  178.1030  140.0500 C   0  0  0  0  0  2  0  0  0  0  0  0
  188.4670  178.4250  140.6790 C   0  0  0  0  0  2  0  0  0  0  0  0
  185.8650  178.7010  142.2680 C   0  0  0  0  0  0  0  0  0  0  0  0
  189.9520  176.5520  141.5890 C   0  0  0  0  0  2  0  0  0  0  0  0
  192.0100  177.6640  141.0150 N   0  0  0  0  0  2  0  0  0  0  0  0
  191.1960  177.3040  141.9520 C   0  0  0  0  0  0  0  0  0  0  0  0
  191.4410  177.7270  143.3390 C   0  0  0  0  0  0  0  0  0  0  0  0
  191.4400  179.0790  143.6680 O   0  0  0  0  0  0  0  0  0  0  0  0
  191.6620  176.8740  144.2370 O   0  0  0  0  0  1  0  0  0  0  0  0
  188.5020  177.7740  145.8130 C   0  0  0  0  0  2  0  0  0  0  0  0
  189.5820  177.7770  147.9370 O   0  0  0  0  0  1  0  0  0  0  0  0
  189.2360  176.9590  146.8630 C   0  0  0  0  0  2  0  0  0  0  0  0
  1 12  1  0  0  0  0
  1  4  1  0  0  0  0
  2  1  2  0  0  0  0
  3 12  2  0  0  0  0
  4 23  1  1  0  0  0
  4  7  1  0  0  0  0
  5 11  2  0  0  0  0
  6  3  1  0  0  0  0
  7  8  1  1  0  0  0
  9 16  1  0  0  0  0
 10  9  2  0  0  0  0
 11  2  1  0  0  0  0
 12 13  1  0  0  0  0
 13  7  1  0  0  0  0
 13  8  1  1  0  0  0
 14 15  1  0  0  0  0
 14  9  1  0  0  0  0
 15  5  1  0  0  0  0
 16  6  2  0  0  0  0
 16  2  1  0  0  0  0
 17  5  1  0  0  0  0
 17 19  1  0  0  0  0
 18 19  2  0  0  0  0
 19 20  1  0  0  0  0
 20 21  2  0  0  0  0
 20 22  1  0  0  0  0
 23 25  1  0  0  0  0
 25 24  1  0  0  0  0
M  END
>  <MODEL>
4

>  <REMARK>
 VINA RESULT:      -9.6      1.669      2.468
  Name = 
  5 active torsions:
  status: ('A' for Active; 'I' for Inactive)
    1  A    between atoms: C_2  and  CA_25
    2  A    between atoms: C_5  and  C_22
    3  A    between atoms: C_6  and  C_15
    4  A    between atoms: C_15  and  CA_25
    5  A    between atoms: C_17  and  C_22
                            x       y       z     vdW  Elec       q    Type
                         _______ _______ _______ _____ _____    ______ ____

>  <TORSDO>
F 5

$$$$
=
 OpenBabel10272400553D

 25 28  0  0  1  0  0  0  0  0999 V2000
  186.7090  177.8500  144.2610 C   0  0  0  0  0  0  0  0  0  0  0  0
  187.6970  177.6510  143.2730 C   0  0  0  0  0  0  0  0  0  0  0  0
  185.2510  178.9770  142.7170 C   0  0  0  0  0  3  0  0  0  0  0  0
  186.7490  177.4440  145.6970 C   0  0  2  0  0  3  0  0  0  0  0  0
  190.1440  176.9620  143.1540 C   0  0  0  0  0  0  0  0  0  0  0  0
  186.2010  178.7950  141.7100 C   0  0  0  0  0  3  0  0  0  0  0  0
  185.4050  177.9240  146.2940 C   0  0  1  0  0  3  0  0  0  0  0  0
  185.2360  179.4380  146.2420 C   0  0  0  0  0  2  0  0  0  0  0  0
  188.3160  177.9650  140.7660 C   0  0  0  0  0  0  0  0  0  0  0  0
  187.9720  178.4540  139.6550 O   0  0  0  0  0  0  0  0  0  0  0  0
  188.9310  176.9500  143.7110 C   0  0  0  0  0  3  0  0  0  0  0  0
  185.5290  178.4910  143.9870 C   0  0  0  0  0  0  0  0  0  0  0  0
  184.6160  178.5820  145.1530 C   0  0  1  0  0  3  0  0  0  0  0  0
  189.6030  177.2180  140.8040 C   0  0  0  0  0  2  0  0  0  0  0  0
  190.4600  177.7390  141.9280 C   0  0  0  0  0  2  0  0  0  0  0  0
  187.4250  178.1320  141.9490 C   0  0  0  0  0  0  0  0  0  0  0  0
  191.2370  176.1720  143.7950 C   0  0  0  0  0  2  0  0  0  0  0  0
  191.8100  178.1290  145.0750 N   0  0  0  0  0  2  0  0  0  0  0  0
  191.7270  176.8400  145.0430 C   0  0  0  0  0  0  0  0  0  0  0  0
  192.0070  176.0580  146.2550 C   0  0  0  0  0  0  0  0  0  0  0  0
  191.9630  176.6660  147.5060 O   0  0  0  0  0  1  0  0  0  0  0  0
  192.2970  174.8360  146.1740 O   0  0  0  0  0  0  0  0  0  0  0  0
  187.9350  178.0610  146.4330 C   0  0  0  0  0  2  0  0  0  0  0  0
  187.9740  177.4090  148.7260 O   0  0  0  0  0  1  0  0  0  0  0  0
  188.4780  177.0890  147.4660 C   0  0  0  0  0  2  0  0  0  0  0  0
  1  4  1  0  0  0  0
  2 11  1  0  0  0  0
  2  1  2  0  0  0  0
  3 12  2  0  0  0  0
  4  7  1  0  0  0  0
  4 23  1  1  0  0  0
  5 11  2  0  0  0  0
  5 17  1  0  0  0  0
  6 16  2  0  0  0  0
  6  3  1  0  0  0  0
  7  8  1  1  0  0  0
  9 14  1  0  0  0  0
  9 16  1  0  0  0  0
 10  9  2  0  0  0  0
 12  1  1  0  0  0  0
 12 13  1  0  0  0  0
 13  8  1  1  0  0  0
 13  7  1  0  0  0  0
 14 15  1  0  0  0  0
 15  5  1  0  0  0  0
 16  2  1  0  0  0  0
 17 19  1  0  0  0  0
 19 18  2  0  0  0  0
 19 20  1  0  0  0  0
 20 21  1  0  0  0  0
 22 20  2  0  0  0  0
 23 25  1  0  0  0  0
 25 24  1  0  0  0  0
M  END
>  <MODEL>
5

>  <REMARK>
 VINA RESULT:      -9.3      2.097      3.901
  Name = 
  5 active torsions:
  status: ('A' for Active; 'I' for Inactive)
    1  A    between atoms: C_2  and  CA_25
    2  A    between atoms: C_5  and  C_22
    3  A    between atoms: C_6  and  C_15
    4  A    between atoms: C_15  and  CA_25
    5  A    between atoms: C_17  and  C_22
                            x       y       z     vdW  Elec       q    Type
                         _______ _______ _______ _____ _____    ______ ____

>  <TORSDO>
F 5

$$$$
=
 OpenBabel10272400553D

 25 28  0  0  1  0  0  0  0  0999 V2000
  187.5120  178.1310  145.2600 C   0  0  0  0  0  0  0  0  0  0  0  0
  188.6930  177.5790  144.7210 C   0  0  0  0  0  0  0  0  0  0  0  0
  188.1950  177.6430  147.5130 C   0  0  0  0  0  3  0  0  0  0  0  0
  186.3620  178.7390  144.5280 C   0  0  2  0  0  3  0  0  0  0  0  0
  189.5750  176.8490  142.4480 C   0  0  0  0  0  0  0  0  0  0  0  0
  189.3790  177.0930  147.0190 C   0  0  0  0  0  3  0  0  0  0  0  0
  185.3580  179.1650  145.6250 C   0  0  1  0  0  3  0  0  0  0  0  0
  184.8250  177.9890  146.4350 C   0  0  0  0  0  2  0  0  0  0  0  0
  190.9900  176.4840  145.2610 C   0  0  0  0  0  0  0  0  0  0  0  0
  191.7490  176.0320  146.1610 O   0  0  0  0  0  0  0  0  0  0  0  0
  188.8120  177.6050  143.2400 C   0  0  0  0  0  3  0  0  0  0  0  0
  187.2760  178.1600  146.6110 C   0  0  0  0  0  0  0  0  0  0  0  0
  185.9880  178.7990  146.9770 C   0  0  1  0  0  3  0  0  0  0  0  0
  191.5010  176.4390  143.8640 C   0  0  0  0  0  2  0  0  0  0  0  0
  190.4770  175.7900  142.9690 C   0  0  0  0  0  2  0  0  0  0  0  0
  189.6630  177.0520  145.6370 C   0  0  0  0  0  0  0  0  0  0  0  0
  189.5120  177.0630  140.9720 C   0  0  0  0  0  2  0  0  0  0  0  0
  191.7780  177.8770  140.9650 N   0  0  0  0  0  2  0  0  0  0  0  0
  190.8850  177.1490  140.3800 C   0  0  0  0  0  0  0  0  0  0  0  0
  191.2540  176.3350  139.2120 C   0  0  0  0  0  0  0  0  0  0  0  0
  192.4630  176.5560  138.5590 O   0  0  0  0  0  0  0  0  0  0  0  0
  190.4800  175.4380  138.7890 O   0  0  0  0  0  1  0  0  0  0  0  0
  185.7270  177.7600  143.5450 C   0  0  0  0  0  2  0  0  0  0  0  0
  185.6050  179.5230  141.9450 O   0  0  0  0  0  1  0  0  0  0  0  0
  184.8640  178.5040  142.5410 C   0  0  0  0  0  2  0  0  0  0  0  0
  1 12  1  0  0  0  0
  2  1  2  0  0  0  0
  2 16  1  0  0  0  0
  4 23  1  6  0  0  0
  4  1  1  0  0  0  0
  4  7  1  0  0  0  0
  5 15  1  0  0  0  0
  5 11  2  0  0  0  0
  6  3  1  0  0  0  0
  7  8  1  6  0  0  0
  7 13  1  0  0  0  0
  9 16  1  0  0  0  0
  9 10  2  0  0  0  0
 11  2  1  0  0  0  0
 12 13  1  0  0  0  0
 12  3  2  0  0  0  0
 13  8  1  6  0  0  0
 14  9  1  0  0  0  0
 15 14  1  0  0  0  0
 16  6  2  0  0  0  0
 17  5  1  0  0  0  0
 19 18  2  0  0  0  0
 19 17  1  0  0  0  0
 20 19  1  0  0  0  0
 21 20  2  0  0  0  0
 22 20  1  0  0  0  0
 24 25  1  0  0  0  0
 25 23  1  0  0  0  0
M  END
>  <MODEL>
6

>  <REMARK>
 VINA RESULT:      -8.9      1.581      4.538
  Name = 
  5 active torsions:
  status: ('A' for Active; 'I' for Inactive)
    1  A    between atoms: C_2  and  CA_25
    2  A    between atoms: C_5  and  C_22
    3  A    between atoms: C_6  and  C_15
    4  A    between atoms: C_15  and  CA_25
    5  A    between atoms: C_17  and  C_22
                            x       y       z     vdW  Elec       q    Type
                         _______ _______ _______ _____ _____    ______ ____

>  <TORSDO>
F 5

$$$$
=
 OpenBabel10272400553D

 25 28  0  0  1  0  0  0  0  0999 V2000
  188.1330  177.2810  143.8140 C   0  0  0  0  0  0  0  0  0  0  0  0
  186.8540  177.8460  144.0000 C   0  0  0  0  0  0  0  0  0  0  0  0
  188.5700  177.2440  146.1780 C   0  0  0  0  0  3  0  0  0  0  0  0
  188.8010  176.9200  142.5290 C   0  0  2  0  0  3  0  0  0  0  0  0
  185.0550  178.9640  142.5900 C   0  0  0  0  0  0  0  0  0  0  0  0
  187.3090  177.7980  146.4040 C   0  0  0  0  0  3  0  0  0  0  0  0
  190.1830  176.3510  142.9320 C   0  0  1  0  0  3  0  0  0  0  0  0
  191.0630  177.3700  143.6450 C   0  0  0  0  0  2  0  0  0  0  0  0
  185.0930  178.6390  145.7430 C   0  0  0  0  0  0  0  0  0  0  0  0
  184.8430  178.8410  146.9630 O   0  0  0  0  0  0  0  0  0  0  0  0
  186.0700  178.1170  142.7670 C   0  0  0  0  0  3  0  0  0  0  0  0
  188.9590  176.9920  144.8700 C   0  0  0  0  0  0  0  0  0  0  0  0
  190.2510  176.3850  144.4660 C   0  0  1  0  0  3  0  0  0  0  0  0
  184.0020  178.9340  144.7740 C   0  0  0  0  0  2  0  0  0  0  0  0
  184.5230  179.8250  143.6770 C   0  0  0  0  0  2  0  0  0  0  0  0
  186.4260  178.1030  145.3450 C   0  0  0  0  0  0  0  0  0  0  0  0
  184.4290  179.0630  141.2370 C   0  0  0  0  0  2  0  0  0  0  0  0
  182.2110  178.5300  142.0100 N   0  0  0  0  0  2  0  0  0  0  0  0
  183.1590  178.2710  141.1700 C   0  0  0  0  0  0  0  0  0  0  0  0
  182.9410  177.2870  140.1000 C   0  0  0  0  0  0  0  0  0  0  0  0
  183.9030  177.1050  139.1120 O   0  0  0  0  0  0  0  0  0  0  0  0
  181.8820  176.6080  140.0640 O   0  0  0  0  0  1  0  0  0  0  0  0
  188.9480  178.1240  141.6020 C   0  0  0  0  0  2  0  0  0  0  0  0
  188.4330  178.7940  139.3730 O   0  0  0  0  0  1  0  0  0  0  0  0
  188.7940  177.6960  140.1530 C   0  0  0  0  0  2  0  0  0  0  0  0
  1  2  2  0  0  0  0
  1 12  1  0  0  0  0
  2 16  1  0  0  0  0
  3  6  1  0  0  0  0
  4 23  1  6  0  0  0
  4  7  1  0  0  0  0
  4  1  1  0  0  0  0
  5 11  2  0  0  0  0
  5 15  1  0  0  0  0
  7  8  1  6  0  0  0
  7 13  1  0  0  0  0
  9 10  2  0  0  0  0
 11  2  1  0  0  0  0
 12  3  2  0  0  0  0
 13  8  1  6  0  0  0
 13 12  1  0  0  0  0
 14  9  1  0  0  0  0
 15 14  1  0  0  0  0
 16  9  1  0  0  0  0
 16  6  2  0  0  0  0
 17  5  1  0  0  0  0
 19 17  1  0  0  0  0
 19 18  2  0  0  0  0
 20 19  1  0  0  0  0
 21 20  2  0  0  0  0
 22 20  1  0  0  0  0
 24 25  1  0  0  0  0
 25 23  1  0  0  0  0
M  END
>  <MODEL>
7

>  <REMARK>
 VINA RESULT:      -8.8      2.962      5.366
  Name = 
  5 active torsions:
  status: ('A' for Active; 'I' for Inactive)
    1  A    between atoms: C_2  and  CA_25
    2  A    between atoms: C_5  and  C_22
    3  A    between atoms: C_6  and  C_15
    4  A    between atoms: C_15  and  CA_25
    5  A    between atoms: C_17  and  C_22
                            x       y       z     vdW  Elec       q    Type
                         _______ _______ _______ _____ _____    ______ ____

>  <TORSDO>
F 5

$$$$
=
 OpenBabel10272400553D

 25 28  0  0  1  0  0  0  0  0999 V2000
  186.7320  178.4490  144.4760 C   0  0  0  0  0  0  0  0  0  0  0  0
  187.6350  178.1340  145.5120 C   0  0  0  0  0  0  0  0  0  0  0  0
  184.8870  178.6350  146.0060 C   0  0  0  0  0  3  0  0  0  0  0  0
  187.0120  178.5640  143.0140 C   0  0  2  0  0  3  0  0  0  0  0  0
  189.9960  177.2150  145.7520 C   0  0  0  0  0  0  0  0  0  0  0  0
  185.7510  178.3320  147.0600 C   0  0  0  0  0  3  0  0  0  0  0  0
  185.6540  178.9210  142.3650 C   0  0  1  0  0  3  0  0  0  0  0  0
  184.5980  177.8380  142.5530 C   0  0  0  0  0  2  0  0  0  0  0  0
  187.9330  177.8290  148.0790 C   0  0  0  0  0  0  0  0  0  0  0  0
  187.3620  177.7910  149.2030 O   0  0  0  0  0  0  0  0  0  0  0  0
  189.0420  177.8860  145.1040 C   0  0  0  0  0  3  0  0  0  0  0  0
  185.4040  178.6900  144.7200 C   0  0  0  0  0  0  0  0  0  0  0  0
  184.6260  179.0220  143.5010 C   0  0  1  0  0  3  0  0  0  0  0  0
  189.4090  177.6360  148.0670 C   0  0  0  0  0  2  0  0  0  0  0  0
  189.7740  176.5670  147.0690 C   0  0  0  0  0  2  0  0  0  0  0  0
  187.1250  178.0860  146.8520 C   0  0  0  0  0  0  0  0  0  0  0  0
  191.3460  177.0970  145.1230 C   0  0  0  0  0  2  0  0  0  0  0  0
  191.5480  179.0480  143.7250 N   0  0  0  0  0  2  0  0  0  0  0  0
  191.3780  177.7680  143.7840 C   0  0  0  0  0  0  0  0  0  0  0  0
  191.3280  176.9780  142.5450 C   0  0  0  0  0  0  0  0  0  0  0  0
  190.7230  175.7250  142.5380 O   0  0  0  0  0  1  0  0  0  0  0  0
  191.8370  177.4220  141.4830 O   0  0  0  0  0  0  0  0  0  0  0  0
  187.5780  177.2700  142.4360 C   0  0  0  0  0  2  0  0  0  0  0  0
  188.7110  178.7510  140.9520 O   0  0  0  0  0  1  0  0  0  0  0  0
  188.0960  177.5030  141.0280 C   0  0  0  0  0  2  0  0  0  0  0  0
  1 12  2  0  0  0  0
  1  2  1  0  0  0  0
  2 16  2  0  0  0  0
  3  6  2  0  0  0  0
  4 23  1  6  0  0  0
  4  1  1  0  0  0  0
  5 15  1  0  0  0  0
  7  8  1  6  0  0  0
  7  4  1  0  0  0  0
  7 13  1  0  0  0  0
  9 10  2  0  0  0  0
 11  2  1  0  0  0  0
 11  5  2  0  0  0  0
 12  3  1  0  0  0  0
 13  8  1  6  0  0  0
 13 12  1  0  0  0  0
 14  9  1  0  0  0  0
 15 14  1  0  0  0  0
 16  6  1  0  0  0  0
 16  9  1  0  0  0  0
 17  5  1  0  0  0  0
 18 19  2  0  0  0  0
 19 17  1  0  0  0  0
 20 19  1  0  0  0  0
 21 20  1  0  0  0  0
 22 20  2  0  0  0  0
 24 25  1  0  0  0  0
 25 23  1  0  0  0  0
M  END
>  <MODEL>
8

>  <REMARK>
 VINA RESULT:      -8.6      1.825      4.581
  Name = 
  5 active torsions:
  status: ('A' for Active; 'I' for Inactive)
    1  A    between atoms: C_2  and  CA_25
    2  A    between atoms: C_5  and  C_22
    3  A    between atoms: C_6  and  C_15
    4  A    between atoms: C_15  and  CA_25
    5  A    between atoms: C_17  and  C_22
                            x       y       z     vdW  Elec       q    Type
                         _______ _______ _______ _____ _____    ______ ____

>  <TORSDO>
F 5

$$$$
=
 OpenBabel10272400553D

 25 28  0  0  1  0  0  0  0  0999 V2000
  185.5490  178.5530  144.0110 C   0  0  0  0  0  0  0  0  0  0  0  0
  186.8440  177.9950  144.0340 C   0  0  0  0  0  0  0  0  0  0  0  0
  185.3190  178.3650  146.3970 C   0  0  0  0  0  3  0  0  0  0  0  0
  184.7680  179.0190  142.8280 C   0  0  2  0  0  3  0  0  0  0  0  0
  188.5240  177.0430  142.3770 C   0  0  0  0  0  0  0  0  0  0  0  0
  186.6000  177.8150  146.4620 C   0  0  0  0  0  3  0  0  0  0  0  0
  183.4220  179.5250  143.4000 C   0  0  1  0  0  3  0  0  0  0  0  0
  182.6160  178.4290  144.0880 C   0  0  0  0  0  2  0  0  0  0  0  0
  188.7580  177.0760  145.5380 C   0  0  0  0  0  0  0  0  0  0  0  0
  189.1150  176.7680  146.7080 O   0  0  0  0  0  0  0  0  0  0  0  0
  187.5200  177.8520  142.7190 C   0  0  0  0  0  3  0  0  0  0  0  0
  184.8160  178.7300  145.1570 C   0  0  0  0  0  0  0  0  0  0  0  0
  183.4870  179.3490  144.9230 C   0  0  1  0  0  3  0  0  0  0  0  0
  189.7630  176.8900  144.4560 C   0  0  0  0  0  2  0  0  0  0  0  0
  189.1560  176.0940  143.3300 C   0  0  0  0  0  2  0  0  0  0  0  0
  187.3900  177.6240  145.3080 C   0  0  0  0  0  0  0  0  0  0  0  0
  189.0310  177.0790  140.9730 C   0  0  0  0  0  2  0  0  0  0  0  0
  188.1820  179.3030  140.6150 N   0  0  0  0  0  2  0  0  0  0  0  0
  188.2960  178.0990  140.1590 C   0  0  0  0  0  0  0  0  0  0  0  0
  187.8020  177.7750  138.8130 C   0  0  0  0  0  0  0  0  0  0  0  0
  186.9480  178.6520  138.1510 O   0  0  0  0  0  0  0  0  0  0  0  0
  188.1400  176.7020  138.2500 O   0  0  0  0  0  1  0  0  0  0  0  0
  184.5520  177.9030  141.8090 C   0  0  0  0  0  2  0  0  0  0  0  0
  184.8750  179.6860  140.2610 O   0  0  0  0  0  1  0  0  0  0  0  0
  184.1920  178.4860  140.4540 C   0  0  0  0  0  2  0  0  0  0  0  0
  1  2  2  0  0  0  0
  1 12  1  0  0  0  0
  2 16  1  0  0  0  0
  3  6  1  0  0  0  0
  4 23  1  6  0  0  0
  4  7  1  0  0  0  0
  4  1  1  0  0  0  0
  5 11  2  0  0  0  0
  5 15  1  0  0  0  0
  7  8  1  6  0  0  0
  7 13  1  0  0  0  0
  9 10  2  0  0  0  0
 11  2  1  0  0  0  0
 12  3  2  0  0  0  0
 13  8  1  6  0  0  0
 13 12  1  0  0  0  0
 14  9  1  0  0  0  0
 15 14  1  0  0  0  0
 16  9  1  0  0  0  0
 16  6  2  0  0  0  0
 17  5  1  0  0  0  0
 19 18  2  0  0  0  0
 19 17  1  0  0  0  0
 20 19  1  0  0  0  0
 21 20  2  0  0  0  0
 22 20  1  0  0  0  0
 24 25  1  0  0  0  0
 25 23  1  0  0  0  0
M  END
>  <MODEL>
9

>  <REMARK>
 VINA RESULT:      -8.5      2.387      5.203
  Name = 
  5 active torsions:
  status: ('A' for Active; 'I' for Inactive)
    1  A    between atoms: C_2  and  CA_25
    2  A    between atoms: C_5  and  C_22
    3  A    between atoms: C_6  and  C_15
    4  A    between atoms: C_15  and  CA_25
    5  A    between atoms: C_17  and  C_22
                            x       y       z     vdW  Elec       q    Type
                         _______ _______ _______ _____ _____    ______ ____

>  <TORSDO>
F 5

$$$$
