=
 OpenBabel10272413153D

 32 36  0  0  1  0  0  0  0  0999 V2000
  187.2390  178.0320  140.1400 C   0  0  2  0  0  3  0  0  0  0  0  0
  188.5290  179.0040  142.0890 O   0  0  0  0  0  0  0  0  0  0  0  0
  186.0430  178.4280  139.2570 C   0  0  0  0  0  2  0  0  0  0  0  0
  187.2940  178.9260  141.3810 C   0  0  2  0  0  3  0  0  0  0  0  0
  188.8000  176.5720  142.3450 C   0  0  0  0  0  2  0  0  0  0  0  0
  189.4060  177.9090  141.8530 C   0  0  1  0  0  0  0  0  0  0  0  0
  186.0640  178.6990  142.2830 C   0  0  2  0  0  3  0  0  0  0  0  0
  188.3030  176.5680  143.7950 C   0  0  0  0  0  2  0  0  0  0  0  0
  186.1540  177.4330  143.0100 N   0  0  0  0  0  2  0  0  0  0  0  0
  184.7670  178.6750  141.4510 C   0  0  0  0  0  2  0  0  0  0  0  0
  189.7400  177.7820  140.3510 C   0  0  0  0  0  2  0  0  0  0  0  0
  188.5730  178.0970  139.4070 C   0  0  1  0  0  3  0  0  0  0  0  0
  187.1700  177.5590  144.0480 C   0  0  1  0  0  3  0  0  0  0  0  0
  184.9460  179.1950  140.0170 C   0  0  0  0  0  2  0  0  0  0  0  0
  187.5520  176.8990  135.9620 C   0  0  0  0  0  0  0  0  0  0  0  0
  189.0290  173.7790  135.4230 F   0  0  0  0  0  0  0  0  0  0  0  0
  187.0860  177.4450  134.8130 F   0  0  0  0  0  0  0  0  0  0  0  0
  189.5080  175.0050  137.3290 C   0  0  0  0  0  3  0  0  0  0  0  0
  188.6200  177.2020  138.2020 C   0  0  0  0  0  0  0  0  0  0  0  0
  187.3760  175.4310  136.1640 C   0  0  0  0  0  2  0  0  0  0  0  0
  189.2850  176.0460  138.3510 C   0  0  0  0  0  3  0  0  0  0  0  0
  188.0800  177.6940  136.9010 C   0  0  0  0  0  0  0  0  0  0  0  0
  188.0790  179.0320  136.6710 F   0  0  0  0  0  0  0  0  0  0  0  0
  188.6960  174.7520  136.3040 C   0  0  0  0  0  0  0  0  0  0  0  0
  191.4180  176.4780  145.5940 C   0  0  0  0  0  1  0  0  0  0  0  0
  190.7210  178.5910  144.7400 O   0  0  0  0  0  0  0  0  0  0  0  0
  190.6110  179.2020  143.5620 O   0  0  0  0  0  0  0  0  0  0  0  0
  190.7400  178.2120  142.5690 C   0  0  1  0  0  3  0  0  0  0  0  0
  191.6510  177.5610  144.5620 C   0  0  2  0  0  3  0  0  0  0  0  0
  191.3970  177.0200  143.2010 C   0  0  0  0  0  2  0  0  0  0  0  0
  186.5620  177.2890  145.4120 C   0  0  0  0  0  2  0  0  0  0  0  0
  187.5510  177.6380  146.5070 C   0  0  0  0  0  1  0  0  0  0  0  0
  1  3  1  6  0  0  0
  1  4  1  0  0  0  0
  3 14  1  0  0  0  0
  4  2  1  1  0  0  0
  4  7  1  0  0  0  0
  5  8  1  0  0  0  0
  6 11  1  6  0  0  0
  6  2  1  0  0  0  0
  6  5  1  0  0  0  0
  6 28  1  0  0  0  0
  7 10  1  6  0  0  0
  7  9  1  0  0  0  0
  8 13  1  0  0  0  0
  9 13  1  0  0  0  0
 12 19  1  6  0  0  0
 12  1  1  0  0  0  0
 12 11  1  0  0  0  0
 13 31  1  1  0  0  0
 14 10  1  0  0  0  0
 15 20  1  0  0  0  0
 15 22  2  0  0  0  0
 16 24  1  0  0  0  0
 17 15  1  0  0  0  0
 18 21  1  0  0  0  0
 19 21  2  0  0  0  0
 20 24  1  0  0  0  0
 22 19  1  0  0  0  0
 23 22  1  0  0  0  0
 24 18  2  0  0  0  0
 27 26  1  0  0  0  0
 28 30  1  1  0  0  0
 28 27  1  0  0  0  0
 29 26  1  0  0  0  0
 29 25  1  1  0  0  0
 30 29  1  0  0  0  0
 31 32  1  0  0  0  0
M  END
>  <MODEL>
1

>  <REMARK>
 VINA RESULT:      -8.2      0.000      0.000
  Name = 
  3 active torsions:
  status: ('A' for Active; 'I' for Inactive)
    1  A    between atoms: C_10  and  C_28
    2  A    between atoms: C_13  and  C_29
    3  A    between atoms: C_16  and  C_27
                            x       y       z     vdW  Elec       q    Type
                         _______ _______ _______ _____ _____    ______ ____

>  <TORSDO>
F 3

$$$$
=
 OpenBabel10272413153D

 32 36  0  0  1  0  0  0  0  0999 V2000
  187.7580  177.8100  139.8990 C   0  0  2  0  0  3  0  0  0  0  0  0
  188.8760  178.8550  141.9150 O   0  0  0  0  0  0  0  0  0  0  0  0
  186.6990  178.2030  138.8540 C   0  0  0  0  0  2  0  0  0  0  0  0
  187.7280  178.7920  141.0730 C   0  0  2  0  0  3  0  0  0  0  0  0
  188.9590  176.4380  142.3700 C   0  0  0  0  0  2  0  0  0  0  0  0
  189.7020  177.6980  141.8620 C   0  0  1  0  0  0  0  0  0  0  0  0
  186.3910  178.7030  141.8360 C   0  0  2  0  0  3  0  0  0  0  0  0
  188.2990  176.5720  143.7470 C   0  0  0  0  0  2  0  0  0  0  0  0
  186.3150  177.4940  142.6540 N   0  0  0  0  0  2  0  0  0  0  0  0
  185.1990  178.6880  140.8590 C   0  0  0  0  0  2  0  0  0  0  0  0
  190.1970  177.4380  140.4230 C   0  0  0  0  0  2  0  0  0  0  0  0
  189.1680  177.7440  139.3280 C   0  0  1  0  0  3  0  0  0  0  0  0
  187.2110  177.6410  143.7940 C   0  0  1  0  0  3  0  0  0  0  0  0
  185.5740  179.0860  139.4240 C   0  0  0  0  0  2  0  0  0  0  0  0
  190.6850  176.2850  136.1790 C   0  0  0  0  0  0  0  0  0  0  0  0
  188.5390  173.7900  135.0040 F   0  0  0  0  0  0  0  0  0  0  0  0
  191.9080  176.2170  135.5980 F   0  0  0  0  0  0  0  0  0  0  0  0
  188.1290  174.8560  137.0190 C   0  0  0  0  0  3  0  0  0  0  0  0
  189.2950  176.7590  138.2010 C   0  0  0  0  0  0  0  0  0  0  0  0
  189.4870  176.0280  135.3260 C   0  0  0  0  0  2  0  0  0  0  0  0
  188.2540  175.9300  138.0230 C   0  0  0  0  0  3  0  0  0  0  0  0
  190.5870  176.6490  137.4620 C   0  0  0  0  0  0  0  0  0  0  0  0
  191.7290  176.9830  138.1150 F   0  0  0  0  0  0  0  0  0  0  0  0
  188.7230  174.8510  135.8260 C   0  0  0  0  0  0  0  0  0  0  0  0
  191.0890  176.6060  145.9820 C   0  0  0  0  0  1  0  0  0  0  0  0
  190.7150  178.6400  144.7970 O   0  0  0  0  0  0  0  0  0  0  0  0
  190.8110  179.0990  143.5510 O   0  0  0  0  0  0  0  0  0  0  0  0
  190.9620  177.9800  142.7090 C   0  0  1  0  0  3  0  0  0  0  0  0
  191.5530  177.5220  144.8690 C   0  0  2  0  0  3  0  0  0  0  0  0
  191.4150  176.8300  143.5600 C   0  0  0  0  0  2  0  0  0  0  0  0
  186.4350  177.5110  145.0920 C   0  0  0  0  0  2  0  0  0  0  0  0
  187.3660  177.6540  146.2790 C   0  0  0  0  0  1  0  0  0  0  0  0
  1  3  1  6  0  0  0
  1  4  1  0  0  0  0
  3 14  1  0  0  0  0
  4  7  1  0  0  0  0
  4  2  1  1  0  0  0
  5  8  1  0  0  0  0
  6 11  1  6  0  0  0
  6  2  1  0  0  0  0
  6  5  1  0  0  0  0
  6 28  1  0  0  0  0
  7 10  1  6  0  0  0
  7  9  1  0  0  0  0
  8 13  1  0  0  0  0
  9 13  1  0  0  0  0
 12 19  1  6  0  0  0
 12  1  1  0  0  0  0
 12 11  1  0  0  0  0
 13 31  1  1  0  0  0
 14 10  1  0  0  0  0
 15 22  2  0  0  0  0
 16 24  1  0  0  0  0
 17 15  1  0  0  0  0
 18 21  1  0  0  0  0
 20 24  1  0  0  0  0
 20 15  1  0  0  0  0
 21 19  2  0  0  0  0
 22 23  1  0  0  0  0
 22 19  1  0  0  0  0
 24 18  2  0  0  0  0
 26 29  1  0  0  0  0
 27 26  1  0  0  0  0
 28 27  1  0  0  0  0
 28 30  1  1  0  0  0
 29 25  1  1  0  0  0
 30 29  1  0  0  0  0
 31 32  1  0  0  0  0
M  END
>  <MODEL>
2

>  <REMARK>
 VINA RESULT:      -7.5      1.309      1.563
  Name = 
  3 active torsions:
  status: ('A' for Active; 'I' for Inactive)
    1  A    between atoms: C_10  and  C_28
    2  A    between atoms: C_13  and  C_29
    3  A    between atoms: C_16  and  C_27
                            x       y       z     vdW  Elec       q    Type
                         _______ _______ _______ _____ _____    ______ ____

>  <TORSDO>
F 3

$$$$
=
 OpenBabel10272413153D

 32 36  0  0  1  0  0  0  0  0999 V2000
  184.0830  178.6650  142.5030 C   0  0  2  0  0  3  0  0  0  0  0  0
  186.4320  179.5780  142.7290 O   0  0  0  0  0  0  0  0  0  0  0  0
  182.6760  179.0000  143.0290 C   0  0  0  0  0  2  0  0  0  0  0  0
  185.1400  179.4220  143.3100 C   0  0  2  0  0  3  0  0  0  0  0  0
  186.7620  177.1850  142.2590 C   0  0  0  0  0  2  0  0  0  0  0  0
  186.7310  178.6320  141.7090 C   0  0  1  0  0  0  0  0  0  0  0  0
  185.1610  178.9480  144.7770 C   0  0  2  0  0  3  0  0  0  0  0  0
  187.6580  176.9650  143.4840 C   0  0  0  0  0  2  0  0  0  0  0  0
  185.7880  177.6340  144.9110 N   0  0  0  0  0  2  0  0  0  0  0  0
  183.7320  178.8520  145.3460 C   0  0  0  0  0  2  0  0  0  0  0  0
  185.6980  178.7090  140.5650 C   0  0  0  0  0  2  0  0  0  0  0  0
  184.2570  178.9730  141.0210 C   0  0  1  0  0  3  0  0  0  0  0  0
  187.2240  177.7750  144.7030 C   0  0  1  0  0  3  0  0  0  0  0  0
  182.6740  179.5390  144.4710 C   0  0  0  0  0  2  0  0  0  0  0  0
  181.2090  178.5730  138.8090 C   0  0  0  0  0  0  0  0  0  0  0  0
  180.6970  175.1580  138.2850 F   0  0  0  0  0  0  0  0  0  0  0  0
  180.5020  179.3330  137.9360 F   0  0  0  0  0  0  0  0  0  0  0  0
  182.5600  175.9150  139.4330 C   0  0  0  0  0  3  0  0  0  0  0  0
  183.2880  178.2250  140.1520 C   0  0  0  0  0  0  0  0  0  0  0  0
  180.5560  177.3530  139.3670 C   0  0  0  0  0  2  0  0  0  0  0  0
  183.3660  176.8860  140.2000 C   0  0  0  0  0  3  0  0  0  0  0  0
  182.4240  178.9780  139.1960 C   0  0  0  0  0  0  0  0  0  0  0  0
  182.8760  180.1680  138.7250 F   0  0  0  0  0  0  0  0  0  0  0  0
  181.3190  176.1270  138.9960 C   0  0  0  0  0  0  0  0  0  0  0  0
  189.8350  176.5380  139.2450 C   0  0  0  0  0  1  0  0  0  0  0  0
  189.8060  177.6630  141.3470 O   0  0  0  0  0  0  0  0  0  0  0  0
  189.1800  178.6900  141.9180 O   0  0  0  0  0  0  0  0  0  0  0  0
  188.0910  179.0220  141.0900 C   0  0  1  0  0  3  0  0  0  0  0  0
  189.7090  177.8640  139.9660 C   0  0  2  0  0  3  0  0  0  0  0  0
  188.3550  178.4330  139.7360 C   0  0  0  0  0  2  0  0  0  0  0  0
  187.9810  177.2880  145.9240 C   0  0  0  0  0  2  0  0  0  0  0  0
  189.4740  177.3110  145.6620 C   0  0  0  0  0  1  0  0  0  0  0  0
  1  3  1  1  0  0  0
  1  4  1  0  0  0  0
  3 14  1  0  0  0  0
  4  2  1  6  0  0  0
  4  7  1  0  0  0  0
  5  8  1  0  0  0  0
  6 11  1  6  0  0  0
  6  5  1  0  0  0  0
  6  2  1  0  0  0  0
  7  9  1  0  0  0  0
  7 10  1  6  0  0  0
  8 13  1  0  0  0  0
 11 12  1  0  0  0  0
 12 19  1  6  0  0  0
 12  1  1  0  0  0  0
 13  9  1  0  0  0  0
 13 31  1  1  0  0  0
 14 10  1  0  0  0  0
 15 22  2  0  0  0  0
 15 20  1  0  0  0  0
 16 24  1  0  0  0  0
 17 15  1  0  0  0  0
 18 21  1  0  0  0  0
 19 21  2  0  0  0  0
 22 19  1  0  0  0  0
 23 22  1  0  0  0  0
 24 20  1  0  0  0  0
 24 18  2  0  0  0  0
 26 27  1  0  0  0  0
 28 30  1  6  0  0  0
 28  6  1  0  0  0  0
 28 27  1  0  0  0  0
 29 25  1  6  0  0  0
 29 26  1  0  0  0  0
 30 29  1  0  0  0  0
 32 31  1  0  0  0  0
M  END
>  <MODEL>
3

>  <REMARK>
 VINA RESULT:      -6.8      3.122      4.985
  Name = 
  3 active torsions:
  status: ('A' for Active; 'I' for Inactive)
    1  A    between atoms: C_10  and  C_28
    2  A    between atoms: C_13  and  C_29
    3  A    between atoms: C_16  and  C_27
                            x       y       z     vdW  Elec       q    Type
                         _______ _______ _______ _____ _____    ______ ____

>  <TORSDO>
F 3

$$$$
=
 OpenBabel10272413153D

 32 36  0  0  1  0  0  0  0  0999 V2000
  182.5360  178.8580  141.9980 C   0  0  2  0  0  3  0  0  0  0  0  0
  181.7260  178.0710  139.7340 O   0  0  0  0  0  0  0  0  0  0  0  0
  182.0120  178.8960  143.4440 C   0  0  0  0  0  2  0  0  0  0  0  0
  181.3890  178.5550  141.0310 C   0  0  2  0  0  3  0  0  0  0  0  0
  183.2930  179.8930  139.2080 C   0  0  0  0  0  2  0  0  0  0  0  0
  183.0570  178.3680  139.3270 C   0  0  1  0  0  0  0  0  0  0  0  0
  180.3510  179.6950  141.0280 C   0  0  2  0  0  3  0  0  0  0  0  0
  182.2780  180.6520  138.3440 C   0  0  0  0  0  2  0  0  0  0  0  0
  180.8400  180.8700  140.3100 N   0  0  0  0  0  2  0  0  0  0  0  0
  180.0040  180.1280  142.4660 C   0  0  0  0  0  2  0  0  0  0  0  0
  184.0810  177.7800  140.3210 C   0  0  0  0  0  2  0  0  0  0  0  0
  183.6550  177.8450  141.7930 C   0  0  1  0  0  3  0  0  0  0  0  0
  180.8520  180.5770  138.8820 C   0  0  1  0  0  3  0  0  0  0  0  0
  180.4960  179.1480  143.5400 C   0  0  0  0  0  2  0  0  0  0  0  0
  187.3410  178.2180  142.5840 C   0  0  0  0  0  0  0  0  0  0  0  0
  187.6860  178.4110  146.0550 F   0  0  0  0  0  0  0  0  0  0  0  0
  188.4650  178.6160  141.9390 F   0  0  0  0  0  0  0  0  0  0  0  0
  185.5890  178.3590  145.0720 C   0  0  0  0  0  3  0  0  0  0  0  0
  184.8460  178.1070  142.6710 C   0  0  0  0  0  0  0  0  0  0  0  0
  187.4940  177.4070  143.8270 C   0  0  0  0  0  2  0  0  0  0  0  0
  184.6140  178.1040  143.9930 C   0  0  0  0  0  3  0  0  0  0  0  0
  186.1450  178.4970  142.0510 C   0  0  0  0  0  0  0  0  0  0  0  0
  186.1180  179.1320  140.8510 F   0  0  0  0  0  0  0  0  0  0  0  0
  186.8960  178.1110  144.9960 C   0  0  0  0  0  0  0  0  0  0  0  0
  181.2490  174.8750  137.1770 C   0  0  0  0  0  1  0  0  0  0  0  0
  183.4310  175.4590  137.9400 O   0  0  0  0  0  0  0  0  0  0  0  0
  184.1710  176.5540  138.0970 O   0  0  0  0  0  0  0  0  0  0  0  0
  183.3060  177.6580  137.9790 C   0  0  1  0  0  3  0  0  0  0  0  0
  182.4500  175.7800  136.9960 C   0  0  2  0  0  3  0  0  0  0  0  0
  182.0630  177.1870  137.2800 C   0  0  0  0  0  2  0  0  0  0  0  0
  179.9820  181.5710  138.1360 C   0  0  0  0  0  2  0  0  0  0  0  0
  180.8360  182.6610  137.5190 C   0  0  0  0  0  1  0  0  0  0  0  0
  1  3  1  1  0  0  0
  3 14  1  0  0  0  0
  4  2  1  6  0  0  0
  4  1  1  0  0  0  0
  6  5  1  6  0  0  0
  6  2  1  0  0  0  0
  6 11  1  0  0  0  0
  7  4  1  0  0  0  0
  7 10  1  1  0  0  0
  8 13  1  0  0  0  0
  8  5  1  0  0  0  0
  9  7  1  0  0  0  0
 10 14  1  0  0  0  0
 11 12  1  0  0  0  0
 12  1  1  0  0  0  0
 12 19  1  1  0  0  0
 13 31  1  6  0  0  0
 13  9  1  0  0  0  0
 15 20  1  0  0  0  0
 17 15  1  0  0  0  0
 19 21  2  0  0  0  0
 20 24  1  0  0  0  0
 21 18  1  0  0  0  0
 22 15  2  0  0  0  0
 22 19  1  0  0  0  0
 23 22  1  0  0  0  0
 24 18  2  0  0  0  0
 24 16  1  0  0  0  0
 26 27  1  0  0  0  0
 28 30  1  1  0  0  0
 28 27  1  0  0  0  0
 28  6  1  0  0  0  0
 29 25  1  1  0  0  0
 29 30  1  0  0  0  0
 29 26  1  0  0  0  0
 32 31  1  0  0  0  0
M  END
>  <MODEL>
4

>  <REMARK>
 VINA RESULT:      -6.8      4.702      8.294
  Name = 
  3 active torsions:
  status: ('A' for Active; 'I' for Inactive)
    1  A    between atoms: C_10  and  C_28
    2  A    between atoms: C_13  and  C_29
    3  A    between atoms: C_16  and  C_27
                            x       y       z     vdW  Elec       q    Type
                         _______ _______ _______ _____ _____    ______ ____

>  <TORSDO>
F 3

$$$$
=
 OpenBabel10272413153D

 32 36  0  0  1  0  0  0  0  0999 V2000
  190.2070  177.3940  139.9680 C   0  0  2  0  0  3  0  0  0  0  0  0
  189.4400  178.0550  137.6490 O   0  0  0  0  0  0  0  0  0  0  0  0
  191.4980  177.4620  140.8030 C   0  0  0  0  0  2  0  0  0  0  0  0
  190.5190  177.6630  138.4940 C   0  0  2  0  0  3  0  0  0  0  0  0
  187.9830  176.1640  138.2450 C   0  0  0  0  0  2  0  0  0  0  0  0
  188.1540  177.6990  138.1420 C   0  0  1  0  0  0  0  0  0  0  0  0
  191.4100  176.5520  137.9050 C   0  0  2  0  0  3  0  0  0  0  0  0
  188.3150  175.3770  136.9710 C   0  0  0  0  0  2  0  0  0  0  0  0
  190.6570  175.3210  137.6730 N   0  0  0  0  0  2  0  0  0  0  0  0
  192.5780  176.2200  138.8540 C   0  0  0  0  0  2  0  0  0  0  0  0
  187.9030  178.3230  139.5310 C   0  0  0  0  0  2  0  0  0  0  0  0
  189.1330  178.3640  140.4460 C   0  0  1  0  0  3  0  0  0  0  0  0
  189.7690  175.5210  136.5340 C   0  0  1  0  0  3  0  0  0  0  0  0
  192.7770  177.2550  139.9710 C   0  0  0  0  0  2  0  0  0  0  0  0
  189.7210  177.7680  144.1400 C   0  0  0  0  0  0  0  0  0  0  0  0
  186.6620  176.9130  145.5960 F   0  0  0  0  0  0  0  0  0  0  0  0
  190.6500  178.1000  145.0690 F   0  0  0  0  0  0  0  0  0  0  0  0
  186.7810  177.5510  143.3720 C   0  0  0  0  0  3  0  0  0  0  0  0
  188.7300  178.1300  141.8740 C   0  0  0  0  0  0  0  0  0  0  0  0
  188.8050  176.6280  144.4390 C   0  0  0  0  0  2  0  0  0  0  0  0
  187.4440  177.8040  142.0780 C   0  0  0  0  0  3  0  0  0  0  0  0
  189.7040  178.4130  142.9680 C   0  0  0  0  0  0  0  0  0  0  0  0
  190.6620  179.3500  142.7470 F   0  0  0  0  0  0  0  0  0  0  0  0
  187.3850  177.0810  144.4630 C   0  0  0  0  0  0  0  0  0  0  0  0
  184.9950  176.0850  135.4020 C   0  0  0  0  0  1  0  0  0  0  0  0
  186.8980  177.5000  135.1570 O   0  0  0  0  0  0  0  0  0  0  0  0
  187.5570  178.4130  135.8660 O   0  0  0  0  0  0  0  0  0  0  0  0
  187.1010  178.3140  137.1940 C   0  0  1  0  0  3  0  0  0  0  0  0
  185.6100  177.4360  135.7000 C   0  0  2  0  0  3  0  0  0  0  0  0
  185.7850  177.5930  137.1680 C   0  0  0  0  0  2  0  0  0  0  0  0
  190.0700  174.5030  135.4490 C   0  0  0  0  0  2  0  0  0  0  0  0
  190.8880  173.3580  136.0130 C   0  0  0  0  0  1  0  0  0  0  0  0
  1 12  1  0  0  0  0
  1  3  1  1  0  0  0
  2  6  1  0  0  0  0
  4  2  1  6  0  0  0
  4  1  1  0  0  0  0
  6  5  1  1  0  0  0
  6 11  1  0  0  0  0
  7  4  1  0  0  0  0
  7 10  1  1  0  0  0
  8  5  1  0  0  0  0
  9  7  1  0  0  0  0
 10 14  1  0  0  0  0
 11 12  1  0  0  0  0
 12 19  1  1  0  0  0
 13 31  1  6  0  0  0
 13  8  1  0  0  0  0
 13  9  1  0  0  0  0
 14  3  1  0  0  0  0
 15 20  1  0  0  0  0
 15 17  1  0  0  0  0
 18 24  2  0  0  0  0
 19 21  2  0  0  0  0
 19 22  1  0  0  0  0
 20 24  1  0  0  0  0
 21 18  1  0  0  0  0
 22 15  2  0  0  0  0
 23 22  1  0  0  0  0
 24 16  1  0  0  0  0
 26 29  1  0  0  0  0
 26 27  1  0  0  0  0
 27 28  1  0  0  0  0
 28 30  1  6  0  0  0
 28  6  1  0  0  0  0
 29 25  1  1  0  0  0
 29 30  1  0  0  0  0
 31 32  1  0  0  0  0
M  END
>  <MODEL>
5

>  <REMARK>
 VINA RESULT:      -6.7      3.747      7.732
  Name = 
  3 active torsions:
  status: ('A' for Active; 'I' for Inactive)
    1  A    between atoms: C_10  and  C_28
    2  A    between atoms: C_13  and  C_29
    3  A    between atoms: C_16  and  C_27
                            x       y       z     vdW  Elec       q    Type
                         _______ _______ _______ _____ _____    ______ ____

>  <TORSDO>
F 3

$$$$
=
 OpenBabel10272413153D

 32 36  0  0  1  0  0  0  0  0999 V2000
  186.3410  178.3020  140.1490 C   0  0  2  0  0  3  0  0  0  0  0  0
  184.9290  179.1400  138.2240 O   0  0  0  0  0  0  0  0  0  0  0  0
  187.8000  178.4130  140.6230 C   0  0  0  0  0  2  0  0  0  0  0  0
  186.2210  178.7730  138.6980 C   0  0  2  0  0  3  0  0  0  0  0  0
  183.8320  177.0450  138.9030 C   0  0  0  0  0  2  0  0  0  0  0  0
  183.8530  178.5910  138.9770 C   0  0  1  0  0  0  0  0  0  0  0  0
  187.0000  177.8420  137.7480 C   0  0  2  0  0  3  0  0  0  0  0  0
  183.8640  176.4520  137.4890 C   0  0  0  0  0  2  0  0  0  0  0  0
  186.3060  176.5710  137.5470 N   0  0  0  0  0  2  0  0  0  0  0  0
  188.4030  177.5320  138.3070 C   0  0  0  0  0  2  0  0  0  0  0  0
  183.9420  179.0180  140.4580 C   0  0  0  0  0  2  0  0  0  0  0  0
  185.3670  179.0860  141.0200 C   0  0  1  0  0  3  0  0  0  0  0  0
  185.1310  176.8040  136.7160 C   0  0  1  0  0  3  0  0  0  0  0  0
  188.8180  178.4450  139.4680 C   0  0  0  0  0  2  0  0  0  0  0  0
  184.1590  178.9790  144.6080 C   0  0  0  0  0  0  0  0  0  0  0  0
  186.5570  177.2880  146.5040 F   0  0  0  0  0  0  0  0  0  0  0  0
  182.9820  179.1000  145.2700 F   0  0  0  0  0  0  0  0  0  0  0  0
  186.7630  177.4510  144.2040 C   0  0  0  0  0  3  0  0  0  0  0  0
  185.3840  178.6450  142.4560 C   0  0  0  0  0  0  0  0  0  0  0  0
  185.4220  179.1510  145.3850 C   0  0  0  0  0  2  0  0  0  0  0  0
  186.4950  178.0110  142.8640 C   0  0  0  0  0  3  0  0  0  0  0  0
  184.1520  178.7890  143.2840 C   0  0  0  0  0  0  0  0  0  0  0  0
  182.9500  178.7720  142.6530 F   0  0  0  0  0  0  0  0  0  0  0  0
  186.2440  177.9080  145.3420 C   0  0  0  0  0  0  0  0  0  0  0  0
  180.1220  180.2880  140.7900 C   0  0  0  0  0  1  0  0  0  0  0  0
  180.6240  178.5150  139.2780 O   0  0  0  0  0  0  0  0  0  0  0  0
  181.5100  178.2420  138.3230 O   0  0  0  0  0  0  0  0  0  0  0  0
  182.5410  179.1940  138.4310 C   0  0  1  0  0  3  0  0  0  0  0  0
  180.6000  179.9080  139.4050 C   0  0  2  0  0  3  0  0  0  0  0  0
  182.0070  180.3520  139.2210 C   0  0  0  0  0  2  0  0  0  0  0  0
  185.2020  175.9580  135.4580 C   0  0  0  0  0  2  0  0  0  0  0  0
  186.1950  174.8270  135.6390 C   0  0  0  0  0  1  0  0  0  0  0  0
  1  3  1  1  0  0  0
  1 12  1  0  0  0  0
  2  6  1  0  0  0  0
  4  2  1  6  0  0  0
  4  1  1  0  0  0  0
  6  5  1  6  0  0  0
  6 11  1  0  0  0  0
  7 10  1  1  0  0  0
  7  4  1  0  0  0  0
  8  5  1  0  0  0  0
  9  7  1  0  0  0  0
 10 14  1  0  0  0  0
 11 12  1  0  0  0  0
 12 19  1  1  0  0  0
 13 31  1  6  0  0  0
 13  8  1  0  0  0  0
 13  9  1  0  0  0  0
 14  3  1  0  0  0  0
 15 17  1  0  0  0  0
 15 20  1  0  0  0  0
 18 24  2  0  0  0  0
 19 21  2  0  0  0  0
 19 22  1  0  0  0  0
 21 18  1  0  0  0  0
 22 15  2  0  0  0  0
 23 22  1  0  0  0  0
 24 20  1  0  0  0  0
 24 16  1  0  0  0  0
 26 29  1  0  0  0  0
 27 28  1  0  0  0  0
 27 26  1  0  0  0  0
 28  6  1  0  0  0  0
 28 30  1  1  0  0  0
 29 25  1  1  0  0  0
 30 29  1  0  0  0  0
 31 32  1  0  0  0  0
M  END
>  <MODEL>
6

>  <REMARK>
 VINA RESULT:      -6.6      4.284      8.246
  Name = 
  3 active torsions:
  status: ('A' for Active; 'I' for Inactive)
    1  A    between atoms: C_10  and  C_28
    2  A    between atoms: C_13  and  C_29
    3  A    between atoms: C_16  and  C_27
                            x       y       z     vdW  Elec       q    Type
                         _______ _______ _______ _____ _____    ______ ____

>  <TORSDO>
F 3

$$$$
=
 OpenBabel10272413153D

 32 36  0  0  1  0  0  0  0  0999 V2000
  190.4320  176.6380  138.6460 C   0  0  2  0  0  3  0  0  0  0  0  0
  189.2190  177.3950  136.5580 O   0  0  0  0  0  0  0  0  0  0  0  0
  191.8830  176.5540  139.1520 C   0  0  0  0  0  2  0  0  0  0  0  0
  190.4160  176.8790  137.1340 C   0  0  2  0  0  3  0  0  0  0  0  0
  187.7420  175.6780  137.5190 C   0  0  0  0  0  2  0  0  0  0  0  0
  188.0540  177.1850  137.3460 C   0  0  1  0  0  0  0  0  0  0  0  0
  191.0140  175.6780  136.3750 C   0  0  2  0  0  3  0  0  0  0  0  0
  187.6740  174.8660  136.2190 C   0  0  0  0  0  2  0  0  0  0  0  0
  190.0950  174.5410  136.3520 N   0  0  0  0  0  2  0  0  0  0  0  0
  192.3280  175.2100  137.0310 C   0  0  0  0  0  2  0  0  0  0  0  0
  188.2090  177.8240  138.7420 C   0  0  0  0  0  2  0  0  0  0  0  0
  189.6160  177.7200  139.3420 C   0  0  1  0  0  3  0  0  0  0  0  0
  188.9910  174.8470  135.4500 C   0  0  1  0  0  3  0  0  0  0  0  0
  192.8980  176.2090  138.0470 C   0  0  0  0  0  2  0  0  0  0  0  0
  190.9370  176.8080  142.7730 C   0  0  0  0  0  0  0  0  0  0  0  0
  188.2270  176.6880  144.9750 F   0  0  0  0  0  0  0  0  0  0  0  0
  192.1230  176.8450  143.4290 F   0  0  0  0  0  0  0  0  0  0  0  0
  187.9460  177.3860  142.7850 C   0  0  0  0  0  3  0  0  0  0  0  0
  189.5380  177.5240  140.8290 C   0  0  0  0  0  0  0  0  0  0  0  0
  189.8620  175.9260  143.3150 C   0  0  0  0  0  2  0  0  0  0  0  0
  188.3050  177.5260  141.3600 C   0  0  0  0  0  3  0  0  0  0  0  0
  190.7950  177.4950  141.6330 C   0  0  0  0  0  0  0  0  0  0  0  0
  191.8750  178.1670  141.1600 F   0  0  0  0  0  0  0  0  0  0  0  0
  188.6610  176.7230  143.6930 C   0  0  0  0  0  0  0  0  0  0  0  0
  184.2530  175.9440  135.3200 C   0  0  0  0  0  1  0  0  0  0  0  0
  186.1780  177.2050  134.6990 O   0  0  0  0  0  0  0  0  0  0  0  0
  187.0520  178.0330  135.2670 O   0  0  0  0  0  0  0  0  0  0  0  0
  186.8830  177.9210  136.6600 C   0  0  1  0  0  3  0  0  0  0  0  0
  185.0360  177.2270  135.5060 C   0  0  2  0  0  3  0  0  0  0  0  0
  185.5320  177.3130  136.9040 C   0  0  0  0  0  2  0  0  0  0  0  0
  188.9130  173.8090  134.3460 C   0  0  0  0  0  2  0  0  0  0  0  0
  189.6930  172.5680  134.7340 C   0  0  0  0  0  1  0  0  0  0  0  0
  1  3  1  1  0  0  0
  1 12  1  0  0  0  0
  2  6  1  0  0  0  0
  4  2  1  6  0  0  0
  4  1  1  0  0  0  0
  6  5  1  1  0  0  0
  6 11  1  0  0  0  0
  7 10  1  1  0  0  0
  7  4  1  0  0  0  0
  8  5  1  0  0  0  0
  9  7  1  0  0  0  0
 10 14  1  0  0  0  0
 11 12  1  0  0  0  0
 12 19  1  1  0  0  0
 13 31  1  6  0  0  0
 13  8  1  0  0  0  0
 13  9  1  0  0  0  0
 14  3  1  0  0  0  0
 15 20  1  0  0  0  0
 15 17  1  0  0  0  0
 18 24  2  0  0  0  0
 19 21  2  0  0  0  0
 19 22  1  0  0  0  0
 20 24  1  0  0  0  0
 21 18  1  0  0  0  0
 22 15  2  0  0  0  0
 23 22  1  0  0  0  0
 24 16  1  0  0  0  0
 26 27  1  0  0  0  0
 26 29  1  0  0  0  0
 27 28  1  0  0  0  0
 28 30  1  6  0  0  0
 28  6  1  0  0  0  0
 29 25  1  1  0  0  0
 29 30  1  0  0  0  0
 31 32  1  0  0  0  0
M  END
>  <MODEL>
7

>  <REMARK>
 VINA RESULT:      -6.5      3.871      7.980
  Name = 
  3 active torsions:
  status: ('A' for Active; 'I' for Inactive)
    1  A    between atoms: C_10  and  C_28
    2  A    between atoms: C_13  and  C_29
    3  A    between atoms: C_16  and  C_27
                            x       y       z     vdW  Elec       q    Type
                         _______ _______ _______ _____ _____    ______ ____

>  <TORSDO>
F 3

$$$$
=
 OpenBabel10272413153D

 32 36  0  0  1  0  0  0  0  0999 V2000
  189.2050  177.6150  140.7930 C   0  0  2  0  0  3  0  0  0  0  0  0
  189.0510  178.4030  138.3940 O   0  0  0  0  0  0  0  0  0  0  0  0
  190.1980  177.7180  141.9640 C   0  0  0  0  0  2  0  0  0  0  0  0
  189.8850  178.0320  139.4880 C   0  0  2  0  0  3  0  0  0  0  0  0
  187.6880  176.3550  138.4390 C   0  0  0  0  0  2  0  0  0  0  0  0
  187.7220  177.9030  138.4770 C   0  0  1  0  0  0  0  0  0  0  0  0
  191.0150  177.0520  139.1140 C   0  0  2  0  0  3  0  0  0  0  0  0
  188.4410  175.7090  137.2690 C   0  0  0  0  0  2  0  0  0  0  0  0
  190.4870  175.7870  138.6060 N   0  0  0  0  0  2  0  0  0  0  0  0
  191.9000  176.7380  140.3370 C   0  0  0  0  0  2  0  0  0  0  0  0
  187.0310  178.3850  139.7710 C   0  0  0  0  0  2  0  0  0  0  0  0
  187.9460  178.4490  141.0000 C   0  0  1  0  0  3  0  0  0  0  0  0
  189.9370  176.0090  137.2740 C   0  0  1  0  0  3  0  0  0  0  0  0
  191.6720  177.6880  141.5210 C   0  0  0  0  0  2  0  0  0  0  0  0
  184.9820  178.4170  143.3580 C   0  0  0  0  0  0  0  0  0  0  0  0
  185.9950  176.9130  146.3440 F   0  0  0  0  0  0  0  0  0  0  0  0
  183.6330  178.5060  143.2660 F   0  0  0  0  0  0  0  0  0  0  0  0
  187.4160  177.0000  144.5180 C   0  0  0  0  0  3  0  0  0  0  0  0
  187.1880  178.0630  142.2370 C   0  0  0  0  0  0  0  0  0  0  0  0
  185.6150  178.6770  144.6840 C   0  0  0  0  0  2  0  0  0  0  0  0
  187.9100  177.4970  143.2180 C   0  0  0  0  0  3  0  0  0  0  0  0
  185.7010  178.1780  142.2540 C   0  0  0  0  0  0  0  0  0  0  0  0
  185.0370  178.0810  141.0740 F   0  0  0  0  0  0  0  0  0  0  0  0
  186.3520  177.4740  145.1640 C   0  0  0  0  0  0  0  0  0  0  0  0
  185.8270  176.3000  134.7450 C   0  0  0  0  0  1  0  0  0  0  0  0
  187.4660  177.9580  135.2430 O   0  0  0  0  0  0  0  0  0  0  0  0
  187.7290  178.8410  136.2050 O   0  0  0  0  0  0  0  0  0  0  0  0
  186.9180  178.5070  137.3060 C   0  0  1  0  0  3  0  0  0  0  0  0
  186.1020  177.6640  135.3440 C   0  0  2  0  0  3  0  0  0  0  0  0
  185.8020  177.6410  136.8000 C   0  0  0  0  0  2  0  0  0  0  0  0
  190.6310  175.1140  136.2640 C   0  0  0  0  0  2  0  0  0  0  0  0
  191.1520  173.8620  136.9400 C   0  0  0  0  0  1  0  0  0  0  0  0
  1 12  1  0  0  0  0
  1  3  1  1  0  0  0
  2  6  1  0  0  0  0
  4  2  1  6  0  0  0
  4  1  1  0  0  0  0
  6  5  1  6  0  0  0
  6 11  1  0  0  0  0
  7  4  1  0  0  0  0
  7 10  1  1  0  0  0
  8 13  1  0  0  0  0
  8  5  1  0  0  0  0
  9  7  1  0  0  0  0
 10 14  1  0  0  0  0
 11 12  1  0  0  0  0
 12 19  1  1  0  0  0
 13 31  1  6  0  0  0
 13  9  1  0  0  0  0
 14  3  1  0  0  0  0
 15 20  1  0  0  0  0
 17 15  1  0  0  0  0
 18 24  2  0  0  0  0
 19 22  1  0  0  0  0
 19 21  2  0  0  0  0
 20 24  1  0  0  0  0
 21 18  1  0  0  0  0
 22 15  2  0  0  0  0
 23 22  1  0  0  0  0
 24 16  1  0  0  0  0
 26 29  1  0  0  0  0
 26 27  1  0  0  0  0
 27 28  1  0  0  0  0
 28 30  1  6  0  0  0
 28  6  1  0  0  0  0
 29 25  1  1  0  0  0
 29 30  1  0  0  0  0
 31 32  1  0  0  0  0
M  END
>  <MODEL>
8

>  <REMARK>
 VINA RESULT:      -6.2      3.474      7.463
  Name = 
  3 active torsions:
  status: ('A' for Active; 'I' for Inactive)
    1  A    between atoms: C_10  and  C_28
    2  A    between atoms: C_13  and  C_29
    3  A    between atoms: C_16  and  C_27
                            x       y       z     vdW  Elec       q    Type
                         _______ _______ _______ _____ _____    ______ ____

>  <TORSDO>
F 3

$$$$
=
 OpenBabel10272413153D

 32 36  0  0  1  0  0  0  0  0999 V2000
  185.4970  177.9480  139.4220 C   0  0  2  0  0  3  0  0  0  0  0  0
  183.2530  178.5540  138.4210 O   0  0  0  0  0  0  0  0  0  0  0  0
  186.9840  178.1250  139.0720 C   0  0  0  0  0  2  0  0  0  0  0  0
  184.6290  178.2540  138.2000 C   0  0  2  0  0  3  0  0  0  0  0  0
  182.7900  176.5360  139.7510 C   0  0  0  0  0  2  0  0  0  0  0  0
  182.7460  178.0820  139.6630 C   0  0  1  0  0  0  0  0  0  0  0  0
  184.8770  177.2310  137.0730 C   0  0  2  0  0  3  0  0  0  0  0  0
  182.1390  175.7910  138.5790 C   0  0  0  0  0  2  0  0  0  0  0  0
  184.2610  175.9390  137.3710 N   0  0  0  0  0  2  0  0  0  0  0  0
  186.3860  176.9980  136.8640 C   0  0  0  0  0  2  0  0  0  0  0  0
  183.5440  178.6710  140.8460 C   0  0  0  0  0  2  0  0  0  0  0  0
  185.0500  178.8140  140.5930 C   0  0  1  0  0  3  0  0  0  0  0  0
  182.8140  176.0680  137.2390 C   0  0  1  0  0  3  0  0  0  0  0  0
  187.2730  178.0380  137.5620 C   0  0  0  0  0  2  0  0  0  0  0  0
  188.1230  177.9650  142.6370 C   0  0  0  0  0  0  0  0  0  0  0  0
  187.0930  177.2890  145.9060 F   0  0  0  0  0  0  0  0  0  0  0  0
  189.4620  178.1650  142.5580 F   0  0  0  0  0  0  0  0  0  0  0  0
  185.5840  178.0380  144.3180 C   0  0  0  0  0  3  0  0  0  0  0  0
  185.8200  178.5350  141.8520 C   0  0  0  0  0  0  0  0  0  0  0  0
  187.6270  176.8910  143.5470 C   0  0  0  0  0  2  0  0  0  0  0  0
  185.0870  178.3070  142.9530 C   0  0  0  0  0  3  0  0  0  0  0  0
  187.3050  178.6740  141.8510 C   0  0  0  0  0  0  0  0  0  0  0  0
  187.8680  179.5380  140.9670 F   0  0  0  0  0  0  0  0  0  0  0  0
  186.7480  177.4590  144.6080 C   0  0  0  0  0  0  0  0  0  0  0  0
  180.3390  179.9130  142.9710 C   0  0  0  0  0  1  0  0  0  0  0  0
  180.1210  177.9970  141.5700 O   0  0  0  0  0  0  0  0  0  0  0  0
  180.4190  177.6370  140.3230 O   0  0  0  0  0  0  0  0  0  0  0  0
  181.3010  178.6070  139.8110 C   0  0  1  0  0  3  0  0  0  0  0  0
  180.0760  179.3960  141.5730 C   0  0  2  0  0  3  0  0  0  0  0  0
  181.1660  179.8360  140.6630 C   0  0  0  0  0  2  0  0  0  0  0  0
  182.2930  175.0890  136.2030 C   0  0  0  0  0  2  0  0  0  0  0  0
  180.8410  175.3830  135.8830 C   0  0  0  0  0  1  0  0  0  0  0  0
  1  3  1  6  0  0  0
  1 12  1  0  0  0  0
  2  6  1  0  0  0  0
  4  2  1  1  0  0  0
  4  1  1  0  0  0  0
  6  5  1  1  0  0  0
  6 28  1  0  0  0  0
  6 11  1  0  0  0  0
  7 10  1  1  0  0  0
  7  9  1  0  0  0  0
  7  4  1  0  0  0  0
  8  5  1  0  0  0  0
 10 14  1  0  0  0  0
 12 11  1  0  0  0  0
 12 19  1  1  0  0  0
 13 31  1  6  0  0  0
 13  9  1  0  0  0  0
 13  8  1  0  0  0  0
 14  3  1  0  0  0  0
 15 20  1  0  0  0  0
 17 15  1  0  0  0  0
 18 24  2  0  0  0  0
 19 21  2  0  0  0  0
 20 24  1  0  0  0  0
 21 18  1  0  0  0  0
 22 19  1  0  0  0  0
 22 15  2  0  0  0  0
 23 22  1  0  0  0  0
 24 16  1  0  0  0  0
 26 29  1  0  0  0  0
 27 26  1  0  0  0  0
 28 27  1  0  0  0  0
 28 30  1  1  0  0  0
 29 25  1  1  0  0  0
 30 29  1  0  0  0  0
 32 31  1  0  0  0  0
M  END
>  <MODEL>
9

>  <REMARK>
 VINA RESULT:      -6.0      4.315      7.954
  Name = 
  3 active torsions:
  status: ('A' for Active; 'I' for Inactive)
    1  A    between atoms: C_10  and  C_28
    2  A    between atoms: C_13  and  C_29
    3  A    between atoms: C_16  and  C_27
                            x       y       z     vdW  Elec       q    Type
                         _______ _______ _______ _____ _____    ______ ____

>  <TORSDO>
F 3

$$$$
