=
 OpenBabel10272414463D

 37 44  0  0  1  0  0  0  0  0999 V2000
  183.5860  175.8540  138.0420 C   0  0  0  0  0  2  0  0  0  0  0  0
  182.0530  178.4730  141.9410 C   0  0  0  0  0  0  0  0  0  0  0  0
  183.7020  176.6350  136.7470 C   0  0  1  0  0  3  0  0  0  0  0  0
  185.0470  179.3500  140.9070 C   0  0  0  0  0  2  0  0  0  0  0  0
  180.3820  177.2710  140.6160 C   0  0  0  0  0  2  0  0  0  0  0  0
  183.1110  177.6390  141.3000 C   0  0  2  0  0  3  0  0  0  0  0  0
  184.4290  174.8490  135.3600 C   0  0  0  0  0  1  0  0  0  0  0  0
  180.8080  178.3100  141.5980 C   0  0  0  0  0  0  0  0  0  0  0  0
  184.5500  178.0910  141.6340 C   0  0  2  0  0  3  0  0  0  0  0  0
  179.9820  179.2610  142.2410 N   0  0  0  0  0  0  0  0  0  0  0  0
  185.1790  176.5980  136.7300 C   0  0  1  0  0  3  0  0  0  0  0  0
  181.4880  176.9600  139.5640 C   0  0  2  0  0  3  0  0  0  0  0  0
  182.7740  179.1720  144.4600 S   0  0  0  0  0  0  0  0  0  0  0  0
  184.4370  176.2950  135.5130 N   0  0  0  0  0  0  0  0  0  0  0  0
  180.7160  180.0230  142.9470 N   0  0  0  0  0  0  0  0  0  0  0  0
  185.3930  177.9920  137.2670 C   0  0  1  0  0  3  0  0  0  0  0  0
  184.8930  179.2850  139.3820 C   0  0  0  0  0  2  0  0  0  0  0  0
  182.1290  179.6600  142.8350 C   0  0  2  0  0  3  0  0  0  0  0  0
  182.8280  177.5580  139.8470 N   0  0  2  0  0  0  0  0  0  0  0  0
  184.8980  178.0280  143.1280 C   0  0  2  0  0  3  0  0  0  0  0  0
  185.1200  177.8840  138.7960 C   0  0  1  0  0  3  0  0  0  0  0  0
  183.9600  176.8620  139.1840 C   0  0  2  0  0  3  0  0  0  0  0  0
  184.5020  179.2810  143.9060 C   0  0  0  0  0  2  0  0  0  0  0  0
  187.1960  177.6340  142.2330 C   0  0  0  0  0  3  0  0  0  0  0  0
  186.3400  177.6840  143.3390 C   0  0  0  0  0  0  0  0  0  0  0  0
  186.8520  177.4340  144.6220 C   0  0  0  0  0  3  0  0  0  0  0  0
  188.6970  176.8910  146.0300 F   0  0  0  0  0  0  0  0  0  0  0  0
  189.0550  177.0810  143.6810 C   0  0  0  0  0  3  0  0  0  0  0  0
  188.2070  177.1320  144.7910 C   0  0  0  0  0  0  0  0  0  0  0  0
  188.5500  177.3320  142.4020 C   0  0  0  0  0  3  0  0  0  0  0  0
  186.8290  178.4260  137.0260 C   0  0  0  0  0  2  0  0  0  0  0  0
  187.6460  177.3070  136.8650 O   0  0  0  0  0  1  0  0  0  0  0  0
  180.9870  177.4660  138.2150 C   0  0  0  0  0  2  0  0  0  0  0  0
  180.9100  179.3410  136.7900 C   0  0  0  0  0  0  0  0  0  0  0  0
  181.2290  178.9590  138.0730 C   0  0  1  0  0  3  0  0  0  0  0  0
  180.0340  179.6180  137.9730 O   0  0  0  0  0  0  0  0  0  0  0  0
  181.1520  179.4030  135.5570 O   0  0  0  0  0  0  0  0  0  0  0  0
  1 22  1  0  0  0  0
  3  1  1  1  0  0  0
  5  8  1  0  0  0  0
  6  9  1  0  0  0  0
  6  2  1  1  0  0  0
  7 14  1  0  0  0  0
  8  2  2  0  0  0  0
  8 10  1  0  0  0  0
  9  4  1  1  0  0  0
  9 20  1  0  0  0  0
 10 15  2  0  0  0  0
 11 14  1  6  0  0  0
 11  3  1  0  0  0  0
 11 16  1  0  0  0  0
 12 33  1  6  0  0  0
 12 19  1  0  0  0  0
 12  5  1  0  0  0  0
 14  3  1  0  0  0  0
 16 31  1  1  0  0  0
 16 21  1  0  0  0  0
 17  4  1  0  0  0  0
 18  2  1  6  0  0  0
 18 15  1  0  0  0  0
 18 13  1  0  0  0  0
 19  6  1  0  0  0  0
 20 25  1  0  0  0  0
 20 23  1  0  0  0  0
 21 22  1  0  0  0  0
 21 17  1  0  0  0  0
 22 19  1  0  0  0  0
 23 13  1  0  0  0  0
 24 30  2  0  0  0  0
 24 25  1  0  0  0  0
 25 26  2  0  0  0  0
 26 29  1  0  0  0  0
 28 29  2  0  0  0  0
 29 27  1  0  0  0  0
 30 28  1  0  0  0  0
 32 31  1  0  0  0  0
 34 36  1  0  0  0  0
 34 35  1  0  0  0  0
 35 33  1  0  0  0  0
 36 35  1  0  0  0  0
 37 34  2  0  0  0  0
M  END
>  <MODEL>
1

>  <REMARK>
 VINA RESULT:      -6.7      0.000      0.000
  Name = 
  4 active torsions:
  status: ('A' for Active; 'I' for Inactive)
    1  A    between atoms: C_6  and  C_31
    2  A    between atoms: C_11  and  C_26
    3  A    between atoms: C_20  and  C_25
    4  A    between atoms: C_21  and  C_25
                            x       y       z     vdW  Elec       q    Type
                         _______ _______ _______ _____ _____    ______ ____

>  <TORSDO>
F 4

$$$$
=
 OpenBabel10272414463D

 37 44  0  0  1  0  0  0  0  0999 V2000
  187.8070  178.4130  136.7900 C   0  0  0  0  0  2  0  0  0  0  0  0
  185.2430  178.5250  141.0110 C   0  0  0  0  0  0  0  0  0  0  0  0
  188.1990  177.0280  136.3110 C   0  0  1  0  0  3  0  0  0  0  0  0
  183.5560  177.1950  138.5230 C   0  0  0  0  0  2  0  0  0  0  0  0
  187.6760  178.7550  141.1220 C   0  0  0  0  0  2  0  0  0  0  0  0
  185.3140  178.8320  139.5530 C   0  0  2  0  0  3  0  0  0  0  0  0
  189.3640  177.6850  134.3490 C   0  0  0  0  0  1  0  0  0  0  0  0
  186.3370  178.4690  141.7120 C   0  0  0  0  0  0  0  0  0  0  0  0
  183.9720  178.6450  138.8090 C   0  0  2  0  0  3  0  0  0  0  0  0
  186.0620  178.0670  143.0400 N   0  0  0  0  0  0  0  0  0  0  0  0
  187.2650  177.0390  135.1680 C   0  0  1  0  0  3  0  0  0  0  0  0
  187.7460  178.3980  139.6070 C   0  0  2  0  0  3  0  0  0  0  0  0
  182.9000  179.4000  142.0630 S   0  0  0  0  0  0  0  0  0  0  0  0
  188.6370  176.5900  134.9710 N   0  0  0  0  0  0  0  0  0  0  0  0
  184.8140  177.8450  143.1450 N   0  0  0  0  0  0  0  0  0  0  0  0
  186.1860  176.2080  135.8180 C   0  0  1  0  0  3  0  0  0  0  0  0
  184.6330  176.3710  137.8080 C   0  0  0  0  0  2  0  0  0  0  0  0
  184.1210  178.0690  141.8760 C   0  0  2  0  0  3  0  0  0  0  0  0
  186.4380  178.0640  138.9670 N   0  0  2  0  0  0  0  0  0  0  0  0
  182.8430  179.5550  139.3120 C   0  0  2  0  0  3  0  0  0  0  0  0
  185.4580  177.1780  136.7940 C   0  0  1  0  0  3  0  0  0  0  0  0
  186.4160  178.2440  137.4930 C   0  0  2  0  0  3  0  0  0  0  0  0
  182.0730  178.9810  140.4990 C   0  0  0  0  0  2  0  0  0  0  0  0
  181.4820  178.9700  137.3020 C   0  0  0  0  0  3  0  0  0  0  0  0
  181.9220  179.9500  138.2000 C   0  0  0  0  0  0  0  0  0  0  0  0
  181.4740  181.2720  138.0540 C   0  0  0  0  0  3  0  0  0  0  0  0
  180.1720  182.8850  136.8790 F   0  0  0  0  0  0  0  0  0  0  0  0
  180.1680  180.6260  136.1210 C   0  0  0  0  0  3  0  0  0  0  0  0
  180.6000  181.6080  137.0160 C   0  0  0  0  0  0  0  0  0  0  0  0
  180.6080  179.3070  136.2640 C   0  0  0  0  0  3  0  0  0  0  0  0
  185.2120  175.7050  134.7650 C   0  0  0  0  0  2  0  0  0  0  0  0
  184.3830  176.7450  134.3460 O   0  0  0  0  0  1  0  0  0  0  0  0
  188.6930  177.2100  139.4640 C   0  0  0  0  0  2  0  0  0  0  0  0
  190.7400  177.0350  140.6170 C   0  0  0  0  0  0  0  0  0  0  0  0
  190.1410  177.6580  139.5460 C   0  0  1  0  0  3  0  0  0  0  0  0
  190.9690  176.6260  139.1950 O   0  0  0  0  0  0  0  0  0  0  0  0
  190.9400  176.8970  141.8520 O   0  0  0  0  0  0  0  0  0  0  0  0
  1 22  1  0  0  0  0
  2  8  2  0  0  0  0
  3  1  1  6  0  0  0
  5  8  1  0  0  0  0
  6  2  1  1  0  0  0
  7 14  1  0  0  0  0
  8 10  1  0  0  0  0
  9  4  1  1  0  0  0
  9 20  1  0  0  0  0
  9  6  1  0  0  0  0
 10 15  2  0  0  0  0
 11 14  1  6  0  0  0
 11 16  1  0  0  0  0
 11  3  1  0  0  0  0
 12 33  1  1  0  0  0
 12  5  1  0  0  0  0
 14  3  1  0  0  0  0
 16 31  1  6  0  0  0
 16 21  1  0  0  0  0
 17  4  1  0  0  0  0
 18  2  1  6  0  0  0
 18 13  1  0  0  0  0
 18 15  1  0  0  0  0
 19  6  1  0  0  0  0
 19 12  1  0  0  0  0
 20 23  1  0  0  0  0
 21 22  1  0  0  0  0
 21 17  1  0  0  0  0
 22 19  1  0  0  0  0
 23 13  1  0  0  0  0
 24 25  1  0  0  0  0
 25 20  1  0  0  0  0
 26 25  2  0  0  0  0
 27 29  1  0  0  0  0
 28 30  1  0  0  0  0
 28 29  2  0  0  0  0
 29 26  1  0  0  0  0
 30 24  2  0  0  0  0
 32 31  1  0  0  0  0
 33 35  1  0  0  0  0
 34 37  2  0  0  0  0
 35 34  1  0  0  0  0
 36 35  1  0  0  0  0
 36 34  1  0  0  0  0
M  END
>  <MODEL>
2

>  <REMARK>
 VINA RESULT:      -6.3      3.473      6.934
  Name = 
  4 active torsions:
  status: ('A' for Active; 'I' for Inactive)
    1  A    between atoms: C_6  and  C_31
    2  A    between atoms: C_11  and  C_26
    3  A    between atoms: C_20  and  C_25
    4  A    between atoms: C_21  and  C_25
                            x       y       z     vdW  Elec       q    Type
                         _______ _______ _______ _____ _____    ______ ____

>  <TORSDO>
F 4

$$$$
=
 OpenBabel10272414463D

 37 44  0  0  1  0  0  0  0  0999 V2000
  187.5390  174.6880  137.3470 C   0  0  0  0  0  2  0  0  0  0  0  0
  182.7800  173.4950  136.7680 C   0  0  0  0  0  0  0  0  0  0  0  0
  188.1900  175.3410  136.1420 C   0  0  1  0  0  3  0  0  0  0  0  0
  183.2860  176.7420  136.8330 C   0  0  0  0  0  2  0  0  0  0  0  0
  184.4720  171.7970  136.2800 C   0  0  0  0  0  2  0  0  0  0  0  0
  183.8200  174.2730  137.5020 C   0  0  2  0  0  3  0  0  0  0  0  0
  190.3630  175.6120  137.0610 C   0  0  0  0  0  1  0  0  0  0  0  0
  183.1000  172.3740  136.1910 C   0  0  0  0  0  0  0  0  0  0  0  0
  183.3550  175.6800  137.9400 C   0  0  2  0  0  3  0  0  0  0  0  0
  182.0020  171.8500  135.4690 N   0  0  0  0  0  0  0  0  0  0  0  0
  188.2890  176.6700  136.7790 C   0  0  1  0  0  3  0  0  0  0  0  0
  185.5680  172.8930  136.4310 C   0  0  2  0  0  3  0  0  0  0  0  0
  180.3280  173.9090  137.8530 S   0  0  0  0  0  0  0  0  0  0  0  0
  189.4370  176.1270  136.0650 N   0  0  0  0  0  0  0  0  0  0  0  0
  181.0260  172.6590  135.5730 N   0  0  0  0  0  0  0  0  0  0  0  0
  187.0810  177.2750  136.1080 C   0  0  1  0  0  3  0  0  0  0  0  0
  184.5840  176.8820  136.0280 C   0  0  0  0  0  2  0  0  0  0  0  0
  181.3820  173.8280  136.3770 C   0  0  2  0  0  3  0  0  0  0  0  0
  185.0610  174.2740  136.6920 N   0  0  2  0  0  0  0  0  0  0  0  0
  182.1620  175.6750  138.9070 C   0  0  2  0  0  3  0  0  0  0  0  0
  185.8560  176.6830  136.8650 C   0  0  1  0  0  3  0  0  0  0  0  0
  186.0480  175.1740  137.3420 C   0  0  2  0  0  3  0  0  0  0  0  0
  180.8050  175.6260  138.2090 C   0  0  0  0  0  2  0  0  0  0  0  0
  181.0540  177.3890  140.3450 C   0  0  0  0  0  3  0  0  0  0  0  0
  182.2400  176.8120  139.8770 C   0  0  0  0  0  0  0  0  0  0  0  0
  183.4740  177.2930  140.3430 C   0  0  0  0  0  3  0  0  0  0  0  0
  184.7090  178.8060  141.7090 F   0  0  0  0  0  0  0  0  0  0  0  0
  182.3280  178.9190  141.7230 C   0  0  0  0  0  3  0  0  0  0  0  0
  183.5170  178.3450  141.2630 C   0  0  0  0  0  0  0  0  0  0  0  0
  181.0970  178.4410  141.2650 C   0  0  0  0  0  3  0  0  0  0  0  0
  187.1050  178.7870  136.2600 C   0  0  0  0  0  2  0  0  0  0  0  0
  187.8890  179.1440  137.3580 O   0  0  0  0  0  1  0  0  0  0  0  0
  186.3890  172.8950  135.1440 C   0  0  0  0  0  2  0  0  0  0  0  0
  188.5240  171.9180  134.9540 C   0  0  0  0  0  0  0  0  0  0  0  0
  187.1840  171.6090  135.0060 C   0  0  1  0  0  3  0  0  0  0  0  0
  187.8580  171.3500  136.1690 O   0  0  0  0  0  0  0  0  0  0  0  0
  189.5410  172.3550  134.3550 O   0  0  0  0  0  0  0  0  0  0  0  0
  3 11  1  0  0  0  0
  3  1  1  1  0  0  0
  5 12  1  0  0  0  0
  6  2  1  6  0  0  0
  6  9  1  0  0  0  0
  8  5  1  0  0  0  0
  8  2  2  0  0  0  0
  9  4  1  6  0  0  0
  9 20  1  0  0  0  0
 10 15  2  0  0  0  0
 10  8  1  0  0  0  0
 11 14  1  6  0  0  0
 12 33  1  6  0  0  0
 12 19  1  0  0  0  0
 13 23  1  0  0  0  0
 14  3  1  0  0  0  0
 14  7  1  0  0  0  0
 16 31  1  1  0  0  0
 16 11  1  0  0  0  0
 16 21  1  0  0  0  0
 17  4  1  0  0  0  0
 17 21  1  0  0  0  0
 18 15  1  6  0  0  0
 18  2  1  0  0  0  0
 18 13  1  0  0  0  0
 19 22  1  0  0  0  0
 19  6  1  0  0  0  0
 20 25  1  0  0  0  0
 21 22  1  0  0  0  0
 22  1  1  0  0  0  0
 23 20  1  0  0  0  0
 24 30  1  0  0  0  0
 25 26  1  0  0  0  0
 25 24  2  0  0  0  0
 26 29  2  0  0  0  0
 29 27  1  0  0  0  0
 29 28  1  0  0  0  0
 30 28  2  0  0  0  0
 31 32  1  0  0  0  0
 34 35  1  0  0  0  0
 34 36  1  0  0  0  0
 35 33  1  0  0  0  0
 35 36  1  0  0  0  0
 37 34  2  0  0  0  0
M  END
>  <MODEL>
3

>  <REMARK>
 VINA RESULT:      -5.8      4.209      6.892
  Name = 
  4 active torsions:
  status: ('A' for Active; 'I' for Inactive)
    1  A    between atoms: C_6  and  C_31
    2  A    between atoms: C_11  and  C_26
    3  A    between atoms: C_20  and  C_25
    4  A    between atoms: C_21  and  C_25
                            x       y       z     vdW  Elec       q    Type
                         _______ _______ _______ _____ _____    ______ ____

>  <TORSDO>
F 4

$$$$
=
 OpenBabel10272414463D

 37 44  0  0  1  0  0  0  0  0999 V2000
  187.0700  178.5570  138.2440 C   0  0  0  0  0  2  0  0  0  0  0  0
  183.0460  179.0110  141.0740 C   0  0  0  0  0  0  0  0  0  0  0  0
  187.6060  177.1440  138.1090 C   0  0  1  0  0  3  0  0  0  0  0  0
  182.4680  177.3800  138.2790 C   0  0  0  0  0  2  0  0  0  0  0  0
  185.2390  179.3320  142.1100 C   0  0  0  0  0  2  0  0  0  0  0  0
  183.6910  179.1700  139.7390 C   0  0  2  0  0  3  0  0  0  0  0  0
  189.4580  177.6370  136.7070 C   0  0  0  0  0  1  0  0  0  0  0  0
  183.7730  179.0630  142.1520 C   0  0  0  0  0  0  0  0  0  0  0  0
  182.7510  178.8650  138.5500 C   0  0  2  0  0  3  0  0  0  0  0  0
  182.9920  178.7890  143.2980 N   0  0  0  0  0  0  0  0  0  0  0  0
  187.1990  177.0080  136.6950 C   0  0  1  0  0  3  0  0  0  0  0  0
  185.8990  178.8260  140.7930 C   0  0  2  0  0  3  0  0  0  0  0  0
  180.4870  179.9100  141.0180 S   0  0  0  0  0  0  0  0  0  0  0  0
  188.5330  176.5880  137.1040 N   0  0  0  0  0  0  0  0  0  0  0  0
  181.8020  178.5380  142.9250 N   0  0  0  0  0  0  0  0  0  0  0  0
  185.9440  176.2120  136.9510 C   0  0  1  0  0  3  0  0  0  0  0  0
  183.7330  176.5240  138.1390 C   0  0  0  0  0  2  0  0  0  0  0  0
  181.6690  178.6080  141.4700 C   0  0  2  0  0  3  0  0  0  0  0  0
  184.9480  178.3850  139.7280 N   0  0  2  0  0  0  0  0  0  0  0  0
  181.5230  179.7830  138.4680 C   0  0  2  0  0  3  0  0  0  0  0  0
  184.8990  177.2510  137.4530 C   0  0  1  0  0  3  0  0  0  0  0  0
  185.5120  178.4140  138.3550 C   0  0  2  0  0  3  0  0  0  0  0  0
  180.3420  179.3070  139.3090 C   0  0  0  0  0  2  0  0  0  0  0  0
  181.1070  178.9600  136.1470 C   0  0  0  0  0  3  0  0  0  0  0  0
  181.1220  180.0320  137.0470 C   0  0  0  0  0  0  0  0  0  0  0  0
  180.7380  181.3090  136.6080 C   0  0  0  0  0  3  0  0  0  0  0  0
  179.9820  182.7420  134.8600 F   0  0  0  0  0  0  0  0  0  0  0  0
  180.3410  180.4340  134.3860 C   0  0  0  0  0  3  0  0  0  0  0  0
  180.3500  181.5080  135.2800 C   0  0  0  0  0  0  0  0  0  0  0  0
  180.7190  179.1600  134.8190 C   0  0  0  0  0  3  0  0  0  0  0  0
  185.4610  175.5720  135.6600 C   0  0  0  0  0  2  0  0  0  0  0  0
  185.9300  176.2980  134.5640 O   0  0  0  0  0  1  0  0  0  0  0  0
  186.8140  177.6610  141.1620 C   0  0  0  0  0  2  0  0  0  0  0  0
  188.6080  177.1220  142.5900 C   0  0  0  0  0  0  0  0  0  0  0  0
  188.0670  178.1570  141.8610 C   0  0  1  0  0  3  0  0  0  0  0  0
  189.1750  177.5940  141.2870 O   0  0  0  0  0  0  0  0  0  0  0  0
  188.6200  176.3510  143.5850 O   0  0  0  0  0  0  0  0  0  0  0  0
  1 22  1  0  0  0  0
  2 18  1  0  0  0  0
  2  8  2  0  0  0  0
  3  1  1  6  0  0  0
  5  8  1  0  0  0  0
  6  2  1  1  0  0  0
  7 14  1  0  0  0  0
  8 10  1  0  0  0  0
  9  4  1  1  0  0  0
  9  6  1  0  0  0  0
 11 16  1  0  0  0  0
 11 14  1  6  0  0  0
 11  3  1  0  0  0  0
 12 33  1  1  0  0  0
 12  5  1  0  0  0  0
 14  3  1  0  0  0  0
 15 10  2  0  0  0  0
 16 31  1  6  0  0  0
 16 21  1  0  0  0  0
 17  4  1  0  0  0  0
 18 13  1  1  0  0  0
 18 15  1  0  0  0  0
 19  6  1  0  0  0  0
 19 12  1  0  0  0  0
 20  9  1  0  0  0  0
 20 23  1  0  0  0  0
 21 17  1  0  0  0  0
 21 22  1  0  0  0  0
 22 19  1  0  0  0  0
 23 13  1  0  0  0  0
 24 25  1  0  0  0  0
 25 20  1  0  0  0  0
 26 25  2  0  0  0  0
 27 29  1  0  0  0  0
 28 30  1  0  0  0  0
 28 29  2  0  0  0  0
 29 26  1  0  0  0  0
 30 24  2  0  0  0  0
 32 31  1  0  0  0  0
 33 35  1  0  0  0  0
 34 37  2  0  0  0  0
 35 34  1  0  0  0  0
 36 35  1  0  0  0  0
 36 34  1  0  0  0  0
M  END
>  <MODEL>
4

>  <REMARK>
 VINA RESULT:      -5.8      3.456      6.882
  Name = 
  4 active torsions:
  status: ('A' for Active; 'I' for Inactive)
    1  A    between atoms: C_6  and  C_31
    2  A    between atoms: C_11  and  C_26
    3  A    between atoms: C_20  and  C_25
    4  A    between atoms: C_21  and  C_25
                            x       y       z     vdW  Elec       q    Type
                         _______ _______ _______ _____ _____    ______ ____

>  <TORSDO>
F 4

$$$$
=
 OpenBabel10272414463D

 37 44  0  0  1  0  0  0  0  0999 V2000
  188.1420  176.6910  143.4310 C   0  0  0  0  0  2  0  0  0  0  0  0
  191.5890  176.8530  139.8960 C   0  0  0  0  0  0  0  0  0  0  0  0
  187.6990  178.0420  143.9610 C   0  0  1  0  0  3  0  0  0  0  0  0
  188.6890  178.0460  138.9110 C   0  0  0  0  0  2  0  0  0  0  0  0
  192.3160  176.6100  142.2190 C   0  0  0  0  0  2  0  0  0  0  0  0
  190.2150  176.4590  140.3200 C   0  0  2  0  0  3  0  0  0  0  0  0
  186.1290  177.2580  145.5610 C   0  0  0  0  0  1  0  0  0  0  0  0
  192.5370  176.9430  140.7830 C   0  0  0  0  0  0  0  0  0  0  0  0
  189.1500  176.6120  139.2100 C   0  0  2  0  0  3  0  0  0  0  0  0
  193.7300  177.4260  140.1960 N   0  0  0  0  0  0  0  0  0  0  0  0
  186.3610  177.9690  143.3390 C   0  0  1  0  0  3  0  0  0  0  0  0
  190.8490  176.8760  142.6720 C   0  0  2  0  0  3  0  0  0  0  0  0
  192.0710  176.0630  137.3460 S   0  0  0  0  0  0  0  0  0  0  0  0
  186.4880  178.3940  144.7270 N   0  0  0  0  0  0  0  0  0  0  0  0
  193.5070  177.6630  138.9660 N   0  0  0  0  0  0  0  0  0  0  0  0
  186.6740  178.8470  142.1520 C   0  0  1  0  0  3  0  0  0  0  0  0
  188.2190  178.8170  140.1510 C   0  0  0  0  0  2  0  0  0  0  0  0
  192.1200  177.3700  138.6050 C   0  0  2  0  0  3  0  0  0  0  0  0
  189.8850  177.1810  141.5720 N   0  0  2  0  0  0  0  0  0  0  0  0
  189.4060  175.7430  137.9700 C   0  0  2  0  0  3  0  0  0  0  0  0
  187.4910  177.9430  141.1830 C   0  0  1  0  0  3  0  0  0  0  0  0
  188.4650  176.9130  141.9120 C   0  0  2  0  0  3  0  0  0  0  0  0
  190.3300  176.3940  136.9430 C   0  0  0  0  0  2  0  0  0  0  0  0
  187.9860  173.9480  136.9710 C   0  0  0  0  0  3  0  0  0  0  0  0
  188.1230  175.2900  137.3460 C   0  0  0  0  0  0  0  0  0  0  0  0
  187.0510  176.1750  137.1520 C   0  0  0  0  0  3  0  0  0  0  0  0
  184.8260  176.5770  136.3970 F   0  0  0  0  0  0  0  0  0  0  0  0
  185.7290  174.3800  136.2080 C   0  0  0  0  0  3  0  0  0  0  0  0
  185.8570  175.7200  136.5830 C   0  0  0  0  0  0  0  0  0  0  0  0
  186.7930  173.4930  136.4020 C   0  0  0  0  0  3  0  0  0  0  0  0
  185.3850  179.2940  141.4830 C   0  0  0  0  0  2  0  0  0  0  0  0
  184.3140  178.5310  141.9510 O   0  0  0  0  0  1  0  0  0  0  0  0
  190.8810  178.0450  143.6510 C   0  0  0  0  0  2  0  0  0  0  0  0
  190.6780  177.2890  145.8730 C   0  0  0  0  0  0  0  0  0  0  0  0
  191.6070  177.6630  144.9290 C   0  0  1  0  0  3  0  0  0  0  0  0
  191.5280  176.3110  145.1230 O   0  0  0  0  0  0  0  0  0  0  0  0
  189.7830  177.5540  146.7170 O   0  0  0  0  0  0  0  0  0  0  0  0
  2  8  2  0  0  0  0
  3  1  1  1  0  0  0
  3 14  1  0  0  0  0
  4 17  1  0  0  0  0
  5 12  1  0  0  0  0
  6  2  1  6  0  0  0
  6 19  1  0  0  0  0
  8  5  1  0  0  0  0
  9  4  1  6  0  0  0
  9  6  1  0  0  0  0
 10  8  1  0  0  0  0
 11  3  1  0  0  0  0
 11 14  1  1  0  0  0
 12 33  1  1  0  0  0
 14  7  1  0  0  0  0
 15 10  2  0  0  0  0
 16 31  1  6  0  0  0
 16 11  1  0  0  0  0
 17 21  1  0  0  0  0
 18 13  1  6  0  0  0
 18 15  1  0  0  0  0
 18  2  1  0  0  0  0
 19 22  1  0  0  0  0
 19 12  1  0  0  0  0
 20  9  1  0  0  0  0
 21 22  1  0  0  0  0
 21 16  1  0  0  0  0
 22  1  1  0  0  0  0
 23 13  1  0  0  0  0
 23 20  1  0  0  0  0
 24 25  1  0  0  0  0
 25 20  1  0  0  0  0
 26 25  2  0  0  0  0
 27 29  1  0  0  0  0
 28 30  1  0  0  0  0
 28 29  2  0  0  0  0
 29 26  1  0  0  0  0
 30 24  2  0  0  0  0
 31 32  1  0  0  0  0
 33 35  1  0  0  0  0
 34 37  2  0  0  0  0
 35 36  1  0  0  0  0
 35 34  1  0  0  0  0
 36 34  1  0  0  0  0
M  END
>  <MODEL>
5

>  <REMARK>
 VINA RESULT:      -5.8      5.160      9.385
  Name = 
  4 active torsions:
  status: ('A' for Active; 'I' for Inactive)
    1  A    between atoms: C_6  and  C_31
    2  A    between atoms: C_11  and  C_26
    3  A    between atoms: C_20  and  C_25
    4  A    between atoms: C_21  and  C_25
                            x       y       z     vdW  Elec       q    Type
                         _______ _______ _______ _____ _____    ______ ____

>  <TORSDO>
F 4

$$$$
=
 OpenBabel10272414463D

 37 44  0  0  1  0  0  0  0  0999 V2000
  187.5990  176.7070  144.0480 C   0  0  0  0  0  2  0  0  0  0  0  0
  187.6550  178.0380  139.2910 C   0  0  0  0  0  0  0  0  0  0  0  0
  187.8530  177.8310  145.0340 C   0  0  1  0  0  3  0  0  0  0  0  0
  185.0960  179.2820  140.9380 C   0  0  0  0  0  2  0  0  0  0  0  0
  189.7280  177.2090  140.2910 C   0  0  0  0  0  2  0  0  0  0  0  0
  186.9070  177.4630  140.4460 C   0  0  2  0  0  3  0  0  0  0  0  0
  187.7130  176.5470  147.0270 C   0  0  0  0  0  1  0  0  0  0  0  0
  188.9510  177.9370  139.2470 C   0  0  0  0  0  0  0  0  0  0  0  0
  185.4110  177.8510  140.4780 C   0  0  2  0  0  3  0  0  0  0  0  0
  189.4710  178.6320  138.1310 N   0  0  0  0  0  0  0  0  0  0  0  0
  186.4630  177.8530  145.5350 C   0  0  1  0  0  3  0  0  0  0  0  0
  189.0340  177.2530  141.6850 C   0  0  2  0  0  3  0  0  0  0  0  0
  186.1290  178.0090  137.0480 S   0  0  0  0  0  0  0  0  0  0  0  0
  187.5700  177.8870  146.4820 N   0  0  0  0  0  0  0  0  0  0  0  0
  188.5060  179.1850  137.5130 N   0  0  0  0  0  0  0  0  0  0  0  0
  186.0060  179.0410  144.7230 C   0  0  1  0  0  3  0  0  0  0  0  0
  185.7300  179.6530  142.2850 C   0  0  0  0  0  2  0  0  0  0  0  0
  187.2260  178.9210  138.1710 C   0  0  2  0  0  3  0  0  0  0  0  0
  187.6400  177.7920  141.6910 N   0  0  2  0  0  0  0  0  0  0  0  0
  184.6110  177.3730  139.2580 C   0  0  2  0  0  3  0  0  0  0  0  0
  185.7860  178.4880  143.2840 C   0  0  1  0  0  3  0  0  0  0  0  0
  186.8220  177.3570  142.8510 C   0  0  2  0  0  3  0  0  0  0  0  0
  184.6640  178.3350  138.0730 C   0  0  0  0  0  2  0  0  0  0  0  0
  182.4550  177.9530  140.3750 C   0  0  0  0  0  3  0  0  0  0  0  0
  183.2010  177.0340  139.6280 C   0  0  0  0  0  0  0  0  0  0  0  0
  182.6070  175.8290  139.2210 C   0  0  0  0  0  3  0  0  0  0  0  0
  180.7130  174.3830  139.1730 F   0  0  0  0  0  0  0  0  0  0  0  0
  180.5440  176.4670  140.3160 C   0  0  0  0  0  3  0  0  0  0  0  0
  181.2820  175.5470  139.5660 C   0  0  0  0  0  0  0  0  0  0  0  0
  181.1290  177.6700  140.7200 C   0  0  0  0  0  3  0  0  0  0  0  0
  184.6980  179.5770  145.2790 C   0  0  0  0  0  2  0  0  0  0  0  0
  184.2720  178.7850  146.3460 O   0  0  0  0  0  1  0  0  0  0  0  0
  189.9060  178.1080  142.6000 C   0  0  0  0  0  2  0  0  0  0  0  0
  191.3780  177.2410  144.2230 C   0  0  0  0  0  0  0  0  0  0  0  0
  191.2390  177.4310  142.8660 C   0  0  1  0  0  3  0  0  0  0  0  0
  191.0340  176.1390  143.2690 O   0  0  0  0  0  0  0  0  0  0  0  0
  191.6060  177.6640  145.3860 O   0  0  0  0  0  0  0  0  0  0  0  0
  3  1  1  1  0  0  0
  3 11  1  0  0  0  0
  3 14  1  0  0  0  0
  4 17  1  0  0  0  0
  5 12  1  0  0  0  0
  6  2  1  6  0  0  0
  6  9  1  0  0  0  0
  6 19  1  0  0  0  0
  8  2  2  0  0  0  0
  8  5  1  0  0  0  0
  9  4  1  6  0  0  0
 10  8  1  0  0  0  0
 11 14  1  1  0  0  0
 12 19  1  0  0  0  0
 12 33  1  1  0  0  0
 13 23  1  0  0  0  0
 14  7  1  0  0  0  0
 15 10  2  0  0  0  0
 15 18  1  0  0  0  0
 16 31  1  1  0  0  0
 16 11  1  0  0  0  0
 17 21  1  0  0  0  0
 18 13  1  6  0  0  0
 18  2  1  0  0  0  0
 19 22  1  0  0  0  0
 20 25  1  0  0  0  0
 20  9  1  0  0  0  0
 21 16  1  0  0  0  0
 22 21  1  0  0  0  0
 22  1  1  0  0  0  0
 23 20  1  0  0  0  0
 24 30  1  0  0  0  0
 25 24  2  0  0  0  0
 26 29  2  0  0  0  0
 26 25  1  0  0  0  0
 27 29  1  0  0  0  0
 28 30  2  0  0  0  0
 29 28  1  0  0  0  0
 31 32  1  0  0  0  0
 33 35  1  0  0  0  0
 34 37  2  0  0  0  0
 35 36  1  0  0  0  0
 35 34  1  0  0  0  0
 36 34  1  0  0  0  0
M  END
>  <MODEL>
6

>  <REMARK>
 VINA RESULT:      -5.4      4.419      8.477
  Name = 
  4 active torsions:
  status: ('A' for Active; 'I' for Inactive)
    1  A    between atoms: C_6  and  C_31
    2  A    between atoms: C_11  and  C_26
    3  A    between atoms: C_20  and  C_25
    4  A    between atoms: C_21  and  C_25
                            x       y       z     vdW  Elec       q    Type
                         _______ _______ _______ _____ _____    ______ ____

>  <TORSDO>
F 4

$$$$
=
 OpenBabel10272414463D

 37 44  0  0  1  0  0  0  0  0999 V2000
  190.4200  173.7070  136.9640 C   0  0  0  0  0  2  0  0  0  0  0  0
  186.9980  177.0200  138.2750 C   0  0  0  0  0  0  0  0  0  0  0  0
  191.2970  174.1150  135.7950 C   0  0  1  0  0  3  0  0  0  0  0  0
  190.0640  178.0310  138.8970 C   0  0  0  0  0  2  0  0  0  0  0  0
  186.3700  175.2630  136.6930 C   0  0  0  0  0  2  0  0  0  0  0  0
  188.2010  176.2160  138.6390 C   0  0  2  0  0  3  0  0  0  0  0  0
  192.6310  172.1530  135.6950 C   0  0  0  0  0  1  0  0  0  0  0  0
  186.1810  176.5810  137.3630 C   0  0  0  0  0  0  0  0  0  0  0  0
  189.1920  176.9570  139.5650 C   0  0  2  0  0  3  0  0  0  0  0  0
  185.1690  177.5330  137.0960 N   0  0  0  0  0  0  0  0  0  0  0  0
  192.5040  174.3010  136.6240 C   0  0  1  0  0  3  0  0  0  0  0  0
  187.8690  174.8500  136.6060 C   0  0  2  0  0  3  0  0  0  0  0  0
  186.1420  178.4800  140.3950 S   0  0  0  0  0  0  0  0  0  0  0  0
  192.6000  173.5690  135.3680 N   0  0  0  0  0  0  0  0  0  0  0  0
  185.3820  178.5620  137.8140 N   0  0  0  0  0  0  0  0  0  0  0  0
  192.4160  175.8040  136.7250 C   0  0  1  0  0  3  0  0  0  0  0  0
  190.8240  177.5310  137.6630 C   0  0  0  0  0  2  0  0  0  0  0  0
  186.5820  178.4030  138.6360 C   0  0  2  0  0  3  0  0  0  0  0  0
  188.8140  175.7000  137.3920 N   0  0  2  0  0  0  0  0  0  0  0  0
  188.6020  177.3560  140.9250 C   0  0  2  0  0  3  0  0  0  0  0  0
  191.3000  176.0750  137.7760 C   0  0  1  0  0  3  0  0  0  0  0  0
  190.0950  175.0320  137.7360 C   0  0  2  0  0  3  0  0  0  0  0  0
  187.8720  178.6970  140.9100 C   0  0  0  0  0  2  0  0  0  0  0  0
  190.1100  176.0620  142.4370 C   0  0  0  0  0  3  0  0  0  0  0  0
  189.6380  177.3070  142.0050 C   0  0  0  0  0  0  0  0  0  0  0  0
  190.1600  178.4800  142.5730 C   0  0  0  0  0  3  0  0  0  0  0  0
  191.6390  179.5370  144.1130 F   0  0  0  0  0  0  0  0  0  0  0  0
  191.6030  177.1570  143.9970 C   0  0  0  0  0  3  0  0  0  0  0  0
  191.1390  178.4040  143.5680 C   0  0  0  0  0  0  0  0  0  0  0  0
  191.0900  175.9860  143.4320 C   0  0  0  0  0  3  0  0  0  0  0  0
  193.7380  176.3710  137.2130 C   0  0  0  0  0  2  0  0  0  0  0  0
  194.1050  175.7600  138.4130 O   0  0  0  0  0  1  0  0  0  0  0  0
  188.2660  174.8880  135.1330 C   0  0  0  0  0  2  0  0  0  0  0  0
  188.1740  172.6080  134.5470 C   0  0  0  0  0  0  0  0  0  0  0  0
  187.5380  173.8120  134.3480 C   0  0  1  0  0  3  0  0  0  0  0  0
  186.8790  172.9730  135.2050 O   0  0  0  0  0  0  0  0  0  0  0  0
  189.1230  171.8070  134.3470 O   0  0  0  0  0  0  0  0  0  0  0  0
  1 22  1  0  0  0  0
  2 18  1  0  0  0  0
  3 11  1  0  0  0  0
  3  1  1  1  0  0  0
  5  8  1  0  0  0  0
  6  2  1  6  0  0  0
  6  9  1  0  0  0  0
  8  2  2  0  0  0  0
  9  4  1  6  0  0  0
  9 20  1  0  0  0  0
 10  8  1  0  0  0  0
 10 15  2  0  0  0  0
 11 14  1  6  0  0  0
 11 16  1  0  0  0  0
 12 33  1  6  0  0  0
 12  5  1  0  0  0  0
 12 19  1  0  0  0  0
 13 23  1  0  0  0  0
 14  7  1  0  0  0  0
 14  3  1  0  0  0  0
 16 31  1  1  0  0  0
 16 21  1  0  0  0  0
 17 21  1  0  0  0  0
 17  4  1  0  0  0  0
 18 15  1  6  0  0  0
 18 13  1  0  0  0  0
 19 22  1  0  0  0  0
 19  6  1  0  0  0  0
 20 25  1  0  0  0  0
 22 21  1  0  0  0  0
 23 20  1  0  0  0  0
 24 30  1  0  0  0  0
 25 24  2  0  0  0  0
 25 26  1  0  0  0  0
 26 29  2  0  0  0  0
 29 28  1  0  0  0  0
 29 27  1  0  0  0  0
 30 28  2  0  0  0  0
 31 32  1  0  0  0  0
 34 36  1  0  0  0  0
 35 34  1  0  0  0  0
 35 33  1  0  0  0  0
 35 36  1  0  0  0  0
 37 34  2  0  0  0  0
M  END
>  <MODEL>
7

>  <REMARK>
 VINA RESULT:      -5.4      4.627      6.812
  Name = 
  4 active torsions:
  status: ('A' for Active; 'I' for Inactive)
    1  A    between atoms: C_6  and  C_31
    2  A    between atoms: C_11  and  C_26
    3  A    between atoms: C_20  and  C_25
    4  A    between atoms: C_21  and  C_25
                            x       y       z     vdW  Elec       q    Type
                         _______ _______ _______ _____ _____    ______ ____

>  <TORSDO>
F 4

$$$$
=
 OpenBabel10272414463D

 37 44  0  0  1  0  0  0  0  0999 V2000
  182.4660  178.0380  142.3430 C   0  0  0  0  0  2  0  0  0  0  0  0
  186.4610  178.0700  139.4370 C   0  0  0  0  0  0  0  0  0  0  0  0
  181.8840  179.4050  142.6520 C   0  0  1  0  0  3  0  0  0  0  0  0
  183.7280  178.9980  137.8650 C   0  0  0  0  0  2  0  0  0  0  0  0
  186.7860  178.0860  141.8620 C   0  0  0  0  0  2  0  0  0  0  0  0
  185.0520  177.6390  139.6630 C   0  0  2  0  0  3  0  0  0  0  0  0
  180.0950  178.6850  144.0380 C   0  0  0  0  0  1  0  0  0  0  0  0
  187.2380  178.2960  140.4570 C   0  0  0  0  0  0  0  0  0  0  0  0
  184.1890  177.6260  138.3810 C   0  0  2  0  0  3  0  0  0  0  0  0
  188.4930  178.7900  140.0320 N   0  0  0  0  0  0  0  0  0  0  0  0
  180.6770  179.1980  141.8260 C   0  0  1  0  0  3  0  0  0  0  0  0
  185.2540  178.3070  142.0340 C   0  0  2  0  0  3  0  0  0  0  0  0
  187.4070  177.0750  137.0970 S   0  0  0  0  0  0  0  0  0  0  0  0
  180.5460  179.7570  143.1650 N   0  0  0  0  0  0  0  0  0  0  0  0
  188.4770  178.8990  138.7640 N   0  0  0  0  0  0  0  0  0  0  0  0
  181.1530  179.9790  140.6260 C   0  0  1  0  0  3  0  0  0  0  0  0
  183.0210  179.8520  138.9250 C   0  0  0  0  0  2  0  0  0  0  0  0
  187.1850  178.4940  138.2080 C   0  0  2  0  0  3  0  0  0  0  0  0
  184.4820  178.4540  140.7620 N   0  0  2  0  0  0  0  0  0  0  0  0
  184.6900  176.6620  137.2950 C   0  0  2  0  0  3  0  0  0  0  0  0
  182.1620  179.0370  139.9030 C   0  0  1  0  0  3  0  0  0  0  0  0
  183.0370  178.1370  140.8860 C   0  0  2  0  0  3  0  0  0  0  0  0
  185.7490  177.2670  136.3770 C   0  0  0  0  0  2  0  0  0  0  0  0
  183.2240  176.6390  135.2740 C   0  0  0  0  0  3  0  0  0  0  0  0
  183.5530  176.0800  136.5150 C   0  0  0  0  0  0  0  0  0  0  0  0
  182.8300  174.9750  136.9880 C   0  0  0  0  0  3  0  0  0  0  0  0
  181.0890  173.3750  136.6910 F   0  0  0  0  0  0  0  0  0  0  0  0
  181.4590  175.0060  134.9930 C   0  0  0  0  0  3  0  0  0  0  0  0
  181.7840  174.4400  136.2290 C   0  0  0  0  0  0  0  0  0  0  0  0
  182.1780  176.1050  134.5150 C   0  0  0  0  0  3  0  0  0  0  0  0
  179.9820  180.2870  139.7080 C   0  0  0  0  0  2  0  0  0  0  0  0
  179.9830  181.6410  139.3720 O   0  0  0  0  0  1  0  0  0  0  0  0
  185.0690  179.5630  142.8810 C   0  0  0  0  0  2  0  0  0  0  0  0
  184.5500  178.9390  145.0930 C   0  0  0  0  0  0  0  0  0  0  0  0
  185.5910  179.3470  144.2900 C   0  0  1  0  0  3  0  0  0  0  0  0
  185.6080  178.0100  144.5820 O   0  0  0  0  0  0  0  0  0  0  0  0
  183.5000  179.1620  145.7480 O   0  0  0  0  0  0  0  0  0  0  0  0
  2  8  2  0  0  0  0
  3  1  1  1  0  0  0
  3 14  1  0  0  0  0
  4 17  1  0  0  0  0
  5 12  1  0  0  0  0
  6  2  1  6  0  0  0
  6 19  1  0  0  0  0
  8  5  1  0  0  0  0
  9  4  1  6  0  0  0
  9  6  1  0  0  0  0
 10  8  1  0  0  0  0
 11  3  1  0  0  0  0
 11 14  1  1  0  0  0
 12 33  1  1  0  0  0
 14  7  1  0  0  0  0
 15 10  2  0  0  0  0
 16 31  1  6  0  0  0
 16 11  1  0  0  0  0
 17 21  1  0  0  0  0
 18 13  1  6  0  0  0
 18 15  1  0  0  0  0
 18  2  1  0  0  0  0
 19 22  1  0  0  0  0
 19 12  1  0  0  0  0
 20  9  1  0  0  0  0
 21 16  1  0  0  0  0
 21 22  1  0  0  0  0
 22  1  1  0  0  0  0
 23 13  1  0  0  0  0
 23 20  1  0  0  0  0
 24 25  1  0  0  0  0
 25 26  2  0  0  0  0
 25 20  1  0  0  0  0
 28 29  2  0  0  0  0
 29 27  1  0  0  0  0
 29 26  1  0  0  0  0
 30 28  1  0  0  0  0
 30 24  2  0  0  0  0
 32 31  1  0  0  0  0
 33 35  1  0  0  0  0
 34 37  2  0  0  0  0
 35 36  1  0  0  0  0
 35 34  1  0  0  0  0
 36 34  1  0  0  0  0
M  END
>  <MODEL>
8

>  <REMARK>
 VINA RESULT:      -4.8      3.779      7.634
  Name = 
  4 active torsions:
  status: ('A' for Active; 'I' for Inactive)
    1  A    between atoms: C_6  and  C_31
    2  A    between atoms: C_11  and  C_26
    3  A    between atoms: C_20  and  C_25
    4  A    between atoms: C_21  and  C_25
                            x       y       z     vdW  Elec       q    Type
                         _______ _______ _______ _____ _____    ______ ____

>  <TORSDO>
F 4

$$$$
=
 OpenBabel10272414463D

 37 44  0  0  1  0  0  0  0  0999 V2000
  187.8140  177.1020  142.4010 C   0  0  0  0  0  2  0  0  0  0  0  0
  191.7600  176.6530  139.4620 C   0  0  0  0  0  0  0  0  0  0  0  0
  187.2950  178.5170  142.5700 C   0  0  1  0  0  3  0  0  0  0  0  0
  189.0420  177.5270  137.8320 C   0  0  0  0  0  2  0  0  0  0  0  0
  192.1240  176.9110  141.8670 C   0  0  0  0  0  2  0  0  0  0  0  0
  190.3370  176.3100  139.7480 C   0  0  2  0  0  3  0  0  0  0  0  0
  185.5000  178.0260  144.0460 C   0  0  0  0  0  1  0  0  0  0  0  0
  192.5610  176.9510  140.4420 C   0  0  0  0  0  0  0  0  0  0  0  0
  189.4530  176.1990  138.4850 C   0  0  2  0  0  3  0  0  0  0  0  0
  193.8290  177.3430  139.9530 N   0  0  0  0  0  0  0  0  0  0  0  0
  186.0670  178.2770  141.7850 C   0  0  1  0  0  3  0  0  0  0  0  0
  190.6060  177.2150  142.0320 C   0  0  2  0  0  3  0  0  0  0  0  0
  192.6250  175.3770  137.2300 S   0  0  0  0  0  0  0  0  0  0  0  0
  185.9810  178.9790  143.0590 N   0  0  0  0  0  0  0  0  0  0  0  0
  193.7960  177.3190  138.6810 N   0  0  0  0  0  0  0  0  0  0  0  0
  186.5560  178.9050  140.5030 C   0  0  1  0  0  3  0  0  0  0  0  0
  188.3890  178.5180  138.8030 C   0  0  0  0  0  2  0  0  0  0  0  0
  192.4810  176.9140  138.1860 C   0  0  2  0  0  3  0  0  0  0  0  0
  189.8200  177.2600  140.7620 N   0  0  2  0  0  0  0  0  0  0  0  0
  189.8960  175.1050  137.5020 C   0  0  2  0  0  3  0  0  0  0  0  0
  187.5120  177.8500  139.8730 C   0  0  1  0  0  3  0  0  0  0  0  0
  188.3650  177.0220  140.9350 C   0  0  2  0  0  3  0  0  0  0  0  0
  190.9650  175.5630  136.5130 C   0  0  0  0  0  2  0  0  0  0  0  0
  187.8730  175.3180  136.0540 C   0  0  0  0  0  3  0  0  0  0  0  0
  188.7230  174.4940  136.8010 C   0  0  0  0  0  0  0  0  0  0  0  0
  188.4750  173.1140  136.8570 C   0  0  0  0  0  3  0  0  0  0  0  0
  187.1450  171.2360  136.2360 F   0  0  0  0  0  0  0  0  0  0  0  0
  186.5350  173.3970  135.4370 C   0  0  0  0  0  3  0  0  0  0  0  0
  187.3820  172.5680  136.1770 C   0  0  0  0  0  0  0  0  0  0  0  0
  186.7800  174.7720  135.3740 C   0  0  0  0  0  3  0  0  0  0  0  0
  185.3840  179.1650  139.5710 C   0  0  0  0  0  2  0  0  0  0  0  0
  184.2540  179.5130  140.3120 O   0  0  0  0  0  1  0  0  0  0  0  0
  190.4870  178.5600  142.7430 C   0  0  0  0  0  2  0  0  0  0  0  0
  190.0110  178.0510  144.9940 C   0  0  0  0  0  0  0  0  0  0  0  0
  191.0230  178.4730  144.1610 C   0  0  1  0  0  3  0  0  0  0  0  0
  191.1280  177.1620  144.5400 O   0  0  0  0  0  0  0  0  0  0  0  0
  188.9490  178.2480  145.6390 O   0  0  0  0  0  0  0  0  0  0  0  0
  2  8  2  0  0  0  0
  3  1  1  1  0  0  0
  3 14  1  0  0  0  0
  4 17  1  0  0  0  0
  5 12  1  0  0  0  0
  6  2  1  6  0  0  0
  6 19  1  0  0  0  0
  8  5  1  0  0  0  0
  9  4  1  6  0  0  0
  9  6  1  0  0  0  0
 10  8  1  0  0  0  0
 11  3  1  0  0  0  0
 11 14  1  1  0  0  0
 12 33  1  6  0  0  0
 14  7  1  0  0  0  0
 15 10  2  0  0  0  0
 16 31  1  6  0  0  0
 16 11  1  0  0  0  0
 17 21  1  0  0  0  0
 18 13  1  6  0  0  0
 18 15  1  0  0  0  0
 18  2  1  0  0  0  0
 19 22  1  0  0  0  0
 19 12  1  0  0  0  0
 20  9  1  0  0  0  0
 21 16  1  0  0  0  0
 21 22  1  0  0  0  0
 22  1  1  0  0  0  0
 23 13  1  0  0  0  0
 23 20  1  0  0  0  0
 24 25  1  0  0  0  0
 25 26  2  0  0  0  0
 25 20  1  0  0  0  0
 28 29  2  0  0  0  0
 29 27  1  0  0  0  0
 29 26  1  0  0  0  0
 30 28  1  0  0  0  0
 30 24  2  0  0  0  0
 31 32  1  0  0  0  0
 33 35  1  0  0  0  0
 34 37  2  0  0  0  0
 35 36  1  0  0  0  0
 35 34  1  0  0  0  0
 36 34  1  0  0  0  0
M  END
>  <MODEL>
9

>  <REMARK>
 VINA RESULT:      -4.8      5.266      9.260
  Name = 
  4 active torsions:
  status: ('A' for Active; 'I' for Inactive)
    1  A    between atoms: C_6  and  C_31
    2  A    between atoms: C_11  and  C_26
    3  A    between atoms: C_20  and  C_25
    4  A    between atoms: C_21  and  C_25
                            x       y       z     vdW  Elec       q    Type
                         _______ _______ _______ _____ _____    ______ ____

>  <TORSDO>
F 4

$$$$
