=
 OpenBabel10272414013D

 30 32  0  0  1  0  0  0  0  0999 V2000
  186.4400  178.1820  137.5710 C   0  0  0  0  0  0  0  0  0  0  0  0
  188.6900  177.0130  136.4480 S   0  0  0  0  0  0  0  0  0  0  0  0
  186.3360  173.2580  136.8450 N   0  0  0  0  0  0  0  0  0  0  0  0
  184.6820  175.6390  135.1970 C   0  0  0  0  0  1  0  0  0  0  0  0
  185.7020  177.9840  138.7840 N   0  0  0  0  0  2  0  0  0  0  0  0
  182.7020  178.8590  138.7440 C   0  0  2  0  0  3  0  0  0  0  0  0
  183.9540  179.7310  138.8300 C   0  0  0  0  0  2  0  0  0  0  0  0
  184.7470  178.5970  140.9430 C   0  0  0  0  0  1  0  0  0  0  0  0
  182.5910  174.2580  137.2810 C   0  0  1  0  0  3  0  0  0  0  0  0
  184.9100  173.1500  136.9490 C   0  0  0  0  0  0  0  0  0  0  0  0
  185.1370  179.0810  139.5570 C   0  0  1  0  0  3  0  0  0  0  0  0
  182.8300  177.8500  137.6050 C   0  0  0  0  0  2  0  0  0  0  0  0
  189.1180  175.6220  137.5320 C   0  0  0  0  0  2  0  0  0  0  0  0
  182.6330  175.7630  139.7300 O   0  0  0  0  0  1  0  0  0  0  0  0
  181.5110  179.7680  138.5080 C   0  0  0  0  0  1  0  0  0  0  0  0
  186.7000  179.3480  137.1710 O   0  0  0  0  0  0  0  0  0  0  0  0
  186.9680  174.3980  136.9430 C   0  0  0  0  0  0  0  0  0  0  0  0
  188.4300  174.4010  137.0430 C   0  0  0  0  0  0  0  0  0  0  0  0
  181.6050  177.0750  137.4460 N   0  0  0  0  0  2  0  0  0  0  0  0
  186.8740  177.0050  136.7460 C   0  0  1  0  0  3  0  0  0  0  0  0
  184.7540  175.6240  136.7240 C   0  0  1  0  0  3  0  0  0  0  0  0
  184.3500  172.0330  136.7950 O   0  0  0  0  0  0  0  0  0  0  0  0
  184.1210  174.3730  137.3240 C   0  0  1  0  0  3  0  0  0  0  0  0
  180.3790  175.0480  138.6470 O   0  0  0  0  0  0  0  0  0  0  0  0
  189.1000  173.3730  136.7560 O   0  0  0  0  0  0  0  0  0  0  0  0
  186.2080  175.6910  137.2090 C   0  0  1  0  0  3  0  0  0  0  0  0
  181.7630  175.5420  138.2950 P   0  0  1  0  0  0  0  0  0  0  0  0
  181.8800  174.0440  135.6230 S   0  0  1  0  0  0  0  0  0  0  0  0
  181.0190  172.4660  135.7040 C   0  0  0  0  0  1  0  0  0  0  0  0
  180.7520  175.0620  135.5240 O   0  0  0  0  0  0  0  0  0  0  0  0
  1  5  1  0  0  0  0
  2 13  1  0  0  0  0
  3 17  2  0  0  0  0
  3 10  1  0  0  0  0
  5 11  1  0  0  0  0
  6 15  1  6  0  0  0
  6  7  1  0  0  0  0
  7 11  1  0  0  0  0
  9 28  1  6  0  0  0
  9 23  1  0  0  0  0
  9 27  1  0  0  0  0
 11  8  1  1  0  0  0
 12  6  1  0  0  0  0
 16  1  2  0  0  0  0
 17 18  1  0  0  0  0
 18 13  1  0  0  0  0
 19 12  1  0  0  0  0
 19 27  1  0  0  0  0
 20  2  1  1  0  0  0
 20 26  1  0  0  0  0
 20  1  1  0  0  0  0
 21  4  1  6  0  0  0
 21 26  1  0  0  0  0
 21 23  1  0  0  0  0
 22 10  2  0  0  0  0
 23 10  1  6  0  0  0
 25 18  2  0  0  0  0
 26 17  1  6  0  0  0
 27 24  2  1  0  0  0
 27 14  1  0  0  0  0
 28 29  1  1  0  0  0
 30 28  2  0  0  0  0
M  END
>  <MODEL>
1

>  <REMARK>
 VINA RESULT:      -5.2      0.000      0.000
  Name = 
  1 active torsions:
  status: ('A' for Active; 'I' for Inactive)
    1  A    between atoms: S_7  and  C_10
                            x       y       z     vdW  Elec       q    Type
                         _______ _______ _______ _____ _____    ______ ____

>  <TORSDO>
F 1

$$$$
=
 OpenBabel10272414013D

 30 32  0  0  1  0  0  0  0  0999 V2000
  185.4010  178.2300  138.4650 C   0  0  0  0  0  0  0  0  0  0  0  0
  183.1980  179.5380  139.5260 S   0  0  0  0  0  0  0  0  0  0  0  0
  180.9150  176.8860  136.7790 N   0  0  0  0  0  0  0  0  0  0  0  0
  182.9810  175.1910  138.7720 C   0  0  0  0  0  1  0  0  0  0  0  0
  185.9190  178.0400  137.1410 N   0  0  0  0  0  2  0  0  0  0  0  0
  187.7210  175.5250  136.7020 C   0  0  2  0  0  3  0  0  0  0  0  0
  188.0650  176.8420  137.3960 C   0  0  0  0  0  2  0  0  0  0  0  0
  187.5480  178.2060  135.3350 C   0  0  0  0  0  1  0  0  0  0  0  0
  183.2580  173.9310  135.7790 C   0  0  1  0  0  3  0  0  0  0  0  0
  181.3620  175.6400  136.2250 C   0  0  0  0  0  0  0  0  0  0  0  0
  187.3410  178.0710  136.8330 C   0  0  1  0  0  3  0  0  0  0  0  0
  186.4000  174.9710  137.2300 C   0  0  0  0  0  2  0  0  0  0  0  0
  182.2230  180.1000  138.1020 C   0  0  0  0  0  2  0  0  0  0  0  0
  185.4100  175.2760  134.4310 O   0  0  0  0  0  1  0  0  0  0  0  0
  188.8470  174.5440  136.9700 C   0  0  0  0  0  1  0  0  0  0  0  0
  186.1790  178.5210  139.4130 O   0  0  0  0  0  0  0  0  0  0  0  0
  181.7150  177.7080  137.4040 C   0  0  0  0  0  0  0  0  0  0  0  0
  181.2360  179.0490  137.7490 C   0  0  0  0  0  0  0  0  0  0  0  0
  186.1040  173.6670  136.6490 N   0  0  0  0  0  2  0  0  0  0  0  0
  183.9370  178.0460  138.7420 C   0  0  1  0  0  3  0  0  0  0  0  0
  183.4810  175.8860  137.5060 C   0  0  1  0  0  3  0  0  0  0  0  0
  180.5370  174.8630  135.6760 O   0  0  0  0  0  0  0  0  0  0  0  0
  182.8320  175.3310  136.2430 C   0  0  1  0  0  3  0  0  0  0  0  0
  185.2050  172.6850  134.3510 O   0  0  0  0  0  0  0  0  0  0  0  0
  180.0070  179.3280  137.7120 O   0  0  0  0  0  0  0  0  0  0  0  0
  183.1970  177.3920  137.5550 C   0  0  1  0  0  3  0  0  0  0  0  0
  185.0200  173.8640  135.2770 P   0  0  1  0  0  0  0  0  0  0  0  0
  182.7380  172.5690  136.8640 S   0  0  1  0  0  0  0  0  0  0  0  0
  181.6200  171.5890  135.8490 C   0  0  0  0  0  1  0  0  0  0  0  0
  183.9600  171.6730  137.0130 O   0  0  0  0  0  0  0  0  0  0  0  0
  1 16  2  0  0  0  0
  3 17  2  0  0  0  0
  5  1  1  0  0  0  0
  6 15  1  1  0  0  0
  6 12  1  0  0  0  0
  6  7  1  0  0  0  0
  9 23  1  0  0  0  0
  9 28  1  1  0  0  0
 10  3  1  0  0  0  0
 11  8  1  6  0  0  0
 11  5  1  0  0  0  0
 11  7  1  0  0  0  0
 13  2  1  0  0  0  0
 14 27  1  0  0  0  0
 17 18  1  0  0  0  0
 18 13  1  0  0  0  0
 19 12  1  0  0  0  0
 20  1  1  6  0  0  0
 20  2  1  0  0  0  0
 21 26  1  0  0  0  0
 21  4  1  1  0  0  0
 22 10  2  0  0  0  0
 23 10  1  1  0  0  0
 23 21  1  0  0  0  0
 25 18  2  0  0  0  0
 26 17  1  1  0  0  0
 26 20  1  0  0  0  0
 27 24  2  6  0  0  0
 27  9  1  0  0  0  0
 27 19  1  0  0  0  0
 28 29  1  6  0  0  0
 28 30  2  0  0  0  0
M  END
>  <MODEL>
2

>  <REMARK>
 VINA RESULT:      -4.6      2.391      5.433
  Name = 
  1 active torsions:
  status: ('A' for Active; 'I' for Inactive)
    1  A    between atoms: S_7  and  C_10
                            x       y       z     vdW  Elec       q    Type
                         _______ _______ _______ _____ _____    ______ ____

>  <TORSDO>
F 1

$$$$
=
 OpenBabel10272414013D

 30 32  0  0  1  0  0  0  0  0999 V2000
  181.1780  174.5290  137.5620 C   0  0  0  0  0  0  0  0  0  0  0  0
  180.7360  171.8080  137.2570 S   0  0  0  0  0  0  0  0  0  0  0  0
  184.4560  171.9740  134.8230 N   0  0  0  0  0  0  0  0  0  0  0  0
  184.8570  173.2780  137.8650 C   0  0  0  0  0  1  0  0  0  0  0  0
  181.3340  175.6320  136.6600 N   0  0  0  0  0  2  0  0  0  0  0  0
  182.9360  178.0910  137.7320 C   0  0  2  0  0  3  0  0  0  0  0  0
  181.5070  177.6610  138.0590 C   0  0  0  0  0  2  0  0  0  0  0  0
  180.7870  177.7790  135.6410 C   0  0  0  0  0  1  0  0  0  0  0  0
  186.3190  175.2760  135.7450 C   0  0  1  0  0  3  0  0  0  0  0  0
  185.4800  172.9770  134.8930 C   0  0  0  0  0  0  0  0  0  0  0  0
  180.7740  176.9510  136.9140 C   0  0  1  0  0  3  0  0  0  0  0  0
  183.8950  176.9100  137.8690 C   0  0  0  0  0  2  0  0  0  0  0  0
  180.8320  171.4890  135.4730 C   0  0  0  0  0  2  0  0  0  0  0  0
  184.4290  177.2940  134.9580 O   0  0  0  0  0  0  0  0  0  0  0  0
  183.3260  179.1980  138.6930 C   0  0  0  0  0  1  0  0  0  0  0  0
  180.4620  174.6500  138.5920 O   0  0  0  0  0  0  0  0  0  0  0  0
  183.2990  172.1050  135.4150 C   0  0  0  0  0  0  0  0  0  0  0  0
  182.2320  171.1440  135.1200 C   0  0  0  0  0  0  0  0  0  0  0  0
  185.2760  177.3240  137.6550 N   0  0  0  0  0  2  0  0  0  0  0  0
  181.8980  173.2350  137.3130 C   0  0  1  0  0  3  0  0  0  0  0  0
  184.2120  174.0750  136.7310 C   0  0  1  0  0  3  0  0  0  0  0  0
  186.5960  172.7770  134.3460 O   0  0  0  0  0  0  0  0  0  0  0  0
  185.1610  174.2870  135.5560 C   0  0  1  0  0  3  0  0  0  0  0  0
  186.8630  177.9340  135.6150 O   0  0  0  0  0  1  0  0  0  0  0  0
  182.4850  170.0540  134.5410 O   0  0  0  0  0  0  0  0  0  0  0  0
  182.9610  173.3640  136.2000 C   0  0  1  0  0  3  0  0  0  0  0  0
  185.7380  176.9970  135.9890 P   0  0  1  0  0  0  0  0  0  0  0  0
  187.6010  174.7470  136.9200 S   0  0  1  0  0  0  0  0  0  0  0  0
  189.0580  174.4710  135.9000 C   0  0  0  0  0  1  0  0  0  0  0  0
  187.9580  175.9880  137.7250 O   0  0  0  0  0  0  0  0  0  0  0  0
  1 16  2  0  0  0  0
  3 10  1  0  0  0  0
  3 17  2  0  0  0  0
  5 11  1  0  0  0  0
  5  1  1  0  0  0  0
  6 12  1  0  0  0  0
  6  7  1  0  0  0  0
  6 15  1  1  0  0  0
  9 27  1  0  0  0  0
  9 28  1  1  0  0  0
 11  8  1  6  0  0  0
 11  7  1  0  0  0  0
 13  2  1  0  0  0  0
 18 17  1  0  0  0  0
 18 13  1  0  0  0  0
 19 12  1  0  0  0  0
 20  2  1  6  0  0  0
 20  1  1  0  0  0  0
 21  4  1  1  0  0  0
 22 10  2  0  0  0  0
 23 10  1  1  0  0  0
 23  9  1  0  0  0  0
 23 21  1  0  0  0  0
 24 27  1  0  0  0  0
 25 18  2  0  0  0  0
 26 17  1  1  0  0  0
 26 21  1  0  0  0  0
 26 20  1  0  0  0  0
 27 14  2  6  0  0  0
 27 19  1  0  0  0  0
 28 29  1  6  0  0  0
 28 30  2  0  0  0  0
M  END
>  <MODEL>
3

>  <REMARK>
 VINA RESULT:      -4.4      2.243      5.614
  Name = 
  1 active torsions:
  status: ('A' for Active; 'I' for Inactive)
    1  A    between atoms: S_7  and  C_10
                            x       y       z     vdW  Elec       q    Type
                         _______ _______ _______ _____ _____    ______ ____

>  <TORSDO>
F 1

$$$$
=
 OpenBabel10272414013D

 30 32  0  0  1  0  0  0  0  0999 V2000
  185.3610  178.4940  139.3290 C   0  0  0  0  0  0  0  0  0  0  0  0
  186.7030  179.4180  141.5730 S   0  0  0  0  0  0  0  0  0  0  0  0
  189.9060  176.6560  140.1900 N   0  0  0  0  0  0  0  0  0  0  0  0
  188.9400  178.7890  137.8160 C   0  0  0  0  0  1  0  0  0  0  0  0
  184.9640  177.2010  138.8540 N   0  0  0  0  0  2  0  0  0  0  0  0
  184.5610  176.9180  135.7680 C   0  0  2  0  0  3  0  0  0  0  0  0
  183.6500  177.5860  136.7960 C   0  0  0  0  0  2  0  0  0  0  0  0
  183.4090  175.4630  138.1420 C   0  0  0  0  0  1  0  0  0  0  0  0
  189.2230  175.8510  136.4350 C   0  0  1  0  0  3  0  0  0  0  0  0
  190.0900  176.1610  138.8560 C   0  0  0  0  0  0  0  0  0  0  0  0
  183.6910  176.9540  138.1930 C   0  0  1  0  0  3  0  0  0  0  0  0
  186.0000  177.4040  135.9310 C   0  0  0  0  0  2  0  0  0  0  0  0
  187.2600  177.9360  142.4610 C   0  0  0  0  0  2  0  0  0  0  0  0
  186.6590  174.5570  136.5350 O   0  0  0  0  0  1  0  0  0  0  0  0
  184.0440  177.2650  134.3850 C   0  0  0  0  0  1  0  0  0  0  0  0
  184.5610  179.4660  139.2620 O   0  0  0  0  0  0  0  0  0  0  0  0
  188.8260  177.2910  140.5640 C   0  0  0  0  0  0  0  0  0  0  0  0
  188.6190  177.5730  141.9870 C   0  0  0  0  0  0  0  0  0  0  0  0
  186.8650  176.8520  134.8960 N   0  0  0  0  0  2  0  0  0  0  0  0
  186.7430  178.7140  139.8730 C   0  0  1  0  0  3  0  0  0  0  0  0
  188.1400  177.5250  138.1300 C   0  0  1  0  0  3  0  0  0  0  0  0
  191.1720  175.6010  138.5370 O   0  0  0  0  0  0  0  0  0  0  0  0
  188.9450  176.2520  137.8890 C   0  0  1  0  0  3  0  0  0  0  0  0
  188.0680  174.5480  134.3490 O   0  0  0  0  0  0  0  0  0  0  0  0
  189.5670  177.4750  142.8120 O   0  0  0  0  0  0  0  0  0  0  0  0
  187.6760  177.5150  139.5920 C   0  0  1  0  0  3  0  0  0  0  0  0
  187.6930  175.4290  135.5180 P   0  0  1  0  0  0  0  0  0  0  0  0
  190.3530  176.9530  135.5340 S   0  0  1  0  0  0  0  0  0  0  0  0
  191.4410  175.8390  134.6310 C   0  0  0  0  0  1  0  0  0  0  0  0
  189.5140  177.5970  134.4390 O   0  0  0  0  0  0  0  0  0  0  0  0
  2 13  1  0  0  0  0
  3 17  2  0  0  0  0
  5  1  1  0  0  0  0
  6 15  1  6  0  0  0
  6 12  1  0  0  0  0
  6  7  1  0  0  0  0
  7 11  1  0  0  0  0
  9 28  1  6  0  0  0
  9 23  1  0  0  0  0
 10  3  1  0  0  0  0
 11  8  1  6  0  0  0
 11  5  1  0  0  0  0
 16  1  2  0  0  0  0
 17 18  1  0  0  0  0
 18 13  1  0  0  0  0
 18 25  2  0  0  0  0
 19 27  1  0  0  0  0
 19 12  1  0  0  0  0
 20  1  1  1  0  0  0
 20  2  1  0  0  0  0
 21  4  1  1  0  0  0
 21 26  1  0  0  0  0
 22 10  2  0  0  0  0
 23 21  1  0  0  0  0
 23 10  1  1  0  0  0
 26 20  1  0  0  0  0
 26 17  1  1  0  0  0
 27 24  2  6  0  0  0
 27  9  1  0  0  0  0
 27 14  1  0  0  0  0
 28 29  1  6  0  0  0
 30 28  2  0  0  0  0
M  END
>  <MODEL>
4

>  <REMARK>
 VINA RESULT:      -4.4      3.481      5.912
  Name = 
  1 active torsions:
  status: ('A' for Active; 'I' for Inactive)
    1  A    between atoms: S_7  and  C_10
                            x       y       z     vdW  Elec       q    Type
                         _______ _______ _______ _____ _____    ______ ____

>  <TORSDO>
F 1

$$$$
=
 OpenBabel10272414013D

 30 32  0  0  1  0  0  0  0  0999 V2000
  189.8830  175.2920  134.9500 C   0  0  0  0  0  0  0  0  0  0  0  0
  192.3930  174.2240  134.4460 S   0  0  0  0  0  0  0  0  0  0  0  0
  193.6240  176.7670  137.8840 N   0  0  0  0  0  0  0  0  0  0  0  0
  191.0650  174.7620  138.6250 C   0  0  0  0  0  1  0  0  0  0  0  0
  189.3490  176.6210  135.0190 N   0  0  0  0  0  2  0  0  0  0  0  0
  186.7780  176.9970  136.7550 C   0  0  2  0  0  3  0  0  0  0  0  0
  186.9150  176.3780  135.3650 C   0  0  0  0  0  2  0  0  0  0  0  0
  187.9080  178.4850  134.3900 C   0  0  0  0  0  1  0  0  0  0  0  0
  190.3990  177.6980  139.8720 C   0  0  1  0  0  3  0  0  0  0  0  0
  192.7720  177.2750  138.9200 C   0  0  0  0  0  0  0  0  0  0  0  0
  188.0350  176.9760  134.5050 C   0  0  1  0  0  3  0  0  0  0  0  0
  187.8110  176.4010  137.7100 C   0  0  0  0  0  2  0  0  0  0  0  0
  193.5220  175.6420  134.3460 C   0  0  0  0  0  2  0  0  0  0  0  0
  188.8810  179.1780  137.9310 O   0  0  0  0  0  0  0  0  0  0  0  0
  185.3750  176.7180  137.2590 C   0  0  0  0  0  1  0  0  0  0  0  0
  189.2470  174.3840  134.3500 O   0  0  0  0  0  0  0  0  0  0  0  0
  193.1590  176.2070  136.7980 C   0  0  0  0  0  0  0  0  0  0  0  0
  194.0780  175.9120  135.6960 C   0  0  0  0  0  0  0  0  0  0  0  0
  187.6320  176.9080  139.0650 N   0  0  0  0  0  2  0  0  0  0  0  0
  191.1830  174.9590  135.6230 C   0  0  1  0  0  3  0  0  0  0  0  0
  190.8600  176.0750  137.8700 C   0  0  1  0  0  3  0  0  0  0  0  0
  193.2740  177.7580  139.9680 O   0  0  0  0  0  0  0  0  0  0  0  0
  191.2870  177.2890  138.6890 C   0  0  1  0  0  3  0  0  0  0  0  0
  188.1560  179.1270  140.4280 O   0  0  0  0  0  1  0  0  0  0  0  0
  195.3250  175.9220  135.8720 O   0  0  0  0  0  0  0  0  0  0  0  0
  191.6600  176.0890  136.5610 C   0  0  1  0  0  3  0  0  0  0  0  0
  188.7340  178.2530  139.3400 P   0  0  1  0  0  0  0  0  0  0  0  0
  190.3880  176.5340  141.2670 S   0  0  1  0  0  0  0  0  0  0  0  0
  191.5470  177.2390  142.4500 C   0  0  0  0  0  1  0  0  0  0  0  0
  189.0350  176.7130  141.9420 O   0  0  0  0  0  0  0  0  0  0  0  0
  1  5  1  0  0  0  0
  1 20  1  0  0  0  0
  3 10  1  0  0  0  0
  6 15  1  1  0  0  0
  6 12  1  0  0  0  0
  7  6  1  0  0  0  0
  9 28  1  1  0  0  0
 10 22  2  0  0  0  0
 11  8  1  1  0  0  0
 11  5  1  0  0  0  0
 11  7  1  0  0  0  0
 12 19  1  0  0  0  0
 13  2  1  0  0  0  0
 13 18  1  0  0  0  0
 16  1  2  0  0  0  0
 17  3  2  0  0  0  0
 18 25  2  0  0  0  0
 18 17  1  0  0  0  0
 19 27  1  0  0  0  0
 20  2  1  6  0  0  0
 20 26  1  0  0  0  0
 21  4  1  1  0  0  0
 21 23  1  0  0  0  0
 23 10  1  1  0  0  0
 23  9  1  0  0  0  0
 26 17  1  1  0  0  0
 26 21  1  0  0  0  0
 27 14  2  6  0  0  0
 27  9  1  0  0  0  0
 27 24  1  0  0  0  0
 28 30  2  0  0  0  0
 28 29  1  1  0  0  0
M  END
>  <MODEL>
5

>  <REMARK>
 VINA RESULT:      -4.0      4.789      7.452
  Name = 
  1 active torsions:
  status: ('A' for Active; 'I' for Inactive)
    1  A    between atoms: S_7  and  C_10
                            x       y       z     vdW  Elec       q    Type
                         _______ _______ _______ _____ _____    ______ ____

>  <TORSDO>
F 1

$$$$
=
 OpenBabel10272414013D

 30 32  0  0  1  0  0  0  0  0999 V2000
  181.1160  177.9440  139.1210 C   0  0  0  0  0  0  0  0  0  0  0  0
  181.0850  179.5340  141.3940 S   0  0  0  0  0  0  0  0  0  0  0  0
  185.4720  178.7910  141.3770 N   0  0  0  0  0  0  0  0  0  0  0  0
  184.3660  179.9940  138.4710 C   0  0  0  0  0  1  0  0  0  0  0  0
  181.5640  176.6140  138.8290 N   0  0  0  0  0  2  0  0  0  0  0  0
  182.3090  176.0210  135.8530 C   0  0  2  0  0  3  0  0  0  0  0  0
  180.9260  176.1610  136.4850 C   0  0  0  0  0  2  0  0  0  0  0  0
  181.3510  174.2890  138.1250 C   0  0  0  0  0  1  0  0  0  0  0  0
  186.4460  177.5770  137.7990 C   0  0  1  0  0  3  0  0  0  0  0  0
  186.2690  178.4040  140.2480 C   0  0  0  0  0  0  0  0  0  0  0  0
  180.8420  175.7080  137.9480 C   0  0  1  0  0  3  0  0  0  0  0  0
  183.2020  177.1940  136.2530 C   0  0  0  0  0  2  0  0  0  0  0  0
  181.9920  178.6030  142.6600 C   0  0  0  0  0  2  0  0  0  0  0  0
  184.9430  175.1400  137.5420 O   0  0  0  0  0  1  0  0  0  0  0  0
  182.1370  175.9830  134.3460 C   0  0  0  0  0  1  0  0  0  0  0  0
  180.0090  178.3500  138.6780 O   0  0  0  0  0  0  0  0  0  0  0  0
  184.1650  178.7850  141.3530 C   0  0  0  0  0  0  0  0  0  0  0  0
  183.4260  178.9820  142.6030 C   0  0  0  0  0  0  0  0  0  0  0  0
  184.4940  177.1280  135.5810 N   0  0  0  0  0  2  0  0  0  0  0  0
  181.9770  178.8770  139.9230 C   0  0  1  0  0  3  0  0  0  0  0  0
  184.2290  178.5140  138.8280 C   0  0  1  0  0  3  0  0  0  0  0  0
  187.5250  178.4780  140.3100 O   0  0  0  0  0  0  0  0  0  0  0  0
  185.5800  177.8400  139.0390 C   0  0  1  0  0  3  0  0  0  0  0  0
  186.7660  175.7690  135.7970 O   0  0  0  0  0  0  0  0  0  0  0  0
  184.0000  179.4310  143.6310 O   0  0  0  0  0  0  0  0  0  0  0  0
  183.4090  178.3310  140.1120 C   0  0  1  0  0  3  0  0  0  0  0  0
  185.6750  176.3760  136.6470 P   0  0  1  0  0  0  0  0  0  0  0  0
  187.1090  179.0640  136.9930 S   0  0  1  0  0  0  0  0  0  0  0  0
  188.8730  179.0190  137.3510 C   0  0  0  0  0  1  0  0  0  0  0  0
  187.0420  178.7870  135.4980 O   0  0  0  0  0  0  0  0  0  0  0  0
  2 13  1  0  0  0  0
  5  1  1  0  0  0  0
  6 15  1  6  0  0  0
  6 12  1  0  0  0  0
  6  7  1  0  0  0  0
  7 11  1  0  0  0  0
  9 28  1  6  0  0  0
  9 23  1  0  0  0  0
 10 22  2  0  0  0  0
 10  3  1  0  0  0  0
 11  8  1  6  0  0  0
 11  5  1  0  0  0  0
 16  1  2  0  0  0  0
 17  3  2  0  0  0  0
 17 18  1  0  0  0  0
 18 13  1  0  0  0  0
 18 25  2  0  0  0  0
 19 12  1  0  0  0  0
 19 27  1  0  0  0  0
 20  1  1  1  0  0  0
 20 26  1  0  0  0  0
 20  2  1  0  0  0  0
 21  4  1  1  0  0  0
 21 23  1  0  0  0  0
 21 26  1  0  0  0  0
 23 10  1  1  0  0  0
 26 17  1  1  0  0  0
 27 24  2  6  0  0  0
 27 14  1  0  0  0  0
 27  9  1  0  0  0  0
 28 29  1  1  0  0  0
 30 28  2  0  0  0  0
M  END
>  <MODEL>
6

>  <REMARK>
 VINA RESULT:      -3.5      3.038      6.490
  Name = 
  1 active torsions:
  status: ('A' for Active; 'I' for Inactive)
    1  A    between atoms: S_7  and  C_10
                            x       y       z     vdW  Elec       q    Type
                         _______ _______ _______ _____ _____    ______ ____

>  <TORSDO>
F 1

$$$$
=
 OpenBabel10272414013D

 30 32  0  0  1  0  0  0  0  0999 V2000
  185.2940  178.9830  140.1440 C   0  0  0  0  0  0  0  0  0  0  0  0
  184.8180  179.6130  142.8030 S   0  0  0  0  0  0  0  0  0  0  0  0
  188.2580  176.8930  143.5530 N   0  0  0  0  0  0  0  0  0  0  0  0
  188.9820  179.2990  141.3620 C   0  0  0  0  0  1  0  0  0  0  0  0
  185.3530  177.7630  139.3930 N   0  0  0  0  0  2  0  0  0  0  0  0
  187.0630  177.8230  136.7780 C   0  0  2  0  0  3  0  0  0  0  0  0
  185.6770  178.4120  137.0310 C   0  0  0  0  0  2  0  0  0  0  0  0
  184.7040  176.1700  137.6650 C   0  0  0  0  0  1  0  0  0  0  0  0
  190.2120  176.5140  140.1970 C   0  0  1  0  0  3  0  0  0  0  0  0
  189.2850  176.5340  142.6170 C   0  0  0  0  0  0  0  0  0  0  0  0
  184.8260  177.6360  138.0430 C   0  0  1  0  0  3  0  0  0  0  0  0
  188.0300  178.2340  137.8870 C   0  0  0  0  0  2  0  0  0  0  0  0
  184.7240  178.0260  143.6780 C   0  0  0  0  0  2  0  0  0  0  0  0
  188.2520  175.3160  138.4710 O   0  0  0  0  0  1  0  0  0  0  0  0
  187.5550  178.3330  135.4370 C   0  0  0  0  0  1  0  0  0  0  0  0
  184.6910  179.9860  139.6760 O   0  0  0  0  0  0  0  0  0  0  0  0
  187.1700  177.5250  143.2000 C   0  0  0  0  0  0  0  0  0  0  0  0
  186.0780  177.6630  144.1660 C   0  0  0  0  0  0  0  0  0  0  0  0
  189.3810  177.7620  137.6120 N   0  0  0  0  0  2  0  0  0  0  0  0
  185.9810  179.0910  141.4750 C   0  0  1  0  0  3  0  0  0  0  0  0
  188.2210  178.0410  140.9460 C   0  0  1  0  0  3  0  0  0  0  0  0
  190.3360  175.9710  143.0200 O   0  0  0  0  0  0  0  0  0  0  0  0
  189.0400  176.7710  141.1540 C   0  0  1  0  0  3  0  0  0  0  0  0
  190.7420  175.4840  137.7400 O   0  0  0  0  0  0  0  0  0  0  0  0
  186.2650  177.4420  145.3920 O   0  0  0  0  0  0  0  0  0  0  0  0
  186.9200  177.8940  141.7440 C   0  0  1  0  0  3  0  0  0  0  0  0
  189.6630  176.2500  138.4680 P   0  0  1  0  0  0  0  0  0  0  0  0
  191.6110  177.6620  140.3690 S   0  0  1  0  0  0  0  0  0  0  0  0
  192.2970  177.2940  141.9920 C   0  0  0  0  0  1  0  0  0  0  0  0
  192.6780  177.1560  139.4080 O   0  0  0  0  0  0  0  0  0  0  0  0
  2 13  1  0  0  0  0
  5  1  1  0  0  0  0
  6 15  1  6  0  0  0
  6  7  1  0  0  0  0
  6 12  1  0  0  0  0
  7 11  1  0  0  0  0
  9 28  1  6  0  0  0
  9 23  1  0  0  0  0
 10 22  2  0  0  0  0
 10  3  1  0  0  0  0
 11  8  1  6  0  0  0
 11  5  1  0  0  0  0
 13 18  1  0  0  0  0
 16  1  2  0  0  0  0
 17  3  2  0  0  0  0
 17 18  1  0  0  0  0
 18 25  2  0  0  0  0
 19 12  1  0  0  0  0
 19 27  1  0  0  0  0
 20  1  1  6  0  0  0
 20 26  1  0  0  0  0
 20  2  1  0  0  0  0
 21 23  1  0  0  0  0
 21  4  1  1  0  0  0
 21 26  1  0  0  0  0
 23 10  1  1  0  0  0
 26 17  1  1  0  0  0
 27 24  2  6  0  0  0
 27 14  1  0  0  0  0
 27  9  1  0  0  0  0
 28 29  1  1  0  0  0
 30 28  2  0  0  0  0
M  END
>  <MODEL>
7

>  <REMARK>
 VINA RESULT:      -3.3      4.173      7.585
  Name = 
  1 active torsions:
  status: ('A' for Active; 'I' for Inactive)
    1  A    between atoms: S_7  and  C_10
                            x       y       z     vdW  Elec       q    Type
                         _______ _______ _______ _____ _____    ______ ____

>  <TORSDO>
F 1

$$$$
=
 OpenBabel10272414013D

 30 32  0  0  1  0  0  0  0  0999 V2000
  186.4570  175.2120  135.4520 C   0  0  0  0  0  0  0  0  0  0  0  0
  184.5510  173.4350  134.5020 S   0  0  0  0  0  0  0  0  0  0  0  0
  182.2960  174.6770  138.1310 N   0  0  0  0  0  0  0  0  0  0  0  0
  183.2500  177.2700  136.2660 C   0  0  0  0  0  1  0  0  0  0  0  0
  187.1890  175.3430  136.6780 N   0  0  0  0  0  2  0  0  0  0  0  0
  188.2250  178.2070  137.3770 C   0  0  2  0  0  3  0  0  0  0  0  0
  188.7690  177.2150  136.3500 C   0  0  0  0  0  2  0  0  0  0  0  0
  189.1700  175.4360  138.0970 C   0  0  0  0  0  1  0  0  0  0  0  0
  183.8340  178.0380  139.3790 C   0  0  1  0  0  3  0  0  0  0  0  0
  182.4740  175.8910  138.8750 C   0  0  0  0  0  0  0  0  0  0  0  0
  188.5890  175.7390  136.7280 C   0  0  1  0  0  3  0  0  0  0  0  0
  186.7140  178.3650  137.2210 C   0  0  0  0  0  2  0  0  0  0  0  0
  184.1440  172.3520  135.9010 C   0  0  0  0  0  2  0  0  0  0  0  0
  186.5390  177.2880  139.9990 O   0  0  0  0  0  0  0  0  0  0  0  0
  188.9180  179.5380  137.1580 C   0  0  0  0  0  1  0  0  0  0  0  0
  187.0430  175.3590  134.3460 O   0  0  0  0  0  0  0  0  0  0  0  0
  183.1330  174.2850  137.2070 C   0  0  0  0  0  0  0  0  0  0  0  0
  183.0020  172.9380  136.6470 C   0  0  0  0  0  0  0  0  0  0  0  0
  186.1930  179.3800  138.1290 N   0  0  0  0  0  2  0  0  0  0  0  0
  184.9810  174.9380  135.4740 C   0  0  1  0  0  3  0  0  0  0  0  0
  184.2130  176.5840  137.2350 C   0  0  1  0  0  3  0  0  0  0  0  0
  181.6090  176.2450  139.7180 O   0  0  0  0  0  0  0  0  0  0  0  0
  183.7420  176.6730  138.6830 C   0  0  1  0  0  3  0  0  0  0  0  0
  185.6060  179.6100  140.7090 O   0  0  0  0  0  1  0  0  0  0  0  0
  181.9530  172.2620  136.8240 O   0  0  0  0  0  0  0  0  0  0  0  0
  184.3790  175.0990  136.8880 C   0  0  1  0  0  3  0  0  0  0  0  0
  185.5650  178.6070  139.5800 P   0  0  1  0  0  0  0  0  0  0  0  0
  182.7000  179.3070  138.7420 S   0  0  1  0  0  0  0  0  0  0  0  0
  181.4290  179.4490  140.0080 C   0  0  0  0  0  1  0  0  0  0  0  0
  183.4560  180.6240  138.8460 O   0  0  0  0  0  0  0  0  0  0  0  0
  1 20  1  0  0  0  0
  1  5  1  0  0  0  0
  2 13  1  0  0  0  0
  3 10  1  0  0  0  0
  5 11  1  0  0  0  0
  6 15  1  6  0  0  0
  7 11  1  0  0  0  0
  7  6  1  0  0  0  0
  9 28  1  6  0  0  0
  9 27  1  0  0  0  0
 10 22  2  0  0  0  0
 11  8  1  1  0  0  0
 12  6  1  0  0  0  0
 12 19  1  0  0  0  0
 13 18  1  0  0  0  0
 16  1  2  0  0  0  0
 17  3  2  0  0  0  0
 18 25  2  0  0  0  0
 18 17  1  0  0  0  0
 19 27  1  0  0  0  0
 20  2  1  1  0  0  0
 20 26  1  0  0  0  0
 21  4  1  6  0  0  0
 21 23  1  0  0  0  0
 23 10  1  6  0  0  0
 23  9  1  0  0  0  0
 26 17  1  6  0  0  0
 26 21  1  0  0  0  0
 27 14  2  1  0  0  0
 27 24  1  0  0  0  0
 28 30  2  0  0  0  0
 28 29  1  1  0  0  0
M  END
>  <MODEL>
8

>  <REMARK>
 VINA RESULT:      -2.9      2.529      5.251
  Name = 
  1 active torsions:
  status: ('A' for Active; 'I' for Inactive)
    1  A    between atoms: S_7  and  C_10
                            x       y       z     vdW  Elec       q    Type
                         _______ _______ _______ _____ _____    ______ ____

>  <TORSDO>
F 1

$$$$
=
 OpenBabel10272414013D

 30 32  0  0  1  0  0  0  0  0999 V2000
  186.1230  178.7970  140.7810 C   0  0  0  0  0  0  0  0  0  0  0  0
  188.2860  179.1560  142.4800 S   0  0  0  0  0  0  0  0  0  0  0  0
  190.2490  176.1860  139.8110 N   0  0  0  0  0  0  0  0  0  0  0  0
  188.9840  178.7750  138.1350 C   0  0  0  0  0  1  0  0  0  0  0  0
  185.3490  177.6650  140.3620 N   0  0  0  0  0  2  0  0  0  0  0  0
  183.8990  177.9180  137.6050 C   0  0  2  0  0  3  0  0  0  0  0  0
  183.5280  178.5520  138.9460 C   0  0  0  0  0  2  0  0  0  0  0  0
  183.3400  176.3100  140.0920 C   0  0  0  0  0  1  0  0  0  0  0  0
  188.2170  176.0720  136.4830 C   0  0  1  0  0  3  0  0  0  0  0  0
  189.8810  175.8770  138.4590 C   0  0  0  0  0  0  0  0  0  0  0  0
  183.9060  177.7160  140.1750 C   0  0  1  0  0  3  0  0  0  0  0  0
  185.3750  178.1520  137.2930 C   0  0  0  0  0  2  0  0  0  0  0  0
  188.8070  177.4890  142.9760 C   0  0  0  0  0  2  0  0  0  0  0  0
  185.6320  175.1800  137.3650 O   0  0  0  0  0  1  0  0  0  0  0  0
  183.0300  178.5450  136.5320 C   0  0  0  0  0  1  0  0  0  0  0  0
  185.5510  179.8760  141.0890 O   0  0  0  0  0  0  0  0  0  0  0  0
  189.4990  176.9120  140.5980 C   0  0  0  0  0  0  0  0  0  0  0  0
  189.8350  177.0020  142.0220 C   0  0  0  0  0  0  0  0  0  0  0  0
  185.7240  177.6390  135.9740 N   0  0  0  0  0  2  0  0  0  0  0  0
  187.6220  178.7200  140.8190 C   0  0  1  0  0  3  0  0  0  0  0  0
  188.1040  177.6140  138.5960 C   0  0  1  0  0  3  0  0  0  0  0  0
  190.6650  175.2160  137.7290 O   0  0  0  0  0  0  0  0  0  0  0  0
  188.5200  176.2860  137.9720 C   0  0  1  0  0  3  0  0  0  0  0  0
  186.2070  175.2910  134.8310 O   0  0  0  0  0  0  0  0  0  0  0  0
  190.9640  176.6380  142.4460 O   0  0  0  0  0  0  0  0  0  0  0  0
  188.1590  177.4520  140.1200 C   0  0  1  0  0  3  0  0  0  0  0  0
  186.4190  176.0300  136.1310 P   0  0  1  0  0  0  0  0  0  0  0  0
  189.1750  177.1160  135.3440 S   0  0  1  0  0  0  0  0  0  0  0  0
  190.1380  175.9490  134.3690 C   0  0  0  0  0  1  0  0  0  0  0  0
  188.1680  177.6690  134.3460 O   0  0  0  0  0  0  0  0  0  0  0  0
  1 16  2  0  0  0  0
  2 13  1  0  0  0  0
  3 17  2  0  0  0  0
  5  1  1  0  0  0  0
  6 15  1  6  0  0  0
  6  7  1  0  0  0  0
  7 11  1  0  0  0  0
  9 28  1  6  0  0  0
  9 23  1  0  0  0  0
 10  3  1  0  0  0  0
 11  8  1  6  0  0  0
 11  5  1  0  0  0  0
 12  6  1  0  0  0  0
 17 18  1  0  0  0  0
 18 25  2  0  0  0  0
 18 13  1  0  0  0  0
 19 27  1  0  0  0  0
 19 12  1  0  0  0  0
 20  1  1  1  0  0  0
 20  2  1  0  0  0  0
 21  4  1  6  0  0  0
 21 26  1  0  0  0  0
 22 10  2  0  0  0  0
 23 10  1  6  0  0  0
 23 21  1  0  0  0  0
 26 17  1  1  0  0  0
 26 20  1  0  0  0  0
 27 24  2  6  0  0  0
 27  9  1  0  0  0  0
 27 14  1  0  0  0  0
 28 29  1  6  0  0  0
 30 28  2  0  0  0  0
M  END
>  <MODEL>
9

>  <REMARK>
 VINA RESULT:      -2.4      3.508      5.301
  Name = 
  1 active torsions:
  status: ('A' for Active; 'I' for Inactive)
    1  A    between atoms: S_7  and  C_10
                            x       y       z     vdW  Elec       q    Type
                         _______ _______ _______ _____ _____    ______ ____

>  <TORSDO>
F 1

$$$$
