=
 OpenBabel10272401353D

 55 60  0  0  1  0  0  0  0  0999 V2000
  186.1350  177.1050  137.8340 C   0  0  0  0  0  3  0  0  0  0  0  0
  186.1580  175.5230  134.8360 S   0  0  0  0  0  0  0  0  0  0  0  0
  182.9470  176.7310  134.5930 C   0  0  0  0  0  1  0  0  0  0  0  0
  181.3230  179.0200  136.1760 C   0  0  0  0  0  2  0  0  0  0  0  0
  179.9840  179.7260  136.4040 C   0  0  0  0  0  2  0  0  0  0  0  0
  181.9480  179.9020  138.4250 C   0  0  2  0  0  3  0  0  0  0  0  0
  180.5470  180.5050  138.4520 C   0  0  0  0  0  2  0  0  0  0  0  0
  183.1480  176.8460  136.9770 O   0  0  0  0  0  0  0  0  0  0  0  0
  180.1840  180.9070  137.1510 O   0  0  0  0  0  0  0  0  0  0  0  0
  188.4320  178.0700  137.9630 C   0  0  0  0  0  3  0  0  0  0  0  0
  181.9410  178.6680  137.5340 C   0  0  2  0  0  3  0  0  0  0  0  0
  189.4650  175.8980  136.5050 C   0  0  0  0  0  0  0  0  0  0  0  0
  185.5180  178.1440  138.3810 C   0  0  0  0  0  3  0  0  0  0  0  0
  188.0700  176.0010  136.7340 C   0  0  0  0  0  0  0  0  0  0  0  0
  183.7040  179.2460  139.6360 C   0  0  2  0  0  3  0  0  0  0  0  0
  187.1840  175.0730  136.1740 O   0  0  0  0  0  0  0  0  0  0  0  0
  182.3250  179.4970  139.7020 O   0  0  0  0  0  0  0  0  0  0  0  0
  184.6300  175.3780  135.8170 C   0  0  0  0  0  2  0  0  0  0  0  0
  183.8800  176.7040  135.7930 C   0  0  1  0  0  3  0  0  0  0  0  0
  189.7940  178.0030  137.6730 C   0  0  0  0  0  3  0  0  0  0  0  0
  187.5610  177.0770  137.4890 C   0  0  0  0  0  0  0  0  0  0  0  0
  183.3040  178.1370  137.3710 N   0  0  1  0  0  0  0  0  0  0  0  0
  184.0480  178.0880  138.6620 C   0  0  1  0  0  3  0  0  0  0  0  0
  190.3020  176.9250  136.9450 C   0  0  0  0  0  3  0  0  0  0  0  0
  183.2960  178.7450  142.0680 C   0  0  0  0  0  3  0  0  0  0  0  0
  185.1430  178.3680  143.6050 C   0  0  0  0  0  0  0  0  0  0  0  0
  185.5830  178.8380  141.2640 C   0  0  0  0  0  3  0  0  0  0  0  0
  186.0500  178.5570  142.5480 C   0  0  0  0  0  3  0  0  0  0  0  0
  183.7660  178.4700  143.3580 C   0  0  0  0  0  3  0  0  0  0  0  0
  184.2040  178.9250  141.0140 C   0  0  0  0  0  0  0  0  0  0  0  0
  185.5820  178.0880  144.9030 O   0  0  0  0  0  0  0  0  0  0  0  0
  185.3620  178.9540  145.9760 C   0  0  0  0  0  3  0  0  0  0  0  0
  185.8670  178.6830  147.1650 C   0  0  0  0  0  2  0  0  0  0  0  0
  190.0730  174.8070  135.8700 O   0  0  0  0  0  0  0  0  0  0  0  0
  191.1700  174.8960  134.9660 C   0  0  0  0  0  2  0  0  0  0  0  0
  192.3530  174.0610  135.4540 C   0  0  2  0  0  3  0  0  0  0  0  0
  192.6670  171.7420  135.8540 O   0  0  0  0  0  0  0  0  0  0  0  0
  192.1630  172.6020  135.1510 C   0  0  0  0  0  3  0  0  0  0  0  0
  192.7540  174.3200  136.9160 C   0  0  0  0  0  2  0  0  0  0  0  0
  193.9920  175.2050  137.0470 C   0  0  1  0  0  3  0  0  0  0  0  0
  193.6560  176.4530  137.5800 O   0  0  0  0  0  1  0  0  0  0  0  0
  195.9090  170.2090  137.3910 C   0  0  0  0  0  2  0  0  0  0  0  0
  198.5800  175.3320  137.9990 O   0  0  0  0  0  1  0  0  0  0  0  0
  195.1370  174.5320  137.8340 C   0  0  1  0  0  0  0  0  0  0  0  0
  196.5460  174.8560  135.9160 O   0  0  0  0  0  0  0  0  0  0  0  0
  196.4720  174.5840  137.1090 C   0  0  0  0  0  0  0  0  0  0  0  0
  195.8090  172.2570  138.5230 O   0  0  0  0  0  0  0  0  0  0  0  0
  198.4540  172.9590  137.4190 C   0  0  1  0  0  3  0  0  0  0  0  0
  196.4230  171.4100  137.6100 C   0  0  0  0  0  0  0  0  0  0  0  0
  197.7160  174.2360  137.8810 C   0  0  1  0  0  3  0  0  0  0  0  0
  195.2750  175.1940  139.0570 O   0  0  0  0  0  1  0  0  0  0  0  0
  197.5600  171.8900  136.7550 C   0  0  0  0  0  2  0  0  0  0  0  0
  194.7110  173.0830  138.1220 C   0  0  0  0  0  2  0  0  0  0  0  0
  199.5170  173.2800  136.5690 O   0  0  0  0  0  0  0  0  0  0  0  0
  199.2400  172.5820  135.3930 C   0  0  0  0  0  1  0  0  0  0  0  0
  1 13  2  0  0  0  0
  2 18  1  0  0  0  0
  2 16  1  0  0  0  0
  4  5  1  0  0  0  0
  5  9  1  0  0  0  0
  6  7  1  1  0  0  0
  6 17  1  0  0  0  0
  9  7  1  0  0  0  0
 11  4  1  6  0  0  0
 11  6  1  0  0  0  0
 12 14  2  0  0  0  0
 12 24  1  0  0  0  0
 14 21  1  0  0  0  0
 15 17  1  0  0  0  0
 15 30  1  1  0  0  0
 16 14  1  0  0  0  0
 19  3  1  6  0  0  0
 19 18  1  0  0  0  0
 19  8  1  0  0  0  0
 20 10  1  0  0  0  0
 21  1  1  0  0  0  0
 21 10  2  0  0  0  0
 22  8  1  1  0  0  0
 22 11  1  0  0  0  0
 22 23  1  0  0  0  0
 23 13  1  6  0  0  0
 23 15  1  0  0  0  0
 24 20  2  0  0  0  0
 25 29  1  0  0  0  0
 26 31  1  0  0  0  0
 27 28  2  0  0  0  0
 28 26  1  0  0  0  0
 29 26  2  0  0  0  0
 30 27  1  0  0  0  0
 30 25  2  0  0  0  0
 31 32  1  0  0  0  0
 32 33  2  0  0  0  0
 34 12  1  0  0  0  0
 35 34  1  0  0  0  0
 36 35  1  1  0  0  0
 36 39  1  0  0  0  0
 38 36  1  0  0  0  0
 38 37  2  0  0  0  0
 39 40  1  0  0  0  0
 40 41  1  1  0  0  0
 40 44  1  0  0  0  0
 42 49  2  0  0  0  0
 44 53  1  0  0  0  0
 44 51  1  1  0  0  0
 45 46  2  0  0  0  0
 46 44  1  0  0  0  0
 46 50  1  0  0  0  0
 48 54  1  6  0  0  0
 48 50  1  0  0  0  0
 49 47  1  0  0  0  0
 50 43  1  6  0  0  0
 52 48  1  0  0  0  0
 52 49  1  0  0  0  0
 53 47  1  0  0  0  0
 55 54  1  0  0  0  0
M  END
>  <MODEL>
1

>  <REMARK>
 VINA RESULT:      -8.1      0.000      0.000
  Name = 
  11 active torsions:
  status: ('A' for Active; 'I' for Inactive)
    1  A    between atoms: C_6  and  C_20
    2  A    between atoms: C_8  and  C_43
    3  A    between atoms: O_10  and  C_18
    4  A    between atoms: O_10  and  C_32
    5  A    between atoms: O_11  and  C_29
    6  A    between atoms: C_20  and  C_22
    7  A    between atoms: C_22  and  C_43
    8  A    between atoms: C_27  and  O_54
    9  A    between atoms: C_33  and  C_52
   10  A    between atoms: C_43  and  C_51
   11  A    between atoms: C_51  and  O_54
                            x       y       z     vdW  Elec       q    Type
                         _______ _______ _______ _____ _____    ______ ____

>  <TORSDO>
F 11

$$$$
=
 OpenBabel10272401353D

 55 60  0  0  1  0  0  0  0  0999 V2000
  186.3610  174.7670  136.1510 C   0  0  0  0  0  3  0  0  0  0  0  0
  188.4040  172.3960  134.8500 S   0  0  0  0  0  0  0  0  0  0  0  0
  185.5700  170.4490  134.9130 C   0  0  0  0  0  1  0  0  0  0  0  0
  182.4340  171.1230  135.2170 C   0  0  0  0  0  2  0  0  0  0  0  0
  181.0090  170.5850  135.3700 C   0  0  0  0  0  2  0  0  0  0  0  0
  181.5280  173.2390  136.1830 C   0  0  2  0  0  3  0  0  0  0  0  0
  180.1960  172.4970  136.2640 C   0  0  0  0  0  2  0  0  0  0  0  0
  184.8910  172.0480  136.5620 O   0  0  0  0  0  0  0  0  0  0  0  0
  180.0770  171.6250  135.1640 O   0  0  0  0  0  0  0  0  0  0  0  0
  187.1130  176.8400  134.9840 C   0  0  0  0  0  3  0  0  0  0  0  0
  182.6640  172.2290  136.2550 C   0  0  2  0  0  3  0  0  0  0  0  0
  189.7500  175.8670  134.8790 C   0  0  0  0  0  0  0  0  0  0  0  0
  185.0670  175.0570  136.1260 C   0  0  0  0  0  3  0  0  0  0  0  0
  188.7140  175.0570  135.4070 C   0  0  0  0  0  0  0  0  0  0  0  0
  182.7450  174.9440  136.9500 C   0  0  2  0  0  3  0  0  0  0  0  0
  188.9710  173.7400  135.8080 O   0  0  0  0  0  0  0  0  0  0  0  0
  181.6650  174.1060  137.2630 O   0  0  0  0  0  0  0  0  0  0  0  0
  187.2290  171.8410  136.1250 C   0  0  0  0  0  2  0  0  0  0  0  0
  185.8210  171.8090  135.5430 C   0  0  1  0  0  3  0  0  0  0  0  0
  188.1210  177.6050  134.3990 C   0  0  0  0  0  3  0  0  0  0  0  0
  187.4000  175.5600  135.4820 C   0  0  0  0  0  0  0  0  0  0  0  0
  183.9610  172.8900  136.0410 N   0  0  1  0  0  0  0  0  0  0  0  0
  184.0790  174.1620  136.8090 C   0  0  1  0  0  3  0  0  0  0  0  0
  189.4290  177.1160  134.3460 C   0  0  0  0  0  3  0  0  0  0  0  0
  182.5180  175.6900  139.3420 C   0  0  0  0  0  3  0  0  0  0  0  0
  183.0670  177.9620  140.0120 C   0  0  0  0  0  0  0  0  0  0  0  0
  183.3120  177.2830  137.6940 C   0  0  0  0  0  3  0  0  0  0  0  0
  183.4140  178.2620  138.6830 C   0  0  0  0  0  3  0  0  0  0  0  0
  182.6130  176.6750  140.3330 C   0  0  0  0  0  3  0  0  0  0  0  0
  182.8720  175.9890  138.0180 C   0  0  0  0  0  0  0  0  0  0  0  0
  183.1560  178.9240  141.0250 O   0  0  0  0  0  0  0  0  0  0  0  0
  183.9610  178.7570  142.1530 C   0  0  0  0  0  3  0  0  0  0  0  0
  183.4610  178.9430  143.3600 C   0  0  0  0  0  2  0  0  0  0  0  0
  191.1020  175.5000  134.8730 O   0  0  0  0  0  0  0  0  0  0  0  0
  192.1270  176.1460  135.6200 C   0  0  0  0  0  2  0  0  0  0  0  0
  192.2380  175.5550  137.0250 C   0  0  2  0  0  3  0  0  0  0  0  0
  193.1720  173.3840  137.2520 O   0  0  0  0  0  0  0  0  0  0  0  0
  192.1840  174.0540  137.0010 C   0  0  0  0  0  3  0  0  0  0  0  0
  191.2710  176.1700  138.0520 C   0  0  0  0  0  2  0  0  0  0  0  0
  191.8620  176.2390  139.4590 C   0  0  1  0  0  3  0  0  0  0  0  0
  193.2530  176.3710  139.4070 O   0  0  0  0  0  1  0  0  0  0  0  0
  186.9180  178.2630  139.9240 C   0  0  0  0  0  2  0  0  0  0  0  0
  191.1620  177.7130  143.8530 O   0  0  0  0  0  1  0  0  0  0  0  0
  191.2120  177.3310  140.3360 C   0  0  1  0  0  0  0  0  0  0  0  0
  190.5650  175.6060  141.8760 O   0  0  0  0  0  0  0  0  0  0  0  0
  190.7080  176.8060  141.6700 C   0  0  0  0  0  0  0  0  0  0  0  0
  189.1770  178.7310  140.3270 O   0  0  0  0  0  0  0  0  0  0  0  0
  188.8310  177.8310  143.1160 C   0  0  1  0  0  3  0  0  0  0  0  0
  187.9640  178.1910  140.7330 C   0  0  0  0  0  0  0  0  0  0  0  0
  190.3280  177.8030  142.7300 C   0  0  1  0  0  3  0  0  0  0  0  0
  192.1700  178.3180  140.5850 O   0  0  0  0  0  1  0  0  0  0  0  0
  187.8600  177.3920  142.0000 C   0  0  0  0  0  2  0  0  0  0  0  0
  190.0760  177.9660  139.5170 C   0  0  0  0  0  2  0  0  0  0  0  0
  188.6010  177.0730  144.2690 O   0  0  0  0  0  0  0  0  0  0  0  0
  187.7600  177.8740  145.0430 C   0  0  0  0  0  1  0  0  0  0  0  0
  2 16  1  0  0  0  0
  2 18  1  0  0  0  0
  4  5  1  0  0  0  0
  6 11  1  0  0  0  0
  6  7  1  1  0  0  0
  6 17  1  0  0  0  0
  9  5  1  0  0  0  0
  9  7  1  0  0  0  0
 10 21  1  0  0  0  0
 11  4  1  6  0  0  0
 12 14  1  0  0  0  0
 13  1  2  0  0  0  0
 14 21  2  0  0  0  0
 14 16  1  0  0  0  0
 15 17  1  0  0  0  0
 15 30  1  1  0  0  0
 19  3  1  1  0  0  0
 19 18  1  0  0  0  0
 19  8  1  0  0  0  0
 20 10  2  0  0  0  0
 21  1  1  0  0  0  0
 22 11  1  0  0  0  0
 22  8  1  1  0  0  0
 22 23  1  0  0  0  0
 23 13  1  6  0  0  0
 23 15  1  0  0  0  0
 24 20  1  0  0  0  0
 24 12  2  0  0  0  0
 25 29  1  0  0  0  0
 26 29  2  0  0  0  0
 26 31  1  0  0  0  0
 27 30  1  0  0  0  0
 27 28  2  0  0  0  0
 28 26  1  0  0  0  0
 30 25  2  0  0  0  0
 31 32  1  0  0  0  0
 32 33  2  0  0  0  0
 34 12  1  0  0  0  0
 34 35  1  0  0  0  0
 36 35  1  6  0  0  0
 36 39  1  0  0  0  0
 38 36  1  0  0  0  0
 38 37  2  0  0  0  0
 39 40  1  0  0  0  0
 40 41  1  6  0  0  0
 40 44  1  0  0  0  0
 42 49  2  0  0  0  0
 44 51  1  1  0  0  0
 44 46  1  0  0  0  0
 46 45  2  0  0  0  0
 46 50  1  0  0  0  0
 47 49  1  0  0  0  0
 48 54  1  1  0  0  0
 49 52  1  0  0  0  0
 50 48  1  0  0  0  0
 50 43  1  1  0  0  0
 52 48  1  0  0  0  0
 53 47  1  0  0  0  0
 53 44  1  0  0  0  0
 54 55  1  0  0  0  0
M  END
>  <MODEL>
2

>  <REMARK>
 VINA RESULT:      -6.7      3.326      6.692
  Name = 
  11 active torsions:
  status: ('A' for Active; 'I' for Inactive)
    1  A    between atoms: C_6  and  C_20
    2  A    between atoms: C_8  and  C_43
    3  A    between atoms: O_10  and  C_18
    4  A    between atoms: O_10  and  C_32
    5  A    between atoms: O_11  and  C_29
    6  A    between atoms: C_20  and  C_22
    7  A    between atoms: C_22  and  C_43
    8  A    between atoms: C_27  and  O_54
    9  A    between atoms: C_33  and  C_52
   10  A    between atoms: C_43  and  C_51
   11  A    between atoms: C_51  and  O_54
                            x       y       z     vdW  Elec       q    Type
                         _______ _______ _______ _____ _____    ______ ____

>  <TORSDO>
F 11

$$$$
=
 OpenBabel10272401353D

 55 60  0  0  1  0  0  0  0  0999 V2000
  186.0680  177.0710  138.0770 C   0  0  0  0  0  3  0  0  0  0  0  0
  186.8410  175.2310  135.3360 S   0  0  0  0  0  0  0  0  0  0  0  0
  183.6330  176.0050  134.3700 C   0  0  0  0  0  1  0  0  0  0  0  0
  181.5020  178.2140  135.3520 C   0  0  0  0  0  2  0  0  0  0  0  0
  180.0790  178.7670  135.2480 C   0  0  0  0  0  2  0  0  0  0  0  0
  181.5800  179.3720  137.5620 C   0  0  2  0  0  3  0  0  0  0  0  0
  180.1460  179.7970  137.2610 C   0  0  0  0  0  2  0  0  0  0  0  0
  183.3500  176.3660  136.7200 O   0  0  0  0  0  0  0  0  0  0  0  0
  180.0050  180.0290  135.8780 O   0  0  0  0  0  0  0  0  0  0  0  0
  188.1830  178.3200  138.5140 C   0  0  0  0  0  3  0  0  0  0  0  0
  181.8750  178.0690  136.8330 C   0  0  2  0  0  3  0  0  0  0  0  0
  189.7010  176.1660  137.5300 C   0  0  0  0  0  0  0  0  0  0  0  0
  185.2520  178.0720  138.3780 C   0  0  0  0  0  3  0  0  0  0  0  0
  188.2850  176.1170  137.4860 C   0  0  0  0  0  0  0  0  0  0  0  0
  183.1220  179.0530  139.1420 C   0  0  2  0  0  3  0  0  0  0  0  0
  187.6270  175.0380  136.8830 O   0  0  0  0  0  0  0  0  0  0  0  0
  181.7400  179.1380  138.9240 O   0  0  0  0  0  0  0  0  0  0  0  0
  185.1740  174.9910  136.0290 C   0  0  0  0  0  2  0  0  0  0  0  0
  184.3110  176.2060  135.7150 C   0  0  1  0  0  3  0  0  0  0  0  0
  189.5750  178.3960  138.4890 C   0  0  0  0  0  3  0  0  0  0  0  0
  187.5290  177.1880  138.0050 C   0  0  0  0  0  0  0  0  0  0  0  0
  183.2910  177.6970  136.9850 N   0  0  1  0  0  0  0  0  0  0  0  0
  183.7690  177.8610  138.3880 C   0  0  1  0  0  3  0  0  0  0  0  0
  190.3240  177.3250  137.9960 C   0  0  0  0  0  3  0  0  0  0  0  0
  184.6860  178.9510  141.1110 C   0  0  0  0  0  3  0  0  0  0  0  0
  183.8480  178.6430  143.3730 C   0  0  0  0  0  0  0  0  0  0  0  0
  182.3010  178.7460  141.5050 C   0  0  0  0  0  3  0  0  0  0  0  0
  182.5350  178.6100  142.8730 C   0  0  0  0  0  3  0  0  0  0  0  0
  184.9200  178.8070  142.4840 C   0  0  0  0  0  3  0  0  0  0  0  0
  183.3740  178.9260  140.6160 C   0  0  0  0  0  0  0  0  0  0  0  0
  184.1130  178.5060  144.7400 O   0  0  0  0  0  0  0  0  0  0  0  0
  185.1460  179.1940  145.3790 C   0  0  0  0  0  3  0  0  0  0  0  0
  186.0390  178.5370  146.0960 C   0  0  0  0  0  2  0  0  0  0  0  0
  190.5310  175.1050  137.1480 O   0  0  0  0  0  0  0  0  0  0  0  0
  191.7370  175.2390  136.4030 C   0  0  0  0  0  2  0  0  0  0  0  0
  192.9020  174.5530  137.1160 C   0  0  2  0  0  3  0  0  0  0  0  0
  193.6830  176.7100  137.7270 O   0  0  0  0  0  0  0  0  0  0  0  0
  193.6710  175.5160  137.9750 C   0  0  0  0  0  3  0  0  0  0  0  0
  193.8080  173.7190  136.1940 C   0  0  0  0  0  2  0  0  0  0  0  0
  193.6410  172.2140  136.3970 C   0  0  1  0  0  3  0  0  0  0  0  0
  192.4520  171.7640  135.8150 O   0  0  0  0  0  1  0  0  0  0  0  0
  198.8290  173.3040  135.5900 C   0  0  0  0  0  2  0  0  0  0  0  0
  196.2010  168.3560  137.1260 O   0  0  0  0  0  1  0  0  0  0  0  0
  194.8610  171.3990  135.9160 C   0  0  1  0  0  0  0  0  0  0  0  0
  195.3900  170.9730  138.2200 O   0  0  0  0  0  0  0  0  0  0  0  0
  195.5830  170.6810  137.0450 C   0  0  0  0  0  0  0  0  0  0  0  0
  197.1130  171.8240  134.9950 O   0  0  0  0  0  0  0  0  0  0  0  0
  198.0580  169.9480  137.0680 C   0  0  1  0  0  3  0  0  0  0  0  0
  198.1490  172.1950  135.8430 C   0  0  0  0  0  0  0  0  0  0  0  0
  196.5940  169.6260  136.6870 C   0  0  1  0  0  3  0  0  0  0  0  0
  194.4140  170.4420  135.0010 O   0  0  0  0  0  1  0  0  0  0  0  0
  198.4050  171.4510  137.1210 C   0  0  0  0  0  2  0  0  0  0  0  0
  195.8000  172.3650  135.1750 C   0  0  0  0  0  2  0  0  0  0  0  0
  198.4010  169.3400  138.2790 O   0  0  0  0  0  0  0  0  0  0  0  0
  199.5940  168.6720  138.0020 C   0  0  0  0  0  1  0  0  0  0  0  0
  1 13  2  0  0  0  0
  2 18  1  0  0  0  0
  2 16  1  0  0  0  0
  5  4  1  0  0  0  0
  5  9  1  0  0  0  0
  6  7  1  1  0  0  0
  6 17  1  0  0  0  0
  9  7  1  0  0  0  0
 11  4  1  6  0  0  0
 11 22  1  0  0  0  0
 11  6  1  0  0  0  0
 12 24  1  0  0  0  0
 14 12  2  0  0  0  0
 14 21  1  0  0  0  0
 15 30  1  1  0  0  0
 16 14  1  0  0  0  0
 17 15  1  0  0  0  0
 19  3  1  6  0  0  0
 19 18  1  0  0  0  0
 19  8  1  0  0  0  0
 20 10  1  0  0  0  0
 21  1  1  0  0  0  0
 21 10  2  0  0  0  0
 22  8  1  1  0  0  0
 22 23  1  0  0  0  0
 23 13  1  6  0  0  0
 23 15  1  0  0  0  0
 24 20  2  0  0  0  0
 25 29  1  0  0  0  0
 26 31  1  0  0  0  0
 27 28  2  0  0  0  0
 28 26  1  0  0  0  0
 29 26  2  0  0  0  0
 30 25  2  0  0  0  0
 30 27  1  0  0  0  0
 31 32  1  0  0  0  0
 32 33  2  0  0  0  0
 34 12  1  0  0  0  0
 35 36  1  0  0  0  0
 35 34  1  0  0  0  0
 36 39  1  6  0  0  0
 36 38  1  0  0  0  0
 37 38  2  0  0  0  0
 39 40  1  0  0  0  0
 40 41  1  6  0  0  0
 42 49  2  0  0  0  0
 44 51  1  6  0  0  0
 44 40  1  0  0  0  0
 44 46  1  0  0  0  0
 46 45  2  0  0  0  0
 47 53  1  0  0  0  0
 47 49  1  0  0  0  0
 48 52  1  0  0  0  0
 48 54  1  1  0  0  0
 49 52  1  0  0  0  0
 50 46  1  0  0  0  0
 50 48  1  0  0  0  0
 50 43  1  1  0  0  0
 53 44  1  0  0  0  0
 55 54  1  0  0  0  0
M  END
>  <MODEL>
3

>  <REMARK>
 VINA RESULT:      -6.6      1.503      2.780
  Name = 
  11 active torsions:
  status: ('A' for Active; 'I' for Inactive)
    1  A    between atoms: C_6  and  C_20
    2  A    between atoms: C_8  and  C_43
    3  A    between atoms: O_10  and  C_18
    4  A    between atoms: O_10  and  C_32
    5  A    between atoms: O_11  and  C_29
    6  A    between atoms: C_20  and  C_22
    7  A    between atoms: C_22  and  C_43
    8  A    between atoms: C_27  and  O_54
    9  A    between atoms: C_33  and  C_52
   10  A    between atoms: C_43  and  C_51
   11  A    between atoms: C_51  and  O_54
                            x       y       z     vdW  Elec       q    Type
                         _______ _______ _______ _____ _____    ______ ____

>  <TORSDO>
F 11

$$$$
=
 OpenBabel10272401353D

 55 60  0  0  1  0  0  0  0  0999 V2000
  185.8760  177.6030  139.1750 C   0  0  0  0  0  3  0  0  0  0  0  0
  184.2100  176.8420  136.3220 S   0  0  0  0  0  0  0  0  0  0  0  0
  181.4180  177.5190  138.2130 C   0  0  0  0  0  1  0  0  0  0  0  0
  180.9650  179.0390  141.0180 C   0  0  0  0  0  2  0  0  0  0  0  0
  179.9860  179.4310  142.1270 C   0  0  0  0  0  2  0  0  0  0  0  0
  182.7460  179.4250  142.7220 C   0  0  2  0  0  3  0  0  0  0  0  0
  181.6020  179.7600  143.6750 C   0  0  0  0  0  2  0  0  0  0  0  0
  182.9220  177.0690  140.0210 O   0  0  0  0  0  0  0  0  0  0  0  0
  180.5720  180.4060  142.9630 O   0  0  0  0  0  0  0  0  0  0  0  0
  187.8500  178.8750  138.3340 C   0  0  0  0  0  3  0  0  0  0  0  0
  182.2380  178.4680  141.6530 C   0  0  2  0  0  3  0  0  0  0  0  0
  187.8840  177.3380  135.9790 C   0  0  0  0  0  0  0  0  0  0  0  0
  185.6740  178.3550  140.2480 C   0  0  0  0  0  3  0  0  0  0  0  0
  186.8580  177.1460  136.9380 C   0  0  0  0  0  0  0  0  0  0  0  0
  184.8780  178.7910  142.5410 C   0  0  2  0  0  3  0  0  0  0  0  0
  185.8090  176.2520  136.6930 O   0  0  0  0  0  0  0  0  0  0  0  0
  183.7750  178.7850  143.4070 O   0  0  0  0  0  0  0  0  0  0  0  0
  183.4950  176.2050  137.8710 C   0  0  0  0  0  2  0  0  0  0  0  0
  182.8630  177.3510  138.6510 C   0  0  1  0  0  3  0  0  0  0  0  0
  188.8140  179.1120  137.3550 C   0  0  0  0  0  3  0  0  0  0  0  0
  186.8620  177.9010  138.1290 C   0  0  0  0  0  0  0  0  0  0  0  0
  183.2740  178.2290  140.6350 N   0  0  1  0  0  0  0  0  0  0  0  0
  184.6140  177.9860  141.2410 C   0  0  1  0  0  3  0  0  0  0  0  0
  188.8250  178.3480  136.1860 C   0  0  0  0  0  3  0  0  0  0  0  0
  185.9930  177.9680  144.6410 C   0  0  0  0  0  3  0  0  0  0  0  0
  188.3030  177.2100  144.6290 C   0  0  0  0  0  0  0  0  0  0  0  0
  187.2650  177.9860  142.5760 C   0  0  0  0  0  3  0  0  0  0  0  0
  188.3750  177.4780  143.2510 C   0  0  0  0  0  3  0  0  0  0  0  0
  187.1090  177.4640  145.3190 C   0  0  0  0  0  3  0  0  0  0  0  0
  186.0650  178.2260  143.2640 C   0  0  0  0  0  0  0  0  0  0  0  0
  189.4000  176.7020  145.3330 O   0  0  0  0  0  0  0  0  0  0  0  0
  190.0150  177.3990  146.3740 C   0  0  0  0  0  3  0  0  0  0  0  0
  189.7700  177.0720  147.6290 C   0  0  0  0  0  2  0  0  0  0  0  0
  188.0300  176.5570  134.8260 O   0  0  0  0  0  0  0  0  0  0  0  0
  187.2660  175.3930  134.5260 C   0  0  0  0  0  2  0  0  0  0  0  0
  188.0880  174.1240  134.7530 C   0  0  2  0  0  3  0  0  0  0  0  0
  187.2350  172.1200  135.6970 O   0  0  0  0  0  0  0  0  0  0  0  0
  187.2220  172.8960  134.7570 C   0  0  0  0  0  3  0  0  0  0  0  0
  189.0370  174.1900  135.9620 C   0  0  0  0  0  2  0  0  0  0  0  0
  190.3870  173.5270  135.6950 C   0  0  1  0  0  3  0  0  0  0  0  0
  190.3240  172.7120  134.5600 O   0  0  0  0  0  1  0  0  0  0  0  0
  192.8510  176.7380  139.2130 C   0  0  0  0  0  2  0  0  0  0  0  0
  194.8610  174.1240  134.4300 O   0  0  0  0  0  1  0  0  0  0  0  0
  191.5520  174.5370  135.6150 C   0  0  1  0  0  0  0  0  0  0  0  0
  193.0290  172.7750  136.3090 O   0  0  0  0  0  0  0  0  0  0  0  0
  192.9150  173.8970  135.8280 C   0  0  0  0  0  0  0  0  0  0  0  0
  192.4420  176.4310  136.9270 O   0  0  0  0  0  0  0  0  0  0  0  0
  195.0490  175.0720  136.6780 C   0  0  1  0  0  3  0  0  0  0  0  0
  193.2060  176.1880  138.0610 C   0  0  0  0  0  0  0  0  0  0  0  0
  194.1400  174.6990  135.4850 C   0  0  1  0  0  3  0  0  0  0  0  0
  191.5360  175.1220  134.3460 O   0  0  0  0  0  1  0  0  0  0  0  0
  194.3290  175.1930  138.0370 C   0  0  0  0  0  2  0  0  0  0  0  0
  191.2810  175.6390  136.6520 C   0  0  0  0  0  2  0  0  0  0  0  0
  196.1190  174.1770  136.7870 O   0  0  0  0  0  0  0  0  0  0  0  0
  196.5240  174.2870  138.1170 C   0  0  0  0  0  1  0  0  0  0  0  0
  1 13  2  0  0  0  0
  2 16  1  0  0  0  0
  2 18  1  0  0  0  0
  4  5  1  0  0  0  0
  5  9  1  0  0  0  0
  6 17  1  0  0  0  0
  6  7  1  1  0  0  0
  9  7  1  0  0  0  0
 11  4  1  6  0  0  0
 11  6  1  0  0  0  0
 12 24  2  0  0  0  0
 12 14  1  0  0  0  0
 14 21  2  0  0  0  0
 15 30  1  1  0  0  0
 15 17  1  0  0  0  0
 16 14  1  0  0  0  0
 18 19  1  0  0  0  0
 19  3  1  6  0  0  0
 19  8  1  0  0  0  0
 20 10  2  0  0  0  0
 21 10  1  0  0  0  0
 21  1  1  0  0  0  0
 22  8  1  1  0  0  0
 22 23  1  0  0  0  0
 22 11  1  0  0  0  0
 23 13  1  6  0  0  0
 23 15  1  0  0  0  0
 24 20  1  0  0  0  0
 25 29  1  0  0  0  0
 26 29  2  0  0  0  0
 26 31  1  0  0  0  0
 27 28  2  0  0  0  0
 27 30  1  0  0  0  0
 28 26  1  0  0  0  0
 30 25  2  0  0  0  0
 31 32  1  0  0  0  0
 32 33  2  0  0  0  0
 34 12  1  0  0  0  0
 35 34  1  0  0  0  0
 36 35  1  1  0  0  0
 36 38  1  0  0  0  0
 36 39  1  0  0  0  0
 38 37  2  0  0  0  0
 40 41  1  6  0  0  0
 40 39  1  0  0  0  0
 44 51  1  6  0  0  0
 44 40  1  0  0  0  0
 44 46  1  0  0  0  0
 44 53  1  0  0  0  0
 46 45  2  0  0  0  0
 47 49  1  0  0  0  0
 48 54  1  1  0  0  0
 48 52  1  0  0  0  0
 49 42  2  0  0  0  0
 50 43  1  6  0  0  0
 50 46  1  0  0  0  0
 50 48  1  0  0  0  0
 52 49  1  0  0  0  0
 53 47  1  0  0  0  0
 54 55  1  0  0  0  0
M  END
>  <MODEL>
4

>  <REMARK>
 VINA RESULT:      -6.3      2.273      4.056
  Name = 
  11 active torsions:
  status: ('A' for Active; 'I' for Inactive)
    1  A    between atoms: C_6  and  C_20
    2  A    between atoms: C_8  and  C_43
    3  A    between atoms: O_10  and  C_18
    4  A    between atoms: O_10  and  C_32
    5  A    between atoms: O_11  and  C_29
    6  A    between atoms: C_20  and  C_22
    7  A    between atoms: C_22  and  C_43
    8  A    between atoms: C_27  and  O_54
    9  A    between atoms: C_33  and  C_52
   10  A    between atoms: C_43  and  C_51
   11  A    between atoms: C_51  and  O_54
                            x       y       z     vdW  Elec       q    Type
                         _______ _______ _______ _____ _____    ______ ____

>  <TORSDO>
F 11

$$$$
=
 OpenBabel10272401353D

 55 60  0  0  1  0  0  0  0  0999 V2000
  186.2490  177.4750  139.5910 C   0  0  0  0  0  3  0  0  0  0  0  0
  185.0100  176.5590  136.5710 S   0  0  0  0  0  0  0  0  0  0  0  0
  181.9720  177.2680  138.0190 C   0  0  0  0  0  1  0  0  0  0  0  0
  181.1120  178.9020  140.6590 C   0  0  0  0  0  2  0  0  0  0  0  0
  179.9820  179.3260  141.6010 C   0  0  0  0  0  2  0  0  0  0  0  0
  182.6310  179.3950  142.5770 C   0  0  2  0  0  3  0  0  0  0  0  0
  181.3610  179.7510  143.3440 C   0  0  0  0  0  2  0  0  0  0  0  0
  183.2120  176.9260  140.0390 O   0  0  0  0  0  0  0  0  0  0  0  0
  180.4330  180.3470  142.4650 O   0  0  0  0  0  0  0  0  0  0  0  0
  188.3080  178.7430  138.9770 C   0  0  0  0  0  3  0  0  0  0  0  0
  182.2890  178.3830  141.4930 C   0  0  2  0  0  3  0  0  0  0  0  0
  188.6900  177.1050  136.7230 C   0  0  0  0  0  0  0  0  0  0  0  0
  185.8900  178.2700  140.5890 C   0  0  0  0  0  3  0  0  0  0  0  0
  187.5420  176.9370  137.5370 C   0  0  0  0  0  0  0  0  0  0  0  0
  184.7740  178.7920  142.7250 C   0  0  2  0  0  3  0  0  0  0  0  0
  186.5480  176.0140  137.1890 O   0  0  0  0  0  0  0  0  0  0  0  0
  183.5600  178.8040  143.4280 O   0  0  0  0  0  0  0  0  0  0  0  0
  184.0920  175.9780  138.0330 C   0  0  0  0  0  2  0  0  0  0  0  0
  183.3430  177.1460  138.6620 C   0  0  1  0  0  3  0  0  0  0  0  0
  189.3970  178.9530  138.1330 C   0  0  0  0  0  3  0  0  0  0  0  0
  187.3690  177.7430  138.6810 C   0  0  0  0  0  0  0  0  0  0  0  0
  183.4610  178.1180  140.6420 N   0  0  1  0  0  0  0  0  0  0  0  0
  184.7050  177.9260  141.4390 C   0  0  1  0  0  3  0  0  0  0  0  0
  189.5810  178.1390  137.0130 C   0  0  0  0  0  3  0  0  0  0  0  0
  186.7720  177.3280  143.1670 C   0  0  0  0  0  3  0  0  0  0  0  0
  187.8500  177.2880  145.3470 C   0  0  0  0  0  0  0  0  0  0  0  0
  185.9300  178.7250  144.9630 C   0  0  0  0  0  3  0  0  0  0  0  0
  186.9220  178.2360  145.8140 C   0  0  0  0  0  3  0  0  0  0  0  0
  187.7640  176.8340  144.0230 C   0  0  0  0  0  3  0  0  0  0  0  0
  185.8540  178.2810  143.6330 C   0  0  0  0  0  0  0  0  0  0  0  0
  188.8540  176.7790  146.1770 O   0  0  0  0  0  0  0  0  0  0  0  0
  189.6490  177.5940  146.9850 C   0  0  0  0  0  3  0  0  0  0  0  0
  189.2420  177.9320  148.1940 C   0  0  0  0  0  2  0  0  0  0  0  0
  189.0050  176.2760  135.6390 O   0  0  0  0  0  0  0  0  0  0  0  0
  189.1100  174.8570  135.6990 C   0  0  0  0  0  2  0  0  0  0  0  0
  190.4780  174.3860  135.2080 C   0  0  2  0  0  3  0  0  0  0  0  0
  190.8310  172.0660  134.8440 O   0  0  0  0  0  0  0  0  0  0  0  0
  190.3740  173.1130  134.4160 C   0  0  0  0  0  3  0  0  0  0  0  0
  191.5590  174.3230  136.3010 C   0  0  0  0  0  2  0  0  0  0  0  0
  192.6500  175.3770  136.1200 C   0  0  1  0  0  3  0  0  0  0  0  0
  192.2440  176.6070  136.6480 O   0  0  0  0  0  1  0  0  0  0  0  0
  195.3950  170.7700  136.1790 C   0  0  0  0  0  2  0  0  0  0  0  0
  197.2500  176.2760  136.1590 O   0  0  0  0  0  1  0  0  0  0  0  0
  194.0180  174.9330  136.6820 C   0  0  1  0  0  0  0  0  0  0  0  0
  194.9660  175.3790  134.5210 O   0  0  0  0  0  0  0  0  0  0  0  0
  195.1650  175.1590  135.7100 C   0  0  0  0  0  0  0  0  0  0  0  0
  195.1740  172.8310  137.2700 O   0  0  0  0  0  0  0  0  0  0  0  0
  197.4100  173.8860  135.6580 C   0  0  1  0  0  3  0  0  0  0  0  0
  195.7360  172.0470  136.2710 C   0  0  0  0  0  0  0  0  0  0  0  0
  196.5720  175.0520  136.2320 C   0  0  1  0  0  3  0  0  0  0  0  0
  194.2740  175.6700  137.8420 O   0  0  0  0  0  1  0  0  0  0  0  0
  196.5950  172.6570  135.2020 C   0  0  0  0  0  2  0  0  0  0  0  0
  193.8990  173.4520  137.0750 C   0  0  0  0  0  2  0  0  0  0  0  0
  198.2250  174.3280  134.6110 O   0  0  0  0  0  0  0  0  0  0  0  0
  199.3410  173.4920  134.6700 C   0  0  0  0  0  1  0  0  0  0  0  0
  1 13  2  0  0  0  0
  2 16  1  0  0  0  0
  2 18  1  0  0  0  0
  4  5  1  0  0  0  0
  5  9  1  0  0  0  0
  6  7  1  1  0  0  0
  6 17  1  0  0  0  0
  9  7  1  0  0  0  0
 11  4  1  6  0  0  0
 11  6  1  0  0  0  0
 12 24  2  0  0  0  0
 12 14  1  0  0  0  0
 14 21  2  0  0  0  0
 15 17  1  0  0  0  0
 15 30  1  1  0  0  0
 16 14  1  0  0  0  0
 18 19  1  0  0  0  0
 19  3  1  6  0  0  0
 19  8  1  0  0  0  0
 20 10  2  0  0  0  0
 21 10  1  0  0  0  0
 21  1  1  0  0  0  0
 22  8  1  1  0  0  0
 22 23  1  0  0  0  0
 22 11  1  0  0  0  0
 23 13  1  6  0  0  0
 23 15  1  0  0  0  0
 24 20  1  0  0  0  0
 25 30  2  0  0  0  0
 25 29  1  0  0  0  0
 26 28  1  0  0  0  0
 26 31  1  0  0  0  0
 27 28  2  0  0  0  0
 29 26  2  0  0  0  0
 30 27  1  0  0  0  0
 31 32  1  0  0  0  0
 32 33  2  0  0  0  0
 34 35  1  0  0  0  0
 34 12  1  0  0  0  0
 36 38  1  1  0  0  0
 36 35  1  0  0  0  0
 36 39  1  0  0  0  0
 38 37  2  0  0  0  0
 40 39  1  0  0  0  0
 40 41  1  1  0  0  0
 40 44  1  0  0  0  0
 42 49  2  0  0  0  0
 44 53  1  0  0  0  0
 44 51  1  1  0  0  0
 45 46  2  0  0  0  0
 46 50  1  0  0  0  0
 46 44  1  0  0  0  0
 48 54  1  6  0  0  0
 48 50  1  0  0  0  0
 49 47  1  0  0  0  0
 50 43  1  6  0  0  0
 52 48  1  0  0  0  0
 52 49  1  0  0  0  0
 53 47  1  0  0  0  0
 54 55  1  0  0  0  0
M  END
>  <MODEL>
5

>  <REMARK>
 VINA RESULT:      -6.3      2.016      2.866
  Name = 
  11 active torsions:
  status: ('A' for Active; 'I' for Inactive)
    1  A    between atoms: C_6  and  C_20
    2  A    between atoms: C_8  and  C_43
    3  A    between atoms: O_10  and  C_18
    4  A    between atoms: O_10  and  C_32
    5  A    between atoms: O_11  and  C_29
    6  A    between atoms: C_20  and  C_22
    7  A    between atoms: C_22  and  C_43
    8  A    between atoms: C_27  and  O_54
    9  A    between atoms: C_33  and  C_52
   10  A    between atoms: C_43  and  C_51
   11  A    between atoms: C_51  and  O_54
                            x       y       z     vdW  Elec       q    Type
                         _______ _______ _______ _____ _____    ______ ____

>  <TORSDO>
F 11

$$$$
=
 OpenBabel10272401353D

 55 60  0  0  1  0  0  0  0  0999 V2000
  187.7650  176.7360  138.6360 C   0  0  0  0  0  3  0  0  0  0  0  0
  189.0500  178.4550  141.2600 S   0  0  0  0  0  0  0  0  0  0  0  0
  192.0730  177.6160  139.8500 C   0  0  0  0  0  1  0  0  0  0  0  0
  192.9270  176.5350  136.9380 C   0  0  0  0  0  2  0  0  0  0  0  0
  194.0470  176.0080  136.0370 C   0  0  0  0  0  2  0  0  0  0  0  0
  191.3760  175.4240  135.3290 C   0  0  2  0  0  3  0  0  0  0  0  0
  192.6370  174.9840  134.5920 C   0  0  0  0  0  2  0  0  0  0  0  0
  190.7610  175.8910  138.8330 O   0  0  0  0  0  0  0  0  0  0  0  0
  193.6160  175.9940  134.6920 O   0  0  0  0  0  0  0  0  0  0  0  0
  185.7840  178.1100  137.9980 C   0  0  0  0  0  3  0  0  0  0  0  0
  191.7040  175.6200  136.8020 C   0  0  2  0  0  3  0  0  0  0  0  0
  185.3960  178.8640  140.6800 C   0  0  0  0  0  0  0  0  0  0  0  0
  188.1300  176.4360  137.3980 C   0  0  0  0  0  3  0  0  0  0  0  0
  186.5110  178.0660  140.3200 C   0  0  0  0  0  0  0  0  0  0  0  0
  189.2050  175.0400  135.6710 C   0  0  2  0  0  3  0  0  0  0  0  0
  187.4720  177.7110  141.2740 O   0  0  0  0  0  0  0  0  0  0  0  0
  190.3970  174.4390  135.2430 O   0  0  0  0  0  0  0  0  0  0  0  0
  189.8990  176.9070  140.8130 C   0  0  0  0  0  2  0  0  0  0  0  0
  190.6790  177.1070  139.5210 C   0  0  1  0  0  3  0  0  0  0  0  0
  184.7300  178.9550  138.3440 C   0  0  0  0  0  3  0  0  0  0  0  0
  186.6850  177.6690  138.9780 C   0  0  0  0  0  0  0  0  0  0  0  0
  190.5470  176.1770  137.5220 N   0  0  1  0  0  0  0  0  0  0  0  0
  189.2730  175.4980  137.1530 C   0  0  1  0  0  3  0  0  0  0  0  0
  184.5430  179.3290  139.6770 C   0  0  0  0  0  3  0  0  0  0  0  0
  187.0160  174.3780  134.6210 C   0  0  0  0  0  3  0  0  0  0  0  0
  185.9420  172.2670  135.1690 C   0  0  0  0  0  0  0  0  0  0  0  0
  188.0580  172.8600  136.2000 C   0  0  0  0  0  3  0  0  0  0  0  0
  187.0010  171.9630  136.0420 C   0  0  0  0  0  3  0  0  0  0  0  0
  185.9530  173.4800  134.4670 C   0  0  0  0  0  3  0  0  0  0  0  0
  188.0770  174.0680  135.4850 C   0  0  0  0  0  0  0  0  0  0  0  0
  184.8670  171.3880  134.9920 O   0  0  0  0  0  0  0  0  0  0  0  0
  183.8670  171.2180  135.9510 C   0  0  0  0  0  3  0  0  0  0  0  0
  183.7770  172.0480  136.9730 C   0  0  0  0  0  2  0  0  0  0  0  0
  185.0750  179.2070  141.9990 O   0  0  0  0  0  0  0  0  0  0  0  0
  185.9490  179.0640  143.1150 C   0  0  0  0  0  2  0  0  0  0  0  0
  185.2290  178.4170  144.2970 C   0  0  2  0  0  3  0  0  0  0  0  0
  183.1550  179.0980  145.2320 O   0  0  0  0  0  0  0  0  0  0  0  0
  183.7490  178.6760  144.2540 C   0  0  0  0  0  3  0  0  0  0  0  0
  185.8500  178.7300  145.6690 C   0  0  0  0  0  2  0  0  0  0  0  0
  186.7420  177.6040  146.1900 C   0  0  1  0  0  3  0  0  0  0  0  0
  186.6280  176.4680  145.3820 O   0  0  0  0  0  1  0  0  0  0  0  0
  191.2150  175.1460  147.8360 C   0  0  0  0  0  2  0  0  0  0  0  0
  190.4670  179.5240  144.0900 O   0  0  0  0  0  1  0  0  0  0  0  0
  188.2130  178.0340  146.3750 C   0  0  1  0  0  0  0  0  0  0  0  0
  188.6580  177.1940  144.1700 O   0  0  0  0  0  0  0  0  0  0  0  0
  189.0470  177.8720  145.1140 C   0  0  0  0  0  0  0  0  0  0  0  0
  190.2220  177.2520  147.5810 O   0  0  0  0  0  0  0  0  0  0  0  0
  191.6050  177.5550  144.9930 C   0  0  1  0  0  3  0  0  0  0  0  0
  190.9700  176.2000  147.0710 C   0  0  0  0  0  0  0  0  0  0  0  0
  190.4020  178.5220  145.0680 C   0  0  1  0  0  3  0  0  0  0  0  0
  188.2320  179.3810  146.7440 O   0  0  0  0  0  1  0  0  0  0  0  0
  191.3690  176.1660  145.6240 C   0  0  0  0  0  2  0  0  0  0  0  0
  188.7920  177.2130  147.5400 C   0  0  0  0  0  2  0  0  0  0  0  0
  192.0410  177.4060  143.6720 O   0  0  0  0  0  0  0  0  0  0  0  0
  191.8640  176.0480  143.4030 C   0  0  0  0  0  1  0  0  0  0  0  0
  1 21  1  0  0  0  0
  2 16  1  0  0  0  0
  5  4  1  0  0  0  0
  6  7  1  6  0  0  0
  6 11  1  0  0  0  0
  7  9  1  0  0  0  0
  8 19  1  0  0  0  0
  9  5  1  0  0  0  0
 10 20  2  0  0  0  0
 10 21  1  0  0  0  0
 11  4  1  6  0  0  0
 11 22  1  0  0  0  0
 12 34  1  0  0  0  0
 13  1  2  0  0  0  0
 14 12  1  0  0  0  0
 14 16  1  0  0  0  0
 15 30  1  1  0  0  0
 15 23  1  0  0  0  0
 17  6  1  0  0  0  0
 17 15  1  0  0  0  0
 18  2  1  0  0  0  0
 19  3  1  1  0  0  0
 19 18  1  0  0  0  0
 20 24  1  0  0  0  0
 21 14  2  0  0  0  0
 22  8  1  1  0  0  0
 23 13  1  6  0  0  0
 23 22  1  0  0  0  0
 24 12  2  0  0  0  0
 25 30  1  0  0  0  0
 26 28  2  0  0  0  0
 28 27  1  0  0  0  0
 29 25  2  0  0  0  0
 29 26  1  0  0  0  0
 30 27  2  0  0  0  0
 31 26  1  0  0  0  0
 31 32  1  0  0  0  0
 32 33  2  0  0  0  0
 34 35  1  0  0  0  0
 36 35  1  6  0  0  0
 36 39  1  0  0  0  0
 38 36  1  0  0  0  0
 38 37  2  0  0  0  0
 39 40  1  0  0  0  0
 40 41  1  6  0  0  0
 40 44  1  0  0  0  0
 44 51  1  1  0  0  0
 44 53  1  0  0  0  0
 45 46  2  0  0  0  0
 46 44  1  0  0  0  0
 48 54  1  6  0  0  0
 48 50  1  0  0  0  0
 48 52  1  0  0  0  0
 49 47  1  0  0  0  0
 49 42  2  0  0  0  0
 50 43  1  6  0  0  0
 50 46  1  0  0  0  0
 52 49  1  0  0  0  0
 53 47  1  0  0  0  0
 55 54  1  0  0  0  0
M  END
>  <MODEL>
6

>  <REMARK>
 VINA RESULT:      -6.0      3.744     10.265
  Name = 
  11 active torsions:
  status: ('A' for Active; 'I' for Inactive)
    1  A    between atoms: C_6  and  C_20
    2  A    between atoms: C_8  and  C_43
    3  A    between atoms: O_10  and  C_18
    4  A    between atoms: O_10  and  C_32
    5  A    between atoms: O_11  and  C_29
    6  A    between atoms: C_20  and  C_22
    7  A    between atoms: C_22  and  C_43
    8  A    between atoms: C_27  and  O_54
    9  A    between atoms: C_33  and  C_52
   10  A    between atoms: C_43  and  C_51
   11  A    between atoms: C_51  and  O_54
                            x       y       z     vdW  Elec       q    Type
                         _______ _______ _______ _____ _____    ______ ____

>  <TORSDO>
F 11

$$$$
=
 OpenBabel10272401353D

 55 60  0  0  1  0  0  0  0  0999 V2000
  186.2260  177.3860  139.2450 C   0  0  0  0  0  3  0  0  0  0  0  0
  184.8850  176.3510  136.3080 S   0  0  0  0  0  0  0  0  0  0  0  0
  181.8910  176.9380  137.8960 C   0  0  0  0  0  1  0  0  0  0  0  0
  181.0830  178.5800  140.5480 C   0  0  0  0  0  2  0  0  0  0  0  0
  179.9820  178.9660  141.5390 C   0  0  0  0  0  2  0  0  0  0  0  0
  182.6700  179.1850  142.3770 C   0  0  2  0  0  3  0  0  0  0  0  0
  181.4230  179.4930  143.2020 C   0  0  0  0  0  2  0  0  0  0  0  0
  183.2460  176.6970  139.8560 O   0  0  0  0  0  0  0  0  0  0  0  0
  180.4250  180.0250  142.3620 O   0  0  0  0  0  0  0  0  0  0  0  0
  188.1850  178.7420  138.5050 C   0  0  0  0  0  3  0  0  0  0  0  0
  182.3260  178.1360  141.3300 C   0  0  2  0  0  3  0  0  0  0  0  0
  188.5360  177.0800  136.2630 C   0  0  0  0  0  0  0  0  0  0  0  0
  185.8780  178.1820  140.2460 C   0  0  0  0  0  3  0  0  0  0  0  0
  187.4400  176.8720  137.1380 C   0  0  0  0  0  0  0  0  0  0  0  0
  184.8450  178.6910  142.4270 C   0  0  2  0  0  3  0  0  0  0  0  0
  186.4770  175.8940  136.8570 O   0  0  0  0  0  0  0  0  0  0  0  0
  183.6690  178.6570  143.1900 O   0  0  0  0  0  0  0  0  0  0  0  0
  184.0720  175.7540  137.8250 C   0  0  0  0  0  2  0  0  0  0  0  0
  183.2980  176.8960  138.4710 C   0  0  1  0  0  3  0  0  0  0  0  0
  189.2190  178.9880  137.6030 C   0  0  0  0  0  3  0  0  0  0  0  0
  187.2850  177.6910  138.2750 C   0  0  0  0  0  0  0  0  0  0  0  0
  183.4650  177.9120  140.4250 N   0  0  1  0  0  0  0  0  0  0  0  0
  184.7560  177.7970  141.1620 C   0  0  1  0  0  3  0  0  0  0  0  0
  189.3870  178.1620  136.4890 C   0  0  0  0  0  3  0  0  0  0  0  0
  185.7970  178.0150  144.6560 C   0  0  0  0  0  3  0  0  0  0  0  0
  188.1540  177.4710  144.9090 C   0  0  0  0  0  0  0  0  0  0  0  0
  187.2770  178.1090  142.7360 C   0  0  0  0  0  3  0  0  0  0  0  0
  188.3500  177.7180  143.5390 C   0  0  0  0  0  3  0  0  0  0  0  0
  186.8750  177.6290  145.4620 C   0  0  0  0  0  3  0  0  0  0  0  0
  185.9930  178.2520  143.2870 C   0  0  0  0  0  0  0  0  0  0  0  0
  189.2100  177.0800  145.7390 O   0  0  0  0  0  0  0  0  0  0  0  0
  189.0960  177.0260  147.1290 C   0  0  0  0  0  3  0  0  0  0  0  0
  190.1620  177.1820  147.8910 C   0  0  0  0  0  2  0  0  0  0  0  0
  188.8380  176.2460  135.1790 O   0  0  0  0  0  0  0  0  0  0  0  0
  189.3900  174.9370  135.2840 C   0  0  0  0  0  2  0  0  0  0  0  0
  190.8970  174.9550  135.0310 C   0  0  2  0  0  3  0  0  0  0  0  0
  192.3030  176.8450  134.7310 O   0  0  0  0  0  0  0  0  0  0  0  0
  191.3290  176.2210  134.3460 C   0  0  0  0  0  3  0  0  0  0  0  0
  191.4410  173.6900  134.3460 C   0  0  0  0  0  2  0  0  0  0  0  0
  191.8530  172.6050  135.3400 C   0  0  1  0  0  3  0  0  0  0  0  0
  191.3090  171.3690  134.9780 O   0  0  0  0  0  1  0  0  0  0  0  0
  195.9570  175.9660  134.5540 C   0  0  0  0  0  2  0  0  0  0  0  0
  195.2560  171.6980  138.4330 O   0  0  0  0  0  1  0  0  0  0  0  0
  193.3810  172.5230  135.5480 C   0  0  1  0  0  0  0  0  0  0  0  0
  193.0670  173.5360  137.7030 O   0  0  0  0  0  0  0  0  0  0  0  0
  193.8170  172.9280  136.9470 C   0  0  0  0  0  0  0  0  0  0  0  0
  195.4110  173.6980  134.7750 O   0  0  0  0  0  0  0  0  0  0  0  0
  196.1330  173.8380  137.6330 C   0  0  1  0  0  3  0  0  0  0  0  0
  195.7620  174.9170  135.3400 C   0  0  0  0  0  0  0  0  0  0  0  0
  195.2240  172.6140  137.3730 C   0  0  1  0  0  3  0  0  0  0  0  0
  193.7810  171.2020  135.3280 O   0  0  0  0  0  1  0  0  0  0  0  0
  195.7690  175.1040  136.8300 C   0  0  0  0  0  2  0  0  0  0  0  0
  194.0410  173.4050  134.4760 C   0  0  0  0  0  2  0  0  0  0  0  0
  196.1800  174.1400  138.9980 O   0  0  0  0  0  0  0  0  0  0  0  0
  197.4620  174.6570  139.1890 C   0  0  0  0  0  1  0  0  0  0  0  0
  1 13  2  0  0  0  0
  2 16  1  0  0  0  0
  2 18  1  0  0  0  0
  4  5  1  0  0  0  0
  5  9  1  0  0  0  0
  6 17  1  0  0  0  0
  6  7  1  1  0  0  0
  9  7  1  0  0  0  0
 11  4  1  6  0  0  0
 11  6  1  0  0  0  0
 12 24  2  0  0  0  0
 12 14  1  0  0  0  0
 14 21  2  0  0  0  0
 15 17  1  0  0  0  0
 15 30  1  1  0  0  0
 16 14  1  0  0  0  0
 18 19  1  0  0  0  0
 19  3  1  6  0  0  0
 19  8  1  0  0  0  0
 20 10  2  0  0  0  0
 21 10  1  0  0  0  0
 21  1  1  0  0  0  0
 22  8  1  1  0  0  0
 22 23  1  0  0  0  0
 22 11  1  0  0  0  0
 23 13  1  6  0  0  0
 23 15  1  0  0  0  0
 24 20  1  0  0  0  0
 25 29  1  0  0  0  0
 26 29  2  0  0  0  0
 26 31  1  0  0  0  0
 27 30  1  0  0  0  0
 27 28  2  0  0  0  0
 28 26  1  0  0  0  0
 30 25  2  0  0  0  0
 31 32  1  0  0  0  0
 32 33  2  0  0  0  0
 34 35  1  0  0  0  0
 34 12  1  0  0  0  0
 36 38  1  6  0  0  0
 36 35  1  0  0  0  0
 38 37  2  0  0  0  0
 39 36  1  0  0  0  0
 39 40  1  0  0  0  0
 40 41  1  6  0  0  0
 40 44  1  0  0  0  0
 42 49  2  0  0  0  0
 44 51  1  6  0  0  0
 44 46  1  0  0  0  0
 46 50  1  0  0  0  0
 46 45  2  0  0  0  0
 47 49  1  0  0  0  0
 48 54  1  1  0  0  0
 49 52  1  0  0  0  0
 50 48  1  0  0  0  0
 50 43  1  1  0  0  0
 52 48  1  0  0  0  0
 53 47  1  0  0  0  0
 53 44  1  0  0  0  0
 54 55  1  0  0  0  0
M  END
>  <MODEL>
7

>  <REMARK>
 VINA RESULT:      -5.8      2.187      3.586
  Name = 
  11 active torsions:
  status: ('A' for Active; 'I' for Inactive)
    1  A    between atoms: C_6  and  C_20
    2  A    between atoms: C_8  and  C_43
    3  A    between atoms: O_10  and  C_18
    4  A    between atoms: O_10  and  C_32
    5  A    between atoms: O_11  and  C_29
    6  A    between atoms: C_20  and  C_22
    7  A    between atoms: C_22  and  C_43
    8  A    between atoms: C_27  and  O_54
    9  A    between atoms: C_33  and  C_52
   10  A    between atoms: C_43  and  C_51
   11  A    between atoms: C_51  and  O_54
                            x       y       z     vdW  Elec       q    Type
                         _______ _______ _______ _____ _____    ______ ____

>  <TORSDO>
F 11

$$$$
=
 OpenBabel10272401353D

 55 60  0  0  1  0  0  0  0  0999 V2000
  188.7220  175.5150  137.2850 C   0  0  0  0  0  3  0  0  0  0  0  0
  189.8700  177.8810  139.4240 S   0  0  0  0  0  0  0  0  0  0  0  0
  192.9490  176.5620  138.6420 C   0  0  0  0  0  1  0  0  0  0  0  0
  193.9930  174.6480  136.2700 C   0  0  0  0  0  2  0  0  0  0  0  0
  195.1540  173.8420  135.6820 C   0  0  0  0  0  2  0  0  0  0  0  0
  192.5270  173.1700  134.8940 C   0  0  2  0  0  3  0  0  0  0  0  0
  193.8200  172.4900  134.4520 C   0  0  0  0  0  2  0  0  0  0  0  0
  191.6270  174.6610  138.0310 O   0  0  0  0  0  0  0  0  0  0  0  0
  194.8470  173.4510  134.3600 O   0  0  0  0  0  0  0  0  0  0  0  0
  186.8980  176.7100  136.0720 C   0  0  0  0  0  3  0  0  0  0  0  0
  192.7320  173.7760  136.2740 C   0  0  2  0  0  3  0  0  0  0  0  0
  186.3170  178.2280  138.3680 C   0  0  0  0  0  0  0  0  0  0  0  0
  189.1780  174.8530  136.2300 C   0  0  0  0  0  3  0  0  0  0  0  0
  187.4070  177.3220  138.3720 C   0  0  0  0  0  0  0  0  0  0  0  0
  190.3140  172.9780  135.1010 C   0  0  2  0  0  3  0  0  0  0  0  0
  188.2530  177.2280  139.4840 O   0  0  0  0  0  0  0  0  0  0  0  0
  191.4990  172.2370  134.9920 O   0  0  0  0  0  0  0  0  0  0  0  0
  190.6550  176.2410  139.5330 C   0  0  0  0  0  2  0  0  0  0  0  0
  191.5610  176.0280  138.3270 C   0  0  1  0  0  3  0  0  0  0  0  0
  185.8730  177.6550  136.0480 C   0  0  0  0  0  3  0  0  0  0  0  0
  187.6770  176.5440  137.2280 C   0  0  0  0  0  0  0  0  0  0  0  0
  191.5520  174.5590  136.6780 N   0  0  1  0  0  0  0  0  0  0  0  0
  190.2760  173.8460  136.3870 C   0  0  1  0  0  3  0  0  0  0  0  0
  185.5900  178.4080  137.1900 C   0  0  0  0  0  3  0  0  0  0  0  0
  187.8400  172.5280  135.1880 C   0  0  0  0  0  3  0  0  0  0  0  0
  186.9660  170.2600  135.0980 C   0  0  0  0  0  0  0  0  0  0  0  0
  189.3610  170.6470  135.0000 C   0  0  0  0  0  3  0  0  0  0  0  0
  188.2790  169.7670  135.0030 C   0  0  0  0  0  3  0  0  0  0  0  0
  186.7550  171.6430  135.1980 C   0  0  0  0  0  3  0  0  0  0  0  0
  189.1480  172.0330  135.0840 C   0  0  0  0  0  0  0  0  0  0  0  0
  185.8620  169.4010  135.1050 O   0  0  0  0  0  0  0  0  0  0  0  0
  184.5590  169.8520  135.3240 C   0  0  0  0  0  3  0  0  0  0  0  0
  183.5980  168.9940  135.6130 C   0  0  0  0  0  2  0  0  0  0  0  0
  185.9000  178.9530  139.4920 O   0  0  0  0  0  0  0  0  0  0  0  0
  184.5470  179.2640  139.8070 C   0  0  0  0  0  2  0  0  0  0  0  0
  183.9980  178.3120  140.8690 C   0  0  2  0  0  3  0  0  0  0  0  0
  183.1190  176.7230  139.3400 O   0  0  0  0  0  0  0  0  0  0  0  0
  182.9170  177.4270  140.3150 C   0  0  0  0  0  3  0  0  0  0  0  0
  183.5920  178.9960  142.1860 C   0  0  0  0  0  2  0  0  0  0  0  0
  184.7920  179.4170  143.0330 C   0  0  1  0  0  3  0  0  0  0  0  0
  184.5130  180.5910  143.7400 O   0  0  0  0  0  1  0  0  0  0  0  0
  189.5490  177.0940  143.8880 C   0  0  0  0  0  2  0  0  0  0  0  0
  185.0560  177.9380  147.4720 O   0  0  0  0  0  1  0  0  0  0  0  0
  185.3020  178.2930  143.9610 C   0  0  1  0  0  0  0  0  0  0  0  0
  185.9340  179.9880  145.5410 O   0  0  0  0  0  0  0  0  0  0  0  0
  185.7340  178.7970  145.3290 C   0  0  0  0  0  0  0  0  0  0  0  0
  187.2410  176.7700  144.1160 O   0  0  0  0  0  0  0  0  0  0  0  0
  187.4250  177.6700  146.9200 C   0  0  1  0  0  3  0  0  0  0  0  0
  188.4500  177.2380  144.6130 C   0  0  0  0  0  0  0  0  0  0  0  0
  185.9670  177.7870  146.4190 C   0  0  1  0  0  3  0  0  0  0  0  0
  184.2690  177.3700  144.1390 O   0  0  0  0  0  1  0  0  0  0  0  0
  188.5050  178.0390  145.8820 C   0  0  0  0  0  2  0  0  0  0  0  0
  186.4560  177.5820  143.2350 C   0  0  0  0  0  2  0  0  0  0  0  0
  187.6110  178.4220  148.0850 O   0  0  0  0  0  0  0  0  0  0  0  0
  188.8660  178.0260  148.5500 C   0  0  0  0  0  1  0  0  0  0  0  0
  2 16  1  0  0  0  0
  2 18  1  0  0  0  0
  5  4  1  0  0  0  0
  6  7  1  1  0  0  0
  6 17  1  0  0  0  0
  6 11  1  0  0  0  0
  8 19  1  0  0  0  0
  9  7  1  0  0  0  0
  9  5  1  0  0  0  0
 10 21  1  0  0  0  0
 11  4  1  6  0  0  0
 11 22  1  0  0  0  0
 12 14  1  0  0  0  0
 12 34  1  0  0  0  0
 13  1  2  0  0  0  0
 14 16  1  0  0  0  0
 15 30  1  1  0  0  0
 15 23  1  0  0  0  0
 17 15  1  0  0  0  0
 19  3  1  1  0  0  0
 19 18  1  0  0  0  0
 20 10  2  0  0  0  0
 20 24  1  0  0  0  0
 21  1  1  0  0  0  0
 21 14  2  0  0  0  0
 22  8  1  1  0  0  0
 23 13  1  6  0  0  0
 23 22  1  0  0  0  0
 24 12  2  0  0  0  0
 25 29  1  0  0  0  0
 26 31  1  0  0  0  0
 26 29  2  0  0  0  0
 27 28  2  0  0  0  0
 27 30  1  0  0  0  0
 28 26  1  0  0  0  0
 30 25  2  0  0  0  0
 31 32  1  0  0  0  0
 32 33  2  0  0  0  0
 34 35  1  0  0  0  0
 36 35  1  6  0  0  0
 36 39  1  0  0  0  0
 37 38  2  0  0  0  0
 38 36  1  0  0  0  0
 39 40  1  0  0  0  0
 40 41  1  1  0  0  0
 40 44  1  0  0  0  0
 42 49  2  0  0  0  0
 44 51  1  1  0  0  0
 44 46  1  0  0  0  0
 46 45  2  0  0  0  0
 46 50  1  0  0  0  0
 47 49  1  0  0  0  0
 48 54  1  1  0  0  0
 49 52  1  0  0  0  0
 50 48  1  0  0  0  0
 50 43  1  1  0  0  0
 52 48  1  0  0  0  0
 53 44  1  0  0  0  0
 53 47  1  0  0  0  0
 54 55  1  0  0  0  0
M  END
>  <MODEL>
8

>  <REMARK>
 VINA RESULT:      -5.8      3.153     11.474
  Name = 
  11 active torsions:
  status: ('A' for Active; 'I' for Inactive)
    1  A    between atoms: C_6  and  C_20
    2  A    between atoms: C_8  and  C_43
    3  A    between atoms: O_10  and  C_18
    4  A    between atoms: O_10  and  C_32
    5  A    between atoms: O_11  and  C_29
    6  A    between atoms: C_20  and  C_22
    7  A    between atoms: C_22  and  C_43
    8  A    between atoms: C_27  and  O_54
    9  A    between atoms: C_33  and  C_52
   10  A    between atoms: C_43  and  C_51
   11  A    between atoms: C_51  and  O_54
                            x       y       z     vdW  Elec       q    Type
                         _______ _______ _______ _____ _____    ______ ____

>  <TORSDO>
F 11

$$$$
=
 OpenBabel10272401353D

 55 60  0  0  1  0  0  0  0  0999 V2000
  185.9740  177.9500  138.4700 C   0  0  0  0  0  3  0  0  0  0  0  0
  189.2580  177.3320  139.0450 S   0  0  0  0  0  0  0  0  0  0  0  0
  188.4630  178.1620  142.2870 C   0  0  0  0  0  1  0  0  0  0  0  0
  185.6750  178.4250  143.8790 C   0  0  0  0  0  2  0  0  0  0  0  0
  184.9640  178.8190  145.1760 C   0  0  0  0  0  2  0  0  0  0  0  0
  183.4490  178.7370  142.7940 C   0  0  2  0  0  3  0  0  0  0  0  0
  182.9530  179.1220  144.1850 C   0  0  0  0  0  2  0  0  0  0  0  0
  186.6290  179.2700  141.2190 O   0  0  0  0  0  0  0  0  0  0  0  0
  183.6300  178.3560  145.1540 O   0  0  0  0  0  0  0  0  0  0  0  0
  185.3540  176.1560  136.8510 C   0  0  0  0  0  3  0  0  0  0  0  0
  184.9340  179.0520  142.6920 C   0  0  2  0  0  3  0  0  0  0  0  0
  187.9420  176.2040  135.7500 C   0  0  0  0  0  0  0  0  0  0  0  0
  184.8420  177.9120  139.1590 C   0  0  0  0  0  3  0  0  0  0  0  0
  187.6300  177.0170  136.8690 C   0  0  0  0  0  0  0  0  0  0  0  0
  183.0800  178.8650  140.5980 C   0  0  2  0  0  3  0  0  0  0  0  0
  188.6200  177.7910  137.4870 O   0  0  0  0  0  0  0  0  0  0  0  0
  182.7920  179.4850  141.8220 O   0  0  0  0  0  0  0  0  0  0  0  0
  188.5480  178.7830  139.8860 C   0  0  0  0  0  2  0  0  0  0  0  0
  187.6400  178.3230  141.0200 C   0  0  1  0  0  3  0  0  0  0  0  0
  185.6840  175.3050  135.7980 C   0  0  0  0  0  3  0  0  0  0  0  0
  186.3240  177.0090  137.3990 C   0  0  0  0  0  0  0  0  0  0  0  0
  185.4810  178.5690  141.4140 N   0  0  1  0  0  0  0  0  0  0  0  0
  184.5950  178.8960  140.2610 C   0  0  1  0  0  3  0  0  0  0  0  0
  186.9720  175.3300  135.2570 C   0  0  0  0  0  3  0  0  0  0  0  0
  182.1850  178.9530  138.2480 C   0  0  0  0  0  3  0  0  0  0  0  0
  180.8730  180.8450  137.4670 C   0  0  0  0  0  0  0  0  0  0  0  0
  181.7070  180.7990  139.7470 C   0  0  0  0  0  3  0  0  0  0  0  0
  180.9960  181.4430  138.7340 C   0  0  0  0  0  3  0  0  0  0  0  0
  181.4760  179.6030  137.2300 C   0  0  0  0  0  3  0  0  0  0  0  0
  182.2990  179.5470  139.5130 C   0  0  0  0  0  0  0  0  0  0  0  0
  180.1680  181.4680  136.4320 O   0  0  0  0  0  0  0  0  0  0  0  0
  180.6610  181.5510  135.1280 C   0  0  0  0  0  3  0  0  0  0  0  0
  180.4870  182.6510  134.4200 C   0  0  0  0  0  2  0  0  0  0  0  0
  189.1730  176.2330  135.0830 O   0  0  0  0  0  0  0  0  0  0  0  0
  189.7310  175.1460  134.3520 C   0  0  0  0  0  2  0  0  0  0  0  0
  190.9350  174.5540  135.0830 C   0  0  2  0  0  3  0  0  0  0  0  0
  189.7100  172.5620  135.4940 O   0  0  0  0  0  0  0  0  0  0  0  0
  190.5530  173.3470  135.8930 C   0  0  0  0  0  3  0  0  0  0  0  0
  191.7570  175.5760  135.8860 C   0  0  0  0  0  2  0  0  0  0  0  0
  192.6000  174.9320  136.9850 C   0  0  1  0  0  3  0  0  0  0  0  0
  191.8500  173.9910  137.6980 O   0  0  0  0  0  1  0  0  0  0  0  0
  196.8490  176.8890  134.3650 C   0  0  0  0  0  2  0  0  0  0  0  0
  196.4350  172.5030  138.1520 O   0  0  0  0  0  1  0  0  0  0  0  0
  193.9240  174.3340  136.4610 C   0  0  1  0  0  0  0  0  0  0  0  0
  194.9640  175.0350  138.5100 O   0  0  0  0  0  0  0  0  0  0  0  0
  195.0380  174.3500  137.4960 C   0  0  0  0  0  0  0  0  0  0  0  0
  195.6850  174.9100  134.8280 O   0  0  0  0  0  0  0  0  0  0  0  0
  197.5750  174.3510  137.0240 C   0  0  1  0  0  3  0  0  0  0  0  0
  196.6560  175.8450  135.1580 C   0  0  0  0  0  0  0  0  0  0  0  0
  196.2750  173.5390  137.2230 C   0  0  1  0  0  3  0  0  0  0  0  0
  193.6880  173.0080  136.0890 O   0  0  0  0  0  1  0  0  0  0  0  0
  197.3770  175.7790  136.4740 C   0  0  0  0  0  2  0  0  0  0  0  0
  194.3180  175.1200  135.2000 C   0  0  0  0  0  2  0  0  0  0  0  0
  198.3160  174.3990  138.2090 O   0  0  0  0  0  0  0  0  0  0  0  0
  199.6420  174.2870  137.7880 C   0  0  0  0  0  1  0  0  0  0  0  0
  1 13  2  0  0  0  0
  2 18  1  0  0  0  0
  4  5  1  0  0  0  0
  6  7  1  1  0  0  0
  7  9  1  0  0  0  0
  9  5  1  0  0  0  0
 10 21  1  0  0  0  0
 11  6  1  0  0  0  0
 11  4  1  1  0  0  0
 12 14  1  0  0  0  0
 14 21  2  0  0  0  0
 14 16  1  0  0  0  0
 15 30  1  6  0  0  0
 15 17  1  0  0  0  0
 16  2  1  0  0  0  0
 17  6  1  0  0  0  0
 18 19  1  0  0  0  0
 19  8  1  0  0  0  0
 19  3  1  1  0  0  0
 20 10  2  0  0  0  0
 21  1  1  0  0  0  0
 22  8  1  6  0  0  0
 22 11  1  0  0  0  0
 23 13  1  6  0  0  0
 23 15  1  0  0  0  0
 23 22  1  0  0  0  0
 24 12  2  0  0  0  0
 24 20  1  0  0  0  0
 25 30  1  0  0  0  0
 26 28  2  0  0  0  0
 28 27  1  0  0  0  0
 29 26  1  0  0  0  0
 29 25  2  0  0  0  0
 30 27  2  0  0  0  0
 31 26  1  0  0  0  0
 32 31  1  0  0  0  0
 33 32  2  0  0  0  0
 34 12  1  0  0  0  0
 35 34  1  0  0  0  0
 36 35  1  1  0  0  0
 36 39  1  0  0  0  0
 36 38  1  0  0  0  0
 37 38  2  0  0  0  0
 39 40  1  0  0  0  0
 40 41  1  6  0  0  0
 42 49  2  0  0  0  0
 44 51  1  6  0  0  0
 44 40  1  0  0  0  0
 44 46  1  0  0  0  0
 46 45  2  0  0  0  0
 47 49  1  0  0  0  0
 47 53  1  0  0  0  0
 48 50  1  0  0  0  0
 48 54  1  1  0  0  0
 49 52  1  0  0  0  0
 50 46  1  0  0  0  0
 50 43  1  1  0  0  0
 52 48  1  0  0  0  0
 53 44  1  0  0  0  0
 55 54  1  0  0  0  0
M  END
>  <MODEL>
9

>  <REMARK>
 VINA RESULT:      -5.7      1.990      5.412
  Name = 
  11 active torsions:
  status: ('A' for Active; 'I' for Inactive)
    1  A    between atoms: C_6  and  C_20
    2  A    between atoms: C_8  and  C_43
    3  A    between atoms: O_10  and  C_18
    4  A    between atoms: O_10  and  C_32
    5  A    between atoms: O_11  and  C_29
    6  A    between atoms: C_20  and  C_22
    7  A    between atoms: C_22  and  C_43
    8  A    between atoms: C_27  and  O_54
    9  A    between atoms: C_33  and  C_52
   10  A    between atoms: C_43  and  C_51
   11  A    between atoms: C_51  and  O_54
                            x       y       z     vdW  Elec       q    Type
                         _______ _______ _______ _____ _____    ______ ____

>  <TORSDO>
F 11

$$$$
