=
 OpenBabel10272413233D

 32 37  0  0  1  0  0  0  0  0999 V2000
  187.7140  177.2470  144.2110 C   0  0  0  0  0  3  0  0  0  0  0  0
  189.6950  177.4780  139.5430 C   0  0  0  0  0  0  0  0  0  0  0  0
  185.4520  177.5020  136.9570 C   0  0  0  0  0  3  0  0  0  0  0  0
  186.1410  177.0570  135.9070 C   0  0  0  0  0  3  0  0  0  0  0  0
  191.3900  176.1040  138.2410 C   0  0  1  0  0  3  0  0  0  0  0  0
  192.8230  176.6360  138.4250 C   0  0  2  0  0  3  0  0  0  0  0  0
  189.7030  177.7690  141.9260 C   0  0  0  0  0  0  0  0  0  0  0  0
  187.5990  178.1170  140.6120 C   0  0  0  0  0  3  0  0  0  0  0  0
  192.2810  174.7300  136.2040 C   0  0  1  0  0  3  0  0  0  0  0  0
  187.4720  177.3110  142.9020 C   0  0  0  0  0  3  0  0  0  0  0  0
  186.1450  178.1110  138.1430 C   0  0  0  0  0  2  0  0  0  0  0  0
  188.2560  177.8080  139.4860 C   0  0  0  0  0  0  0  0  0  0  0  0
  187.5600  177.7140  138.2290 N   0  0  0  0  0  0  0  0  0  0  0  0
  189.7960  177.4170  137.0090 C   0  0  2  0  0  3  0  0  0  0  0  0
  193.5860  174.7510  136.9660 C   0  0  0  0  0  3  0  0  0  0  0  0
  190.0230  178.1420  144.3860 C   0  0  0  0  0  3  0  0  0  0  0  0
  188.2500  178.1720  141.9650 C   0  0  0  0  0  0  0  0  0  0  0  0
  193.8310  175.6030  137.9790 C   0  0  0  0  0  3  0  0  0  0  0  0
  190.4710  177.8280  143.0140 C   0  0  0  0  0  3  0  0  0  0  0  0
  188.8080  177.9370  144.9230 C   0  0  0  0  0  0  0  0  0  0  0  0
  187.6090  177.0690  135.9130 C   0  0  0  0  0  3  0  0  0  0  0  0
  188.2850  177.3510  137.0330 C   0  0  0  0  0  0  0  0  0  0  0  0
  190.4210  176.3830  136.1240 C   0  0  0  0  0  3  0  0  0  0  0  0
  190.3270  177.4530  140.6770 N   0  0  0  0  0  2  0  0  0  0  0  0
  193.1080  176.9990  139.8680 C   0  0  0  0  0  1  0  0  0  0  0  0
  191.7760  173.4440  136.1640 F   0  0  0  0  0  0  0  0  0  0  0  0
  190.3830  177.1580  138.3260 N   0  0  0  0  0  0  0  0  0  0  0  0
  191.2780  175.6550  136.8260 C   0  0  0  0  0  0  0  0  0  0  0  0
  189.0130  177.5230  147.4530 C   0  0  0  0  0  0  0  0  0  0  0  0
  188.5670  178.2540  146.3020 N   0  0  0  0  0  2  0  0  0  0  0  0
  189.7430  176.5030  147.3410 O   0  0  0  0  0  0  0  0  0  0  0  0
  188.6150  177.9880  148.8080 C   0  0  0  0  0  1  0  0  0  0  0  0
  1 20  1  0  0  0  0
  2 24  1  0  0  0  0
  3 11  1  0  0  0  0
  4 21  1  0  0  0  0
  4  3  2  0  0  0  0
  5 28  1  6  0  0  0
  5 27  1  0  0  0  0
  5  6  1  0  0  0  0
  6 25  1  1  0  0  0
  7 17  1  0  0  0  0
  7 19  2  0  0  0  0
  8 17  2  0  0  0  0
  9 26  1  1  0  0  0
  9 28  1  0  0  0  0
  9 15  1  0  0  0  0
 10  1  2  0  0  0  0
 11 13  1  0  0  0  0
 12  2  2  0  0  0  0
 12  8  1  0  0  0  0
 13 12  1  0  0  0  0
 14 23  1  6  0  0  0
 14 22  1  0  0  0  0
 14 27  1  0  0  0  0
 15 18  2  0  0  0  0
 16 20  2  0  0  0  0
 17 10  1  0  0  0  0
 18  6  1  0  0  0  0
 19 16  1  0  0  0  0
 20 30  1  0  0  0  0
 21 22  2  0  0  0  0
 22 13  1  0  0  0  0
 23 28  2  0  0  0  0
 24  7  1  0  0  0  0
 27  2  1  0  0  0  0
 29 32  1  0  0  0  0
 30 29  1  0  0  0  0
 31 29  2  0  0  0  0
M  END
>  <MODEL>
1

>  <REMARK>
 VINA RESULT:     -10.0      0.000      0.000
  Name = 
  1 active torsions:
  status: ('A' for Active; 'I' for Inactive)
    1  A    between atoms: N_10  and  C_24
                            x       y       z     vdW  Elec       q    Type
                         _______ _______ _______ _____ _____    ______ ____

>  <TORSDO>
F 1

$$$$
=
 OpenBabel10272413233D

 32 37  0  0  1  0  0  0  0  0999 V2000
  189.5010  176.6330  144.9900 C   0  0  0  0  0  3  0  0  0  0  0  0
  188.7990  177.6460  140.0660 C   0  0  0  0  0  0  0  0  0  0  0  0
  183.9880  178.8740  140.2590 C   0  0  0  0  0  3  0  0  0  0  0  0
  183.9090  178.5880  138.9600 C   0  0  0  0  0  3  0  0  0  0  0  0
  189.1910  176.3810  137.8980 C   0  0  1  0  0  3  0  0  0  0  0  0
  190.5950  176.6450  137.3250 C   0  0  2  0  0  3  0  0  0  0  0  0
  190.0970  177.3770  142.0680 C   0  0  0  0  0  0  0  0  0  0  0  0
  187.7770  178.3160  142.1760 C   0  0  0  0  0  3  0  0  0  0  0  0
  188.5440  175.4000  135.5630 C   0  0  1  0  0  3  0  0  0  0  0  0
  188.6470  177.0310  144.0480 C   0  0  0  0  0  3  0  0  0  0  0  0
  185.3150  179.0880  140.9310 C   0  0  0  0  0  2  0  0  0  0  0  0
  187.6660  178.1840  140.8470 C   0  0  0  0  0  0  0  0  0  0  0  0
  186.4260  178.4820  140.1790 N   0  0  0  0  0  0  0  0  0  0  0  0
  187.5700  178.1570  137.9060 C   0  0  2  0  0  3  0  0  0  0  0  0
  190.0140  175.0570  135.4790 C   0  0  0  0  0  3  0  0  0  0  0  0
  191.7110  177.1230  143.9700 C   0  0  0  0  0  3  0  0  0  0  0  0
  189.0190  177.9640  142.9440 C   0  0  0  0  0  0  0  0  0  0  0  0
  190.9440  175.6090  136.2820 C   0  0  0  0  0  3  0  0  0  0  0  0
  191.3010  177.0730  142.5530 C   0  0  0  0  0  3  0  0  0  0  0  0
  190.9350  176.9770  145.0590 C   0  0  0  0  0  0  0  0  0  0  0  0
  185.1230  178.3880  138.1600 C   0  0  0  0  0  3  0  0  0  0  0  0
  186.3220  178.3040  138.7480 C   0  0  0  0  0  0  0  0  0  0  0  0
  187.3780  177.2760  136.7100 C   0  0  0  0  0  3  0  0  0  0  0  0
  189.8940  177.2710  140.6550 N   0  0  0  0  0  2  0  0  0  0  0  0
  191.6580  176.6210  138.4050 C   0  0  0  0  0  1  0  0  0  0  0  0
  187.7940  174.2440  135.6580 F   0  0  0  0  0  0  0  0  0  0  0  0
  188.6640  177.5200  138.6430 N   0  0  0  0  0  0  0  0  0  0  0  0
  188.2640  176.2910  136.7360 C   0  0  0  0  0  0  0  0  0  0  0  0
  192.1950  175.9240  147.0390 C   0  0  0  0  0  0  0  0  0  0  0  0
  191.5210  176.9990  146.3690 N   0  0  0  0  0  2  0  0  0  0  0  0
  192.3850  174.8150  146.4730 O   0  0  0  0  0  0  0  0  0  0  0  0
  192.6930  176.1290  148.4240 C   0  0  0  0  0  1  0  0  0  0  0  0
  1 20  1  0  0  0  0
  2 24  1  0  0  0  0
  2 12  2  0  0  0  0
  3 11  1  0  0  0  0
  4  3  2  0  0  0  0
  5 28  1  6  0  0  0
  5 27  1  0  0  0  0
  6  5  1  0  0  0  0
  6 25  1  1  0  0  0
  7 19  2  0  0  0  0
  7 17  1  0  0  0  0
  8 17  2  0  0  0  0
  9 26  1  1  0  0  0
  9 28  1  0  0  0  0
 10  1  2  0  0  0  0
 12  8  1  0  0  0  0
 13 12  1  0  0  0  0
 13 11  1  0  0  0  0
 14 23  1  6  0  0  0
 14 27  1  0  0  0  0
 14 22  1  0  0  0  0
 15  9  1  0  0  0  0
 15 18  2  0  0  0  0
 16 20  2  0  0  0  0
 17 10  1  0  0  0  0
 18  6  1  0  0  0  0
 19 16  1  0  0  0  0
 20 30  1  0  0  0  0
 21 22  2  0  0  0  0
 21  4  1  0  0  0  0
 22 13  1  0  0  0  0
 23 28  2  0  0  0  0
 24  7  1  0  0  0  0
 27  2  1  0  0  0  0
 29 32  1  0  0  0  0
 30 29  1  0  0  0  0
 31 29  2  0  0  0  0
M  END
>  <MODEL>
2

>  <REMARK>
 VINA RESULT:      -9.6      1.977      2.796
  Name = 
  1 active torsions:
  status: ('A' for Active; 'I' for Inactive)
    1  A    between atoms: N_10  and  C_24
                            x       y       z     vdW  Elec       q    Type
                         _______ _______ _______ _____ _____    ______ ____

>  <TORSDO>
F 1

$$$$
=
 OpenBabel10272413233D

 32 37  0  0  1  0  0  0  0  0999 V2000
  189.0670  178.6960  138.8460 C   0  0  0  0  0  3  0  0  0  0  0  0
  188.2470  177.2380  143.6390 C   0  0  0  0  0  0  0  0  0  0  0  0
  183.6990  179.1570  144.2100 C   0  0  0  0  0  3  0  0  0  0  0  0
  183.9060  179.1400  145.5260 C   0  0  0  0  0  3  0  0  0  0  0  0
  189.4880  177.5150  145.8380 C   0  0  1  0  0  3  0  0  0  0  0  0
  190.4700  176.3580  146.0920 C   0  0  2  0  0  3  0  0  0  0  0  0
  189.2880  177.1240  141.4790 C   0  0  2  0  0  3  0  0  0  0  0  0
  186.8810  177.7820  141.6940 C   0  0  0  0  0  3  0  0  0  0  0  0
  189.7510  178.1460  148.3610 C   0  0  1  0  0  3  0  0  0  0  0  0
  188.2200  178.6810  139.8740 C   0  0  0  0  0  3  0  0  0  0  0  0
  184.5620  178.3570  143.2750 C   0  0  0  0  0  2  0  0  0  0  0  0
  186.9710  177.6590  143.0250 C   0  0  0  0  0  0  0  0  0  0  0  0
  185.8610  178.0090  143.8730 N   0  0  0  0  0  0  0  0  0  0  0  0
  187.1230  177.0890  145.9080 C   0  0  2  0  0  3  0  0  0  0  0  0
  191.1220  177.5290  148.2060 C   0  0  0  0  0  3  0  0  0  0  0  0
  190.5760  176.7900  139.3520 C   0  0  0  0  0  3  0  0  0  0  0  0
  188.0180  177.4940  140.7550 C   0  0  0  0  0  0  0  0  0  0  0  0
  191.4560  176.7290  147.1760 C   0  0  0  0  0  3  0  0  0  0  0  0
  190.3860  176.7590  140.8160 C   0  0  0  0  0  3  0  0  0  0  0  0
  189.9780  177.6000  138.4610 C   0  0  0  0  0  0  0  0  0  0  0  0
  185.0400  178.4050  146.0980 C   0  0  0  0  0  3  0  0  0  0  0  0
  185.9910  177.8940  145.3080 C   0  0  0  0  0  0  0  0  0  0  0  0
  187.5990  177.6250  147.2230 C   0  0  0  0  0  3  0  0  0  0  0  0
  189.2950  177.0160  142.9060 N   0  0  0  0  0  0  0  0  0  0  0  0
  191.2420  175.9890  144.8420 C   0  0  0  0  0  1  0  0  0  0  0  0
  189.8650  179.5080  148.5630 F   0  0  0  0  0  0  0  0  0  0  0  0
  188.3210  177.1030  145.0650 N   0  0  0  0  0  0  0  0  0  0  0  0
  188.8990  177.8750  147.1580 C   0  0  0  0  0  0  0  0  0  0  0  0
  189.6590  176.7850  136.0420 C   0  0  0  0  0  0  0  0  0  0  0  0
  190.3300  177.5260  137.0710 N   0  0  0  0  0  2  0  0  0  0  0  0
  188.6070  176.1360  136.2800 O   0  0  0  0  0  0  0  0  0  0  0  0
  190.2110  176.7960  134.6610 C   0  0  0  0  0  1  0  0  0  0  0  0
  1 10  1  0  0  0  0
  2 27  1  0  0  0  0
  3  4  2  0  0  0  0
  4 21  1  0  0  0  0
  5  6  1  0  0  0  0
  5 28  1  1  0  0  0
  6 25  1  6  0  0  0
  6 18  1  0  0  0  0
  7 19  1  6  0  0  0
  7 24  1  0  0  0  0
  8 12  2  0  0  0  0
  9 26  1  6  0  0  0
 10 17  2  0  0  0  0
 11 13  1  0  0  0  0
 11  3  1  0  0  0  0
 12  2  1  0  0  0  0
 12 13  1  0  0  0  0
 13 22  1  0  0  0  0
 14 23  1  1  0  0  0
 15  9  1  0  0  0  0
 16 19  2  0  0  0  0
 17  7  1  0  0  0  0
 17  8  1  0  0  0  0
 18 15  2  0  0  0  0
 20  1  2  0  0  0  0
 20 16  1  0  0  0  0
 22 14  1  0  0  0  0
 22 21  2  0  0  0  0
 24  2  2  0  0  0  0
 27  5  1  0  0  0  0
 27 14  1  0  0  0  0
 28 23  2  0  0  0  0
 28  9  1  0  0  0  0
 29 31  2  0  0  0  0
 29 30  1  0  0  0  0
 30 20  1  0  0  0  0
 32 29  1  0  0  0  0
M  END
>  <MODEL>
3

>  <REMARK>
 VINA RESULT:      -9.5      3.812      8.400
  Name = 
  1 active torsions:
  status: ('A' for Active; 'I' for Inactive)
    1  A    between atoms: N_10  and  C_24
                            x       y       z     vdW  Elec       q    Type
                         _______ _______ _______ _____ _____    ______ ____

>  <TORSDO>
F 1

$$$$
=
 OpenBabel10272413233D

 32 37  0  0  1  0  0  0  0  0999 V2000
  190.2490  176.3310  140.5300 C   0  0  0  0  0  3  0  0  0  0  0  0
  185.9710  178.7520  141.7960 C   0  0  0  0  0  0  0  0  0  0  0  0
  186.1400  177.9980  146.7050 C   0  0  0  0  0  3  0  0  0  0  0  0
  184.8230  178.2000  146.7360 C   0  0  0  0  0  3  0  0  0  0  0  0
  183.5410  178.6030  141.0710 C   0  0  1  0  0  3  0  0  0  0  0  0
  183.2350  179.5460  139.8930 C   0  0  2  0  0  3  0  0  0  0  0  0
  187.8560  178.2550  140.3950 C   0  0  2  0  0  3  0  0  0  0  0  0
  188.0760  178.1840  142.8890 C   0  0  0  0  0  3  0  0  0  0  0  0
  180.9610  178.3850  141.4230 C   0  0  1  0  0  3  0  0  0  0  0  0
  189.4370  176.7100  141.5150 C   0  0  0  0  0  3  0  0  0  0  0  0
  186.9650  178.4130  145.5200 C   0  0  0  0  0  2  0  0  0  0  0  0
  186.7840  178.5170  143.0080 C   0  0  0  0  0  0  0  0  0  0  0  0
  186.1530  178.5710  144.3010 N   0  0  0  0  0  0  0  0  0  0  0  0
  184.0330  179.5380  143.2310 C   0  0  2  0  0  3  0  0  0  0  0  0
  180.8970  178.6520  139.9360 C   0  0  0  0  0  3  0  0  0  0  0  0
  189.6840  177.9220  138.7100 C   0  0  0  0  0  3  0  0  0  0  0  0
  188.7800  178.0480  141.5680 C   0  0  0  0  0  0  0  0  0  0  0  0
  181.9280  179.1660  139.2380 C   0  0  0  0  0  3  0  0  0  0  0  0
  188.3110  178.2510  139.1410 C   0  0  0  0  0  3  0  0  0  0  0  0
  190.5700  177.1170  139.3230 C   0  0  0  0  0  0  0  0  0  0  0  0
  184.1220  178.7600  145.5740 C   0  0  0  0  0  3  0  0  0  0  0  0
  184.7510  178.9060  144.4020 C   0  0  0  0  0  0  0  0  0  0  0  0
  182.5880  179.1520  143.1420 C   0  0  0  0  0  3  0  0  0  0  0  0
  186.4870  178.6090  140.6130 N   0  0  0  0  0  0  0  0  0  0  0  0
  184.3290  179.5120  138.8460 C   0  0  0  0  0  1  0  0  0  0  0  0
  180.5650  177.0870  141.6870 F   0  0  0  0  0  0  0  0  0  0  0  0
  184.5920  179.1160  141.9440 N   0  0  0  0  0  0  0  0  0  0  0  0
  182.3420  178.6180  141.9540 C   0  0  0  0  0  0  0  0  0  0  0  0
  192.2950  175.6560  138.0960 C   0  0  0  0  0  0  0  0  0  0  0  0
  191.8510  176.8670  138.7230 N   0  0  0  0  0  2  0  0  0  0  0  0
  191.5310  174.6640  137.9670 O   0  0  0  0  0  0  0  0  0  0  0  0
  193.6860  175.5760  137.5750 C   0  0  0  0  0  1  0  0  0  0  0  0
  1 10  1  0  0  0  0
  2 27  1  0  0  0  0
  2 12  1  0  0  0  0
  3  4  2  0  0  0  0
  5 27  1  0  0  0  0
  5 28  1  1  0  0  0
  6 25  1  6  0  0  0
  6  5  1  0  0  0  0
  7 19  1  6  0  0  0
  7 24  1  0  0  0  0
  7 17  1  0  0  0  0
  8 12  2  0  0  0  0
  9 26  1  6  0  0  0
  9 28  1  0  0  0  0
 10 17  2  0  0  0  0
 11  3  1  0  0  0  0
 12 13  1  0  0  0  0
 13 22  1  0  0  0  0
 13 11  1  0  0  0  0
 14 23  1  6  0  0  0
 14 22  1  0  0  0  0
 15  9  1  0  0  0  0
 16 19  2  0  0  0  0
 16 20  1  0  0  0  0
 17  8  1  0  0  0  0
 18  6  1  0  0  0  0
 18 15  2  0  0  0  0
 20  1  2  0  0  0  0
 21  4  1  0  0  0  0
 22 21  2  0  0  0  0
 24  2  2  0  0  0  0
 27 14  1  0  0  0  0
 28 23  2  0  0  0  0
 29 30  1  0  0  0  0
 30 20  1  0  0  0  0
 31 29  2  0  0  0  0
 32 29  1  0  0  0  0
M  END
>  <MODEL>
4

>  <REMARK>
 VINA RESULT:      -9.1      4.248      8.647
  Name = 
  1 active torsions:
  status: ('A' for Active; 'I' for Inactive)
    1  A    between atoms: N_10  and  C_24
                            x       y       z     vdW  Elec       q    Type
                         _______ _______ _______ _____ _____    ______ ____

>  <TORSDO>
F 1

$$$$
=
 OpenBabel10272413233D

 32 37  0  0  1  0  0  0  0  0999 V2000
  190.4850  175.9890  138.8330 C   0  0  0  0  0  3  0  0  0  0  0  0
  186.6280  178.5260  140.9450 C   0  0  0  0  0  0  0  0  0  0  0  0
  187.5390  177.4000  145.6980 C   0  0  0  0  0  3  0  0  0  0  0  0
  186.2600  177.6670  145.9600 C   0  0  0  0  0  3  0  0  0  0  0  0
  184.1080  178.5570  140.6230 C   0  0  1  0  0  3  0  0  0  0  0  0
  183.6760  179.6000  139.5770 C   0  0  2  0  0  3  0  0  0  0  0  0
  188.2270  178.0390  139.2210 C   0  0  2  0  0  3  0  0  0  0  0  0
  188.8420  177.7700  141.6350 C   0  0  0  0  0  3  0  0  0  0  0  0
  181.6100  178.4460  141.3820 C   0  0  1  0  0  3  0  0  0  0  0  0
  189.8670  176.3350  139.9620 C   0  0  0  0  0  3  0  0  0  0  0  0
  188.1870  177.8600  144.4230 C   0  0  0  0  0  2  0  0  0  0  0  0
  187.6090  178.1600  141.9870 C   0  0  0  0  0  0  0  0  0  0  0  0
  187.2010  178.1500  143.3680 N   0  0  0  0  0  0  0  0  0  0  0  0
  185.0000  179.3020  142.7290 C   0  0  2  0  0  3  0  0  0  0  0  0
  181.3250  178.8260  139.9470 C   0  0  0  0  0  3  0  0  0  0  0  0
  189.7350  177.7390  137.2390 C   0  0  0  0  0  3  0  0  0  0  0  0
  189.3140  177.6970  140.2100 C   0  0  0  0  0  0  0  0  0  0  0  0
  182.2590  179.3370  139.1230 C   0  0  0  0  0  3  0  0  0  0  0  0
  188.4730  178.1050  137.9120 C   0  0  0  0  0  3  0  0  0  0  0  0
  190.6560  176.8460  137.6430 C   0  0  0  0  0  0  0  0  0  0  0  0
  185.4180  178.3470  144.9690 C   0  0  0  0  0  3  0  0  0  0  0  0
  185.8570  178.5470  143.7210 C   0  0  0  0  0  0  0  0  0  0  0  0
  183.5390  178.9980  142.8550 C   0  0  0  0  0  3  0  0  0  0  0  0
  186.9360  178.4450  139.6860 N   0  0  0  0  0  0  0  0  0  0  0  0
  184.5820  179.5880  138.3630 C   0  0  0  0  0  1  0  0  0  0  0  0
  181.1810  177.1550  141.6240 F   0  0  0  0  0  0  0  0  0  0  0  0
  185.3170  178.9490  141.3430 N   0  0  0  0  0  0  0  0  0  0  0  0
  183.0710  178.5670  141.6920 C   0  0  0  0  0  0  0  0  0  0  0  0
  193.1810  176.5930  137.2270 C   0  0  0  0  0  0  0  0  0  0  0  0
  191.8040  176.5760  136.8250 N   0  0  0  0  0  2  0  0  0  0  0  0
  193.5140  176.8120  138.4210 O   0  0  0  0  0  0  0  0  0  0  0  0
  194.2370  176.3330  136.2130 C   0  0  0  0  0  1  0  0  0  0  0  0
  1 10  1  0  0  0  0
  2 27  1  0  0  0  0
  2 12  1  0  0  0  0
  3  4  2  0  0  0  0
  5 27  1  0  0  0  0
  5 28  1  1  0  0  0
  6 25  1  6  0  0  0
  6  5  1  0  0  0  0
  7 19  1  1  0  0  0
  7 24  1  0  0  0  0
  7 17  1  0  0  0  0
  8 12  2  0  0  0  0
  9 26  1  6  0  0  0
  9 28  1  0  0  0  0
 10 17  2  0  0  0  0
 11  3  1  0  0  0  0
 12 13  1  0  0  0  0
 13 22  1  0  0  0  0
 13 11  1  0  0  0  0
 14 23  1  1  0  0  0
 14 22  1  0  0  0  0
 15  9  1  0  0  0  0
 16 20  1  0  0  0  0
 16 19  2  0  0  0  0
 17  8  1  0  0  0  0
 18  6  1  0  0  0  0
 18 15  2  0  0  0  0
 20  1  2  0  0  0  0
 21  4  1  0  0  0  0
 22 21  2  0  0  0  0
 24  2  2  0  0  0  0
 27 14  1  0  0  0  0
 28 23  2  0  0  0  0
 29 31  2  0  0  0  0
 30 29  1  0  0  0  0
 30 20  1  0  0  0  0
 32 29  1  0  0  0  0
M  END
>  <MODEL>
5

>  <REMARK>
 VINA RESULT:      -9.0      3.830      8.514
  Name = 
  1 active torsions:
  status: ('A' for Active; 'I' for Inactive)
    1  A    between atoms: N_10  and  C_24
                            x       y       z     vdW  Elec       q    Type
                         _______ _______ _______ _____ _____    ______ ____

>  <TORSDO>
F 1

$$$$
=
 OpenBabel10272413233D

 32 37  0  0  1  0  0  0  0  0999 V2000
  187.6640  176.8530  145.4030 C   0  0  0  0  0  3  0  0  0  0  0  0
  185.3990  178.5580  141.1930 C   0  0  0  0  0  0  0  0  0  0  0  0
  180.7520  178.8340  142.9330 C   0  0  0  0  0  3  0  0  0  0  0  0
  180.3240  178.7680  141.6730 C   0  0  0  0  0  3  0  0  0  0  0  0
  185.2780  177.7810  138.7770 C   0  0  1  0  0  3  0  0  0  0  0  0
  186.4020  178.3920  137.9210 C   0  0  2  0  0  3  0  0  0  0  0  0
  187.2590  178.1880  142.6640 C   0  0  0  0  0  0  0  0  0  0  0  0
  184.9810  178.6550  143.5940 C   0  0  0  0  0  3  0  0  0  0  0  0
  184.0900  177.1180  136.5460 C   0  0  1  0  0  3  0  0  0  0  0  0
  186.5250  177.2460  144.8350 C   0  0  0  0  0  3  0  0  0  0  0  0
  182.1820  179.1670  143.2550 C   0  0  0  0  0  2  0  0  0  0  0  0
  184.4940  178.7360  142.3480 C   0  0  0  0  0  0  0  0  0  0  0  0
  183.0840  178.9140  142.1180 N   0  0  0  0  0  0  0  0  0  0  0  0
  183.5250  179.2020  139.6080 C   0  0  2  0  0  3  0  0  0  0  0  0
  185.4980  177.0690  135.9980 C   0  0  0  0  0  3  0  0  0  0  0  0
  189.3880  177.9080  143.9610 C   0  0  0  0  0  3  0  0  0  0  0  0
  186.4300  178.4070  143.9040 C   0  0  0  0  0  0  0  0  0  0  0  0
  186.5490  177.6340  136.6230 C   0  0  0  0  0  3  0  0  0  0  0  0
  188.5820  178.0300  142.7300 C   0  0  0  0  0  3  0  0  0  0  0  0
  188.9980  177.4350  145.1580 C   0  0  0  0  0  0  0  0  0  0  0  0
  181.2580  178.9350  140.5530 C   0  0  0  0  0  3  0  0  0  0  0  0
  182.5790  178.9710  140.7650 C   0  0  0  0  0  0  0  0  0  0  0  0
  183.0950  178.5220  138.3450 C   0  0  0  0  0  3  0  0  0  0  0  0
  186.6570  178.2930  141.3700 N   0  0  0  0  0  2  0  0  0  0  0  0
  187.7330  178.3760  138.6440 C   0  0  0  0  0  1  0  0  0  0  0  0
  183.5530  175.8450  136.5840 F   0  0  0  0  0  0  0  0  0  0  0  0
  184.8610  178.6580  139.8670 N   0  0  0  0  0  0  0  0  0  0  0  0
  184.0650  177.7260  137.9160 C   0  0  0  0  0  0  0  0  0  0  0  0
  191.1830  176.6160  146.2410 C   0  0  0  0  0  0  0  0  0  0  0  0
  189.9420  177.3370  146.2360 N   0  0  0  0  0  2  0  0  0  0  0  0
  191.5960  176.0110  145.2170 O   0  0  0  0  0  0  0  0  0  0  0  0
  192.0040  176.5930  147.4810 C   0  0  0  0  0  1  0  0  0  0  0  0
  2 24  1  0  0  0  0
  2 12  2  0  0  0  0
  3 11  1  0  0  0  0
  4  3  2  0  0  0  0
  5 28  1  6  0  0  0
  5 27  1  0  0  0  0
  6 25  1  1  0  0  0
  6  5  1  0  0  0  0
  7 19  2  0  0  0  0
  7 17  1  0  0  0  0
  8 17  2  0  0  0  0
  9 26  1  1  0  0  0
  9 28  1  0  0  0  0
 10  1  2  0  0  0  0
 12  8  1  0  0  0  0
 13 12  1  0  0  0  0
 13 11  1  0  0  0  0
 14 23  1  6  0  0  0
 14 27  1  0  0  0  0
 14 22  1  0  0  0  0
 15  9  1  0  0  0  0
 15 18  2  0  0  0  0
 16 20  2  0  0  0  0
 17 10  1  0  0  0  0
 18  6  1  0  0  0  0
 19 16  1  0  0  0  0
 20  1  1  0  0  0  0
 20 30  1  0  0  0  0
 21 22  2  0  0  0  0
 21  4  1  0  0  0  0
 22 13  1  0  0  0  0
 24  7  1  0  0  0  0
 27  2  1  0  0  0  0
 28 23  2  0  0  0  0
 29 32  1  0  0  0  0
 30 29  1  0  0  0  0
 31 29  2  0  0  0  0
M  END
>  <MODEL>
6

>  <REMARK>
 VINA RESULT:      -8.9      3.709      5.748
  Name = 
  1 active torsions:
  status: ('A' for Active; 'I' for Inactive)
    1  A    between atoms: N_10  and  C_24
                            x       y       z     vdW  Elec       q    Type
                         _______ _______ _______ _____ _____    ______ ____

>  <TORSDO>
F 1

$$$$
=
 OpenBabel10272413233D

 32 37  0  0  1  0  0  0  0  0999 V2000
  187.4600  177.1170  144.8110 C   0  0  0  0  0  3  0  0  0  0  0  0
  187.3650  178.0440  139.8210 C   0  0  0  0  0  0  0  0  0  0  0  0
  182.4500  178.5180  139.2670 C   0  0  0  0  0  3  0  0  0  0  0  0
  182.6130  178.2320  137.9760 C   0  0  0  0  0  3  0  0  0  0  0  0
  188.2700  176.8690  137.7580 C   0  0  1  0  0  3  0  0  0  0  0  0
  189.6870  177.3490  137.4000 C   0  0  2  0  0  3  0  0  0  0  0  0
  188.3710  177.9640  142.0000 C   0  0  0  0  0  0  0  0  0  0  0  0
  185.9460  178.5350  141.7420 C   0  0  0  0  0  3  0  0  0  0  0  0
  188.1410  175.8160  135.3700 C   0  0  1  0  0  3  0  0  0  0  0  0
  186.7080  177.3860  143.7450 C   0  0  0  0  0  3  0  0  0  0  0  0
  183.6110  178.9280  140.1280 C   0  0  0  0  0  2  0  0  0  0  0  0
  186.0580  178.3960  140.4140 C   0  0  0  0  0  0  0  0  0  0  0  0
  184.9030  178.5050  139.5620 N   0  0  0  0  0  0  0  0  0  0  0  0
  186.4140  178.3750  137.4930 C   0  0  2  0  0  3  0  0  0  0  0  0
  189.6420  175.7040  135.5140 C   0  0  0  0  0  3  0  0  0  0  0  0
  189.6980  177.9470  144.1280 C   0  0  0  0  0  3  0  0  0  0  0  0
  187.0960  178.3720  142.6950 C   0  0  0  0  0  0  0  0  0  0  0  0
  190.3440  176.3860  136.4380 C   0  0  0  0  0  3  0  0  0  0  0  0
  189.5200  177.8450  142.6660 C   0  0  0  0  0  3  0  0  0  0  0  0
  188.7980  177.6760  145.0900 C   0  0  0  0  0  0  0  0  0  0  0  0
  183.9510  178.2260  137.3720 C   0  0  0  0  0  3  0  0  0  0  0  0
  185.0450  178.3230  138.1350 C   0  0  0  0  0  0  0  0  0  0  0  0
  186.5410  177.4830  136.2960 C   0  0  0  0  0  3  0  0  0  0  0  0
  188.4020  177.8370  140.5750 N   0  0  0  0  0  2  0  0  0  0  0  0
  190.5650  177.4810  138.6270 C   0  0  0  0  0  1  0  0  0  0  0  0
  187.5700  174.5580  135.3700 F   0  0  0  0  0  0  0  0  0  0  0  0
  187.4680  177.9080  138.3970 N   0  0  0  0  0  0  0  0  0  0  0  0
  187.5540  176.6460  136.4720 C   0  0  0  0  0  0  0  0  0  0  0  0
  188.3230  178.1410  147.5750 C   0  0  0  0  0  0  0  0  0  0  0  0
  189.1680  177.7790  146.4730 N   0  0  0  0  0  2  0  0  0  0  0  0
  187.0950  178.3640  147.4140 O   0  0  0  0  0  0  0  0  0  0  0  0
  188.9100  178.2410  148.9370 C   0  0  0  0  0  1  0  0  0  0  0  0
  1 20  1  0  0  0  0
  2 12  2  0  0  0  0
  2 24  1  0  0  0  0
  3 11  1  0  0  0  0
  4  3  2  0  0  0  0
  5 28  1  6  0  0  0
  5 27  1  0  0  0  0
  6  5  1  0  0  0  0
  6 25  1  1  0  0  0
  7 19  2  0  0  0  0
  7 17  1  0  0  0  0
  8 17  2  0  0  0  0
  9 26  1  1  0  0  0
  9 15  1  0  0  0  0
  9 28  1  0  0  0  0
 10  1  2  0  0  0  0
 12  8  1  0  0  0  0
 13 11  1  0  0  0  0
 13 12  1  0  0  0  0
 14 23  1  6  0  0  0
 14 22  1  0  0  0  0
 14 27  1  0  0  0  0
 15 18  2  0  0  0  0
 16 20  2  0  0  0  0
 17 10  1  0  0  0  0
 18  6  1  0  0  0  0
 19 16  1  0  0  0  0
 20 30  1  0  0  0  0
 21  4  1  0  0  0  0
 21 22  2  0  0  0  0
 22 13  1  0  0  0  0
 23 28  2  0  0  0  0
 24  7  1  0  0  0  0
 27  2  1  0  0  0  0
 29 32  1  0  0  0  0
 30 29  1  0  0  0  0
 31 29  2  0  0  0  0
M  END
>  <MODEL>
7

>  <REMARK>
 VINA RESULT:      -8.5      1.845      2.946
  Name = 
  1 active torsions:
  status: ('A' for Active; 'I' for Inactive)
    1  A    between atoms: N_10  and  C_24
                            x       y       z     vdW  Elec       q    Type
                         _______ _______ _______ _____ _____    ______ ____

>  <TORSDO>
F 1

$$$$
=
 OpenBabel10272413233D

 32 37  0  0  1  0  0  0  0  0999 V2000
  183.9310  178.0240  142.7150 C   0  0  0  0  0  3  0  0  0  0  0  0
  188.9640  177.8130  143.3450 C   0  0  0  0  0  0  0  0  0  0  0  0
  190.2640  177.2350  138.5840 C   0  0  0  0  0  3  0  0  0  0  0  0
  191.4140  176.7110  139.0090 C   0  0  0  0  0  3  0  0  0  0  0  0
  190.5400  176.4080  144.7570 C   0  0  1  0  0  3  0  0  0  0  0  0
  190.8130  177.0530  146.1270 C   0  0  2  0  0  3  0  0  0  0  0  0
  186.7170  178.3950  143.9600 C   0  0  0  0  0  0  0  0  0  0  0  0
  187.4260  178.4370  141.5590 C   0  0  0  0  0  3  0  0  0  0  0  0
  192.5970  174.8570  145.2010 C   0  0  1  0  0  3  0  0  0  0  0  0
  185.1210  177.9110  142.1270 C   0  0  0  0  0  3  0  0  0  0  0  0
  189.3830  178.0300  139.5050 C   0  0  0  0  0  2  0  0  0  0  0  0
  188.6530  178.0370  141.9180 C   0  0  0  0  0  0  0  0  0  0  0  0
  189.6520  177.7420  140.9240 N   0  0  0  0  0  0  0  0  0  0  0  0
  191.4080  177.4490  142.7710 C   0  0  2  0  0  3  0  0  0  0  0  0
  192.2310  175.0590  146.6540 C   0  0  0  0  0  3  0  0  0  0  0  0
  184.4920  179.0870  144.8880 C   0  0  0  0  0  3  0  0  0  0  0  0
  186.3180  178.7000  142.5390 C   0  0  1  0  0  3  0  0  0  0  0  0
  191.4150  176.0430  147.0770 C   0  0  0  0  0  3  0  0  0  0  0  0
  185.8950  178.6380  144.9820 C   0  0  0  0  0  3  0  0  0  0  0  0
  183.6220  178.8680  143.8860 C   0  0  0  0  0  0  0  0  0  0  0  0
  191.8160  176.8230  140.4160 C   0  0  0  0  0  3  0  0  0  0  0  0
  190.9610  177.2850  141.3350 C   0  0  0  0  0  0  0  0  0  0  0  0
  192.3240  176.3590  143.2350 C   0  0  0  0  0  3  0  0  0  0  0  0
  188.0520  177.9710  144.2560 N   0  0  0  0  0  0  0  0  0  0  0  0
  189.5490  177.6080  146.7510 C   0  0  0  0  0  1  0  0  0  0  0  0
  192.3670  173.5450  144.8330 F   0  0  0  0  0  0  0  0  0  0  0  0
  190.2860  177.3940  143.7110 N   0  0  0  0  0  0  0  0  0  0  0  0
  191.8170  175.7820  144.3160 C   0  0  0  0  0  0  0  0  0  0  0  0
  181.3310  179.5350  142.9260 C   0  0  0  0  0  0  0  0  0  0  0  0
  182.2680  179.3350  143.9930 N   0  0  0  0  0  2  0  0  0  0  0  0
  181.6220  179.2500  141.7340 O   0  0  0  0  0  0  0  0  0  0  0  0
  179.9820  180.0770  143.2360 C   0  0  0  0  0  1  0  0  0  0  0  0
  1 20  1  0  0  0  0
  2 27  1  0  0  0  0
  2 24  2  0  0  0  0
  3  4  2  0  0  0  0
  3 11  1  0  0  0  0
  4 21  1  0  0  0  0
  5 28  1  6  0  0  0
  5  6  1  0  0  0  0
  6 25  1  1  0  0  0
  6 18  1  0  0  0  0
  7 24  1  0  0  0  0
  7 19  2  0  0  0  0
  8 12  2  0  0  0  0
  9 26  1  6  0  0  0
  9 15  1  0  0  0  0
 10 17  1  0  0  0  0
 10  1  2  0  0  0  0
 11 13  1  0  0  0  0
 12  2  1  0  0  0  0
 13 22  1  0  0  0  0
 13 12  1  0  0  0  0
 14 23  1  1  0  0  0
 14 27  1  0  0  0  0
 15 18  2  0  0  0  0
 16 19  1  0  0  0  0
 17  8  1  6  0  0  0
 17  7  1  0  0  0  0
 20 30  1  0  0  0  0
 20 16  2  0  0  0  0
 21 22  2  0  0  0  0
 22 14  1  0  0  0  0
 23 28  2  0  0  0  0
 27  5  1  0  0  0  0
 28  9  1  0  0  0  0
 29 32  1  0  0  0  0
 29 30  1  0  0  0  0
 31 29  2  0  0  0  0
M  END
>  <MODEL>
8

>  <REMARK>
 VINA RESULT:      -8.2      3.905      6.489
  Name = 
  1 active torsions:
  status: ('A' for Active; 'I' for Inactive)
    1  A    between atoms: N_10  and  C_24
                            x       y       z     vdW  Elec       q    Type
                         _______ _______ _______ _____ _____    ______ ____

>  <TORSDO>
F 1

$$$$
=
 OpenBabel10272413233D

 32 37  0  0  1  0  0  0  0  0999 V2000
  190.1390  178.4600  144.4200 C   0  0  0  0  0  3  0  0  0  0  0  0
  186.5110  177.9680  140.9040 C   0  0  0  0  0  0  0  0  0  0  0  0
  189.3570  178.4340  136.8580 C   0  0  0  0  0  3  0  0  0  0  0  0
  188.2630  178.7880  136.1840 C   0  0  0  0  0  3  0  0  0  0  0  0
  184.2970  179.1220  140.4340 C   0  0  1  0  0  3  0  0  0  0  0  0
  183.1240  178.4240  141.1450 C   0  0  2  0  0  3  0  0  0  0  0  0
  187.4800  177.6910  143.0830 C   0  0  0  0  0  0  0  0  0  0  0  0
  188.9160  177.5880  141.0340 C   0  0  0  0  0  3  0  0  0  0  0  0
  182.5250  180.3680  138.9720 C   0  0  1  0  0  3  0  0  0  0  0  0
  189.8490  178.4170  143.1200 C   0  0  0  0  0  3  0  0  0  0  0  0
  189.2640  177.7540  138.1940 C   0  0  0  0  0  2  0  0  0  0  0  0
  187.8370  177.8110  140.2720 C   0  0  0  0  0  0  0  0  0  0  0  0
  187.9630  177.9800  138.8470 N   0  0  0  0  0  0  0  0  0  0  0  0
  185.4090  178.0010  138.6200 C   0  0  2  0  0  3  0  0  0  0  0  0
  181.6400  180.1960  140.1850 C   0  0  0  0  0  3  0  0  0  0  0  0
  188.2040  177.2970  145.4520 C   0  0  0  0  0  3  0  0  0  0  0  0
  188.8650  177.4640  142.5300 C   0  0  0  0  0  0  0  0  0  0  0  0
  181.9130  179.3270  141.1760 C   0  0  0  0  0  3  0  0  0  0  0  0
  187.2170  177.5470  144.3830 C   0  0  0  0  0  3  0  0  0  0  0  0
  189.5020  177.6480  145.4760 C   0  0  0  0  0  0  0  0  0  0  0  0
  186.9290  178.6010  136.7670 C   0  0  0  0  0  3  0  0  0  0  0  0
  186.7880  178.2470  138.0500 C   0  0  0  0  0  0  0  0  0  0  0  0
  184.3730  178.9480  138.0960 C   0  0  0  0  0  3  0  0  0  0  0  0
  186.3820  177.9230  142.1960 N   0  0  0  0  0  2  0  0  0  0  0  0
  183.4760  178.0380  142.5670 C   0  0  0  0  0  1  0  0  0  0  0  0
  182.8260  181.7040  138.7910 F   0  0  0  0  0  0  0  0  0  0  0  0
  185.3660  178.1960  140.0710 N   0  0  0  0  0  0  0  0  0  0  0  0
  183.7880  179.5730  139.1090 C   0  0  0  0  0  0  0  0  0  0  0  0
  191.4700  176.5380  146.7050 C   0  0  0  0  0  0  0  0  0  0  0  0
  190.3030  177.3700  146.6340 N   0  0  0  0  0  2  0  0  0  0  0  0
  191.9470  175.9880  145.6780 O   0  0  0  0  0  0  0  0  0  0  0  0
  192.1370  176.3330  148.0180 C   0  0  0  0  0  1  0  0  0  0  0  0
  1 20  1  0  0  0  0
  2 24  1  0  0  0  0
  3 11  1  0  0  0  0
  4 21  1  0  0  0  0
  4  3  2  0  0  0  0
  5 28  1  6  0  0  0
  5  6  1  0  0  0  0
  6 18  1  0  0  0  0
  6 25  1  1  0  0  0
  7 19  2  0  0  0  0
  8 17  2  0  0  0  0
  9 26  1  1  0  0  0
  9 28  1  0  0  0  0
  9 15  1  0  0  0  0
 10  1  2  0  0  0  0
 11 13  1  0  0  0  0
 12  2  2  0  0  0  0
 12  8  1  0  0  0  0
 13 12  1  0  0  0  0
 14 23  1  6  0  0  0
 14 27  1  0  0  0  0
 15 18  2  0  0  0  0
 16 20  2  0  0  0  0
 17  7  1  0  0  0  0
 17 10  1  0  0  0  0
 19 16  1  0  0  0  0
 20 30  1  0  0  0  0
 21 22  2  0  0  0  0
 22 14  1  0  0  0  0
 22 13  1  0  0  0  0
 23 28  2  0  0  0  0
 24  7  1  0  0  0  0
 27  5  1  0  0  0  0
 27  2  1  0  0  0  0
 29 32  1  0  0  0  0
 30 29  1  0  0  0  0
 31 29  2  0  0  0  0
M  END
>  <MODEL>
9

>  <REMARK>
 VINA RESULT:      -7.9      3.367      6.211
  Name = 
  1 active torsions:
  status: ('A' for Active; 'I' for Inactive)
    1  A    between atoms: N_10  and  C_24
                            x       y       z     vdW  Elec       q    Type
                         _______ _______ _______ _____ _____    ______ ____

>  <TORSDO>
F 1

$$$$
