=
 OpenBabel10272401133D

 27 30  0  0  1  0  0  0  0  0999 V2000
  187.6860  178.6330  142.2570 C   0  0  0  0  0  2  0  0  0  0  0  0
  187.7480  176.9980  144.2490 C   0  0  1  0  0  3  0  0  0  0  0  0
  188.7490  175.2750  142.8670 O   0  0  0  0  0  1  0  0  0  0  0  0
  190.8350  177.3390  139.4550 C   0  0  0  0  0  2  0  0  0  0  0  0
  189.4840  177.8020  138.9900 C   0  0  0  0  0  0  0  0  0  0  0  0
  190.1020  177.2580  143.2880 C   0  0  2  0  0  3  0  0  0  0  0  0
  186.9240  177.6100  143.0970 C   0  0  1  0  0  3  0  0  0  0  0  0
  188.5770  177.8850  141.2840 C   0  0  1  0  0  3  0  0  0  0  0  0
  189.0270  176.2840  143.7940 C   0  0  1  0  0  3  0  0  0  0  0  0
  190.7410  176.7260  140.8540 C   0  0  0  0  0  2  0  0  0  0  0  0
  189.1350  177.6090  137.8370 O   0  0  0  0  0  0  0  0  0  0  0  0
  188.6030  178.5770  139.9250 C   0  0  0  0  0  2  0  0  0  0  0  0
  190.0100  177.6820  141.8050 C   0  0  2  0  0  3  0  0  0  0  0  0
  184.0580  178.7970  145.3160 C   0  0  0  0  0  3  0  0  0  0  0  0
  185.5910  178.1220  143.5550 C   0  0  0  0  0  0  0  0  0  0  0  0
  184.5800  178.3240  142.6090 C   0  0  0  0  0  3  0  0  0  0  0  0
  183.3160  178.7660  143.0110 C   0  0  0  0  0  3  0  0  0  0  0  0
  183.0550  179.0030  144.3640 C   0  0  0  0  0  3  0  0  0  0  0  0
  185.3220  178.3550  144.9130 C   0  0  0  0  0  3  0  0  0  0  0  0
  188.1830  177.6400  146.6560 C   0  0  0  0  0  0  0  0  0  0  0  0
  188.0580  177.9880  145.2760 N   0  0  0  0  0  2  0  0  0  0  0  0
  188.0940  176.4360  147.0210 O   0  0  0  0  0  0  0  0  0  0  0  0
  189.6040  178.3010  148.5020 N   0  0  0  0  0  2  0  0  0  0  0  0
  188.2330  178.1890  149.0160 C   0  0  0  0  0  2  0  0  0  0  0  0
  188.4590  178.7030  147.6670 C   0  0  2  0  0  3  0  0  0  0  0  0
  191.5830  176.7150  145.0870 O   0  0  0  0  0  1  0  0  0  0  0  0
  191.5030  176.8210  143.6980 C   0  0  0  0  0  2  0  0  0  0  0  0
  1  7  1  0  0  0  0
  2 21  1  1  0  0  0
  4 10  1  0  0  0  0
  5  4  1  0  0  0  0
  5 12  1  0  0  0  0
  6 27  1  6  0  0  0
  6  9  1  0  0  0  0
  7 15  1  1  0  0  0
  7  2  1  0  0  0  0
  8 12  1  6  0  0  0
  8 13  1  0  0  0  0
  8  1  1  0  0  0  0
  9  3  1  6  0  0  0
  9  2  1  0  0  0  0
 11  5  2  0  0  0  0
 13 10  1  6  0  0  0
 13  6  1  0  0  0  0
 15 19  2  0  0  0  0
 16 17  2  0  0  0  0
 16 15  1  0  0  0  0
 17 18  1  0  0  0  0
 18 14  2  0  0  0  0
 19 14  1  0  0  0  0
 20 22  2  0  0  0  0
 21 20  1  0  0  0  0
 23 24  1  0  0  0  0
 25 20  1  6  0  0  0
 25 23  1  0  0  0  0
 25 24  1  0  0  0  0
 27 26  1  0  0  0  0
M  END
>  <MODEL>
1

>  <REMARK>
 VINA RESULT:      -8.7      0.000      0.000
  Name = 
  4 active torsions:
  status: ('A' for Active; 'I' for Inactive)
    1  A    between atoms: C_2  and  N_6
    2  A    between atoms: C_5  and  C_17
    3  A    between atoms: C_9  and  C_15
    4  A    between atoms: C_12  and  C_14
                            x       y       z     vdW  Elec       q    Type
                         _______ _______ _______ _____ _____    ______ ____

>  <TORSDO>
F 4

$$$$
=
 OpenBabel10272401133D

 27 30  0  0  1  0  0  0  0  0999 V2000
  187.3660  177.0890  143.8920 C   0  0  0  0  0  2  0  0  0  0  0  0
  188.7160  178.2610  142.0350 C   0  0  1  0  0  3  0  0  0  0  0  0
  190.0910  179.3940  143.6800 O   0  0  0  0  0  1  0  0  0  0  0  0
  189.9690  176.9350  147.4470 C   0  0  0  0  0  2  0  0  0  0  0  0
  188.5050  177.2540  147.5350 C   0  0  0  0  0  0  0  0  0  0  0  0
  190.3100  176.9700  143.5580 C   0  0  2  0  0  3  0  0  0  0  0  0
  187.4510  178.2610  142.9160 C   0  0  1  0  0  3  0  0  0  0  0  0
  188.2540  177.3930  145.0830 C   0  0  1  0  0  3  0  0  0  0  0  0
  190.0310  178.2910  142.8250 C   0  0  1  0  0  3  0  0  0  0  0  0
  190.5330  177.3640  146.0910 C   0  0  0  0  0  2  0  0  0  0  0  0
  188.0390  177.7130  148.5650 O   0  0  0  0  0  0  0  0  0  0  0  0
  187.6040  176.9250  146.3810 C   0  0  0  0  0  2  0  0  0  0  0  0
  189.6690  176.8040  144.9540 C   0  0  2  0  0  3  0  0  0  0  0  0
  185.0410  179.0490  140.0670 C   0  0  0  0  0  3  0  0  0  0  0  0
  186.1940  178.4340  142.1150 C   0  0  0  0  0  0  0  0  0  0  0  0
  184.9590  178.2090  142.7340 C   0  0  0  0  0  3  0  0  0  0  0  0
  183.7700  178.3960  142.0220 C   0  0  0  0  0  3  0  0  0  0  0  0
  183.8110  178.8160  140.6890 C   0  0  0  0  0  3  0  0  0  0  0  0
  186.2300  178.8610  140.7790 C   0  0  0  0  0  3  0  0  0  0  0  0
  189.1390  177.2980  139.7340 C   0  0  0  0  0  0  0  0  0  0  0  0
  188.7170  177.1470  141.0910 N   0  0  0  0  0  2  0  0  0  0  0  0
  189.5950  178.4010  139.3270 O   0  0  0  0  0  0  0  0  0  0  0  0
  190.4350  175.6080  138.5830 N   0  0  0  0  0  2  0  0  0  0  0  0
  189.7830  176.4370  137.5620 C   0  0  0  0  0  2  0  0  0  0  0  0
  189.0770  176.1330  138.8040 C   0  0  2  0  0  3  0  0  0  0  0  0
  191.9630  175.2760  143.9090 O   0  0  0  0  0  1  0  0  0  0  0  0
  191.7910  176.6090  143.5360 C   0  0  0  0  0  2  0  0  0  0  0  0
  2 21  1  1  0  0  0
  2  9  1  0  0  0  0
  2  7  1  0  0  0  0
  4  5  1  0  0  0  0
  5 11  2  0  0  0  0
  6 27  1  1  0  0  0
  6 13  1  0  0  0  0
  7 15  1  6  0  0  0
  7  1  1  0  0  0  0
  8  1  1  6  0  0  0
  8 12  1  0  0  0  0
  9  6  1  0  0  0  0
  9  3  1  1  0  0  0
 10  4  1  0  0  0  0
 12  5  1  0  0  0  0
 13  8  1  0  0  0  0
 13 10  1  1  0  0  0
 14 18  2  0  0  0  0
 14 19  1  0  0  0  0
 15 16  1  0  0  0  0
 17 16  2  0  0  0  0
 18 17  1  0  0  0  0
 19 15  2  0  0  0  0
 20 21  1  0  0  0  0
 22 20  2  0  0  0  0
 23 25  1  0  0  0  0
 24 23  1  0  0  0  0
 24 25  1  0  0  0  0
 25 20  1  1  0  0  0
 27 26  1  0  0  0  0
M  END
>  <MODEL>
2

>  <REMARK>
 VINA RESULT:      -8.7      2.299      5.848
  Name = 
  4 active torsions:
  status: ('A' for Active; 'I' for Inactive)
    1  A    between atoms: C_2  and  N_6
    2  A    between atoms: C_5  and  C_17
    3  A    between atoms: C_9  and  C_15
    4  A    between atoms: C_12  and  C_14
                            x       y       z     vdW  Elec       q    Type
                         _______ _______ _______ _____ _____    ______ ____

>  <TORSDO>
F 4

$$$$
=
 OpenBabel10272401133D

 27 30  0  0  1  0  0  0  0  0999 V2000
  187.4440  177.2060  143.0280 C   0  0  0  0  0  2  0  0  0  0  0  0
  189.4070  178.1240  141.6330 C   0  0  1  0  0  3  0  0  0  0  0  0
  190.2840  179.3120  143.5570 O   0  0  0  0  0  1  0  0  0  0  0  0
  188.7660  177.2080  147.2350 C   0  0  0  0  0  2  0  0  0  0  0  0
  187.3820  177.6230  146.8260 C   0  0  0  0  0  0  0  0  0  0  0  0
  190.3200  176.8780  143.6690 C   0  0  2  0  0  3  0  0  0  0  0  0
  187.9330  178.2800  142.0580 C   0  0  1  0  0  3  0  0  0  0  0  0
  187.9320  177.5600  144.4200 C   0  0  1  0  0  3  0  0  0  0  0  0
  190.4020  178.1430  142.8010 C   0  0  1  0  0  3  0  0  0  0  0  0
  189.7640  177.4800  146.1070 C   0  0  0  0  0  2  0  0  0  0  0  0
  186.6560  178.1990  147.6190 O   0  0  0  0  0  0  0  0  0  0  0  0
  186.8670  177.2490  145.4670 C   0  0  0  0  0  2  0  0  0  0  0  0
  189.2580  176.8760  144.7920 C   0  0  2  0  0  3  0  0  0  0  0  0
  184.8370  178.9890  139.9480 C   0  0  0  0  0  3  0  0  0  0  0  0
  187.0140  178.4570  140.8870 C   0  0  0  0  0  0  0  0  0  0  0  0
  187.4850  178.1580  139.6030 C   0  0  0  0  0  3  0  0  0  0  0  0
  186.6390  178.2810  138.4960 C   0  0  0  0  0  3  0  0  0  0  0  0
  185.3160  178.6960  138.6690 C   0  0  0  0  0  3  0  0  0  0  0  0
  185.6820  178.8680  141.0550 C   0  0  0  0  0  3  0  0  0  0  0  0
  190.6140  176.8680  139.7990 C   0  0  0  0  0  0  0  0  0  0  0  0
  189.6100  176.9330  140.8140 N   0  0  0  0  0  2  0  0  0  0  0  0
  191.4100  177.8310  139.6270 O   0  0  0  0  0  0  0  0  0  0  0  0
  191.2590  176.0030  137.6320 N   0  0  0  0  0  2  0  0  0  0  0  0
  189.8350  175.7020  137.8220 C   0  0  0  0  0  2  0  0  0  0  0  0
  190.7450  175.6390  138.9630 C   0  0  2  0  0  3  0  0  0  0  0  0
  191.8370  175.0510  143.9630 O   0  0  0  0  0  1  0  0  0  0  0  0
  191.6950  176.4270  144.1470 C   0  0  0  0  0  2  0  0  0  0  0  0
  2 21  1  1  0  0  0
  2  7  1  0  0  0  0
  2  9  1  0  0  0  0
  5  4  1  0  0  0  0
  5 11  2  0  0  0  0
  6 27  1  1  0  0  0
  6 13  1  0  0  0  0
  7 15  1  6  0  0  0
  7  1  1  0  0  0  0
  8  1  1  6  0  0  0
  8 13  1  0  0  0  0
  8 12  1  0  0  0  0
  9  3  1  1  0  0  0
  9  6  1  0  0  0  0
 10  4  1  0  0  0  0
 12  5  1  0  0  0  0
 13 10  1  1  0  0  0
 14 19  1  0  0  0  0
 15 19  2  0  0  0  0
 16 15  1  0  0  0  0
 17 18  1  0  0  0  0
 17 16  2  0  0  0  0
 18 14  2  0  0  0  0
 20 21  1  0  0  0  0
 22 20  2  0  0  0  0
 23 24  1  0  0  0  0
 23 25  1  0  0  0  0
 24 25  1  0  0  0  0
 25 20  1  1  0  0  0
 26 27  1  0  0  0  0
M  END
>  <MODEL>
3

>  <REMARK>
 VINA RESULT:      -7.7      2.592      6.087
  Name = 
  4 active torsions:
  status: ('A' for Active; 'I' for Inactive)
    1  A    between atoms: C_2  and  N_6
    2  A    between atoms: C_5  and  C_17
    3  A    between atoms: C_9  and  C_15
    4  A    between atoms: C_12  and  C_14
                            x       y       z     vdW  Elec       q    Type
                         _______ _______ _______ _____ _____    ______ ____

>  <TORSDO>
F 4

$$$$
=
 OpenBabel10272401133D

 27 30  0  0  1  0  0  0  0  0999 V2000
  187.8210  177.2370  141.2520 C   0  0  0  0  0  2  0  0  0  0  0  0
  190.2910  177.4660  140.5530 C   0  0  1  0  0  3  0  0  0  0  0  0
  190.8350  178.5570  142.6490 O   0  0  0  0  0  1  0  0  0  0  0  0
  187.7400  177.2880  145.6600 C   0  0  0  0  0  2  0  0  0  0  0  0
  186.7220  178.0140  144.8280 C   0  0  0  0  0  0  0  0  0  0  0  0
  190.1500  176.2210  142.7800 C   0  0  2  0  0  3  0  0  0  0  0  0
  188.8640  178.0460  140.4830 C   0  0  1  0  0  3  0  0  0  0  0  0
  187.9390  177.5790  142.7250 C   0  0  1  0  0  3  0  0  0  0  0  0
  190.8450  177.3320  141.9770 C   0  0  1  0  0  3  0  0  0  0  0  0
  189.0690  177.1780  144.9090 C   0  0  0  0  0  2  0  0  0  0  0  0
  185.9810  178.8340  145.3440 O   0  0  0  0  0  0  0  0  0  0  0  0
  186.5630  177.6620  143.3780 C   0  0  0  0  0  2  0  0  0  0  0  0
  188.8400  176.6070  143.5050 C   0  0  2  0  0  3  0  0  0  0  0  0
  188.8580  179.2850  136.8770 C   0  0  0  0  0  3  0  0  0  0  0  0
  188.4350  178.3490  139.0780 C   0  0  0  0  0  0  0  0  0  0  0  0
  187.1290  178.0350  138.6850 C   0  0  0  0  0  3  0  0  0  0  0  0
  186.6910  178.3370  137.3920 C   0  0  0  0  0  3  0  0  0  0  0  0
  187.5560  178.9620  136.4880 C   0  0  0  0  0  3  0  0  0  0  0  0
  189.2970  178.9820  138.1690 C   0  0  0  0  0  3  0  0  0  0  0  0
  191.2860  175.9960  138.7510 C   0  0  0  0  0  0  0  0  0  0  0  0
  190.3910  176.1920  139.8480 N   0  0  0  0  0  2  0  0  0  0  0  0
  192.0770  176.9130  138.4010 O   0  0  0  0  0  0  0  0  0  0  0  0
  191.2230  174.9090  136.5890 N   0  0  0  0  0  2  0  0  0  0  0  0
  190.0480  174.4580  137.3450 C   0  0  0  0  0  2  0  0  0  0  0  0
  191.3130  174.6830  138.0410 C   0  0  2  0  0  3  0  0  0  0  0  0
  191.9810  176.3710  144.3120 O   0  0  0  0  0  1  0  0  0  0  0  0
  191.1270  175.4700  143.6750 C   0  0  0  0  0  2  0  0  0  0  0  0
  2 21  1  1  0  0  0
  2  9  1  0  0  0  0
  5 11  2  0  0  0  0
  5  4  1  0  0  0  0
  6 13  1  0  0  0  0
  6 27  1  1  0  0  0
  7 15  1  6  0  0  0
  7  2  1  0  0  0  0
  7  1  1  0  0  0  0
  8  1  1  6  0  0  0
  8 12  1  0  0  0  0
  8 13  1  0  0  0  0
  9  3  1  1  0  0  0
  9  6  1  0  0  0  0
 10  4  1  0  0  0  0
 12  5  1  0  0  0  0
 13 10  1  1  0  0  0
 14 19  1  0  0  0  0
 16 15  1  0  0  0  0
 17 16  2  0  0  0  0
 18 14  2  0  0  0  0
 18 17  1  0  0  0  0
 19 15  2  0  0  0  0
 20 21  1  0  0  0  0
 22 20  2  0  0  0  0
 23 24  1  0  0  0  0
 23 25  1  0  0  0  0
 24 25  1  0  0  0  0
 25 20  1  1  0  0  0
 27 26  1  0  0  0  0
M  END
>  <MODEL>
4

>  <REMARK>
 VINA RESULT:      -7.2      2.985      6.735
  Name = 
  4 active torsions:
  status: ('A' for Active; 'I' for Inactive)
    1  A    between atoms: C_2  and  N_6
    2  A    between atoms: C_5  and  C_17
    3  A    between atoms: C_9  and  C_15
    4  A    between atoms: C_12  and  C_14
                            x       y       z     vdW  Elec       q    Type
                         _______ _______ _______ _____ _____    ______ ____

>  <TORSDO>
F 4

$$$$
=
 OpenBabel10272401133D

 27 30  0  0  1  0  0  0  0  0999 V2000
  190.0030  176.3290  140.1430 C   0  0  0  0  0  2  0  0  0  0  0  0
  188.7300  178.5080  140.6680 C   0  0  1  0  0  3  0  0  0  0  0  0
  189.3330  179.4390  138.5120 O   0  0  0  0  0  1  0  0  0  0  0  0
  190.1720  175.9850  135.7500 C   0  0  0  0  0  2  0  0  0  0  0  0
  191.3400  175.6460  136.6300 C   0  0  0  0  0  0  0  0  0  0  0  0
  187.8440  177.5100  138.4890 C   0  0  2  0  0  3  0  0  0  0  0  0
  190.0340  177.6990  140.8180 C   0  0  1  0  0  3  0  0  0  0  0  0
  190.2380  176.5220  138.6570 C   0  0  1  0  0  3  0  0  0  0  0  0
  188.3220  178.7770  139.2140 C   0  0  1  0  0  3  0  0  0  0  0  0
  189.2910  177.0470  136.4130 C   0  0  0  0  0  2  0  0  0  0  0  0
  192.4480  175.4910  136.1430 O   0  0  0  0  0  0  0  0  0  0  0  0
  191.1220  175.4130  138.0960 C   0  0  0  0  0  2  0  0  0  0  0  0
  188.9360  176.6270  137.8440 C   0  0  2  0  0  3  0  0  0  0  0  0
  191.2090  178.6940  144.3070 C   0  0  0  0  0  3  0  0  0  0  0  0
  190.5050  177.6280  142.2400 C   0  0  0  0  0  0  0  0  0  0  0  0
  190.7660  176.3750  142.8070 C   0  0  0  0  0  3  0  0  0  0  0  0
  191.2390  176.2800  144.1190 C   0  0  0  0  0  3  0  0  0  0  0  0
  191.4610  177.4390  144.8690 C   0  0  0  0  0  3  0  0  0  0  0  0
  190.7350  178.7880  142.9950 C   0  0  0  0  0  3  0  0  0  0  0  0
  186.4750  178.6340  141.8070 C   0  0  0  0  0  0  0  0  0  0  0  0
  187.6260  177.8920  141.3980 N   0  0  0  0  0  2  0  0  0  0  0  0
  186.3490  179.8460  141.4830 O   0  0  0  0  0  0  0  0  0  0  0  0
  184.1290  178.0380  141.8460 N   0  0  0  0  0  2  0  0  0  0  0  0
  184.3780  178.9280  142.9870 C   0  0  0  0  0  2  0  0  0  0  0  0
  185.3970  177.9600  142.5900 C   0  0  2  0  0  3  0  0  0  0  0  0
  185.8610  178.7890  138.0930 O   0  0  0  0  0  1  0  0  0  0  0  0
  186.6790  177.7970  137.5500 C   0  0  0  0  0  2  0  0  0  0  0  0
  1  7  1  0  0  0  0
  2  7  1  0  0  0  0
  2 21  1  6  0  0  0
  4 10  1  0  0  0  0
  4  5  1  0  0  0  0
  5 12  1  0  0  0  0
  6 27  1  6  0  0  0
  6  9  1  0  0  0  0
  7 15  1  1  0  0  0
  8 12  1  6  0  0  0
  8  1  1  0  0  0  0
  9  3  1  6  0  0  0
  9  2  1  0  0  0  0
 11  5  2  0  0  0  0
 13 10  1  6  0  0  0
 13  6  1  0  0  0  0
 13  8  1  0  0  0  0
 14 18  1  0  0  0  0
 15 16  2  0  0  0  0
 15 19  1  0  0  0  0
 16 17  1  0  0  0  0
 17 18  2  0  0  0  0
 19 14  2  0  0  0  0
 21 20  1  0  0  0  0
 22 20  2  0  0  0  0
 23 25  1  0  0  0  0
 23 24  1  0  0  0  0
 25 20  1  6  0  0  0
 25 24  1  0  0  0  0
 27 26  1  0  0  0  0
M  END
>  <MODEL>
5

>  <REMARK>
 VINA RESULT:      -7.2      3.342      5.940
  Name = 
  4 active torsions:
  status: ('A' for Active; 'I' for Inactive)
    1  A    between atoms: C_2  and  N_6
    2  A    between atoms: C_5  and  C_17
    3  A    between atoms: C_9  and  C_15
    4  A    between atoms: C_12  and  C_14
                            x       y       z     vdW  Elec       q    Type
                         _______ _______ _______ _____ _____    ______ ____

>  <TORSDO>
F 4

$$$$
=
 OpenBabel10272401133D

 27 30  0  0  1  0  0  0  0  0999 V2000
  187.2390  177.1070  143.2040 C   0  0  0  0  0  2  0  0  0  0  0  0
  186.5880  178.8830  141.4540 C   0  0  1  0  0  3  0  0  0  0  0  0
  188.8300  179.8090  141.4870 O   0  0  0  0  0  1  0  0  0  0  0  0
  191.6020  176.5510  142.8870 C   0  0  0  0  0  2  0  0  0  0  0  0
  190.8900  176.5980  144.2090 C   0  0  0  0  0  0  0  0  0  0  0  0
  188.5960  177.5490  140.6050 C   0  0  2  0  0  3  0  0  0  0  0  0
  186.6070  178.4720  142.9400 C   0  0  1  0  0  3  0  0  0  0  0  0
  188.7470  177.2640  143.1800 C   0  0  1  0  0  3  0  0  0  0  0  0
  187.9760  178.9410  140.8020 C   0  0  1  0  0  3  0  0  0  0  0  0
  190.8450  177.3710  141.8400 C   0  0  0  0  0  2  0  0  0  0  0  0
  191.5260  176.7220  145.2420 O   0  0  0  0  0  0  0  0  0  0  0  0
  189.4030  176.4060  144.2570 C   0  0  0  0  0  2  0  0  0  0  0  0
  189.3680  176.9590  141.8060 C   0  0  2  0  0  3  0  0  0  0  0  0
  182.8690  179.0000  143.4740 C   0  0  0  0  0  3  0  0  0  0  0  0
  185.2650  178.6200  143.5930 C   0  0  0  0  0  0  0  0  0  0  0  0
  185.1840  178.5980  144.9900 C   0  0  0  0  0  3  0  0  0  0  0  0
  183.9510  178.7690  145.6270 C   0  0  0  0  0  3  0  0  0  0  0  0
  182.7940  178.9700  144.8690 C   0  0  0  0  0  3  0  0  0  0  0  0
  184.1010  178.8280  142.8370 C   0  0  0  0  0  3  0  0  0  0  0  0
  184.8270  178.5680  139.6670 C   0  0  0  0  0  0  0  0  0  0  0  0
  185.6940  178.0370  140.6700 N   0  0  0  0  0  2  0  0  0  0  0  0
  184.8600  179.7950  139.3790 O   0  0  0  0  0  0  0  0  0  0  0  0
  182.5110  178.0780  139.1580 N   0  0  0  0  0  2  0  0  0  0  0  0
  183.0640  176.9170  139.8660 C   0  0  0  0  0  2  0  0  0  0  0  0
  183.9030  177.6570  138.9270 C   0  0  2  0  0  3  0  0  0  0  0  0
  189.0930  178.5600  138.4940 O   0  0  0  0  0  1  0  0  0  0  0  0
  189.3650  177.4490  139.2940 C   0  0  0  0  0  2  0  0  0  0  0  0
  2 21  1  6  0  0  0
  2  7  1  0  0  0  0
  4  5  1  0  0  0  0
  5 12  1  0  0  0  0
  5 11  2  0  0  0  0
  6 27  1  6  0  0  0
  6  9  1  0  0  0  0
  6 13  1  0  0  0  0
  7  1  1  0  0  0  0
  7 15  1  6  0  0  0
  8  1  1  6  0  0  0
  8 12  1  0  0  0  0
  9  2  1  0  0  0  0
  9  3  1  1  0  0  0
 10  4  1  0  0  0  0
 13 10  1  1  0  0  0
 13  8  1  0  0  0  0
 14 18  1  0  0  0  0
 15 16  2  0  0  0  0
 16 17  1  0  0  0  0
 18 17  2  0  0  0  0
 19 14  2  0  0  0  0
 19 15  1  0  0  0  0
 20 21  1  0  0  0  0
 22 20  2  0  0  0  0
 23 24  1  0  0  0  0
 25 23  1  0  0  0  0
 25 20  1  1  0  0  0
 25 24  1  0  0  0  0
 26 27  1  0  0  0  0
M  END
>  <MODEL>
6

>  <REMARK>
 VINA RESULT:      -7.1      2.737      5.510
  Name = 
  4 active torsions:
  status: ('A' for Active; 'I' for Inactive)
    1  A    between atoms: C_2  and  N_6
    2  A    between atoms: C_5  and  C_17
    3  A    between atoms: C_9  and  C_15
    4  A    between atoms: C_12  and  C_14
                            x       y       z     vdW  Elec       q    Type
                         _______ _______ _______ _____ _____    ______ ____

>  <TORSDO>
F 4

$$$$
=
 OpenBabel10272401133D

 27 30  0  0  1  0  0  0  0  0999 V2000
  190.9100  177.8350  142.4970 C   0  0  0  0  0  2  0  0  0  0  0  0
  189.0090  176.7210  141.1590 C   0  0  1  0  0  3  0  0  0  0  0  0
  188.3470  175.4130  143.0910 O   0  0  0  0  0  1  0  0  0  0  0  0
  189.7610  177.6220  146.7490 C   0  0  0  0  0  2  0  0  0  0  0  0
  191.1660  177.3730  146.2820 C   0  0  0  0  0  0  0  0  0  0  0  0
  188.0420  177.8260  143.2500 C   0  0  2  0  0  3  0  0  0  0  0  0
  190.5070  176.7270  141.5260 C   0  0  1  0  0  3  0  0  0  0  0  0
  190.5190  177.4080  143.9000 C   0  0  1  0  0  3  0  0  0  0  0  0
  188.0690  176.5730  142.3620 C   0  0  1  0  0  3  0  0  0  0  0  0
  188.7560  177.2550  145.6540 C   0  0  0  0  0  2  0  0  0  0  0  0
  191.9820  176.8710  147.0370 O   0  0  0  0  0  0  0  0  0  0  0  0
  191.5820  177.8220  144.9120 C   0  0  0  0  0  2  0  0  0  0  0  0
  189.1390  177.9320  144.3330 C   0  0  2  0  0  3  0  0  0  0  0  0
  191.9090  175.8540  138.0890 C   0  0  0  0  0  3  0  0  0  0  0  0
  191.3940  176.6710  140.3180 C   0  0  0  0  0  0  0  0  0  0  0  0
  192.6180  177.3480  140.3440 C   0  0  0  0  0  3  0  0  0  0  0  0
  193.4820  177.2860  139.2450 C   0  0  0  0  0  3  0  0  0  0  0  0
  193.1260  176.5390  138.1190 C   0  0  0  0  0  3  0  0  0  0  0  0
  191.0450  175.9180  139.1870 C   0  0  0  0  0  3  0  0  0  0  0  0
  188.2320  177.7940  139.0050 C   0  0  0  0  0  0  0  0  0  0  0  0
  188.6420  177.8930  140.3700 N   0  0  0  0  0  2  0  0  0  0  0  0
  188.1080  176.6660  138.4560 O   0  0  0  0  0  0  0  0  0  0  0  0
  186.6260  178.8560  137.5360 N   0  0  0  0  0  2  0  0  0  0  0  0
  187.8930  178.7490  136.8030 C   0  0  0  0  0  2  0  0  0  0  0  0
  187.9100  179.0320  138.2360 C   0  0  2  0  0  3  0  0  0  0  0  0
  185.7110  178.0380  142.7540 O   0  0  0  0  0  1  0  0  0  0  0  0
  186.6450  178.1120  143.7870 C   0  0  0  0  0  2  0  0  0  0  0  0
  2 21  1  1  0  0  0
  2  7  1  0  0  0  0
  2  9  1  0  0  0  0
  5  4  1  0  0  0  0
  5 11  2  0  0  0  0
  6 27  1  1  0  0  0
  6 13  1  0  0  0  0
  7 15  1  6  0  0  0
  7  1  1  0  0  0  0
  8  1  1  6  0  0  0
  8 13  1  0  0  0  0
  8 12  1  0  0  0  0
  9  3  1  1  0  0  0
  9  6  1  0  0  0  0
 10  4  1  0  0  0  0
 12  5  1  0  0  0  0
 13 10  1  1  0  0  0
 14 18  2  0  0  0  0
 14 19  1  0  0  0  0
 15 16  1  0  0  0  0
 17 16  2  0  0  0  0
 18 17  1  0  0  0  0
 19 15  2  0  0  0  0
 20 21  1  0  0  0  0
 22 20  2  0  0  0  0
 23 25  1  0  0  0  0
 24 23  1  0  0  0  0
 24 25  1  0  0  0  0
 25 20  1  1  0  0  0
 26 27  1  0  0  0  0
M  END
>  <MODEL>
7

>  <REMARK>
 VINA RESULT:      -6.5      2.648      7.450
  Name = 
  4 active torsions:
  status: ('A' for Active; 'I' for Inactive)
    1  A    between atoms: C_2  and  N_6
    2  A    between atoms: C_5  and  C_17
    3  A    between atoms: C_9  and  C_15
    4  A    between atoms: C_12  and  C_14
                            x       y       z     vdW  Elec       q    Type
                         _______ _______ _______ _____ _____    ______ ____

>  <TORSDO>
F 4

$$$$
=
 OpenBabel10272401133D

 27 30  0  0  1  0  0  0  0  0999 V2000
  186.6200  177.2900  143.1560 C   0  0  0  0  0  2  0  0  0  0  0  0
  186.3840  178.7770  141.0640 C   0  0  1  0  0  3  0  0  0  0  0  0
  188.5570  179.7760  141.4680 O   0  0  0  0  0  1  0  0  0  0  0  0
  190.9400  176.8480  143.9190 C   0  0  0  0  0  2  0  0  0  0  0  0
  189.9450  177.0570  145.0240 C   0  0  0  0  0  0  0  0  0  0  0  0
  188.5350  177.4070  140.8950 C   0  0  2  0  0  3  0  0  0  0  0  0
  186.0630  178.5810  142.5600 C   0  0  1  0  0  3  0  0  0  0  0  0
  188.0940  177.4950  143.4510 C   0  0  1  0  0  3  0  0  0  0  0  0
  187.8840  178.7900  140.7410 C   0  0  1  0  0  3  0  0  0  0  0  0
  190.4420  177.4840  142.6190 C   0  0  0  0  0  2  0  0  0  0  0  0
  190.3270  177.3480  146.1450 O   0  0  0  0  0  0  0  0  0  0  0  0
  188.4860  176.8220  144.7620 C   0  0  0  0  0  2  0  0  0  0  0  0
  189.0130  177.0210  142.3130 C   0  0  2  0  0  3  0  0  0  0  0  0
  182.7910  179.1620  144.4300 C   0  0  0  0  0  3  0  0  0  0  0  0
  184.6070  178.7740  142.8630 C   0  0  0  0  0  0  0  0  0  0  0  0
  183.6760  178.6500  141.8270 C   0  0  0  0  0  3  0  0  0  0  0  0
  182.3080  178.7890  142.0870 C   0  0  0  0  0  3  0  0  0  0  0  0
  181.8670  179.0450  143.3890 C   0  0  0  0  0  3  0  0  0  0  0  0
  184.1580  179.0240  144.1690 C   0  0  0  0  0  3  0  0  0  0  0  0
  185.3040  178.0800  138.8860 C   0  0  0  0  0  0  0  0  0  0  0  0
  185.6950  177.7970  140.2310 N   0  0  0  0  0  2  0  0  0  0  0  0
  185.6110  179.1800  138.3500 O   0  0  0  0  0  0  0  0  0  0  0  0
  185.5210  176.2280  137.3420 N   0  0  0  0  0  2  0  0  0  0  0  0
  184.7520  177.2790  136.6660 C   0  0  0  0  0  2  0  0  0  0  0  0
  184.5630  177.0530  138.0960 C   0  0  2  0  0  3  0  0  0  0  0  0
  188.9650  176.9320  138.5900 O   0  0  0  0  0  1  0  0  0  0  0  0
  189.5840  177.1490  139.8210 C   0  0  0  0  0  2  0  0  0  0  0  0
  2 21  1  6  0  0  0
  2  7  1  0  0  0  0
  4  5  1  0  0  0  0
  5 11  2  0  0  0  0
  6 27  1  6  0  0  0
  6 13  1  0  0  0  0
  7 15  1  6  0  0  0
  7  1  1  0  0  0  0
  8  1  1  6  0  0  0
  8 12  1  0  0  0  0
  9  6  1  0  0  0  0
  9  2  1  0  0  0  0
  9  3  1  1  0  0  0
 10  4  1  0  0  0  0
 12  5  1  0  0  0  0
 13 10  1  1  0  0  0
 13  8  1  0  0  0  0
 15 19  2  0  0  0  0
 16 17  2  0  0  0  0
 16 15  1  0  0  0  0
 17 18  1  0  0  0  0
 18 14  2  0  0  0  0
 19 14  1  0  0  0  0
 20 21  1  0  0  0  0
 22 20  2  0  0  0  0
 23 25  1  0  0  0  0
 24 23  1  0  0  0  0
 24 25  1  0  0  0  0
 25 20  1  1  0  0  0
 26 27  1  0  0  0  0
M  END
>  <MODEL>
8

>  <REMARK>
 VINA RESULT:      -6.3      2.885      5.847
  Name = 
  4 active torsions:
  status: ('A' for Active; 'I' for Inactive)
    1  A    between atoms: C_2  and  N_6
    2  A    between atoms: C_5  and  C_17
    3  A    between atoms: C_9  and  C_15
    4  A    between atoms: C_12  and  C_14
                            x       y       z     vdW  Elec       q    Type
                         _______ _______ _______ _____ _____    ______ ____

>  <TORSDO>
F 4

$$$$
=
 OpenBabel10272401133D

 27 30  0  0  1  0  0  0  0  0999 V2000
  185.0770  177.5460  143.4650 C   0  0  0  0  0  2  0  0  0  0  0  0
  185.0100  179.0400  141.3660 C   0  0  1  0  0  3  0  0  0  0  0  0
  186.9730  180.2560  142.1080 O   0  0  0  0  0  1  0  0  0  0  0  0
  189.2480  177.5520  144.8950 C   0  0  0  0  0  2  0  0  0  0  0  0
  188.0760  177.6320  145.8300 C   0  0  0  0  0  0  0  0  0  0  0  0
  187.2960  177.9100  141.5330 C   0  0  2  0  0  3  0  0  0  0  0  0
  184.4830  178.7820  142.7920 C   0  0  1  0  0  3  0  0  0  0  0  0
  186.4560  177.9010  143.9880 C   0  0  1  0  0  3  0  0  0  0  0  0
  186.5320  179.2190  141.2820 C   0  0  1  0  0  3  0  0  0  0  0  0
  188.8920  178.1570  143.5350 C   0  0  0  0  0  2  0  0  0  0  0  0
  188.2460  177.9410  146.9980 O   0  0  0  0  0  0  0  0  0  0  0  0
  186.7100  177.2480  145.3430 C   0  0  0  0  0  2  0  0  0  0  0  0
  187.5870  177.5500  143.0070 C   0  0  2  0  0  3  0  0  0  0  0  0
  180.9110  178.7170  144.1260 C   0  0  0  0  0  3  0  0  0  0  0  0
  182.9850  178.8120  142.8640 C   0  0  0  0  0  0  0  0  0  0  0  0
  182.2500  178.8790  141.6760 C   0  0  0  0  0  3  0  0  0  0  0  0
  180.8520  178.8730  141.7110 C   0  0  0  0  0  3  0  0  0  0  0  0
  180.1830  178.7920  142.9360 C   0  0  0  0  0  3  0  0  0  0  0  0
  182.3090  178.7240  144.0910 C   0  0  0  0  0  3  0  0  0  0  0  0
  184.4280  178.2570  139.0320 C   0  0  0  0  0  0  0  0  0  0  0  0
  184.5690  178.0090  140.4320 N   0  0  0  0  0  2  0  0  0  0  0  0
  184.7530  179.3750  138.5470 O   0  0  0  0  0  0  0  0  0  0  0  0
  182.4920  177.3660  137.8840 N   0  0  0  0  0  2  0  0  0  0  0  0
  182.9540  176.3440  138.8310 C   0  0  0  0  0  2  0  0  0  0  0  0
  183.9310  177.1750  138.1320 C   0  0  2  0  0  3  0  0  0  0  0  0
  188.4210  178.6740  139.5640 O   0  0  0  0  0  1  0  0  0  0  0  0
  188.5220  177.7870  140.6360 C   0  0  0  0  0  2  0  0  0  0  0  0
  2 21  1  6  0  0  0
  2  7  1  0  0  0  0
  4  5  1  0  0  0  0
  5 11  2  0  0  0  0
  6 27  1  6  0  0  0
  6 13  1  0  0  0  0
  7 15  1  6  0  0  0
  7  1  1  0  0  0  0
  8  1  1  6  0  0  0
  8 12  1  0  0  0  0
  9  2  1  0  0  0  0
  9  6  1  0  0  0  0
  9  3  1  1  0  0  0
 10  4  1  0  0  0  0
 12  5  1  0  0  0  0
 13 10  1  1  0  0  0
 13  8  1  0  0  0  0
 15 19  2  0  0  0  0
 16 17  2  0  0  0  0
 16 15  1  0  0  0  0
 17 18  1  0  0  0  0
 18 14  2  0  0  0  0
 19 14  1  0  0  0  0
 20 21  1  0  0  0  0
 22 20  2  0  0  0  0
 23 25  1  0  0  0  0
 23 24  1  0  0  0  0
 25 24  1  0  0  0  0
 25 20  1  1  0  0  0
 26 27  1  0  0  0  0
M  END
>  <MODEL>
9

>  <REMARK>
 VINA RESULT:      -6.1      3.212      6.266
  Name = 
  4 active torsions:
  status: ('A' for Active; 'I' for Inactive)
    1  A    between atoms: C_2  and  N_6
    2  A    between atoms: C_5  and  C_17
    3  A    between atoms: C_9  and  C_15
    4  A    between atoms: C_12  and  C_14
                            x       y       z     vdW  Elec       q    Type
                         _______ _______ _______ _____ _____    ______ ____

>  <TORSDO>
F 4

$$$$
