=
 OpenBabel10272413353D

 32 38  0  0  1  0  0  0  0  0999 V2000
  187.5420  177.1780  136.8590 C   0  0  1  0  0  3  0  0  0  0  0  0
  188.3070  178.1270  141.8420 C   0  0  1  0  0  3  0  0  0  0  0  0
  183.6520  178.6110  143.4090 C   0  0  0  0  0  2  0  0  0  0  0  0
  184.1850  179.0070  144.7730 C   0  0  0  0  0  2  0  0  0  0  0  0
  189.9880  177.3910  143.4240 C   0  0  0  0  0  0  0  0  0  0  0  0
  190.3350  177.1050  144.7470 C   0  0  0  0  0  0  0  0  0  0  0  0
  188.7250  177.8800  139.5010 C   0  0  0  0  0  0  0  0  0  0  0  0
  186.4810  178.3890  140.2330 N   0  0  0  0  0  0  0  0  0  0  0  0
  191.0110  176.5460  147.3810 C   0  0  0  0  0  3  0  0  0  0  0  0
  186.6260  177.7910  137.9110 C   0  0  0  0  0  2  0  0  0  0  0  0
  184.6430  179.0690  142.3510 C   0  0  0  0  0  2  0  0  0  0  0  0
  186.9860  178.7870  141.5500 C   0  0  1  0  0  3  0  0  0  0  0  0
  185.9920  178.5480  142.5960 N   0  0  1  0  0  0  0  0  0  0  0  0
  187.7340  177.9460  144.1750 C   0  0  0  0  0  0  0  0  0  0  0  0
  191.9310  176.4110  146.3870 N   0  0  0  0  0  0  0  0  0  0  0  0
  189.1280  178.0780  136.7690 S   0  0  0  0  0  0  0  0  0  0  0  0
  187.2580  178.0230  139.2560 C   0  0  0  0  0  0  0  0  0  0  0  0
  191.6240  176.6790  145.0890 C   0  0  0  0  0  3  0  0  0  0  0  0
  189.6860  177.5240  138.4110 C   0  0  0  0  0  2  0  0  0  0  0  0
  185.4450  178.2100  145.0720 C   0  0  0  0  0  2  0  0  0  0  0  0
  186.4460  178.2800  143.9430 C   0  0  2  0  0  3  0  0  0  0  0  0
  188.1190  177.6520  145.4500 N   0  0  0  0  0  0  0  0  0  0  0  0
  189.1710  177.8850  140.7220 N   0  0  0  0  0  0  0  0  0  0  0  0
  190.9410  177.2560  142.4620 F   0  0  0  0  0  0  0  0  0  0  0  0
  189.7140  176.9680  147.0850 C   0  0  0  0  0  3  0  0  0  0  0  0
  188.6780  177.8390  143.1130 C   0  0  0  0  0  0  0  0  0  0  0  0
  189.3750  177.2500  145.7610 C   0  0  0  0  0  0  0  0  0  0  0  0
  187.7220  175.6810  137.0800 C   0  0  0  0  0  2  0  0  0  0  0  0
  186.4910  174.9800  136.7570 N   0  0  0  0  0  2  0  0  0  0  0  0
  186.6250  173.6350  137.2850 C   0  0  0  0  0  3  0  0  0  0  0  0
  185.8740  172.6720  136.3870 C   0  0  0  0  0  2  0  0  0  0  0  0
  185.2580  173.1240  137.6930 C   0  0  0  0  0  2  0  0  0  0  0  0
  1 28  1  1  0  0  0
  1 10  1  0  0  0  0
  2 23  1  1  0  0  0
  2 26  1  0  0  0  0
  3  4  1  0  0  0  0
  4 20  1  0  0  0  0
  5  6  1  0  0  0  0
  6 18  2  0  0  0  0
  6 27  1  0  0  0  0
  7 23  2  0  0  0  0
 10 17  1  0  0  0  0
 11  3  1  0  0  0  0
 12  8  1  6  0  0  0
 12  2  1  0  0  0  0
 12 13  1  0  0  0  0
 13 11  1  1  0  0  0
 13 21  1  0  0  0  0
 14 22  2  0  0  0  0
 15  9  2  0  0  0  0
 16  1  1  0  0  0  0
 16 19  1  0  0  0  0
 17  7  1  0  0  0  0
 17  8  2  0  0  0  0
 18 15  1  0  0  0  0
 19  7  1  0  0  0  0
 21 14  1  0  0  0  0
 21 20  1  6  0  0  0
 22 27  1  0  0  0  0
 24  5  1  0  0  0  0
 25  9  1  0  0  0  0
 26  5  2  0  0  0  0
 26 14  1  0  0  0  0
 27 25  2  0  0  0  0
 29 28  1  0  0  0  0
 29 30  1  0  0  0  0
 30 32  1  0  0  0  0
 31 30  1  0  0  0  0
 31 32  1  0  0  0  0
M  END
>  <MODEL>
1

>  <REMARK>
 VINA RESULT:     -10.3      0.000      0.000
  Name = 
  3 active torsions:
  status: ('A' for Active; 'I' for Inactive)
    1  A    between atoms: C_1  and  N_10
    2  A    between atoms: C_2  and  C_24
    3  A    between atoms: N_10  and  C_24
                            x       y       z     vdW  Elec       q    Type
                         _______ _______ _______ _____ _____    ______ ____

>  <TORSDO>
F 3

$$$$
=
 OpenBabel10272413353D

 32 38  0  0  1  0  0  0  0  0999 V2000
  187.7580  177.1750  136.8540 C   0  0  1  0  0  3  0  0  0  0  0  0
  188.4020  178.1240  141.8540 C   0  0  1  0  0  3  0  0  0  0  0  0
  183.7100  178.5960  143.3100 C   0  0  0  0  0  2  0  0  0  0  0  0
  184.2080  178.9920  144.6860 C   0  0  0  0  0  2  0  0  0  0  0  0
  190.0470  177.3920  143.4740 C   0  0  0  0  0  0  0  0  0  0  0  0
  190.3630  177.1070  144.8060 C   0  0  0  0  0  0  0  0  0  0  0  0
  188.8760  177.8790  139.5230 C   0  0  0  0  0  0  0  0  0  0  0  0
  186.6140  178.3820  140.2020 N   0  0  0  0  0  0  0  0  0  0  0  0
  190.9780  176.5480  147.4550 C   0  0  0  0  0  3  0  0  0  0  0  0
  186.8160  177.7850  137.8840 C   0  0  0  0  0  2  0  0  0  0  0  0
  184.7240  179.0560  142.2750 C   0  0  0  0  0  2  0  0  0  0  0  0
  187.0860  178.7810  141.5310 C   0  0  1  0  0  3  0  0  0  0  0  0
  186.0680  178.5390  142.5530 N   0  0  1  0  0  0  0  0  0  0  0  0
  187.7740  177.9400  144.1730 C   0  0  0  0  0  0  0  0  0  0  0  0
  191.9220  176.4170  146.4830 N   0  0  0  0  0  0  0  0  0  0  0  0
  189.3430  178.0790  136.8020 S   0  0  0  0  0  0  0  0  0  0  0  0
  187.4150  178.0180  139.2440 C   0  0  0  0  0  0  0  0  0  0  0  0
  191.6440  176.6840  145.1780 C   0  0  0  0  0  3  0  0  0  0  0  0
  189.8640  177.5260  138.4560 C   0  0  0  0  0  2  0  0  0  0  0  0
  185.4630  178.1990  145.0140 C   0  0  0  0  0  2  0  0  0  0  0  0
  186.4910  178.2710  143.9100 C   0  0  2  0  0  3  0  0  0  0  0  0
  188.1300  177.6470  145.4560 N   0  0  0  0  0  0  0  0  0  0  0  0
  189.2930  177.8850  140.7540 N   0  0  0  0  0  0  0  0  0  0  0  0
  191.0230  177.2600  142.5360 F   0  0  0  0  0  0  0  0  0  0  0  0
  189.6870  176.9670  147.1280 C   0  0  0  0  0  3  0  0  0  0  0  0
  188.7430  177.8360  143.1330 C   0  0  0  0  0  0  0  0  0  0  0  0
  189.3790  177.2480  145.7960 C   0  0  0  0  0  0  0  0  0  0  0  0
  187.9360  175.6790  137.0780 C   0  0  0  0  0  2  0  0  0  0  0  0
  189.0000  175.1720  136.2290 N   0  0  0  0  0  2  0  0  0  0  0  0
  189.6180  174.0700  136.9440 C   0  0  0  0  0  3  0  0  0  0  0  0
  191.1250  174.2210  136.8830 C   0  0  0  0  0  2  0  0  0  0  0  0
  190.4260  173.2370  135.9700 C   0  0  0  0  0  2  0  0  0  0  0  0
  1 28  1  1  0  0  0
  1 10  1  0  0  0  0
  2 23  1  1  0  0  0
  2 26  1  0  0  0  0
  3  4  1  0  0  0  0
  4 20  1  0  0  0  0
  5  6  1  0  0  0  0
  6 18  2  0  0  0  0
  6 27  1  0  0  0  0
  7 23  2  0  0  0  0
 10 17  1  0  0  0  0
 11  3  1  0  0  0  0
 12  8  1  6  0  0  0
 12  2  1  0  0  0  0
 12 13  1  0  0  0  0
 13 11  1  1  0  0  0
 13 21  1  0  0  0  0
 14 22  2  0  0  0  0
 15  9  2  0  0  0  0
 16  1  1  0  0  0  0
 16 19  1  0  0  0  0
 17  7  1  0  0  0  0
 17  8  2  0  0  0  0
 18 15  1  0  0  0  0
 19  7  1  0  0  0  0
 21 14  1  0  0  0  0
 21 20  1  6  0  0  0
 22 27  1  0  0  0  0
 24  5  1  0  0  0  0
 25  9  1  0  0  0  0
 26  5  2  0  0  0  0
 26 14  1  0  0  0  0
 27 25  2  0  0  0  0
 29 30  1  0  0  0  0
 29 28  1  0  0  0  0
 31 30  1  0  0  0  0
 32 31  1  0  0  0  0
 32 30  1  0  0  0  0
M  END
>  <MODEL>
2

>  <REMARK>
 VINA RESULT:     -10.0      1.139      1.543
  Name = 
  3 active torsions:
  status: ('A' for Active; 'I' for Inactive)
    1  A    between atoms: C_1  and  N_10
    2  A    between atoms: C_2  and  C_24
    3  A    between atoms: N_10  and  C_24
                            x       y       z     vdW  Elec       q    Type
                         _______ _______ _______ _____ _____    ______ ____

>  <TORSDO>
F 3

$$$$
=
 OpenBabel10272413353D

 32 38  0  0  1  0  0  0  0  0999 V2000
  188.2450  175.8330  135.9730 C   0  0  1  0  0  3  0  0  0  0  0  0
  188.7210  177.5840  140.7710 C   0  0  1  0  0  3  0  0  0  0  0  0
  184.0290  178.7160  141.8020 C   0  0  0  0  0  2  0  0  0  0  0  0
  184.4920  179.3030  143.1220 C   0  0  0  0  0  2  0  0  0  0  0  0
  190.1990  177.0060  142.6000 C   0  0  0  0  0  0  0  0  0  0  0  0
  190.4160  176.9320  143.9790 C   0  0  0  0  0  0  0  0  0  0  0  0
  189.2880  176.8930  138.5530 C   0  0  0  0  0  0  0  0  0  0  0  0
  187.0540  177.7050  138.9810 N   0  0  0  0  0  0  0  0  0  0  0  0
  190.8350  176.7950  146.7200 C   0  0  0  0  0  3  0  0  0  0  0  0
  187.3160  176.6950  136.8180 C   0  0  0  0  0  2  0  0  0  0  0  0
  185.1360  178.8970  140.7760 C   0  0  0  0  0  2  0  0  0  0  0  0
  187.4950  178.2880  140.2520 C   0  0  1  0  0  3  0  0  0  0  0  0
  186.4060  178.3200  141.2280 N   0  0  1  0  0  0  0  0  0  0  0  0
  187.9580  177.8670  143.0390 C   0  0  0  0  0  0  0  0  0  0  0  0
  191.8100  176.4120  145.8510 N   0  0  0  0  0  0  0  0  0  0  0  0
  189.9120  176.5700  135.8750 S   0  0  0  0  0  0  0  0  0  0  0  0
  187.8640  177.1090  138.1550 C   0  0  0  0  0  0  0  0  0  0  0  0
  191.6280  176.4700  144.5040 C   0  0  0  0  0  3  0  0  0  0  0  0
  190.2890  176.2720  137.6310 C   0  0  0  0  0  2  0  0  0  0  0  0
  185.6440  178.4720  143.6650 C   0  0  0  0  0  2  0  0  0  0  0  0
  186.7290  178.2580  142.6370 C   0  0  2  0  0  3  0  0  0  0  0  0
  188.2170  177.7730  144.3740 N   0  0  0  0  0  0  0  0  0  0  0  0
  189.6390  177.0780  139.7910 N   0  0  0  0  0  0  0  0  0  0  0  0
  191.2040  176.6250  141.7660 F   0  0  0  0  0  0  0  0  0  0  0  0
  189.6100  177.2620  146.2390 C   0  0  0  0  0  3  0  0  0  0  0  0
  188.9650  177.4970  142.1000 C   0  0  0  0  0  0  0  0  0  0  0  0
  189.4010  177.3310  144.8610 C   0  0  0  0  0  0  0  0  0  0  0  0
  188.2630  174.3890  136.4600 C   0  0  0  0  0  2  0  0  0  0  0  0
  187.2730  173.6090  135.7380 N   0  0  0  0  0  2  0  0  0  0  0  0
  186.6920  172.6830  136.6930 C   0  0  0  0  0  3  0  0  0  0  0  0
  185.4070  172.1190  136.1210 C   0  0  0  0  0  2  0  0  0  0  0  0
  185.3540  173.2210  137.1570 C   0  0  0  0  0  2  0  0  0  0  0  0
  1 28  1  1  0  0  0
  1 10  1  0  0  0  0
  2 23  1  6  0  0  0
  2 26  1  0  0  0  0
  3  4  1  0  0  0  0
  4 20  1  0  0  0  0
  5  6  1  0  0  0  0
  6 18  2  0  0  0  0
  6 27  1  0  0  0  0
  7 23  2  0  0  0  0
 10 17  1  0  0  0  0
 11  3  1  0  0  0  0
 12  8  1  6  0  0  0
 12  2  1  0  0  0  0
 12 13  1  0  0  0  0
 13 11  1  1  0  0  0
 13 21  1  0  0  0  0
 14 22  2  0  0  0  0
 15  9  2  0  0  0  0
 16  1  1  0  0  0  0
 16 19  1  0  0  0  0
 17  7  1  0  0  0  0
 17  8  2  0  0  0  0
 18 15  1  0  0  0  0
 19  7  1  0  0  0  0
 21 14  1  0  0  0  0
 21 20  1  1  0  0  0
 22 27  1  0  0  0  0
 24  5  1  0  0  0  0
 25  9  1  0  0  0  0
 26  5  2  0  0  0  0
 26 14  1  0  0  0  0
 27 25  2  0  0  0  0
 29 28  1  0  0  0  0
 29 30  1  0  0  0  0
 30 32  1  0  0  0  0
 31 30  1  0  0  0  0
 31 32  1  0  0  0  0
M  END
>  <MODEL>
3

>  <REMARK>
 VINA RESULT:      -8.8      1.113      1.325
  Name = 
  3 active torsions:
  status: ('A' for Active; 'I' for Inactive)
    1  A    between atoms: C_1  and  N_10
    2  A    between atoms: C_2  and  C_24
    3  A    between atoms: N_10  and  C_24
                            x       y       z     vdW  Elec       q    Type
                         _______ _______ _______ _____ _____    ______ ____

>  <TORSDO>
F 3

$$$$
=
 OpenBabel10272413353D

 32 38  0  0  1  0  0  0  0  0999 V2000
  187.7310  177.0260  136.8640 C   0  0  1  0  0  3  0  0  0  0  0  0
  186.9090  178.4710  141.7170 C   0  0  1  0  0  3  0  0  0  0  0  0
  181.9780  178.6700  141.7920 C   0  0  0  0  0  2  0  0  0  0  0  0
  182.0530  179.2300  143.1990 C   0  0  0  0  0  2  0  0  0  0  0  0
  188.0790  178.0300  143.7910 C   0  0  0  0  0  0  0  0  0  0  0  0
  188.0300  177.8940  145.1820 C   0  0  0  0  0  0  0  0  0  0  0  0
  188.0240  178.0590  139.6420 C   0  0  0  0  0  0  0  0  0  0  0  0
  185.6370  178.4260  139.6260 N   0  0  0  0  0  0  0  0  0  0  0  0
  187.9180  177.6290  147.9430 C   0  0  0  0  0  3  0  0  0  0  0  0
  186.5080  177.6430  137.5290 C   0  0  0  0  0  2  0  0  0  0  0  0
  183.2120  179.1210  141.0250 C   0  0  0  0  0  2  0  0  0  0  0  0
  185.6990  178.9820  140.9810 C   0  0  1  0  0  3  0  0  0  0  0  0
  184.4540  178.7470  141.7100 N   0  0  1  0  0  0  0  0  0  0  0  0
  185.6750  178.4440  143.7860 C   0  0  0  0  0  0  0  0  0  0  0  0
  189.1000  177.4920  147.2830 N   0  0  0  0  0  0  0  0  0  0  0  0
  189.2140  178.0530  137.1430 S   0  0  0  0  0  0  0  0  0  0  0  0
  186.6920  178.0480  138.9660 C   0  0  0  0  0  0  0  0  0  0  0  0
  189.1800  177.6170  145.9300 C   0  0  0  0  0  3  0  0  0  0  0  0
  189.2870  177.6970  138.9270 C   0  0  0  0  0  2  0  0  0  0  0  0
  183.2100  178.5790  143.9390 C   0  0  0  0  0  2  0  0  0  0  0  0
  184.4980  178.6390  143.1520 C   0  0  2  0  0  3  0  0  0  0  0  0
  185.6770  178.2980  145.1420 N   0  0  0  0  0  0  0  0  0  0  0  0
  188.0820  178.2110  140.9320 N   0  0  0  0  0  0  0  0  0  0  0  0
  189.2830  177.8980  143.1720 F   0  0  0  0  0  0  0  0  0  0  0  0
  186.7460  177.9060  147.2360 C   0  0  0  0  0  3  0  0  0  0  0  0
  186.8990  178.3300  143.0640 C   0  0  0  0  0  0  0  0  0  0  0  0
  186.8040  178.0390  145.8480 C   0  0  0  0  0  0  0  0  0  0  0  0
  187.9260  175.5760  137.2910 C   0  0  0  0  0  2  0  0  0  0  0  0
  189.1170  175.0290  136.6660 N   0  0  0  0  0  2  0  0  0  0  0  0
  188.6820  174.3410  135.4650 C   0  0  0  0  0  3  0  0  0  0  0  0
  189.7200  173.3050  135.0820 C   0  0  0  0  0  2  0  0  0  0  0  0
  189.6630  174.6260  134.3460 C   0  0  0  0  0  2  0  0  0  0  0  0
  1 16  1  0  0  0  0
  1 28  1  1  0  0  0
  1 10  1  0  0  0  0
  2 23  1  1  0  0  0
  2 26  1  0  0  0  0
  3  4  1  0  0  0  0
  4 20  1  0  0  0  0
  5  6  1  0  0  0  0
  6 27  2  0  0  0  0
  6 18  1  0  0  0  0
  7 23  2  0  0  0  0
 10 17  1  0  0  0  0
 11  3  1  0  0  0  0
 12  8  1  6  0  0  0
 12 13  1  0  0  0  0
 12  2  1  0  0  0  0
 13 11  1  1  0  0  0
 13 21  1  0  0  0  0
 14 22  2  0  0  0  0
 15  9  1  0  0  0  0
 16 19  1  0  0  0  0
 17  8  2  0  0  0  0
 17  7  1  0  0  0  0
 18 15  2  0  0  0  0
 19  7  1  0  0  0  0
 21 14  1  0  0  0  0
 21 20  1  6  0  0  0
 22 27  1  0  0  0  0
 24  5  1  0  0  0  0
 25  9  2  0  0  0  0
 26 14  1  0  0  0  0
 26  5  2  0  0  0  0
 27 25  1  0  0  0  0
 29 28  1  0  0  0  0
 30 29  1  0  0  0  0
 31 30  1  0  0  0  0
 32 31  1  0  0  0  0
 32 30  1  0  0  0  0
M  END
>  <MODEL>
4

>  <REMARK>
 VINA RESULT:      -8.7      1.725      2.356
  Name = 
  3 active torsions:
  status: ('A' for Active; 'I' for Inactive)
    1  A    between atoms: C_1  and  N_10
    2  A    between atoms: C_2  and  C_24
    3  A    between atoms: N_10  and  C_24
                            x       y       z     vdW  Elec       q    Type
                         _______ _______ _______ _____ _____    ______ ____

>  <TORSDO>
F 3

$$$$
=
 OpenBabel10272413353D

 32 38  0  0  1  0  0  0  0  0999 V2000
  180.9080  178.3270  140.0570 C   0  0  1  0  0  3  0  0  0  0  0  0
  185.6710  178.7690  141.9080 C   0  0  1  0  0  3  0  0  0  0  0  0
  184.8570  178.0390  146.7210 C   0  0  0  0  0  2  0  0  0  0  0  0
  186.3150  178.3610  146.9850 C   0  0  0  0  0  2  0  0  0  0  0  0
  187.8500  178.2140  141.0080 C   0  0  0  0  0  0  0  0  0  0  0  0
  189.1770  177.8420  141.2420 C   0  0  0  0  0  0  0  0  0  0  0  0
  183.8030  178.9200  140.4240 C   0  0  0  0  0  0  0  0  0  0  0  0
  183.3930  178.8380  142.8020 N   0  0  0  0  0  0  0  0  0  0  0  0
  191.8100  177.1060  141.7230 C   0  0  0  0  0  3  0  0  0  0  0  0
  181.4090  178.5890  141.4720 C   0  0  0  0  0  2  0  0  0  0  0  0
  184.3980  178.8310  145.5060 C   0  0  0  0  0  2  0  0  0  0  0  0
  184.7970  179.1630  143.0690 C   0  0  1  0  0  3  0  0  0  0  0  0
  185.2460  178.5840  144.3350 N   0  0  1  0  0  0  0  0  0  0  0  0
  187.4540  178.1710  143.4150 C   0  0  0  0  0  0  0  0  0  0  0  0
  191.3680  177.3010  140.4510 N   0  0  0  0  0  0  0  0  0  0  0  0
  181.5890  179.5500  138.8860 S   0  0  0  0  0  0  0  0  0  0  0  0
  182.8960  178.7760  141.6020 C   0  0  0  0  0  0  0  0  0  0  0  0
  190.0830  177.6610  140.1900 C   0  0  0  0  0  3  0  0  0  0  0  0
  183.2930  178.9220  139.0170 C   0  0  0  0  0  2  0  0  0  0  0  0
  187.1640  177.8210  145.8460 C   0  0  0  0  0  2  0  0  0  0  0  0
  186.6440  178.2480  144.4940 C   0  0  2  0  0  3  0  0  0  0  0  0
  188.7550  177.8050  143.5920 N   0  0  0  0  0  0  0  0  0  0  0  0
  185.0890  178.8640  140.5990 N   0  0  0  0  0  0  0  0  0  0  0  0
  187.4520  178.4110  139.7220 F   0  0  0  0  0  0  0  0  0  0  0  0
  190.9410  177.2750  142.8030 C   0  0  0  0  0  3  0  0  0  0  0  0
  186.9620  178.4070  142.0980 C   0  0  0  0  0  0  0  0  0  0  0  0
  189.6180  177.6450  142.5600 C   0  0  0  0  0  0  0  0  0  0  0  0
  181.1690  176.8880  139.6310 C   0  0  0  0  0  2  0  0  0  0  0  0
  180.5130  176.6180  138.3630 N   0  0  0  0  0  2  0  0  0  0  0  0
  181.1590  175.4480  137.7970 C   0  0  0  0  0  3  0  0  0  0  0  0
  180.2440  174.8280  136.7600 C   0  0  0  0  0  2  0  0  0  0  0  0
  180.3450  174.2170  138.1410 C   0  0  0  0  0  2  0  0  0  0  0  0
  1 28  1  6  0  0  0
  1 10  1  0  0  0  0
  2 23  1  6  0  0  0
  2 26  1  0  0  0  0
  2 12  1  0  0  0  0
  3  4  1  0  0  0  0
  5  6  2  0  0  0  0
  5 26  1  0  0  0  0
  6 27  1  0  0  0  0
  7 23  2  0  0  0  0
  7 17  1  0  0  0  0
  9 25  2  0  0  0  0
 10 17  1  0  0  0  0
 11  3  1  0  0  0  0
 12  8  1  6  0  0  0
 12 13  1  0  0  0  0
 13 21  1  0  0  0  0
 13 11  1  1  0  0  0
 14 22  1  0  0  0  0
 14 21  1  0  0  0  0
 15  9  1  0  0  0  0
 16 19  1  0  0  0  0
 16  1  1  0  0  0  0
 17  8  2  0  0  0  0
 18 15  2  0  0  0  0
 18  6  1  0  0  0  0
 19  7  1  0  0  0  0
 20  4  1  0  0  0  0
 21 20  1  6  0  0  0
 24  5  1  0  0  0  0
 26 14  2  0  0  0  0
 27 25  1  0  0  0  0
 27 22  2  0  0  0  0
 29 28  1  0  0  0  0
 30 32  1  0  0  0  0
 30 29  1  0  0  0  0
 31 30  1  0  0  0  0
 31 32  1  0  0  0  0
M  END
>  <MODEL>
5

>  <REMARK>
 VINA RESULT:      -8.6      3.299      4.719
  Name = 
  3 active torsions:
  status: ('A' for Active; 'I' for Inactive)
    1  A    between atoms: C_1  and  N_10
    2  A    between atoms: C_2  and  C_24
    3  A    between atoms: N_10  and  C_24
                            x       y       z     vdW  Elec       q    Type
                         _______ _______ _______ _____ _____    ______ ____

>  <TORSDO>
F 3

$$$$
=
 OpenBabel10272413353D

 32 38  0  0  1  0  0  0  0  0999 V2000
  187.1380  176.9120  136.1490 C   0  0  1  0  0  3  0  0  0  0  0  0
  185.7060  178.6440  140.7600 C   0  0  1  0  0  3  0  0  0  0  0  0
  180.8090  178.8440  140.1840 C   0  0  0  0  0  2  0  0  0  0  0  0
  180.7040  179.4870  141.5530 C   0  0  0  0  0  2  0  0  0  0  0  0
  186.5950  178.3290  142.9910 C   0  0  0  0  0  0  0  0  0  0  0  0
  186.3660  178.2760  144.3690 C   0  0  0  0  0  0  0  0  0  0  0  0
  187.0770  178.1100  138.8750 C   0  0  0  0  0  0  0  0  0  0  0  0
  184.7150  178.4740  138.5280 N   0  0  0  0  0  0  0  0  0  0  0  0
  185.8950  178.1770  147.1030 C   0  0  0  0  0  3  0  0  0  0  0  0
  185.8430  177.5670  136.6110 C   0  0  0  0  0  2  0  0  0  0  0  0
  182.1340  179.2490  139.5580 C   0  0  0  0  0  2  0  0  0  0  0  0
  184.6050  179.1090  139.8440 C   0  0  1  0  0  3  0  0  0  0  0  0
  183.2740  178.9170  140.4190 N   0  0  1  0  0  0  0  0  0  0  0  0
  184.2150  178.7400  142.6500 C   0  0  0  0  0  0  0  0  0  0  0  0
  187.1520  178.0010  146.6100 N   0  0  0  0  0  0  0  0  0  0  0  0
  188.5800  177.9550  136.5560 S   0  0  0  0  0  0  0  0  0  0  0  0
  185.8440  178.0570  138.0340 C   0  0  0  0  0  0  0  0  0  0  0  0
  187.4070  178.0450  145.2750 C   0  0  0  0  0  3  0  0  0  0  0  0
  188.4190  177.7060  138.3520 C   0  0  0  0  0  2  0  0  0  0  0  0
  181.7520  178.8820  142.4740 C   0  0  0  0  0  2  0  0  0  0  0  0
  183.1310  178.8960  141.8580 C   0  0  2  0  0  3  0  0  0  0  0  0
  184.0410  178.6750  144.0010 N   0  0  0  0  0  0  0  0  0  0  0  0
  186.9690  178.3380  140.1500 N   0  0  0  0  0  0  0  0  0  0  0  0
  187.8680  178.1610  142.5410 F   0  0  0  0  0  0  0  0  0  0  0  0
  184.8270  178.4100  146.2350 C   0  0  0  0  0  3  0  0  0  0  0  0
  185.5210  178.5830  142.1000 C   0  0  0  0  0  0  0  0  0  0  0  0
  185.0650  178.4600  144.8610 C   0  0  0  0  0  0  0  0  0  0  0  0
  187.2660  175.4900  136.6830 C   0  0  0  0  0  2  0  0  0  0  0  0
  185.9640  174.9960  137.0950 N   0  0  0  0  0  2  0  0  0  0  0  0
  185.7670  173.7240  136.4240 C   0  0  0  0  0  3  0  0  0  0  0  0
  184.2900  173.5350  136.1400 C   0  0  0  0  0  2  0  0  0  0  0  0
  184.9330  172.8200  137.3080 C   0  0  0  0  0  2  0  0  0  0  0  0
  1 16  1  0  0  0  0
  1 10  1  0  0  0  0
  1 28  1  1  0  0  0
  2 23  1  1  0  0  0
  2 26  1  0  0  0  0
  3  4  1  0  0  0  0
  4 20  1  0  0  0  0
  5  6  1  0  0  0  0
  6 27  2  0  0  0  0
  6 18  1  0  0  0  0
  7 23  2  0  0  0  0
 10 17  1  0  0  0  0
 11  3  1  0  0  0  0
 12  8  1  6  0  0  0
 12 13  1  0  0  0  0
 12  2  1  0  0  0  0
 13 11  1  1  0  0  0
 13 21  1  0  0  0  0
 14 22  2  0  0  0  0
 15  9  1  0  0  0  0
 16 19  1  0  0  0  0
 17  8  2  0  0  0  0
 17  7  1  0  0  0  0
 18 15  2  0  0  0  0
 19  7  1  0  0  0  0
 21 20  1  6  0  0  0
 21 14  1  0  0  0  0
 22 27  1  0  0  0  0
 24  5  1  0  0  0  0
 25  9  2  0  0  0  0
 26 14  1  0  0  0  0
 26  5  2  0  0  0  0
 27 25  1  0  0  0  0
 28 29  1  0  0  0  0
 30 29  1  0  0  0  0
 30 32  1  0  0  0  0
 31 30  1  0  0  0  0
 31 32  1  0  0  0  0
M  END
>  <MODEL>
6

>  <REMARK>
 VINA RESULT:      -8.2      2.149      3.347
  Name = 
  3 active torsions:
  status: ('A' for Active; 'I' for Inactive)
    1  A    between atoms: C_1  and  N_10
    2  A    between atoms: C_2  and  C_24
    3  A    between atoms: N_10  and  C_24
                            x       y       z     vdW  Elec       q    Type
                         _______ _______ _______ _____ _____    ______ ____

>  <TORSDO>
F 3

$$$$
=
 OpenBabel10272413353D

 32 38  0  0  1  0  0  0  0  0999 V2000
  181.2310  178.5180  140.4730 C   0  0  1  0  0  3  0  0  0  0  0  0
  186.3530  178.5030  140.7510 C   0  0  1  0  0  3  0  0  0  0  0  0
  187.0110  177.2870  145.4890 C   0  0  0  0  0  2  0  0  0  0  0  0
  188.5010  177.5020  145.3060 C   0  0  0  0  0  2  0  0  0  0  0  0
  188.0910  177.9390  139.1620 C   0  0  0  0  0  0  0  0  0  0  0  0
  189.3890  177.4740  138.9300 C   0  0  0  0  0  0  0  0  0  0  0  0
  184.1370  178.9150  139.9550 C   0  0  0  0  0  0  0  0  0  0  0  0
  184.4780  178.5920  142.3230 N   0  0  0  0  0  0  0  0  0  0  0  0
  191.9700  176.5530  138.4850 C   0  0  0  0  0  3  0  0  0  0  0  0
  182.1660  178.5950  141.6730 C   0  0  0  0  0  2  0  0  0  0  0  0
  186.2670  178.2320  144.5580 C   0  0  0  0  0  2  0  0  0  0  0  0
  185.9180  178.8110  142.1600 C   0  0  1  0  0  3  0  0  0  0  0  0
  186.6870  178.0720  143.1620 N   0  0  1  0  0  0  0  0  0  0  0  0
  188.4570  177.6500  141.5570 C   0  0  0  0  0  0  0  0  0  0  0  0
  191.1740  176.9110  137.4410 N   0  0  0  0  0  0  0  0  0  0  0  0
  181.6160  179.8260  139.2600 S   0  0  0  0  0  0  0  0  0  0  0  0
  183.6300  178.6890  141.3420 C   0  0  0  0  0  0  0  0  0  0  0  0
  189.9060  177.3640  137.6340 C   0  0  0  0  0  3  0  0  0  0  0  0
  183.2180  179.0990  138.7890 C   0  0  0  0  0  2  0  0  0  0  0  0
  188.9070  177.0480  143.9130 C   0  0  0  0  0  2  0  0  0  0  0  0
  188.0320  177.6490  142.8390 C   0  0  2  0  0  3  0  0  0  0  0  0
  189.7140  177.1990  141.2800 N   0  0  0  0  0  0  0  0  0  0  0  0
  185.4050  178.7730  139.7080 N   0  0  0  0  0  0  0  0  0  0  0  0
  187.3330  178.2970  138.0910 F   0  0  0  0  0  0  0  0  0  0  0  0
  191.4950  176.6460  139.7950 C   0  0  0  0  0  3  0  0  0  0  0  0
  187.6040  178.0550  140.4890 C   0  0  0  0  0  0  0  0  0  0  0  0
  190.1980  177.1100  140.0170 C   0  0  0  0  0  0  0  0  0  0  0  0
  181.2250  177.1230  139.8600 C   0  0  0  0  0  2  0  0  0  0  0  0
  180.0440  176.9490  139.0320 N   0  0  0  0  0  2  0  0  0  0  0  0
  180.5090  176.5720  137.7110 C   0  0  0  0  0  3  0  0  0  0  0  0
  180.0360  175.1660  137.4000 C   0  0  0  0  0  2  0  0  0  0  0  0
  181.4650  175.4030  137.8360 C   0  0  0  0  0  2  0  0  0  0  0  0
  1 28  1  6  0  0  0
  1 10  1  0  0  0  0
  2 23  1  6  0  0  0
  2 12  1  0  0  0  0
  4  3  1  0  0  0  0
  5 26  1  0  0  0  0
  6  5  2  0  0  0  0
  6 27  1  0  0  0  0
  7 17  1  0  0  0  0
  9 25  2  0  0  0  0
 11  3  1  0  0  0  0
 12  8  1  6  0  0  0
 12 13  1  0  0  0  0
 13 11  1  1  0  0  0
 14 21  1  0  0  0  0
 15 18  2  0  0  0  0
 15  9  1  0  0  0  0
 16  1  1  0  0  0  0
 17 10  1  0  0  0  0
 17  8  2  0  0  0  0
 18  6  1  0  0  0  0
 19 16  1  0  0  0  0
 19  7  1  0  0  0  0
 20  4  1  0  0  0  0
 21 13  1  0  0  0  0
 21 20  1  6  0  0  0
 22 14  1  0  0  0  0
 23  7  2  0  0  0  0
 24  5  1  0  0  0  0
 25 27  1  0  0  0  0
 26  2  1  0  0  0  0
 26 14  2  0  0  0  0
 27 22  2  0  0  0  0
 29 28  1  0  0  0  0
 30 32  1  0  0  0  0
 30 29  1  0  0  0  0
 31 30  1  0  0  0  0
 31 32  1  0  0  0  0
M  END
>  <MODEL>
7

>  <REMARK>
 VINA RESULT:      -8.2      3.265      5.543
  Name = 
  3 active torsions:
  status: ('A' for Active; 'I' for Inactive)
    1  A    between atoms: C_1  and  N_10
    2  A    between atoms: C_2  and  C_24
    3  A    between atoms: N_10  and  C_24
                            x       y       z     vdW  Elec       q    Type
                         _______ _______ _______ _____ _____    ______ ____

>  <TORSDO>
F 3

$$$$
=
 OpenBabel10272413353D

 32 38  0  0  1  0  0  0  0  0999 V2000
  182.9020  178.4070  140.8500 C   0  0  1  0  0  3  0  0  0  0  0  0
  187.9570  178.1510  140.0210 C   0  0  1  0  0  3  0  0  0  0  0  0
  189.5840  177.1480  144.5710 C   0  0  0  0  0  2  0  0  0  0  0  0
  191.0050  177.2780  144.0590 C   0  0  0  0  0  2  0  0  0  0  0  0
  189.2850  177.4190  138.1320 C   0  0  0  0  0  0  0  0  0  0  0  0
  190.4830  176.8790  137.6550 C   0  0  0  0  0  0  0  0  0  0  0  0
  185.6380  178.6320  139.6960 C   0  0  0  0  0  0  0  0  0  0  0  0
  186.4740  178.4130  141.9510 N   0  0  0  0  0  0  0  0  0  0  0  0
  192.8690  175.8090  136.7220 C   0  0  0  0  0  3  0  0  0  0  0  0
  184.0780  178.4980  141.8140 C   0  0  0  0  0  2  0  0  0  0  0  0
  188.6910  178.0790  143.7660 C   0  0  0  0  0  2  0  0  0  0  0  0
  187.8510  178.5510  141.4680 C   0  0  1  0  0  3  0  0  0  0  0  0
  188.7910  177.8280  142.3250 N   0  0  1  0  0  0  0  0  0  0  0  0
  190.1530  177.2350  140.4050 C   0  0  0  0  0  0  0  0  0  0  0  0
  191.8780  176.1520  135.8540 N   0  0  0  0  0  0  0  0  0  0  0  0
  183.0630  179.6300  139.5050 S   0  0  0  0  0  0  0  0  0  0  0  0
  185.4370  178.5020  141.1700 C   0  0  0  0  0  0  0  0  0  0  0  0
  190.7010  176.6770  136.2870 C   0  0  0  0  0  3  0  0  0  0  0  0
  184.4950  178.8010  138.7460 C   0  0  0  0  0  2  0  0  0  0  0  0
  191.0810  176.7330  142.6420 C   0  0  0  0  0  2  0  0  0  0  0  0
  190.0160  177.3220  141.7460 C   0  0  2  0  0  3  0  0  0  0  0  0
  191.3010  176.7090  139.8920 N   0  0  0  0  0  0  0  0  0  0  0  0
  186.8150  178.4130  139.1920 N   0  0  0  0  0  0  0  0  0  0  0  0
  188.3260  177.7600  137.2300 F   0  0  0  0  0  0  0  0  0  0  0  0
  192.6940  175.9920  138.0950 C   0  0  0  0  0  3  0  0  0  0  0  0
  189.1030  177.6280  139.5240 C   0  0  0  0  0  0  0  0  0  0  0  0
  191.4950  176.5310  138.5630 C   0  0  0  0  0  0  0  0  0  0  0  0
  182.7090  176.9850  140.3380 C   0  0  0  0  0  2  0  0  0  0  0  0
  181.3730  176.8300  139.7910 N   0  0  0  0  0  2  0  0  0  0  0  0
  181.5230  176.2130  138.4860 C   0  0  0  0  0  3  0  0  0  0  0  0
  180.1650  176.1210  137.8200 C   0  0  0  0  0  2  0  0  0  0  0  0
  180.7720  174.8970  138.4700 C   0  0  0  0  0  2  0  0  0  0  0  0
  1 28  1  6  0  0  0
  1 10  1  0  0  0  0
  2 23  1  6  0  0  0
  2 12  1  0  0  0  0
  4  3  1  0  0  0  0
  5 26  1  0  0  0  0
  6  5  2  0  0  0  0
  6 27  1  0  0  0  0
  7 17  1  0  0  0  0
  9 25  2  0  0  0  0
 11  3  1  0  0  0  0
 12  8  1  1  0  0  0
 12 13  1  0  0  0  0
 13 11  1  1  0  0  0
 14 21  1  0  0  0  0
 15 18  2  0  0  0  0
 15  9  1  0  0  0  0
 16  1  1  0  0  0  0
 17 10  1  0  0  0  0
 17  8  2  0  0  0  0
 18  6  1  0  0  0  0
 19 16  1  0  0  0  0
 19  7  1  0  0  0  0
 20  4  1  0  0  0  0
 21 13  1  0  0  0  0
 21 20  1  1  0  0  0
 22 14  1  0  0  0  0
 23  7  2  0  0  0  0
 24  5  1  0  0  0  0
 25 27  1  0  0  0  0
 26  2  1  0  0  0  0
 26 14  2  0  0  0  0
 27 22  2  0  0  0  0
 29 28  1  0  0  0  0
 30 29  1  0  0  0  0
 31 32  1  0  0  0  0
 31 30  1  0  0  0  0
 32 30  1  0  0  0  0
M  END
>  <MODEL>
8

>  <REMARK>
 VINA RESULT:      -7.7      3.151      6.042
  Name = 
  3 active torsions:
  status: ('A' for Active; 'I' for Inactive)
    1  A    between atoms: C_1  and  N_10
    2  A    between atoms: C_2  and  C_24
    3  A    between atoms: N_10  and  C_24
                            x       y       z     vdW  Elec       q    Type
                         _______ _______ _______ _____ _____    ______ ____

>  <TORSDO>
F 3

$$$$
=
 OpenBabel10272413353D

 32 38  0  0  1  0  0  0  0  0999 V2000
  191.6940  177.2700  143.4260 C   0  0  1  0  0  3  0  0  0  0  0  0
  187.9620  178.4140  140.0970 C   0  0  1  0  0  3  0  0  0  0  0  0
  189.5620  176.0420  136.0760 C   0  0  0  0  0  2  0  0  0  0  0  0
  188.4160  176.6550  135.2950 C   0  0  0  0  0  2  0  0  0  0  0  0
  185.5820  178.7850  140.3490 C   0  0  0  0  0  0  0  0  0  0  0  0
  184.3030  178.7390  139.7880 C   0  0  0  0  0  0  0  0  0  0  0  0
  189.3640  178.4940  142.0330 C   0  0  0  0  0  0  0  0  0  0  0  0
  190.2590  177.5740  139.9880 N   0  0  0  0  0  0  0  0  0  0  0  0
  181.7680  178.6460  138.6590 C   0  0  0  0  0  3  0  0  0  0  0  0
  191.6600  177.2100  141.9040 C   0  0  0  0  0  2  0  0  0  0  0  0
  189.9740  177.0100  137.1720 C   0  0  0  0  0  2  0  0  0  0  0  0
  189.1630  178.1740  139.2210 C   0  0  1  0  0  3  0  0  0  0  0  0
  188.8470  177.3800  138.0340 N   0  0  1  0  0  0  0  0  0  0  0  0
  186.4860  177.8950  138.2650 C   0  0  0  0  0  0  0  0  0  0  0  0
  181.9420  179.0940  139.9320 N   0  0  0  0  0  0  0  0  0  0  0  0
  191.2350  178.9320  144.0250 S   0  0  0  0  0  0  0  0  0  0  0  0
  190.4090  177.7500  141.2680 C   0  0  0  0  0  0  0  0  0  0  0  0
  183.1740  179.1480  140.5070 C   0  0  0  0  0  3  0  0  0  0  0  0
  189.5000  178.7880  143.4930 C   0  0  0  0  0  2  0  0  0  0  0  0
  187.1900  176.7480  136.1910 C   0  0  0  0  0  2  0  0  0  0  0  0
  187.4980  177.4110  137.5120 C   0  0  2  0  0  3  0  0  0  0  0  0
  185.2180  177.8660  137.7630 N   0  0  0  0  0  0  0  0  0  0  0  0
  188.2190  178.7430  141.4710 N   0  0  0  0  0  0  0  0  0  0  0  0
  185.7130  179.2510  141.6210 F   0  0  0  0  0  0  0  0  0  0  0  0
  182.8670  178.2280  137.9050 C   0  0  0  0  0  3  0  0  0  0  0  0
  186.7080  178.3800  139.5870 C   0  0  0  0  0  0  0  0  0  0  0  0
  184.1400  178.2760  138.4730 C   0  0  0  0  0  0  0  0  0  0  0  0
  190.8500  176.1620  144.0460 C   0  0  0  0  0  2  0  0  0  0  0  0
  191.6050  175.4870  145.0870 N   0  0  0  0  0  2  0  0  0  0  0  0
  191.8870  176.4770  146.1100 C   0  0  0  0  0  3  0  0  0  0  0  0
  191.9820  175.7880  147.4570 C   0  0  0  0  0  2  0  0  0  0  0  0
  190.7230  176.5380  147.0780 C   0  0  0  0  0  2  0  0  0  0  0  0
  1 16  1  0  0  0  0
  1 28  1  1  0  0  0
  2 26  1  6  0  0  0
  2 23  1  0  0  0  0
  3 11  1  0  0  0  0
  4  3  1  0  0  0  0
  4 20  1  0  0  0  0
  5 24  1  0  0  0  0
  6  5  1  0  0  0  0
  6 18  1  0  0  0  0
  7 19  1  0  0  0  0
  8 17  2  0  0  0  0
  9 15  1  0  0  0  0
 10  1  1  0  0  0  0
 12  8  1  1  0  0  0
 12  2  1  0  0  0  0
 13 11  1  6  0  0  0
 13 12  1  0  0  0  0
 14 26  1  0  0  0  0
 15 18  2  0  0  0  0
 17 10  1  0  0  0  0
 17  7  1  0  0  0  0
 19 16  1  0  0  0  0
 21 20  1  1  0  0  0
 21 13  1  0  0  0  0
 21 14  1  0  0  0  0
 22 14  2  0  0  0  0
 22 27  1  0  0  0  0
 23  7  2  0  0  0  0
 25 27  1  0  0  0  0
 25  9  2  0  0  0  0
 26  5  2  0  0  0  0
 27  6  2  0  0  0  0
 28 29  1  0  0  0  0
 29 30  1  0  0  0  0
 30 32  1  0  0  0  0
 30 31  1  0  0  0  0
 32 31  1  0  0  0  0
M  END
>  <MODEL>
9

>  <REMARK>
 VINA RESULT:      -7.3      2.905      8.114
  Name = 
  3 active torsions:
  status: ('A' for Active; 'I' for Inactive)
    1  A    between atoms: C_1  and  N_10
    2  A    between atoms: C_2  and  C_24
    3  A    between atoms: N_10  and  C_24
                            x       y       z     vdW  Elec       q    Type
                         _______ _______ _______ _____ _____    ______ ____

>  <TORSDO>
F 3

$$$$
