=
 OpenBabel10272414503D

 37 42  0  0  1  0  0  0  0  0999 V2000
  184.3250  176.3500  136.3760 C   0  0  1  0  0  0  0  0  0  0  0  0
  182.9140  178.9490  139.1910 C   0  0  0  0  0  0  0  0  0  0  0  0
  186.5540  178.5610  138.9670 C   0  0  0  0  0  0  0  0  0  0  0  0
  183.8670  174.8870  136.2840 C   0  0  1  0  0  3  0  0  0  0  0  0
  184.6970  178.6770  141.0430 C   0  0  0  0  0  3  0  0  0  0  0  0
  187.2670  178.0970  137.8530 C   0  0  0  0  0  0  0  0  0  0  0  0
  185.8360  173.7770  137.1730 C   0  0  0  0  0  0  0  0  0  0  0  0
  185.3250  179.1560  138.7740 C   0  0  0  0  0  3  0  0  0  0  0  0
  188.5690  177.5670  138.0580 C   0  0  0  0  0  0  0  0  0  0  0  0
  186.3710  177.9240  142.5710 F   0  0  0  0  0  0  0  0  0  0  0  0
  184.4920  174.1170  137.3010 O   0  0  0  0  0  0  0  0  0  0  0  0
  183.5450  177.2600  137.2380 C   0  0  0  0  0  0  0  0  0  0  0  0
  182.4090  180.2830  138.6730 C   0  0  0  0  0  1  0  0  0  0  0  0
  188.1630  177.6170  140.4420 N   0  0  0  0  0  0  0  0  0  0  0  0
  186.0300  178.3190  141.3190 C   0  0  0  0  0  0  0  0  0  0  0  0
  183.0530  177.9930  138.0650 C   0  0  0  0  0  0  0  0  0  0  0  0
  186.5540  174.0960  135.9050 C   0  0  0  0  0  2  0  0  0  0  0  0
  186.5280  178.0190  136.5180 C   0  0  0  0  0  2  0  0  0  0  0  0
  186.9490  178.1960  140.2610 C   0  0  0  0  0  0  0  0  0  0  0  0
  185.8610  176.6480  136.2300 C   0  0  1  0  0  0  0  0  0  0  0  0
  184.3290  179.1010  139.7490 C   0  0  0  0  0  0  0  0  0  0  0  0
  181.9270  178.3990  140.2090 C   0  0  0  0  0  1  0  0  0  0  0  0
  186.8840  175.5840  135.7660 C   0  0  0  0  0  2  0  0  0  0  0  0
  186.4370  173.1950  138.1120 O   0  0  0  0  0  0  0  0  0  0  0  0
  184.8660  176.9120  135.0910 C   0  0  0  0  0  2  0  0  0  0  0  0
  188.9790  177.3380  139.3880 C   0  0  0  0  0  3  0  0  0  0  0  0
  189.4340  177.9440  135.8670 O   0  0  0  0  0  0  0  0  0  0  0  0
  189.4990  177.2590  136.9260 C   0  0  0  0  0  0  0  0  0  0  0  0
  190.1910  174.7680  136.8010 C   0  0  0  0  0  3  0  0  0  0  0  0
  190.5340  176.1950  136.9940 C   0  0  0  0  0  0  0  0  0  0  0  0
  191.7920  176.5360  137.3010 C   0  0  0  0  0  3  0  0  0  0  0  0
  194.0240  175.8770  137.6990 O   0  0  0  0  0  0  0  0  0  0  0  0
  192.5460  174.0600  137.2250 C   0  0  0  0  0  2  0  0  0  0  0  0
  192.8490  175.5200  137.4200 C   0  0  0  0  0  0  0  0  0  0  0  0
  191.1010  173.7950  136.9030 C   0  0  0  0  0  3  0  0  0  0  0  0
  181.9200  174.3510  137.5740 F   0  0  0  0  0  0  0  0  0  0  0  0
  182.3530  174.7000  136.3060 C   0  0  0  0  0  2  0  0  0  0  0  0
  1 25  1  6  0  0  0
  1 12  1  0  0  0  0
  2 21  1  0  0  0  0
  2 22  1  0  0  0  0
  3 19  1  0  0  0  0
  4 37  1  1  0  0  0
  4  1  1  0  0  0  0
  4 11  1  0  0  0  0
  5 15  1  0  0  0  0
  6  9  2  0  0  0  0
  6  3  1  0  0  0  0
  7 11  1  0  0  0  0
  7 24  2  0  0  0  0
  8  3  2  0  0  0  0
  8 21  1  0  0  0  0
  9 26  1  0  0  0  0
 12 16  3  0  0  0  0
 13  2  1  0  0  0  0
 15 10  1  0  0  0  0
 16  2  1  0  0  0  0
 17  7  1  0  0  0  0
 18  6  1  0  0  0  0
 19 14  1  0  0  0  0
 19 15  2  0  0  0  0
 20 25  1  6  0  0  0
 20  1  1  0  0  0  0
 20 18  1  0  0  0  0
 21  5  2  0  0  0  0
 23 17  1  0  0  0  0
 23 20  1  0  0  0  0
 26 14  2  0  0  0  0
 27 28  2  0  0  0  0
 28 30  1  0  0  0  0
 28  9  1  0  0  0  0
 29 35  2  0  0  0  0
 29 30  1  0  0  0  0
 30 31  2  0  0  0  0
 31 34  1  0  0  0  0
 33 34  1  0  0  0  0
 34 32  2  0  0  0  0
 35 33  1  0  0  0  0
 37 36  1  0  0  0  0
M  END
>  <MODEL>
1

>  <REMARK>
 VINA RESULT:      -6.5      0.000      0.000
  Name = 
  3 active torsions:
  status: ('A' for Active; 'I' for Inactive)
    1  A    between atoms: C_5  and  C_23
    2  A    between atoms: C_6  and  C_31
    3  A    between atoms: C_14  and  C_31
                            x       y       z     vdW  Elec       q    Type
                         _______ _______ _______ _____ _____    ______ ____

>  <TORSDO>
F 3

$$$$
=
 OpenBabel10272414503D

 37 42  0  0  1  0  0  0  0  0999 V2000
  189.2100  177.7020  138.8380 C   0  0  1  0  0  0  0  0  0  0  0  0
  188.8890  175.0580  135.7430 C   0  0  0  0  0  0  0  0  0  0  0  0
  185.7590  176.2930  137.2030 C   0  0  0  0  0  0  0  0  0  0  0  0
  190.0310  177.4130  140.1020 C   0  0  1  0  0  3  0  0  0  0  0  0
  186.7240  173.8040  136.3950 C   0  0  0  0  0  3  0  0  0  0  0  0
  185.6010  177.4780  137.9350 C   0  0  0  0  0  0  0  0  0  0  0  0
  188.2330  176.9840  141.6770 C   0  0  0  0  0  0  0  0  0  0  0  0
  186.7860  176.2040  136.2870 C   0  0  0  0  0  3  0  0  0  0  0  0
  184.4870  177.5870  138.8100 C   0  0  0  0  0  0  0  0  0  0  0  0
  184.8900  172.7450  137.4970 F   0  0  0  0  0  0  0  0  0  0  0  0
  189.3230  176.5180  140.9470 O   0  0  0  0  0  0  0  0  0  0  0  0
  189.3990  176.8070  137.6780 C   0  0  0  0  0  0  0  0  0  0  0  0
  189.1780  175.6120  134.3600 C   0  0  0  0  0  1  0  0  0  0  0  0
  184.0500  175.2320  138.4710 N   0  0  0  0  0  0  0  0  0  0  0  0
  185.5140  173.8850  137.1100 C   0  0  0  0  0  0  0  0  0  0  0  0
  189.3820  176.0020  136.7750 C   0  0  0  0  0  0  0  0  0  0  0  0
  187.9210  178.4430  141.6760 C   0  0  0  0  0  2  0  0  0  0  0  0
  186.7360  178.4990  137.8870 C   0  0  0  0  0  2  0  0  0  0  0  0
  185.0630  175.1340  137.5750 C   0  0  0  0  0  0  0  0  0  0  0  0
  187.7890  178.3460  139.0170 C   0  0  1  0  0  0  0  0  0  0  0  0
  187.3800  174.9800  135.9750 C   0  0  0  0  0  0  0  0  0  0  0  0
  189.5870  173.7160  135.9030 C   0  0  0  0  0  1  0  0  0  0  0  0
  187.2870  178.9150  140.3660 C   0  0  0  0  0  2  0  0  0  0  0  0
  187.5240  176.1850  142.3420 O   0  0  0  0  0  0  0  0  0  0  0  0
  189.0030  179.1630  138.5540 C   0  0  0  0  0  2  0  0  0  0  0  0
  183.7320  176.4210  139.0530 C   0  0  0  0  0  3  0  0  0  0  0  0
  184.2980  179.9640  138.8460 O   0  0  0  0  0  0  0  0  0  0  0  0
  184.0990  178.8780  139.4590 C   0  0  0  0  0  0  0  0  0  0  0  0
  184.2260  178.7700  142.0420 C   0  0  0  0  0  3  0  0  0  0  0  0
  183.4500  178.9520  140.7940 C   0  0  0  0  0  0  0  0  0  0  0  0
  182.1230  179.1230  140.8590 C   0  0  0  0  0  3  0  0  0  0  0  0
  180.1770  179.3370  142.1780 O   0  0  0  0  0  0  0  0  0  0  0  0
  182.1730  178.9900  143.4440 C   0  0  0  0  0  2  0  0  0  0  0  0
  181.4240  179.1640  142.1520 C   0  0  0  0  0  0  0  0  0  0  0  0
  183.6510  178.7880  143.2480 C   0  0  0  0  0  3  0  0  0  0  0  0
  192.3770  177.6730  140.5140 F   0  0  0  0  0  0  0  0  0  0  0  0
  191.4460  176.9090  139.8320 C   0  0  0  0  0  2  0  0  0  0  0  0
  1 12  1  6  0  0  0
  1 20  1  0  0  0  0
  1  4  1  0  0  0  0
  2 22  1  0  0  0  0
  2 21  1  0  0  0  0
  2 16  1  0  0  0  0
  3 19  1  0  0  0  0
  3  6  1  0  0  0  0
  4 37  1  6  0  0  0
  4 11  1  0  0  0  0
  5 15  1  0  0  0  0
  6  9  2  0  0  0  0
  7 24  2  0  0  0  0
  8  3  2  0  0  0  0
  9 26  1  0  0  0  0
  9 28  1  0  0  0  0
 11  7  1  0  0  0  0
 13  2  1  0  0  0  0
 14 26  2  0  0  0  0
 15 10  1  0  0  0  0
 15 19  2  0  0  0  0
 16 12  3  0  0  0  0
 17  7  1  0  0  0  0
 18  6  1  0  0  0  0
 19 14  1  0  0  0  0
 20 18  1  6  0  0  0
 20 23  1  0  0  0  0
 21  8  1  0  0  0  0
 21  5  2  0  0  0  0
 23 17  1  0  0  0  0
 25  1  1  0  0  0  0
 25 20  1  0  0  0  0
 27 28  2  0  0  0  0
 28 30  1  0  0  0  0
 29 35  2  0  0  0  0
 30 31  2  0  0  0  0
 30 29  1  0  0  0  0
 31 34  1  0  0  0  0
 34 32  2  0  0  0  0
 34 33  1  0  0  0  0
 35 33  1  0  0  0  0
 37 36  1  0  0  0  0
M  END
>  <MODEL>
2

>  <REMARK>
 VINA RESULT:      -5.0      2.931      7.744
  Name = 
  3 active torsions:
  status: ('A' for Active; 'I' for Inactive)
    1  A    between atoms: C_5  and  C_23
    2  A    between atoms: C_6  and  C_31
    3  A    between atoms: C_14  and  C_31
                            x       y       z     vdW  Elec       q    Type
                         _______ _______ _______ _____ _____    ______ ____

>  <TORSDO>
F 3

$$$$
=
 OpenBabel10272414503D

 37 42  0  0  1  0  0  0  0  0999 V2000
  182.6390  174.7150  136.5760 C   0  0  1  0  0  0  0  0  0  0  0  0
  186.1790  172.8440  135.7730 C   0  0  0  0  0  0  0  0  0  0  0  0
  186.3710  176.2110  137.2130 C   0  0  0  0  0  0  0  0  0  0  0  0
  181.5380  174.9070  135.5240 C   0  0  1  0  0  3  0  0  0  0  0  0
  187.6660  174.8620  135.1450 C   0  0  0  0  0  3  0  0  0  0  0  0
  185.3660  176.8520  137.9510 C   0  0  0  0  0  0  0  0  0  0  0  0
  181.7980  177.2800  135.0760 C   0  0  0  0  0  0  0  0  0  0  0  0
  186.4110  174.8330  137.1940 C   0  0  0  0  0  3  0  0  0  0  0  0
  185.3900  178.2700  138.0330 C   0  0  0  0  0  0  0  0  0  0  0  0
  188.5820  176.9310  134.3790 F   0  0  0  0  0  0  0  0  0  0  0  0
  181.8890  175.9610  134.6390 O   0  0  0  0  0  0  0  0  0  0  0  0
  183.7390  173.7830  136.2550 C   0  0  0  0  0  0  0  0  0  0  0  0
  186.5840  171.7440  136.7370 C   0  0  0  0  0  1  0  0  0  0  0  0
  187.1120  178.2940  136.3350 N   0  0  0  0  0  0  0  0  0  0  0  0
  187.8600  176.2470  135.3020 C   0  0  0  0  0  0  0  0  0  0  0  0
  184.7460  173.1770  135.9670 C   0  0  0  0  0  0  0  0  0  0  0  0
  181.1920  177.5690  136.4090 C   0  0  0  0  0  2  0  0  0  0  0  0
  184.2070  175.9980  138.4610 C   0  0  0  0  0  2  0  0  0  0  0  0
  187.1530  176.9380  136.3040 C   0  0  0  0  0  0  0  0  0  0  0  0
  182.9850  175.9320  137.5070 C   0  0  1  0  0  0  0  0  0  0  0  0
  186.9280  174.1350  136.1010 C   0  0  0  0  0  0  0  0  0  0  0  0
  186.4040  172.3690  134.3460 C   0  0  0  0  0  1  0  0  0  0  0  0
  182.1190  177.2130  137.5730 C   0  0  0  0  0  2  0  0  0  0  0  0
  182.2110  178.2210  134.3500 O   0  0  0  0  0  0  0  0  0  0  0  0
  182.1500  174.7410  137.9970 C   0  0  0  0  0  2  0  0  0  0  0  0
  186.2890  178.9580  137.1920 C   0  0  0  0  0  3  0  0  0  0  0  0
  183.6660  179.8510  138.5030 O   0  0  0  0  0  0  0  0  0  0  0  0
  184.5090  179.0350  138.9710 C   0  0  0  0  0  0  0  0  0  0  0  0
  185.8180  178.5850  141.1580 C   0  0  0  0  0  3  0  0  0  0  0  0
  184.5490  178.8590  140.4460 C   0  0  0  0  0  0  0  0  0  0  0  0
  183.3990  178.8880  141.1320 C   0  0  0  0  0  3  0  0  0  0  0  0
  182.2780  178.7250  143.2030 O   0  0  0  0  0  0  0  0  0  0  0  0
  184.6420  178.4050  143.3510 C   0  0  0  0  0  2  0  0  0  0  0  0
  183.3760  178.6810  142.5880 C   0  0  0  0  0  0  0  0  0  0  0  0
  185.8660  178.3790  142.4770 C   0  0  0  0  0  3  0  0  0  0  0  0
  180.9220  172.5940  135.6200 F   0  0  0  0  0  0  0  0  0  0  0  0
  181.1770  173.6410  134.7520 C   0  0  0  0  0  2  0  0  0  0  0  0
  1 12  1  6  0  0  0
  1 20  1  0  0  0  0
  1 25  1  0  0  0  0
  2 16  1  0  0  0  0
  2 21  1  0  0  0  0
  2 13  1  0  0  0  0
  3  6  1  0  0  0  0
  4 37  1  6  0  0  0
  4  1  1  0  0  0  0
  5 15  2  0  0  0  0
  5 21  1  0  0  0  0
  6  9  2  0  0  0  0
  6 18  1  0  0  0  0
  7 17  1  0  0  0  0
  8  3  1  0  0  0  0
  9 28  1  0  0  0  0
 10 15  1  0  0  0  0
 11  7  1  0  0  0  0
 11  4  1  0  0  0  0
 14 26  2  0  0  0  0
 15 19  1  0  0  0  0
 16 12  3  0  0  0  0
 17 23  1  0  0  0  0
 19 14  1  0  0  0  0
 19  3  2  0  0  0  0
 20 23  1  6  0  0  0
 20 25  1  0  0  0  0
 20 18  1  0  0  0  0
 21  8  2  0  0  0  0
 22  2  1  0  0  0  0
 24  7  2  0  0  0  0
 26  9  1  0  0  0  0
 27 28  2  0  0  0  0
 28 30  1  0  0  0  0
 29 35  2  0  0  0  0
 30 31  2  0  0  0  0
 30 29  1  0  0  0  0
 31 34  1  0  0  0  0
 34 32  2  0  0  0  0
 34 33  1  0  0  0  0
 35 33  1  0  0  0  0
 37 36  1  0  0  0  0
M  END
>  <MODEL>
3

>  <REMARK>
 VINA RESULT:      -4.5      3.690      6.629
  Name = 
  3 active torsions:
  status: ('A' for Active; 'I' for Inactive)
    1  A    between atoms: C_5  and  C_23
    2  A    between atoms: C_6  and  C_31
    3  A    between atoms: C_14  and  C_31
                            x       y       z     vdW  Elec       q    Type
                         _______ _______ _______ _____ _____    ______ ____

>  <TORSDO>
F 3

$$$$
=
 OpenBabel10272414503D

 37 42  0  0  1  0  0  0  0  0999 V2000
  187.0420  177.9450  137.9070 C   0  0  1  0  0  0  0  0  0  0  0  0
  187.9970  174.2630  136.4220 C   0  0  0  0  0  0  0  0  0  0  0  0
  184.4540  175.2090  136.3610 C   0  0  0  0  0  0  0  0  0  0  0  0
  187.4470  178.4090  139.3130 C   0  0  1  0  0  3  0  0  0  0  0  0
  185.8830  172.9170  137.0560 C   0  0  0  0  0  3  0  0  0  0  0  0
  183.9480  176.5160  136.3980 C   0  0  0  0  0  0  0  0  0  0  0  0
  185.2990  178.2580  140.4370 C   0  0  0  0  0  0  0  0  0  0  0  0
  185.7210  174.9960  135.8610 C   0  0  0  0  0  3  0  0  0  0  0  0
  182.6100  176.7100  136.8330 C   0  0  0  0  0  0  0  0  0  0  0  0
  183.9170  172.0070  138.0610 F   0  0  0  0  0  0  0  0  0  0  0  0
  186.6070  177.8040  140.2860 O   0  0  0  0  0  0  0  0  0  0  0  0
  187.6810  176.7230  137.3790 C   0  0  0  0  0  0  0  0  0  0  0  0
  188.6480  174.2460  135.0510 C   0  0  0  0  0  1  0  0  0  0  0  0
  182.5540  174.3960  137.5380 N   0  0  0  0  0  0  0  0  0  0  0  0
  184.5070  172.9970  137.3460 C   0  0  0  0  0  0  0  0  0  0  0  0
  188.0360  175.6370  136.9790 C   0  0  0  0  0  0  0  0  0  0  0  0
  184.8510  179.4650  139.6840 C   0  0  0  0  0  2  0  0  0  0  0  0
  184.9260  177.6630  136.1460 C   0  0  0  0  0  2  0  0  0  0  0  0
  183.8030  174.1800  137.0550 C   0  0  0  0  0  0  0  0  0  0  0  0
  185.5770  178.2470  137.4280 C   0  0  1  0  0  0  0  0  0  0  0  0
  186.5090  173.9330  136.3030 C   0  0  0  0  0  0  0  0  0  0  0  0
  188.7470  173.3160  137.3460 C   0  0  0  0  0  1  0  0  0  0  0  0
  184.6170  179.1860  138.1980 C   0  0  0  0  0  2  0  0  0  0  0  0
  184.5050  177.6630  141.2110 O   0  0  0  0  0  0  0  0  0  0  0  0
  186.7820  179.0620  136.9360 C   0  0  0  0  0  2  0  0  0  0  0  0
  181.9440  175.6070  137.4070 C   0  0  0  0  0  3  0  0  0  0  0  0
  181.6470  178.4700  135.5420 O   0  0  0  0  0  0  0  0  0  0  0  0
  181.9020  178.0210  136.6950 C   0  0  0  0  0  0  0  0  0  0  0  0
  181.2880  178.2150  139.2020 C   0  0  0  0  0  3  0  0  0  0  0  0
  181.4440  178.8220  137.8610 C   0  0  0  0  0  0  0  0  0  0  0  0
  181.1060  180.1040  137.6710 C   0  0  0  0  0  3  0  0  0  0  0  0
  180.3110  182.1370  138.5700 O   0  0  0  0  0  0  0  0  0  0  0  0
  180.4420  180.3580  140.1610 C   0  0  0  0  0  2  0  0  0  0  0  0
  180.6090  180.9320  138.7810 C   0  0  0  0  0  0  0  0  0  0  0  0
  180.8340  178.9090  140.2500 C   0  0  0  0  0  3  0  0  0  0  0  0
  189.7320  178.7880  138.7000 F   0  0  0  0  0  0  0  0  0  0  0  0
  188.9200  178.1910  139.6480 C   0  0  0  0  0  2  0  0  0  0  0  0
  1 25  1  6  0  0  0
  1  4  1  0  0  0  0
  2 16  1  0  0  0  0
  2 22  1  0  0  0  0
  3  6  1  0  0  0  0
  3 19  1  0  0  0  0
  4 37  1  1  0  0  0
  4 11  1  0  0  0  0
  5 15  1  0  0  0  0
  6  9  2  0  0  0  0
  7 24  2  0  0  0  0
  8 21  1  0  0  0  0
  8  3  2  0  0  0  0
  9 26  1  0  0  0  0
 11  7  1  0  0  0  0
 12  1  1  0  0  0  0
 13  2  1  0  0  0  0
 15 10  1  0  0  0  0
 16 12  3  0  0  0  0
 17  7  1  0  0  0  0
 18  6  1  0  0  0  0
 19 15  2  0  0  0  0
 19 14  1  0  0  0  0
 20 18  1  6  0  0  0
 20  1  1  0  0  0  0
 20 23  1  0  0  0  0
 21  2  1  0  0  0  0
 21  5  2  0  0  0  0
 23 17  1  0  0  0  0
 25 20  1  0  0  0  0
 26 14  2  0  0  0  0
 27 28  2  0  0  0  0
 28  9  1  0  0  0  0
 28 30  1  0  0  0  0
 29 35  2  0  0  0  0
 30 29  1  0  0  0  0
 31 30  2  0  0  0  0
 31 34  1  0  0  0  0
 32 34  2  0  0  0  0
 33 35  1  0  0  0  0
 34 33  1  0  0  0  0
 36 37  1  0  0  0  0
M  END
>  <MODEL>
4

>  <REMARK>
 VINA RESULT:      -4.1      3.015      7.841
  Name = 
  3 active torsions:
  status: ('A' for Active; 'I' for Inactive)
    1  A    between atoms: C_5  and  C_23
    2  A    between atoms: C_6  and  C_31
    3  A    between atoms: C_14  and  C_31
                            x       y       z     vdW  Elec       q    Type
                         _______ _______ _______ _____ _____    ______ ____

>  <TORSDO>
F 3

$$$$
=
 OpenBabel10272414503D

 37 42  0  0  1  0  0  0  0  0999 V2000
  189.1670  177.5350  138.4600 C   0  0  1  0  0  0  0  0  0  0  0  0
  188.8710  174.4080  135.8510 C   0  0  0  0  0  0  0  0  0  0  0  0
  185.7290  175.8670  137.0550 C   0  0  0  0  0  0  0  0  0  0  0  0
  189.9760  177.4640  139.7620 C   0  0  1  0  0  3  0  0  0  0  0  0
  186.7010  173.2790  136.6860 C   0  0  0  0  0  3  0  0  0  0  0  0
  185.5650  177.1580  137.5770 C   0  0  0  0  0  0  0  0  0  0  0  0
  188.1640  177.3040  141.3710 C   0  0  0  0  0  0  0  0  0  0  0  0
  186.7650  175.6270  136.1770 C   0  0  0  0  0  3  0  0  0  0  0  0
  184.4440  177.4110  138.4110 C   0  0  0  0  0  0  0  0  0  0  0  0
  184.8570  172.4170  137.9340 F   0  0  0  0  0  0  0  0  0  0  0  0
  189.2610  176.7230  140.7390 O   0  0  0  0  0  0  0  0  0  0  0  0
  189.3650  176.4590  137.4690 C   0  0  0  0  0  0  0  0  0  0  0  0
  189.1730  174.7230  134.3970 C   0  0  0  0  0  1  0  0  0  0  0  0
  184.0090  175.0320  138.4690 N   0  0  0  0  0  0  0  0  0  0  0  0
  185.4850  173.4770  137.3670 C   0  0  0  0  0  0  0  0  0  0  0  0
  189.3560  175.5130  136.7140 C   0  0  0  0  0  0  0  0  0  0  0  0
  187.8530  178.7410  141.1220 C   0  0  0  0  0  2  0  0  0  0  0  0
  186.7010  178.1580  137.3670 C   0  0  0  0  0  2  0  0  0  0  0  0
  185.0300  174.7860  137.6110 C   0  0  0  0  0  0  0  0  0  0  0  0
  187.7430  178.1990  138.5160 C   0  0  1  0  0  0  0  0  0  0  0  0
  187.3610  174.3690  136.0800 C   0  0  0  0  0  0  0  0  0  0  0  0
  189.5680  173.1140  136.2400 C   0  0  0  0  0  1  0  0  0  0  0  0
  187.2300  178.9850  139.7460 C   0  0  0  0  0  2  0  0  0  0  0  0
  187.4490  176.6270  142.1550 O   0  0  0  0  0  0  0  0  0  0  0  0
  188.9620  178.9280  137.9330 C   0  0  0  0  0  2  0  0  0  0  0  0
  183.6860  176.3010  138.8410 C   0  0  0  0  0  3  0  0  0  0  0  0
  184.7710  179.4170  139.6580 O   0  0  0  0  0  0  0  0  0  0  0  0
  184.0500  178.7920  138.8310 C   0  0  0  0  0  0  0  0  0  0  0  0
  181.9430  178.8390  137.3280 C   0  0  0  0  0  3  0  0  0  0  0  0
  182.8560  179.4940  138.2930 C   0  0  0  0  0  0  0  0  0  0  0  0
  182.6430  180.7690  138.6440 C   0  0  0  0  0  3  0  0  0  0  0  0
  181.3210  182.7180  138.4710 O   0  0  0  0  0  0  0  0  0  0  0  0
  180.5430  180.8960  137.1340 C   0  0  0  0  0  2  0  0  0  0  0  0
  181.4980  181.5240  138.1110 C   0  0  0  0  0  0  0  0  0  0  0  0
  180.8910  179.4710  136.8000 C   0  0  0  0  0  3  0  0  0  0  0  0
  192.2930  177.6640  140.3410 F   0  0  0  0  0  0  0  0  0  0  0  0
  191.3930  176.9240  139.5930 C   0  0  0  0  0  2  0  0  0  0  0  0
  1 12  1  6  0  0  0
  1 20  1  0  0  0  0
  1  4  1  0  0  0  0
  2 21  1  0  0  0  0
  2 22  1  0  0  0  0
  2 16  1  0  0  0  0
  3  6  1  0  0  0  0
  3 19  1  0  0  0  0
  4 37  1  6  0  0  0
  4 11  1  0  0  0  0
  5 15  1  0  0  0  0
  6  9  2  0  0  0  0
  7 24  2  0  0  0  0
  8  3  2  0  0  0  0
  9 28  1  0  0  0  0
  9 26  1  0  0  0  0
 11  7  1  0  0  0  0
 13  2  1  0  0  0  0
 14 26  2  0  0  0  0
 15 19  2  0  0  0  0
 15 10  1  0  0  0  0
 16 12  3  0  0  0  0
 17  7  1  0  0  0  0
 18  6  1  0  0  0  0
 19 14  1  0  0  0  0
 20 18  1  6  0  0  0
 20 23  1  0  0  0  0
 21  8  1  0  0  0  0
 21  5  2  0  0  0  0
 23 17  1  0  0  0  0
 25  1  1  0  0  0  0
 25 20  1  0  0  0  0
 28 27  2  0  0  0  0
 29 30  1  0  0  0  0
 30 31  2  0  0  0  0
 30 28  1  0  0  0  0
 33 34  1  0  0  0  0
 34 32  2  0  0  0  0
 34 31  1  0  0  0  0
 35 33  1  0  0  0  0
 35 29  2  0  0  0  0
 37 36  1  0  0  0  0
M  END
>  <MODEL>
5

>  <REMARK>
 VINA RESULT:      -4.0      2.938      7.780
  Name = 
  3 active torsions:
  status: ('A' for Active; 'I' for Inactive)
    1  A    between atoms: C_5  and  C_23
    2  A    between atoms: C_6  and  C_31
    3  A    between atoms: C_14  and  C_31
                            x       y       z     vdW  Elec       q    Type
                         _______ _______ _______ _____ _____    ______ ____

>  <TORSDO>
F 3

$$$$
=
 OpenBabel10272414503D

 37 42  0  0  1  0  0  0  0  0999 V2000
  184.7090  176.9060  135.8340 C   0  0  1  0  0  0  0  0  0  0  0  0
  181.2580  178.8170  136.8900 C   0  0  0  0  0  0  0  0  0  0  0  0
  184.0210  178.9310  139.2980 C   0  0  0  0  0  0  0  0  0  0  0  0
  184.7510  175.4320  135.4070 C   0  0  1  0  0  3  0  0  0  0  0  0
  181.2740  178.4750  139.4520 C   0  0  0  0  0  3  0  0  0  0  0  0
  185.3800  178.7470  139.0050 C   0  0  0  0  0  0  0  0  0  0  0  0
  185.7330  174.4490  137.4000 C   0  0  0  0  0  0  0  0  0  0  0  0
  183.1790  179.3900  138.3070 C   0  0  0  0  0  3  0  0  0  0  0  0
  186.2500  178.3590  140.0580 C   0  0  0  0  0  0  0  0  0  0  0  0
  181.5370  177.7000  141.6950 F   0  0  0  0  0  0  0  0  0  0  0  0
  184.6410  174.5920  136.5470 O   0  0  0  0  0  0  0  0  0  0  0  0
  183.3870  177.5590  135.9140 C   0  0  0  0  0  0  0  0  0  0  0  0
  180.9930  180.1430  136.2010 C   0  0  0  0  0  1  0  0  0  0  0  0
  184.3140  177.9700  141.4540 N   0  0  0  0  0  0  0  0  0  0  0  0
  182.0840  178.2470  140.5810 C   0  0  0  0  0  0  0  0  0  0  0  0
  182.3250  178.0810  136.1680 C   0  0  0  0  0  0  0  0  0  0  0  0
  187.0410  175.0570  137.0210 C   0  0  0  0  0  2  0  0  0  0  0  0
  185.8020  178.7940  137.5370 C   0  0  0  0  0  2  0  0  0  0  0  0
  183.4770  178.4130  140.4820 C   0  0  0  0  0  0  0  0  0  0  0  0
  185.8160  177.4150  136.8270 C   0  0  1  0  0  0  0  0  0  0  0  0
  181.8250  179.0530  138.2890 C   0  0  0  0  0  0  0  0  0  0  0  0
  179.9820  177.9890  136.8940 C   0  0  0  0  0  1  0  0  0  0  0  0
  187.0630  176.5770  137.1960 C   0  0  0  0  0  2  0  0  0  0  0  0
  185.6210  173.8020  138.4730 O   0  0  0  0  0  0  0  0  0  0  0  0
  185.8560  177.7320  135.3250 C   0  0  0  0  0  2  0  0  0  0  0  0
  185.6640  177.9700  141.2810 C   0  0  0  0  0  3  0  0  0  0  0  0
  188.2590  178.8390  138.8630 O   0  0  0  0  0  0  0  0  0  0  0  0
  187.7400  178.3570  139.9090 C   0  0  0  0  0  0  0  0  0  0  0  0
  189.5880  176.7210  140.6880 C   0  0  0  0  0  3  0  0  0  0  0  0
  188.6590  177.8410  140.9570 C   0  0  0  0  0  0  0  0  0  0  0  0
  188.5940  178.3640  142.1880 C   0  0  0  0  0  3  0  0  0  0  0  0
  189.3730  178.3880  144.4170 O   0  0  0  0  0  0  0  0  0  0  0  0
  190.4150  176.7340  143.0420 C   0  0  0  0  0  2  0  0  0  0  0  0
  189.4520  177.8660  143.2740 C   0  0  0  0  0  0  0  0  0  0  0  0
  190.3880  176.2150  141.6300 C   0  0  0  0  0  3  0  0  0  0  0  0
  183.2820  173.7560  134.5300 F   0  0  0  0  0  0  0  0  0  0  0  0
  183.7220  175.0550  134.3460 C   0  0  0  0  0  2  0  0  0  0  0  0
  1 25  1  6  0  0  0
  1 12  1  0  0  0  0
  1 20  1  0  0  0  0
  2 22  1  0  0  0  0
  2 21  1  0  0  0  0
  3 19  1  0  0  0  0
  4 37  1  6  0  0  0
  4  1  1  0  0  0  0
  4 11  1  0  0  0  0
  5 15  1  0  0  0  0
  6  3  1  0  0  0  0
  6  9  2  0  0  0  0
  7 24  2  0  0  0  0
  8  3  2  0  0  0  0
  9 26  1  0  0  0  0
 11  7  1  0  0  0  0
 12 16  3  0  0  0  0
 13  2  1  0  0  0  0
 15 10  1  0  0  0  0
 16  2  1  0  0  0  0
 17 23  1  0  0  0  0
 17  7  1  0  0  0  0
 18  6  1  0  0  0  0
 19 15  2  0  0  0  0
 19 14  1  0  0  0  0
 20 25  1  6  0  0  0
 20 23  1  0  0  0  0
 20 18  1  0  0  0  0
 21  8  1  0  0  0  0
 21  5  2  0  0  0  0
 26 14  2  0  0  0  0
 27 28  2  0  0  0  0
 28  9  1  0  0  0  0
 28 30  1  0  0  0  0
 29 30  1  0  0  0  0
 29 35  2  0  0  0  0
 30 31  2  0  0  0  0
 31 34  1  0  0  0  0
 33 34  1  0  0  0  0
 34 32  2  0  0  0  0
 35 33  1  0  0  0  0
 37 36  1  0  0  0  0
M  END
>  <MODEL>
6

>  <REMARK>
 VINA RESULT:      -3.6      2.639      3.692
  Name = 
  3 active torsions:
  status: ('A' for Active; 'I' for Inactive)
    1  A    between atoms: C_5  and  C_23
    2  A    between atoms: C_6  and  C_31
    3  A    between atoms: C_14  and  C_31
                            x       y       z     vdW  Elec       q    Type
                         _______ _______ _______ _____ _____    ______ ____

>  <TORSDO>
F 3

$$$$
