=
 OpenBabel10272415123D

 34 37  0  0  1  0  0  0  0  0999 V2000
  190.7580  177.1080  138.1400 C   0  0  2  0  0  3  0  0  0  0  0  0
  191.6750  173.7850  137.0090 C   0  0  0  0  0  2  0  0  0  0  0  0
  189.6710  175.0630  136.3570 C   0  0  0  0  0  2  0  0  0  0  0  0
  188.8160  178.5750  137.5360 C   0  0  0  0  0  3  0  0  0  0  0  0
  187.1530  177.8650  135.9230 C   0  0  0  0  0  3  0  0  0  0  0  0
  187.6480  178.8270  136.8090 C   0  0  0  0  0  3  0  0  0  0  0  0
  189.0020  176.3990  136.4760 C   0  0  0  0  0  0  0  0  0  0  0  0
  189.4940  177.3620  137.3740 C   0  0  0  0  0  0  0  0  0  0  0  0
  187.8250  176.6490  135.7620 C   0  0  0  0  0  3  0  0  0  0  0  0
  193.1610  173.5150  136.9650 C   0  0  0  0  0  3  0  0  0  0  0  0
  194.1780  174.3930  136.8190 C   0  0  0  0  0  0  0  0  0  0  0  0
  193.9960  175.8480  136.4900 C   0  0  0  0  0  2  0  0  0  0  0  0
  191.2030  175.1260  136.4580 C   0  0  1  0  0  3  0  0  0  0  0  0
  193.0080  176.5530  137.3690 C   0  0  0  0  0  3  0  0  0  0  0  0
  191.7070  176.2460  137.3510 C   0  0  0  0  0  0  0  0  0  0  0  0
  195.5940  173.8930  136.8430 C   0  0  0  0  0  3  0  0  0  0  0  0
  196.5500  174.9180  136.2600 C   0  0  0  0  0  1  0  0  0  0  0  0
  196.0290  173.5130  138.2490 C   0  0  0  0  0  1  0  0  0  0  0  0
  190.5010  176.5720  139.5480 C   0  0  0  0  0  2  0  0  0  0  0  0
  191.1400  177.4090  140.5630 N   0  0  0  0  0  0  0  0  0  0  0  0
  191.1220  176.6220  141.8050 C   0  0  0  0  0  2  0  0  0  0  0  0
  190.2450  177.7840  141.6940 C   0  0  2  0  0  3  0  0  0  0  0  0
  188.7740  177.3630  141.5350 C   0  0  2  0  0  3  0  0  0  0  0  0
  187.9160  178.6020  141.3660 C   0  0  0  0  0  1  0  0  0  0  0  0
  188.5230  177.0440  143.9400 C   0  0  0  0  0  0  0  0  0  0  0  0
  188.2960  176.6080  142.7310 C   0  0  0  0  0  3  0  0  0  0  0  0
  188.7500  177.4880  145.1480 C   0  0  0  0  0  3  0  0  0  0  0  0
  187.6820  177.6610  146.1410 C   0  0  0  0  0  0  0  0  0  0  0  0
  186.5090  178.1270  145.6900 C   0  0  0  0  0  3  0  0  0  0  0  0
  187.9500  177.3370  147.5940 C   0  0  0  0  0  3  0  0  0  0  0  0
  189.1540  176.4280  147.7730 C   0  0  0  0  0  1  0  0  0  0  0  0
  188.0720  178.5830  148.4520 C   0  0  0  0  0  1  0  0  0  0  0  0
  184.1460  178.8380  145.6790 C   0  0  0  0  0  1  0  0  0  0  0  0
  185.3000  178.3610  146.5380 C   0  0  0  0  0  2  0  0  0  0  0  0
  1 19  1  1  0  0  0
  3  7  1  0  0  0  0
  5  6  1  0  0  0  0
  6  4  2  0  0  0  0
  7  8  2  0  0  0  0
  8  4  1  0  0  0  0
  8  1  1  0  0  0  0
  9  5  2  0  0  0  0
  9  7  1  0  0  0  0
 10  2  1  0  0  0  0
 11 16  1  0  0  0  0
 11 10  2  0  0  0  0
 12 11  1  0  0  0  0
 12 14  1  0  0  0  0
 13  3  1  1  0  0  0
 13  2  1  0  0  0  0
 13 15  1  0  0  0  0
 15 14  2  0  0  0  0
 15  1  1  0  0  0  0
 16 18  1  0  0  0  0
 17 16  1  0  0  0  0
 19 20  1  0  0  0  0
 20 22  1  0  0  0  0
 20 21  1  0  0  0  0
 22 23  1  6  0  0  0
 22 21  1  0  0  0  0
 23 24  1  1  0  0  0
 23 26  1  0  0  0  0
 25 27  2  0  0  0  0
 26 25  2  0  0  0  0
 27 28  1  0  0  0  0
 28 30  1  0  0  0  0
 29 28  2  0  0  0  0
 29 34  1  0  0  0  0
 30 31  1  0  0  0  0
 30 32  1  0  0  0  0
 33 34  1  0  0  0  0
M  END
>  <MODEL>
1

>  <REMARK>
 VINA RESULT:      -8.6      0.000      0.000
  Name = 
  8 active torsions:
  status: ('A' for Active; 'I' for Inactive)
    1  A    between atoms: C_1  and  C_9
    2  A    between atoms: C_3  and  C_25
    3  A    between atoms: C_6  and  C_28
    4  A    between atoms: C_6  and  C_30
    5  A    between atoms: C_7  and  C_11
    6  A    between atoms: C_7  and  C_29
    7  A    between atoms: N_8  and  C_9
    8  A    between atoms: C_14  and  C_16
                            x       y       z     vdW  Elec       q    Type
                         _______ _______ _______ _____ _____    ______ ____

>  <TORSDO>
F 8

$$$$
=
 OpenBabel10272415123D

 34 37  0  0  1  0  0  0  0  0999 V2000
  183.8040  178.9550  138.7740 C   0  0  2  0  0  3  0  0  0  0  0  0
  182.9310  175.4460  138.4910 C   0  0  0  0  0  2  0  0  0  0  0  0
  181.3750  177.3580  138.4720 C   0  0  0  0  0  2  0  0  0  0  0  0
  182.3790  181.0180  138.7050 C   0  0  0  0  0  3  0  0  0  0  0  0
  179.9820  180.8830  138.3790 C   0  0  0  0  0  3  0  0  0  0  0  0
  181.1380  181.6470  138.5670 C   0  0  0  0  0  3  0  0  0  0  0  0
  181.3060  178.8550  138.4490 C   0  0  0  0  0  0  0  0  0  0  0  0
  182.4670  179.6230  138.6490 C   0  0  0  0  0  0  0  0  0  0  0  0
  180.0650  179.4890  138.3270 C   0  0  0  0  0  3  0  0  0  0  0  0
  183.9870  174.5760  137.8510 C   0  0  0  0  0  3  0  0  0  0  0  0
  184.9550  174.9250  136.9740 C   0  0  0  0  0  0  0  0  0  0  0  0
  185.0520  176.2730  136.3170 C   0  0  0  0  0  2  0  0  0  0  0  0
  182.6450  176.7860  137.8220 C   0  0  1  0  0  3  0  0  0  0  0  0
  184.9720  177.4240  137.2730 C   0  0  0  0  0  3  0  0  0  0  0  0
  183.8580  177.6900  137.9620 C   0  0  0  0  0  0  0  0  0  0  0  0
  185.9290  173.8860  136.4970 C   0  0  0  0  0  3  0  0  0  0  0  0
  187.2850  174.4980  136.1990 C   0  0  0  0  0  1  0  0  0  0  0  0
  186.0750  172.7530  137.5000 C   0  0  0  0  0  1  0  0  0  0  0  0
  184.2290  178.7460  140.2280 C   0  0  0  0  0  2  0  0  0  0  0  0
  185.4030  179.5510  140.5630 N   0  0  0  0  0  0  0  0  0  0  0  0
  186.5090  178.5980  140.7380 C   0  0  0  0  0  2  0  0  0  0  0  0
  185.9660  179.2720  141.9140 C   0  0  2  0  0  3  0  0  0  0  0  0
  185.1420  178.3070  142.7830 C   0  0  2  0  0  3  0  0  0  0  0  0
  184.3870  179.0990  143.8310 C   0  0  0  0  0  1  0  0  0  0  0  0
  187.3070  177.5140  143.5800 C   0  0  0  0  0  0  0  0  0  0  0  0
  186.0220  177.3160  143.4720 C   0  0  0  0  0  3  0  0  0  0  0  0
  188.5920  177.7210  143.6890 C   0  0  0  0  0  3  0  0  0  0  0  0
  189.2980  177.6600  144.9760 C   0  0  0  0  0  0  0  0  0  0  0  0
  188.5420  177.5030  146.0710 C   0  0  0  0  0  3  0  0  0  0  0  0
  190.8050  177.7950  145.0110 C   0  0  0  0  0  3  0  0  0  0  0  0
  191.5110  176.4780  144.7390 C   0  0  0  0  0  1  0  0  0  0  0  0
  191.3090  178.8900  144.0890 C   0  0  0  0  0  1  0  0  0  0  0  0
  188.1790  178.1870  148.4140 C   0  0  0  0  0  1  0  0  0  0  0  0
  189.0690  177.4080  147.4660 C   0  0  0  0  0  2  0  0  0  0  0  0
  1 19  1  1  0  0  0
  5  6  1  0  0  0  0
  6  4  2  0  0  0  0
  7  3  1  0  0  0  0
  7  8  2  0  0  0  0
  8  4  1  0  0  0  0
  8  1  1  0  0  0  0
  9  5  2  0  0  0  0
  9  7  1  0  0  0  0
 10  2  1  0  0  0  0
 11 10  2  0  0  0  0
 12 11  1  0  0  0  0
 12 14  1  0  0  0  0
 13 15  1  0  0  0  0
 13  3  1  1  0  0  0
 13  2  1  0  0  0  0
 14 15  2  0  0  0  0
 15  1  1  0  0  0  0
 16 11  1  0  0  0  0
 16 18  1  0  0  0  0
 17 16  1  0  0  0  0
 19 20  1  0  0  0  0
 20 21  1  0  0  0  0
 20 22  1  0  0  0  0
 21 22  1  0  0  0  0
 22 23  1  1  0  0  0
 23 26  1  0  0  0  0
 23 24  1  1  0  0  0
 25 27  2  0  0  0  0
 26 25  2  0  0  0  0
 27 28  1  0  0  0  0
 28 30  1  0  0  0  0
 28 29  2  0  0  0  0
 29 34  1  0  0  0  0
 31 30  1  0  0  0  0
 32 30  1  0  0  0  0
 34 33  1  0  0  0  0
M  END
>  <MODEL>
2

>  <REMARK>
 VINA RESULT:      -8.2      4.366      6.863
  Name = 
  8 active torsions:
  status: ('A' for Active; 'I' for Inactive)
    1  A    between atoms: C_1  and  C_9
    2  A    between atoms: C_3  and  C_25
    3  A    between atoms: C_6  and  C_28
    4  A    between atoms: C_6  and  C_30
    5  A    between atoms: C_7  and  C_11
    6  A    between atoms: C_7  and  C_29
    7  A    between atoms: N_8  and  C_9
    8  A    between atoms: C_14  and  C_16
                            x       y       z     vdW  Elec       q    Type
                         _______ _______ _______ _____ _____    ______ ____

>  <TORSDO>
F 8

$$$$
=
 OpenBabel10272415123D

 34 37  0  0  1  0  0  0  0  0999 V2000
  184.8510  178.8370  138.6350 C   0  0  2  0  0  3  0  0  0  0  0  0
  185.5230  175.5030  137.3740 C   0  0  0  0  0  2  0  0  0  0  0  0
  183.3220  176.6010  137.5370 C   0  0  0  0  0  2  0  0  0  0  0  0
  182.7090  180.1310  138.8090 C   0  0  0  0  0  3  0  0  0  0  0  0
  180.6080  179.2000  138.0430 C   0  0  0  0  0  3  0  0  0  0  0  0
  181.3310  180.2550  138.6090 C   0  0  0  0  0  3  0  0  0  0  0  0
  182.6430  177.8980  137.8600 C   0  0  0  0  0  0  0  0  0  0  0  0
  183.3690  178.9540  138.4390 C   0  0  0  0  0  0  0  0  0  0  0  0
  181.2620  178.0200  137.6760 C   0  0  0  0  0  3  0  0  0  0  0  0
  186.8830  175.3230  136.7410 C   0  0  0  0  0  3  0  0  0  0  0  0
  187.6750  176.2490  136.1570 C   0  0  0  0  0  0  0  0  0  0  0  0
  187.2500  177.6620  135.8690 C   0  0  0  0  0  2  0  0  0  0  0  0
  184.7540  176.7670  137.0040 C   0  0  1  0  0  3  0  0  0  0  0  0
  186.6400  178.3670  137.0420 C   0  0  0  0  0  3  0  0  0  0  0  0
  185.4750  177.9800  137.5670 C   0  0  0  0  0  0  0  0  0  0  0  0
  189.0200  175.8420  135.6260 C   0  0  0  0  0  3  0  0  0  0  0  0
  190.1430  176.4480  136.4480 C   0  0  0  0  0  1  0  0  0  0  0  0
  189.1660  174.3300  135.5740 C   0  0  0  0  0  1  0  0  0  0  0  0
  185.2290  178.3930  140.0480 C   0  0  0  0  0  2  0  0  0  0  0  0
  186.0220  179.4120  140.7340 N   0  0  0  0  0  0  0  0  0  0  0  0
  187.1100  178.6890  141.4100 C   0  0  0  0  0  2  0  0  0  0  0  0
  186.0420  179.2710  142.2180 C   0  0  2  0  0  3  0  0  0  0  0  0
  185.1140  178.1840  142.7870 C   0  0  2  0  0  3  0  0  0  0  0  0
  183.7560  178.7910  143.0810 C   0  0  0  0  0  1  0  0  0  0  0  0
  186.9220  177.2670  144.1430 C   0  0  0  0  0  0  0  0  0  0  0  0
  185.6660  177.6090  144.0500 C   0  0  0  0  0  3  0  0  0  0  0  0
  188.1810  176.9300  144.2310 C   0  0  0  0  0  3  0  0  0  0  0  0
  189.0560  177.4100  145.3090 C   0  0  0  0  0  0  0  0  0  0  0  0
  188.4930  177.5740  146.5140 C   0  0  0  0  0  3  0  0  0  0  0  0
  190.5090  177.7110  145.0170 C   0  0  0  0  0  3  0  0  0  0  0  0
  191.2460  176.5120  144.4450 C   0  0  0  0  0  1  0  0  0  0  0  0
  190.6800  178.9340  144.1340 C   0  0  0  0  0  1  0  0  0  0  0  0
  188.2830  178.0130  148.9330 C   0  0  0  0  0  1  0  0  0  0  0  0
  189.2130  178.0430  147.7370 C   0  0  0  0  0  2  0  0  0  0  0  0
  1 19  1  1  0  0  0
  3  7  1  0  0  0  0
  5  6  2  0  0  0  0
  6  4  1  0  0  0  0
  7  8  1  0  0  0  0
  8  1  1  0  0  0  0
  8  4  2  0  0  0  0
  9  7  2  0  0  0  0
  9  5  1  0  0  0  0
 10  2  1  0  0  0  0
 11 10  2  0  0  0  0
 12 11  1  0  0  0  0
 12 14  1  0  0  0  0
 13  2  1  1  0  0  0
 13  3  1  0  0  0  0
 13 15  1  0  0  0  0
 14 15  2  0  0  0  0
 15  1  1  0  0  0  0
 16 11  1  0  0  0  0
 16 17  1  0  0  0  0
 18 16  1  0  0  0  0
 19 20  1  0  0  0  0
 20 21  1  0  0  0  0
 20 22  1  0  0  0  0
 21 22  1  0  0  0  0
 22 23  1  6  0  0  0
 23 24  1  1  0  0  0
 23 26  1  0  0  0  0
 25 27  2  0  0  0  0
 26 25  2  0  0  0  0
 27 28  1  0  0  0  0
 28 29  2  0  0  0  0
 29 34  1  0  0  0  0
 30 28  1  0  0  0  0
 31 30  1  0  0  0  0
 32 30  1  0  0  0  0
 34 33  1  0  0  0  0
M  END
>  <MODEL>
3

>  <REMARK>
 VINA RESULT:      -7.7      3.243      5.604
  Name = 
  8 active torsions:
  status: ('A' for Active; 'I' for Inactive)
    1  A    between atoms: C_1  and  C_9
    2  A    between atoms: C_3  and  C_25
    3  A    between atoms: C_6  and  C_28
    4  A    between atoms: C_6  and  C_30
    5  A    between atoms: C_7  and  C_11
    6  A    between atoms: C_7  and  C_29
    7  A    between atoms: N_8  and  C_9
    8  A    between atoms: C_14  and  C_16
                            x       y       z     vdW  Elec       q    Type
                         _______ _______ _______ _____ _____    ______ ____

>  <TORSDO>
F 8

$$$$
=
 OpenBabel10272415123D

 34 37  0  0  1  0  0  0  0  0999 V2000
  187.9040  177.0880  137.6250 C   0  0  2  0  0  3  0  0  0  0  0  0
  189.6250  173.9350  137.1200 C   0  0  0  0  0  2  0  0  0  0  0  0
  187.2090  174.3510  136.8710 C   0  0  0  0  0  2  0  0  0  0  0  0
  185.4900  177.7080  137.3530 C   0  0  0  0  0  3  0  0  0  0  0  0
  183.8480  176.0880  136.6110 C   0  0  0  0  0  3  0  0  0  0  0  0
  184.1720  177.3880  137.0140 C   0  0  0  0  0  3  0  0  0  0  0  0
  186.1650  175.4280  136.8680 C   0  0  0  0  0  0  0  0  0  0  0  0
  186.4880  176.7320  137.2830 C   0  0  0  0  0  0  0  0  0  0  0  0
  184.8420  175.1070  136.5450 C   0  0  0  0  0  3  0  0  0  0  0  0
  191.0580  174.0580  136.6550 C   0  0  0  0  0  3  0  0  0  0  0  0
  191.6410  175.0650  135.9670 C   0  0  0  0  0  0  0  0  0  0  0  0
  190.8930  176.2210  135.3660 C   0  0  0  0  0  2  0  0  0  0  0  0
  188.6010  174.8380  136.4400 C   0  0  1  0  0  3  0  0  0  0  0  0
  189.9580  176.9030  136.3170 C   0  0  0  0  0  3  0  0  0  0  0  0
  188.8800  176.2850  136.8080 C   0  0  0  0  0  0  0  0  0  0  0  0
  193.1070  174.9860  135.6450 C   0  0  0  0  0  3  0  0  0  0  0  0
  193.9030  175.9960  136.4520 C   0  0  0  0  0  1  0  0  0  0  0  0
  193.6550  173.5870  135.8700 C   0  0  0  0  0  1  0  0  0  0  0  0
  188.1880  177.0180  139.1260 C   0  0  0  0  0  2  0  0  0  0  0  0
  188.8290  178.2410  139.6060 N   0  0  0  0  0  0  0  0  0  0  0  0
  189.3500  177.9250  140.9440 C   0  0  0  0  0  2  0  0  0  0  0  0
  188.2000  178.8180  140.8290 C   0  0  2  0  0  3  0  0  0  0  0  0
  186.9060  178.1270  141.2890 C   0  0  2  0  0  3  0  0  0  0  0  0
  185.7130  178.8840  140.7380 C   0  0  0  0  0  1  0  0  0  0  0  0
  187.6290  177.3780  143.4950 C   0  0  0  0  0  0  0  0  0  0  0  0
  186.8090  178.0990  142.7790 C   0  0  0  0  0  3  0  0  0  0  0  0
  188.4550  176.6580  144.2060 C   0  0  0  0  0  3  0  0  0  0  0  0
  189.2340  177.2150  145.3200 C   0  0  0  0  0  0  0  0  0  0  0  0
  188.5900  177.3820  146.4830 C   0  0  0  0  0  3  0  0  0  0  0  0
  190.6850  177.5870  145.1070 C   0  0  0  0  0  3  0  0  0  0  0  0
  191.5060  176.4310  144.5600 C   0  0  0  0  0  1  0  0  0  0  0  0
  190.8440  178.8270  144.2480 C   0  0  0  0  0  1  0  0  0  0  0  0
  188.1610  178.0350  148.8230 C   0  0  0  0  0  1  0  0  0  0  0  0
  189.2070  177.9220  147.7320 C   0  0  0  0  0  2  0  0  0  0  0  0
  1 19  1  1  0  0  0
  5  6  1  0  0  0  0
  6  4  2  0  0  0  0
  7  3  1  0  0  0  0
  7  8  2  0  0  0  0
  8  4  1  0  0  0  0
  8  1  1  0  0  0  0
  9  5  2  0  0  0  0
  9  7  1  0  0  0  0
 10  2  1  0  0  0  0
 11 10  2  0  0  0  0
 12 11  1  0  0  0  0
 12 14  1  0  0  0  0
 13 15  1  0  0  0  0
 13  3  1  1  0  0  0
 13  2  1  0  0  0  0
 14 15  2  0  0  0  0
 15  1  1  0  0  0  0
 16 18  1  0  0  0  0
 16 11  1  0  0  0  0
 16 17  1  0  0  0  0
 19 20  1  0  0  0  0
 20 22  1  0  0  0  0
 20 21  1  0  0  0  0
 22 21  1  0  0  0  0
 22 23  1  1  0  0  0
 23 24  1  6  0  0  0
 23 26  1  0  0  0  0
 25 27  2  0  0  0  0
 26 25  2  0  0  0  0
 27 28  1  0  0  0  0
 28 29  2  0  0  0  0
 29 34  1  0  0  0  0
 30 28  1  0  0  0  0
 31 30  1  0  0  0  0
 32 30  1  0  0  0  0
 34 33  1  0  0  0  0
M  END
>  <MODEL>
4

>  <REMARK>
 VINA RESULT:      -7.5      1.868      3.050
  Name = 
  8 active torsions:
  status: ('A' for Active; 'I' for Inactive)
    1  A    between atoms: C_1  and  C_9
    2  A    between atoms: C_3  and  C_25
    3  A    between atoms: C_6  and  C_28
    4  A    between atoms: C_6  and  C_30
    5  A    between atoms: C_7  and  C_11
    6  A    between atoms: C_7  and  C_29
    7  A    between atoms: N_8  and  C_9
    8  A    between atoms: C_14  and  C_16
                            x       y       z     vdW  Elec       q    Type
                         _______ _______ _______ _____ _____    ______ ____

>  <TORSDO>
F 8

$$$$
=
 OpenBabel10272415123D

 34 37  0  0  1  0  0  0  0  0999 V2000
  190.8280  174.5910  137.5930 C   0  0  2  0  0  3  0  0  0  0  0  0
  188.0220  175.7770  135.6230 C   0  0  0  0  0  2  0  0  0  0  0  0
  190.4130  176.1440  135.1520 C   0  0  0  0  0  2  0  0  0  0  0  0
  193.3010  174.8070  137.2330 C   0  0  0  0  0  3  0  0  0  0  0  0
  194.1970  175.9420  135.2900 C   0  0  0  0  0  3  0  0  0  0  0  0
  194.3980  175.2370  136.4810 C   0  0  0  0  0  3  0  0  0  0  0  0
  191.7990  175.7760  135.5910 C   0  0  0  0  0  0  0  0  0  0  0  0
  192.0000  175.0760  136.7930 C   0  0  0  0  0  0  0  0  0  0  0  0
  192.9000  176.2180  134.8490 C   0  0  0  0  0  3  0  0  0  0  0  0
  186.7900  174.9050  135.6800 C   0  0  0  0  0  3  0  0  0  0  0  0
  186.7000  173.5800  135.9340 C   0  0  0  0  0  0  0  0  0  0  0  0
  187.8840  172.6610  136.0460 C   0  0  0  0  0  2  0  0  0  0  0  0
  189.3610  175.0660  135.4540 C   0  0  1  0  0  3  0  0  0  0  0  0
  188.9540  173.1540  136.9700 C   0  0  0  0  0  3  0  0  0  0  0  0
  189.6630  174.2540  136.7010 C   0  0  0  0  0  0  0  0  0  0  0  0
  185.3480  172.9270  135.9780 C   0  0  0  0  0  3  0  0  0  0  0  0
  185.4320  171.4620  135.5910 C   0  0  0  0  0  1  0  0  0  0  0  0
  184.7010  173.0710  137.3460 C   0  0  0  0  0  1  0  0  0  0  0  0
  190.4500  175.5430  138.7280 C   0  0  0  0  0  2  0  0  0  0  0  0
  190.9820  176.8860  138.4990 N   0  0  0  0  0  0  0  0  0  0  0  0
  191.1920  177.4690  139.8320 C   0  0  0  0  0  2  0  0  0  0  0  0
  190.1060  177.9810  139.0020 C   0  0  2  0  0  3  0  0  0  0  0  0
  188.7340  177.5330  139.5350 C   0  0  2  0  0  3  0  0  0  0  0  0
  187.6590  177.9310  138.5430 C   0  0  0  0  0  1  0  0  0  0  0  0
  188.3610  177.4610  141.9440 C   0  0  0  0  0  0  0  0  0  0  0  0
  188.4320  178.1710  140.8510 C   0  0  0  0  0  3  0  0  0  0  0  0
  188.2950  176.7460  143.0350 C   0  0  0  0  0  3  0  0  0  0  0  0
  189.0620  177.0730  144.2440 C   0  0  0  0  0  0  0  0  0  0  0  0
  188.3570  177.3210  145.3570 C   0  0  0  0  0  3  0  0  0  0  0  0
  190.5720  177.1360  144.1800 C   0  0  0  0  0  3  0  0  0  0  0  0
  191.1640  176.0140  143.3430 C   0  0  0  0  0  1  0  0  0  0  0  0
  191.0750  178.4910  143.7160 C   0  0  0  0  0  1  0  0  0  0  0  0
  187.8540  177.8070  147.7230 C   0  0  0  0  0  1  0  0  0  0  0  0
  188.9500  177.6610  146.6860 C   0  0  0  0  0  2  0  0  0  0  0  0
  1 19  1  1  0  0  0
  2 10  1  0  0  0  0
  3  7  1  0  0  0  0
  5  6  1  0  0  0  0
  6  4  2  0  0  0  0
  7  8  2  0  0  0  0
  8  4  1  0  0  0  0
  8  1  1  0  0  0  0
  9  5  2  0  0  0  0
  9  7  1  0  0  0  0
 10 11  2  0  0  0  0
 11 16  1  0  0  0  0
 11 12  1  0  0  0  0
 12 14  1  0  0  0  0
 13  3  1  1  0  0  0
 13  2  1  0  0  0  0
 13 15  1  0  0  0  0
 15 14  2  0  0  0  0
 15  1  1  0  0  0  0
 16 18  1  0  0  0  0
 17 16  1  0  0  0  0
 20 19  1  0  0  0  0
 20 22  1  0  0  0  0
 20 21  1  0  0  0  0
 22 23  1  1  0  0  0
 22 21  1  0  0  0  0
 23 24  1  6  0  0  0
 23 26  1  0  0  0  0
 25 27  2  0  0  0  0
 26 25  2  0  0  0  0
 27 28  1  0  0  0  0
 28 29  2  0  0  0  0
 29 34  1  0  0  0  0
 30 28  1  0  0  0  0
 31 30  1  0  0  0  0
 32 30  1  0  0  0  0
 34 33  1  0  0  0  0
M  END
>  <MODEL>
5

>  <REMARK>
 VINA RESULT:      -7.2      2.132      5.282
  Name = 
  8 active torsions:
  status: ('A' for Active; 'I' for Inactive)
    1  A    between atoms: C_1  and  C_9
    2  A    between atoms: C_3  and  C_25
    3  A    between atoms: C_6  and  C_28
    4  A    between atoms: C_6  and  C_30
    5  A    between atoms: C_7  and  C_11
    6  A    between atoms: C_7  and  C_29
    7  A    between atoms: N_8  and  C_9
    8  A    between atoms: C_14  and  C_16
                            x       y       z     vdW  Elec       q    Type
                         _______ _______ _______ _____ _____    ______ ____

>  <TORSDO>
F 8

$$$$
=
 OpenBabel10272415123D

 34 37  0  0  1  0  0  0  0  0999 V2000
  189.4220  175.0190  137.2650 C   0  0  2  0  0  3  0  0  0  0  0  0
  187.8310  177.7620  135.5030 C   0  0  0  0  0  2  0  0  0  0  0  0
  190.1040  176.8870  135.1230 C   0  0  0  0  0  2  0  0  0  0  0  0
  191.6750  173.9580  136.9700 C   0  0  0  0  0  3  0  0  0  0  0  0
  193.2120  174.7180  135.2580 C   0  0  0  0  0  3  0  0  0  0  0  0
  192.9040  173.8520  136.3120 C   0  0  0  0  0  3  0  0  0  0  0  0
  191.0530  175.7900  135.5040 C   0  0  0  0  0  0  0  0  0  0  0  0
  190.7480  174.9260  136.5710 C   0  0  0  0  0  0  0  0  0  0  0  0
  192.2900  175.6910  134.8590 C   0  0  0  0  0  3  0  0  0  0  0  0
  186.3270  177.6650  135.3990 C   0  0  0  0  0  3  0  0  0  0  0  0
  185.5460  176.5630  135.4220 C   0  0  0  0  0  0  0  0  0  0  0  0
  186.0700  175.1550  135.3850 C   0  0  0  0  0  2  0  0  0  0  0  0
  188.6230  176.4890  135.2260 C   0  0  1  0  0  3  0  0  0  0  0  0
  187.1470  174.8790  136.3890 C   0  0  0  0  0  3  0  0  0  0  0  0
  188.3430  175.4710  136.3190 C   0  0  0  0  0  0  0  0  0  0  0  0
  184.0530  176.7140  135.3410 C   0  0  0  0  0  3  0  0  0  0  0  0
  183.3830  175.3940  135.0070 C   0  0  0  0  0  1  0  0  0  0  0  0
  183.4780  177.2830  136.6280 C   0  0  0  0  0  1  0  0  0  0  0  0
  189.4790  175.8560  138.5430 C   0  0  0  0  0  2  0  0  0  0  0  0
  190.0580  177.1750  138.2930 N   0  0  0  0  0  0  0  0  0  0  0  0
  190.5280  177.6640  139.5980 C   0  0  0  0  0  2  0  0  0  0  0  0
  189.3570  178.2900  138.9900 C   0  0  2  0  0  3  0  0  0  0  0  0
  188.0650  177.8950  139.7260 C   0  0  2  0  0  3  0  0  0  0  0  0
  186.8700  178.4070  138.9470 C   0  0  0  0  0  1  0  0  0  0  0  0
  187.9250  177.7140  142.1550 C   0  0  0  0  0  0  0  0  0  0  0  0
  188.0280  178.4770  141.1010 C   0  0  0  0  0  3  0  0  0  0  0  0
  187.8270  176.9450  143.2060 C   0  0  0  0  0  3  0  0  0  0  0  0
  188.7600  177.0270  144.3380 C   0  0  0  0  0  0  0  0  0  0  0  0
  188.2270  177.2880  145.5390 C   0  0  0  0  0  3  0  0  0  0  0  0
  190.2420  176.8400  144.1020 C   0  0  0  0  0  3  0  0  0  0  0  0
  190.5330  175.7880  143.0450 C   0  0  0  0  0  1  0  0  0  0  0  0
  190.9470  178.1460  143.7860 C   0  0  0  0  0  1  0  0  0  0  0  0
  188.1050  177.8900  147.9290 C   0  0  0  0  0  1  0  0  0  0  0  0
  189.0040  177.4010  146.8110 C   0  0  0  0  0  2  0  0  0  0  0  0
  1 19  1  1  0  0  0
  3  7  1  0  0  0  0
  5  6  1  0  0  0  0
  6  4  2  0  0  0  0
  7  8  2  0  0  0  0
  8  4  1  0  0  0  0
  8  1  1  0  0  0  0
  9  5  2  0  0  0  0
  9  7  1  0  0  0  0
 10 11  2  0  0  0  0
 10  2  1  0  0  0  0
 12 11  1  0  0  0  0
 12 14  1  0  0  0  0
 13  3  1  1  0  0  0
 13  2  1  0  0  0  0
 13 15  1  0  0  0  0
 15 14  2  0  0  0  0
 15  1  1  0  0  0  0
 16 11  1  0  0  0  0
 16 18  1  0  0  0  0
 17 16  1  0  0  0  0
 20 19  1  0  0  0  0
 20 22  1  0  0  0  0
 20 21  1  0  0  0  0
 22 21  1  0  0  0  0
 22 23  1  1  0  0  0
 23 24  1  6  0  0  0
 23 26  1  0  0  0  0
 25 27  2  0  0  0  0
 26 25  2  0  0  0  0
 27 28  1  0  0  0  0
 28 29  2  0  0  0  0
 29 34  1  0  0  0  0
 30 28  1  0  0  0  0
 31 30  1  0  0  0  0
 32 30  1  0  0  0  0
 34 33  1  0  0  0  0
M  END
>  <MODEL>
6

>  <REMARK>
 VINA RESULT:      -7.1      1.876      5.798
  Name = 
  8 active torsions:
  status: ('A' for Active; 'I' for Inactive)
    1  A    between atoms: C_1  and  C_9
    2  A    between atoms: C_3  and  C_25
    3  A    between atoms: C_6  and  C_28
    4  A    between atoms: C_6  and  C_30
    5  A    between atoms: C_7  and  C_11
    6  A    between atoms: C_7  and  C_29
    7  A    between atoms: N_8  and  C_9
    8  A    between atoms: C_14  and  C_16
                            x       y       z     vdW  Elec       q    Type
                         _______ _______ _______ _____ _____    ______ ____

>  <TORSDO>
F 8

$$$$
=
 OpenBabel10272415123D

 34 37  0  0  1  0  0  0  0  0999 V2000
  191.0660  177.3750  138.1270 C   0  0  2  0  0  3  0  0  0  0  0  0
  191.8990  173.9050  137.4750 C   0  0  0  0  0  2  0  0  0  0  0  0
  189.8620  175.0920  136.7560 C   0  0  0  0  0  2  0  0  0  0  0  0
  189.0940  178.7560  137.4230 C   0  0  0  0  0  3  0  0  0  0  0  0
  187.3310  177.8250  136.0480 C   0  0  0  0  0  3  0  0  0  0  0  0
  187.8840  178.9070  136.7400 C   0  0  0  0  0  3  0  0  0  0  0  0
  189.2060  176.4390  136.7070 C   0  0  0  0  0  0  0  0  0  0  0  0
  189.7570  177.5240  137.4110 C   0  0  0  0  0  0  0  0  0  0  0  0
  187.9870  176.5910  136.0370 C   0  0  0  0  0  3  0  0  0  0  0  0
  193.3780  173.6120  137.3810 C   0  0  0  0  0  3  0  0  0  0  0  0
  194.3870  174.4440  137.0370 C   0  0  0  0  0  0  0  0  0  0  0  0
  194.1890  175.8330  136.4970 C   0  0  0  0  0  2  0  0  0  0  0  0
  191.3970  175.1500  136.7510 C   0  0  1  0  0  3  0  0  0  0  0  0
  193.2600  176.6780  137.3150 C   0  0  0  0  0  3  0  0  0  0  0  0
  191.9600  176.3890  137.4260 C   0  0  0  0  0  0  0  0  0  0  0  0
  195.8000  173.9360  137.0510 C   0  0  0  0  0  3  0  0  0  0  0  0
  196.6950  174.7720  136.1550 C   0  0  0  0  0  1  0  0  0  0  0  0
  196.3650  173.8920  138.4620 C   0  0  0  0  0  1  0  0  0  0  0  0
  190.8970  177.0680  139.6150 C   0  0  0  0  0  2  0  0  0  0  0  0
  189.5790  176.5000  139.8980 N   0  0  0  0  0  0  0  0  0  0  0  0
  188.7730  177.6010  140.4450 C   0  0  0  0  0  2  0  0  0  0  0  0
  189.2000  176.5280  141.3390 C   0  0  2  0  0  3  0  0  0  0  0  0
  190.3030  177.0050  142.2990 C   0  0  2  0  0  3  0  0  0  0  0  0
  190.8490  175.8140  143.0620 C   0  0  0  0  0  1  0  0  0  0  0  0
  188.5940  177.8570  143.8160 C   0  0  0  0  0  0  0  0  0  0  0  0
  189.7740  178.0010  143.2770 C   0  0  0  0  0  3  0  0  0  0  0  0
  187.4140  177.7040  144.3550 C   0  0  0  0  0  3  0  0  0  0  0  0
  187.1960  177.7360  145.8070 C   0  0  0  0  0  0  0  0  0  0  0  0
  188.1510  177.1880  146.5720 C   0  0  0  0  0  3  0  0  0  0  0  0
  185.9300  178.3500  146.3620 C   0  0  0  0  0  3  0  0  0  0  0  0
  186.1840  179.6790  147.0530 C   0  0  0  0  0  1  0  0  0  0  0  0
  184.8400  178.4750  145.3130 C   0  0  0  0  0  1  0  0  0  0  0  0
  188.8960  178.2940  148.6480 C   0  0  0  0  0  1  0  0  0  0  0  0
  188.1210  177.1300  148.0650 C   0  0  0  0  0  2  0  0  0  0  0  0
  1 19  1  1  0  0  0
  5  6  1  0  0  0  0
  6  4  2  0  0  0  0
  7  3  1  0  0  0  0
  7  8  2  0  0  0  0
  8  4  1  0  0  0  0
  8  1  1  0  0  0  0
  9  5  2  0  0  0  0
  9  7  1  0  0  0  0
 10  2  1  0  0  0  0
 11 16  1  0  0  0  0
 11 10  2  0  0  0  0
 12 11  1  0  0  0  0
 12 14  1  0  0  0  0
 13  3  1  1  0  0  0
 13 15  1  0  0  0  0
 13  2  1  0  0  0  0
 14 15  2  0  0  0  0
 15  1  1  0  0  0  0
 16 18  1  0  0  0  0
 17 16  1  0  0  0  0
 19 20  1  0  0  0  0
 20 21  1  0  0  0  0
 20 22  1  0  0  0  0
 21 22  1  0  0  0  0
 22 23  1  1  0  0  0
 23 24  1  1  0  0  0
 23 26  1  0  0  0  0
 25 27  2  0  0  0  0
 26 25  2  0  0  0  0
 27 28  1  0  0  0  0
 28 30  1  0  0  0  0
 28 29  2  0  0  0  0
 29 34  1  0  0  0  0
 30 31  1  0  0  0  0
 32 30  1  0  0  0  0
 34 33  1  0  0  0  0
M  END
>  <MODEL>
7

>  <REMARK>
 VINA RESULT:      -7.1      0.826      2.047
  Name = 
  8 active torsions:
  status: ('A' for Active; 'I' for Inactive)
    1  A    between atoms: C_1  and  C_9
    2  A    between atoms: C_3  and  C_25
    3  A    between atoms: C_6  and  C_28
    4  A    between atoms: C_6  and  C_30
    5  A    between atoms: C_7  and  C_11
    6  A    between atoms: C_7  and  C_29
    7  A    between atoms: N_8  and  C_9
    8  A    between atoms: C_14  and  C_16
                            x       y       z     vdW  Elec       q    Type
                         _______ _______ _______ _____ _____    ______ ____

>  <TORSDO>
F 8

$$$$
=
 OpenBabel10272415123D

 34 37  0  0  1  0  0  0  0  0999 V2000
  190.0070  175.0390  137.4680 C   0  0  2  0  0  3  0  0  0  0  0  0
  188.5430  178.3050  136.8730 C   0  0  0  0  0  2  0  0  0  0  0  0
  190.4340  177.2940  135.6570 C   0  0  0  0  0  2  0  0  0  0  0  0
  191.8670  173.8310  136.2980 C   0  0  0  0  0  3  0  0  0  0  0  0
  193.0120  174.8130  134.4020 C   0  0  0  0  0  3  0  0  0  0  0  0
  192.8390  173.7510  135.2950 C   0  0  0  0  0  3  0  0  0  0  0  0
  191.2310  176.0330  135.5000 C   0  0  0  0  0  0  0  0  0  0  0  0
  191.0630  174.9700  136.4050 C   0  0  0  0  0  0  0  0  0  0  0  0
  192.2150  175.9560  134.5090 C   0  0  0  0  0  3  0  0  0  0  0  0
  187.0740  178.4140  137.2050 C   0  0  0  0  0  3  0  0  0  0  0  0
  186.1360  177.4410  137.2320 C   0  0  0  0  0  0  0  0  0  0  0  0
  186.3640  176.0370  136.7470 C   0  0  0  0  0  2  0  0  0  0  0  0
  188.9860  177.0590  136.1130 C   0  0  1  0  0  3  0  0  0  0  0  0
  187.5970  175.3920  137.3030 C   0  0  0  0  0  3  0  0  0  0  0  0
  188.8200  175.8390  137.0030 C   0  0  0  0  0  0  0  0  0  0  0  0
  184.7290  177.7820  137.6340 C   0  0  0  0  0  3  0  0  0  0  0  0
  183.8570  176.5410  137.6890 C   0  0  0  0  0  1  0  0  0  0  0  0
  184.6900  178.5100  138.9680 C   0  0  0  0  0  1  0  0  0  0  0  0
  190.5520  175.5140  138.8150 C   0  0  0  0  0  2  0  0  0  0  0  0
  191.0610  176.8830  138.7330 N   0  0  0  0  0  0  0  0  0  0  0  0
  191.6480  177.1740  140.0490 C   0  0  0  0  0  2  0  0  0  0  0  0
  190.4010  177.8350  139.6710 C   0  0  2  0  0  3  0  0  0  0  0  0
  189.2060  177.2640  140.4530 C   0  0  2  0  0  3  0  0  0  0  0  0
  188.1780  178.3590  140.6620 C   0  0  0  0  0  1  0  0  0  0  0  0
  189.5190  177.4730  142.8630 C   0  0  0  0  0  0  0  0  0  0  0  0
  189.6310  176.7440  141.7860 C   0  0  0  0  0  3  0  0  0  0  0  0
  189.4000  178.2060  143.9370 C   0  0  0  0  0  3  0  0  0  0  0  0
  188.7140  177.7330  145.1470 C   0  0  0  0  0  0  0  0  0  0  0  0
  187.3880  177.9200  145.2010 C   0  0  0  0  0  3  0  0  0  0  0  0
  189.5140  177.0920  146.2600 C   0  0  0  0  0  3  0  0  0  0  0  0
  190.9790  176.9200  145.8960 C   0  0  0  0  0  1  0  0  0  0  0  0
  189.3600  177.8260  147.5800 C   0  0  0  0  0  1  0  0  0  0  0  0
  185.3050  178.4140  146.4280 C   0  0  0  0  0  1  0  0  0  0  0  0
  186.5120  177.5020  146.3370 C   0  0  0  0  0  2  0  0  0  0  0  0
  1 19  1  1  0  0  0
  2 10  1  0  0  0  0
  4  8  1  0  0  0  0
  5  9  2  0  0  0  0
  5  6  1  0  0  0  0
  6  4  2  0  0  0  0
  7  3  1  0  0  0  0
  7  8  2  0  0  0  0
  8  1  1  0  0  0  0
  9  7  1  0  0  0  0
 10 11  2  0  0  0  0
 11 16  1  0  0  0  0
 12 11  1  0  0  0  0
 12 14  1  0  0  0  0
 13  3  1  1  0  0  0
 13  2  1  0  0  0  0
 13 15  1  0  0  0  0
 15 14  2  0  0  0  0
 15  1  1  0  0  0  0
 16 17  1  0  0  0  0
 16 18  1  0  0  0  0
 20 19  1  0  0  0  0
 20 22  1  0  0  0  0
 20 21  1  0  0  0  0
 22 21  1  0  0  0  0
 22 23  1  1  0  0  0
 23 24  1  1  0  0  0
 23 26  1  0  0  0  0
 25 27  2  0  0  0  0
 26 25  2  0  0  0  0
 27 28  1  0  0  0  0
 28 29  2  0  0  0  0
 28 30  1  0  0  0  0
 29 34  1  0  0  0  0
 30 32  1  0  0  0  0
 31 30  1  0  0  0  0
 34 33  1  0  0  0  0
M  END
>  <MODEL>
8

>  <REMARK>
 VINA RESULT:      -7.0      1.770      5.292
  Name = 
  8 active torsions:
  status: ('A' for Active; 'I' for Inactive)
    1  A    between atoms: C_1  and  C_9
    2  A    between atoms: C_3  and  C_25
    3  A    between atoms: C_6  and  C_28
    4  A    between atoms: C_6  and  C_30
    5  A    between atoms: C_7  and  C_11
    6  A    between atoms: C_7  and  C_29
    7  A    between atoms: N_8  and  C_9
    8  A    between atoms: C_14  and  C_16
                            x       y       z     vdW  Elec       q    Type
                         _______ _______ _______ _____ _____    ______ ____

>  <TORSDO>
F 8

$$$$
=
 OpenBabel10272415123D

 34 37  0  0  1  0  0  0  0  0999 V2000
  184.8280  178.8090  138.8660 C   0  0  2  0  0  3  0  0  0  0  0  0
  185.5500  175.4750  137.6340 C   0  0  0  0  0  2  0  0  0  0  0  0
  183.3240  176.5020  137.8880 C   0  0  0  0  0  2  0  0  0  0  0  0
  182.6550  180.0350  139.1250 C   0  0  0  0  0  3  0  0  0  0  0  0
  180.5510  179.0200  138.4820 C   0  0  0  0  0  3  0  0  0  0  0  0
  181.2650  180.1090  138.9920 C   0  0  0  0  0  3  0  0  0  0  0  0
  182.6180  177.7820  138.2210 C   0  0  0  0  0  0  0  0  0  0  0  0
  183.3350  178.8730  138.7430 C   0  0  0  0  0  0  0  0  0  0  0  0
  181.2260  177.8550  138.1040 C   0  0  0  0  0  3  0  0  0  0  0  0
  186.8820  175.3280  136.9370 C   0  0  0  0  0  3  0  0  0  0  0  0
  187.6120  176.2680  136.2970 C   0  0  0  0  0  0  0  0  0  0  0  0
  187.1250  177.6600  136.0050 C   0  0  0  0  0  2  0  0  0  0  0  0
  184.7210  176.7050  137.2810 C   0  0  1  0  0  3  0  0  0  0  0  0
  186.5510  178.3670  137.1940 C   0  0  0  0  0  3  0  0  0  0  0  0
  185.4270  177.9520  137.7840 C   0  0  0  0  0  0  0  0  0  0  0  0
  188.9420  175.8950  135.7060 C   0  0  0  0  0  3  0  0  0  0  0  0
  190.0010  176.9310  136.0370 C   0  0  0  0  0  1  0  0  0  0  0  0
  189.3930  174.5190  136.1670 C   0  0  0  0  0  1  0  0  0  0  0  0
  185.2910  178.4060  140.2670 C   0  0  0  0  0  2  0  0  0  0  0  0
  186.1750  179.4150  140.8480 N   0  0  0  0  0  0  0  0  0  0  0  0
  187.5030  178.7890  140.9300 C   0  0  0  0  0  2  0  0  0  0  0  0
  186.7590  179.0270  142.1640 C   0  0  2  0  0  3  0  0  0  0  0  0
  186.2240  177.7130  142.7580 C   0  0  2  0  0  3  0  0  0  0  0  0
  185.2460  178.0300  143.8720 C   0  0  0  0  0  1  0  0  0  0  0  0
  188.2920  177.4180  144.0170 C   0  0  0  0  0  0  0  0  0  0  0  0
  187.3320  176.8810  143.3140 C   0  0  0  0  0  3  0  0  0  0  0  0
  189.2470  177.9600  144.7240 C   0  0  0  0  0  3  0  0  0  0  0  0
  189.6240  177.4690  146.0560 C   0  0  0  0  0  0  0  0  0  0  0  0
  190.8770  177.0150  146.1980 C   0  0  0  0  0  3  0  0  0  0  0  0
  188.6050  177.4740  147.1740 C   0  0  0  0  0  3  0  0  0  0  0  0
  188.9920  178.4110  148.3060 C   0  0  0  0  0  1  0  0  0  0  0  0
  187.2020  177.7660  146.6750 C   0  0  0  0  0  1  0  0  0  0  0  0
  192.0520  175.1110  147.2380 C   0  0  0  0  0  1  0  0  0  0  0  0
  191.4550  176.4840  147.4700 C   0  0  0  0  0  2  0  0  0  0  0  0
  1 19  1  1  0  0  0
  3  7  1  0  0  0  0
  5  6  2  0  0  0  0
  6  4  1  0  0  0  0
  7  8  1  0  0  0  0
  8  1  1  0  0  0  0
  8  4  2  0  0  0  0
  9  7  2  0  0  0  0
  9  5  1  0  0  0  0
 10  2  1  0  0  0  0
 11 10  2  0  0  0  0
 12 11  1  0  0  0  0
 12 14  1  0  0  0  0
 13  2  1  1  0  0  0
 13 15  1  0  0  0  0
 13  3  1  0  0  0  0
 14 15  2  0  0  0  0
 15  1  1  0  0  0  0
 16 17  1  0  0  0  0
 16 18  1  0  0  0  0
 16 11  1  0  0  0  0
 19 20  1  0  0  0  0
 20 21  1  0  0  0  0
 20 22  1  0  0  0  0
 21 22  1  0  0  0  0
 22 23  1  6  0  0  0
 23 26  1  0  0  0  0
 23 24  1  1  0  0  0
 25 27  2  0  0  0  0
 26 25  2  0  0  0  0
 27 28  1  0  0  0  0
 28 29  2  0  0  0  0
 28 30  1  0  0  0  0
 29 34  1  0  0  0  0
 30 31  1  0  0  0  0
 32 30  1  0  0  0  0
 33 34  1  0  0  0  0
M  END
>  <MODEL>
9

>  <REMARK>
 VINA RESULT:      -6.8      3.267      5.672
  Name = 
  8 active torsions:
  status: ('A' for Active; 'I' for Inactive)
    1  A    between atoms: C_1  and  C_9
    2  A    between atoms: C_3  and  C_25
    3  A    between atoms: C_6  and  C_28
    4  A    between atoms: C_6  and  C_30
    5  A    between atoms: C_7  and  C_11
    6  A    between atoms: C_7  and  C_29
    7  A    between atoms: N_8  and  C_9
    8  A    between atoms: C_14  and  C_16
                            x       y       z     vdW  Elec       q    Type
                         _______ _______ _______ _____ _____    ______ ____

>  <TORSDO>
F 8

$$$$
