=
 OpenBabel10272400343D

 31 37  0  0  1  0  0  0  0  0999 V2000
  194.4070  175.2580  136.7320 C   0  0  0  0  0  0  0  0  0  0  0  0
  191.2820  176.9310  137.5110 C   0  0  1  0  0  3  0  0  0  0  0  0
  192.4560  176.1760  137.9140 N   0  0  2  0  0  0  0  0  0  0  0  0
  193.8730  173.9780  136.7790 O   0  0  0  0  0  0  0  0  0  0  0  0
  190.1380  176.0350  137.6820 C   0  0  1  0  0  0  0  0  0  0  0  0
  195.6380  175.4340  136.5390 O   0  0  0  0  0  0  0  0  0  0  0  0
  189.7220  176.5790  139.9020 C   0  0  1  0  0  3  0  0  0  0  0  0
  190.5810  174.7620  138.1090 O   0  0  0  0  0  0  0  0  0  0  0  0
  190.2660  177.2460  138.6610 C   0  0  2  0  0  0  0  0  0  0  0  0
  193.4820  176.4220  136.8850 C   0  0  0  0  0  2  0  0  0  0  0  0
  191.9820  174.7800  138.0350 C   0  0  1  0  0  3  0  0  0  0  0  0
  192.4690  173.8360  136.9280 C   0  0  0  0  0  2  0  0  0  0  0  0
  191.0280  177.0250  139.8410 O   0  0  0  0  0  0  0  0  0  0  0  0
  189.6320  176.8090  135.2540 C   0  0  0  0  0  2  0  0  0  0  0  0
  189.1550  176.0820  136.5000 C   0  0  0  0  0  0  0  0  0  0  0  0
  189.6060  175.2940  135.2780 C   0  0  0  0  0  2  0  0  0  0  0  0
  184.8860  175.8600  137.0700 C   0  0  0  0  0  0  0  0  0  0  0  0
  187.0390  174.7860  136.8390 C   0  0  0  0  0  3  0  0  0  0  0  0
  187.5940  178.8150  136.7290 Cl  0  0  0  0  0  0  0  0  0  0  0  0
  183.1530  175.7520  137.2900 Cl  0  0  0  0  0  0  0  0  0  0  0  0
  185.6570  174.6980  137.0130 C   0  0  0  0  0  3  0  0  0  0  0  0
  186.8850  177.2090  136.8080 C   0  0  0  0  0  0  0  0  0  0  0  0
  187.6660  176.0360  136.7190 C   0  0  0  0  0  0  0  0  0  0  0  0
  185.5000  177.1110  136.9750 C   0  0  0  0  0  3  0  0  0  0  0  0
  188.9840  177.4650  140.8040 N   0  0  0  0  0  2  0  0  0  0  0  0
  188.9450  177.4830  142.2390 C   0  0  0  0  0  0  0  0  0  0  0  0
  187.8650  177.0150  144.3620 C   0  0  0  0  0  3  0  0  0  0  0  0
  187.8730  176.9510  142.9660 C   0  0  0  0  0  3  0  0  0  0  0  0
  188.9310  177.6080  145.0420 C   0  0  0  0  0  3  0  0  0  0  0  0
  190.0040  178.1410  144.3230 C   0  0  0  0  0  3  0  0  0  0  0  0
  190.0080  178.0800  142.9270 C   0  0  0  0  0  3  0  0  0  0  0  0
  1  4  1  0  0  0  0
  1 10  1  0  0  0  0
  2  5  1  0  0  0  0
  2  3  1  0  0  0  0
  2  9  1  0  0  0  0
  3 11  1  0  0  0  0
  4 12  1  0  0  0  0
  5  8  1  0  0  0  0
  5  9  1  0  0  0  0
  6  1  2  0  0  0  0
  7 25  1  0  0  0  0
  9 13  1  0  0  0  0
  9  7  1  0  0  0  0
 10  3  1  0  0  0  0
 11  8  1  0  0  0  0
 12 11  1  0  0  0  0
 13  7  1  0  0  0  0
 14 16  1  0  0  0  0
 14 15  1  0  0  0  0
 15 23  1  0  0  0  0
 15  5  1  0  0  0  0
 16 15  1  0  0  0  0
 17 20  1  0  0  0  0
 18 21  2  0  0  0  0
 19 22  1  0  0  0  0
 21 17  1  0  0  0  0
 22 24  1  0  0  0  0
 23 22  2  0  0  0  0
 23 18  1  0  0  0  0
 24 17  2  0  0  0  0
 25 26  1  0  0  0  0
 26 31  2  0  0  0  0
 26 28  1  0  0  0  0
 27 29  1  0  0  0  0
 28 27  2  0  0  0  0
 30 29  2  0  0  0  0
 31 30  1  0  0  0  0
M  END
>  <MODEL>
1

>  <REMARK>
 VINA RESULT:      -7.3      0.000      0.000
  Name = 
  4 active torsions:
  status: ('A' for Active; 'I' for Inactive)
    1  A    between atoms: C_5  and  N_30
    2  A    between atoms: C_9  and  C_15
    3  A    between atoms: C_9  and  C_22
    4  A    between atoms: C_17  and  N_30
                            x       y       z     vdW  Elec       q    Type
                         _______ _______ _______ _____ _____    ______ ____

>  <TORSDO>
F 4

$$$$
=
 OpenBabel10272400343D

 31 37  0  0  1  0  0  0  0  0999 V2000
  192.5540  176.0090  147.9930 C   0  0  0  0  0  0  0  0  0  0  0  0
  190.1110  178.1110  146.3260 C   0  0  1  0  0  3  0  0  0  0  0  0
  190.4560  176.9400  147.1120 N   0  0  2  0  0  0  0  0  0  0  0  0
  192.5800  175.0420  146.9980 O   0  0  0  0  0  0  0  0  0  0  0  0
  189.6710  177.6160  145.0210 C   0  0  1  0  0  0  0  0  0  0  0  0
  193.2210  175.8610  149.0500 O   0  0  0  0  0  0  0  0  0  0  0  0
  187.4360  177.3480  145.5950 C   0  0  1  0  0  3  0  0  0  0  0  0
  189.7960  176.2080  144.9710 O   0  0  0  0  0  0  0  0  0  0  0  0
  188.5930  178.2460  145.9610 C   0  0  2  0  0  0  0  0  0  0  0  0
  191.7400  177.2420  147.7680 C   0  0  0  0  0  2  0  0  0  0  0  0
  190.4720  175.8250  146.1400 C   0  0  1  0  0  3  0  0  0  0  0  0
  191.8680  175.2890  145.7960 C   0  0  0  0  0  2  0  0  0  0  0  0
  187.9580  177.3600  146.8740 O   0  0  0  0  0  0  0  0  0  0  0  0
  190.6740  179.8480  144.1470 C   0  0  0  0  0  2  0  0  0  0  0  0
  190.2530  178.4190  143.8450 C   0  0  0  0  0  0  0  0  0  0  0  0
  191.7260  178.7680  143.9930 C   0  0  0  0  0  2  0  0  0  0  0  0
  189.0010  177.5820  139.8040 C   0  0  0  0  0  0  0  0  0  0  0  0
  188.6790  178.7080  141.9180 C   0  0  0  0  0  3  0  0  0  0  0  0
  192.1300  176.5620  142.1170 Cl  0  0  0  0  0  0  0  0  0  0  0  0
  188.4720  177.2450  138.1700 Cl  0  0  0  0  0  0  0  0  0  0  0  0
  188.2550  178.4370  140.6160 C   0  0  0  0  0  3  0  0  0  0  0  0
  190.6180  177.2850  141.5870 C   0  0  0  0  0  0  0  0  0  0  0  0
  189.8510  178.1260  142.4240 C   0  0  0  0  0  0  0  0  0  0  0  0
  190.1820  177.0140  140.2860 C   0  0  0  0  0  3  0  0  0  0  0  0
  186.1210  177.9900  145.6380 N   0  0  0  0  0  2  0  0  0  0  0  0
  185.2050  178.2690  144.5680 C   0  0  0  0  0  0  0  0  0  0  0  0
  183.0570  179.0250  143.7250 C   0  0  0  0  0  3  0  0  0  0  0  0
  183.9270  178.7950  144.7950 C   0  0  0  0  0  3  0  0  0  0  0  0
  183.4620  178.7360  142.4200 C   0  0  0  0  0  3  0  0  0  0  0  0
  184.7350  178.2120  142.1860 C   0  0  0  0  0  3  0  0  0  0  0  0
  185.6010  177.9770  143.2580 C   0  0  0  0  0  3  0  0  0  0  0  0
  1  6  2  0  0  0  0
  2  3  1  0  0  0  0
  3 10  1  0  0  0  0
  4  1  1  0  0  0  0
  5  9  1  0  0  0  0
  5  2  1  0  0  0  0
  7 25  1  0  0  0  0
  7  9  1  0  0  0  0
  7 13  1  0  0  0  0
  8  5  1  0  0  0  0
  8 11  1  0  0  0  0
  9  2  1  0  0  0  0
  9 13  1  0  0  0  0
 10  1  1  0  0  0  0
 11  3  1  0  0  0  0
 12 11  1  0  0  0  0
 12  4  1  0  0  0  0
 15 16  1  0  0  0  0
 15 14  1  0  0  0  0
 15  5  1  0  0  0  0
 16 14  1  0  0  0  0
 17 24  2  0  0  0  0
 17 21  1  0  0  0  0
 18 23  1  0  0  0  0
 20 17  1  0  0  0  0
 21 18  2  0  0  0  0
 22 19  1  0  0  0  0
 22 23  2  0  0  0  0
 23 15  1  0  0  0  0
 24 22  1  0  0  0  0
 26 28  1  0  0  0  0
 26 25  1  0  0  0  0
 27 28  2  0  0  0  0
 29 27  1  0  0  0  0
 30 29  2  0  0  0  0
 30 31  1  0  0  0  0
 31 26  2  0  0  0  0
M  END
>  <MODEL>
2

>  <REMARK>
 VINA RESULT:      -7.0      4.885      7.704
  Name = 
  4 active torsions:
  status: ('A' for Active; 'I' for Inactive)
    1  A    between atoms: C_5  and  N_30
    2  A    between atoms: C_9  and  C_15
    3  A    between atoms: C_9  and  C_22
    4  A    between atoms: C_17  and  N_30
                            x       y       z     vdW  Elec       q    Type
                         _______ _______ _______ _____ _____    ______ ____

>  <TORSDO>
F 4

$$$$
=
 OpenBabel10272400343D

 31 37  0  0  1  0  0  0  0  0999 V2000
  193.4770  175.3930  137.0680 C   0  0  0  0  0  0  0  0  0  0  0  0
  190.5990  177.4710  137.8230 C   0  0  1  0  0  3  0  0  0  0  0  0
  191.6680  176.5790  138.2370 N   0  0  2  0  0  0  0  0  0  0  0  0
  192.7820  174.1940  137.1430 O   0  0  0  0  0  0  0  0  0  0  0  0
  189.3500  176.7340  138.0150 C   0  0  1  0  0  0  0  0  0  0  0  0
  194.7190  175.4040  136.8690 O   0  0  0  0  0  0  0  0  0  0  0  0
  189.0200  177.3710  140.2240 C   0  0  1  0  0  3  0  0  0  0  0  0
  189.6270  175.4230  138.4660 O   0  0  0  0  0  0  0  0  0  0  0  0
  189.6380  177.9380  138.9680 C   0  0  2  0  0  0  0  0  0  0  0  0
  192.7110  176.6700  137.2010 C   0  0  0  0  0  2  0  0  0  0  0  0
  191.0180  175.2590  138.3880 C   0  0  1  0  0  3  0  0  0  0  0  0
  191.3720  174.2370  137.2990 C   0  0  0  0  0  2  0  0  0  0  0  0
  190.3720  177.6430  140.1510 O   0  0  0  0  0  0  0  0  0  0  0  0
  188.7640  177.8870  135.7610 C   0  0  0  0  0  2  0  0  0  0  0  0
  188.3750  176.8840  136.8350 C   0  0  0  0  0  0  0  0  0  0  0  0
  188.9260  176.4020  135.5010 C   0  0  0  0  0  2  0  0  0  0  0  0
  184.1490  176.2050  137.3710 C   0  0  0  0  0  0  0  0  0  0  0  0
  186.0310  177.7070  137.1580 C   0  0  0  0  0  3  0  0  0  0  0  0
  187.3790  173.8910  136.7470 Cl  0  0  0  0  0  0  0  0  0  0  0  0
  182.4340  175.9470  137.6020 Cl  0  0  0  0  0  0  0  0  0  0  0  0
  184.6630  177.5020  137.3440 C   0  0  0  0  0  3  0  0  0  0  0  0
  186.3720  175.3090  136.9980 C   0  0  0  0  0  0  0  0  0  0  0  0
  186.9010  176.6180  136.9990 C   0  0  0  0  0  0  0  0  0  0  0  0
  185.0010  175.1130  137.1930 C   0  0  0  0  0  3  0  0  0  0  0  0
  188.4080  178.3630  141.1100 N   0  0  0  0  0  2  0  0  0  0  0  0
  187.1040  178.3700  141.7130 C   0  0  0  0  0  0  0  0  0  0  0  0
  185.5900  177.9180  143.5560 C   0  0  0  0  0  3  0  0  0  0  0  0
  186.8800  177.9190  143.0200 C   0  0  0  0  0  3  0  0  0  0  0  0
  184.5140  178.3720  142.7900 C   0  0  0  0  0  3  0  0  0  0  0  0
  184.7290  178.8230  141.4850 C   0  0  0  0  0  3  0  0  0  0  0  0
  186.0200  178.8180  140.9500 C   0  0  0  0  0  3  0  0  0  0  0  0
  1  4  1  0  0  0  0
  1 10  1  0  0  0  0
  2  5  1  0  0  0  0
  2  3  1  0  0  0  0
  2  9  1  0  0  0  0
  3 11  1  0  0  0  0
  4 12  1  0  0  0  0
  5  8  1  0  0  0  0
  5  9  1  0  0  0  0
  6  1  2  0  0  0  0
  7 25  1  0  0  0  0
  9 13  1  0  0  0  0
  9  7  1  0  0  0  0
 10  3  1  0  0  0  0
 11  8  1  0  0  0  0
 12 11  1  0  0  0  0
 13  7  1  0  0  0  0
 14 15  1  0  0  0  0
 15 23  1  0  0  0  0
 15  5  1  0  0  0  0
 16 14  1  0  0  0  0
 16 15  1  0  0  0  0
 17 20  1  0  0  0  0
 18 21  2  0  0  0  0
 19 22  1  0  0  0  0
 21 17  1  0  0  0  0
 22 23  2  0  0  0  0
 22 24  1  0  0  0  0
 23 18  1  0  0  0  0
 24 17  2  0  0  0  0
 25 26  1  0  0  0  0
 26 28  1  0  0  0  0
 28 27  2  0  0  0  0
 29 27  1  0  0  0  0
 30 29  2  0  0  0  0
 31 30  1  0  0  0  0
 31 26  2  0  0  0  0
M  END
>  <MODEL>
3

>  <REMARK>
 VINA RESULT:      -6.9      1.781      2.337
  Name = 
  4 active torsions:
  status: ('A' for Active; 'I' for Inactive)
    1  A    between atoms: C_5  and  N_30
    2  A    between atoms: C_9  and  C_15
    3  A    between atoms: C_9  and  C_22
    4  A    between atoms: C_17  and  N_30
                            x       y       z     vdW  Elec       q    Type
                         _______ _______ _______ _____ _____    ______ ____

>  <TORSDO>
F 4

$$$$
=
 OpenBabel10272400343D

 31 37  0  0  1  0  0  0  0  0999 V2000
  192.7540  176.3120  138.6060 C   0  0  0  0  0  0  0  0  0  0  0  0
  189.5870  176.4270  140.3750 C   0  0  1  0  0  3  0  0  0  0  0  0
  190.5460  176.9970  139.4450 N   0  0  2  0  0  0  0  0  0  0  0  0
  193.3870  177.2270  139.4350 O   0  0  0  0  0  0  0  0  0  0  0  0
  189.5740  177.3070  141.5440 C   0  0  1  0  0  0  0  0  0  0  0  0
  193.3430  175.8430  137.5990 O   0  0  0  0  0  0  0  0  0  0  0  0
  187.9390  178.7540  140.7500 C   0  0  1  0  0  3  0  0  0  0  0  0
  190.5250  178.3400  141.3810 O   0  0  0  0  0  0  0  0  0  0  0  0
  188.3080  177.2940  140.6290 C   0  0  2  0  0  0  0  0  0  0  0  0
  191.3670  175.8760  138.9550 C   0  0  0  0  0  2  0  0  0  0  0  0
  191.2600  178.0290  140.2270 C   0  0  1  0  0  3  0  0  0  0  0  0
  192.7060  177.6720  140.5970 C   0  0  0  0  0  2  0  0  0  0  0  0
  188.3100  178.2070  139.5380 O   0  0  0  0  0  0  0  0  0  0  0  0
  189.8750  175.0480  142.7930 C   0  0  0  0  0  2  0  0  0  0  0  0
  189.5870  176.5380  142.8760 C   0  0  0  0  0  0  0  0  0  0  0  0
  190.9530  175.9990  143.2750 C   0  0  0  0  0  2  0  0  0  0  0  0
  187.1440  177.8630  146.1740 C   0  0  0  0  0  0  0  0  0  0  0  0
  187.3950  176.6850  144.0780 C   0  0  0  0  0  3  0  0  0  0  0  0
  191.0380  178.1070  145.1980 Cl  0  0  0  0  0  0  0  0  0  0  0  0
  186.1360  178.4030  147.4990 Cl  0  0  0  0  0  0  0  0  0  0  0  0
  186.5890  177.1170  145.1330 C   0  0  0  0  0  3  0  0  0  0  0  0
  189.3240  177.7250  145.1210 C   0  0  0  0  0  0  0  0  0  0  0  0
  188.7630  176.9960  144.0510 C   0  0  0  0  0  0  0  0  0  0  0  0
  188.5090  178.1610  146.1700 C   0  0  0  0  0  3  0  0  0  0  0  0
  186.5030  179.0320  140.7000 N   0  0  0  0  0  2  0  0  0  0  0  0
  185.5420  179.0740  141.7660 C   0  0  0  0  0  0  0  0  0  0  0  0
  184.7810  179.8390  143.9410 C   0  0  0  0  0  3  0  0  0  0  0  0
  185.7310  179.8510  142.9160 C   0  0  0  0  0  3  0  0  0  0  0  0
  183.6320  179.0540  143.8220 C   0  0  0  0  0  3  0  0  0  0  0  0
  183.4370  178.2760  142.6780 C   0  0  0  0  0  3  0  0  0  0  0  0
  184.3910  178.2860  141.6560 C   0  0  0  0  0  3  0  0  0  0  0  0
  1 10  1  0  0  0  0
  1  4  1  0  0  0  0
  2  9  1  0  0  0  0
  2  5  1  0  0  0  0
  3 11  1  0  0  0  0
  3  2  1  0  0  0  0
  4 12  1  0  0  0  0
  5 15  1  0  0  0  0
  6  1  2  0  0  0  0
  8  5  1  0  0  0  0
  9  7  1  0  0  0  0
  9  5  1  0  0  0  0
 10  3  1  0  0  0  0
 11 12  1  0  0  0  0
 11  8  1  0  0  0  0
 13  9  1  0  0  0  0
 13  7  1  0  0  0  0
 14 15  1  0  0  0  0
 14 16  1  0  0  0  0
 15 16  1  0  0  0  0
 15 23  1  0  0  0  0
 17 20  1  0  0  0  0
 18 21  1  0  0  0  0
 21 17  2  0  0  0  0
 22 19  1  0  0  0  0
 22 24  2  0  0  0  0
 23 18  2  0  0  0  0
 23 22  1  0  0  0  0
 24 17  1  0  0  0  0
 25  7  1  0  0  0  0
 25 26  1  0  0  0  0
 26 28  1  0  0  0  0
 28 27  2  0  0  0  0
 29 27  1  0  0  0  0
 30 29  2  0  0  0  0
 31 26  2  0  0  0  0
 31 30  1  0  0  0  0
M  END
>  <MODEL>
4

>  <REMARK>
 VINA RESULT:      -6.9      3.828      6.094
  Name = 
  4 active torsions:
  status: ('A' for Active; 'I' for Inactive)
    1  A    between atoms: C_5  and  N_30
    2  A    between atoms: C_9  and  C_15
    3  A    between atoms: C_9  and  C_22
    4  A    between atoms: C_17  and  N_30
                            x       y       z     vdW  Elec       q    Type
                         _______ _______ _______ _____ _____    ______ ____

>  <TORSDO>
F 4

$$$$
=
 OpenBabel10272400343D

 31 37  0  0  1  0  0  0  0  0999 V2000
  188.1810  177.7670  137.3990 C   0  0  0  0  0  0  0  0  0  0  0  0
  188.6650  176.6180  140.8060 C   0  0  1  0  0  3  0  0  0  0  0  0
  187.9420  177.3980  139.8180 N   0  0  2  0  0  0  0  0  0  0  0  0
  188.7410  179.0190  137.6140 O   0  0  0  0  0  0  0  0  0  0  0  0
  189.3290  177.5810  141.6850 C   0  0  1  0  0  0  0  0  0  0  0  0
  187.6790  177.4710  136.2840 O   0  0  0  0  0  0  0  0  0  0  0  0
  187.5620  177.8210  143.1740 C   0  0  1  0  0  3  0  0  0  0  0  0
  189.0850  178.8980  141.2310 O   0  0  0  0  0  0  0  0  0  0  0  0
  188.1420  176.7540  142.2770 C   0  0  2  0  0  0  0  0  0  0  0  0
  188.2150  176.7710  138.5120 C   0  0  0  0  0  2  0  0  0  0  0  0
  188.4410  178.7790  139.9900 C   0  0  1  0  0  3  0  0  0  0  0  0
  189.3570  179.2790  138.8650 C   0  0  0  0  0  2  0  0  0  0  0  0
  186.8430  177.3100  142.1110 O   0  0  0  0  0  0  0  0  0  0  0  0
  191.5710  176.5380  140.8850 C   0  0  0  0  0  2  0  0  0  0  0  0
  190.7850  177.2010  142.0040 C   0  0  0  0  0  0  0  0  0  0  0  0
  191.8240  177.9940  141.2240 C   0  0  0  0  0  2  0  0  0  0  0  0
  191.9820  176.1720  146.0180 C   0  0  0  0  0  0  0  0  0  0  0  0
  191.5960  175.5590  143.7120 C   0  0  0  0  0  3  0  0  0  0  0  0
  190.8570  179.5380  144.1250 Cl  0  0  0  0  0  0  0  0  0  0  0  0
  192.4590  175.7350  147.6440 Cl  0  0  0  0  0  0  0  0  0  0  0  0
  191.9750  175.2080  145.0090 C   0  0  0  0  0  3  0  0  0  0  0  0
  191.2560  177.8530  144.4270 C   0  0  0  0  0  0  0  0  0  0  0  0
  191.2180  176.8760  143.4100 C   0  0  0  0  0  0  0  0  0  0  0  0
  191.6290  177.4920  145.7260 C   0  0  0  0  0  3  0  0  0  0  0  0
  186.9560  177.3230  144.4100 N   0  0  0  0  0  2  0  0  0  0  0  0
  187.2170  177.6960  145.7720 C   0  0  0  0  0  0  0  0  0  0  0  0
  186.6710  178.8960  147.8110 C   0  0  0  0  0  3  0  0  0  0  0  0
  186.3620  178.5360  146.4960 C   0  0  0  0  0  3  0  0  0  0  0  0
  187.8360  178.4140  148.4120 C   0  0  0  0  0  3  0  0  0  0  0  0
  188.6940  177.5760  147.6960 C   0  0  0  0  0  3  0  0  0  0  0  0
  188.3850  177.2220  146.3800 C   0  0  0  0  0  3  0  0  0  0  0  0
  1  4  1  0  0  0  0
  1 10  1  0  0  0  0
  2  5  1  0  0  0  0
  2  9  1  0  0  0  0
  3 11  1  0  0  0  0
  3  2  1  0  0  0  0
  4 12  1  0  0  0  0
  5 15  1  0  0  0  0
  5  9  1  0  0  0  0
  6  1  2  0  0  0  0
  7 25  1  0  0  0  0
  8  5  1  0  0  0  0
  9  7  1  0  0  0  0
 10  3  1  0  0  0  0
 11  8  1  0  0  0  0
 12 11  1  0  0  0  0
 13  9  1  0  0  0  0
 13  7  1  0  0  0  0
 14 16  1  0  0  0  0
 14 15  1  0  0  0  0
 15 23  1  0  0  0  0
 16 15  1  0  0  0  0
 17 20  1  0  0  0  0
 18 21  1  0  0  0  0
 19 22  1  0  0  0  0
 21 17  2  0  0  0  0
 22 24  2  0  0  0  0
 23 18  2  0  0  0  0
 23 22  1  0  0  0  0
 24 17  1  0  0  0  0
 25 26  1  0  0  0  0
 26 31  2  0  0  0  0
 26 28  1  0  0  0  0
 27 29  1  0  0  0  0
 28 27  2  0  0  0  0
 30 29  2  0  0  0  0
 31 30  1  0  0  0  0
M  END
>  <MODEL>
5

>  <REMARK>
 VINA RESULT:      -6.7      4.178      6.861
  Name = 
  4 active torsions:
  status: ('A' for Active; 'I' for Inactive)
    1  A    between atoms: C_5  and  N_30
    2  A    between atoms: C_9  and  C_15
    3  A    between atoms: C_9  and  C_22
    4  A    between atoms: C_17  and  N_30
                            x       y       z     vdW  Elec       q    Type
                         _______ _______ _______ _____ _____    ______ ____

>  <TORSDO>
F 4

$$$$
=
 OpenBabel10272400343D

 31 37  0  0  1  0  0  0  0  0999 V2000
  191.8480  175.2230  144.4460 C   0  0  0  0  0  0  0  0  0  0  0  0
  188.6980  176.3070  143.0080 C   0  0  1  0  0  3  0  0  0  0  0  0
  190.1500  176.2960  143.0280 N   0  0  2  0  0  0  0  0  0  0  0  0
  192.0950  176.4180  145.1080 O   0  0  0  0  0  0  0  0  0  0  0  0
  188.2920  177.6620  143.3830 C   0  0  1  0  0  0  0  0  0  0  0  0
  192.6900  174.2890  144.4710 O   0  0  0  0  0  0  0  0  0  0  0  0
  188.3250  178.5380  141.2310 C   0  0  1  0  0  3  0  0  0  0  0  0
  189.4320  178.4420  143.6850 O   0  0  0  0  0  0  0  0  0  0  0  0
  188.0530  177.2140  141.9050 C   0  0  2  0  0  0  0  0  0  0  0  0
  190.5460  175.0620  143.7290 C   0  0  0  0  0  2  0  0  0  0  0  0
  190.5270  177.5650  143.6870 C   0  0  1  0  0  3  0  0  0  0  0  0
  191.0840  177.4130  145.1090 C   0  0  0  0  0  2  0  0  0  0  0  0
  189.1260  177.4380  140.9980 O   0  0  0  0  0  0  0  0  0  0  0  0
  187.2500  176.7440  145.5790 C   0  0  0  0  0  2  0  0  0  0  0  0
  187.1310  177.6860  144.3930 C   0  0  0  0  0  0  0  0  0  0  0  0
  187.5060  178.2260  145.7650 C   0  0  0  0  0  2  0  0  0  0  0  0
  183.1710  178.7910  143.0920 C   0  0  0  0  0  0  0  0  0  0  0  0
  185.4150  178.0380  142.6030 C   0  0  0  0  0  3  0  0  0  0  0  0
  185.0340  178.4130  146.6360 Cl  0  0  0  0  0  0  0  0  0  0  0  0
  181.5720  179.2470  142.5460 Cl  0  0  0  0  0  0  0  0  0  0  0  0
  184.1410  178.4040  142.1660 C   0  0  0  0  0  3  0  0  0  0  0  0
  184.7400  178.4200  144.9030 C   0  0  0  0  0  0  0  0  0  0  0  0
  185.7340  178.0560  143.9690 C   0  0  0  0  0  0  0  0  0  0  0  0
  183.4690  178.7930  144.4570 C   0  0  0  0  0  3  0  0  0  0  0  0
  187.5360  178.7870  140.0230 N   0  0  0  0  0  2  0  0  0  0  0  0
  187.8030  178.4110  138.6640 C   0  0  0  0  0  0  0  0  0  0  0  0
  189.1850  178.4150  136.6670 C   0  0  0  0  0  3  0  0  0  0  0  0
  188.9800  178.7800  138.0010 C   0  0  0  0  0  3  0  0  0  0  0  0
  188.2150  177.6740  135.9880 C   0  0  0  0  0  3  0  0  0  0  0  0
  187.0390  177.3020  136.6430 C   0  0  0  0  0  3  0  0  0  0  0  0
  186.8340  177.6730  137.9750 C   0  0  0  0  0  3  0  0  0  0  0  0
  1  6  2  0  0  0  0
  1  4  1  0  0  0  0
  2  3  1  0  0  0  0
  2  5  1  0  0  0  0
  3 11  1  0  0  0  0
  3 10  1  0  0  0  0
  4 12  1  0  0  0  0
  5  8  1  0  0  0  0
  5 15  1  0  0  0  0
  7  9  1  0  0  0  0
  8 11  1  0  0  0  0
  9  2  1  0  0  0  0
  9  5  1  0  0  0  0
 10  1  1  0  0  0  0
 11 12  1  0  0  0  0
 13  7  1  0  0  0  0
 13  9  1  0  0  0  0
 14 16  1  0  0  0  0
 15 14  1  0  0  0  0
 15 16  1  0  0  0  0
 17 24  1  0  0  0  0
 18 23  2  0  0  0  0
 20 17  1  0  0  0  0
 21 18  1  0  0  0  0
 21 17  2  0  0  0  0
 22 19  1  0  0  0  0
 23 15  1  0  0  0  0
 23 22  1  0  0  0  0
 24 22  2  0  0  0  0
 25  7  1  0  0  0  0
 26 25  1  0  0  0  0
 27 28  2  0  0  0  0
 28 26  1  0  0  0  0
 29 30  2  0  0  0  0
 29 27  1  0  0  0  0
 30 31  1  0  0  0  0
 31 26  2  0  0  0  0
M  END
>  <MODEL>
6

>  <REMARK>
 VINA RESULT:      -6.6      3.937      7.318
  Name = 
  4 active torsions:
  status: ('A' for Active; 'I' for Inactive)
    1  A    between atoms: C_5  and  N_30
    2  A    between atoms: C_9  and  C_15
    3  A    between atoms: C_9  and  C_22
    4  A    between atoms: C_17  and  N_30
                            x       y       z     vdW  Elec       q    Type
                         _______ _______ _______ _____ _____    ______ ____

>  <TORSDO>
F 4

$$$$
=
 OpenBabel10272400343D

 31 37  0  0  1  0  0  0  0  0999 V2000
  191.2770  177.5360  144.2640 C   0  0  0  0  0  0  0  0  0  0  0  0
  189.3420  178.6200  141.3930 C   0  0  1  0  0  3  0  0  0  0  0  0
  189.4330  178.2060  142.7810 N   0  0  2  0  0  0  0  0  0  0  0  0
  190.9280  176.1980  144.1460 O   0  0  0  0  0  0  0  0  0  0  0  0
  188.6450  177.5450  140.6870 C   0  0  1  0  0  0  0  0  0  0  0  0
  191.9870  177.9320  145.2250 O   0  0  0  0  0  0  0  0  0  0  0  0
  186.4980  178.3480  141.0650 C   0  0  1  0  0  3  0  0  0  0  0  0
  188.3710  176.4810  141.5770 O   0  0  0  0  0  0  0  0  0  0  0  0
  187.8900  178.9000  140.8750 C   0  0  2  0  0  0  0  0  0  0  0  0
  190.8150  178.4890  143.2100 C   0  0  0  0  0  2  0  0  0  0  0  0
  189.0370  176.7810  142.7750 C   0  0  1  0  0  3  0  0  0  0  0  0
  190.1860  175.7900  143.0070 C   0  0  0  0  0  2  0  0  0  0  0  0
  187.1370  179.0420  142.0730 O   0  0  0  0  0  0  0  0  0  0  0  0
  190.7170  177.6780  139.1250 C   0  0  0  0  0  2  0  0  0  0  0  0
  189.2940  177.1890  139.3390 C   0  0  0  0  0  0  0  0  0  0  0  0
  190.4620  176.2180  139.4430 C   0  0  0  0  0  2  0  0  0  0  0  0
  186.9440  176.5070  135.7870 C   0  0  0  0  0  0  0  0  0  0  0  0
  187.8400  175.7450  137.8990 C   0  0  0  0  0  3  0  0  0  0  0  0
  188.9860  179.6080  137.3360 Cl  0  0  0  0  0  0  0  0  0  0  0  0
  185.9970  176.2100  134.3470 Cl  0  0  0  0  0  0  0  0  0  0  0  0
  187.0860  175.5060  136.7490 C   0  0  0  0  0  3  0  0  0  0  0  0
  188.2920  178.0050  137.1380 C   0  0  0  0  0  0  0  0  0  0  0  0
  188.4630  176.9860  138.1000 C   0  0  0  0  0  0  0  0  0  0  0  0
  187.5410  177.7550  135.9850 C   0  0  0  0  0  3  0  0  0  0  0  0
  185.4230  179.1950  140.5450 N   0  0  0  0  0  2  0  0  0  0  0  0
  184.4540  178.9190  139.5220 C   0  0  0  0  0  0  0  0  0  0  0  0
  182.2590  179.1820  138.5180 C   0  0  0  0  0  3  0  0  0  0  0  0
  183.1810  179.5030  139.5190 C   0  0  0  0  0  3  0  0  0  0  0  0
  182.6060  178.2790  137.5100 C   0  0  0  0  0  3  0  0  0  0  0  0
  183.8740  177.6930  137.5070 C   0  0  0  0  0  3  0  0  0  0  0  0
  184.7920  178.0110  138.5120 C   0  0  0  0  0  3  0  0  0  0  0  0
  1  6  2  0  0  0  0
  2  3  1  0  0  0  0
  3 10  1  0  0  0  0
  4  1  1  0  0  0  0
  5  9  1  0  0  0  0
  5  2  1  0  0  0  0
  5  8  1  0  0  0  0
  7 13  1  0  0  0  0
  8 11  1  0  0  0  0
  9  7  1  0  0  0  0
  9  2  1  0  0  0  0
  9 13  1  0  0  0  0
 10  1  1  0  0  0  0
 11  3  1  0  0  0  0
 11 12  1  0  0  0  0
 12  4  1  0  0  0  0
 14 15  1  0  0  0  0
 14 16  1  0  0  0  0
 15 16  1  0  0  0  0
 15  5  1  0  0  0  0
 17 24  2  0  0  0  0
 17 21  1  0  0  0  0
 18 23  1  0  0  0  0
 20 17  1  0  0  0  0
 21 18  2  0  0  0  0
 22 19  1  0  0  0  0
 22 23  2  0  0  0  0
 23 15  1  0  0  0  0
 24 22  1  0  0  0  0
 25  7  1  0  0  0  0
 26 25  1  0  0  0  0
 27 28  2  0  0  0  0
 28 26  1  0  0  0  0
 29 27  1  0  0  0  0
 30 29  2  0  0  0  0
 30 31  1  0  0  0  0
 31 26  2  0  0  0  0
M  END
>  <MODEL>
7

>  <REMARK>
 VINA RESULT:      -6.6      3.338      5.635
  Name = 
  4 active torsions:
  status: ('A' for Active; 'I' for Inactive)
    1  A    between atoms: C_5  and  N_30
    2  A    between atoms: C_9  and  C_15
    3  A    between atoms: C_9  and  C_22
    4  A    between atoms: C_17  and  N_30
                            x       y       z     vdW  Elec       q    Type
                         _______ _______ _______ _____ _____    ______ ____

>  <TORSDO>
F 4

$$$$
=
 OpenBabel10272400343D

 31 37  0  0  1  0  0  0  0  0999 V2000
  191.0100  174.4340  135.2240 C   0  0  0  0  0  0  0  0  0  0  0  0
  190.4580  176.9890  137.7410 C   0  0  1  0  0  3  0  0  0  0  0  0
  190.7820  175.6250  137.3640 N   0  0  2  0  0  0  0  0  0  0  0  0
  189.7720  173.8300  135.3930 O   0  0  0  0  0  0  0  0  0  0  0  0
  189.1440  176.9370  138.3840 C   0  0  1  0  0  0  0  0  0  0  0  0
  191.8570  173.9510  134.4300 O   0  0  0  0  0  0  0  0  0  0  0  0
  189.9310  176.5330  140.5320 C   0  0  1  0  0  3  0  0  0  0  0  0
  188.6430  175.6150  138.3520 O   0  0  0  0  0  0  0  0  0  0  0  0
  190.3820  177.2540  139.2830 C   0  0  2  0  0  0  0  0  0  0  0  0
  191.3010  175.6870  135.9860 C   0  0  0  0  0  2  0  0  0  0  0  0
  189.5210  174.8740  137.5470 C   0  0  1  0  0  3  0  0  0  0  0  0
  188.8250  174.4540  136.2460 C   0  0  0  0  0  2  0  0  0  0  0  0
  191.0590  176.1340  139.8410 O   0  0  0  0  0  0  0  0  0  0  0  0
  188.8580  179.3790  137.5440 C   0  0  0  0  0  2  0  0  0  0  0  0
  188.2020  178.0620  137.9210 C   0  0  0  0  0  0  0  0  0  0  0  0
  188.3600  178.4480  136.4570 C   0  0  0  0  0  2  0  0  0  0  0  0
  184.0930  178.3040  139.2090 C   0  0  0  0  0  0  0  0  0  0  0  0
  185.7480  177.7400  137.5390 C   0  0  0  0  0  3  0  0  0  0  0  0
  187.6780  179.0550  140.8700 Cl  0  0  0  0  0  0  0  0  0  0  0  0
  182.4200  178.4070  139.7100 Cl  0  0  0  0  0  0  0  0  0  0  0  0
  184.4130  177.8240  137.9380 C   0  0  0  0  0  3  0  0  0  0  0  0
  186.4500  178.5940  139.7000 C   0  0  0  0  0  0  0  0  0  0  0  0
  186.7780  178.1370  138.4050 C   0  0  0  0  0  0  0  0  0  0  0  0
  185.1100  178.6820  140.0890 C   0  0  0  0  0  3  0  0  0  0  0  0
  190.3650  177.1480  141.7880 N   0  0  0  0  0  2  0  0  0  0  0  0
  189.6540  177.2980  143.0260 C   0  0  0  0  0  0  0  0  0  0  0  0
  189.4620  178.1130  145.3050 C   0  0  0  0  0  3  0  0  0  0  0  0
  190.1780  178.0170  144.1080 C   0  0  0  0  0  3  0  0  0  0  0  0
  188.2160  177.4950  145.4260 C   0  0  0  0  0  3  0  0  0  0  0  0
  187.6870  176.7770  144.3510 C   0  0  0  0  0  3  0  0  0  0  0  0
  188.4070  176.6780  143.1570 C   0  0  0  0  0  3  0  0  0  0  0  0
  1  4  1  0  0  0  0
  1 10  1  0  0  0  0
  2  5  1  0  0  0  0
  2  9  1  0  0  0  0
  3 11  1  0  0  0  0
  3  2  1  0  0  0  0
  4 12  1  0  0  0  0
  5  9  1  0  0  0  0
  6  1  2  0  0  0  0
  7 25  1  0  0  0  0
  8  5  1  0  0  0  0
  9 13  1  0  0  0  0
  9  7  1  0  0  0  0
 10  3  1  0  0  0  0
 11  8  1  0  0  0  0
 12 11  1  0  0  0  0
 13  7  1  0  0  0  0
 14 15  1  0  0  0  0
 15  5  1  0  0  0  0
 15 23  1  0  0  0  0
 16 14  1  0  0  0  0
 16 15  1  0  0  0  0
 17 20  1  0  0  0  0
 17 24  1  0  0  0  0
 18 21  1  0  0  0  0
 18 23  2  0  0  0  0
 21 17  2  0  0  0  0
 22 24  2  0  0  0  0
 22 19  1  0  0  0  0
 23 22  1  0  0  0  0
 25 26  1  0  0  0  0
 26 31  2  0  0  0  0
 26 28  1  0  0  0  0
 27 29  1  0  0  0  0
 28 27  2  0  0  0  0
 30 29  2  0  0  0  0
 31 30  1  0  0  0  0
M  END
>  <MODEL>
8

>  <REMARK>
 VINA RESULT:      -6.5      2.126      2.841
  Name = 
  4 active torsions:
  status: ('A' for Active; 'I' for Inactive)
    1  A    between atoms: C_5  and  N_30
    2  A    between atoms: C_9  and  C_15
    3  A    between atoms: C_9  and  C_22
    4  A    between atoms: C_17  and  N_30
                            x       y       z     vdW  Elec       q    Type
                         _______ _______ _______ _____ _____    ______ ____

>  <TORSDO>
F 4

$$$$
=
 OpenBabel10272400343D

 31 37  0  0  1  0  0  0  0  0999 V2000
  191.4180  173.4350  135.8310 C   0  0  0  0  0  0  0  0  0  0  0  0
  188.5940  175.1540  137.3270 C   0  0  1  0  0  3  0  0  0  0  0  0
  189.1580  174.2710  136.3210 N   0  0  2  0  0  0  0  0  0  0  0  0
  191.5490  174.3210  134.7710 O   0  0  0  0  0  0  0  0  0  0  0  0
  188.1770  176.3670  136.6230 C   0  0  1  0  0  0  0  0  0  0  0  0
  192.1490  172.4140  135.9090 O   0  0  0  0  0  0  0  0  0  0  0  0
  186.0430  175.6230  136.0840 C   0  0  1  0  0  3  0  0  0  0  0  0
  188.5220  176.2750  135.2550 O   0  0  0  0  0  0  0  0  0  0  0  0
  187.0580  175.4320  137.1850 C   0  0  2  0  0  0  0  0  0  0  0  0
  190.4080  173.7370  136.8900 C   0  0  0  0  0  2  0  0  0  0  0  0
  189.3050  175.1180  135.1180 C   0  0  1  0  0  3  0  0  0  0  0  0
  190.7500  175.4940  134.7650 C   0  0  0  0  0  2  0  0  0  0  0  0
  186.6160  174.3900  136.3240 O   0  0  0  0  0  0  0  0  0  0  0  0
  189.2770  178.7200  136.5430 C   0  0  0  0  0  2  0  0  0  0  0  0
  188.5660  177.6580  137.3640 C   0  0  0  0  0  0  0  0  0  0  0  0
  187.8150  178.8970  136.9010 C   0  0  0  0  0  2  0  0  0  0  0  0
  189.3150  177.7310  141.6110 C   0  0  0  0  0  0  0  0  0  0  0  0
  187.8250  178.0180  139.7290 C   0  0  0  0  0  3  0  0  0  0  0  0
  191.4360  176.7710  138.3320 Cl  0  0  0  0  0  0  0  0  0  0  0  0
  189.6040  177.7770  143.3360 Cl  0  0  0  0  0  0  0  0  0  0  0  0
  188.0550  178.0570  141.1050 C   0  0  0  0  0  3  0  0  0  0  0  0
  190.1130  177.2960  139.3630 C   0  0  0  0  0  0  0  0  0  0  0  0
  188.8500  177.6540  138.8430 C   0  0  0  0  0  0  0  0  0  0  0  0
  190.3380  177.3460  140.7420 C   0  0  0  0  0  3  0  0  0  0  0  0
  184.6460  175.5640  136.5180 N   0  0  0  0  0  2  0  0  0  0  0  0
  184.0190  176.1560  137.6660 C   0  0  0  0  0  0  0  0  0  0  0  0
  182.4930  176.0850  139.5530 C   0  0  0  0  0  3  0  0  0  0  0  0
  183.1010  175.4590  138.4620 C   0  0  0  0  0  3  0  0  0  0  0  0
  182.8030  177.4120  139.8610 C   0  0  0  0  0  3  0  0  0  0  0  0
  183.7180  178.1130  139.0720 C   0  0  0  0  0  3  0  0  0  0  0  0
  184.3210  177.4860  137.9770 C   0  0  0  0  0  3  0  0  0  0  0  0
  1  6  2  0  0  0  0
  1 10  1  0  0  0  0
  3 10  1  0  0  0  0
  3  2  1  0  0  0  0
  4  1  1  0  0  0  0
  5  9  1  0  0  0  0
  5  2  1  0  0  0  0
  5 15  1  0  0  0  0
  7 13  1  0  0  0  0
  7 25  1  0  0  0  0
  7  9  1  0  0  0  0
  8  5  1  0  0  0  0
  9  2  1  0  0  0  0
 11  8  1  0  0  0  0
 11  3  1  0  0  0  0
 12  4  1  0  0  0  0
 12 11  1  0  0  0  0
 13  9  1  0  0  0  0
 14 16  1  0  0  0  0
 14 15  1  0  0  0  0
 15 23  1  0  0  0  0
 16 15  1  0  0  0  0
 17 20  1  0  0  0  0
 18 21  2  0  0  0  0
 19 22  1  0  0  0  0
 21 17  1  0  0  0  0
 22 24  1  0  0  0  0
 23 22  2  0  0  0  0
 23 18  1  0  0  0  0
 24 17  2  0  0  0  0
 25 26  1  0  0  0  0
 26 31  2  0  0  0  0
 26 28  1  0  0  0  0
 27 29  1  0  0  0  0
 28 27  2  0  0  0  0
 30 29  2  0  0  0  0
 31 30  1  0  0  0  0
M  END
>  <MODEL>
9

>  <REMARK>
 VINA RESULT:      -6.2      3.114      5.341
  Name = 
  4 active torsions:
  status: ('A' for Active; 'I' for Inactive)
    1  A    between atoms: C_5  and  N_30
    2  A    between atoms: C_9  and  C_15
    3  A    between atoms: C_9  and  C_22
    4  A    between atoms: C_17  and  N_30
                            x       y       z     vdW  Elec       q    Type
                         _______ _______ _______ _____ _____    ______ ____

>  <TORSDO>
F 4

$$$$
