=
 OpenBabel10272400563D

 25 26  0  0  1  0  0  0  0  0999 V2000
  189.6910  177.6330  141.3880 C   0  0  1  0  0  3  0  0  0  0  0  0
  188.2170  177.2160  143.3910 C   0  0  0  0  0  2  0  0  0  0  0  0
  190.5740  178.0610  143.7170 C   0  0  0  0  0  2  0  0  0  0  0  0
  188.7420  178.2510  146.6790 O   0  0  0  0  0  0  0  0  0  0  0  0
  189.0890  177.6790  145.6590 C   0  0  0  0  0  0  0  0  0  0  0  0
  190.5130  177.7270  145.2100 C   0  0  0  0  0  2  0  0  0  0  0  0
  189.6660  177.1560  142.8600 C   0  0  0  0  0  0  0  0  0  0  0  0
  188.1090  176.8660  144.8760 C   0  0  0  0  0  2  0  0  0  0  0  0
  190.1850  175.7120  142.9290 C   0  0  0  0  0  2  0  0  0  0  0  0
  191.4720  175.6630  143.4720 O   0  0  0  0  0  1  0  0  0  0  0  0
  191.9990  177.6440  140.7800 O   0  0  0  0  0  0  0  0  0  0  0  0
  190.8670  177.1170  140.6080 C   0  0  0  0  0  0  0  0  0  0  0  0
  190.7020  176.0580  139.7130 O   0  0  0  0  0  0  0  0  0  0  0  0
  191.2970  176.0670  138.4250 C   0  0  0  0  0  1  0  0  0  0  0  0
  188.4490  177.3000  140.6980 N   0  0  0  0  0  2  0  0  0  0  0  0
  188.1890  178.3700  139.7480 C   0  0  0  0  0  2  0  0  0  0  0  0
  186.7010  178.4620  139.4700 C   0  0  0  0  0  2  0  0  0  0  0  0
  186.0350  179.1560  140.5610 N   0  0  0  0  0  2  0  0  0  0  0  0
  184.6230  178.8160  140.4860 C   0  0  0  0  0  2  0  0  0  0  0  0
  184.1210  178.3580  141.8450 C   0  0  0  0  0  2  0  0  0  0  0  0
  184.8210  179.0740  142.8970 N   0  0  0  0  0  2  0  0  0  0  0  0
  183.4700  179.0050  144.9030 C   0  0  0  0  0  2  0  0  0  0  0  0
  184.9090  179.2380  145.3070 C   0  0  1  0  0  3  0  0  0  0  0  0
  185.2370  178.3730  146.5050 C   0  0  0  0  0  1  0  0  0  0  0  0
  184.5880  178.3410  144.1280 C   0  0  2  0  0  3  0  0  0  0  0  0
  1 12  1  6  0  0  0
  1  7  1  0  0  0  0
  2  8  1  0  0  0  0
  3  6  1  0  0  0  0
  5  4  2  0  0  0  0
  6  5  1  0  0  0  0
  7  9  1  0  0  0  0
  7  2  1  0  0  0  0
  7  3  1  0  0  0  0
  8  5  1  0  0  0  0
  9 10  1  0  0  0  0
 12 11  2  0  0  0  0
 13 12  1  0  0  0  0
 14 13  1  0  0  0  0
 15  1  1  0  0  0  0
 16 15  1  0  0  0  0
 17 16  1  0  0  0  0
 17 18  1  0  0  0  0
 19 18  1  0  0  0  0
 19 20  1  0  0  0  0
 20 21  1  0  0  0  0
 22 23  1  0  0  0  0
 23 24  1  1  0  0  0
 25 21  1  6  0  0  0
 25 22  1  0  0  0  0
 25 23  1  0  0  0  0
M  END
>  <MODEL>
1

>  <REMARK>
 VINA RESULT:      -6.3      0.000      0.000
  Name = 
  12 active torsions:
  status: ('A' for Active; 'I' for Inactive)
    1  A    between atoms: C_1  and  N_3
    2  A    between atoms: C_1  and  C_18
    3  A    between atoms: C_1  and  C_24
    4  A    between atoms: N_3  and  C_16
    5  A    between atoms: C_6  and  C_15
    6  A    between atoms: C_6  and  N_21
    7  A    between atoms: O_13  and  C_24
    8  A    between atoms: C_15  and  N_20
    9  A    between atoms: C_16  and  C_23
   10  A    between atoms: C_17  and  C_18
   11  A    between atoms: N_20  and  C_23
   12  A    between atoms: N_21  and  C_25
                            x       y       z     vdW  Elec       q    Type
                         _______ _______ _______ _____ _____    ______ ____

>  <TORSDO>
F 12

$$$$
=
 OpenBabel10272400563D

 25 26  0  0  1  0  0  0  0  0999 V2000
  189.8940  177.6120  141.6150 C   0  0  1  0  0  3  0  0  0  0  0  0
  189.6220  177.9360  144.1000 C   0  0  0  0  0  2  0  0  0  0  0  0
  191.4710  176.4590  143.2190 C   0  0  0  0  0  2  0  0  0  0  0  0
  191.8850  177.1080  146.6210 O   0  0  0  0  0  0  0  0  0  0  0  0
  191.2000  176.8290  145.6510 C   0  0  0  0  0  0  0  0  0  0  0  0
  191.7040  175.8770  144.6160 C   0  0  0  0  0  2  0  0  0  0  0  0
  190.0180  176.9290  142.9980 C   0  0  0  0  0  0  0  0  0  0  0  0
  189.8190  177.3840  145.5140 C   0  0  0  0  0  2  0  0  0  0  0  0
  189.0820  175.7130  143.0450 C   0  0  0  0  0  2  0  0  0  0  0  0
  187.8000  176.0790  143.4680 O   0  0  0  0  0  1  0  0  0  0  0  0
  190.6030  176.1910  139.8320 O   0  0  0  0  0  0  0  0  0  0  0  0
  190.9070  177.1320  140.6150 C   0  0  0  0  0  0  0  0  0  0  0  0
  192.1660  177.7320  140.5510 O   0  0  0  0  0  0  0  0  0  0  0  0
  193.1840  177.2490  139.6890 C   0  0  0  0  0  1  0  0  0  0  0  0
  188.5480  177.4720  141.0700 N   0  0  0  0  0  2  0  0  0  0  0  0
  187.9070  178.7730  141.1760 C   0  0  0  0  0  2  0  0  0  0  0  0
  186.4160  178.6340  140.9370 C   0  0  0  0  0  2  0  0  0  0  0  0
  185.6870  179.5070  141.8430 N   0  0  0  0  0  2  0  0  0  0  0  0
  184.5190  178.7700  142.3000 C   0  0  0  0  0  2  0  0  0  0  0  0
  183.8670  179.4910  143.4680 C   0  0  0  0  0  2  0  0  0  0  0  0
  183.9870  178.6870  144.6730 N   0  0  0  0  0  2  0  0  0  0  0  0
  186.1000  177.8540  145.5060 C   0  0  0  0  0  2  0  0  0  0  0  0
  185.3160  178.4130  146.6720 C   0  0  1  0  0  3  0  0  0  0  0  0
  186.2420  179.2220  147.5550 C   0  0  0  0  0  1  0  0  0  0  0  0
  185.2300  179.0780  145.3130 C   0  0  2  0  0  3  0  0  0  0  0  0
  1 12  1  6  0  0  0
  1  7  1  0  0  0  0
  2  8  1  0  0  0  0
  3  6  1  0  0  0  0
  5  4  2  0  0  0  0
  6  5  1  0  0  0  0
  7  9  1  0  0  0  0
  7  3  1  0  0  0  0
  7  2  1  0  0  0  0
  8  5  1  0  0  0  0
  9 10  1  0  0  0  0
 11 12  2  0  0  0  0
 13 12  1  0  0  0  0
 14 13  1  0  0  0  0
 15 16  1  0  0  0  0
 15  1  1  0  0  0  0
 17 16  1  0  0  0  0
 17 18  1  0  0  0  0
 18 19  1  0  0  0  0
 19 20  1  0  0  0  0
 20 21  1  0  0  0  0
 22 23  1  0  0  0  0
 23 24  1  1  0  0  0
 25 21  1  6  0  0  0
 25 22  1  0  0  0  0
 25 23  1  0  0  0  0
M  END
>  <MODEL>
2

>  <REMARK>
 VINA RESULT:      -6.2      1.572      1.985
  Name = 
  12 active torsions:
  status: ('A' for Active; 'I' for Inactive)
    1  A    between atoms: C_1  and  N_3
    2  A    between atoms: C_1  and  C_18
    3  A    between atoms: C_1  and  C_24
    4  A    between atoms: N_3  and  C_16
    5  A    between atoms: C_6  and  C_15
    6  A    between atoms: C_6  and  N_21
    7  A    between atoms: O_13  and  C_24
    8  A    between atoms: C_15  and  N_20
    9  A    between atoms: C_16  and  C_23
   10  A    between atoms: C_17  and  C_18
   11  A    between atoms: N_20  and  C_23
   12  A    between atoms: N_21  and  C_25
                            x       y       z     vdW  Elec       q    Type
                         _______ _______ _______ _____ _____    ______ ____

>  <TORSDO>
F 12

$$$$
=
 OpenBabel10272400563D

 25 26  0  0  1  0  0  0  0  0999 V2000
  190.1360  176.8530  145.0780 C   0  0  1  0  0  3  0  0  0  0  0  0
  188.6310  177.6190  143.2060 C   0  0  0  0  0  2  0  0  0  0  0  0
  190.9690  176.8160  142.6910 C   0  0  0  0  0  2  0  0  0  0  0  0
  189.0790  177.1510  139.7790 O   0  0  0  0  0  0  0  0  0  0  0  0
  189.4530  177.5370  140.8740 C   0  0  0  0  0  0  0  0  0  0  0  0
  190.8850  177.3990  141.2790 C   0  0  0  0  0  2  0  0  0  0  0  0
  190.0910  177.5730  143.7090 C   0  0  0  0  0  0  0  0  0  0  0  0
  188.5000  178.2170  141.8030 C   0  0  0  0  0  2  0  0  0  0  0  0
  190.6290  179.0020  143.8740 C   0  0  0  0  0  2  0  0  0  0  0  0
  192.0160  179.0020  144.0480 O   0  0  0  0  0  1  0  0  0  0  0  0
  192.0300  175.4730  144.6240 O   0  0  0  0  0  0  0  0  0  0  0  0
  191.4870  176.2890  145.4160 C   0  0  0  0  0  0  0  0  0  0  0  0
  192.1330  176.6790  146.5910 O   0  0  0  0  0  0  0  0  0  0  0  0
  192.3590  175.7710  147.6580 C   0  0  0  0  0  1  0  0  0  0  0  0
  189.6740  177.7220  146.1540 N   0  0  0  0  0  2  0  0  0  0  0  0
  188.9100  176.8950  147.0730 C   0  0  0  0  0  2  0  0  0  0  0  0
  187.6680  177.6370  147.5260 C   0  0  0  0  0  2  0  0  0  0  0  0
  186.6690  177.6190  146.4700 N   0  0  0  0  0  2  0  0  0  0  0  0
  185.6470  178.5900  146.8300 C   0  0  0  0  0  2  0  0  0  0  0  0
  185.0770  179.2400  145.5800 C   0  0  0  0  0  2  0  0  0  0  0  0
  185.3720  178.4190  144.4180 N   0  0  0  0  0  2  0  0  0  0  0  0
  183.5360  178.7650  142.8820 C   0  0  0  0  0  2  0  0  0  0  0  0
  184.7110  178.2160  142.1030 C   0  0  1  0  0  3  0  0  0  0  0  0
  184.8440  178.9760  140.8000 C   0  0  0  0  0  1  0  0  0  0  0  0
  184.9450  179.1740  143.2540 C   0  0  2  0  0  3  0  0  0  0  0  0
  1 12  1  1  0  0  0
  1 15  1  0  0  0  0
  2  7  1  0  0  0  0
  3  7  1  0  0  0  0
  4  5  2  0  0  0  0
  5  6  1  0  0  0  0
  5  8  1  0  0  0  0
  6  3  1  0  0  0  0
  7  9  1  0  0  0  0
  7  1  1  0  0  0  0
  8  2  1  0  0  0  0
  9 10  1  0  0  0  0
 11 12  2  0  0  0  0
 12 13  1  0  0  0  0
 13 14  1  0  0  0  0
 15 16  1  0  0  0  0
 16 17  1  0  0  0  0
 18 19  1  0  0  0  0
 18 17  1  0  0  0  0
 20 19  1  0  0  0  0
 21 20  1  0  0  0  0
 22 25  1  0  0  0  0
 23 24  1  6  0  0  0
 23 22  1  0  0  0  0
 23 25  1  0  0  0  0
 25 21  1  1  0  0  0
M  END
>  <MODEL>
3

>  <REMARK>
 VINA RESULT:      -6.2      2.165      4.994
  Name = 
  12 active torsions:
  status: ('A' for Active; 'I' for Inactive)
    1  A    between atoms: C_1  and  N_3
    2  A    between atoms: C_1  and  C_18
    3  A    between atoms: C_1  and  C_24
    4  A    between atoms: N_3  and  C_16
    5  A    between atoms: C_6  and  C_15
    6  A    between atoms: C_6  and  N_21
    7  A    between atoms: O_13  and  C_24
    8  A    between atoms: C_15  and  N_20
    9  A    between atoms: C_16  and  C_23
   10  A    between atoms: C_17  and  C_18
   11  A    between atoms: N_20  and  C_23
   12  A    between atoms: N_21  and  C_25
                            x       y       z     vdW  Elec       q    Type
                         _______ _______ _______ _____ _____    ______ ____

>  <TORSDO>
F 12

$$$$
=
 OpenBabel10272400563D

 25 26  0  0  1  0  0  0  0  0999 V2000
  188.7460  178.2840  141.1520 C   0  0  1  0  0  3  0  0  0  0  0  0
  189.3720  176.2950  142.5700 C   0  0  0  0  0  2  0  0  0  0  0  0
  190.7080  178.4310  142.7400 C   0  0  0  0  0  2  0  0  0  0  0  0
  191.5280  176.2200  145.3100 O   0  0  0  0  0  0  0  0  0  0  0  0
  191.2720  176.4740  144.1450 C   0  0  0  0  0  0  0  0  0  0  0  0
  191.8210  177.7030  143.4970 C   0  0  0  0  0  2  0  0  0  0  0  0
  189.9240  177.5060  141.7860 C   0  0  0  0  0  0  0  0  0  0  0  0
  190.4580  175.5250  143.3250 C   0  0  0  0  0  2  0  0  0  0  0  0
  190.8620  177.0190  140.6720 C   0  0  0  0  0  2  0  0  0  0  0  0
  191.9990  177.8280  140.5790 O   0  0  0  0  0  1  0  0  0  0  0  0
  188.2200  177.0100  139.2030 O   0  0  0  0  0  0  0  0  0  0  0  0
  188.6390  178.1060  139.6650 C   0  0  0  0  0  0  0  0  0  0  0  0
  188.9920  179.1510  138.8080 O   0  0  0  0  0  0  0  0  0  0  0  0
  189.0200  178.9880  137.3990 C   0  0  0  0  0  1  0  0  0  0  0  0
  187.4780  177.9430  141.7890 N   0  0  0  0  0  2  0  0  0  0  0  0
  186.4680  178.8260  141.2280 C   0  0  0  0  0  2  0  0  0  0  0  0
  185.4830  179.2350  142.3060 C   0  0  0  0  0  2  0  0  0  0  0  0
  185.5740  178.3190  143.4320 N   0  0  0  0  0  2  0  0  0  0  0  0
  184.4770  178.6370  144.3320 C   0  0  0  0  0  2  0  0  0  0  0  0
  184.9740  178.6910  145.7670 C   0  0  0  0  0  2  0  0  0  0  0  0
  185.9820  177.6670  145.9790 N   0  0  0  0  0  2  0  0  0  0  0  0
  188.4000  177.7320  146.0180 C   0  0  0  0  0  2  0  0  0  0  0  0
  187.9130  177.3100  147.3870 C   0  0  1  0  0  3  0  0  0  0  0  0
  188.7110  178.0380  148.4470 C   0  0  0  0  0  1  0  0  0  0  0  0
  187.1260  178.3250  146.5820 C   0  0  2  0  0  3  0  0  0  0  0  0
  1 12  1  6  0  0  0
  1  7  1  0  0  0  0
  1 15  1  0  0  0  0
  2  8  1  0  0  0  0
  3  6  1  0  0  0  0
  5  4  2  0  0  0  0
  6  5  1  0  0  0  0
  7  2  1  0  0  0  0
  7  3  1  0  0  0  0
  8  5  1  0  0  0  0
  9  7  1  0  0  0  0
 10  9  1  0  0  0  0
 11 12  2  0  0  0  0
 13 12  1  0  0  0  0
 14 13  1  0  0  0  0
 16 15  1  0  0  0  0
 16 17  1  0  0  0  0
 17 18  1  0  0  0  0
 18 19  1  0  0  0  0
 19 20  1  0  0  0  0
 20 21  1  0  0  0  0
 22 25  1  0  0  0  0
 22 23  1  0  0  0  0
 23 24  1  1  0  0  0
 25 21  1  6  0  0  0
 25 23  1  0  0  0  0
M  END
>  <MODEL>
4

>  <REMARK>
 VINA RESULT:      -6.2      1.793      3.223
  Name = 
  12 active torsions:
  status: ('A' for Active; 'I' for Inactive)
    1  A    between atoms: C_1  and  N_3
    2  A    between atoms: C_1  and  C_18
    3  A    between atoms: C_1  and  C_24
    4  A    between atoms: N_3  and  C_16
    5  A    between atoms: C_6  and  C_15
    6  A    between atoms: C_6  and  N_21
    7  A    between atoms: O_13  and  C_24
    8  A    between atoms: C_15  and  N_20
    9  A    between atoms: C_16  and  C_23
   10  A    between atoms: C_17  and  C_18
   11  A    between atoms: N_20  and  C_23
   12  A    between atoms: N_21  and  C_25
                            x       y       z     vdW  Elec       q    Type
                         _______ _______ _______ _____ _____    ______ ____

>  <TORSDO>
F 12

$$$$
=
 OpenBabel10272400563D

 25 26  0  0  1  0  0  0  0  0999 V2000
  189.9150  177.9870  142.5280 C   0  0  1  0  0  3  0  0  0  0  0  0
  191.1760  176.9560  144.4520 C   0  0  0  0  0  2  0  0  0  0  0  0
  188.8800  177.9360  144.8340 C   0  0  0  0  0  2  0  0  0  0  0  0
  189.9370  176.0820  147.5930 O   0  0  0  0  0  0  0  0  0  0  0  0
  190.1290  176.8820  146.6920 C   0  0  0  0  0  0  0  0  0  0  0  0
  189.0910  177.9010  146.3490 C   0  0  0  0  0  2  0  0  0  0  0  0
  190.1990  178.0810  144.0460 C   0  0  0  0  0  0  0  0  0  0  0  0
  191.4310  176.9010  145.9600 C   0  0  0  0  0  2  0  0  0  0  0  0
  190.8230  179.4490  144.3570 C   0  0  0  0  0  2  0  0  0  0  0  0
  192.1980  179.4470  144.1010 O   0  0  0  0  0  1  0  0  0  0  0  0
  190.4360  175.8400  141.6240 O   0  0  0  0  0  0  0  0  0  0  0  0
  190.8180  177.0280  141.8060 C   0  0  0  0  0  0  0  0  0  0  0  0
  192.0600  177.4580  141.3340 O   0  0  0  0  0  0  0  0  0  0  0  0
  192.3850  177.4400  139.9530 C   0  0  0  0  0  1  0  0  0  0  0  0
  188.5190  177.6530  142.2650 N   0  0  0  0  0  2  0  0  0  0  0  0
  188.0900  178.4670  141.1400 C   0  0  0  0  0  2  0  0  0  0  0  0
  186.6210  178.8170  141.2860 C   0  0  0  0  0  2  0  0  0  0  0  0
  185.9830  178.8300  139.9790 N   0  0  0  0  0  2  0  0  0  0  0  0
  184.5590  179.0280  140.2000 C   0  0  0  0  0  2  0  0  0  0  0  0
  184.0940  178.2120  141.3930 C   0  0  0  0  0  2  0  0  0  0  0  0
  183.7370  179.0980  142.4880 N   0  0  0  0  0  2  0  0  0  0  0  0
  183.1220  178.8690  144.8170 C   0  0  0  0  0  2  0  0  0  0  0  0
  184.5440  179.3810  144.7480 C   0  0  1  0  0  3  0  0  0  0  0  0
  185.3890  178.6460  145.7660 C   0  0  0  0  0  1  0  0  0  0  0  0
  184.0450  178.3890  143.7170 C   0  0  2  0  0  3  0  0  0  0  0  0
  1 12  1  1  0  0  0
  1  7  1  0  0  0  0
  2  8  1  0  0  0  0
  3  6  1  0  0  0  0
  5  4  2  0  0  0  0
  6  5  1  0  0  0  0
  7  9  1  0  0  0  0
  7  2  1  0  0  0  0
  7  3  1  0  0  0  0
  8  5  1  0  0  0  0
 10  9  1  0  0  0  0
 11 12  2  0  0  0  0
 13 12  1  0  0  0  0
 14 13  1  0  0  0  0
 15  1  1  0  0  0  0
 16 17  1  0  0  0  0
 16 15  1  0  0  0  0
 18 19  1  0  0  0  0
 18 17  1  0  0  0  0
 19 20  1  0  0  0  0
 20 21  1  0  0  0  0
 23 22  1  0  0  0  0
 23 24  1  1  0  0  0
 25 21  1  6  0  0  0
 25 23  1  0  0  0  0
 25 22  1  0  0  0  0
M  END
>  <MODEL>
5

>  <REMARK>
 VINA RESULT:      -6.1      1.454      2.065
  Name = 
  12 active torsions:
  status: ('A' for Active; 'I' for Inactive)
    1  A    between atoms: C_1  and  N_3
    2  A    between atoms: C_1  and  C_18
    3  A    between atoms: C_1  and  C_24
    4  A    between atoms: N_3  and  C_16
    5  A    between atoms: C_6  and  C_15
    6  A    between atoms: C_6  and  N_21
    7  A    between atoms: O_13  and  C_24
    8  A    between atoms: C_15  and  N_20
    9  A    between atoms: C_16  and  C_23
   10  A    between atoms: C_17  and  C_18
   11  A    between atoms: N_20  and  C_23
   12  A    between atoms: N_21  and  C_25
                            x       y       z     vdW  Elec       q    Type
                         _______ _______ _______ _____ _____    ______ ____

>  <TORSDO>
F 12

$$$$
=
 OpenBabel10272400563D

 25 26  0  0  1  0  0  0  0  0999 V2000
  189.8520  177.8030  141.0640 C   0  0  1  0  0  3  0  0  0  0  0  0
  187.9370  177.1720  142.5790 C   0  0  0  0  0  2  0  0  0  0  0  0
  190.0100  178.2400  143.5490 C   0  0  0  0  0  2  0  0  0  0  0  0
  187.4250  178.1420  145.8890 O   0  0  0  0  0  0  0  0  0  0  0  0
  188.0970  177.6440  145.0020 C   0  0  0  0  0  0  0  0  0  0  0  0
  189.5770  177.8510  144.9650 C   0  0  0  0  0  2  0  0  0  0  0  0
  189.4740  177.2760  142.4700 C   0  0  0  0  0  0  0  0  0  0  0  0
  187.4630  176.7630  143.9750 C   0  0  0  0  0  2  0  0  0  0  0  0
  190.1050  175.8910  142.6730 C   0  0  0  0  0  2  0  0  0  0  0  0
  191.2480  175.9690  143.4740 O   0  0  0  0  0  1  0  0  0  0  0  0
  192.1870  177.4700  140.7020 O   0  0  0  0  0  0  0  0  0  0  0  0
  191.0160  177.0830  140.4450 C   0  0  0  0  0  0  0  0  0  0  0  0
  190.7950  175.9900  139.6040 O   0  0  0  0  0  0  0  0  0  0  0  0
  191.4160  175.8860  138.3320 C   0  0  0  0  0  1  0  0  0  0  0  0
  188.7080  177.7750  140.1590 N   0  0  0  0  0  2  0  0  0  0  0  0
  188.9770  178.7370  139.1020 C   0  0  0  0  0  2  0  0  0  0  0  0
  188.5860  178.1510  137.7590 C   0  0  0  0  0  2  0  0  0  0  0  0
  187.4260  178.8500  137.2320 N   0  0  0  0  0  2  0  0  0  0  0  0
  186.5390  177.8450  136.6670 C   0  0  0  0  0  2  0  0  0  0  0  0
  185.2920  177.7050  137.5230 C   0  0  0  0  0  2  0  0  0  0  0  0
  185.2880  178.7220  138.5610 N   0  0  0  0  0  2  0  0  0  0  0  0
  183.4600  179.2640  140.0490 C   0  0  0  0  0  2  0  0  0  0  0  0
  184.7050  179.0510  140.8820 C   0  0  1  0  0  3  0  0  0  0  0  0
  184.3530  178.2320  142.1050 C   0  0  0  0  0  1  0  0  0  0  0  0
  184.4680  178.2100  139.6440 C   0  0  2  0  0  3  0  0  0  0  0  0
  1 15  1  6  0  0  0
  1  7  1  0  0  0  0
  2  8  1  0  0  0  0
  3  6  1  0  0  0  0
  5  4  2  0  0  0  0
  6  5  1  0  0  0  0
  7  2  1  0  0  0  0
  7  9  1  0  0  0  0
  7  3  1  0  0  0  0
  8  5  1  0  0  0  0
  9 10  1  0  0  0  0
 12 11  2  0  0  0  0
 12  1  1  0  0  0  0
 13 12  1  0  0  0  0
 14 13  1  0  0  0  0
 16 15  1  0  0  0  0
 17 16  1  0  0  0  0
 18 17  1  0  0  0  0
 19 18  1  0  0  0  0
 19 20  1  0  0  0  0
 20 21  1  0  0  0  0
 22 23  1  0  0  0  0
 23 24  1  1  0  0  0
 25 21  1  6  0  0  0
 25 22  1  0  0  0  0
 25 23  1  0  0  0  0
M  END
>  <MODEL>
6

>  <REMARK>
 VINA RESULT:      -5.8      1.716      2.621
  Name = 
  12 active torsions:
  status: ('A' for Active; 'I' for Inactive)
    1  A    between atoms: C_1  and  N_3
    2  A    between atoms: C_1  and  C_18
    3  A    between atoms: C_1  and  C_24
    4  A    between atoms: N_3  and  C_16
    5  A    between atoms: C_6  and  C_15
    6  A    between atoms: C_6  and  N_21
    7  A    between atoms: O_13  and  C_24
    8  A    between atoms: C_15  and  N_20
    9  A    between atoms: C_16  and  C_23
   10  A    between atoms: C_17  and  C_18
   11  A    between atoms: N_20  and  C_23
   12  A    between atoms: N_21  and  C_25
                            x       y       z     vdW  Elec       q    Type
                         _______ _______ _______ _____ _____    ______ ____

>  <TORSDO>
F 12

$$$$
=
 OpenBabel10272400563D

 25 26  0  0  1  0  0  0  0  0999 V2000
  189.6900  177.6500  141.7150 C   0  0  1  0  0  3  0  0  0  0  0  0
  189.4650  178.1660  144.1720 C   0  0  0  0  0  2  0  0  0  0  0  0
  191.2130  176.5210  143.3880 C   0  0  0  0  0  2  0  0  0  0  0  0
  191.7010  177.3850  146.7320 O   0  0  0  0  0  0  0  0  0  0  0  0
  190.9910  177.0800  145.7880 C   0  0  0  0  0  0  0  0  0  0  0  0
  191.4260  176.0270  144.8210 C   0  0  0  0  0  2  0  0  0  0  0  0
  189.7890  177.0610  143.1430 C   0  0  0  0  0  0  0  0  0  0  0  0
  189.6440  177.7050  145.6210 C   0  0  0  0  0  2  0  0  0  0  0  0
  188.7820  175.9100  143.2820 C   0  0  0  0  0  2  0  0  0  0  0  0
  187.5930  176.3470  143.8720 O   0  0  0  0  0  1  0  0  0  0  0  0
  191.9580  177.7590  140.9770 O   0  0  0  0  0  0  0  0  0  0  0  0
  190.8210  177.2380  140.8160 C   0  0  0  0  0  0  0  0  0  0  0  0
  190.6110  176.2800  139.8220 O   0  0  0  0  0  0  0  0  0  0  0  0
  191.5680  176.0360  138.8030 C   0  0  0  0  0  1  0  0  0  0  0  0
  188.4120  177.3260  141.0910 N   0  0  0  0  0  2  0  0  0  0  0  0
  187.6230  178.5470  141.0740 C   0  0  0  0  0  2  0  0  0  0  0  0
  186.5930  178.4800  139.9640 C   0  0  0  0  0  2  0  0  0  0  0  0
  185.5160  179.4210  140.2310 N   0  0  0  0  0  2  0  0  0  0  0  0
  184.2730  178.6660  140.2110 C   0  0  0  0  0  2  0  0  0  0  0  0
  183.8050  178.3890  141.6290 C   0  0  0  0  0  2  0  0  0  0  0  0
  184.6900  179.0440  142.5780 N   0  0  0  0  0  2  0  0  0  0  0  0
  183.4340  178.8500  144.6370 C   0  0  0  0  0  2  0  0  0  0  0  0
  184.8540  179.2450  144.9800 C   0  0  1  0  0  3  0  0  0  0  0  0
  185.3230  178.4360  146.1710 C   0  0  0  0  0  1  0  0  0  0  0  0
  184.5880  178.3040  143.8230 C   0  0  2  0  0  3  0  0  0  0  0  0
  1 12  1  6  0  0  0
  1  7  1  0  0  0  0
  2  8  1  0  0  0  0
  3  6  1  0  0  0  0
  5  4  2  0  0  0  0
  6  5  1  0  0  0  0
  7  9  1  0  0  0  0
  7  3  1  0  0  0  0
  7  2  1  0  0  0  0
  8  5  1  0  0  0  0
  9 10  1  0  0  0  0
 12 11  2  0  0  0  0
 13 12  1  0  0  0  0
 14 13  1  0  0  0  0
 15  1  1  0  0  0  0
 16 15  1  0  0  0  0
 17 18  1  0  0  0  0
 17 16  1  0  0  0  0
 19 18  1  0  0  0  0
 19 20  1  0  0  0  0
 20 21  1  0  0  0  0
 22 23  1  0  0  0  0
 23 24  1  1  0  0  0
 25 21  1  6  0  0  0
 25 22  1  0  0  0  0
 25 23  1  0  0  0  0
M  END
>  <MODEL>
7

>  <REMARK>
 VINA RESULT:      -5.7      1.223      1.404
  Name = 
  12 active torsions:
  status: ('A' for Active; 'I' for Inactive)
    1  A    between atoms: C_1  and  N_3
    2  A    between atoms: C_1  and  C_18
    3  A    between atoms: C_1  and  C_24
    4  A    between atoms: N_3  and  C_16
    5  A    between atoms: C_6  and  C_15
    6  A    between atoms: C_6  and  N_21
    7  A    between atoms: O_13  and  C_24
    8  A    between atoms: C_15  and  N_20
    9  A    between atoms: C_16  and  C_23
   10  A    between atoms: C_17  and  C_18
   11  A    between atoms: N_20  and  C_23
   12  A    between atoms: N_21  and  C_25
                            x       y       z     vdW  Elec       q    Type
                         _______ _______ _______ _____ _____    ______ ____

>  <TORSDO>
F 12

$$$$
=
 OpenBabel10272400563D

 25 26  0  0  1  0  0  0  0  0999 V2000
  187.0530  177.4790  143.5160 C   0  0  1  0  0  3  0  0  0  0  0  0
  189.0800  176.0010  143.2700 C   0  0  0  0  0  2  0  0  0  0  0  0
  189.1870  178.0470  144.7470 C   0  0  0  0  0  2  0  0  0  0  0  0
  191.9700  175.9990  145.2210 O   0  0  0  0  0  0  0  0  0  0  0  0
  191.1460  176.5530  144.5130 C   0  0  0  0  0  0  0  0  0  0  0  0
  190.7140  177.9530  144.8070 C   0  0  0  0  0  2  0  0  0  0  0  0
  188.5990  177.4580  143.4480 C   0  0  0  0  0  0  0  0  0  0  0  0
  190.6040  175.8670  143.3020 C   0  0  0  0  0  2  0  0  0  0  0  0
  189.0610  178.3070  142.2540 C   0  0  0  0  0  2  0  0  0  0  0  0
  188.9070  177.6130  141.0510 O   0  0  0  0  0  1  0  0  0  0  0  0
  186.6960  176.7880  145.7730 O   0  0  0  0  0  0  0  0  0  0  0  0
  186.5150  177.6830  144.9040 C   0  0  0  0  0  0  0  0  0  0  0  0
  185.8330  178.8590  145.2240 O   0  0  0  0  0  0  0  0  0  0  0  0
  184.5050  178.8430  145.7220 C   0  0  0  0  0  1  0  0  0  0  0  0
  186.4920  178.4770  142.6110 N   0  0  0  0  0  2  0  0  0  0  0  0
  185.1530  178.0320  142.2610 C   0  0  0  0  0  2  0  0  0  0  0  0
  184.4680  179.0800  141.4070 C   0  0  0  0  0  2  0  0  0  0  0  0
  185.2080  179.2720  140.1700 N   0  0  0  0  0  2  0  0  0  0  0  0
  184.4640  178.6010  139.1160 C   0  0  0  0  0  2  0  0  0  0  0  0
  185.4190  178.0160  138.0900 C   0  0  0  0  0  2  0  0  0  0  0  0
  186.6510  178.7870  138.0670 N   0  0  0  0  0  2  0  0  0  0  0  0
  189.0420  178.5760  137.7690 C   0  0  0  0  0  2  0  0  0  0  0  0
  188.3810  178.4390  136.4160 C   0  0  1  0  0  3  0  0  0  0  0  0
  189.0310  177.3030  135.6550 C   0  0  0  0  0  1  0  0  0  0  0  0
  187.7040  177.8790  137.6500 C   0  0  2  0  0  3  0  0  0  0  0  0
  1 15  1  6  0  0  0
  1 12  1  0  0  0  0
  2  8  1  0  0  0  0
  2  7  1  0  0  0  0
  3  6  1  0  0  0  0
  5  6  1  0  0  0  0
  5  4  2  0  0  0  0
  7  1  1  0  0  0  0
  7  3  1  0  0  0  0
  8  5  1  0  0  0  0
  9  7  1  0  0  0  0
 10  9  1  0  0  0  0
 12 13  1  0  0  0  0
 12 11  2  0  0  0  0
 13 14  1  0  0  0  0
 16 15  1  0  0  0  0
 17 16  1  0  0  0  0
 18 17  1  0  0  0  0
 19 18  1  0  0  0  0
 20 19  1  0  0  0  0
 21 20  1  0  0  0  0
 23 24  1  6  0  0  0
 23 25  1  0  0  0  0
 23 22  1  0  0  0  0
 25 22  1  0  0  0  0
 25 21  1  1  0  0  0
M  END
>  <MODEL>
8

>  <REMARK>
 VINA RESULT:      -5.4      1.946      5.571
  Name = 
  12 active torsions:
  status: ('A' for Active; 'I' for Inactive)
    1  A    between atoms: C_1  and  N_3
    2  A    between atoms: C_1  and  C_18
    3  A    between atoms: C_1  and  C_24
    4  A    between atoms: N_3  and  C_16
    5  A    between atoms: C_6  and  C_15
    6  A    between atoms: C_6  and  N_21
    7  A    between atoms: O_13  and  C_24
    8  A    between atoms: C_15  and  N_20
    9  A    between atoms: C_16  and  C_23
   10  A    between atoms: C_17  and  C_18
   11  A    between atoms: N_20  and  C_23
   12  A    between atoms: N_21  and  C_25
                            x       y       z     vdW  Elec       q    Type
                         _______ _______ _______ _____ _____    ______ ____

>  <TORSDO>
F 12

$$$$
=
 OpenBabel10272400563D

 25 26  0  0  1  0  0  0  0  0999 V2000
  189.1910  176.8410  139.3960 C   0  0  1  0  0  3  0  0  0  0  0  0
  187.0480  177.8120  138.4900 C   0  0  0  0  0  2  0  0  0  0  0  0
  188.1990  175.9340  137.2550 C   0  0  0  0  0  2  0  0  0  0  0  0
  184.9960  176.4970  135.9950 O   0  0  0  0  0  0  0  0  0  0  0  0
  186.0740  176.8830  136.4130 C   0  0  0  0  0  0  0  0  0  0  0  0
  187.3360  176.1860  136.0170 C   0  0  0  0  0  2  0  0  0  0  0  0
  188.4140  177.2020  138.1070 C   0  0  0  0  0  0  0  0  0  0  0  0
  186.1610  178.1000  137.2770 C   0  0  0  0  0  2  0  0  0  0  0  0
  189.2300  178.2210  137.2980 C   0  0  0  0  0  2  0  0  0  0  0  0
  188.9330  179.5300  137.6890 O   0  0  0  0  0  1  0  0  0  0  0  0
  191.5370  177.2660  139.5190 O   0  0  0  0  0  0  0  0  0  0  0  0
  190.6270  176.4750  139.1500 C   0  0  0  0  0  0  0  0  0  0  0  0
  190.9430  175.2650  138.5290 O   0  0  0  0  0  0  0  0  0  0  0  0
  192.0170  175.1540  137.6080 C   0  0  0  0  0  1  0  0  0  0  0  0
  189.1100  177.9100  140.3850 N   0  0  0  0  0  2  0  0  0  0  0  0
  188.8380  177.2850  141.6690 C   0  0  0  0  0  2  0  0  0  0  0  0
  189.5410  178.0490  142.7750 C   0  0  0  0  0  2  0  0  0  0  0  0
  190.4860  177.1780  143.4550 N   0  0  0  0  0  2  0  0  0  0  0  0
  190.8360  177.8230  144.7110 C   0  0  0  0  0  2  0  0  0  0  0  0
  191.4430  176.8120  145.6680 C   0  0  0  0  0  2  0  0  0  0  0  0
  190.5400  176.5840  146.7840 N   0  0  0  0  0  2  0  0  0  0  0  0
  189.1580  178.0480  148.1240 C   0  0  0  0  0  2  0  0  0  0  0  0
  188.2530  177.1080  147.3590 C   0  0  1  0  0  3  0  0  0  0  0  0
  187.0780  177.8860  146.8050 C   0  0  0  0  0  1  0  0  0  0  0  0
  189.5270  177.6210  146.7190 C   0  0  2  0  0  3  0  0  0  0  0  0
  1 12  1  6  0  0  0
  1 15  1  0  0  0  0
  3  7  1  0  0  0  0
  4  5  2  0  0  0  0
  5  8  1  0  0  0  0
  6  5  1  0  0  0  0
  6  3  1  0  0  0  0
  7  2  1  0  0  0  0
  7  1  1  0  0  0  0
  8  2  1  0  0  0  0
  9 10  1  0  0  0  0
  9  7  1  0  0  0  0
 12 11  2  0  0  0  0
 13 12  1  0  0  0  0
 14 13  1  0  0  0  0
 15 16  1  0  0  0  0
 16 17  1  0  0  0  0
 17 18  1  0  0  0  0
 18 19  1  0  0  0  0
 19 20  1  0  0  0  0
 20 21  1  0  0  0  0
 23 24  1  6  0  0  0
 23 22  1  0  0  0  0
 25 21  1  1  0  0  0
 25 23  1  0  0  0  0
 25 22  1  0  0  0  0
M  END
>  <MODEL>
9

>  <REMARK>
 VINA RESULT:      -5.4      2.985      6.112
  Name = 
  12 active torsions:
  status: ('A' for Active; 'I' for Inactive)
    1  A    between atoms: C_1  and  N_3
    2  A    between atoms: C_1  and  C_18
    3  A    between atoms: C_1  and  C_24
    4  A    between atoms: N_3  and  C_16
    5  A    between atoms: C_6  and  C_15
    6  A    between atoms: C_6  and  N_21
    7  A    between atoms: O_13  and  C_24
    8  A    between atoms: C_15  and  N_20
    9  A    between atoms: C_16  and  C_23
   10  A    between atoms: C_17  and  C_18
   11  A    between atoms: N_20  and  C_23
   12  A    between atoms: N_21  and  C_25
                            x       y       z     vdW  Elec       q    Type
                         _______ _______ _______ _____ _____    ______ ____

>  <TORSDO>
F 12

$$$$
