=
 OpenBabel10272414123D

 43 47  0  0  1  0  0  0  0  0999 V2000
  188.2450  177.4480  146.2920 C   0  0  0  0  0  0  0  0  0  0  0  0
  190.4260  176.8600  141.7160 C   0  0  2  0  0  3  0  0  0  0  0  0
  188.5410  177.4170  139.9020 C   0  0  2  0  0  3  0  0  0  0  0  0
  189.8440  177.1210  144.4980 C   0  0  0  0  0  0  0  0  0  0  0  0
  187.3110  177.9430  145.3780 C   0  0  0  0  0  3  0  0  0  0  0  0
  187.9270  177.3680  147.6060 F   0  0  0  0  0  0  0  0  0  0  0  0
  188.8880  177.5880  143.5650 C   0  0  0  0  0  0  0  0  0  0  0  0
  189.5050  177.0380  145.8520 C   0  0  0  0  0  3  0  0  0  0  0  0
  187.6350  178.0210  144.0220 C   0  0  0  0  0  3  0  0  0  0  0  0
  188.1410  177.6030  141.2580 O   0  0  0  0  0  0  0  0  0  0  0  0
  189.2590  177.7660  142.1150 C   0  0  2  0  0  3  0  0  0  0  0  0
  191.5890  177.0890  142.6660 C   0  0  0  0  0  2  0  0  0  0  0  0
  190.8030  177.1850  140.2700 C   0  0  2  0  0  3  0  0  0  0  0  0
  189.8160  177.9740  139.6260 O   0  0  0  0  0  0  0  0  0  0  0  0
  191.1940  176.6100  144.0630 C   0  0  0  0  0  2  0  0  0  0  0  0
  187.4970  178.0070  138.9640 C   0  0  2  0  0  3  0  0  0  0  0  0
  188.0800  179.0140  138.1910 O   0  0  0  0  0  1  0  0  0  0  0  0
  186.3400  178.5850  139.7760 C   0  0  0  0  0  2  0  0  0  0  0  0
  184.9770  178.3990  139.1100 C   0  0  2  0  0  3  0  0  0  0  0  0
  185.1280  177.9090  137.8120 O   0  0  0  0  0  1  0  0  0  0  0  0
  184.1500  179.6840  139.0910 C   0  0  0  0  0  2  0  0  0  0  0  0
  182.6520  179.4450  139.2960 C   0  0  1  0  0  3  0  0  0  0  0  0
  179.9910  178.1940  137.4700 C   0  0  0  0  0  1  0  0  0  0  0  0
  181.9760  179.3790  138.0770 O   0  0  0  0  0  0  0  0  0  0  0  0
  182.3720  178.1630  140.0240 C   0  0  2  0  0  3  0  0  0  0  0  0
  181.3180  177.5580  139.3480 O   0  0  0  0  0  0  0  0  0  0  0  0
  181.3850  178.1020  138.0560 C   0  0  1  0  0  3  0  0  0  0  0  0
  180.6760  178.4950  141.8650 C   0  0  0  0  0  3  0  0  0  0  0  0
  182.0130  178.4200  141.4530 C   0  0  0  0  0  0  0  0  0  0  0  0
  183.7780  179.0660  144.7250 C   0  0  0  0  0  1  0  0  0  0  0  0
  181.3970  178.9290  144.1000 N   0  0  0  0  0  0  0  0  0  0  0  0
  182.7020  178.8640  143.7210 C   0  0  0  0  0  0  0  0  0  0  0  0
  180.3870  178.7520  143.2070 C   0  0  0  0  0  3  0  0  0  0  0  0
  183.0330  178.6100  142.3870 C   0  0  0  0  0  3  0  0  0  0  0  0
  191.0470  175.9510  139.5320 N   0  0  0  0  0  2  0  0  0  0  0  0
  191.6240  176.3010  138.2400 C   0  0  2  0  0  3  0  0  0  0  0  0
  190.5440  174.8970  136.4820 N   0  0  0  0  0  0  0  0  0  0  0  0
  191.5450  175.1570  137.2560 C   0  0  0  0  0  3  0  0  0  0  0  0
  189.0710  175.8240  136.4230 S   0  0  1  0  0  0  0  0  0  0  0  0
  189.4540  177.1630  135.2860 C   0  0  0  0  0  1  0  0  0  0  0  0
  188.1220  174.9280  135.6410 O   0  0  0  0  0  0  0  0  0  0  0  0
  193.0110  176.8480  138.3900 C   0  0  0  0  0  3  0  0  0  0  0  0
  193.9220  176.1670  138.8320 O   0  0  0  0  0  0  0  0  0  0  0  0
  1  6  1  0  0  0  0
  2 11  1  0  0  0  0
  2 12  1  1  0  0  0
  3 16  1  6  0  0  0
  3 10  1  0  0  0  0
  4  8  2  0  0  0  0
  5  1  2  0  0  0  0
  7  9  2  0  0  0  0
  7  4  1  0  0  0  0
  8  1  1  0  0  0  0
  9  5  1  0  0  0  0
 11 10  1  6  0  0  0
 11  7  1  0  0  0  0
 12 15  1  0  0  0  0
 13 35  1  6  0  0  0
 13  2  1  0  0  0  0
 14  3  1  0  0  0  0
 14 13  1  0  0  0  0
 15  4  1  0  0  0  0
 16 17  1  1  0  0  0
 16 18  1  0  0  0  0
 19 20  1  6  0  0  0
 19 18  1  0  0  0  0
 21 19  1  0  0  0  0
 22 21  1  6  0  0  0
 22 25  1  0  0  0  0
 24 22  1  0  0  0  0
 25 29  1  1  0  0  0
 26 25  1  0  0  0  0
 27 23  1  1  0  0  0
 27 24  1  0  0  0  0
 27 26  1  0  0  0  0
 28 33  1  0  0  0  0
 29 28  2  0  0  0  0
 29 34  1  0  0  0  0
 32 31  1  0  0  0  0
 32 30  1  0  0  0  0
 33 31  2  0  0  0  0
 34 32  2  0  0  0  0
 36 38  1  6  0  0  0
 36 42  1  0  0  0  0
 36 35  1  0  0  0  0
 37 38  2  0  0  0  0
 39 40  1  6  0  0  0
 39 37  1  0  0  0  0
 41 39  2  0  0  0  0
 42 43  2  0  0  0  0
M  END
>  <MODEL>
1

>  <REMARK>
 VINA RESULT:      -8.5      0.000      0.000
  Name = 
  11 active torsions:
  status: ('A' for Active; 'I' for Inactive)
    1  A    between atoms: N_1  and  C_34
    2  A    between atoms: N_1  and  CA_35
    3  A    between atoms: C_2  and  C_6
    4  A    between atoms: C_2  and  C_13
    5  A    between atoms: C_3  and  C_4
    6  A    between atoms: C_3  and  C_12
    7  A    between atoms: C_6  and  C_12
    8  A    between atoms: N_9  and  S_19
    9  A    between atoms: C_14  and  C_22
   10  A    between atoms: C_28  and  CA_35
   11  A    between atoms: C_32  and  CA_35
                            x       y       z     vdW  Elec       q    Type
                         _______ _______ _______ _____ _____    ______ ____

>  <TORSDO>
F 11

$$$$
=
 OpenBabel10272414123D

 43 47  0  0  1  0  0  0  0  0999 V2000
  191.0590  176.9570  147.1190 C   0  0  0  0  0  0  0  0  0  0  0  0
  187.1570  178.0710  144.0230 C   0  0  2  0  0  3  0  0  0  0  0  0
  188.1960  178.3840  141.5790 C   0  0  2  0  0  3  0  0  0  0  0  0
  188.8430  177.3180  146.2000 C   0  0  0  0  0  0  0  0  0  0  0  0
  191.5930  176.9080  145.8280 C   0  0  0  0  0  3  0  0  0  0  0  0
  191.8700  176.8020  148.1920 F   0  0  0  0  0  0  0  0  0  0  0  0
  189.3870  177.3040  144.8930 C   0  0  0  0  0  0  0  0  0  0  0  0
  189.6900  177.1620  147.3010 C   0  0  0  0  0  3  0  0  0  0  0  0
  190.7590  177.0720  144.7210 C   0  0  0  0  0  3  0  0  0  0  0  0
  189.1310  177.9870  142.5800 O   0  0  0  0  0  0  0  0  0  0  0  0
  188.4830  177.3850  143.6890 C   0  0  2  0  0  3  0  0  0  0  0  0
  186.5150  177.3750  145.2110 C   0  0  0  0  0  2  0  0  0  0  0  0
  186.2670  178.0100  142.7820 C   0  0  2  0  0  3  0  0  0  0  0  0
  186.9940  177.6330  141.6230 O   0  0  0  0  0  0  0  0  0  0  0  0
  187.3830  177.5970  146.4490 C   0  0  0  0  0  2  0  0  0  0  0  0
  188.8320  178.2750  140.2000 C   0  0  2  0  0  3  0  0  0  0  0  0
  187.9380  178.7460  139.2350 O   0  0  0  0  0  1  0  0  0  0  0  0
  189.1880  176.8200  139.9070 C   0  0  0  0  0  2  0  0  0  0  0  0
  190.6370  176.6240  139.4640 C   0  0  2  0  0  3  0  0  0  0  0  0
  191.5110  177.2520  140.3540 O   0  0  0  0  0  1  0  0  0  0  0  0
  190.8910  177.1250  138.0420 C   0  0  0  0  0  2  0  0  0  0  0  0
  191.6670  176.1270  137.1780 C   0  0  1  0  0  3  0  0  0  0  0  0
  194.9360  175.0410  136.8370 C   0  0  0  0  0  1  0  0  0  0  0  0
  193.0240  176.4460  137.1240 O   0  0  0  0  0  0  0  0  0  0  0  0
  191.5660  174.7220  137.6960 C   0  0  2  0  0  3  0  0  0  0  0  0
  192.8500  174.1920  137.6260 O   0  0  0  0  0  0  0  0  0  0  0  0
  193.6850  175.3200  137.6460 C   0  0  1  0  0  3  0  0  0  0  0  0
  191.0450  173.1480  135.7930 C   0  0  0  0  0  3  0  0  0  0  0  0
  190.6080  173.9120  136.8820 C   0  0  0  0  0  0  0  0  0  0  0  0
  186.9020  173.2110  136.7720 C   0  0  0  0  0  1  0  0  0  0  0  0
  188.7960  172.4550  135.3860 N   0  0  0  0  0  0  0  0  0  0  0  0
  188.3500  173.1940  136.4380 C   0  0  0  0  0  0  0  0  0  0  0  0
  190.1130  172.4180  135.0510 C   0  0  0  0  0  3  0  0  0  0  0  0
  189.2500  173.9380  137.2040 C   0  0  0  0  0  3  0  0  0  0  0  0
  185.6020  179.2930  142.5840 N   0  0  0  0  0  2  0  0  0  0  0  0
  184.1860  179.0400  142.3500 C   0  0  2  0  0  3  0  0  0  0  0  0
  182.1360  179.1340  143.7690 N   0  0  0  0  0  0  0  0  0  0  0  0
  183.4070  178.9440  143.6400 C   0  0  0  0  0  3  0  0  0  0  0  0
  181.0600  179.5460  142.4620 S   0  0  1  0  0  0  0  0  0  0  0  0
  180.2430  177.9920  142.0750 C   0  0  0  0  0  1  0  0  0  0  0  0
  179.9820  180.3770  143.1430 O   0  0  0  0  0  0  0  0  0  0  0  0
  183.9830  177.8550  141.4550 C   0  0  0  0  0  3  0  0  0  0  0  0
  183.5010  177.9720  140.3400 O   0  0  0  0  0  0  0  0  0  0  0  0
  1  8  1  0  0  0  0
  1  6  1  0  0  0  0
  2 12  1  1  0  0  0
  3 16  1  6  0  0  0
  3 14  1  0  0  0  0
  3 10  1  0  0  0  0
  4 15  1  0  0  0  0
  4  8  2  0  0  0  0
  5  1  2  0  0  0  0
  7  4  1  0  0  0  0
  9  7  2  0  0  0  0
  9  5  1  0  0  0  0
 11 10  1  6  0  0  0
 11  2  1  0  0  0  0
 11  7  1  0  0  0  0
 12 15  1  0  0  0  0
 13 35  1  6  0  0  0
 13  2  1  0  0  0  0
 14 13  1  0  0  0  0
 16 17  1  6  0  0  0
 18 16  1  0  0  0  0
 19 18  1  0  0  0  0
 19 20  1  1  0  0  0
 21 19  1  0  0  0  0
 22 25  1  0  0  0  0
 22 21  1  1  0  0  0
 24 22  1  0  0  0  0
 24 27  1  0  0  0  0
 25 29  1  6  0  0  0
 26 27  1  0  0  0  0
 26 25  1  0  0  0  0
 27 23  1  6  0  0  0
 28 29  1  0  0  0  0
 29 34  2  0  0  0  0
 31 32  2  0  0  0  0
 32 30  1  0  0  0  0
 32 34  1  0  0  0  0
 33 31  1  0  0  0  0
 33 28  2  0  0  0  0
 36 42  1  1  0  0  0
 36 35  1  0  0  0  0
 36 38  1  0  0  0  0
 38 37  2  0  0  0  0
 39 40  1  1  0  0  0
 39 41  2  0  0  0  0
 39 37  1  0  0  0  0
 43 42  2  0  0  0  0
M  END
>  <MODEL>
2

>  <REMARK>
 VINA RESULT:      -8.4      2.880      8.596
  Name = 
  11 active torsions:
  status: ('A' for Active; 'I' for Inactive)
    1  A    between atoms: N_1  and  C_34
    2  A    between atoms: N_1  and  CA_35
    3  A    between atoms: C_2  and  C_6
    4  A    between atoms: C_2  and  C_13
    5  A    between atoms: C_3  and  C_4
    6  A    between atoms: C_3  and  C_12
    7  A    between atoms: C_6  and  C_12
    8  A    between atoms: N_9  and  S_19
    9  A    between atoms: C_14  and  C_22
   10  A    between atoms: C_28  and  CA_35
   11  A    between atoms: C_32  and  CA_35
                            x       y       z     vdW  Elec       q    Type
                         _______ _______ _______ _____ _____    ______ ____

>  <TORSDO>
F 11

$$$$
=
 OpenBabel10272414123D

 43 47  0  0  1  0  0  0  0  0999 V2000
  188.2510  177.4230  147.9560 C   0  0  0  0  0  0  0  0  0  0  0  0
  189.9220  177.2470  143.1370 C   0  0  2  0  0  3  0  0  0  0  0  0
  187.7930  177.6980  141.5810 C   0  0  2  0  0  3  0  0  0  0  0  0
  189.6510  177.3290  145.9770 C   0  0  0  0  0  0  0  0  0  0  0  0
  187.1750  177.8640  147.1820 C   0  0  0  0  0  3  0  0  0  0  0  0
  188.1000  177.2560  149.2920 F   0  0  0  0  0  0  0  0  0  0  0  0
  188.5530  177.7420  145.1850 C   0  0  0  0  0  0  0  0  0  0  0  0
  189.4830  177.1560  147.3540 C   0  0  0  0  0  3  0  0  0  0  0  0
  187.3290  178.0320  145.8040 C   0  0  0  0  0  3  0  0  0  0  0  0
  187.5400  177.7850  142.9820 O   0  0  0  0  0  0  0  0  0  0  0  0
  188.7330  178.0180  143.7140 C   0  0  2  0  0  3  0  0  0  0  0  0
  191.1630  177.5450  143.9600 C   0  0  0  0  0  2  0  0  0  0  0  0
  190.0940  177.6690  141.6780 C   0  0  2  0  0  3  0  0  0  0  0  0
  188.9700  178.3860  141.1930 O   0  0  0  0  0  0  0  0  0  0  0  0
  190.9810  176.9700  145.3650 C   0  0  0  0  0  2  0  0  0  0  0  0
  186.5960  178.2240  140.8020 C   0  0  2  0  0  3  0  0  0  0  0  0
  187.0330  178.7870  139.6000 O   0  0  0  0  0  1  0  0  0  0  0  0
  185.8640  179.2790  141.6280 C   0  0  0  0  0  2  0  0  0  0  0  0
  184.4040  178.9240  141.9120 C   0  0  2  0  0  3  0  0  0  0  0  0
  184.1900  178.7980  143.2860 O   0  0  0  0  0  1  0  0  0  0  0  0
  183.9570  177.6510  141.1940 C   0  0  0  0  0  2  0  0  0  0  0  0
  182.9290  177.9080  140.0890 C   0  0  1  0  0  3  0  0  0  0  0  0
  181.6680  180.6220  138.3510 C   0  0  0  0  0  1  0  0  0  0  0  0
  182.4690  179.2250  140.1160 O   0  0  0  0  0  0  0  0  0  0  0  0
  183.4900  177.6670  138.7180 C   0  0  2  0  0  3  0  0  0  0  0  0
  183.0590  178.7290  137.9320 O   0  0  0  0  0  0  0  0  0  0  0  0
  182.8030  179.7540  138.8560 C   0  0  1  0  0  3  0  0  0  0  0  0
  181.6620  176.1390  137.8850 C   0  0  0  0  0  3  0  0  0  0  0  0
  183.0170  176.3620  138.1600 C   0  0  0  0  0  0  0  0  0  0  0  0
  184.4790  173.0260  137.1770 C   0  0  0  0  0  1  0  0  0  0  0  0
  182.1820  173.9230  137.1610 N   0  0  0  0  0  0  0  0  0  0  0  0
  183.5030  174.1180  137.4260 C   0  0  0  0  0  0  0  0  0  0  0  0
  181.2620  174.9000  137.3790 C   0  0  0  0  0  3  0  0  0  0  0  0
  183.9430  175.3430  137.9330 C   0  0  0  0  0  3  0  0  0  0  0  0
  190.3600  176.4980  140.8500 N   0  0  0  0  0  2  0  0  0  0  0  0
  191.0800  176.9340  139.6610 C   0  0  2  0  0  3  0  0  0  0  0  0
  190.1580  175.6210  137.7500 N   0  0  0  0  0  0  0  0  0  0  0  0
  191.1070  175.8690  138.5910 C   0  0  0  0  0  3  0  0  0  0  0  0
  188.6430  176.4790  137.6860 S   0  0  1  0  0  0  0  0  0  0  0  0
  189.0270  177.9540  136.7320 C   0  0  0  0  0  1  0  0  0  0  0  0
  187.7990  175.6330  136.7460 O   0  0  0  0  0  0  0  0  0  0  0  0
  192.4450  177.4500  140.0050 C   0  0  0  0  0  3  0  0  0  0  0  0
  193.4420  177.0540  139.4250 O   0  0  0  0  0  0  0  0  0  0  0  0
  1  6  1  0  0  0  0
  2 11  1  0  0  0  0
  2 12  1  1  0  0  0
  3 16  1  6  0  0  0
  3 10  1  0  0  0  0
  4  8  2  0  0  0  0
  5  1  2  0  0  0  0
  7  9  2  0  0  0  0
  7  4  1  0  0  0  0
  8  1  1  0  0  0  0
  9  5  1  0  0  0  0
 11 10  1  6  0  0  0
 11  7  1  0  0  0  0
 12 15  1  0  0  0  0
 13 35  1  6  0  0  0
 13  2  1  0  0  0  0
 14  3  1  0  0  0  0
 14 13  1  0  0  0  0
 15  4  1  0  0  0  0
 16 17  1  6  0  0  0
 16 18  1  0  0  0  0
 18 19  1  0  0  0  0
 19 20  1  1  0  0  0
 21 19  1  0  0  0  0
 22 24  1  0  0  0  0
 22 21  1  1  0  0  0
 25 29  1  6  0  0  0
 25 22  1  0  0  0  0
 26 25  1  0  0  0  0
 26 27  1  0  0  0  0
 27 23  1  6  0  0  0
 27 24  1  0  0  0  0
 28 29  1  0  0  0  0
 30 32  1  0  0  0  0
 31 33  1  0  0  0  0
 31 32  2  0  0  0  0
 32 34  1  0  0  0  0
 33 28  2  0  0  0  0
 34 29  2  0  0  0  0
 36 38  1  6  0  0  0
 36 42  1  0  0  0  0
 36 35  1  0  0  0  0
 37 38  2  0  0  0  0
 39 40  1  6  0  0  0
 39 37  1  0  0  0  0
 41 39  2  0  0  0  0
 43 42  2  0  0  0  0
M  END
>  <MODEL>
3

>  <REMARK>
 VINA RESULT:      -8.4      2.392      3.428
  Name = 
  11 active torsions:
  status: ('A' for Active; 'I' for Inactive)
    1  A    between atoms: N_1  and  C_34
    2  A    between atoms: N_1  and  CA_35
    3  A    between atoms: C_2  and  C_6
    4  A    between atoms: C_2  and  C_13
    5  A    between atoms: C_3  and  C_4
    6  A    between atoms: C_3  and  C_12
    7  A    between atoms: C_6  and  C_12
    8  A    between atoms: N_9  and  S_19
    9  A    between atoms: C_14  and  C_22
   10  A    between atoms: C_28  and  CA_35
   11  A    between atoms: C_32  and  CA_35
                            x       y       z     vdW  Elec       q    Type
                         _______ _______ _______ _____ _____    ______ ____

>  <TORSDO>
F 11

$$$$
=
 OpenBabel10272414123D

 43 47  0  0  1  0  0  0  0  0999 V2000
  191.4990  176.7910  147.5240 C   0  0  0  0  0  0  0  0  0  0  0  0
  187.5840  177.7590  144.3960 C   0  0  2  0  0  3  0  0  0  0  0  0
  188.5560  177.6400  141.9080 C   0  0  2  0  0  3  0  0  0  0  0  0
  189.2850  177.1910  146.6160 C   0  0  0  0  0  0  0  0  0  0  0  0
  191.9820  176.5180  146.2410 C   0  0  0  0  0  3  0  0  0  0  0  0
  192.3340  176.7270  148.5880 F   0  0  0  0  0  0  0  0  0  0  0  0
  189.7800  176.9500  145.3130 C   0  0  0  0  0  0  0  0  0  0  0  0
  190.1560  177.1270  147.7080 C   0  0  0  0  0  3  0  0  0  0  0  0
  191.1240  176.5890  145.1420 C   0  0  0  0  0  3  0  0  0  0  0  0
  189.4940  177.3170  142.9320 O   0  0  0  0  0  0  0  0  0  0  0  0
  188.8430  176.9300  144.1320 C   0  0  2  0  0  3  0  0  0  0  0  0
  186.9340  177.2910  145.6870 C   0  0  0  0  0  2  0  0  0  0  0  0
  186.6490  177.5930  143.1980 C   0  0  2  0  0  3  0  0  0  0  0  0
  187.3040  177.0000  142.0880 O   0  0  0  0  0  0  0  0  0  0  0  0
  187.8600  177.6170  146.8590 C   0  0  0  0  0  2  0  0  0  0  0  0
  189.1330  177.2870  140.5440 C   0  0  2  0  0  3  0  0  0  0  0  0
  190.4770  177.6650  140.4930 O   0  0  0  0  0  1  0  0  0  0  0  0
  188.3530  178.0100  139.4490 C   0  0  0  0  0  2  0  0  0  0  0  0
  189.1740  178.2740  138.1870 C   0  0  2  0  0  3  0  0  0  0  0  0
  188.9800  179.5820  137.7410 O   0  0  0  0  0  1  0  0  0  0  0  0
  188.8620  177.2850  137.0640 C   0  0  0  0  0  2  0  0  0  0  0  0
  189.9980  176.2950  136.7940 C   0  0  1  0  0  3  0  0  0  0  0  0
  193.2630  175.8060  137.8340 C   0  0  0  0  0  1  0  0  0  0  0  0
  191.2410  176.8490  137.1020 O   0  0  0  0  0  0  0  0  0  0  0  0
  189.8650  175.0380  137.6030 C   0  0  2  0  0  3  0  0  0  0  0  0
  191.1350  174.7590  138.0960 O   0  0  0  0  0  0  0  0  0  0  0  0
  191.7830  176.0040  138.0890 C   0  0  1  0  0  3  0  0  0  0  0  0
  190.1910  173.2450  135.8560 C   0  0  0  0  0  3  0  0  0  0  0  0
  189.3570  173.9070  136.7660 C   0  0  0  0  0  0  0  0  0  0  0  0
  186.1180  172.0560  136.2050 C   0  0  0  0  0  1  0  0  0  0  0  0
  188.3660  171.8430  135.2160 N   0  0  0  0  0  0  0  0  0  0  0  0
  187.5380  172.4760  136.0910 C   0  0  0  0  0  0  0  0  0  0  0  0
  189.6700  172.2030  135.0840 C   0  0  0  0  0  3  0  0  0  0  0  0
  188.0200  173.5220  136.8810 C   0  0  0  0  0  3  0  0  0  0  0  0
  186.0750  178.8830  142.8340 N   0  0  0  0  0  2  0  0  0  0  0  0
  184.7880  178.6440  142.1930 C   0  0  2  0  0  3  0  0  0  0  0  0
  184.0510  178.6730  139.8090 N   0  0  0  0  0  0  0  0  0  0  0  0
  184.7570  179.1610  140.7750 C   0  0  0  0  0  3  0  0  0  0  0  0
  182.9840  177.3040  139.9570 S   0  0  1  0  0  0  0  0  0  0  0  0
  181.3420  178.0320  139.9020 C   0  0  0  0  0  1  0  0  0  0  0  0
  183.1280  176.5990  138.6170 O   0  0  0  0  0  0  0  0  0  0  0  0
  183.6550  179.1600  143.0280 C   0  0  0  0  0  3  0  0  0  0  0  0
  183.8410  179.6170  144.1440 O   0  0  0  0  0  0  0  0  0  0  0  0
  1  8  1  0  0  0  0
  1  6  1  0  0  0  0
  2 12  1  1  0  0  0
  3 16  1  6  0  0  0
  3 14  1  0  0  0  0
  3 10  1  0  0  0  0
  4 15  1  0  0  0  0
  4  8  2  0  0  0  0
  5  1  2  0  0  0  0
  7  4  1  0  0  0  0
  9  7  2  0  0  0  0
  9  5  1  0  0  0  0
 11 10  1  6  0  0  0
 11  2  1  0  0  0  0
 11  7  1  0  0  0  0
 12 15  1  0  0  0  0
 13 35  1  6  0  0  0
 13  2  1  0  0  0  0
 14 13  1  0  0  0  0
 16 17  1  1  0  0  0
 18 16  1  0  0  0  0
 19 20  1  6  0  0  0
 19 18  1  0  0  0  0
 21 19  1  0  0  0  0
 22 21  1  1  0  0  0
 22 24  1  0  0  0  0
 22 25  1  0  0  0  0
 24 27  1  0  0  0  0
 25 29  1  6  0  0  0
 25 26  1  0  0  0  0
 27 23  1  6  0  0  0
 27 26  1  0  0  0  0
 28 29  1  0  0  0  0
 29 34  2  0  0  0  0
 31 32  2  0  0  0  0
 32 30  1  0  0  0  0
 32 34  1  0  0  0  0
 33 31  1  0  0  0  0
 33 28  2  0  0  0  0
 36 38  1  6  0  0  0
 36 35  1  0  0  0  0
 36 42  1  0  0  0  0
 37 39  1  0  0  0  0
 37 38  2  0  0  0  0
 39 40  1  6  0  0  0
 41 39  2  0  0  0  0
 42 43  2  0  0  0  0
M  END
>  <MODEL>
4

>  <REMARK>
 VINA RESULT:      -8.3      2.888      7.736
  Name = 
  11 active torsions:
  status: ('A' for Active; 'I' for Inactive)
    1  A    between atoms: N_1  and  C_34
    2  A    between atoms: N_1  and  CA_35
    3  A    between atoms: C_2  and  C_6
    4  A    between atoms: C_2  and  C_13
    5  A    between atoms: C_3  and  C_4
    6  A    between atoms: C_3  and  C_12
    7  A    between atoms: C_6  and  C_12
    8  A    between atoms: N_9  and  S_19
    9  A    between atoms: C_14  and  C_22
   10  A    between atoms: C_28  and  CA_35
   11  A    between atoms: C_32  and  CA_35
                            x       y       z     vdW  Elec       q    Type
                         _______ _______ _______ _____ _____    ______ ____

>  <TORSDO>
F 11

$$$$
=
 OpenBabel10272414123D

 43 47  0  0  1  0  0  0  0  0999 V2000
  190.9640  176.7290  146.7680 C   0  0  0  0  0  0  0  0  0  0  0  0
  189.5210  177.3380  141.9100 C   0  0  2  0  0  3  0  0  0  0  0  0
  186.9840  178.1830  141.9750 C   0  0  2  0  0  3  0  0  0  0  0  0
  190.9420  176.9180  144.3490 C   0  0  0  0  0  0  0  0  0  0  0  0
  189.7210  177.3640  146.8340 C   0  0  0  0  0  3  0  0  0  0  0  0
  191.5820  176.3310  147.9050 F   0  0  0  0  0  0  0  0  0  0  0  0
  189.6680  177.5290  144.4120 C   0  0  0  0  0  0  0  0  0  0  0  0
  191.5700  176.5070  145.5290 C   0  0  0  0  0  3  0  0  0  0  0  0
  189.0810  177.7700  145.6620 C   0  0  0  0  0  3  0  0  0  0  0  0
  187.5960  178.0290  143.2540 O   0  0  0  0  0  0  0  0  0  0  0  0
  189.0110  178.0570  143.1610 C   0  0  2  0  0  3  0  0  0  0  0  0
  191.0370  177.4110  141.8690 C   0  0  0  0  0  2  0  0  0  0  0  0
  188.8880  178.0080  140.6900 C   0  0  2  0  0  3  0  0  0  0  0  0
  187.8140  178.8630  141.0480 O   0  0  0  0  0  0  0  0  0  0  0  0
  191.6080  176.6020  143.0340 C   0  0  0  0  0  2  0  0  0  0  0  0
  185.6540  178.9100  142.1180 C   0  0  2  0  0  3  0  0  0  0  0  0
  185.3170  179.0050  143.4700 O   0  0  0  0  0  1  0  0  0  0  0  0
  184.5640  178.1470  141.3680 C   0  0  0  0  0  2  0  0  0  0  0  0
  184.4440  178.5470  139.8970 C   0  0  2  0  0  3  0  0  0  0  0  0
  184.6970  179.9100  139.7380 O   0  0  0  0  0  1  0  0  0  0  0  0
  183.0810  178.1950  139.3010 C   0  0  0  0  0  2  0  0  0  0  0  0
  182.9500  176.7180  138.9180 C   0  0  1  0  0  3  0  0  0  0  0  0
  180.4110  174.4100  138.4650 C   0  0  0  0  0  1  0  0  0  0  0  0
  181.7410  176.1810  139.3620 O   0  0  0  0  0  0  0  0  0  0  0  0
  183.0060  176.5060  137.4330 C   0  0  2  0  0  3  0  0  0  0  0  0
  181.9940  175.6000  137.1340 O   0  0  0  0  0  0  0  0  0  0  0  0
  181.0880  175.7390  138.1970 C   0  0  1  0  0  3  0  0  0  0  0  0
  185.2200  176.7530  136.2470 C   0  0  0  0  0  3  0  0  0  0  0  0
  184.3390  175.9770  137.0110 C   0  0  0  0  0  0  0  0  0  0  0  0
  186.3350  172.7920  137.3400 C   0  0  0  0  0  1  0  0  0  0  0  0
  186.7810  174.9460  136.2250 N   0  0  0  0  0  0  0  0  0  0  0  0
  185.9390  174.1740  136.9640 C   0  0  0  0  0  0  0  0  0  0  0  0
  186.4500  176.2130  135.8610 C   0  0  0  0  0  3  0  0  0  0  0  0
  184.7000  174.6770  137.3680 C   0  0  0  0  0  3  0  0  0  0  0  0
  188.4490  176.9930  139.7390 N   0  0  0  0  0  2  0  0  0  0  0  0
  188.9700  177.3470  138.4240 C   0  0  2  0  0  3  0  0  0  0  0  0
  191.2710  176.4770  138.0070 N   0  0  0  0  0  0  0  0  0  0  0  0
  190.4780  177.4130  138.4120 C   0  0  0  0  0  3  0  0  0  0  0  0
  190.7470  174.9340  137.3910 S   0  0  1  0  0  0  0  0  0  0  0  0
  190.5330  175.2270  135.6300 C   0  0  0  0  0  1  0  0  0  0  0  0
  191.9990  174.0750  137.4800 O   0  0  0  0  0  0  0  0  0  0  0  0
  188.3260  178.5930  137.8970 C   0  0  0  0  0  3  0  0  0  0  0  0
  188.9780  179.5960  137.6550 O   0  0  0  0  0  0  0  0  0  0  0  0
  1  5  1  0  0  0  0
  1  6  1  0  0  0  0
  2 12  1  6  0  0  0
  2 11  1  0  0  0  0
  3 16  1  1  0  0  0
  3 10  1  0  0  0  0
  4  7  2  0  0  0  0
  4  8  1  0  0  0  0
  7  9  1  0  0  0  0
  8  1  2  0  0  0  0
  9  5  2  0  0  0  0
 11 10  1  1  0  0  0
 11  7  1  0  0  0  0
 12 15  1  0  0  0  0
 13 35  1  6  0  0  0
 13 14  1  0  0  0  0
 13  2  1  0  0  0  0
 14  3  1  0  0  0  0
 15  4  1  0  0  0  0
 16 17  1  1  0  0  0
 18 16  1  0  0  0  0
 19 20  1  1  0  0  0
 19 18  1  0  0  0  0
 21 19  1  0  0  0  0
 22 21  1  6  0  0  0
 22 24  1  0  0  0  0
 25 29  1  1  0  0  0
 25 22  1  0  0  0  0
 26 25  1  0  0  0  0
 26 27  1  0  0  0  0
 27 23  1  1  0  0  0
 27 24  1  0  0  0  0
 28 29  1  0  0  0  0
 29 34  2  0  0  0  0
 31 32  2  0  0  0  0
 32 30  1  0  0  0  0
 32 34  1  0  0  0  0
 33 31  1  0  0  0  0
 33 28  2  0  0  0  0
 36 42  1  1  0  0  0
 36 35  1  0  0  0  0
 37 38  2  0  0  0  0
 38 36  1  0  0  0  0
 39 40  1  6  0  0  0
 39 41  2  0  0  0  0
 39 37  1  0  0  0  0
 43 42  2  0  0  0  0
M  END
>  <MODEL>
5

>  <REMARK>
 VINA RESULT:      -8.2      2.540      4.397
  Name = 
  11 active torsions:
  status: ('A' for Active; 'I' for Inactive)
    1  A    between atoms: N_1  and  C_34
    2  A    between atoms: N_1  and  CA_35
    3  A    between atoms: C_2  and  C_6
    4  A    between atoms: C_2  and  C_13
    5  A    between atoms: C_3  and  C_4
    6  A    between atoms: C_3  and  C_12
    7  A    between atoms: C_6  and  C_12
    8  A    between atoms: N_9  and  S_19
    9  A    between atoms: C_14  and  C_22
   10  A    between atoms: C_28  and  CA_35
   11  A    between atoms: C_32  and  CA_35
                            x       y       z     vdW  Elec       q    Type
                         _______ _______ _______ _____ _____    ______ ____

>  <TORSDO>
F 11

$$$$
=
 OpenBabel10272414123D

 43 47  0  0  1  0  0  0  0  0999 V2000
  190.7180  176.9130  146.7220 C   0  0  0  0  0  0  0  0  0  0  0  0
  187.2390  178.1800  143.2090 C   0  0  2  0  0  3  0  0  0  0  0  0
  188.5650  178.4780  140.9050 C   0  0  2  0  0  3  0  0  0  0  0  0
  188.6370  177.3550  145.5570 C   0  0  0  0  0  0  0  0  0  0  0  0
  191.3960  176.8570  145.5020 C   0  0  0  0  0  3  0  0  0  0  0  0
  191.3940  176.7240  147.8810 F   0  0  0  0  0  0  0  0  0  0  0  0
  189.3280  177.3340  144.3220 C   0  0  0  0  0  0  0  0  0  0  0  0
  189.3440  177.1620  146.7480 C   0  0  0  0  0  3  0  0  0  0  0  0
  190.7020  177.0580  144.3070 C   0  0  0  0  0  3  0  0  0  0  0  0
  189.3640  178.0430  142.0030 O   0  0  0  0  0  0  0  0  0  0  0  0
  188.5730  177.4540  143.0230 C   0  0  2  0  0  3  0  0  0  0  0  0
  186.4420  177.4970  144.3060 C   0  0  0  0  0  2  0  0  0  0  0  0
  186.4990  178.1580  141.8720 C   0  0  2  0  0  3  0  0  0  0  0  0
  187.3430  177.7670  140.8010 O   0  0  0  0  0  0  0  0  0  0  0  0
  187.1670  177.6800  145.6390 C   0  0  0  0  0  2  0  0  0  0  0  0
  189.3530  178.3600  139.6080 C   0  0  2  0  0  3  0  0  0  0  0  0
  188.6120  178.9100  138.5600 O   0  0  0  0  0  1  0  0  0  0  0  0
  189.6480  176.8910  139.3150 C   0  0  0  0  0  2  0  0  0  0  0  0
  191.1410  176.5710  139.2520 C   0  0  2  0  0  3  0  0  0  0  0  0
  191.8720  177.4920  140.0040 O   0  0  0  0  0  1  0  0  0  0  0  0
  191.6740  176.5250  137.8200 C   0  0  0  0  0  2  0  0  0  0  0  0
  192.1440  175.1320  137.3920 C   0  0  1  0  0  3  0  0  0  0  0  0
  191.1060  172.6370  135.2290 C   0  0  0  0  0  1  0  0  0  0  0  0
  191.0940  174.3790  136.8650 O   0  0  0  0  0  0  0  0  0  0  0  0
  193.2160  175.1860  136.3430 C   0  0  2  0  0  3  0  0  0  0  0  0
  192.8780  174.2250  135.3960 O   0  0  0  0  0  0  0  0  0  0  0  0
  191.4930  174.0660  135.5520 C   0  0  1  0  0  3  0  0  0  0  0  0
  194.7070  174.5240  138.2690 C   0  0  0  0  0  3  0  0  0  0  0  0
  194.5630  174.9080  136.9300 C   0  0  0  0  0  0  0  0  0  0  0  0
  198.1740  174.9670  135.8380 C   0  0  0  0  0  1  0  0  0  0  0  0
  197.0760  174.4370  137.9810 N   0  0  0  0  0  0  0  0  0  0  0  0
  196.9590  174.8130  136.6790 C   0  0  0  0  0  0  0  0  0  0  0  0
  195.9860  174.2890  138.7800 C   0  0  0  0  0  3  0  0  0  0  0  0
  195.6980  175.0580  136.1300 C   0  0  0  0  0  3  0  0  0  0  0  0
  185.9020  179.4640  141.6140 N   0  0  0  0  0  2  0  0  0  0  0  0
  184.5970  179.2540  141.0000 C   0  0  2  0  0  3  0  0  0  0  0  0
  182.6420  177.9070  141.7670 N   0  0  0  0  0  0  0  0  0  0  0  0
  183.9080  178.0240  141.5410 C   0  0  0  0  0  3  0  0  0  0  0  0
  181.4670  179.1630  141.4900 S   0  0  1  0  0  0  0  0  0  0  0  0
  180.9840  178.9280  139.7750 C   0  0  0  0  0  1  0  0  0  0  0  0
  180.2580  178.6970  142.2870 O   0  0  0  0  0  0  0  0  0  0  0  0
  184.6870  179.2630  139.5040 C   0  0  0  0  0  3  0  0  0  0  0  0
  184.4820  180.2780  138.8580 O   0  0  0  0  0  0  0  0  0  0  0  0
  1  8  1  0  0  0  0
  1  6  1  0  0  0  0
  2 12  1  1  0  0  0
  3 16  1  6  0  0  0
  3 10  1  0  0  0  0
  4 15  1  0  0  0  0
  4  8  2  0  0  0  0
  5  1  2  0  0  0  0
  7  4  1  0  0  0  0
  9  7  2  0  0  0  0
  9  5  1  0  0  0  0
 11 10  1  6  0  0  0
 11  2  1  0  0  0  0
 11  7  1  0  0  0  0
 12 15  1  0  0  0  0
 13 35  1  6  0  0  0
 13  2  1  0  0  0  0
 14  3  1  0  0  0  0
 14 13  1  0  0  0  0
 16 17  1  6  0  0  0
 18 16  1  0  0  0  0
 19 18  1  0  0  0  0
 19 20  1  1  0  0  0
 21 19  1  0  0  0  0
 22 21  1  6  0  0  0
 24 22  1  0  0  0  0
 25 29  1  1  0  0  0
 25 22  1  0  0  0  0
 26 27  1  0  0  0  0
 26 25  1  0  0  0  0
 27 23  1  1  0  0  0
 27 24  1  0  0  0  0
 28 33  1  0  0  0  0
 29 28  2  0  0  0  0
 30 32  1  0  0  0  0
 31 33  2  0  0  0  0
 32 31  1  0  0  0  0
 34 32  2  0  0  0  0
 34 29  1  0  0  0  0
 36 42  1  6  0  0  0
 36 38  1  0  0  0  0
 36 35  1  0  0  0  0
 38 37  2  0  0  0  0
 39 40  1  6  0  0  0
 39 37  1  0  0  0  0
 39 41  2  0  0  0  0
 43 42  2  0  0  0  0
M  END
>  <MODEL>
6

>  <REMARK>
 VINA RESULT:      -8.2      3.024      9.285
  Name = 
  11 active torsions:
  status: ('A' for Active; 'I' for Inactive)
    1  A    between atoms: N_1  and  C_34
    2  A    between atoms: N_1  and  CA_35
    3  A    between atoms: C_2  and  C_6
    4  A    between atoms: C_2  and  C_13
    5  A    between atoms: C_3  and  C_4
    6  A    between atoms: C_3  and  C_12
    7  A    between atoms: C_6  and  C_12
    8  A    between atoms: N_9  and  S_19
    9  A    between atoms: C_14  and  C_22
   10  A    between atoms: C_28  and  CA_35
   11  A    between atoms: C_32  and  CA_35
                            x       y       z     vdW  Elec       q    Type
                         _______ _______ _______ _____ _____    ______ ____

>  <TORSDO>
F 11

$$$$
=
 OpenBabel10272414123D

 43 47  0  0  1  0  0  0  0  0999 V2000
  190.9460  176.9140  146.6680 C   0  0  0  0  0  0  0  0  0  0  0  0
  187.2570  178.1450  143.3630 C   0  0  2  0  0  3  0  0  0  0  0  0
  188.4330  178.3880  140.9730 C   0  0  2  0  0  3  0  0  0  0  0  0
  188.7970  177.3510  145.6310 C   0  0  0  0  0  0  0  0  0  0  0  0
  191.5440  176.8290  145.4080 C   0  0  0  0  0  3  0  0  0  0  0  0
  191.6940  176.7400  147.7840 F   0  0  0  0  0  0  0  0  0  0  0  0
  189.4060  177.3010  144.3560 C   0  0  0  0  0  0  0  0  0  0  0  0
  189.5790  177.1750  146.7780 C   0  0  0  0  0  3  0  0  0  0  0  0
  190.7750  177.0130  144.2570 C   0  0  0  0  0  3  0  0  0  0  0  0
  189.2980  177.9670  142.0260 O   0  0  0  0  0  0  0  0  0  0  0  0
  188.5700  177.4030  143.1050 C   0  0  2  0  0  3  0  0  0  0  0  0
  186.5270  177.4880  144.5220 C   0  0  0  0  0  2  0  0  0  0  0  0
  186.4310  178.1040  142.0770 C   0  0  2  0  0  3  0  0  0  0  0  0
  187.2020  177.6850  140.9620 O   0  0  0  0  0  0  0  0  0  0  0  0
  187.3380  177.6900  145.8020 C   0  0  0  0  0  2  0  0  0  0  0  0
  189.1350  178.2380  139.6310 C   0  0  2  0  0  3  0  0  0  0  0  0
  188.9840  179.4140  138.8910 O   0  0  0  0  0  1  0  0  0  0  0  0
  188.5340  177.0650  138.8610 C   0  0  0  0  0  2  0  0  0  0  0  0
  187.8970  177.4700  137.5320 C   0  0  2  0  0  3  0  0  0  0  0  0
  186.5860  176.9980  137.4520 O   0  0  0  0  0  1  0  0  0  0  0  0
  188.7000  176.9890  136.3230 C   0  0  0  0  0  2  0  0  0  0  0  0
  189.3870  175.6390  136.5500 C   0  0  1  0  0  3  0  0  0  0  0  0
  188.9880  172.3620  135.5100 C   0  0  0  0  0  1  0  0  0  0  0  0
  188.5240  174.5770  136.2800 O   0  0  0  0  0  0  0  0  0  0  0  0
  190.5940  175.4580  135.6760 C   0  0  2  0  0  3  0  0  0  0  0  0
  190.5190  174.1610  135.1780 O   0  0  0  0  0  0  0  0  0  0  0  0
  189.1540  173.8460  135.2550 C   0  0  1  0  0  3  0  0  0  0  0  0
  193.0790  175.1500  135.9940 C   0  0  0  0  0  3  0  0  0  0  0  0
  191.8580  175.6610  136.4500 C   0  0  0  0  0  0  0  0  0  0  0  0
  192.9490  177.2710  139.6830 C   0  0  0  0  0  1  0  0  0  0  0  0
  194.1630  176.0320  137.9300 N   0  0  0  0  0  0  0  0  0  0  0  0
  192.9860  176.5340  138.3940 C   0  0  0  0  0  0  0  0  0  0  0  0
  194.2330  175.3510  136.7560 C   0  0  0  0  0  3  0  0  0  0  0  0
  191.8100  176.3540  137.6610 C   0  0  0  0  0  3  0  0  0  0  0  0
  185.8290  179.4100  141.8330 N   0  0  0  0  0  2  0  0  0  0  0  0
  184.5710  179.2050  141.1260 C   0  0  2  0  0  3  0  0  0  0  0  0
  182.5240  177.8820  141.6600 N   0  0  0  0  0  0  0  0  0  0  0  0
  183.8090  178.0150  141.6590 C   0  0  0  0  0  3  0  0  0  0  0  0
  181.4060  179.0650  141.0390 S   0  0  1  0  0  0  0  0  0  0  0  0
  181.1670  178.5720  139.3270 C   0  0  0  0  0  1  0  0  0  0  0  0
  180.0950  178.7020  141.7210 O   0  0  0  0  0  0  0  0  0  0  0  0
  184.7790  179.1490  139.6430 C   0  0  0  0  0  3  0  0  0  0  0  0
  184.4780  180.0840  138.9200 O   0  0  0  0  0  0  0  0  0  0  0  0
  1  8  1  0  0  0  0
  1  6  1  0  0  0  0
  2 12  1  1  0  0  0
  3 16  1  6  0  0  0
  3 10  1  0  0  0  0
  4 15  1  0  0  0  0
  4  8  2  0  0  0  0
  5  1  2  0  0  0  0
  7  4  1  0  0  0  0
  9  7  2  0  0  0  0
  9  5  1  0  0  0  0
 11 10  1  6  0  0  0
 11  2  1  0  0  0  0
 11  7  1  0  0  0  0
 12 15  1  0  0  0  0
 13 35  1  6  0  0  0
 13  2  1  0  0  0  0
 14  3  1  0  0  0  0
 14 13  1  0  0  0  0
 16 17  1  6  0  0  0
 18 16  1  0  0  0  0
 19 20  1  6  0  0  0
 19 18  1  0  0  0  0
 21 19  1  0  0  0  0
 22 21  1  6  0  0  0
 24 22  1  0  0  0  0
 25 29  1  1  0  0  0
 25 22  1  0  0  0  0
 26 27  1  0  0  0  0
 26 25  1  0  0  0  0
 27 23  1  1  0  0  0
 27 24  1  0  0  0  0
 28 29  2  0  0  0  0
 28 33  1  0  0  0  0
 29 34  1  0  0  0  0
 31 32  1  0  0  0  0
 32 30  1  0  0  0  0
 33 31  2  0  0  0  0
 34 32  2  0  0  0  0
 36 42  1  6  0  0  0
 36 38  1  0  0  0  0
 36 35  1  0  0  0  0
 38 37  2  0  0  0  0
 39 40  1  6  0  0  0
 39 37  1  0  0  0  0
 39 41  2  0  0  0  0
 43 42  2  0  0  0  0
M  END
>  <MODEL>
7

>  <REMARK>
 VINA RESULT:      -8.2      2.551      7.895
  Name = 
  11 active torsions:
  status: ('A' for Active; 'I' for Inactive)
    1  A    between atoms: N_1  and  C_34
    2  A    between atoms: N_1  and  CA_35
    3  A    between atoms: C_2  and  C_6
    4  A    between atoms: C_2  and  C_13
    5  A    between atoms: C_3  and  C_4
    6  A    between atoms: C_3  and  C_12
    7  A    between atoms: C_6  and  C_12
    8  A    between atoms: N_9  and  S_19
    9  A    between atoms: C_14  and  C_22
   10  A    between atoms: C_28  and  CA_35
   11  A    between atoms: C_32  and  CA_35
                            x       y       z     vdW  Elec       q    Type
                         _______ _______ _______ _____ _____    ______ ____

>  <TORSDO>
F 11

$$$$
=
 OpenBabel10272414123D

 43 47  0  0  1  0  0  0  0  0999 V2000
  190.7450  176.9070  146.7050 C   0  0  0  0  0  0  0  0  0  0  0  0
  187.2730  178.2150  143.2000 C   0  0  2  0  0  3  0  0  0  0  0  0
  188.5920  178.4740  140.8880 C   0  0  2  0  0  3  0  0  0  0  0  0
  188.6660  177.3790  145.5460 C   0  0  0  0  0  0  0  0  0  0  0  0
  191.4160  176.8320  145.4820 C   0  0  0  0  0  3  0  0  0  0  0  0
  191.4220  176.7130  147.8620 F   0  0  0  0  0  0  0  0  0  0  0  0
  189.3500  177.3370  144.3090 C   0  0  0  0  0  0  0  0  0  0  0  0
  189.3750  177.1810  146.7350 C   0  0  0  0  0  3  0  0  0  0  0  0
  190.7200  177.0370  144.2890 C   0  0  0  0  0  3  0  0  0  0  0  0
  189.3890  178.0320  141.9850 O   0  0  0  0  0  0  0  0  0  0  0  0
  188.5920  177.4630  143.0120 C   0  0  2  0  0  3  0  0  0  0  0  0
  186.4680  177.5520  144.3040 C   0  0  0  0  0  2  0  0  0  0  0  0
  186.5250  178.1980  141.8660 C   0  0  2  0  0  3  0  0  0  0  0  0
  187.3580  177.7840  140.7940 O   0  0  0  0  0  0  0  0  0  0  0  0
  187.2030  177.7310  145.6340 C   0  0  0  0  0  2  0  0  0  0  0  0
  189.3720  178.3340  139.5880 C   0  0  2  0  0  3  0  0  0  0  0  0
  188.8650  179.2250  138.6400 O   0  0  0  0  0  1  0  0  0  0  0  0
  189.2540  176.9040  139.0660 C   0  0  0  0  0  2  0  0  0  0  0  0
  190.5590  176.3580  138.4860 C   0  0  2  0  0  3  0  0  0  0  0  0
  191.6570  176.8890  139.1640 O   0  0  0  0  0  1  0  0  0  0  0  0
  190.6920  176.6210  136.9870 C   0  0  0  0  0  2  0  0  0  0  0  0
  190.4100  175.3870  136.1260 C   0  0  1  0  0  3  0  0  0  0  0  0
  192.0530  172.4840  135.2030 C   0  0  0  0  0  1  0  0  0  0  0  0
  191.5920  174.7730  135.7110 O   0  0  0  0  0  0  0  0  0  0  0  0
  189.6100  174.3490  136.8600 C   0  0  2  0  0  3  0  0  0  0  0  0
  190.2090  173.1270  136.5740 O   0  0  0  0  0  0  0  0  0  0  0  0
  191.5260  173.4660  136.2300 C   0  0  1  0  0  3  0  0  0  0  0  0
  187.7930  174.9550  135.2160 C   0  0  0  0  0  3  0  0  0  0  0  0
  188.1800  174.3590  136.4230 C   0  0  0  0  0  0  0  0  0  0  0  0
  184.8350  173.1880  137.7160 C   0  0  0  0  0  1  0  0  0  0  0  0
  185.5190  174.3830  135.6710 N   0  0  0  0  0  0  0  0  0  0  0  0
  185.8730  173.8010  136.8490 C   0  0  0  0  0  0  0  0  0  0  0  0
  186.4430  174.9550  134.8540 C   0  0  0  0  0  3  0  0  0  0  0  0
  187.2120  173.7820  137.2470 C   0  0  0  0  0  3  0  0  0  0  0  0
  185.9510  179.5120  141.6030 N   0  0  0  0  0  2  0  0  0  0  0  0
  184.6470  179.3220  140.9790 C   0  0  2  0  0  3  0  0  0  0  0  0
  183.1510  177.9010  142.3810 N   0  0  0  0  0  0  0  0  0  0  0  0
  183.9950  178.0310  141.4120 C   0  0  0  0  0  3  0  0  0  0  0  0
  182.5950  179.2070  143.3910 S   0  0  1  0  0  0  0  0  0  0  0  0
  180.8790  178.7890  143.7240 C   0  0  0  0  0  1  0  0  0  0  0  0
  183.3060  178.9570  144.7130 O   0  0  0  0  0  0  0  0  0  0  0  0
  184.7270  179.4650  139.4890 C   0  0  0  0  0  3  0  0  0  0  0  0
  184.0090  180.2430  138.8830 O   0  0  0  0  0  0  0  0  0  0  0  0
  1  8  1  0  0  0  0
  1  6  1  0  0  0  0
  2 12  1  1  0  0  0
  3 16  1  6  0  0  0
  3 10  1  0  0  0  0
  4 15  1  0  0  0  0
  4  8  2  0  0  0  0
  5  1  2  0  0  0  0
  7  4  1  0  0  0  0
  9  7  2  0  0  0  0
  9  5  1  0  0  0  0
 11 10  1  6  0  0  0
 11  2  1  0  0  0  0
 11  7  1  0  0  0  0
 12 15  1  0  0  0  0
 13 35  1  6  0  0  0
 13  2  1  0  0  0  0
 14  3  1  0  0  0  0
 14 13  1  0  0  0  0
 16 17  1  6  0  0  0
 18 16  1  0  0  0  0
 19 18  1  0  0  0  0
 19 20  1  1  0  0  0
 21 19  1  0  0  0  0
 22 25  1  0  0  0  0
 22 21  1  1  0  0  0
 24 22  1  0  0  0  0
 24 27  1  0  0  0  0
 25 29  1  6  0  0  0
 26 25  1  0  0  0  0
 27 23  1  6  0  0  0
 27 26  1  0  0  0  0
 28 29  1  0  0  0  0
 29 34  2  0  0  0  0
 31 32  2  0  0  0  0
 32 34  1  0  0  0  0
 32 30  1  0  0  0  0
 33 28  2  0  0  0  0
 33 31  1  0  0  0  0
 36 42  1  6  0  0  0
 36 38  1  0  0  0  0
 36 35  1  0  0  0  0
 37 39  1  0  0  0  0
 38 37  2  0  0  0  0
 39 40  1  1  0  0  0
 39 41  2  0  0  0  0
 43 42  2  0  0  0  0
M  END
>  <MODEL>
8

>  <REMARK>
 VINA RESULT:      -8.1      3.068      7.638
  Name = 
  11 active torsions:
  status: ('A' for Active; 'I' for Inactive)
    1  A    between atoms: N_1  and  C_34
    2  A    between atoms: N_1  and  CA_35
    3  A    between atoms: C_2  and  C_6
    4  A    between atoms: C_2  and  C_13
    5  A    between atoms: C_3  and  C_4
    6  A    between atoms: C_3  and  C_12
    7  A    between atoms: C_6  and  C_12
    8  A    between atoms: N_9  and  S_19
    9  A    between atoms: C_14  and  C_22
   10  A    between atoms: C_28  and  CA_35
   11  A    between atoms: C_32  and  CA_35
                            x       y       z     vdW  Elec       q    Type
                         _______ _______ _______ _____ _____    ______ ____

>  <TORSDO>
F 11

$$$$
=
 OpenBabel10272414123D

 43 47  0  0  1  0  0  0  0  0999 V2000
  187.7650  177.4770  145.1330 C   0  0  0  0  0  0  0  0  0  0  0  0
  190.1250  176.5440  140.7040 C   0  0  2  0  0  3  0  0  0  0  0  0
  188.4300  177.2880  138.7730 C   0  0  2  0  0  3  0  0  0  0  0  0
  189.4160  176.9260  143.4430 C   0  0  0  0  0  0  0  0  0  0  0  0
  186.9540  178.0620  144.1580 C   0  0  0  0  0  3  0  0  0  0  0  0
  187.3640  177.4610  146.4260 F   0  0  0  0  0  0  0  0  0  0  0  0
  188.5800  177.4870  142.4480 C   0  0  0  0  0  0  0  0  0  0  0  0
  188.9910  176.9110  144.7750 C   0  0  0  0  0  3  0  0  0  0  0  0
  187.3640  178.0750  142.8230 C   0  0  0  0  0  3  0  0  0  0  0  0
  187.9760  177.5470  140.1000 O   0  0  0  0  0  0  0  0  0  0  0  0
  189.0540  177.5910  141.0210 C   0  0  2  0  0  3  0  0  0  0  0  0
  191.2490  176.6500  141.7200 C   0  0  0  0  0  2  0  0  0  0  0  0
  190.6220  176.7940  139.2800 C   0  0  2  0  0  3  0  0  0  0  0  0
  189.7760  177.6830  138.5680 O   0  0  0  0  0  0  0  0  0  0  0  0
  190.7180  176.2490  143.0970 C   0  0  0  0  0  2  0  0  0  0  0  0
  187.5220  177.9810  137.7670 C   0  0  2  0  0  3  0  0  0  0  0  0
  188.1370  179.1490  137.3090 O   0  0  0  0  0  1  0  0  0  0  0  0
  186.1880  178.3250  138.4260 C   0  0  0  0  0  2  0  0  0  0  0  0
  184.9910  177.6330  137.7750 C   0  0  2  0  0  3  0  0  0  0  0  0
  185.2850  177.2830  136.4560 O   0  0  0  0  0  1  0  0  0  0  0  0
  183.7220  178.4840  137.8200 C   0  0  0  0  0  2  0  0  0  0  0  0
  182.5380  177.7740  138.4820 C   0  0  1  0  0  3  0  0  0  0  0  0
  180.9760  174.6910  138.2920 C   0  0  0  0  0  1  0  0  0  0  0  0
  182.0570  176.7340  137.6860 O   0  0  0  0  0  0  0  0  0  0  0  0
  182.9000  177.1770  139.8110 C   0  0  2  0  0  3  0  0  0  0  0  0
  182.3340  175.9070  139.8320 O   0  0  0  0  0  0  0  0  0  0  0  0
  182.1920  175.5770  138.4750 C   0  0  1  0  0  3  0  0  0  0  0  0
  181.0700  178.5050  140.9330 C   0  0  0  0  0  3  0  0  0  0  0  0
  182.3800  178.0120  140.9390 C   0  0  0  0  0  0  0  0  0  0  0  0
  183.6430  179.4470  144.1910 C   0  0  0  0  0  1  0  0  0  0  0  0
  181.4730  179.5780  143.0280 N   0  0  0  0  0  0  0  0  0  0  0  0
  182.7510  179.1120  143.0510 C   0  0  0  0  0  0  0  0  0  0  0  0
  180.6310  179.2940  142.0000 C   0  0  0  0  0  3  0  0  0  0  0  0
  183.2280  178.3220  142.0030 C   0  0  0  0  0  3  0  0  0  0  0  0
  190.7580  175.5260  138.5730 N   0  0  0  0  0  2  0  0  0  0  0  0
  191.9520  175.5950  137.7410 C   0  0  2  0  0  3  0  0  0  0  0  0
  194.2870  175.8110  138.5930 N   0  0  0  0  0  0  0  0  0  0  0  0
  193.0950  176.2860  138.4460 C   0  0  0  0  0  3  0  0  0  0  0  0
  194.8150  174.2610  138.0010 S   0  0  1  0  0  0  0  0  0  0  0  0
  196.1870  174.6640  136.9110 C   0  0  0  0  0  1  0  0  0  0  0  0
  195.4750  173.6260  139.2160 O   0  0  0  0  0  0  0  0  0  0  0  0
  191.6500  176.1880  136.3980 C   0  0  0  0  0  3  0  0  0  0  0  0
  190.6310  175.9060  135.7890 O   0  0  0  0  0  0  0  0  0  0  0  0
  1  6  1  0  0  0  0
  2 11  1  0  0  0  0
  2 12  1  1  0  0  0
  3 16  1  6  0  0  0
  3 10  1  0  0  0  0
  4  8  2  0  0  0  0
  5  1  2  0  0  0  0
  7  9  2  0  0  0  0
  7  4  1  0  0  0  0
  8  1  1  0  0  0  0
  9  5  1  0  0  0  0
 11 10  1  6  0  0  0
 11  7  1  0  0  0  0
 12 15  1  0  0  0  0
 13 35  1  6  0  0  0
 13  2  1  0  0  0  0
 14  3  1  0  0  0  0
 14 13  1  0  0  0  0
 15  4  1  0  0  0  0
 16 17  1  1  0  0  0
 16 18  1  0  0  0  0
 19 20  1  6  0  0  0
 19 21  1  0  0  0  0
 19 18  1  0  0  0  0
 22 21  1  6  0  0  0
 22 25  1  0  0  0  0
 24 27  1  0  0  0  0
 24 22  1  0  0  0  0
 25 26  1  0  0  0  0
 25 29  1  1  0  0  0
 27 23  1  1  0  0  0
 27 26  1  0  0  0  0
 28 29  2  0  0  0  0
 28 33  1  0  0  0  0
 29 34  1  0  0  0  0
 31 32  1  0  0  0  0
 32 30  1  0  0  0  0
 33 31  2  0  0  0  0
 34 32  2  0  0  0  0
 36 42  1  6  0  0  0
 36 38  1  0  0  0  0
 36 35  1  0  0  0  0
 38 37  2  0  0  0  0
 39 40  1  6  0  0  0
 39 37  1  0  0  0  0
 39 41  2  0  0  0  0
 43 42  2  0  0  0  0
M  END
>  <MODEL>
9

>  <REMARK>
 VINA RESULT:      -8.1      1.864      2.594
  Name = 
  11 active torsions:
  status: ('A' for Active; 'I' for Inactive)
    1  A    between atoms: N_1  and  C_34
    2  A    between atoms: N_1  and  CA_35
    3  A    between atoms: C_2  and  C_6
    4  A    between atoms: C_2  and  C_13
    5  A    between atoms: C_3  and  C_4
    6  A    between atoms: C_3  and  C_12
    7  A    between atoms: C_6  and  C_12
    8  A    between atoms: N_9  and  S_19
    9  A    between atoms: C_14  and  C_22
   10  A    between atoms: C_28  and  CA_35
   11  A    between atoms: C_32  and  CA_35
                            x       y       z     vdW  Elec       q    Type
                         _______ _______ _______ _____ _____    ______ ____

>  <TORSDO>
F 11

$$$$
