=
 OpenBabel10272414173D

 43 49  0  0  1  0  0  0  0  0999 V2000
  187.7840  177.6110  147.1430 C   0  0  0  0  0  0  0  0  0  0  0  0
  185.7340  178.5960  142.6280 C   0  0  0  0  0  0  0  0  0  0  0  0
  187.7790  178.3420  140.7930 C   0  0  0  0  0  0  0  0  0  0  0  0
  186.2510  178.1660  145.3520 C   0  0  0  0  0  0  0  0  0  0  0  0
  188.8260  177.4880  146.2190 C   0  0  0  0  0  3  0  0  0  0  0  0
  188.0440  177.3860  148.5880 C   0  0  0  0  0  1  0  0  0  0  0  0
  187.3020  178.0420  144.4100 C   0  0  0  0  0  0  0  0  0  0  0  0
  186.5000  177.9490  146.7100 C   0  0  0  0  0  3  0  0  0  0  0  0
  188.5870  177.7020  144.8590 C   0  0  0  0  0  3  0  0  0  0  0  0
  188.0280  178.1450  142.1170 N   0  0  0  0  0  0  0  0  0  0  0  0
  187.0400  178.2590  143.0450 C   0  0  0  0  0  0  0  0  0  0  0  0
  184.7060  178.7170  143.5710 C   0  0  0  0  0  3  0  0  0  0  0  0
  185.5000  178.8030  141.2630 C   0  0  0  0  0  0  0  0  0  0  0  0
  186.5270  178.6700  140.3800 N   0  0  0  0  0  0  0  0  0  0  0  0
  184.9640  178.5020  144.9270 C   0  0  0  0  0  3  0  0  0  0  0  0
  188.8750  178.2160  139.7870 C   0  0  1  0  0  3  0  0  0  0  0  0
  189.9400  177.2600  140.2940 C   0  0  0  0  0  1  0  0  0  0  0  0
  188.3210  177.7430  138.4500 C   0  0  0  0  0  2  0  0  0  0  0  0
  188.9090  178.5140  137.3130 C   0  0  0  0  0  0  0  0  0  0  0  0
  189.0080  179.7300  137.3800 O   0  0  0  0  0  0  0  0  0  0  0  0
  189.3740  177.7890  136.0930 C   0  0  0  0  0  2  0  0  0  0  0  0
  189.7380  176.3390  136.4240 C   0  0  2  0  0  3  0  0  0  0  0  0
  190.3100  174.5390  134.3460 C   0  0  0  0  0  2  0  0  0  0  0  0
  191.0810  176.0360  136.0980 O   0  0  0  0  0  0  0  0  0  0  0  0
  188.7460  175.2760  135.8850 C   0  0  2  0  0  3  0  0  0  0  0  0
  189.4380  174.1460  135.3910 O   0  0  0  0  0  0  0  0  0  0  0  0
  191.1610  175.7650  134.7170 C   0  0  0  0  0  2  0  0  0  0  0  0
  187.8240  175.8100  134.8800 N   0  0  0  0  0  2  0  0  0  0  0  0
  186.6040  176.0740  135.5170 N   0  0  0  0  0  0  0  0  0  0  0  0
  184.3540  176.7190  134.8130 C   0  0  0  0  0  2  0  0  0  0  0  0
  185.0280  175.9400  137.0930 C   0  0  0  0  0  3  0  0  0  0  0  0
  184.6400  177.1260  136.2500 C   0  0  1  0  0  3  0  0  0  0  0  0
  186.1480  175.3870  136.6640 C   0  0  0  0  0  3  0  0  0  0  0  0
  185.7440  177.1990  135.1940 C   0  0  1  0  0  3  0  0  0  0  0  0
  184.2190  179.1440  140.8150 O   0  0  0  0  0  0  0  0  0  0  0  0
  181.9050  178.9520  137.8790 C   0  0  0  0  0  3  0  0  0  0  0  0
  181.5180  177.6770  137.9970 C   0  0  0  0  0  0  0  0  0  0  0  0
  182.9230  177.3210  139.9620 C   0  0  0  0  0  3  0  0  0  0  0  0
  182.7060  179.6070  138.9710 C   0  0  0  0  0  2  0  0  0  0  0  0
  183.6530  178.5950  139.6320 C   0  0  1  0  0  3  0  0  0  0  0  0
  181.9470  176.8780  139.1630 C   0  0  0  0  0  3  0  0  0  0  0  0
  181.2580  175.9300  136.4330 O   0  0  0  0  0  1  0  0  0  0  0  0
  180.6440  177.0670  136.9570 C   0  0  0  0  0  2  0  0  0  0  0  0
  1  6  1  0  0  0  0
  2 11  2  0  0  0  0
  2 12  1  0  0  0  0
  3 10  2  0  0  0  0
  4  8  2  0  0  0  0
  5  1  2  0  0  0  0
  7  9  2  0  0  0  0
  7  4  1  0  0  0  0
  8  1  1  0  0  0  0
  9  5  1  0  0  0  0
 10 11  1  0  0  0  0
 11  7  1  0  0  0  0
 12 15  2  0  0  0  0
 13  2  1  0  0  0  0
 14  3  1  0  0  0  0
 14 13  2  0  0  0  0
 15  4  1  0  0  0  0
 16 17  1  1  0  0  0
 16  3  1  0  0  0  0
 18 16  1  0  0  0  0
 19 20  2  0  0  0  0
 19 18  1  0  0  0  0
 21 19  1  0  0  0  0
 22 21  1  6  0  0  0
 23 27  1  0  0  0  0
 23 26  1  0  0  0  0
 24 22  1  0  0  0  0
 25 28  1  6  0  0  0
 25 22  1  0  0  0  0
 26 25  1  0  0  0  0
 27 24  1  0  0  0  0
 28 29  1  0  0  0  0
 29 33  1  0  0  0  0
 32 30  1  6  0  0  0
 32 31  1  0  0  0  0
 33 31  2  0  0  0  0
 34 30  1  6  0  0  0
 34 29  1  0  0  0  0
 34 32  1  0  0  0  0
 35 13  1  0  0  0  0
 36 37  2  0  0  0  0
 36 39  1  0  0  0  0
 37 41  1  0  0  0  0
 39 40  1  0  0  0  0
 40 38  1  0  0  0  0
 40 35  1  1  0  0  0
 41 38  2  0  0  0  0
 42 43  1  0  0  0  0
 43 37  1  0  0  0  0
M  END
>  <MODEL>
1

>  <REMARK>
 VINA RESULT:      -8.9      0.000      0.000
  Name = 
  10 active torsions:
  status: ('A' for Active; 'I' for Inactive)
    1  A    between atoms: O_1  and  C_34
    2  A    between atoms: O_1  and  C_35
    3  A    between atoms: C_2  and  C_6
    4  A    between atoms: C_2  and  C_13
    5  A    between atoms: C_3  and  C_4
    6  A    between atoms: C_3  and  C_12
    7  A    between atoms: C_6  and  C_12
    8  A    between atoms: N_11  and  N_14
    9  A    between atoms: N_14  and  C_22
   10  A    between atoms: C_19  and  C_37
                            x       y       z     vdW  Elec       q    Type
                         _______ _______ _______ _____ _____    ______ ____

>  <TORSDO>
F 10

$$$$
=
 OpenBabel10272414173D

 43 49  0  0  1  0  0  0  0  0999 V2000
  187.6530  177.5490  147.0260 C   0  0  0  0  0  0  0  0  0  0  0  0
  185.8880  178.7440  142.4420 C   0  0  0  0  0  0  0  0  0  0  0  0
  187.9390  178.2090  140.6750 C   0  0  0  0  0  0  0  0  0  0  0  0
  186.2610  178.2790  145.1830 C   0  0  0  0  0  0  0  0  0  0  0  0
  188.6990  177.2830  146.1370 C   0  0  0  0  0  3  0  0  0  0  0  0
  187.8370  177.3080  148.4800 C   0  0  0  0  0  1  0  0  0  0  0  0
  187.3160  178.0110  144.2760 C   0  0  0  0  0  0  0  0  0  0  0  0
  186.4370  178.0460  146.5500 C   0  0  0  0  0  3  0  0  0  0  0  0
  188.5310  177.5120  144.7680 C   0  0  0  0  0  3  0  0  0  0  0  0
  188.1190  177.9950  142.0070 N   0  0  0  0  0  0  0  0  0  0  0  0
  187.1260  178.2460  142.9020 C   0  0  0  0  0  0  0  0  0  0  0  0
  184.8560  179.0060  143.3510 C   0  0  0  0  0  3  0  0  0  0  0  0
  185.7250  178.9650  141.0690 C   0  0  0  0  0  0  0  0  0  0  0  0
  186.7530  178.6920  140.2200 N   0  0  0  0  0  0  0  0  0  0  0  0
  185.0420  178.7730  144.7160 C   0  0  0  0  0  3  0  0  0  0  0  0
  189.0400  177.9330  139.7050 C   0  0  1  0  0  3  0  0  0  0  0  0
  190.0640  177.0030  140.3320 C   0  0  0  0  0  1  0  0  0  0  0  0
  188.4830  177.3310  138.4220 C   0  0  0  0  0  2  0  0  0  0  0  0
  189.1750  177.8820  137.2170 C   0  0  0  0  0  0  0  0  0  0  0  0
  189.1870  179.0870  137.0110 O   0  0  0  0  0  0  0  0  0  0  0  0
  189.8520  176.9510  136.2660 C   0  0  0  0  0  2  0  0  0  0  0  0
  190.5790  175.8330  137.0180 C   0  0  2  0  0  3  0  0  0  0  0  0
  191.7380  173.7160  135.5840 C   0  0  0  0  0  2  0  0  0  0  0  0
  191.9700  175.8300  136.7590 O   0  0  0  0  0  0  0  0  0  0  0  0
  189.9470  174.4260  136.8680 C   0  0  2  0  0  3  0  0  0  0  0  0
  190.9490  173.4370  136.7260 O   0  0  0  0  0  0  0  0  0  0  0  0
  192.1990  175.1820  135.5280 C   0  0  0  0  0  2  0  0  0  0  0  0
  188.9740  174.3480  135.7770 N   0  0  0  0  0  2  0  0  0  0  0  0
  187.7360  173.9960  136.3330 N   0  0  0  0  0  0  0  0  0  0  0  0
  185.3870  174.4510  135.8330 C   0  0  0  0  0  2  0  0  0  0  0  0
  186.2570  172.7570  137.4560 C   0  0  0  0  0  3  0  0  0  0  0  0
  185.6010  174.1040  137.2970 C   0  0  1  0  0  3  0  0  0  0  0  0
  187.4630  172.7400  136.9210 C   0  0  0  0  0  3  0  0  0  0  0  0
  186.6430  174.9300  136.5410 C   0  0  1  0  0  3  0  0  0  0  0  0
  184.5140  179.4640  140.5780 O   0  0  0  0  0  0  0  0  0  0  0  0
  182.6240  176.3580  139.6860 C   0  0  0  0  0  3  0  0  0  0  0  0
  182.8050  176.3720  138.3610 C   0  0  0  0  0  0  0  0  0  0  0  0
  184.0970  178.4430  138.4530 C   0  0  0  0  0  3  0  0  0  0  0  0
  183.3810  177.3140  140.5670 C   0  0  0  0  0  2  0  0  0  0  0  0
  183.5930  178.6580  139.8540 C   0  0  1  0  0  3  0  0  0  0  0  0
  183.6880  177.3840  137.7450 C   0  0  0  0  0  3  0  0  0  0  0  0
  181.0700  174.7820  138.2120 O   0  0  0  0  0  1  0  0  0  0  0  0
  182.1270  175.3580  137.5080 C   0  0  0  0  0  2  0  0  0  0  0  0
  1  6  1  0  0  0  0
  2 11  2  0  0  0  0
  2 12  1  0  0  0  0
  3 10  2  0  0  0  0
  4  8  2  0  0  0  0
  5  1  2  0  0  0  0
  7  9  2  0  0  0  0
  7  4  1  0  0  0  0
  8  1  1  0  0  0  0
  9  5  1  0  0  0  0
 10 11  1  0  0  0  0
 11  7  1  0  0  0  0
 12 15  2  0  0  0  0
 13  2  1  0  0  0  0
 14  3  1  0  0  0  0
 14 13  2  0  0  0  0
 15  4  1  0  0  0  0
 16 17  1  1  0  0  0
 16  3  1  0  0  0  0
 18 16  1  0  0  0  0
 19 18  1  0  0  0  0
 20 19  2  0  0  0  0
 21 19  1  0  0  0  0
 22 21  1  6  0  0  0
 23 26  1  0  0  0  0
 24 22  1  0  0  0  0
 25 28  1  6  0  0  0
 25 22  1  0  0  0  0
 26 25  1  0  0  0  0
 27 23  1  0  0  0  0
 27 24  1  0  0  0  0
 28 29  1  0  0  0  0
 29 34  1  0  0  0  0
 29 33  1  0  0  0  0
 32 30  1  6  0  0  0
 32 31  1  0  0  0  0
 33 31  2  0  0  0  0
 34 30  1  6  0  0  0
 34 32  1  0  0  0  0
 35 13  1  0  0  0  0
 36 39  1  0  0  0  0
 37 36  2  0  0  0  0
 38 40  1  0  0  0  0
 40 39  1  0  0  0  0
 40 35  1  1  0  0  0
 41 37  1  0  0  0  0
 41 38  2  0  0  0  0
 43 42  1  0  0  0  0
 43 37  1  0  0  0  0
M  END
>  <MODEL>
2

>  <REMARK>
 VINA RESULT:      -8.8      1.323      1.671
  Name = 
  10 active torsions:
  status: ('A' for Active; 'I' for Inactive)
    1  A    between atoms: O_1  and  C_34
    2  A    between atoms: O_1  and  C_35
    3  A    between atoms: C_2  and  C_6
    4  A    between atoms: C_2  and  C_13
    5  A    between atoms: C_3  and  C_4
    6  A    between atoms: C_3  and  C_12
    7  A    between atoms: C_6  and  C_12
    8  A    between atoms: N_11  and  N_14
    9  A    between atoms: N_14  and  C_22
   10  A    between atoms: C_19  and  C_37
                            x       y       z     vdW  Elec       q    Type
                         _______ _______ _______ _____ _____    ______ ____

>  <TORSDO>
F 10

$$$$
=
 OpenBabel10272414173D

 43 49  0  0  1  0  0  0  0  0999 V2000
  191.4730  176.2470  146.9290 C   0  0  0  0  0  0  0  0  0  0  0  0
  187.5660  178.0220  144.2570 C   0  0  0  0  0  0  0  0  0  0  0  0
  188.4030  178.0710  141.6280 C   0  0  0  0  0  0  0  0  0  0  0  0
  189.3160  177.1200  146.2550 C   0  0  0  0  0  0  0  0  0  0  0  0
  191.9060  176.2770  145.6000 C   0  0  0  0  0  3  0  0  0  0  0  0
  192.3900  175.7720  147.9970 C   0  0  0  0  0  1  0  0  0  0  0  0
  189.7480  177.1520  144.9060 C   0  0  0  0  0  0  0  0  0  0  0  0
  190.1820  176.6680  147.2560 C   0  0  0  0  0  3  0  0  0  0  0  0
  191.0480  176.7260  144.5930 C   0  0  0  0  0  3  0  0  0  0  0  0
  189.2530  177.6450  142.6020 N   0  0  0  0  0  0  0  0  0  0  0  0
  188.8690  177.6050  143.9060 C   0  0  0  0  0  0  0  0  0  0  0  0
  187.1550  177.9860  145.5950 C   0  0  0  0  0  3  0  0  0  0  0  0
  186.7100  178.4650  143.2420 C   0  0  0  0  0  0  0  0  0  0  0  0
  187.1490  178.4780  141.9540 N   0  0  0  0  0  0  0  0  0  0  0  0
  188.0270  177.5360  146.5890 C   0  0  0  0  0  3  0  0  0  0  0  0
  188.8410  178.1130  140.2010 C   0  0  1  0  0  3  0  0  0  0  0  0
  189.8930  177.0460  139.9500 C   0  0  0  0  0  1  0  0  0  0  0  0
  187.6510  177.9220  139.2710 C   0  0  0  0  0  2  0  0  0  0  0  0
  188.0230  178.1920  137.8490 C   0  0  0  0  0  0  0  0  0  0  0  0
  188.5960  179.2280  137.5480 O   0  0  0  0  0  0  0  0  0  0  0  0
  187.6890  177.1860  136.7970 C   0  0  0  0  0  2  0  0  0  0  0  0
  187.6200  175.7760  137.3900 C   0  0  2  0  0  3  0  0  0  0  0  0
  187.3740  173.5590  135.6840 C   0  0  0  0  0  2  0  0  0  0  0  0
  188.7590  175.0020  137.0640 O   0  0  0  0  0  0  0  0  0  0  0  0
  186.2950  175.0180  137.1220 C   0  0  2  0  0  3  0  0  0  0  0  0
  186.5440  173.6570  136.8280 O   0  0  0  0  0  0  0  0  0  0  0  0
  188.5980  174.4860  135.7620 C   0  0  0  0  0  2  0  0  0  0  0  0
  185.4790  175.6410  136.0780 N   0  0  0  0  0  2  0  0  0  0  0  0
  184.3000  176.1050  136.6770 N   0  0  0  0  0  0  0  0  0  0  0  0
  182.9930  175.5410  138.6640 C   0  0  0  0  0  2  0  0  0  0  0  0
  182.6980  177.5620  137.2200 C   0  0  0  0  0  3  0  0  0  0  0  0
  182.1460  176.2130  137.5960 C   0  0  1  0  0  3  0  0  0  0  0  0
  183.9020  177.4610  136.6870 C   0  0  0  0  0  3  0  0  0  0  0  0
  183.2570  175.2400  137.1990 C   0  0  1  0  0  3  0  0  0  0  0  0
  185.4140  178.8920  143.5530 O   0  0  0  0  0  0  0  0  0  0  0  0
  182.8320  178.5340  140.8660 C   0  0  0  0  0  3  0  0  0  0  0  0
  181.7320  178.5350  141.6280 C   0  0  0  0  0  0  0  0  0  0  0  0
  183.0280  178.7440  143.6870 C   0  0  0  0  0  3  0  0  0  0  0  0
  184.1710  178.8690  141.4650 C   0  0  0  0  0  2  0  0  0  0  0  0
  184.2610  178.3620  142.9120 C   0  0  1  0  0  3  0  0  0  0  0  0
  181.8370  178.7830  143.0800 C   0  0  0  0  0  3  0  0  0  0  0  0
  180.4120  178.7390  139.6840 O   0  0  0  0  0  1  0  0  0  0  0  0
  180.4000  178.2990  141.0070 C   0  0  0  0  0  2  0  0  0  0  0  0
  1  8  1  0  0  0  0
  1  6  1  0  0  0  0
  2 12  1  0  0  0  0
  3 14  1  0  0  0  0
  3 10  2  0  0  0  0
  4 15  1  0  0  0  0
  4  8  2  0  0  0  0
  5  1  2  0  0  0  0
  7  4  1  0  0  0  0
  9  7  2  0  0  0  0
  9  5  1  0  0  0  0
 10 11  1  0  0  0  0
 11  2  2  0  0  0  0
 11  7  1  0  0  0  0
 12 15  2  0  0  0  0
 13 35  1  0  0  0  0
 13  2  1  0  0  0  0
 14 13  2  0  0  0  0
 16 17  1  1  0  0  0
 16  3  1  0  0  0  0
 18 16  1  0  0  0  0
 19 18  1  0  0  0  0
 20 19  2  0  0  0  0
 21 19  1  0  0  0  0
 22 21  1  6  0  0  0
 23 27  1  0  0  0  0
 23 26  1  0  0  0  0
 24 22  1  0  0  0  0
 25 28  1  6  0  0  0
 25 22  1  0  0  0  0
 26 25  1  0  0  0  0
 27 24  1  0  0  0  0
 28 29  1  0  0  0  0
 29 33  1  0  0  0  0
 29 34  1  0  0  0  0
 32 31  1  6  0  0  0
 32 30  1  0  0  0  0
 33 31  2  0  0  0  0
 34 32  1  0  0  0  0
 34 30  1  1  0  0  0
 36 39  1  0  0  0  0
 36 37  2  0  0  0  0
 37 41  1  0  0  0  0
 39 40  1  0  0  0  0
 40 35  1  1  0  0  0
 40 38  1  0  0  0  0
 41 38  2  0  0  0  0
 42 43  1  0  0  0  0
 43 37  1  0  0  0  0
M  END
>  <MODEL>
3

>  <REMARK>
 VINA RESULT:      -8.8      1.948      3.018
  Name = 
  10 active torsions:
  status: ('A' for Active; 'I' for Inactive)
    1  A    between atoms: O_1  and  C_34
    2  A    between atoms: O_1  and  C_35
    3  A    between atoms: C_2  and  C_6
    4  A    between atoms: C_2  and  C_13
    5  A    between atoms: C_3  and  C_4
    6  A    between atoms: C_3  and  C_12
    7  A    between atoms: C_6  and  C_12
    8  A    between atoms: N_11  and  N_14
    9  A    between atoms: N_14  and  C_22
   10  A    between atoms: C_19  and  C_37
                            x       y       z     vdW  Elec       q    Type
                         _______ _______ _______ _____ _____    ______ ____

>  <TORSDO>
F 10

$$$$
=
 OpenBabel10272414173D

 43 49  0  0  1  0  0  0  0  0999 V2000
  191.3200  176.5600  146.9480 C   0  0  0  0  0  0  0  0  0  0  0  0
  187.1030  177.8300  144.4660 C   0  0  0  0  0  0  0  0  0  0  0  0
  187.8400  178.1430  141.8250 C   0  0  0  0  0  0  0  0  0  0  0  0
  189.0330  177.1160  146.3710 C   0  0  0  0  0  0  0  0  0  0  0  0
  191.7010  176.7240  145.6130 C   0  0  0  0  0  3  0  0  0  0  0  0
  192.3320  176.1820  147.9670 C   0  0  0  0  0  1  0  0  0  0  0  0
  189.4130  177.2830  145.0160 C   0  0  0  0  0  0  0  0  0  0  0  0
  189.9890  176.7560  147.3260 C   0  0  0  0  0  3  0  0  0  0  0  0
  190.7530  177.0840  144.6510 C   0  0  0  0  0  3  0  0  0  0  0  0
  188.7760  177.8070  142.7550 N   0  0  0  0  0  0  0  0  0  0  0  0
  188.4430  177.6420  144.0630 C   0  0  0  0  0  0  0  0  0  0  0  0
  186.7440  177.6630  145.8090 C   0  0  0  0  0  3  0  0  0  0  0  0
  186.1570  178.1840  143.4960 C   0  0  0  0  0  0  0  0  0  0  0  0
  186.5480  178.3300  142.2010 N   0  0  0  0  0  0  0  0  0  0  0  0
  187.7060  177.3070  146.7570 C   0  0  0  0  0  3  0  0  0  0  0  0
  188.2220  178.3240  140.3930 C   0  0  1  0  0  3  0  0  0  0  0  0
  189.2950  177.3200  140.0100 C   0  0  0  0  0  1  0  0  0  0  0  0
  187.0030  178.1770  139.4920 C   0  0  0  0  0  2  0  0  0  0  0  0
  187.3920  178.1510  138.0500 C   0  0  0  0  0  0  0  0  0  0  0  0
  187.9330  179.1210  137.5410 O   0  0  0  0  0  0  0  0  0  0  0  0
  187.1160  176.9310  137.2330 C   0  0  0  0  0  2  0  0  0  0  0  0
  187.8020  177.0200  135.8670 C   0  0  2  0  0  3  0  0  0  0  0  0
  188.1770  174.6900  134.3460 C   0  0  0  0  0  2  0  0  0  0  0  0
  186.9180  176.7170  134.8040 O   0  0  0  0  0  0  0  0  0  0  0  0
  189.1430  176.2500  135.7580 C   0  0  2  0  0  3  0  0  0  0  0  0
  189.2510  175.6010  134.5060 O   0  0  0  0  0  0  0  0  0  0  0  0
  186.8150  175.3160  134.6870 C   0  0  0  0  0  2  0  0  0  0  0  0
  189.3540  175.3070  136.8580 N   0  0  0  0  0  2  0  0  0  0  0  0
  190.7310  175.2500  137.1140 N   0  0  0  0  0  0  0  0  0  0  0  0
  192.3250  176.5140  138.4690 C   0  0  0  0  0  2  0  0  0  0  0  0
  192.7500  174.3250  137.3350 C   0  0  0  0  0  3  0  0  0  0  0  0
  193.0000  175.8100  137.3030 C   0  0  1  0  0  3  0  0  0  0  0  0
  191.4670  174.0470  137.2060 C   0  0  0  0  0  3  0  0  0  0  0  0
  191.6030  176.4110  137.1360 C   0  0  1  0  0  3  0  0  0  0  0  0
  184.8210  178.3850  143.8600 O   0  0  0  0  0  0  0  0  0  0  0  0
  181.3910  179.1610  142.5750 C   0  0  0  0  0  3  0  0  0  0  0  0
  181.5240  178.7040  141.3250 C   0  0  0  0  0  0  0  0  0  0  0  0
  183.8460  178.0470  141.6990 C   0  0  0  0  0  3  0  0  0  0  0  0
  182.4580  178.8900  143.6010 C   0  0  0  0  0  2  0  0  0  0  0  0
  183.8480  178.8840  142.9500 C   0  0  1  0  0  3  0  0  0  0  0  0
  182.7600  178.0020  140.9210 C   0  0  0  0  0  3  0  0  0  0  0  0
  180.7360  178.2480  139.1490 O   0  0  0  0  0  1  0  0  0  0  0  0
  180.4200  178.8930  140.3450 C   0  0  0  0  0  2  0  0  0  0  0  0
  1  8  1  0  0  0  0
  1  6  1  0  0  0  0
  2 12  1  0  0  0  0
  3 14  1  0  0  0  0
  3 10  2  0  0  0  0
  4 15  1  0  0  0  0
  4  8  2  0  0  0  0
  5  1  2  0  0  0  0
  7  4  1  0  0  0  0
  9  7  2  0  0  0  0
  9  5  1  0  0  0  0
 10 11  1  0  0  0  0
 11  2  2  0  0  0  0
 11  7  1  0  0  0  0
 12 15  2  0  0  0  0
 13 35  1  0  0  0  0
 13  2  1  0  0  0  0
 14 13  2  0  0  0  0
 16 17  1  6  0  0  0
 16  3  1  0  0  0  0
 18 16  1  0  0  0  0
 19 18  1  0  0  0  0
 20 19  2  0  0  0  0
 21 19  1  0  0  0  0
 22 21  1  1  0  0  0
 23 26  1  0  0  0  0
 23 27  1  0  0  0  0
 24 22  1  0  0  0  0
 25 22  1  0  0  0  0
 25 28  1  1  0  0  0
 26 25  1  0  0  0  0
 27 24  1  0  0  0  0
 28 29  1  0  0  0  0
 29 34  1  0  0  0  0
 29 33  1  0  0  0  0
 32 31  1  1  0  0  0
 32 30  1  0  0  0  0
 33 31  2  0  0  0  0
 34 32  1  0  0  0  0
 34 30  1  1  0  0  0
 36 39  1  0  0  0  0
 37 36  2  0  0  0  0
 38 40  1  0  0  0  0
 40 39  1  0  0  0  0
 40 35  1  1  0  0  0
 41 37  1  0  0  0  0
 41 38  2  0  0  0  0
 42 43  1  0  0  0  0
 43 37  1  0  0  0  0
M  END
>  <MODEL>
4

>  <REMARK>
 VINA RESULT:      -8.6      2.218      3.771
  Name = 
  10 active torsions:
  status: ('A' for Active; 'I' for Inactive)
    1  A    between atoms: O_1  and  C_34
    2  A    between atoms: O_1  and  C_35
    3  A    between atoms: C_2  and  C_6
    4  A    between atoms: C_2  and  C_13
    5  A    between atoms: C_3  and  C_4
    6  A    between atoms: C_3  and  C_12
    7  A    between atoms: C_6  and  C_12
    8  A    between atoms: N_11  and  N_14
    9  A    between atoms: N_14  and  C_22
   10  A    between atoms: C_19  and  C_37
                            x       y       z     vdW  Elec       q    Type
                         _______ _______ _______ _____ _____    ______ ____

>  <TORSDO>
F 10

$$$$
=
 OpenBabel10272414173D

 43 49  0  0  1  0  0  0  0  0999 V2000
  184.9970  178.6140  145.3110 C   0  0  0  0  0  0  0  0  0  0  0  0
  182.2660  178.7190  141.0580 C   0  0  0  0  0  0  0  0  0  0  0  0
  183.9660  177.9050  139.0430 C   0  0  0  0  0  0  0  0  0  0  0  0
  183.2110  178.8710  143.6950 C   0  0  0  0  0  0  0  0  0  0  0  0
  185.8650  178.2080  144.2940 C   0  0  0  0  0  3  0  0  0  0  0  0
  185.4830  178.7000  146.7120 C   0  0  0  0  0  1  0  0  0  0  0  0
  184.0850  178.4590  142.6590 C   0  0  0  0  0  0  0  0  0  0  0  0
  183.6730  178.9450  145.0120 C   0  0  0  0  0  3  0  0  0  0  0  0
  185.4120  178.1300  142.9740 C   0  0  0  0  0  3  0  0  0  0  0  0
  184.4240  177.9900  140.3230 N   0  0  0  0  0  0  0  0  0  0  0  0
  183.6090  178.3850  141.3380 C   0  0  0  0  0  0  0  0  0  0  0  0
  181.4150  179.1260  142.0920 C   0  0  0  0  0  3  0  0  0  0  0  0
  181.8180  178.6330  139.7350 C   0  0  0  0  0  0  0  0  0  0  0  0
  182.6770  178.2270  138.7610 N   0  0  0  0  0  0  0  0  0  0  0  0
  181.8850  179.2010  143.4050 C   0  0  0  0  0  3  0  0  0  0  0  0
  184.8740  177.4740  137.9390 C   0  0  1  0  0  3  0  0  0  0  0  0
  184.1910  177.6740  136.5970 C   0  0  0  0  0  1  0  0  0  0  0  0
  186.1860  178.2450  137.9930 C   0  0  0  0  0  2  0  0  0  0  0  0
  187.3510  177.3580  137.6950 C   0  0  0  0  0  0  0  0  0  0  0  0
  187.5220  176.9250  136.5650 O   0  0  0  0  0  0  0  0  0  0  0  0
  188.3060  177.0040  138.7870 C   0  0  0  0  0  2  0  0  0  0  0  0
  189.6470  177.7190  138.5950 C   0  0  2  0  0  3  0  0  0  0  0  0
  192.0170  176.2210  138.4690 C   0  0  0  0  0  2  0  0  0  0  0  0
  190.2350  177.4270  137.3410 O   0  0  0  0  0  0  0  0  0  0  0  0
  190.6470  177.5600  139.7680 C   0  0  2  0  0  3  0  0  0  0  0  0
  191.9640  177.3770  139.2860 O   0  0  0  0  0  0  0  0  0  0  0  0
  190.8870  176.1800  137.4280 C   0  0  0  0  0  2  0  0  0  0  0  0
  190.2750  176.4920  140.6970 N   0  0  0  0  0  2  0  0  0  0  0  0
  190.3520  177.0100  141.9980 N   0  0  0  0  0  0  0  0  0  0  0  0
  189.1430  176.6890  144.0970 C   0  0  0  0  0  2  0  0  0  0  0  0
  191.3020  177.9170  143.8030 C   0  0  0  0  0  3  0  0  0  0  0  0
  189.8190  178.0480  144.0310 C   0  0  1  0  0  3  0  0  0  0  0  0
  191.5640  177.3480  142.6410 C   0  0  0  0  0  3  0  0  0  0  0  0
  189.2010  177.4340  142.7740 C   0  0  1  0  0  3  0  0  0  0  0  0
  180.4950  178.9630  139.4190 O   0  0  0  0  0  0  0  0  0  0  0  0
  180.4390  180.9790  136.2660 C   0  0  0  0  0  3  0  0  0  0  0  0
  180.7410  182.1790  136.7750 C   0  0  0  0  0  0  0  0  0  0  0  0
  180.8630  181.3000  139.0500 C   0  0  0  0  0  3  0  0  0  0  0  0
  180.5400  179.7440  137.1190 C   0  0  0  0  0  2  0  0  0  0  0  0
  180.1610  180.0560  138.5740 C   0  0  1  0  0  3  0  0  0  0  0  0
  181.0940  182.3090  138.2040 C   0  0  0  0  0  3  0  0  0  0  0  0
  181.4800  184.4000  136.4870 O   0  0  0  0  0  1  0  0  0  0  0  0
  180.7320  183.3810  135.8980 C   0  0  0  0  0  2  0  0  0  0  0  0
  1  6  1  0  0  0  0
  2 11  2  0  0  0  0
  2 12  1  0  0  0  0
  3 10  2  0  0  0  0
  4  8  2  0  0  0  0
  5  1  2  0  0  0  0
  7  9  2  0  0  0  0
  7  4  1  0  0  0  0
  8  1  1  0  0  0  0
  9  5  1  0  0  0  0
 10 11  1  0  0  0  0
 11  7  1  0  0  0  0
 12 15  2  0  0  0  0
 13  2  1  0  0  0  0
 14  3  1  0  0  0  0
 14 13  2  0  0  0  0
 15  4  1  0  0  0  0
 16 17  1  6  0  0  0
 16 18  1  0  0  0  0
 16  3  1  0  0  0  0
 19 18  1  0  0  0  0
 19 21  1  0  0  0  0
 20 19  2  0  0  0  0
 22 21  1  1  0  0  0
 22 25  1  0  0  0  0
 23 26  1  0  0  0  0
 24 27  1  0  0  0  0
 24 22  1  0  0  0  0
 25 28  1  6  0  0  0
 26 25  1  0  0  0  0
 27 23  1  0  0  0  0
 28 29  1  0  0  0  0
 29 33  1  0  0  0  0
 29 34  1  0  0  0  0
 32 31  1  6  0  0  0
 32 30  1  0  0  0  0
 33 31  2  0  0  0  0
 34 32  1  0  0  0  0
 34 30  1  1  0  0  0
 35 13  1  0  0  0  0
 36 37  2  0  0  0  0
 36 39  1  0  0  0  0
 37 41  1  0  0  0  0
 39 40  1  0  0  0  0
 40 38  1  0  0  0  0
 40 35  1  1  0  0  0
 41 38  2  0  0  0  0
 43 42  1  0  0  0  0
 43 37  1  0  0  0  0
M  END
>  <MODEL>
5

>  <REMARK>
 VINA RESULT:      -8.4      2.620      5.195
  Name = 
  10 active torsions:
  status: ('A' for Active; 'I' for Inactive)
    1  A    between atoms: O_1  and  C_34
    2  A    between atoms: O_1  and  C_35
    3  A    between atoms: C_2  and  C_6
    4  A    between atoms: C_2  and  C_13
    5  A    between atoms: C_3  and  C_4
    6  A    between atoms: C_3  and  C_12
    7  A    between atoms: C_6  and  C_12
    8  A    between atoms: N_11  and  N_14
    9  A    between atoms: N_14  and  C_22
   10  A    between atoms: C_19  and  C_37
                            x       y       z     vdW  Elec       q    Type
                         _______ _______ _______ _____ _____    ______ ____

>  <TORSDO>
F 10

$$$$
=
 OpenBabel10272414173D

 43 49  0  0  1  0  0  0  0  0999 V2000
  181.4410  179.0890  141.0930 C   0  0  0  0  0  0  0  0  0  0  0  0
  185.8220  178.4200  143.5250 C   0  0  0  0  0  0  0  0  0  0  0  0
  187.7620  178.2640  141.5690 C   0  0  0  0  0  0  0  0  0  0  0  0
  183.1400  178.7940  142.7950 C   0  0  0  0  0  0  0  0  0  0  0  0
  182.4180  179.0030  140.0960 C   0  0  0  0  0  3  0  0  0  0  0  0
  180.0170  179.2870  140.7200 C   0  0  0  0  0  1  0  0  0  0  0  0
  184.1350  178.7070  141.7900 C   0  0  0  0  0  0  0  0  0  0  0  0
  181.8010  178.9840  142.4390 C   0  0  0  0  0  3  0  0  0  0  0  0
  183.7590  178.8140  140.4430 C   0  0  0  0  0  3  0  0  0  0  0  0
  186.4570  178.4350  141.2180 N   0  0  0  0  0  0  0  0  0  0  0  0
  185.4790  178.5190  142.1590 C   0  0  0  0  0  0  0  0  0  0  0  0
  184.8270  178.5060  144.5070 C   0  0  0  0  0  3  0  0  0  0  0  0
  187.1680  178.2370  143.8650 C   0  0  0  0  0  0  0  0  0  0  0  0
  188.1040  178.1640  142.8800 N   0  0  0  0  0  0  0  0  0  0  0  0
  183.4910  178.6930  144.1420 C   0  0  0  0  0  3  0  0  0  0  0  0
  188.8240  178.1690  140.5240 C   0  0  1  0  0  3  0  0  0  0  0  0
  189.9310  177.2400  140.9910 C   0  0  0  0  0  1  0  0  0  0  0  0
  188.2360  177.6840  139.2060 C   0  0  0  0  0  2  0  0  0  0  0  0
  188.9790  178.2460  138.0380 C   0  0  0  0  0  0  0  0  0  0  0  0
  188.9800  179.4500  137.8310 O   0  0  0  0  0  0  0  0  0  0  0  0
  189.7200  177.3260  137.1240 C   0  0  0  0  0  2  0  0  0  0  0  0
  190.0690  176.0150  137.8330 C   0  0  2  0  0  3  0  0  0  0  0  0
  191.1410  173.8800  136.3580 C   0  0  0  0  0  2  0  0  0  0  0  0
  191.4620  175.7700  137.8510 O   0  0  0  0  0  0  0  0  0  0  0  0
  189.2580  174.7800  137.3600 C   0  0  2  0  0  3  0  0  0  0  0  0
  190.0870  173.6370  137.2730 O   0  0  0  0  0  0  0  0  0  0  0  0
  191.8410  175.2250  136.6070 C   0  0  0  0  0  2  0  0  0  0  0  0
  188.5460  175.0100  136.1010 N   0  0  0  0  0  2  0  0  0  0  0  0
  187.1790  174.8170  136.3420 N   0  0  0  0  0  0  0  0  0  0  0  0
  185.8090  173.1290  137.4600 C   0  0  0  0  0  2  0  0  0  0  0  0
  185.0440  175.3780  136.6740 C   0  0  0  0  0  3  0  0  0  0  0  0
  185.0240  173.8960  136.4080 C   0  0  1  0  0  3  0  0  0  0  0  0
  186.2690  175.8650  136.6080 C   0  0  0  0  0  3  0  0  0  0  0  0
  186.4940  173.5480  136.1700 C   0  0  1  0  0  3  0  0  0  0  0  0
  187.5440  178.1280  145.2090 O   0  0  0  0  0  0  0  0  0  0  0  0
  190.1380  176.7120  147.5060 C   0  0  0  0  0  3  0  0  0  0  0  0
  191.1050  176.4730  146.6130 C   0  0  0  0  0  0  0  0  0  0  0  0
  189.7420  177.2930  144.7600 C   0  0  0  0  0  3  0  0  0  0  0  0
  188.9170  177.4970  147.1120 C   0  0  0  0  0  2  0  0  0  0  0  0
  188.5340  177.2090  145.6530 C   0  0  1  0  0  3  0  0  0  0  0  0
  190.9400  176.9060  145.2100 C   0  0  0  0  0  3  0  0  0  0  0  0
  192.7130  176.2020  148.3170 O   0  0  0  0  0  1  0  0  0  0  0  0
  192.3530  175.7820  147.0370 C   0  0  0  0  0  2  0  0  0  0  0  0
  1  8  1  0  0  0  0
  2 13  1  0  0  0  0
  2 12  1  0  0  0  0
  3 14  1  0  0  0  0
  4 15  1  0  0  0  0
  5  9  1  0  0  0  0
  5  1  2  0  0  0  0
  6  1  1  0  0  0  0
  7 11  1  0  0  0  0
  7  4  1  0  0  0  0
  8  4  2  0  0  0  0
  9  7  2  0  0  0  0
 10  3  2  0  0  0  0
 10 11  1  0  0  0  0
 11  2  2  0  0  0  0
 13 35  1  0  0  0  0
 14 13  2  0  0  0  0
 15 12  2  0  0  0  0
 16 17  1  1  0  0  0
 16  3  1  0  0  0  0
 18 16  1  0  0  0  0
 19 18  1  0  0  0  0
 20 19  2  0  0  0  0
 21 19  1  0  0  0  0
 22 21  1  6  0  0  0
 22 24  1  0  0  0  0
 23 27  1  0  0  0  0
 23 26  1  0  0  0  0
 25 28  1  6  0  0  0
 25 22  1  0  0  0  0
 26 25  1  0  0  0  0
 27 24  1  0  0  0  0
 28 29  1  0  0  0  0
 29 33  1  0  0  0  0
 32 31  1  1  0  0  0
 32 30  1  0  0  0  0
 33 31  2  0  0  0  0
 34 29  1  0  0  0  0
 34 32  1  0  0  0  0
 34 30  1  1  0  0  0
 37 43  1  0  0  0  0
 37 36  2  0  0  0  0
 38 41  2  0  0  0  0
 38 40  1  0  0  0  0
 39 36  1  0  0  0  0
 40 35  1  6  0  0  0
 40 39  1  0  0  0  0
 41 37  1  0  0  0  0
 43 42  1  0  0  0  0
M  END
>  <MODEL>
6

>  <REMARK>
 VINA RESULT:      -8.4      2.588      6.388
  Name = 
  10 active torsions:
  status: ('A' for Active; 'I' for Inactive)
    1  A    between atoms: O_1  and  C_34
    2  A    between atoms: O_1  and  C_35
    3  A    between atoms: C_2  and  C_6
    4  A    between atoms: C_2  and  C_13
    5  A    between atoms: C_3  and  C_4
    6  A    between atoms: C_3  and  C_12
    7  A    between atoms: C_6  and  C_12
    8  A    between atoms: N_11  and  N_14
    9  A    between atoms: N_14  and  C_22
   10  A    between atoms: C_19  and  C_37
                            x       y       z     vdW  Elec       q    Type
                         _______ _______ _______ _____ _____    ______ ____

>  <TORSDO>
F 10

$$$$
=
 OpenBabel10272414173D

 43 49  0  0  1  0  0  0  0  0999 V2000
  191.6650  176.1950  147.1890 C   0  0  0  0  0  0  0  0  0  0  0  0
  187.3660  177.6650  144.9730 C   0  0  0  0  0  0  0  0  0  0  0  0
  187.8620  177.6360  142.2590 C   0  0  0  0  0  0  0  0  0  0  0  0
  189.3980  176.9350  146.7630 C   0  0  0  0  0  0  0  0  0  0  0  0
  191.9250  176.1860  145.8160 C   0  0  0  0  0  3  0  0  0  0  0  0
  192.7320  175.8110  148.1490 C   0  0  0  0  0  1  0  0  0  0  0  0
  189.6550  176.9270  145.3700 C   0  0  0  0  0  0  0  0  0  0  0  0
  190.4050  176.5690  147.6620 C   0  0  0  0  0  3  0  0  0  0  0  0
  190.9250  176.5490  144.9100 C   0  0  0  0  0  3  0  0  0  0  0  0
  188.8490  177.2930  143.1310 N   0  0  0  0  0  0  0  0  0  0  0  0
  188.6340  177.2940  144.4750 C   0  0  0  0  0  0  0  0  0  0  0  0
  187.1290  177.6690  146.3530 C   0  0  0  0  0  3  0  0  0  0  0  0
  186.3670  178.0210  144.0590 C   0  0  0  0  0  0  0  0  0  0  0  0
  186.6390  177.9980  142.7260 N   0  0  0  0  0  0  0  0  0  0  0  0
  188.1410  177.3050  147.2440 C   0  0  0  0  0  3  0  0  0  0  0  0
  188.1140  177.6340  140.7870 C   0  0  1  0  0  3  0  0  0  0  0  0
  187.0940  178.5120  140.0840 C   0  0  0  0  0  1  0  0  0  0  0  0
  189.5290  178.1100  140.4870 C   0  0  0  0  0  2  0  0  0  0  0  0
  190.3610  177.0130  139.9050 C   0  0  0  0  0  0  0  0  0  0  0  0
  190.8570  176.1650  140.6310 O   0  0  0  0  0  0  0  0  0  0  0  0
  190.5820  176.9590  138.4290 C   0  0  0  0  0  2  0  0  0  0  0  0
  190.8100  175.5190  137.9620 C   0  0  2  0  0  3  0  0  0  0  0  0
  191.9970  175.0380  135.4630 C   0  0  0  0  0  2  0  0  0  0  0  0
  192.1850  175.1940  137.8810 O   0  0  0  0  0  0  0  0  0  0  0  0
  190.0310  175.1140  136.6840 C   0  0  2  0  0  3  0  0  0  0  0  0
  190.8350  174.3180  135.8350 O   0  0  0  0  0  0  0  0  0  0  0  0
  192.6960  175.6940  136.6650 C   0  0  0  0  0  2  0  0  0  0  0  0
  189.4810  176.2620  135.9610 N   0  0  0  0  0  2  0  0  0  0  0  0
  188.1150  176.3460  136.2690 N   0  0  0  0  0  0  0  0  0  0  0  0
  186.2110  177.6640  135.4870 C   0  0  0  0  0  2  0  0  0  0  0  0
  186.1130  175.6520  136.9700 C   0  0  0  0  0  3  0  0  0  0  0  0
  186.0070  177.1530  136.9040 C   0  0  1  0  0  3  0  0  0  0  0  0
  187.3180  175.2360  136.6270 C   0  0  0  0  0  3  0  0  0  0  0  0
  187.3950  177.5960  136.4380 C   0  0  1  0  0  3  0  0  0  0  0  0
  185.1000  178.4010  144.5180 O   0  0  0  0  0  0  0  0  0  0  0  0
  181.6530  179.1610  143.2710 C   0  0  0  0  0  3  0  0  0  0  0  0
  181.8310  178.8850  141.9740 C   0  0  0  0  0  0  0  0  0  0  0  0
  184.1800  178.3070  142.3100 C   0  0  0  0  0  3  0  0  0  0  0  0
  182.7170  178.8100  144.2750 C   0  0  0  0  0  2  0  0  0  0  0  0
  184.1160  178.9660  143.6610 C   0  0  1  0  0  3  0  0  0  0  0  0
  183.1090  178.3100  141.5080 C   0  0  0  0  0  3  0  0  0  0  0  0
  181.2610  179.6800  139.8280 O   0  0  0  0  0  1  0  0  0  0  0  0
  180.7330  179.1460  141.0030 C   0  0  0  0  0  2  0  0  0  0  0  0
  1  8  1  0  0  0  0
  1  6  1  0  0  0  0
  2 12  1  0  0  0  0
  3 14  1  0  0  0  0
  3 10  2  0  0  0  0
  4 15  1  0  0  0  0
  4  8  2  0  0  0  0
  5  1  2  0  0  0  0
  7  4  1  0  0  0  0
  9  7  2  0  0  0  0
  9  5  1  0  0  0  0
 10 11  1  0  0  0  0
 11  2  2  0  0  0  0
 11  7  1  0  0  0  0
 12 15  2  0  0  0  0
 13 35  1  0  0  0  0
 13  2  1  0  0  0  0
 14 13  2  0  0  0  0
 16 17  1  6  0  0  0
 16  3  1  0  0  0  0
 18 16  1  0  0  0  0
 19 18  1  0  0  0  0
 19 20  2  0  0  0  0
 21 19  1  0  0  0  0
 22 21  1  6  0  0  0
 23 26  1  0  0  0  0
 23 27  1  0  0  0  0
 24 22  1  0  0  0  0
 25 28  1  6  0  0  0
 25 22  1  0  0  0  0
 26 25  1  0  0  0  0
 27 24  1  0  0  0  0
 28 29  1  0  0  0  0
 29 34  1  0  0  0  0
 29 33  1  0  0  0  0
 32 30  1  6  0  0  0
 32 31  1  0  0  0  0
 33 31  2  0  0  0  0
 34 30  1  6  0  0  0
 34 32  1  0  0  0  0
 36 39  1  0  0  0  0
 37 36  2  0  0  0  0
 38 40  1  0  0  0  0
 40 39  1  0  0  0  0
 40 35  1  1  0  0  0
 41 37  1  0  0  0  0
 41 38  2  0  0  0  0
 42 43  1  0  0  0  0
 43 37  1  0  0  0  0
M  END
>  <MODEL>
7

>  <REMARK>
 VINA RESULT:      -8.3      2.152      3.213
  Name = 
  10 active torsions:
  status: ('A' for Active; 'I' for Inactive)
    1  A    between atoms: O_1  and  C_34
    2  A    between atoms: O_1  and  C_35
    3  A    between atoms: C_2  and  C_6
    4  A    between atoms: C_2  and  C_13
    5  A    between atoms: C_3  and  C_4
    6  A    between atoms: C_3  and  C_12
    7  A    between atoms: C_6  and  C_12
    8  A    between atoms: N_11  and  N_14
    9  A    between atoms: N_14  and  C_22
   10  A    between atoms: C_19  and  C_37
                            x       y       z     vdW  Elec       q    Type
                         _______ _______ _______ _____ _____    ______ ____

>  <TORSDO>
F 10

$$$$
=
 OpenBabel10272414173D

 43 49  0  0  1  0  0  0  0  0999 V2000
  187.9440  177.5270  146.8810 C   0  0  0  0  0  0  0  0  0  0  0  0
  188.2000  178.1830  141.8740 C   0  0  0  0  0  0  0  0  0  0  0  0
  185.6140  178.6550  141.0370 C   0  0  0  0  0  0  0  0  0  0  0  0
  188.7180  177.7350  144.5950 C   0  0  0  0  0  0  0  0  0  0  0  0
  186.6300  177.7580  146.4610 C   0  0  0  0  0  3  0  0  0  0  0  0
  188.2330  177.2880  148.3180 C   0  0  0  0  0  1  0  0  0  0  0  0
  187.3890  177.9710  144.1630 C   0  0  0  0  0  0  0  0  0  0  0  0
  188.9850  177.5150  145.9490 C   0  0  0  0  0  3  0  0  0  0  0  0
  186.3540  177.9790  145.1090 C   0  0  0  0  0  3  0  0  0  0  0  0
  185.8680  178.4260  142.3540 N   0  0  0  0  0  0  0  0  0  0  0  0
  187.1330  178.1940  142.7980 C   0  0  0  0  0  0  0  0  0  0  0  0
  189.5080  177.9460  142.3160 C   0  0  0  0  0  3  0  0  0  0  0  0
  187.9170  178.4120  140.5230 C   0  0  0  0  0  0  0  0  0  0  0  0
  186.6320  178.6420  140.1370 N   0  0  0  0  0  0  0  0  0  0  0  0
  189.7650  177.7240  143.6710 C   0  0  0  0  0  3  0  0  0  0  0  0
  184.2200  178.9040  140.5630 C   0  0  1  0  0  3  0  0  0  0  0  0
  184.2340  179.3210  139.1030 C   0  0  0  0  0  1  0  0  0  0  0  0
  183.3590  177.6630  140.7590 C   0  0  0  0  0  2  0  0  0  0  0  0
  181.9970  177.8480  140.1730 C   0  0  0  0  0  0  0  0  0  0  0  0
  181.3880  178.8920  140.3490 O   0  0  0  0  0  0  0  0  0  0  0  0
  181.3830  176.7460  139.3720 C   0  0  0  0  0  2  0  0  0  0  0  0
  181.6340  176.9530  137.8760 C   0  0  2  0  0  3  0  0  0  0  0  0
  181.3200  174.7990  136.1020 C   0  0  0  0  0  2  0  0  0  0  0  0
  180.4490  176.8310  137.1120 O   0  0  0  0  0  0  0  0  0  0  0  0
  182.8040  176.1220  137.2880 C   0  0  2  0  0  3  0  0  0  0  0  0
  182.4710  175.6190  136.0090 O   0  0  0  0  0  0  0  0  0  0  0  0
  180.1860  175.4620  136.9030 C   0  0  0  0  0  2  0  0  0  0  0  0
  183.2460  175.0460  138.1770 N   0  0  0  0  0  2  0  0  0  0  0  0
  184.4660  174.5600  137.6860 N   0  0  0  0  0  0  0  0  0  0  0  0
  185.1850  172.6640  136.3220 C   0  0  0  0  0  2  0  0  0  0  0  0
  186.5780  174.6380  136.9700 C   0  0  0  0  0  3  0  0  0  0  0  0
  186.3010  173.1780  137.2160 C   0  0  1  0  0  3  0  0  0  0  0  0
  185.5310  175.3860  137.2640 C   0  0  0  0  0  3  0  0  0  0  0  0
  184.8570  173.1620  137.7190 C   0  0  1  0  0  3  0  0  0  0  0  0
  188.9490  178.4010  139.5780 O   0  0  0  0  0  0  0  0  0  0  0  0
  190.8940  175.6820  137.8930 C   0  0  0  0  0  3  0  0  0  0  0  0
  190.5230  175.9080  136.6280 C   0  0  0  0  0  0  0  0  0  0  0  0
  189.0790  177.7690  137.2720 C   0  0  0  0  0  3  0  0  0  0  0  0
  190.5380  176.6640  138.9760 C   0  0  0  0  0  2  0  0  0  0  0  0
  189.1700  177.3040  138.7010 C   0  0  1  0  0  3  0  0  0  0  0  0
  189.6870  177.0810  136.3000 C   0  0  0  0  0  3  0  0  0  0  0  0
  190.0830  175.0620  134.4710 O   0  0  0  0  0  1  0  0  0  0  0  0
  190.9640  174.9820  135.5490 C   0  0  0  0  0  2  0  0  0  0  0  0
  1  6  1  0  0  0  0
  2 12  2  0  0  0  0
  2 11  1  0  0  0  0
  3 10  2  0  0  0  0
  4  8  1  0  0  0  0
  5  1  1  0  0  0  0
  7  4  1  0  0  0  0
  7  9  1  0  0  0  0
  8  1  2  0  0  0  0
  9  5  2  0  0  0  0
 10 11  1  0  0  0  0
 11  7  2  0  0  0  0
 12 15  1  0  0  0  0
 13  2  1  0  0  0  0
 14 13  2  0  0  0  0
 14  3  1  0  0  0  0
 15  4  2  0  0  0  0
 16 17  1  6  0  0  0
 16 18  1  0  0  0  0
 16  3  1  0  0  0  0
 19 20  2  0  0  0  0
 19 18  1  0  0  0  0
 21 19  1  0  0  0  0
 22 21  1  1  0  0  0
 23 27  1  0  0  0  0
 24 22  1  0  0  0  0
 25 22  1  0  0  0  0
 25 28  1  1  0  0  0
 26 23  1  0  0  0  0
 26 25  1  0  0  0  0
 27 24  1  0  0  0  0
 29 34  1  0  0  0  0
 29 28  1  0  0  0  0
 31 32  1  0  0  0  0
 31 33  2  0  0  0  0
 32 30  1  6  0  0  0
 32 34  1  0  0  0  0
 33 29  1  0  0  0  0
 34 30  1  6  0  0  0
 35 13  1  0  0  0  0
 36 39  1  0  0  0  0
 37 36  2  0  0  0  0
 38 40  1  0  0  0  0
 40 39  1  0  0  0  0
 40 35  1  1  0  0  0
 41 37  1  0  0  0  0
 41 38  2  0  0  0  0
 42 43  1  0  0  0  0
 43 37  1  0  0  0  0
M  END
>  <MODEL>
8

>  <REMARK>
 VINA RESULT:      -8.2      1.669      6.089
  Name = 
  10 active torsions:
  status: ('A' for Active; 'I' for Inactive)
    1  A    between atoms: O_1  and  C_34
    2  A    between atoms: O_1  and  C_35
    3  A    between atoms: C_2  and  C_6
    4  A    between atoms: C_2  and  C_13
    5  A    between atoms: C_3  and  C_4
    6  A    between atoms: C_3  and  C_12
    7  A    between atoms: C_6  and  C_12
    8  A    between atoms: N_11  and  N_14
    9  A    between atoms: N_14  and  C_22
   10  A    between atoms: C_19  and  C_37
                            x       y       z     vdW  Elec       q    Type
                         _______ _______ _______ _____ _____    ______ ____

>  <TORSDO>
F 10

$$$$
=
 OpenBabel10272414173D

 43 49  0  0  1  0  0  0  0  0999 V2000
  183.4670  179.0250  143.5270 C   0  0  0  0  0  0  0  0  0  0  0  0
  184.4140  177.9120  138.6870 C   0  0  0  0  0  0  0  0  0  0  0  0
  187.1530  178.0720  138.3930 C   0  0  0  0  0  0  0  0  0  0  0  0
  183.2540  178.4310  141.1880 C   0  0  0  0  0  0  0  0  0  0  0  0
  184.8540  179.1160  143.3820 C   0  0  0  0  0  3  0  0  0  0  0  0
  182.8390  179.2980  144.8450 C   0  0  0  0  0  1  0  0  0  0  0  0
  184.6600  178.5200  141.0350 C   0  0  0  0  0  0  0  0  0  0  0  0
  182.6680  178.6840  142.4320 C   0  0  0  0  0  3  0  0  0  0  0  0
  185.4490  178.8640  142.1430 C   0  0  0  0  0  3  0  0  0  0  0  0
  186.5850  178.3330  139.6020 N   0  0  0  0  0  0  0  0  0  0  0  0
  185.2380  178.2590  139.7790 C   0  0  0  0  0  0  0  0  0  0  0  0
  183.0260  177.8300  138.8540 C   0  0  0  0  0  3  0  0  0  0  0  0
  185.0170  177.6540  137.4500 C   0  0  0  0  0  0  0  0  0  0  0  0
  186.3700  177.7400  137.3340 N   0  0  0  0  0  0  0  0  0  0  0  0
  182.4490  178.0880  140.1000 C   0  0  0  0  0  3  0  0  0  0  0  0
  188.6320  178.1610  138.2120 C   0  0  1  0  0  3  0  0  0  0  0  0
  188.9670  179.2370  137.1940 C   0  0  0  0  0  1  0  0  0  0  0  0
  189.3170  178.4490  139.5420 C   0  0  0  0  0  2  0  0  0  0  0  0
  189.5910  177.1880  140.2970 C   0  0  0  0  0  0  0  0  0  0  0  0
  190.1180  176.2390  139.7380 O   0  0  0  0  0  0  0  0  0  0  0  0
  189.2170  177.0970  141.7400 C   0  0  0  0  0  2  0  0  0  0  0  0
  190.0690  178.0460  142.5870 C   0  0  2  0  0  3  0  0  0  0  0  0
  191.5710  177.0270  144.7290 C   0  0  0  0  0  2  0  0  0  0  0  0
  191.4550  177.8040  142.4300 O   0  0  0  0  0  0  0  0  0  0  0  0
  189.6520  178.1450  144.0770 C   0  0  2  0  0  3  0  0  0  0  0  0
  190.7890  178.1940  144.9160 O   0  0  0  0  0  0  0  0  0  0  0  0
  191.8180  176.7130  143.2450 C   0  0  0  0  0  2  0  0  0  0  0  0
  188.7400  177.0770  144.4890 N   0  0  0  0  0  2  0  0  0  0  0  0
  188.2050  177.4290  145.7360 N   0  0  0  0  0  0  0  0  0  0  0  0
  189.0990  178.0190  147.9330 C   0  0  0  0  0  2  0  0  0  0  0  0
  186.7250  178.2640  147.1840 C   0  0  0  0  0  3  0  0  0  0  0  0
  187.6870  177.4640  148.0230 C   0  0  1  0  0  3  0  0  0  0  0  0
  187.0350  178.2040  145.9020 C   0  0  0  0  0  3  0  0  0  0  0  0
  188.6740  176.8950  147.0030 C   0  0  1  0  0  3  0  0  0  0  0  0
  184.2300  177.3130  136.3440 O   0  0  0  0  0  0  0  0  0  0  0  0
  182.0720  174.2930  135.8600 C   0  0  0  0  0  3  0  0  0  0  0  0
  182.8300  173.3870  136.4880 C   0  0  0  0  0  0  0  0  0  0  0  0
  184.5500  175.0380  137.0180 C   0  0  0  0  0  3  0  0  0  0  0  0
  182.4060  175.7570  135.9500 C   0  0  0  0  0  2  0  0  0  0  0  0
  183.9260  175.9650  136.0100 C   0  0  1  0  0  3  0  0  0  0  0  0
  184.0500  173.8120  137.2050 C   0  0  0  0  0  3  0  0  0  0  0  0
  183.4560  171.1780  137.0270 O   0  0  0  0  0  1  0  0  0  0  0  0
  182.4360  171.9520  136.4750 C   0  0  0  0  0  2  0  0  0  0  0  0
  1  6  1  0  0  0  0
  2 12  2  0  0  0  0
  2 11  1  0  0  0  0
  3 10  2  0  0  0  0
  4  8  1  0  0  0  0
  5  1  1  0  0  0  0
  7  4  1  0  0  0  0
  7  9  1  0  0  0  0
  8  1  2  0  0  0  0
  9  5  2  0  0  0  0
 10 11  1  0  0  0  0
 11  7  2  0  0  0  0
 12 15  1  0  0  0  0
 13  2  1  0  0  0  0
 14 13  2  0  0  0  0
 14  3  1  0  0  0  0
 15  4  2  0  0  0  0
 16 17  1  6  0  0  0
 16  3  1  0  0  0  0
 16 18  1  0  0  0  0
 18 19  1  0  0  0  0
 19 21  1  0  0  0  0
 20 19  2  0  0  0  0
 22 21  1  1  0  0  0
 22 25  1  0  0  0  0
 23 26  1  0  0  0  0
 24 22  1  0  0  0  0
 24 27  1  0  0  0  0
 25 28  1  1  0  0  0
 25 26  1  0  0  0  0
 27 23  1  0  0  0  0
 28 29  1  0  0  0  0
 29 33  1  0  0  0  0
 29 34  1  0  0  0  0
 30 32  1  0  0  0  0
 32 31  1  6  0  0  0
 33 31  2  0  0  0  0
 34 30  1  1  0  0  0
 34 32  1  0  0  0  0
 35 13  1  0  0  0  0
 36 39  1  0  0  0  0
 36 37  2  0  0  0  0
 37 41  1  0  0  0  0
 38 41  2  0  0  0  0
 39 40  1  0  0  0  0
 40 35  1  1  0  0  0
 40 38  1  0  0  0  0
 43 37  1  0  0  0  0
 43 42  1  0  0  0  0
M  END
>  <MODEL>
9

>  <REMARK>
 VINA RESULT:      -8.2      2.647      6.784
  Name = 
  10 active torsions:
  status: ('A' for Active; 'I' for Inactive)
    1  A    between atoms: O_1  and  C_34
    2  A    between atoms: O_1  and  C_35
    3  A    between atoms: C_2  and  C_6
    4  A    between atoms: C_2  and  C_13
    5  A    between atoms: C_3  and  C_4
    6  A    between atoms: C_3  and  C_12
    7  A    between atoms: C_6  and  C_12
    8  A    between atoms: N_11  and  N_14
    9  A    between atoms: N_14  and  C_22
   10  A    between atoms: C_19  and  C_37
                            x       y       z     vdW  Elec       q    Type
                         _______ _______ _______ _____ _____    ______ ____

>  <TORSDO>
F 10

$$$$
