=
 OpenBabel10272414293D

 43 48  0  0  1  0  0  0  0  0999 V2000
  186.2560  177.8500  142.5350 O   0  0  0  0  0  0  0  0  0  0  0  0
  188.4430  177.8020  147.0570 C   0  0  0  0  0  0  0  0  0  0  0  0
  184.4690  178.5430  144.1150 C   0  0  0  0  0  0  0  0  0  0  0  0
  186.2770  178.2870  146.2150 C   0  0  0  0  0  0  0  0  0  0  0  0
  188.9090  177.5340  145.7680 C   0  0  0  0  0  3  0  0  0  0  0  0
  189.3640  177.6850  148.2170 C   0  0  0  0  0  1  0  0  0  0  0  0
  186.7030  178.0280  144.8980 C   0  0  0  0  0  0  0  0  0  0  0  0
  187.1480  178.1690  147.2540 N   0  0  0  0  0  0  0  0  0  0  0  0
  188.0330  177.6460  144.6870 C   0  0  0  0  0  3  0  0  0  0  0  0
  185.7970  178.1370  143.8300 C   0  0  0  0  0  0  0  0  0  0  0  0
  184.0980  178.7890  145.4020 N   0  0  0  0  0  0  0  0  0  0  0  0
  184.9590  178.6660  146.4450 C   0  0  0  0  0  3  0  0  0  0  0  0
  183.4640  178.8040  143.0370 C   0  0  0  0  0  2  0  0  0  0  0  0
  182.1060  179.1370  143.6360 C   0  0  0  0  0  2  0  0  0  0  0  0
  180.9840  178.6060  142.7560 C   0  0  0  0  0  2  0  0  0  0  0  0
  179.9890  180.6830  139.6250 C   0  0  0  0  0  2  0  0  0  0  0  0
  182.0740  178.5270  138.9540 C   0  0  0  0  0  2  0  0  0  0  0  0
  181.3990  179.6870  138.2290 C   0  0  0  0  0  2  0  0  0  0  0  0
  180.0510  180.2300  141.0820 C   0  0  0  0  0  2  0  0  0  0  0  0
  181.1010  179.1440  141.3390 C   0  0  2  0  0  3  0  0  0  0  0  0
  181.2730  180.7910  139.0820 O   0  0  0  0  0  0  0  0  0  0  0  0
  180.9400  177.7610  140.1610 S   0  0  0  0  0  0  0  0  0  0  0  0
  186.5690  178.8380  141.5640 C   0  0  0  0  0  2  0  0  0  0  0  0
  188.0640  178.8400  141.2900 C   0  0  0  0  0  2  0  0  0  0  0  0
  188.4970  177.5510  140.6050 C   0  0  1  0  0  3  0  0  0  0  0  0
  190.0870  175.2500  137.7270 F   0  0  0  0  0  0  0  0  0  0  0  0
  190.4420  176.5920  137.6400 C   0  0  2  0  0  0  0  0  0  0  0  0
  188.8200  177.7990  139.2010 N   0  0  2  0  0  0  0  0  0  0  0  0
  189.7260  176.9960  141.2970 C   0  0  0  0  0  2  0  0  0  0  0  0
  187.8440  177.0460  138.4090 C   0  0  0  0  0  2  0  0  0  0  0  0
  190.1910  177.2900  138.9950 C   0  0  1  0  0  3  0  0  0  0  0  0
  189.5850  177.2760  136.5670 C   0  0  0  0  0  2  0  0  0  0  0  0
  190.5760  176.4440  140.1880 C   0  0  0  0  0  2  0  0  0  0  0  0
  188.0910  177.2500  136.9130 C   0  0  0  0  0  2  0  0  0  0  0  0
  191.8630  176.7230  137.3080 N   0  0  0  0  0  2  0  0  0  0  0  0
  192.3820  175.4750  136.7530 C   0  0  1  0  0  3  0  0  0  0  0  0
  192.5420  175.6130  135.2510 C   0  0  0  0  0  1  0  0  0  0  0  0
  193.6920  175.1320  137.3850 C   0  0  0  0  0  0  0  0  0  0  0  0
  195.1990  175.3200  139.2730 N   0  0  0  0  0  0  0  0  0  0  0  0
  195.2640  173.1590  138.1400 C   0  0  0  0  0  2  0  0  0  0  0  0
  195.8020  174.1800  139.0940 C   0  0  0  0  0  3  0  0  0  0  0  0
  194.8260  173.9830  136.5800 S   0  0  0  0  0  0  0  0  0  0  0  0
  194.0230  175.7070  138.5440 C   0  0  0  0  0  3  0  0  0  0  0  0
  1 10  1  0  0  0  0
  2  8  1  0  0  0  0
  2  6  1  0  0  0  0
  3 11  1  0  0  0  0
  4 12  1  0  0  0  0
  4  8  2  0  0  0  0
  5  2  2  0  0  0  0
  7  4  1  0  0  0  0
  9  7  2  0  0  0  0
  9  5  1  0  0  0  0
 10  3  2  0  0  0  0
 10  7  1  0  0  0  0
 11 12  2  0  0  0  0
 13 14  1  0  0  0  0
 13  3  1  0  0  0  0
 15 14  1  0  0  0  0
 16 19  1  0  0  0  0
 17 22  1  0  0  0  0
 18 17  1  0  0  0  0
 18 21  1  0  0  0  0
 19 20  1  0  0  0  0
 20 15  1  1  0  0  0
 21 16  1  0  0  0  0
 22 20  1  0  0  0  0
 23  1  1  0  0  0  0
 24 23  1  0  0  0  0
 25 24  1  1  0  0  0
 25 29  1  0  0  0  0
 27 26  1  1  0  0  0
 27 31  1  0  0  0  0
 28 30  1  6  0  0  0
 28 25  1  0  0  0  0
 31 28  1  0  0  0  0
 31 33  1  1  0  0  0
 32 34  1  0  0  0  0
 32 27  1  0  0  0  0
 33 29  1  0  0  0  0
 34 30  1  0  0  0  0
 35 27  1  0  0  0  0
 36 37  1  6  0  0  0
 36 35  1  0  0  0  0
 36 38  1  0  0  0  0
 38 43  2  0  0  0  0
 40 41  1  0  0  0  0
 41 39  2  0  0  0  0
 42 38  1  0  0  0  0
 42 40  1  0  0  0  0
 43 39  1  0  0  0  0
M  END
>  <MODEL>
1

>  <REMARK>
 VINA RESULT:      -8.7      0.000      0.000
  Name = 
  11 active torsions:
  status: ('A' for Active; 'I' for Inactive)
    1  A    between atoms: C_1  and  C_28
    2  A    between atoms: C_1  and  C_34
    3  A    between atoms: C_2  and  C_13
    4  A    between atoms: C_4  and  N_22
    5  A    between atoms: C_8  and  C_34
    6  A    between atoms: C_11  and  C_14
    7  A    between atoms: C_13  and  C_38
    8  A    between atoms: C_14  and  N_22
    9  A    between atoms: O_27  and  C_30
   10  A    between atoms: O_27  and  C_38
   11  A    between atoms: C_28  and  C_35
                            x       y       z     vdW  Elec       q    Type
                         _______ _______ _______ _____ _____    ______ ____

>  <TORSDO>
F 11

$$$$
=
 OpenBabel10272414293D

 43 48  0  0  1  0  0  0  0  0999 V2000
  187.5740  178.1390  143.6270 O   0  0  0  0  0  0  0  0  0  0  0  0
  191.2470  176.5170  146.6450 C   0  0  0  0  0  0  0  0  0  0  0  0
  189.4370  177.5390  142.0980 C   0  0  0  0  0  0  0  0  0  0  0  0
  190.9650  176.8080  144.3070 C   0  0  0  0  0  0  0  0  0  0  0  0
  189.9480  176.9750  146.8820 C   0  0  0  0  0  3  0  0  0  0  0  0
  192.1080  176.1100  147.7860 C   0  0  0  0  0  1  0  0  0  0  0  0
  189.6490  177.2740  144.4970 C   0  0  0  0  0  0  0  0  0  0  0  0
  191.7250  176.4450  145.3740 N   0  0  0  0  0  0  0  0  0  0  0  0
  189.1500  177.3550  145.8020 C   0  0  0  0  0  3  0  0  0  0  0  0
  188.8730  177.6620  143.3930 C   0  0  0  0  0  0  0  0  0  0  0  0
  190.7110  177.0790  141.9560 N   0  0  0  0  0  0  0  0  0  0  0  0
  191.4790  176.7220  143.0170 C   0  0  0  0  0  3  0  0  0  0  0  0
  188.6500  177.8110  140.8550 C   0  0  0  0  0  2  0  0  0  0  0  0
  189.5430  177.7330  139.6250 C   0  0  0  0  0  2  0  0  0  0  0  0
  189.1110  178.7510  138.5800 C   0  0  0  0  0  2  0  0  0  0  0  0
  187.3850  177.8070  135.2280 C   0  0  0  0  0  2  0  0  0  0  0  0
  189.8440  176.0490  135.7840 C   0  0  0  0  0  2  0  0  0  0  0  0
  188.8570  176.2520  134.6400 C   0  0  0  0  0  2  0  0  0  0  0  0
  187.6810  178.5580  136.5250 C   0  0  0  0  0  2  0  0  0  0  0  0
  188.9730  178.1030  137.2120 C   0  0  2  0  0  3  0  0  0  0  0  0
  188.5550  177.6110  134.4870 O   0  0  0  0  0  0  0  0  0  0  0  0
  189.0320  176.2900  137.4000 S   0  0  0  0  0  0  0  0  0  0  0  0
  186.3940  177.3810  143.4050 C   0  0  0  0  0  2  0  0  0  0  0  0
  185.2060  178.0670  144.0580 C   0  0  0  0  0  2  0  0  0  0  0  0
  184.4290  178.8990  143.0480 C   0  0  1  0  0  3  0  0  0  0  0  0
  182.6580  179.7590  139.5510 F   0  0  0  0  0  0  0  0  0  0  0  0
  182.9180  178.4050  139.7370 C   0  0  2  0  0  0  0  0  0  0  0  0
  184.5340  178.3150  141.7120 N   0  0  2  0  0  0  0  0  0  0  0  0
  182.9660  178.9460  143.4450 C   0  0  0  0  0  2  0  0  0  0  0  0
  185.2500  179.2900  140.8860 C   0  0  0  0  0  2  0  0  0  0  0  0
  183.1500  178.1160  141.2370 C   0  0  1  0  0  3  0  0  0  0  0  0
  184.1810  178.0170  138.9590 C   0  0  0  0  0  2  0  0  0  0  0  0
  182.2130  178.8760  142.1480 C   0  0  0  0  0  2  0  0  0  0  0  0
  185.4230  178.7640  139.4600 C   0  0  0  0  0  2  0  0  0  0  0  0
  181.7800  177.6010  139.2820 N   0  0  0  0  0  2  0  0  0  0  0  0
  182.0610  176.1750  139.4340 C   0  0  1  0  0  3  0  0  0  0  0  0
  180.8870  175.4940  140.1130 C   0  0  0  0  0  1  0  0  0  0  0  0
  182.3210  175.5530  138.1010 C   0  0  0  0  0  0  0  0  0  0  0  0
  183.5590  173.9610  136.7580 N   0  0  0  0  0  0  0  0  0  0  0  0
  181.2320  174.2580  136.0830 C   0  0  0  0  0  2  0  0  0  0  0  0
  182.6300  173.7660  135.8670 C   0  0  0  0  0  3  0  0  0  0  0  0
  181.2970  175.9750  136.6760 S   0  0  0  0  0  0  0  0  0  0  0  0
  183.3380  174.6970  137.9710 C   0  0  0  0  0  3  0  0  0  0  0  0
  2  5  1  0  0  0  0
  2  6  1  0  0  0  0
  3 10  1  0  0  0  0
  4  7  1  0  0  0  0
  4  8  1  0  0  0  0
  7  9  1  0  0  0  0
  8  2  2  0  0  0  0
  9  5  2  0  0  0  0
 10  1  1  0  0  0  0
 10  7  2  0  0  0  0
 11  3  2  0  0  0  0
 11 12  1  0  0  0  0
 12  4  2  0  0  0  0
 13  3  1  0  0  0  0
 14 13  1  0  0  0  0
 15 14  1  0  0  0  0
 16 19  1  0  0  0  0
 17 22  1  0  0  0  0
 18 17  1  0  0  0  0
 19 20  1  0  0  0  0
 20 22  1  0  0  0  0
 20 15  1  1  0  0  0
 21 18  1  0  0  0  0
 21 16  1  0  0  0  0
 23  1  1  0  0  0  0
 23 24  1  0  0  0  0
 25 29  1  0  0  0  0
 25 24  1  1  0  0  0
 27 26  1  6  0  0  0
 27 31  1  0  0  0  0
 28 30  1  6  0  0  0
 28 25  1  0  0  0  0
 31 28  1  0  0  0  0
 31 33  1  1  0  0  0
 32 34  1  0  0  0  0
 32 27  1  0  0  0  0
 33 29  1  0  0  0  0
 34 30  1  0  0  0  0
 35 36  1  0  0  0  0
 35 27  1  0  0  0  0
 36 37  1  6  0  0  0
 38 36  1  0  0  0  0
 39 43  1  0  0  0  0
 40 42  1  0  0  0  0
 41 40  1  0  0  0  0
 41 39  2  0  0  0  0
 42 38  1  0  0  0  0
 43 38  2  0  0  0  0
M  END
>  <MODEL>
2

>  <REMARK>
 VINA RESULT:      -8.3      3.537      8.090
  Name = 
  11 active torsions:
  status: ('A' for Active; 'I' for Inactive)
    1  A    between atoms: C_1  and  C_28
    2  A    between atoms: C_1  and  C_34
    3  A    between atoms: C_2  and  C_13
    4  A    between atoms: C_4  and  N_22
    5  A    between atoms: C_8  and  C_34
    6  A    between atoms: C_11  and  C_14
    7  A    between atoms: C_13  and  C_38
    8  A    between atoms: C_14  and  N_22
    9  A    between atoms: O_27  and  C_30
   10  A    between atoms: O_27  and  C_38
   11  A    between atoms: C_28  and  C_35
                            x       y       z     vdW  Elec       q    Type
                         _______ _______ _______ _____ _____    ______ ____

>  <TORSDO>
F 11

$$$$
=
 OpenBabel10272414293D

 43 48  0  0  1  0  0  0  0  0999 V2000
  187.4680  177.1470  142.7000 O   0  0  0  0  0  0  0  0  0  0  0  0
  188.2610  178.0360  147.5800 C   0  0  0  0  0  0  0  0  0  0  0  0
  185.3150  178.0590  143.5400 C   0  0  0  0  0  0  0  0  0  0  0  0
  186.4390  178.2720  146.0780 C   0  0  0  0  0  0  0  0  0  0  0  0
  189.0720  177.5460  146.5540 C   0  0  0  0  0  3  0  0  0  0  0  0
  188.8070  178.1740  148.9550 C   0  0  0  0  0  1  0  0  0  0  0  0
  187.2200  177.7850  145.0120 C   0  0  0  0  0  0  0  0  0  0  0  0
  186.9710  178.3850  147.3240 N   0  0  0  0  0  0  0  0  0  0  0  0
  188.5470  177.4200  145.2680 C   0  0  0  0  0  3  0  0  0  0  0  0
  186.6620  177.6560  143.7300 C   0  0  0  0  0  0  0  0  0  0  0  0
  184.5950  178.5310  144.5960 N   0  0  0  0  0  0  0  0  0  0  0  0
  185.1170  178.6380  145.8440 C   0  0  0  0  0  3  0  0  0  0  0  0
  184.6690  178.0750  142.1910 C   0  0  0  0  0  2  0  0  0  0  0  0
  185.1800  179.2440  141.3620 C   0  0  0  0  0  2  0  0  0  0  0  0
  184.8760  179.0330  139.8870 C   0  0  0  0  0  2  0  0  0  0  0  0
  181.8800  176.9780  138.5060 C   0  0  0  0  0  2  0  0  0  0  0  0
  180.9810  179.6830  139.6540 C   0  0  0  0  0  2  0  0  0  0  0  0
  180.3100  178.4310  139.0990 C   0  0  0  0  0  2  0  0  0  0  0  0
  183.3110  177.3290  138.9120 C   0  0  0  0  0  2  0  0  0  0  0  0
  183.4200  178.6510  139.6790 C   0  0  2  0  0  3  0  0  0  0  0  0
  180.9820  177.2810  139.5330 O   0  0  0  0  0  0  0  0  0  0  0  0
  182.5650  180.0070  138.8080 S   0  0  0  0  0  0  0  0  0  0  0  0
  188.3410  177.9380  141.9070 C   0  0  0  0  0  2  0  0  0  0  0  0
  189.4600  177.0740  141.3490 C   0  0  0  0  0  2  0  0  0  0  0  0
  189.8280  177.4990  139.9350 C   0  0  1  0  0  3  0  0  0  0  0  0
  190.1220  177.1960  135.9440 F   0  0  0  0  0  0  0  0  0  0  0  0
  189.2100  176.3130  136.5140 C   0  0  2  0  0  0  0  0  0  0  0  0
  189.7230  176.3680  139.0150 N   0  0  2  0  0  0  0  0  0  0  0  0
  188.8850  178.5930  139.4710 C   0  0  0  0  0  2  0  0  0  0  0  0
  191.0770  176.1080  138.5180 C   0  0  0  0  0  2  0  0  0  0  0  0
  188.8220  176.8000  137.9270 C   0  0  1  0  0  3  0  0  0  0  0  0
  189.8500  174.9250  136.6290 C   0  0  0  0  0  2  0  0  0  0  0  0
  188.6390  178.2980  138.0190 C   0  0  0  0  0  2  0  0  0  0  0  0
  191.0770  174.9250  137.5490 C   0  0  0  0  0  2  0  0  0  0  0  0
  187.9940  176.2410  135.6990 N   0  0  0  0  0  2  0  0  0  0  0  0
  186.8330  175.9290  136.5300 C   0  0  1  0  0  3  0  0  0  0  0  0
  185.7010  176.8850  136.2020 C   0  0  0  0  0  1  0  0  0  0  0  0
  186.4010  174.5170  136.3060 C   0  0  0  0  0  0  0  0  0  0  0  0
  185.2960  172.5270  137.1370 N   0  0  0  0  0  0  0  0  0  0  0  0
  185.0140  172.9140  134.7440 C   0  0  0  0  0  2  0  0  0  0  0  0
  184.9270  172.0670  135.9760 C   0  0  0  0  0  3  0  0  0  0  0  0
  186.6390  173.7270  134.7010 S   0  0  0  0  0  0  0  0  0  0  0  0
  185.8580  173.8360  137.3190 C   0  0  0  0  0  3  0  0  0  0  0  0
  1 10  1  0  0  0  0
  2  6  1  0  0  0  0
  3 10  2  0  0  0  0
  3 11  1  0  0  0  0
  4  8  2  0  0  0  0
  5  2  2  0  0  0  0
  7  9  2  0  0  0  0
  7  4  1  0  0  0  0
  8  2  1  0  0  0  0
  9  5  1  0  0  0  0
 10  7  1  0  0  0  0
 11 12  2  0  0  0  0
 12  4  1  0  0  0  0
 13  3  1  0  0  0  0
 14 13  1  0  0  0  0
 15 14  1  0  0  0  0
 16 19  1  0  0  0  0
 16 21  1  0  0  0  0
 18 21  1  0  0  0  0
 18 17  1  0  0  0  0
 19 20  1  0  0  0  0
 20 15  1  6  0  0  0
 22 17  1  0  0  0  0
 22 20  1  0  0  0  0
 23  1  1  0  0  0  0
 24 23  1  0  0  0  0
 25 24  1  1  0  0  0
 27 26  1  6  0  0  0
 27 32  1  0  0  0  0
 27 31  1  0  0  0  0
 28 30  1  6  0  0  0
 28 25  1  0  0  0  0
 29 25  1  0  0  0  0
 31 33  1  6  0  0  0
 31 28  1  0  0  0  0
 32 34  1  0  0  0  0
 33 29  1  0  0  0  0
 34 30  1  0  0  0  0
 35 27  1  0  0  0  0
 35 36  1  0  0  0  0
 36 37  1  6  0  0  0
 38 36  1  0  0  0  0
 38 43  2  0  0  0  0
 39 43  1  0  0  0  0
 40 41  1  0  0  0  0
 41 39  2  0  0  0  0
 42 40  1  0  0  0  0
 42 38  1  0  0  0  0
M  END
>  <MODEL>
3

>  <REMARK>
 VINA RESULT:      -8.3      2.720      4.475
  Name = 
  11 active torsions:
  status: ('A' for Active; 'I' for Inactive)
    1  A    between atoms: C_1  and  C_28
    2  A    between atoms: C_1  and  C_34
    3  A    between atoms: C_2  and  C_13
    4  A    between atoms: C_4  and  N_22
    5  A    between atoms: C_8  and  C_34
    6  A    between atoms: C_11  and  C_14
    7  A    between atoms: C_13  and  C_38
    8  A    between atoms: C_14  and  N_22
    9  A    between atoms: O_27  and  C_30
   10  A    between atoms: O_27  and  C_38
   11  A    between atoms: C_28  and  C_35
                            x       y       z     vdW  Elec       q    Type
                         _______ _______ _______ _____ _____    ______ ____

>  <TORSDO>
F 11

$$$$
=
 OpenBabel10272414293D

 43 48  0  0  1  0  0  0  0  0999 V2000
  187.8420  177.9350  143.6710 O   0  0  0  0  0  0  0  0  0  0  0  0
  191.2070  176.4820  147.1060 C   0  0  0  0  0  0  0  0  0  0  0  0
  186.7470  178.3660  145.8590 C   0  0  0  0  0  0  0  0  0  0  0  0
  189.0140  177.3870  147.1440 C   0  0  0  0  0  0  0  0  0  0  0  0
  191.2210  176.5160  145.7090 C   0  0  0  0  0  3  0  0  0  0  0  0
  192.3910  175.9720  147.8460 C   0  0  0  0  0  1  0  0  0  0  0  0
  188.9830  177.4410  145.7370 C   0  0  0  0  0  0  0  0  0  0  0  0
  190.1140  176.9140  147.7890 N   0  0  0  0  0  0  0  0  0  0  0  0
  190.1030  176.9960  145.0260 C   0  0  0  0  0  3  0  0  0  0  0  0
  187.8400  177.9170  145.0750 C   0  0  0  0  0  0  0  0  0  0  0  0
  186.8180  178.3030  147.2180 N   0  0  0  0  0  0  0  0  0  0  0  0
  187.9090  177.8240  147.8690 C   0  0  0  0  0  3  0  0  0  0  0  0
  185.5360  179.0020  145.2520 C   0  0  0  0  0  2  0  0  0  0  0  0
  184.8470  178.0420  144.2940 C   0  0  0  0  0  2  0  0  0  0  0  0
  183.6010  178.6770  143.6970 C   0  0  0  0  0  2  0  0  0  0  0  0
  184.5550  179.1100  139.9540 C   0  0  0  0  0  2  0  0  0  0  0  0
  181.8500  177.6890  140.2890 C   0  0  0  0  0  2  0  0  0  0  0  0
  182.7920  178.0340  139.1400 C   0  0  0  0  0  2  0  0  0  0  0  0
  184.6720  179.1560  141.4760 C   0  0  0  0  0  2  0  0  0  0  0  0
  183.5290  178.4350  142.1980 C   0  0  2  0  0  3  0  0  0  0  0  0
  184.1250  177.8500  139.5260 O   0  0  0  0  0  0  0  0  0  0  0  0
  181.8980  178.9740  141.5830 S   0  0  0  0  0  0  0  0  0  0  0  0
  188.8620  178.5320  142.8830 C   0  0  0  0  0  2  0  0  0  0  0  0
  188.3490  178.7860  141.4760 C   0  0  0  0  0  2  0  0  0  0  0  0
  188.5780  177.5750  140.5820 C   0  0  1  0  0  3  0  0  0  0  0  0
  189.6560  175.5750  137.2740 F   0  0  0  0  0  0  0  0  0  0  0  0
  190.1490  176.8750  137.3370 C   0  0  2  0  0  0  0  0  0  0  0  0
  188.8080  177.9930  139.2000 N   0  0  2  0  0  0  0  0  0  0  0  0
  189.7910  176.8070  141.0670 C   0  0  0  0  0  2  0  0  0  0  0  0
  187.6910  177.4630  138.4130 C   0  0  0  0  0  2  0  0  0  0  0  0
  190.0920  177.3880  138.7930 C   0  0  1  0  0  3  0  0  0  0  0  0
  189.2870  177.7890  136.4580 C   0  0  0  0  0  2  0  0  0  0  0  0
  190.4790  176.3430  139.8150 C   0  0  0  0  0  2  0  0  0  0  0  0
  187.8330  177.8590  136.9430 C   0  0  0  0  0  2  0  0  0  0  0  0
  191.5430  176.9130  136.8870 N   0  0  0  0  0  2  0  0  0  0  0  0
  191.9550  175.6110  136.3670 C   0  0  1  0  0  3  0  0  0  0  0  0
  192.0410  175.6720  134.8540 C   0  0  0  0  0  1  0  0  0  0  0  0
  193.2730  175.2150  136.9460 C   0  0  0  0  0  0  0  0  0  0  0  0
  194.8930  175.3970  138.7390 N   0  0  0  0  0  0  0  0  0  0  0  0
  194.7580  173.1820  137.7210 C   0  0  0  0  0  2  0  0  0  0  0  0
  195.4130  174.2130  138.5890 C   0  0  0  0  0  3  0  0  0  0  0  0
  194.2870  173.9550  136.1440 S   0  0  0  0  0  0  0  0  0  0  0  0
  193.7050  175.8230  138.0540 C   0  0  0  0  0  3  0  0  0  0  0  0
  1 10  1  0  0  0  0
  2  8  1  0  0  0  0
  2  6  1  0  0  0  0
  3 11  1  0  0  0  0
  4  8  2  0  0  0  0
  4 12  1  0  0  0  0
  5  2  2  0  0  0  0
  7  4  1  0  0  0  0
  9  5  1  0  0  0  0
  9  7  2  0  0  0  0
 10  7  1  0  0  0  0
 10  3  2  0  0  0  0
 11 12  2  0  0  0  0
 13  3  1  0  0  0  0
 14 13  1  0  0  0  0
 15 14  1  0  0  0  0
 16 19  1  0  0  0  0
 17 22  1  0  0  0  0
 18 21  1  0  0  0  0
 18 17  1  0  0  0  0
 19 20  1  0  0  0  0
 20 15  1  1  0  0  0
 21 16  1  0  0  0  0
 22 20  1  0  0  0  0
 23  1  1  0  0  0  0
 24 23  1  0  0  0  0
 25 29  1  0  0  0  0
 25 24  1  1  0  0  0
 27 26  1  6  0  0  0
 27 31  1  0  0  0  0
 28 30  1  6  0  0  0
 28 25  1  0  0  0  0
 31 28  1  0  0  0  0
 31 33  1  1  0  0  0
 32 34  1  0  0  0  0
 32 27  1  0  0  0  0
 33 29  1  0  0  0  0
 34 30  1  0  0  0  0
 35 27  1  0  0  0  0
 36 37  1  6  0  0  0
 36 35  1  0  0  0  0
 36 38  1  0  0  0  0
 38 43  2  0  0  0  0
 40 41  1  0  0  0  0
 41 39  2  0  0  0  0
 42 38  1  0  0  0  0
 42 40  1  0  0  0  0
 43 39  1  0  0  0  0
M  END
>  <MODEL>
4

>  <REMARK>
 VINA RESULT:      -8.2      1.488      2.266
  Name = 
  11 active torsions:
  status: ('A' for Active; 'I' for Inactive)
    1  A    between atoms: C_1  and  C_28
    2  A    between atoms: C_1  and  C_34
    3  A    between atoms: C_2  and  C_13
    4  A    between atoms: C_4  and  N_22
    5  A    between atoms: C_8  and  C_34
    6  A    between atoms: C_11  and  C_14
    7  A    between atoms: C_13  and  C_38
    8  A    between atoms: C_14  and  N_22
    9  A    between atoms: O_27  and  C_30
   10  A    between atoms: O_27  and  C_38
   11  A    between atoms: C_28  and  C_35
                            x       y       z     vdW  Elec       q    Type
                         _______ _______ _______ _____ _____    ______ ____

>  <TORSDO>
F 11

$$$$
=
 OpenBabel10272414293D

 43 48  0  0  1  0  0  0  0  0999 V2000
  187.2740  177.6680  142.1980 O   0  0  0  0  0  0  0  0  0  0  0  0
  187.6370  177.7870  147.2070 C   0  0  0  0  0  0  0  0  0  0  0  0
  185.1030  178.5930  142.9730 C   0  0  0  0  0  0  0  0  0  0  0  0
  185.9840  178.3610  145.6030 C   0  0  0  0  0  0  0  0  0  0  0  0
  188.5160  177.3970  146.1950 C   0  0  0  0  0  3  0  0  0  0  0  0
  188.0540  177.6880  148.6300 C   0  0  0  0  0  1  0  0  0  0  0  0
  186.8380  177.9800  144.5490 C   0  0  0  0  0  0  0  0  0  0  0  0
  186.3990  178.2560  146.8940 N   0  0  0  0  0  0  0  0  0  0  0  0
  188.1120  177.4940  144.8620 C   0  0  0  0  0  3  0  0  0  0  0  0
  186.4010  178.0760  143.2180 C   0  0  0  0  0  0  0  0  0  0  0  0
  184.3090  178.9540  144.0200 N   0  0  0  0  0  0  0  0  0  0  0  0
  184.7130  178.8450  145.3110 C   0  0  0  0  0  3  0  0  0  0  0  0
  184.5920  178.8470  141.5900 C   0  0  0  0  0  2  0  0  0  0  0  0
  183.3510  178.0110  141.3120 C   0  0  0  0  0  2  0  0  0  0  0  0
  182.7990  178.3100  139.9260 C   0  0  0  0  0  2  0  0  0  0  0  0
  184.9170  177.0800  136.9090 C   0  0  0  0  0  2  0  0  0  0  0  0
  182.6740  175.1010  137.6150 C   0  0  0  0  0  2  0  0  0  0  0  0
  183.8620  175.1430  136.6600 C   0  0  0  0  0  2  0  0  0  0  0  0
  184.4620  177.9500  138.0790 C   0  0  0  0  0  2  0  0  0  0  0  0
  183.3310  177.3220  138.9010 C   0  0  2  0  0  3  0  0  0  0  0  0
  184.9700  175.7330  137.2800 O   0  0  0  0  0  0  0  0  0  0  0  0
  181.9570  176.7640  137.8400 S   0  0  0  0  0  0  0  0  0  0  0  0
  188.3190  178.4740  141.6740 C   0  0  0  0  0  2  0  0  0  0  0  0
  188.3290  178.3880  140.1570 C   0  0  0  0  0  2  0  0  0  0  0  0
  188.9950  177.1030  139.6850 C   0  0  1  0  0  3  0  0  0  0  0  0
  190.9610  174.6670  137.1750 F   0  0  0  0  0  0  0  0  0  0  0  0
  191.0480  176.0140  136.8400 C   0  0  2  0  0  0  0  0  0  0  0  0
  189.2450  177.1530  138.2460 N   0  0  2  0  0  0  0  0  0  0  0  0
  190.3180  176.9220  140.4030 C   0  0  0  0  0  2  0  0  0  0  0  0
  188.4220  176.1010  137.6430 C   0  0  0  0  0  2  0  0  0  0  0  0
  190.6850  176.8830  138.0660 C   0  0  1  0  0  3  0  0  0  0  0  0
  190.0610  176.3230  135.7080 C   0  0  0  0  0  2  0  0  0  0  0  0
  191.2430  176.3510  139.3670 C   0  0  0  0  0  2  0  0  0  0  0  0
  188.6050  176.0780  136.1240 C   0  0  0  0  0  2  0  0  0  0  0  0
  192.4120  176.3490  136.4240 N   0  0  0  0  0  2  0  0  0  0  0  0
  193.1410  175.1480  136.0240 C   0  0  1  0  0  3  0  0  0  0  0  0
  193.3800  175.1720  134.5260 C   0  0  0  0  0  1  0  0  0  0  0  0
  194.4410  175.0620  136.7550 C   0  0  0  0  0  0  0  0  0  0  0  0
  195.6360  174.6830  138.8280 N   0  0  0  0  0  0  0  0  0  0  0  0
  196.7880  173.8720  136.8360 C   0  0  0  0  0  2  0  0  0  0  0  0
  196.7320  174.2370  138.2870 C   0  0  0  0  0  3  0  0  0  0  0  0
  196.0050  175.1950  135.8650 S   0  0  0  0  0  0  0  0  0  0  0  0
  194.4300  174.9100  138.0820 C   0  0  0  0  0  3  0  0  0  0  0  0
  1 10  1  0  0  0  0
  2  6  1  0  0  0  0
  3 10  2  0  0  0  0
  3 11  1  0  0  0  0
  4  8  2  0  0  0  0
  5  2  2  0  0  0  0
  7  9  2  0  0  0  0
  7  4  1  0  0  0  0
  8  2  1  0  0  0  0
  9  5  1  0  0  0  0
 10  7  1  0  0  0  0
 11 12  2  0  0  0  0
 12  4  1  0  0  0  0
 13  3  1  0  0  0  0
 14 13  1  0  0  0  0
 15 14  1  0  0  0  0
 16 21  1  0  0  0  0
 16 19  1  0  0  0  0
 17 22  1  0  0  0  0
 18 21  1  0  0  0  0
 18 17  1  0  0  0  0
 19 20  1  0  0  0  0
 20 15  1  1  0  0  0
 22 20  1  0  0  0  0
 23  1  1  0  0  0  0
 24 23  1  0  0  0  0
 25 24  1  1  0  0  0
 25 29  1  0  0  0  0
 27 26  1  1  0  0  0
 27 31  1  0  0  0  0
 28 30  1  6  0  0  0
 28 25  1  0  0  0  0
 31 28  1  0  0  0  0
 31 33  1  1  0  0  0
 32 34  1  0  0  0  0
 32 27  1  0  0  0  0
 33 29  1  0  0  0  0
 34 30  1  0  0  0  0
 35 27  1  0  0  0  0
 36 37  1  6  0  0  0
 36 35  1  0  0  0  0
 36 38  1  0  0  0  0
 38 43  2  0  0  0  0
 40 41  1  0  0  0  0
 41 39  2  0  0  0  0
 42 38  1  0  0  0  0
 42 40  1  0  0  0  0
 43 39  1  0  0  0  0
M  END
>  <MODEL>
5

>  <REMARK>
 VINA RESULT:      -8.1      1.873      2.438
  Name = 
  11 active torsions:
  status: ('A' for Active; 'I' for Inactive)
    1  A    between atoms: C_1  and  C_28
    2  A    between atoms: C_1  and  C_34
    3  A    between atoms: C_2  and  C_13
    4  A    between atoms: C_4  and  N_22
    5  A    between atoms: C_8  and  C_34
    6  A    between atoms: C_11  and  C_14
    7  A    between atoms: C_13  and  C_38
    8  A    between atoms: C_14  and  N_22
    9  A    between atoms: O_27  and  C_30
   10  A    between atoms: O_27  and  C_38
   11  A    between atoms: C_28  and  C_35
                            x       y       z     vdW  Elec       q    Type
                         _______ _______ _______ _____ _____    ______ ____

>  <TORSDO>
F 11

$$$$
=
 OpenBabel10272414293D

 43 48  0  0  1  0  0  0  0  0999 V2000
  186.3520  179.2750  142.1150 O   0  0  0  0  0  0  0  0  0  0  0  0
  181.8440  178.5990  140.0060 C   0  0  0  0  0  0  0  0  0  0  0  0
  184.7820  179.0440  144.0260 C   0  0  0  0  0  0  0  0  0  0  0  0
  182.6860  178.7410  142.2200 C   0  0  0  0  0  0  0  0  0  0  0  0
  183.1280  178.7690  139.4820 C   0  0  0  0  0  3  0  0  0  0  0  0
  180.6870  178.4300  139.0890 C   0  0  0  0  0  1  0  0  0  0  0  0
  183.9990  178.9140  141.7380 C   0  0  0  0  0  0  0  0  0  0  0  0
  181.6500  178.5890  141.3520 N   0  0  0  0  0  0  0  0  0  0  0  0
  184.2060  178.9290  140.3540 C   0  0  0  0  0  3  0  0  0  0  0  0
  185.0630  179.0850  142.6370 C   0  0  0  0  0  0  0  0  0  0  0  0
  183.5000  178.8690  144.4530 N   0  0  0  0  0  0  0  0  0  0  0  0
  182.4600  178.7250  143.5930 C   0  0  0  0  0  3  0  0  0  0  0  0
  185.8620  179.0940  145.0620 C   0  0  0  0  0  2  0  0  0  0  0  0
  186.4940  177.7220  145.2480 C   0  0  0  0  0  2  0  0  0  0  0  0
  187.2270  177.6430  146.5780 C   0  0  0  0  0  2  0  0  0  0  0  0
  190.9480  177.0390  147.5260 C   0  0  0  0  0  2  0  0  0  0  0  0
  190.4800  176.7760  144.4990 C   0  0  0  0  0  2  0  0  0  0  0  0
  191.6330  176.5510  145.4710 C   0  0  0  0  0  2  0  0  0  0  0  0
  189.4530  177.3060  147.6910 C   0  0  0  0  0  2  0  0  0  0  0  0
  188.6630  177.1850  146.3840 C   0  0  2  0  0  3  0  0  0  0  0  0
  191.1690  175.9670  146.6570 O   0  0  0  0  0  0  0  0  0  0  0  0
  189.4250  178.1620  145.0450 S   0  0  0  0  0  0  0  0  0  0  0  0
  187.2930  178.2290  141.9150 C   0  0  0  0  0  2  0  0  0  0  0  0
  188.2040  178.5680  140.7470 C   0  0  0  0  0  2  0  0  0  0  0  0
  188.7540  177.3070  140.0970 C   0  0  1  0  0  3  0  0  0  0  0  0
  190.4540  175.0640  137.2360 F   0  0  0  0  0  0  0  0  0  0  0  0
  190.6350  176.4330  137.0650 C   0  0  2  0  0  0  0  0  0  0  0  0
  188.9670  177.5170  138.6660 N   0  0  2  0  0  0  0  0  0  0  0  0
  190.0790  176.9400  140.7370 C   0  0  0  0  0  2  0  0  0  0  0  0
  188.0480  176.6110  137.9700 C   0  0  0  0  0  2  0  0  0  0  0  0
  190.3760  177.1660  138.4000 C   0  0  1  0  0  3  0  0  0  0  0  0
  189.6440  176.9510  136.0170 C   0  0  0  0  0  2  0  0  0  0  0  0
  190.9270  176.4370  139.6050 C   0  0  0  0  0  2  0  0  0  0  0  0
  188.1860  176.7640  136.4550 C   0  0  0  0  0  2  0  0  0  0  0  0
  192.0090  176.7160  136.6420 N   0  0  0  0  0  2  0  0  0  0  0  0
  192.6410  175.5150  136.0980 C   0  0  1  0  0  3  0  0  0  0  0  0
  192.7470  175.6350  134.5890 C   0  0  0  0  0  1  0  0  0  0  0  0
  193.9940  175.3240  136.7000 C   0  0  0  0  0  0  0  0  0  0  0  0
  195.3500  174.7970  138.6380 N   0  0  0  0  0  0  0  0  0  0  0  0
  196.2590  173.9910  136.5210 C   0  0  0  0  0  2  0  0  0  0  0  0
  196.3610  174.3050  137.9820 C   0  0  0  0  0  3  0  0  0  0  0  0
  195.4750  175.3940  135.6710 S   0  0  0  0  0  0  0  0  0  0  0  0
  194.0970  175.1240  138.0170 C   0  0  0  0  0  3  0  0  0  0  0  0
  1 10  1  0  0  0  0
  2  8  1  0  0  0  0
  3 11  1  0  0  0  0
  3 13  1  0  0  0  0
  4 12  1  0  0  0  0
  5  2  2  0  0  0  0
  5  9  1  0  0  0  0
  6  2  1  0  0  0  0
  7  4  1  0  0  0  0
  7 10  1  0  0  0  0
  8  4  2  0  0  0  0
  9  7  2  0  0  0  0
 10  3  2  0  0  0  0
 12 11  2  0  0  0  0
 13 14  1  0  0  0  0
 14 15  1  0  0  0  0
 16 19  1  0  0  0  0
 17 22  1  0  0  0  0
 17 18  1  0  0  0  0
 18 21  1  0  0  0  0
 20 15  1  1  0  0  0
 20 19  1  0  0  0  0
 21 16  1  0  0  0  0
 22 20  1  0  0  0  0
 23  1  1  0  0  0  0
 24 23  1  0  0  0  0
 25 29  1  0  0  0  0
 25 24  1  1  0  0  0
 27 26  1  1  0  0  0
 27 31  1  0  0  0  0
 28 30  1  6  0  0  0
 28 25  1  0  0  0  0
 31 28  1  0  0  0  0
 31 33  1  1  0  0  0
 32 34  1  0  0  0  0
 32 27  1  0  0  0  0
 33 29  1  0  0  0  0
 34 30  1  0  0  0  0
 35 27  1  0  0  0  0
 36 37  1  6  0  0  0
 36 35  1  0  0  0  0
 36 38  1  0  0  0  0
 38 43  2  0  0  0  0
 40 41  1  0  0  0  0
 41 39  2  0  0  0  0
 42 40  1  0  0  0  0
 42 38  1  0  0  0  0
 43 39  1  0  0  0  0
M  END
>  <MODEL>
6

>  <REMARK>
 VINA RESULT:      -8.1      2.281      6.045
  Name = 
  11 active torsions:
  status: ('A' for Active; 'I' for Inactive)
    1  A    between atoms: C_1  and  C_28
    2  A    between atoms: C_1  and  C_34
    3  A    between atoms: C_2  and  C_13
    4  A    between atoms: C_4  and  N_22
    5  A    between atoms: C_8  and  C_34
    6  A    between atoms: C_11  and  C_14
    7  A    between atoms: C_13  and  C_38
    8  A    between atoms: C_14  and  N_22
    9  A    between atoms: O_27  and  C_30
   10  A    between atoms: O_27  and  C_38
   11  A    between atoms: C_28  and  C_35
                            x       y       z     vdW  Elec       q    Type
                         _______ _______ _______ _____ _____    ______ ____

>  <TORSDO>
F 11

$$$$
=
 OpenBabel10272414293D

 43 48  0  0  1  0  0  0  0  0999 V2000
  182.7980  177.0670  138.7300 O   0  0  0  0  0  0  0  0  0  0  0  0
  181.1690  172.7080  136.8400 C   0  0  0  0  0  0  0  0  0  0  0  0
  184.5580  176.3730  137.1200 C   0  0  0  0  0  0  0  0  0  0  0  0
  183.0800  174.0840  136.5480 C   0  0  0  0  0  0  0  0  0  0  0  0
  180.6350  173.6070  137.7670 C   0  0  0  0  0  3  0  0  0  0  0  0
  180.4220  171.4700  136.4940 C   0  0  0  0  0  1  0  0  0  0  0  0
  182.5800  175.0200  137.4750 C   0  0  0  0  0  0  0  0  0  0  0  0
  182.3700  172.9620  136.2560 N   0  0  0  0  0  0  0  0  0  0  0  0
  181.3460  174.7650  138.0840 C   0  0  0  0  0  3  0  0  0  0  0  0
  183.3220  176.1700  137.7860 C   0  0  0  0  0  0  0  0  0  0  0  0
  185.0040  175.4470  136.2260 N   0  0  0  0  0  0  0  0  0  0  0  0
  184.3060  174.3190  135.9350 C   0  0  0  0  0  3  0  0  0  0  0  0
  185.3630  177.6230  137.2910 C   0  0  0  0  0  2  0  0  0  0  0  0
  186.4850  177.6850  136.2650 C   0  0  0  0  0  2  0  0  0  0  0  0
  187.6020  178.6000  136.7430 C   0  0  0  0  0  2  0  0  0  0  0  0
  189.8130  175.4860  137.4630 C   0  0  0  0  0  2  0  0  0  0  0  0
  190.2440  177.7020  139.5480 C   0  0  0  0  0  2  0  0  0  0  0  0
  190.8650  176.3490  139.2170 C   0  0  0  0  0  2  0  0  0  0  0  0
  188.8260  176.4070  136.7490 C   0  0  0  0  0  2  0  0  0  0  0  0
  188.7290  177.8010  137.3770 C   0  0  2  0  0  3  0  0  0  0  0  0
  190.9680  176.1830  137.8300 O   0  0  0  0  0  0  0  0  0  0  0  0
  188.4570  177.7110  139.1780 S   0  0  0  0  0  0  0  0  0  0  0  0
  183.1680  177.0870  140.1010 C   0  0  0  0  0  2  0  0  0  0  0  0
  182.6520  178.3560  140.7590 C   0  0  0  0  0  2  0  0  0  0  0  0
  183.7400  179.0260  141.5860 C   0  0  1  0  0  3  0  0  0  0  0  0
  186.2810  179.5070  144.6550 F   0  0  0  0  0  0  0  0  0  0  0  0
  185.7670  178.2190  144.5420 C   0  0  2  0  0  0  0  0  0  0  0  0
  183.8030  178.4400  142.9240 N   0  0  2  0  0  0  0  0  0  0  0  0
  185.0830  178.8370  140.9080 C   0  0  0  0  0  2  0  0  0  0  0  0
  183.4360  179.5040  143.8630 C   0  0  0  0  0  2  0  0  0  0  0  0
  185.2000  178.0040  143.1210 C   0  0  1  0  0  3  0  0  0  0  0  0
  184.6340  178.0320  145.5580 C   0  0  0  0  0  2  0  0  0  0  0  0
  186.0540  178.6160  142.0330 C   0  0  0  0  0  2  0  0  0  0  0  0
  183.4600  178.9850  145.3010 C   0  0  0  0  0  2  0  0  0  0  0  0
  186.8200  177.2280  144.7740 N   0  0  0  0  0  2  0  0  0  0  0  0
  188.0450  177.8740  145.2420 C   0  0  1  0  0  3  0  0  0  0  0  0
  188.4320  177.3100  146.5960 C   0  0  0  0  0  1  0  0  0  0  0  0
  189.1490  177.6650  144.2580 C   0  0  0  0  0  0  0  0  0  0  0  0
  191.3680  178.2400  143.4740 N   0  0  0  0  0  0  0  0  0  0  0  0
  190.7780  175.8880  143.1990 C   0  0  0  0  0  2  0  0  0  0  0  0
  191.6400  177.0850  142.9380 C   0  0  0  0  0  3  0  0  0  0  0  0
  189.0340  176.3650  143.0110 S   0  0  0  0  0  0  0  0  0  0  0  0
  190.2140  178.4700  144.2970 C   0  0  0  0  0  3  0  0  0  0  0  0
  1 23  1  0  0  0  0
  2  5  1  0  0  0  0
  3 13  1  0  0  0  0
  3 10  1  0  0  0  0
  4  7  1  0  0  0  0
  5  9  2  0  0  0  0
  6  2  1  0  0  0  0
  7 10  2  0  0  0  0
  7  9  1  0  0  0  0
  8  4  1  0  0  0  0
  8  2  2  0  0  0  0
 10  1  1  0  0  0  0
 11  3  2  0  0  0  0
 12 11  1  0  0  0  0
 12  4  2  0  0  0  0
 14 15  1  0  0  0  0
 14 13  1  0  0  0  0
 16 21  1  0  0  0  0
 18 17  1  0  0  0  0
 19 20  1  0  0  0  0
 19 16  1  0  0  0  0
 20 15  1  6  0  0  0
 20 22  1  0  0  0  0
 21 18  1  0  0  0  0
 22 17  1  0  0  0  0
 23 24  1  0  0  0  0
 25 24  1  6  0  0  0
 25 28  1  0  0  0  0
 27 26  1  1  0  0  0
 27 35  1  0  0  0  0
 27 32  1  0  0  0  0
 28 31  1  0  0  0  0
 28 30  1  1  0  0  0
 29 25  1  0  0  0  0
 29 33  1  0  0  0  0
 30 34  1  0  0  0  0
 31 33  1  6  0  0  0
 31 27  1  0  0  0  0
 34 32  1  0  0  0  0
 35 36  1  0  0  0  0
 36 37  1  1  0  0  0
 38 43  2  0  0  0  0
 38 36  1  0  0  0  0
 39 43  1  0  0  0  0
 41 40  1  0  0  0  0
 41 39  2  0  0  0  0
 42 40  1  0  0  0  0
 42 38  1  0  0  0  0
M  END
>  <MODEL>
7

>  <REMARK>
 VINA RESULT:      -8.0      4.044      9.086
  Name = 
  11 active torsions:
  status: ('A' for Active; 'I' for Inactive)
    1  A    between atoms: C_1  and  C_28
    2  A    between atoms: C_1  and  C_34
    3  A    between atoms: C_2  and  C_13
    4  A    between atoms: C_4  and  N_22
    5  A    between atoms: C_8  and  C_34
    6  A    between atoms: C_11  and  C_14
    7  A    between atoms: C_13  and  C_38
    8  A    between atoms: C_14  and  N_22
    9  A    between atoms: O_27  and  C_30
   10  A    between atoms: O_27  and  C_38
   11  A    between atoms: C_28  and  C_35
                            x       y       z     vdW  Elec       q    Type
                         _______ _______ _______ _____ _____    ______ ____

>  <TORSDO>
F 11

$$$$
=
 OpenBabel10272414293D

 43 48  0  0  1  0  0  0  0  0999 V2000
  186.4380  178.9080  139.7600 O   0  0  0  0  0  0  0  0  0  0  0  0
  181.4950  179.1460  140.6240 C   0  0  0  0  0  0  0  0  0  0  0  0
  186.1890  178.4100  142.1810 C   0  0  0  0  0  0  0  0  0  0  0  0
  183.4340  178.7140  141.9220 C   0  0  0  0  0  0  0  0  0  0  0  0
  182.2730  179.3050  139.4750 C   0  0  0  0  0  3  0  0  0  0  0  0
  180.0190  179.2940  140.5460 C   0  0  0  0  0  1  0  0  0  0  0  0
  184.2590  178.8640  140.7900 C   0  0  0  0  0  0  0  0  0  0  0  0
  182.0860  178.8570  141.8150 N   0  0  0  0  0  0  0  0  0  0  0  0
  183.6590  179.1650  139.5610 C   0  0  0  0  0  3  0  0  0  0  0  0
  185.6510  178.7310  140.9080 C   0  0  0  0  0  0  0  0  0  0  0  0
  185.3580  178.2680  143.2510 N   0  0  0  0  0  0  0  0  0  0  0  0
  184.0130  178.4170  143.1530 C   0  0  0  0  0  3  0  0  0  0  0  0
  187.6450  178.1280  142.3850 C   0  0  0  0  0  2  0  0  0  0  0  0
  187.8460  176.7430  142.9830 C   0  0  0  0  0  2  0  0  0  0  0  0
  189.3260  176.4520  143.1810 C   0  0  0  0  0  2  0  0  0  0  0  0
  189.0830  177.6700  146.8630 C   0  0  0  0  0  2  0  0  0  0  0  0
  191.7940  176.3490  146.2710 C   0  0  0  0  0  2  0  0  0  0  0  0
  191.0670  176.8970  147.4940 C   0  0  0  0  0  2  0  0  0  0  0  0
  188.6680  177.3660  145.4250 C   0  0  0  0  0  2  0  0  0  0  0  0
  189.7120  176.5580  144.6470 C   0  0  2  0  0  3  0  0  0  0  0  0
  189.7070  176.5640  147.4470 O   0  0  0  0  0  0  0  0  0  0  0  0
  191.3710  177.3050  144.7750 S   0  0  0  0  0  0  0  0  0  0  0  0
  186.5480  177.9540  138.7130 C   0  0  0  0  0  2  0  0  0  0  0  0
  187.8840  178.1100  138.0070 C   0  0  0  0  0  2  0  0  0  0  0  0
  188.8530  177.0110  138.4190 C   0  0  1  0  0  3  0  0  0  0  0  0
  192.0170  174.5620  138.0980 F   0  0  0  0  0  0  0  0  0  0  0  0
  192.0580  175.6570  137.2400 C   0  0  2  0  0  0  0  0  0  0  0  0
  189.6910  176.6140  137.2880 N   0  0  2  0  0  0  0  0  0  0  0  0
  189.7480  177.5140  139.5350 C   0  0  0  0  0  2  0  0  0  0  0  0
  189.3580  175.2180  136.9920 C   0  0  0  0  0  2  0  0  0  0  0  0
  191.0900  176.7520  137.7410 C   0  0  1  0  0  3  0  0  0  0  0  0
  191.6240  175.2200  135.8360 C   0  0  0  0  0  2  0  0  0  0  0  0
  191.0970  176.9220  139.2430 C   0  0  0  0  0  2  0  0  0  0  0  0
  190.1790  174.7080  135.8070 C   0  0  0  0  0  2  0  0  0  0  0  0
  193.4100  176.2200  137.1970 N   0  0  0  0  0  2  0  0  0  0  0  0
  194.1350  175.7370  136.0240 C   0  0  1  0  0  3  0  0  0  0  0  0
  194.5720  176.9160  135.1740 C   0  0  0  0  0  1  0  0  0  0  0  0
  195.3210  174.9320  136.4430 C   0  0  0  0  0  0  0  0  0  0  0  0
  197.7280  174.7080  136.6040 N   0  0  0  0  0  0  0  0  0  0  0  0
  196.4970  173.7290  138.4700 C   0  0  0  0  0  2  0  0  0  0  0  0
  197.7350  173.9400  137.6550 C   0  0  0  0  0  3  0  0  0  0  0  0
  195.1070  173.3860  137.3490 S   0  0  0  0  0  0  0  0  0  0  0  0
  196.5440  175.3580  136.1160 C   0  0  0  0  0  3  0  0  0  0  0  0
  1 10  1  0  0  0  0
  2  8  1  0  0  0  0
  3 13  1  0  0  0  0
  3 11  1  0  0  0  0
  4 12  1  0  0  0  0
  5  9  1  0  0  0  0
  5  2  2  0  0  0  0
  6  2  1  0  0  0  0
  7 10  1  0  0  0  0
  7  4  1  0  0  0  0
  8  4  2  0  0  0  0
  9  7  2  0  0  0  0
 10  3  2  0  0  0  0
 12 11  2  0  0  0  0
 13 14  1  0  0  0  0
 14 15  1  0  0  0  0
 16 21  1  0  0  0  0
 17 18  1  0  0  0  0
 19 16  1  0  0  0  0
 20 15  1  6  0  0  0
 20 22  1  0  0  0  0
 20 19  1  0  0  0  0
 21 18  1  0  0  0  0
 22 17  1  0  0  0  0
 23  1  1  0  0  0  0
 24 23  1  0  0  0  0
 25 24  1  6  0  0  0
 25 29  1  0  0  0  0
 27 31  1  0  0  0  0
 27 26  1  1  0  0  0
 28 30  1  1  0  0  0
 28 31  1  0  0  0  0
 28 25  1  0  0  0  0
 31 33  1  1  0  0  0
 32 27  1  0  0  0  0
 33 29  1  0  0  0  0
 34 32  1  0  0  0  0
 34 30  1  0  0  0  0
 35 27  1  0  0  0  0
 36 37  1  1  0  0  0
 36 38  1  0  0  0  0
 36 35  1  0  0  0  0
 38 42  1  0  0  0  0
 39 41  2  0  0  0  0
 41 40  1  0  0  0  0
 42 40  1  0  0  0  0
 43 38  2  0  0  0  0
 43 39  1  0  0  0  0
M  END
>  <MODEL>
8

>  <REMARK>
 VINA RESULT:      -7.9      2.631      6.375
  Name = 
  11 active torsions:
  status: ('A' for Active; 'I' for Inactive)
    1  A    between atoms: C_1  and  C_28
    2  A    between atoms: C_1  and  C_34
    3  A    between atoms: C_2  and  C_13
    4  A    between atoms: C_4  and  N_22
    5  A    between atoms: C_8  and  C_34
    6  A    between atoms: C_11  and  C_14
    7  A    between atoms: C_13  and  C_38
    8  A    between atoms: C_14  and  N_22
    9  A    between atoms: O_27  and  C_30
   10  A    between atoms: O_27  and  C_38
   11  A    between atoms: C_28  and  C_35
                            x       y       z     vdW  Elec       q    Type
                         _______ _______ _______ _____ _____    ______ ____

>  <TORSDO>
F 11

$$$$
=
 OpenBabel10272414293D

 43 48  0  0  1  0  0  0  0  0999 V2000
  181.7590  179.4140  138.8690 O   0  0  0  0  0  0  0  0  0  0  0  0
  180.5170  183.6000  136.3850 C   0  0  0  0  0  0  0  0  0  0  0  0
  181.3300  178.6690  136.5380 C   0  0  0  0  0  0  0  0  0  0  0  0
  180.7400  181.3000  135.8450 C   0  0  0  0  0  0  0  0  0  0  0  0
  180.8880  183.3490  137.7080 C   0  0  0  0  0  3  0  0  0  0  0  0
  180.1930  184.9860  135.9560 C   0  0  0  0  0  1  0  0  0  0  0  0
  181.1200  180.9990  137.1680 C   0  0  0  0  0  0  0  0  0  0  0  0
  180.4500  182.5800  135.4880 N   0  0  0  0  0  0  0  0  0  0  0  0
  181.1880  182.0430  138.0980 C   0  0  0  0  0  3  0  0  0  0  0  0
  181.4040  179.6740  137.5360 C   0  0  0  0  0  0  0  0  0  0  0  0
  180.9640  179.0010  135.2690 N   0  0  0  0  0  0  0  0  0  0  0  0
  180.6650  180.2750  134.9070 C   0  0  0  0  0  3  0  0  0  0  0  0
  181.7300  177.2510  136.8010 C   0  0  0  0  0  2  0  0  0  0  0  0
  183.1170  176.9710  136.2420 C   0  0  0  0  0  2  0  0  0  0  0  0
  183.8070  175.8730  137.0370 C   0  0  0  0  0  2  0  0  0  0  0  0
  187.0000  178.0780  137.2700 C   0  0  0  0  0  2  0  0  0  0  0  0
  187.6860  175.1000  136.9440 C   0  0  0  0  0  2  0  0  0  0  0  0
  188.4480  176.3960  137.1990 C   0  0  0  0  0  2  0  0  0  0  0  0
  185.5210  177.6940  137.2700 C   0  0  0  0  0  2  0  0  0  0  0  0
  185.2850  176.1810  137.2240 C   0  0  2  0  0  3  0  0  0  0  0  0
  187.7390  177.2160  138.0860 O   0  0  0  0  0  0  0  0  0  0  0  0
  186.2330  175.3920  135.8800 S   0  0  0  0  0  0  0  0  0  0  0  0
  183.0880  179.1660  139.3060 C   0  0  0  0  0  2  0  0  0  0  0  0
  183.0680  178.5010  140.6710 C   0  0  0  0  0  2  0  0  0  0  0  0
  184.1280  179.0970  141.5870 C   0  0  1  0  0  3  0  0  0  0  0  0
  186.4710  179.3830  144.8330 F   0  0  0  0  0  0  0  0  0  0  0  0
  185.9030  178.1250  144.6530 C   0  0  2  0  0  0  0  0  0  0  0  0
  184.0690  178.4800  142.9110 N   0  0  2  0  0  0  0  0  0  0  0  0
  185.5040  178.8550  140.9980 C   0  0  0  0  0  2  0  0  0  0  0  0
  183.6910  179.5400  143.8490 C   0  0  0  0  0  2  0  0  0  0  0  0
  185.4270  177.9700  143.1910 C   0  0  1  0  0  3  0  0  0  0  0  0
  184.6950  177.9730  145.5840 C   0  0  0  0  0  2  0  0  0  0  0  0
  186.3830  178.5610  142.1800 C   0  0  0  0  0  2  0  0  0  0  0  0
  183.5900  178.9900  145.2720 C   0  0  0  0  0  2  0  0  0  0  0  0
  186.8890  177.0770  144.9310 N   0  0  0  0  0  2  0  0  0  0  0  0
  188.1400  177.6580  145.4140 C   0  0  1  0  0  3  0  0  0  0  0  0
  188.3210  177.3280  146.8830 C   0  0  0  0  0  1  0  0  0  0  0  0
  189.2930  177.1380  144.6190 C   0  0  0  0  0  0  0  0  0  0  0  0
  190.1140  176.0710  142.6050 N   0  0  0  0  0  0  0  0  0  0  0  0
  191.6110  177.7600  143.5340 C   0  0  0  0  0  2  0  0  0  0  0  0
  191.2960  176.6160  142.6200 C   0  0  0  0  0  3  0  0  0  0  0  0
  190.9860  177.3730  145.1970 S   0  0  0  0  0  0  0  0  0  0  0  0
  189.0530  176.4750  143.4850 C   0  0  0  0  0  3  0  0  0  0  0  0
  1 23  1  0  0  0  0
  2  5  1  0  0  0  0
  3 13  1  0  0  0  0
  3 10  1  0  0  0  0
  4  7  1  0  0  0  0
  5  9  2  0  0  0  0
  6  2  1  0  0  0  0
  7 10  2  0  0  0  0
  7  9  1  0  0  0  0
  8  4  1  0  0  0  0
  8  2  2  0  0  0  0
 10  1  1  0  0  0  0
 11  3  2  0  0  0  0
 12 11  1  0  0  0  0
 12  4  2  0  0  0  0
 14 13  1  0  0  0  0
 14 15  1  0  0  0  0
 16 19  1  0  0  0  0
 16 21  1  0  0  0  0
 17 18  1  0  0  0  0
 18 21  1  0  0  0  0
 20 15  1  6  0  0  0
 20 19  1  0  0  0  0
 22 17  1  0  0  0  0
 22 20  1  0  0  0  0
 23 24  1  0  0  0  0
 25 24  1  6  0  0  0
 25 28  1  0  0  0  0
 27 26  1  1  0  0  0
 27 35  1  0  0  0  0
 27 32  1  0  0  0  0
 28 31  1  0  0  0  0
 28 30  1  1  0  0  0
 29 25  1  0  0  0  0
 29 33  1  0  0  0  0
 30 34  1  0  0  0  0
 31 33  1  6  0  0  0
 31 27  1  0  0  0  0
 34 32  1  0  0  0  0
 35 36  1  0  0  0  0
 36 37  1  1  0  0  0
 38 42  1  0  0  0  0
 38 36  1  0  0  0  0
 39 41  2  0  0  0  0
 39 43  1  0  0  0  0
 40 42  1  0  0  0  0
 41 40  1  0  0  0  0
 43 38  2  0  0  0  0
M  END
>  <MODEL>
9

>  <REMARK>
 VINA RESULT:      -7.8      3.915      8.989
  Name = 
  11 active torsions:
  status: ('A' for Active; 'I' for Inactive)
    1  A    between atoms: C_1  and  C_28
    2  A    between atoms: C_1  and  C_34
    3  A    between atoms: C_2  and  C_13
    4  A    between atoms: C_4  and  N_22
    5  A    between atoms: C_8  and  C_34
    6  A    between atoms: C_11  and  C_14
    7  A    between atoms: C_13  and  C_38
    8  A    between atoms: C_14  and  N_22
    9  A    between atoms: O_27  and  C_30
   10  A    between atoms: O_27  and  C_38
   11  A    between atoms: C_28  and  C_35
                            x       y       z     vdW  Elec       q    Type
                         _______ _______ _______ _____ _____    ______ ____

>  <TORSDO>
F 11

$$$$
