=
 OpenBabel10272400373D

 31 34  0  0  1  0  0  0  0  0999 V2000
  188.4320  177.7260  143.9050 C   0  0  0  0  0  0  0  0  0  0  0  0
  189.0420  177.3780  145.1270 C   0  0  0  0  0  0  0  0  0  0  0  0
  188.9320  176.9980  147.4620 C   0  0  0  0  0  3  0  0  0  0  0  0
  186.9980  178.0480  143.7820 C   0  0  0  0  0  0  0  0  0  0  0  0
  184.8820  178.4910  144.0180 C   0  0  0  0  0  0  0  0  0  0  0  0
  188.3330  177.3300  146.2880 N   0  0  0  0  0  2  0  0  0  0  0  0
  188.6080  178.2270  141.3990 C   0  0  1  0  0  3  0  0  0  0  0  0
  191.1430  177.1210  143.9920 N   0  0  0  0  0  0  0  0  0  0  0  0
  190.2580  176.7020  147.4920 N   0  0  0  0  0  0  0  0  0  0  0  0
  187.0920  177.9680  141.2660 C   0  0  0  0  0  2  0  0  0  0  0  0
  189.2070  177.7450  142.7190 C   0  0  0  0  0  0  0  0  0  0  0  0
  186.0350  178.2460  144.7560 C   0  0  0  0  0  3  0  0  0  0  0  0
  192.2380  176.4400  146.4200 O   0  0  0  0  0  0  0  0  0  0  0  0
  186.3870  178.1850  142.5650 C   0  0  0  0  0  0  0  0  0  0  0  0
  185.1160  178.4410  142.7240 O   0  0  0  0  0  0  0  0  0  0  0  0
  190.5750  177.4560  142.8030 C   0  0  0  0  0  3  0  0  0  0  0  0
  190.4170  177.0710  145.1410 C   0  0  0  0  0  0  0  0  0  0  0  0
  191.0120  176.7280  146.3620 C   0  0  0  0  0  0  0  0  0  0  0  0
  189.7030  177.9290  136.4860 C   0  0  0  0  0  1  0  0  0  0  0  0
  188.5410  179.1860  138.7100 O   0  0  0  0  0  0  0  0  0  0  0  0
  189.2040  178.1360  138.9340 C   0  0  0  0  0  0  0  0  0  0  0  0
  189.8630  177.4560  137.8560 N   0  0  0  0  0  0  0  0  0  0  0  0
  189.3010  177.6240  140.2670 N   0  0  0  0  0  2  0  0  0  0  0  0
  192.0140  176.5610  138.6230 C   0  0  0  0  0  1  0  0  0  0  0  0
  190.6160  176.2340  138.1200 C   0  0  2  0  0  3  0  0  0  0  0  0
  190.6790  175.4350  136.9440 O   0  0  0  0  0  0  0  0  0  0  0  0
  190.7670  174.0410  136.9900 C   0  0  0  0  0  0  0  0  0  0  0  0
  189.8090  173.3480  137.4250 O   0  0  0  0  0  0  0  0  0  0  0  0
  192.0090  173.3660  136.5180 C   0  0  0  0  0  1  0  0  0  0  0  0
  183.5600  178.7670  144.5830 C   0  0  0  0  0  3  0  0  0  0  0  0
  183.4360  179.1300  145.7830 O   0  0  0  0  0  0  0  0  0  0  0  0
  1  2  1  0  0  0  0
  2 17  2  0  0  0  0
  2  6  1  0  0  0  0
  3  9  2  0  0  0  0
  4  1  1  0  0  0  0
  4 12  1  0  0  0  0
  5 30  1  0  0  0  0
  5 12  2  0  0  0  0
  6  3  1  0  0  0  0
  7 23  1  6  0  0  0
  7 11  1  0  0  0  0
  8 17  1  0  0  0  0
 10  7  1  0  0  0  0
 10 14  1  0  0  0  0
 11 16  1  0  0  0  0
 11  1  2  0  0  0  0
 14 15  1  0  0  0  0
 14  4  2  0  0  0  0
 15  5  1  0  0  0  0
 16  8  2  0  0  0  0
 17 18  1  0  0  0  0
 18 13  2  0  0  0  0
 18  9  1  0  0  0  0
 19 22  1  0  0  0  0
 20 21  2  0  0  0  0
 21 23  1  0  0  0  0
 22 25  1  0  0  0  0
 22 21  1  0  0  0  0
 25 24  1  6  0  0  0
 26 27  1  0  0  0  0
 26 25  1  0  0  0  0
 27 28  2  0  0  0  0
 29 27  1  0  0  0  0
 30 31  2  0  0  0  0
M  END
>  <MODEL>
1

>  <REMARK>
 VINA RESULT:      -9.1      0.000      0.000
  Name = 
  5 active torsions:
  status: ('A' for Active; 'I' for Inactive)
    1  A    between atoms: C_1  and  O_24
    2  A    between atoms: C_2  and  C_13
    3  A    between atoms: C_15  and  N_23
    4  A    between atoms: C_19  and  N_22
    5  A    between atoms: C_19  and  O_24
                            x       y       z     vdW  Elec       q    Type
                         _______ _______ _______ _____ _____    ______ ____

>  <TORSDO>
F 5

$$$$
=
 OpenBabel10272400373D

 31 34  0  0  1  0  0  0  0  0999 V2000
  188.2590  177.4920  144.8900 C   0  0  0  0  0  0  0  0  0  0  0  0
  187.1770  177.9650  145.6590 C   0  0  0  0  0  0  0  0  0  0  0  0
  186.2150  178.5420  147.7450 C   0  0  0  0  0  3  0  0  0  0  0  0
  189.5580  177.1110  145.4740 C   0  0  0  0  0  0  0  0  0  0  0  0
  191.2840  176.6160  146.7020 C   0  0  0  0  0  0  0  0  0  0  0  0
  187.2650  178.0890  147.0120 N   0  0  0  0  0  2  0  0  0  0  0  0
  189.2330  176.7830  142.6300 C   0  0  1  0  0  3  0  0  0  0  0  0
  185.8690  178.1970  143.6580 N   0  0  0  0  0  0  0  0  0  0  0  0
  185.0520  178.8860  147.1320 N   0  0  0  0  0  0  0  0  0  0  0  0
  190.6520  176.9760  143.2090 C   0  0  0  0  0  2  0  0  0  0  0  0
  188.1260  177.3980  143.4830 C   0  0  0  0  0  0  0  0  0  0  0  0
  189.9400  176.9640  146.7960 C   0  0  0  0  0  3  0  0  0  0  0  0
  183.8220  179.1230  145.2430 O   0  0  0  0  0  0  0  0  0  0  0  0
  190.6540  176.8480  144.6970 C   0  0  0  0  0  0  0  0  0  0  0  0
  191.6830  176.5620  145.4490 O   0  0  0  0  0  0  0  0  0  0  0  0
  186.8990  177.7410  142.8970 C   0  0  0  0  0  3  0  0  0  0  0  0
  185.9790  178.3210  145.0080 C   0  0  0  0  0  0  0  0  0  0  0  0
  184.9110  178.7880  145.7840 C   0  0  0  0  0  0  0  0  0  0  0  0
  190.9040  176.9970  137.8770 C   0  0  0  0  0  1  0  0  0  0  0  0
  190.8270  175.8660  140.4450 O   0  0  0  0  0  0  0  0  0  0  0  0
  190.0390  176.8270  140.2240 C   0  0  0  0  0  0  0  0  0  0  0  0
  189.9890  177.4330  138.9250 N   0  0  0  0  0  0  0  0  0  0  0  0
  189.1910  177.3100  141.2710 N   0  0  0  0  0  2  0  0  0  0  0  0
  187.6580  178.1860  139.0580 C   0  0  0  0  0  1  0  0  0  0  0  0
  189.0850  178.5530  138.6800 C   0  0  2  0  0  3  0  0  0  0  0  0
  189.1570  178.9500  137.3150 O   0  0  0  0  0  0  0  0  0  0  0  0
  188.0590  178.8770  136.4550 C   0  0  0  0  0  0  0  0  0  0  0  0
  187.1530  179.7530  136.4890 O   0  0  0  0  0  0  0  0  0  0  0  0
  187.9560  177.7500  135.4860 C   0  0  0  0  0  1  0  0  0  0  0  0
  192.1670  176.3440  147.8360 C   0  0  0  0  0  3  0  0  0  0  0  0
  193.0650  175.4630  147.7560 O   0  0  0  0  0  0  0  0  0  0  0  0
  1  4  1  0  0  0  0
  1  2  1  0  0  0  0
  2  6  1  0  0  0  0
  4 12  1  0  0  0  0
  5 12  2  0  0  0  0
  5 30  1  0  0  0  0
  6  3  1  0  0  0  0
  7 23  1  6  0  0  0
  7 10  1  0  0  0  0
  7 11  1  0  0  0  0
  8 17  1  0  0  0  0
  9  3  2  0  0  0  0
 10 14  1  0  0  0  0
 11  1  2  0  0  0  0
 13 18  2  0  0  0  0
 14 15  1  0  0  0  0
 14  4  2  0  0  0  0
 15  5  1  0  0  0  0
 16 11  1  0  0  0  0
 16  8  2  0  0  0  0
 17  2  2  0  0  0  0
 17 18  1  0  0  0  0
 18  9  1  0  0  0  0
 19 22  1  0  0  0  0
 21 20  2  0  0  0  0
 21 23  1  0  0  0  0
 22 21  1  0  0  0  0
 25 22  1  0  0  0  0
 25 24  1  6  0  0  0
 26 25  1  0  0  0  0
 27 28  2  0  0  0  0
 27 26  1  0  0  0  0
 29 27  1  0  0  0  0
 31 30  2  0  0  0  0
M  END
>  <MODEL>
2

>  <REMARK>
 VINA RESULT:      -8.9      1.956      5.115
  Name = 
  5 active torsions:
  status: ('A' for Active; 'I' for Inactive)
    1  A    between atoms: C_1  and  O_24
    2  A    between atoms: C_2  and  C_13
    3  A    between atoms: C_15  and  N_23
    4  A    between atoms: C_19  and  N_22
    5  A    between atoms: C_19  and  O_24
                            x       y       z     vdW  Elec       q    Type
                         _______ _______ _______ _____ _____    ______ ____

>  <TORSDO>
F 5

$$$$
=
 OpenBabel10272400373D

 31 34  0  0  1  0  0  0  0  0999 V2000
  187.5620  178.0210  142.6410 C   0  0  0  0  0  0  0  0  0  0  0  0
  188.6390  177.7710  141.7670 C   0  0  0  0  0  0  0  0  0  0  0  0
  190.8620  177.0560  141.3720 C   0  0  0  0  0  3  0  0  0  0  0  0
  187.6270  177.7720  144.0930 C   0  0  0  0  0  0  0  0  0  0  0  0
  188.1240  177.3170  146.1610 C   0  0  0  0  0  0  0  0  0  0  0  0
  189.8280  177.2890  142.2230 N   0  0  0  0  0  0  0  0  0  0  0  0
  185.1890  178.8960  143.0450 C   0  0  1  0  0  3  0  0  0  0  0  0
  187.2980  178.5140  139.9190 N   0  0  0  0  0  0  0  0  0  0  0  0
  190.7210  177.2990  140.0430 N   0  0  0  0  0  2  0  0  0  0  0  0
  185.1420  178.0880  144.3610 C   0  0  0  0  0  2  0  0  0  0  0  0
  186.3380  178.5060  142.1180 C   0  0  0  0  0  0  0  0  0  0  0  0
  188.7010  177.4410  144.9010 C   0  0  0  0  0  3  0  0  0  0  0  0
  189.4520  177.9820  138.2940 O   0  0  0  0  0  0  0  0  0  0  0  0
  186.5140  177.8280  144.8890 C   0  0  0  0  0  0  0  0  0  0  0  0
  186.8290  177.5440  146.1250 O   0  0  0  0  0  0  0  0  0  0  0  0
  186.2470  178.7640  140.7440 C   0  0  0  0  0  3  0  0  0  0  0  0
  188.4760  178.0250  140.3910 C   0  0  0  0  0  0  0  0  0  0  0  0
  189.5550  177.7740  139.5340 C   0  0  0  0  0  0  0  0  0  0  0  0
  180.1480  178.7940  143.0010 C   0  0  0  0  0  1  0  0  0  0  0  0
  182.6220  179.2160  144.2550 O   0  0  0  0  0  0  0  0  0  0  0  0
  182.6510  178.9180  143.0300 C   0  0  0  0  0  0  0  0  0  0  0  0
  181.4280  178.7250  142.3060 N   0  0  0  0  0  0  0  0  0  0  0  0
  183.9080  178.7750  142.3600 N   0  0  0  0  0  2  0  0  0  0  0  0
  181.0120  179.5320  140.0270 C   0  0  0  0  0  1  0  0  0  0  0  0
  181.4690  178.3670  140.8910 C   0  0  2  0  0  3  0  0  0  0  0  0
  180.6630  177.2180  140.6550 O   0  0  0  0  0  0  0  0  0  0  0  0
  181.1020  176.1420  139.8800 C   0  0  0  0  0  0  0  0  0  0  0  0
  180.3010  175.2410  139.5120 O   0  0  0  0  0  0  0  0  0  0  0  0
  182.5350  176.0590  139.4810 C   0  0  0  0  0  1  0  0  0  0  0  0
  188.8440  176.9740  147.3880 C   0  0  0  0  0  3  0  0  0  0  0  0
  190.0890  176.7870  147.3730 O   0  0  0  0  0  0  0  0  0  0  0  0
  1  4  1  0  0  0  0
  2  6  1  0  0  0  0
  2  1  2  0  0  0  0
  3  6  2  0  0  0  0
  4 14  2  0  0  0  0
  4 12  1  0  0  0  0
  5 30  1  0  0  0  0
  7 23  1  6  0  0  0
  7 10  1  0  0  0  0
  8 17  2  0  0  0  0
  8 16  1  0  0  0  0
  9  3  1  0  0  0  0
 10 14  1  0  0  0  0
 11  1  1  0  0  0  0
 11  7  1  0  0  0  0
 12  5  2  0  0  0  0
 13 18  2  0  0  0  0
 14 15  1  0  0  0  0
 15  5  1  0  0  0  0
 16 11  2  0  0  0  0
 17  2  1  0  0  0  0
 18  9  1  0  0  0  0
 18 17  1  0  0  0  0
 21 20  2  0  0  0  0
 22 19  1  0  0  0  0
 22 21  1  0  0  0  0
 23 21  1  0  0  0  0
 25 24  1  6  0  0  0
 25 22  1  0  0  0  0
 26 25  1  0  0  0  0
 27 26  1  0  0  0  0
 28 27  2  0  0  0  0
 29 27  1  0  0  0  0
 31 30  2  0  0  0  0
M  END
>  <MODEL>
3

>  <REMARK>
 VINA RESULT:      -8.6      3.334      7.091
  Name = 
  5 active torsions:
  status: ('A' for Active; 'I' for Inactive)
    1  A    between atoms: C_1  and  O_24
    2  A    between atoms: C_2  and  C_13
    3  A    between atoms: C_15  and  N_23
    4  A    between atoms: C_19  and  N_22
    5  A    between atoms: C_19  and  O_24
                            x       y       z     vdW  Elec       q    Type
                         _______ _______ _______ _____ _____    ______ ____

>  <TORSDO>
F 5

$$$$
=
 OpenBabel10272400373D

 31 34  0  0  1  0  0  0  0  0999 V2000
  189.3470  177.7190  141.9020 C   0  0  0  0  0  0  0  0  0  0  0  0
  189.4000  177.5440  143.2990 C   0  0  0  0  0  0  0  0  0  0  0  0
  188.3690  177.5790  145.4310 C   0  0  0  0  0  3  0  0  0  0  0  0
  188.1210  178.1160  141.1840 C   0  0  0  0  0  0  0  0  0  0  0  0
  186.1500  178.7410  140.5100 C   0  0  0  0  0  0  0  0  0  0  0  0
  188.3060  177.7460  144.0840 N   0  0  0  0  0  2  0  0  0  0  0  0
  190.5200  177.7690  139.6250 C   0  0  1  0  0  3  0  0  0  0  0  0
  191.7200  176.9470  143.1260 N   0  0  0  0  0  0  0  0  0  0  0  0
  189.5340  177.1990  146.0190 N   0  0  0  0  0  0  0  0  0  0  0  0
  189.1450  177.5990  138.9420 C   0  0  0  0  0  2  0  0  0  0  0  0
  190.5070  177.4790  141.1250 C   0  0  0  0  0  0  0  0  0  0  0  0
  186.8980  178.5460  141.6670 C   0  0  0  0  0  3  0  0  0  0  0  0
  191.7180  176.6180  145.8560 O   0  0  0  0  0  0  0  0  0  0  0  0
  188.0380  178.0840  139.8190 C   0  0  0  0  0  0  0  0  0  0  0  0
  186.8470  178.4540  139.4310 O   0  0  0  0  0  0  0  0  0  0  0  0
  191.6920  177.1130  141.7770 C   0  0  0  0  0  3  0  0  0  0  0  0
  190.6140  177.1460  143.8930 C   0  0  0  0  0  0  0  0  0  0  0  0
  190.6540  176.9780  145.2830 C   0  0  0  0  0  0  0  0  0  0  0  0
  191.8370  173.6530  137.0270 C   0  0  0  0  0  1  0  0  0  0  0  0
  189.9430  175.3790  138.1710 O   0  0  0  0  0  0  0  0  0  0  0  0
  191.1530  175.7270  138.2570 C   0  0  0  0  0  0  0  0  0  0  0  0
  192.1790  174.9200  137.6630 N   0  0  0  0  0  0  0  0  0  0  0  0
  191.5020  176.9320  138.9460 N   0  0  0  0  0  2  0  0  0  0  0  0
  194.0710  175.9330  136.4750 C   0  0  0  0  0  1  0  0  0  0  0  0
  193.5780  175.3210  137.7770 C   0  0  2  0  0  3  0  0  0  0  0  0
  194.3790  174.2020  138.1430 O   0  0  0  0  0  0  0  0  0  0  0  0
  195.6330  174.3440  138.7400 C   0  0  0  0  0  0  0  0  0  0  0  0
  195.7930  175.0980  139.7380 O   0  0  0  0  0  0  0  0  0  0  0  0
  196.7980  173.5930  138.1930 C   0  0  0  0  0  1  0  0  0  0  0  0
  184.7630  179.2030  140.4680 C   0  0  0  0  0  3  0  0  0  0  0  0
  184.3640  179.9610  139.5440 O   0  0  0  0  0  0  0  0  0  0  0  0
  1  2  1  0  0  0  0
  2 17  2  0  0  0  0
  2  6  1  0  0  0  0
  3  9  2  0  0  0  0
  4 12  1  0  0  0  0
  4  1  1  0  0  0  0
  5 12  2  0  0  0  0
  6  3  1  0  0  0  0
  7 23  1  6  0  0  0
  7 11  1  0  0  0  0
  8 17  1  0  0  0  0
 10  7  1  0  0  0  0
 10 14  1  0  0  0  0
 11 16  1  0  0  0  0
 11  1  2  0  0  0  0
 14  4  2  0  0  0  0
 15 14  1  0  0  0  0
 15  5  1  0  0  0  0
 16  8  2  0  0  0  0
 17 18  1  0  0  0  0
 18 13  2  0  0  0  0
 18  9  1  0  0  0  0
 19 22  1  0  0  0  0
 20 21  2  0  0  0  0
 21 23  1  0  0  0  0
 22 25  1  0  0  0  0
 22 21  1  0  0  0  0
 25 24  1  6  0  0  0
 25 26  1  0  0  0  0
 26 27  1  0  0  0  0
 27 28  2  0  0  0  0
 29 27  1  0  0  0  0
 30  5  1  0  0  0  0
 31 30  2  0  0  0  0
M  END
>  <MODEL>
4

>  <REMARK>
 VINA RESULT:      -8.2      2.384      3.436
  Name = 
  5 active torsions:
  status: ('A' for Active; 'I' for Inactive)
    1  A    between atoms: C_1  and  O_24
    2  A    between atoms: C_2  and  C_13
    3  A    between atoms: C_15  and  N_23
    4  A    between atoms: C_19  and  N_22
    5  A    between atoms: C_19  and  O_24
                            x       y       z     vdW  Elec       q    Type
                         _______ _______ _______ _____ _____    ______ ____

>  <TORSDO>
F 5

$$$$
=
 OpenBabel10272400373D

 31 34  0  0  1  0  0  0  0  0999 V2000
  187.6170  177.9660  142.7680 C   0  0  0  0  0  0  0  0  0  0  0  0
  188.7460  177.6860  141.9720 C   0  0  0  0  0  0  0  0  0  0  0  0
  190.9750  176.9220  141.7370 C   0  0  0  0  0  3  0  0  0  0  0  0
  187.5770  177.7320  144.2240 C   0  0  0  0  0  0  0  0  0  0  0  0
  187.9240  177.2890  146.3250 C   0  0  0  0  0  0  0  0  0  0  0  0
  189.8900  177.1850  142.5120 N   0  0  0  0  0  0  0  0  0  0  0  0
  185.2410  178.8930  143.0010 C   0  0  1  0  0  3  0  0  0  0  0  0
  187.5490  178.4360  140.0300 N   0  0  0  0  0  0  0  0  0  0  0  0
  190.9300  177.1530  140.3990 N   0  0  0  0  0  2  0  0  0  0  0  0
  185.0870  178.1000  144.3180 C   0  0  0  0  0  2  0  0  0  0  0  0
  186.4410  178.4700  142.1580 C   0  0  0  0  0  0  0  0  0  0  0  0
  188.5870  177.3880  145.1050 C   0  0  0  0  0  3  0  0  0  0  0  0
  189.7970  177.8440  138.5610 O   0  0  0  0  0  0  0  0  0  0  0  0
  186.4150  177.8190  144.9410 C   0  0  0  0  0  0  0  0  0  0  0  0
  186.6380  177.5410  146.1980 O   0  0  0  0  0  0  0  0  0  0  0  0
  186.4500  178.7160  140.7790 C   0  0  0  0  0  3  0  0  0  0  0  0
  188.6820  177.9280  140.5860 C   0  0  0  0  0  0  0  0  0  0  0  0
  189.8110  177.6470  139.8060 C   0  0  0  0  0  0  0  0  0  0  0  0
  180.2140  178.7810  142.6280 C   0  0  0  0  0  1  0  0  0  0  0  0
  182.6000  179.1690  144.0530 O   0  0  0  0  0  0  0  0  0  0  0  0
  182.7090  178.9100  142.8230 C   0  0  0  0  0  0  0  0  0  0  0  0
  181.5360  178.7370  142.0150 N   0  0  0  0  0  0  0  0  0  0  0  0
  184.0070  178.7910  142.2310 N   0  0  0  0  0  2  0  0  0  0  0  0
  181.5440  176.9260  140.3610 C   0  0  0  0  0  1  0  0  0  0  0  0
  181.6700  178.4230  140.5960 C   0  0  2  0  0  3  0  0  0  0  0  0
  182.9160  178.9070  140.1050 O   0  0  0  0  0  0  0  0  0  0  0  0
  182.9990  179.9090  139.1360 C   0  0  0  0  0  0  0  0  0  0  0  0
  184.1070  180.4380  138.8470 O   0  0  0  0  0  0  0  0  0  0  0  0
  181.7640  180.3600  138.4340 C   0  0  0  0  0  1  0  0  0  0  0  0
  188.5500  176.9450  147.6010 C   0  0  0  0  0  3  0  0  0  0  0  0
  188.4530  177.7150  148.5940 O   0  0  0  0  0  0  0  0  0  0  0  0
  1  4  1  0  0  0  0
  2  6  1  0  0  0  0
  2  1  2  0  0  0  0
  3  6  2  0  0  0  0
  4 14  2  0  0  0  0
  4 12  1  0  0  0  0
  5 30  1  0  0  0  0
  7 23  1  6  0  0  0
  7 10  1  0  0  0  0
  8 17  2  0  0  0  0
  8 16  1  0  0  0  0
  9  3  1  0  0  0  0
 10 14  1  0  0  0  0
 11  1  1  0  0  0  0
 11  7  1  0  0  0  0
 12  5  2  0  0  0  0
 13 18  2  0  0  0  0
 14 15  1  0  0  0  0
 15  5  1  0  0  0  0
 16 11  2  0  0  0  0
 17  2  1  0  0  0  0
 18  9  1  0  0  0  0
 18 17  1  0  0  0  0
 21 20  2  0  0  0  0
 22 19  1  0  0  0  0
 22 21  1  0  0  0  0
 23 21  1  0  0  0  0
 25 24  1  1  0  0  0
 25 22  1  0  0  0  0
 26 25  1  0  0  0  0
 27 26  1  0  0  0  0
 28 27  2  0  0  0  0
 29 27  1  0  0  0  0
 30 31  2  0  0  0  0
M  END
>  <MODEL>
5

>  <REMARK>
 VINA RESULT:      -8.1      3.235      6.868
  Name = 
  5 active torsions:
  status: ('A' for Active; 'I' for Inactive)
    1  A    between atoms: C_1  and  O_24
    2  A    between atoms: C_2  and  C_13
    3  A    between atoms: C_15  and  N_23
    4  A    between atoms: C_19  and  N_22
    5  A    between atoms: C_19  and  O_24
                            x       y       z     vdW  Elec       q    Type
                         _______ _______ _______ _____ _____    ______ ____

>  <TORSDO>
F 5

$$$$
=
 OpenBabel10272400373D

 31 34  0  0  1  0  0  0  0  0999 V2000
  186.3300  178.0030  142.2590 C   0  0  0  0  0  0  0  0  0  0  0  0
  186.5500  178.2750  140.8940 C   0  0  0  0  0  0  0  0  0  0  0  0
  185.8280  179.1470  138.8140 C   0  0  0  0  0  3  0  0  0  0  0  0
  185.0880  178.3700  142.9650 C   0  0  0  0  0  0  0  0  0  0  0  0
  183.1230  179.0280  143.6270 C   0  0  0  0  0  0  0  0  0  0  0  0
  185.6080  178.8930  140.1310 N   0  0  0  0  0  0  0  0  0  0  0  0
  187.1030  176.9600  144.4670 C   0  0  1  0  0  3  0  0  0  0  0  0
  188.7280  177.2750  141.0570 N   0  0  0  0  0  0  0  0  0  0  0  0
  187.0050  178.7890  138.2370 N   0  0  0  0  0  2  0  0  0  0  0  0
  186.0980  177.8630  145.2160 C   0  0  0  0  0  2  0  0  0  0  0  0
  187.3480  177.3740  143.0180 C   0  0  0  0  0  0  0  0  0  0  0  0
  183.8880  178.8550  142.4770 C   0  0  0  0  0  3  0  0  0  0  0  0
  189.0670  177.8620  138.3920 O   0  0  0  0  0  0  0  0  0  0  0  0
  184.9740  178.2810  144.3260 C   0  0  0  0  0  0  0  0  0  0  0  0
  183.7920  178.6870  144.7080 O   0  0  0  0  0  0  0  0  0  0  0  0
  188.5350  177.0010  142.3740 C   0  0  0  0  0  3  0  0  0  0  0  0
  187.7770  177.9010  140.3110 C   0  0  0  0  0  0  0  0  0  0  0  0
  187.9820  178.1750  138.9540 C   0  0  0  0  0  0  0  0  0  0  0  0
  189.9430  178.0470  148.4890 C   0  0  0  0  0  1  0  0  0  0  0  0
  187.4960  177.9450  147.1190 O   0  0  0  0  0  0  0  0  0  0  0  0
  188.4980  177.4540  146.5290 C   0  0  0  0  0  0  0  0  0  0  0  0
  189.7770  177.4310  147.1780 N   0  0  0  0  0  0  0  0  0  0  0  0
  188.3560  176.9150  145.2100 N   0  0  0  0  0  2  0  0  0  0  0  0
  191.8780  176.1990  147.4680 C   0  0  0  0  0  1  0  0  0  0  0  0
  190.9340  176.8740  146.4850 C   0  0  2  0  0  3  0  0  0  0  0  0
  191.6090  177.8970  145.7610 O   0  0  0  0  0  0  0  0  0  0  0  0
  191.5440  177.9970  144.3690 C   0  0  0  0  0  0  0  0  0  0  0  0
  191.8490  177.0180  143.6360 O   0  0  0  0  0  0  0  0  0  0  0  0
  191.1070  179.2770  143.7430 C   0  0  0  0  0  1  0  0  0  0  0  0
  181.7480  179.5270  143.6600 C   0  0  0  0  0  3  0  0  0  0  0  0
  180.8050  178.7880  144.0480 O   0  0  0  0  0  0  0  0  0  0  0  0
  1  4  1  0  0  0  0
  1 11  1  0  0  0  0
  2  1  2  0  0  0  0
  3  6  2  0  0  0  0
  4 14  2  0  0  0  0
  5 30  1  0  0  0  0
  5 15  1  0  0  0  0
  6  2  1  0  0  0  0
  7 23  1  1  0  0  0
  7 10  1  0  0  0  0
  8 16  1  0  0  0  0
  9  3  1  0  0  0  0
  9 18  1  0  0  0  0
 11  7  1  0  0  0  0
 12  4  1  0  0  0  0
 12  5  2  0  0  0  0
 13 18  2  0  0  0  0
 14 15  1  0  0  0  0
 14 10  1  0  0  0  0
 16 11  2  0  0  0  0
 17  2  1  0  0  0  0
 17  8  2  0  0  0  0
 18 17  1  0  0  0  0
 21 20  2  0  0  0  0
 21 22  1  0  0  0  0
 22 19  1  0  0  0  0
 23 21  1  0  0  0  0
 25 22  1  0  0  0  0
 25 24  1  1  0  0  0
 26 25  1  0  0  0  0
 27 26  1  0  0  0  0
 28 27  2  0  0  0  0
 29 27  1  0  0  0  0
 30 31  2  0  0  0  0
M  END
>  <MODEL>
6

>  <REMARK>
 VINA RESULT:      -8.0      2.543      6.664
  Name = 
  5 active torsions:
  status: ('A' for Active; 'I' for Inactive)
    1  A    between atoms: C_1  and  O_24
    2  A    between atoms: C_2  and  C_13
    3  A    between atoms: C_15  and  N_23
    4  A    between atoms: C_19  and  N_22
    5  A    between atoms: C_19  and  O_24
                            x       y       z     vdW  Elec       q    Type
                         _______ _______ _______ _____ _____    ______ ____

>  <TORSDO>
F 5

$$$$
=
 OpenBabel10272400373D

 31 34  0  0  1  0  0  0  0  0999 V2000
  186.1440  178.2860  143.0470 C   0  0  0  0  0  0  0  0  0  0  0  0
  186.6500  178.0380  144.3390 C   0  0  0  0  0  0  0  0  0  0  0  0
  186.3370  177.7940  146.6740 C   0  0  0  0  0  3  0  0  0  0  0  0
  184.7170  178.5410  142.7740 C   0  0  0  0  0  0  0  0  0  0  0  0
  182.5740  178.9080  142.7890 C   0  0  0  0  0  0  0  0  0  0  0  0
  185.8390  178.0300  145.4310 N   0  0  0  0  0  2  0  0  0  0  0  0
  186.5350  178.6440  140.5410 C   0  0  1  0  0  3  0  0  0  0  0  0
  188.8560  177.8000  143.4180 N   0  0  0  0  0  0  0  0  0  0  0  0
  187.6640  177.5550  146.8430 N   0  0  0  0  0  0  0  0  0  0  0  0
  185.0480  178.3150  140.2880 C   0  0  0  0  0  2  0  0  0  0  0  0
  187.0250  178.2670  141.9370 C   0  0  0  0  0  0  0  0  0  0  0  0
  183.6620  178.7560  143.6430 C   0  0  0  0  0  3  0  0  0  0  0  0
  189.7430  177.3120  145.9740 O   0  0  0  0  0  0  0  0  0  0  0  0
  184.2180  178.5780  141.5010 C   0  0  0  0  0  0  0  0  0  0  0  0
  182.9290  178.7910  141.5270 O   0  0  0  0  0  0  0  0  0  0  0  0
  188.3890  178.0400  142.1640 C   0  0  0  0  0  3  0  0  0  0  0  0
  188.0280  177.7890  144.4980 C   0  0  0  0  0  0  0  0  0  0  0  0
  188.5180  177.5450  145.7860 C   0  0  0  0  0  0  0  0  0  0  0  0
  187.6760  177.6350  135.7340 C   0  0  0  0  0  1  0  0  0  0  0  0
  186.2490  179.0070  137.7230 O   0  0  0  0  0  0  0  0  0  0  0  0
  187.1390  178.2030  138.1160 C   0  0  0  0  0  0  0  0  0  0  0  0
  187.9410  177.4930  137.1610 N   0  0  0  0  0  0  0  0  0  0  0  0
  187.3520  178.0030  139.5170 N   0  0  0  0  0  2  0  0  0  0  0  0
  190.2710  177.2750  137.8950 C   0  0  0  0  0  1  0  0  0  0  0  0
  188.9590  176.5550  137.6230 C   0  0  2  0  0  3  0  0  0  0  0  0
  189.1430  175.5210  136.6610 O   0  0  0  0  0  0  0  0  0  0  0  0
  189.4580  174.2100  137.0230 C   0  0  0  0  0  0  0  0  0  0  0  0
  190.4780  173.9600  137.7210 O   0  0  0  0  0  0  0  0  0  0  0  0
  188.5790  173.0910  136.5790 C   0  0  0  0  0  1  0  0  0  0  0  0
  181.1970  179.1630  143.2130 C   0  0  0  0  0  3  0  0  0  0  0  0
  180.6450  180.2710  142.9790 O   0  0  0  0  0  0  0  0  0  0  0  0
  1  2  1  0  0  0  0
  2 17  2  0  0  0  0
  2  6  1  0  0  0  0
  3  9  2  0  0  0  0
  4  1  1  0  0  0  0
  4 12  1  0  0  0  0
  5 30  1  0  0  0  0
  5 12  2  0  0  0  0
  6  3  1  0  0  0  0
  7 23  1  6  0  0  0
  7 11  1  0  0  0  0
  8 17  1  0  0  0  0
 10  7  1  0  0  0  0
 10 14  1  0  0  0  0
 11 16  1  0  0  0  0
 11  1  2  0  0  0  0
 14 15  1  0  0  0  0
 14  4  2  0  0  0  0
 15  5  1  0  0  0  0
 16  8  2  0  0  0  0
 17 18  1  0  0  0  0
 18 13  2  0  0  0  0
 18  9  1  0  0  0  0
 19 22  1  0  0  0  0
 20 21  2  0  0  0  0
 21 23  1  0  0  0  0
 22 25  1  0  0  0  0
 22 21  1  0  0  0  0
 25 24  1  6  0  0  0
 26 27  1  0  0  0  0
 26 25  1  0  0  0  0
 27 28  2  0  0  0  0
 29 27  1  0  0  0  0
 31 30  2  0  0  0  0
M  END
>  <MODEL>
7

>  <REMARK>
 VINA RESULT:      -7.7      1.957      2.484
  Name = 
  5 active torsions:
  status: ('A' for Active; 'I' for Inactive)
    1  A    between atoms: C_1  and  O_24
    2  A    between atoms: C_2  and  C_13
    3  A    between atoms: C_15  and  N_23
    4  A    between atoms: C_19  and  N_22
    5  A    between atoms: C_19  and  O_24
                            x       y       z     vdW  Elec       q    Type
                         _______ _______ _______ _____ _____    ______ ____

>  <TORSDO>
F 5

$$$$
=
 OpenBabel10272400373D

 31 34  0  0  1  0  0  0  0  0999 V2000
  188.6740  178.0250  140.4310 C   0  0  0  0  0  0  0  0  0  0  0  0
  187.4800  178.1080  139.6860 C   0  0  0  0  0  0  0  0  0  0  0  0
  186.2750  177.8190  137.6680 C   0  0  0  0  0  3  0  0  0  0  0  0
  189.9410  177.5210  139.8710 C   0  0  0  0  0  0  0  0  0  0  0  0
  191.5990  176.7650  138.6830 C   0  0  0  0  0  0  0  0  0  0  0  0
  187.4300  177.7310  138.3790 N   0  0  0  0  0  0  0  0  0  0  0  0
  189.9690  178.4460  142.6000 C   0  0  1  0  0  3  0  0  0  0  0  0
  186.3470  178.9770  141.6170 N   0  0  0  0  0  0  0  0  0  0  0  0
  185.1430  178.2830  138.2580 N   0  0  0  0  0  2  0  0  0  0  0  0
  191.0180  177.4070  142.1450 C   0  0  0  0  0  2  0  0  0  0  0  0
  188.6730  178.4120  141.7940 C   0  0  0  0  0  0  0  0  0  0  0  0
  190.2850  177.2080  138.5670 C   0  0  0  0  0  3  0  0  0  0  0  0
  184.0670  179.0860  140.0850 O   0  0  0  0  0  0  0  0  0  0  0  0
  191.0290  177.2600  140.6590 C   0  0  0  0  0  0  0  0  0  0  0  0
  192.0130  176.7990  139.9320 O   0  0  0  0  0  0  0  0  0  0  0  0
  187.4870  178.9080  142.3530 C   0  0  0  0  0  3  0  0  0  0  0  0
  186.3140  178.5880  140.3130 C   0  0  0  0  0  0  0  0  0  0  0  0
  185.1350  178.6670  139.5620 C   0  0  0  0  0  0  0  0  0  0  0  0
  190.9950  176.4550  147.1170 C   0  0  0  0  0  1  0  0  0  0  0  0
  191.6000  176.9770  144.4270 O   0  0  0  0  0  0  0  0  0  0  0  0
  190.5410  177.4910  144.8810 C   0  0  0  0  0  0  0  0  0  0  0  0
  190.1820  177.3060  146.2570 N   0  0  0  0  0  0  0  0  0  0  0  0
  189.6990  178.2660  144.0210 N   0  0  0  0  0  2  0  0  0  0  0  0
  189.0510  178.1330  148.2710 C   0  0  0  0  0  1  0  0  0  0  0  0
  188.9490  177.8930  146.7720 C   0  0  2  0  0  3  0  0  0  0  0  0
  187.8430  177.0480  146.4720 O   0  0  0  0  0  0  0  0  0  0  0  0
  186.6450  177.5400  145.9480 C   0  0  0  0  0  0  0  0  0  0  0  0
  186.2640  177.2150  144.7920 O   0  0  0  0  0  0  0  0  0  0  0  0
  185.8080  178.4620  146.7660 C   0  0  0  0  0  1  0  0  0  0  0  0
  192.4380  176.3090  137.5740 C   0  0  0  0  0  3  0  0  0  0  0  0
  193.6130  176.7410  137.4360 O   0  0  0  0  0  0  0  0  0  0  0  0
  1 11  1  0  0  0  0
  2 17  1  0  0  0  0
  2  1  2  0  0  0  0
  3  9  1  0  0  0  0
  3  6  2  0  0  0  0
  4  1  1  0  0  0  0
  4 14  2  0  0  0  0
  5 15  1  0  0  0  0
  6  2  1  0  0  0  0
  7 23  1  1  0  0  0
  8 16  1  0  0  0  0
  9 18  1  0  0  0  0
 10  7  1  0  0  0  0
 11 16  2  0  0  0  0
 11  7  1  0  0  0  0
 12  5  2  0  0  0  0
 12  4  1  0  0  0  0
 14 10  1  0  0  0  0
 15 14  1  0  0  0  0
 17  8  2  0  0  0  0
 18 13  2  0  0  0  0
 18 17  1  0  0  0  0
 20 21  2  0  0  0  0
 21 22  1  0  0  0  0
 22 25  1  0  0  0  0
 22 19  1  0  0  0  0
 23 21  1  0  0  0  0
 25 24  1  1  0  0  0
 26 25  1  0  0  0  0
 27 26  1  0  0  0  0
 27 29  1  0  0  0  0
 28 27  2  0  0  0  0
 30  5  1  0  0  0  0
 31 30  2  0  0  0  0
M  END
>  <MODEL>
8

>  <REMARK>
 VINA RESULT:      -7.6      2.298      8.272
  Name = 
  5 active torsions:
  status: ('A' for Active; 'I' for Inactive)
    1  A    between atoms: C_1  and  O_24
    2  A    between atoms: C_2  and  C_13
    3  A    between atoms: C_15  and  N_23
    4  A    between atoms: C_19  and  N_22
    5  A    between atoms: C_19  and  O_24
                            x       y       z     vdW  Elec       q    Type
                         _______ _______ _______ _____ _____    ______ ____

>  <TORSDO>
F 5

$$$$
=
 OpenBabel10272400373D

 31 34  0  0  1  0  0  0  0  0999 V2000
  187.7960  177.7690  140.6190 C   0  0  0  0  0  0  0  0  0  0  0  0
  188.6680  177.6590  139.5170 C   0  0  0  0  0  0  0  0  0  0  0  0
  189.1450  177.9560  137.2170 C   0  0  0  0  0  3  0  0  0  0  0  0
  186.4400  178.3410  140.5210 C   0  0  0  0  0  0  0  0  0  0  0  0
  184.5200  179.1980  139.9660 C   0  0  0  0  0  0  0  0  0  0  0  0
  188.2980  178.0710  138.2740 N   0  0  0  0  0  0  0  0  0  0  0  0
  187.2770  177.3400  143.0900 C   0  0  1  0  0  3  0  0  0  0  0  0
  190.3360  176.6890  140.9470 N   0  0  0  0  0  0  0  0  0  0  0  0
  190.3860  177.4290  137.3890 N   0  0  0  0  0  2  0  0  0  0  0  0
  186.1880  178.4330  143.0250 C   0  0  0  0  0  2  0  0  0  0  0  0
  188.2310  177.3430  141.8980 C   0  0  0  0  0  0  0  0  0  0  0  0
  185.6970  178.7050  139.4120 C   0  0  0  0  0  3  0  0  0  0  0  0
  191.9680  176.5310  138.7410 O   0  0  0  0  0  0  0  0  0  0  0  0
  185.6900  178.6230  141.6310 C   0  0  0  0  0  0  0  0  0  0  0  0
  184.5440  179.1440  141.2800 O   0  0  0  0  0  0  0  0  0  0  0  0
  189.5100  176.7840  142.0230 C   0  0  0  0  0  3  0  0  0  0  0  0
  189.9520  177.1130  139.7130 C   0  0  0  0  0  0  0  0  0  0  0  0
  190.8080  177.0080  138.6100 C   0  0  0  0  0  0  0  0  0  0  0  0
  187.5030  178.0290  148.0800 C   0  0  0  0  0  1  0  0  0  0  0  0
  186.1100  177.5850  145.6850 O   0  0  0  0  0  0  0  0  0  0  0  0
  187.3690  177.6170  145.6110 C   0  0  0  0  0  0  0  0  0  0  0  0
  188.1560  177.7990  146.7970 N   0  0  0  0  0  0  0  0  0  0  0  0
  188.0140  177.4670  144.3420 N   0  0  0  0  0  2  0  0  0  0  0  0
  190.0470  178.2880  145.3120 C   0  0  0  0  0  1  0  0  0  0  0  0
  189.6120  177.8480  146.7020 C   0  0  2  0  0  3  0  0  0  0  0  0
  190.1660  176.5760  147.0240 O   0  0  0  0  0  0  0  0  0  0  0  0
  191.5200  176.4030  147.3170 C   0  0  0  0  0  0  0  0  0  0  0  0
  192.0840  177.1020  148.2010 O   0  0  0  0  0  0  0  0  0  0  0  0
  192.3080  175.3780  146.5760 C   0  0  0  0  0  1  0  0  0  0  0  0
  183.3830  179.7190  139.2060 C   0  0  0  0  0  3  0  0  0  0  0  0
  183.3400  180.9300  138.8610 O   0  0  0  0  0  0  0  0  0  0  0  0
  1 11  1  0  0  0  0
  2 17  1  0  0  0  0
  2  1  2  0  0  0  0
  3  9  1  0  0  0  0
  3  6  2  0  0  0  0
  4  1  1  0  0  0  0
  4 14  2  0  0  0  0
  5 15  1  0  0  0  0
  6  2  1  0  0  0  0
  7 23  1  1  0  0  0
  8 16  1  0  0  0  0
  9 18  1  0  0  0  0
 10  7  1  0  0  0  0
 11 16  2  0  0  0  0
 11  7  1  0  0  0  0
 12  5  2  0  0  0  0
 12  4  1  0  0  0  0
 14 10  1  0  0  0  0
 15 14  1  0  0  0  0
 17  8  2  0  0  0  0
 18 13  2  0  0  0  0
 18 17  1  0  0  0  0
 21 20  2  0  0  0  0
 21 22  1  0  0  0  0
 22 19  1  0  0  0  0
 23 21  1  0  0  0  0
 25 24  1  6  0  0  0
 25 22  1  0  0  0  0
 25 26  1  0  0  0  0
 26 27  1  0  0  0  0
 27 28  2  0  0  0  0
 29 27  1  0  0  0  0
 30  5  1  0  0  0  0
 31 30  2  0  0  0  0
M  END
>  <MODEL>
9

>  <REMARK>
 VINA RESULT:      -7.3      2.146      7.100
  Name = 
  5 active torsions:
  status: ('A' for Active; 'I' for Inactive)
    1  A    between atoms: C_1  and  O_24
    2  A    between atoms: C_2  and  C_13
    3  A    between atoms: C_15  and  N_23
    4  A    between atoms: C_19  and  N_22
    5  A    between atoms: C_19  and  O_24
                            x       y       z     vdW  Elec       q    Type
                         _______ _______ _______ _____ _____    ______ ____

>  <TORSDO>
F 5

$$$$
