=
 OpenBabel10272414203D

 43 48  0  0  1  0  0  0  0  0999 V2000
  191.3590  176.0030  147.0730 C   0  0  1  0  0  3  0  0  0  0  0  0
  187.2260  178.0030  144.7760 C   0  0  0  0  0  0  0  0  0  0  0  0
  187.9770  178.3210  142.1190 C   0  0  0  0  0  0  0  0  0  0  0  0
  189.1310  177.0840  146.6280 C   0  0  0  0  0  0  0  0  0  0  0  0
  191.9050  176.8550  145.9400 C   0  0  0  0  0  2  0  0  0  0  0  0
  192.4160  175.8400  148.1420 C   0  0  0  0  0  1  0  0  0  0  0  0
  189.5050  177.2710  145.2770 C   0  0  0  0  0  0  0  0  0  0  0  0
  190.1300  176.6800  147.6730 C   0  0  0  0  0  2  0  0  0  0  0  0
  190.8890  176.9000  144.8010 C   0  0  0  0  0  2  0  0  0  0  0  0
  188.8760  177.8790  143.0390 N   0  0  0  0  0  0  0  0  0  0  0  0
  188.5460  177.7190  144.3500 C   0  0  0  0  0  0  0  0  0  0  0  0
  186.8800  177.8300  146.1200 C   0  0  0  0  0  3  0  0  0  0  0  0
  186.2760  178.4460  143.8400 C   0  0  0  0  0  0  0  0  0  0  0  0
  186.6680  178.6090  142.5060 C   0  0  0  0  0  3  0  0  0  0  0  0
  187.8290  177.3800  147.0390 C   0  0  0  0  0  3  0  0  0  0  0  0
  188.3690  178.4690  140.6860 C   0  0  1  0  0  3  0  0  0  0  0  0
  189.5560  176.7390  137.5390 C   0  0  0  0  0  3  0  0  0  0  0  0
  189.6390  177.2420  140.2140 S   0  0  0  0  0  0  0  0  0  0  0  0
  187.1560  178.3110  139.7750 C   0  0  0  0  0  2  0  0  0  0  0  0
  188.9130  177.2190  138.5970 C   0  0  0  0  0  0  0  0  0  0  0  0
  187.6320  177.8150  138.5010 N   0  0  0  0  0  2  0  0  0  0  0  0
  188.9740  176.7980  136.2350 N   0  0  0  0  0  2  0  0  0  0  0  0
  188.6920  175.6080  135.4370 C   0  0  2  0  0  0  0  0  0  0  0  0
  189.8810  175.1830  134.8360 O   0  0  0  0  0  1  0  0  0  0  0  0
  187.6540  175.9360  134.3520 C   0  0  0  0  0  2  0  0  0  0  0  0
  185.7360  177.5370  134.4110 C   0  0  0  0  0  1  0  0  0  0  0  0
  187.2460  177.4070  134.3460 C   0  0  0  0  0  2  0  0  0  0  0  0
  188.1650  174.4930  136.3520 C   0  0  0  0  0  2  0  0  0  0  0  0
  186.6730  174.2270  136.1860 C   0  0  1  0  0  3  0  0  0  0  0  0
  184.3960  174.5700  137.1240 C   0  0  0  0  0  2  0  0  0  0  0  0
  185.2980  172.2350  136.8100 C   0  0  0  0  0  3  0  0  0  0  0  0
  184.2750  173.0950  137.5090 C   0  0  0  0  0  2  0  0  0  0  0  0
  186.4110  172.7440  136.2530 C   0  0  0  0  0  3  0  0  0  0  0  0
  185.8540  174.9990  137.2230 C   0  0  0  0  0  2  0  0  0  0  0  0
  184.9690  178.7350  144.2750 O   0  0  0  0  0  0  0  0  0  0  0  0
  182.6530  178.4310  141.3650 C   0  0  0  0  0  3  0  0  0  0  0  0
  181.4010  178.9590  142.0090 C   0  0  2  0  0  3  0  0  0  0  0  0
  182.6180  178.7340  144.1780 C   0  0  0  0  0  3  0  0  0  0  0  0
  183.7740  178.3060  142.0800 C   0  0  0  0  0  3  0  0  0  0  0  0
  183.7830  178.6060  143.5330 C   0  0  0  0  0  0  0  0  0  0  0  0
  181.3110  178.5010  143.4680 C   0  0  0  0  0  2  0  0  0  0  0  0
  180.5540  177.4120  140.3280 N   0  0  0  0  0  1  0  0  0  0  0  0
  180.1860  178.4980  141.2210 C   0  0  0  0  0  2  0  0  0  0  0  0
  1  8  1  0  0  0  0
  1  6  1  1  0  0  0
  2 12  1  0  0  0  0
  3 14  2  0  0  0  0
  3 10  1  0  0  0  0
  4 15  1  0  0  0  0
  4  8  1  0  0  0  0
  5  1  1  0  0  0  0
  7  4  2  0  0  0  0
  9  7  1  0  0  0  0
  9  5  1  0  0  0  0
 10 11  2  0  0  0  0
 11  2  1  0  0  0  0
 11  7  1  0  0  0  0
 12 15  2  0  0  0  0
 13 35  1  0  0  0  0
 13  2  2  0  0  0  0
 14 13  1  0  0  0  0
 16  3  1  1  0  0  0
 17 20  2  0  0  0  0
 18 16  1  0  0  0  0
 19 16  1  0  0  0  0
 20 18  1  0  0  0  0
 21 20  1  0  0  0  0
 21 19  1  0  0  0  0
 22 17  1  0  0  0  0
 23 24  1  6  0  0  0
 23 22  1  0  0  0  0
 23 28  1  0  0  0  0
 25 23  1  0  0  0  0
 27 25  1  0  0  0  0
 27 26  1  0  0  0  0
 29 33  1  0  0  0  0
 29 28  1  1  0  0  0
 29 34  1  0  0  0  0
 30 34  1  0  0  0  0
 30 32  1  0  0  0  0
 31 32  1  0  0  0  0
 33 31  2  0  0  0  0
 36 37  1  0  0  0  0
 36 39  2  0  0  0  0
 37 43  1  6  0  0  0
 37 41  1  0  0  0  0
 39 40  1  0  0  0  0
 40 38  2  0  0  0  0
 40 35  1  0  0  0  0
 41 38  1  0  0  0  0
 42 43  1  0  0  0  0
M  END
>  <MODEL>
1

>  <REMARK>
 VINA RESULT:      -9.0      0.000      0.000
  Name = 
  10 active torsions:
  status: ('A' for Active; 'I' for Inactive)
    1  A    between atoms: O_1  and  C_34
    2  A    between atoms: O_1  and  C_35
    3  A    between atoms: C_2  and  C_13
    4  A    between atoms: C_3  and  N_4
    5  A    between atoms: N_4  and  C_22
    6  A    between atoms: C_10  and  C_22
    7  A    between atoms: C_10  and  C_42
    8  A    between atoms: C_11  and  C_14
    9  A    between atoms: C_14  and  C_22
   10  A    between atoms: C_19  and  C_37
                            x       y       z     vdW  Elec       q    Type
                         _______ _______ _______ _____ _____    ______ ____

>  <TORSDO>
F 10

$$$$
=
 OpenBabel10272414203D

 43 48  0  0  1  0  0  0  0  0999 V2000
  181.5630  179.8880  139.4200 C   0  0  1  0  0  3  0  0  0  0  0  0
  185.3260  178.3880  142.5750 C   0  0  0  0  0  0  0  0  0  0  0  0
  187.6200  178.4220  141.0080 C   0  0  0  0  0  0  0  0  0  0  0  0
  182.8490  178.9640  141.3760 C   0  0  0  0  0  0  0  0  0  0  0  0
  182.5750  179.1860  138.5300 C   0  0  0  0  0  2  0  0  0  0  0  0
  180.2010  179.8580  138.7640 C   0  0  0  0  0  1  0  0  0  0  0  0
  184.0220  178.9570  140.5850 C   0  0  0  0  0  0  0  0  0  0  0  0
  181.4930  179.1790  140.7700 C   0  0  0  0  0  2  0  0  0  0  0  0
  183.9720  179.3400  139.1270 C   0  0  0  0  0  2  0  0  0  0  0  0
  186.4070  178.6950  140.4570 N   0  0  0  0  0  0  0  0  0  0  0  0
  185.2620  178.6810  141.1920 C   0  0  0  0  0  0  0  0  0  0  0  0
  184.1520  178.3820  143.3360 C   0  0  0  0  0  3  0  0  0  0  0  0
  186.5700  178.1180  143.1710 C   0  0  0  0  0  0  0  0  0  0  0  0
  187.7180  178.1320  142.3690 C   0  0  0  0  0  3  0  0  0  0  0  0
  182.9230  178.6620  142.7380 C   0  0  0  0  0  3  0  0  0  0  0  0
  188.8580  178.4640  140.1750 C   0  0  1  0  0  3  0  0  0  0  0  0
  191.7430  176.5120  138.7010 C   0  0  0  0  0  3  0  0  0  0  0  0
  190.0790  177.2230  140.7350 S   0  0  0  0  0  0  0  0  0  0  0  0
  188.5300  178.2170  138.7060 C   0  0  0  0  0  2  0  0  0  0  0  0
  190.5860  177.0640  139.0440 C   0  0  0  0  0  0  0  0  0  0  0  0
  189.7030  177.6300  138.0920 N   0  0  0  0  0  2  0  0  0  0  0  0
  192.1580  176.4610  137.3340 N   0  0  0  0  0  2  0  0  0  0  0  0
  192.5680  175.2240  136.6740 C   0  0  2  0  0  0  0  0  0  0  0  0
  192.3590  175.3640  135.2980 O   0  0  0  0  0  1  0  0  0  0  0  0
  191.7410  174.0450  137.2060 C   0  0  0  0  0  2  0  0  0  0  0  0
  189.2590  174.1470  136.9310 C   0  0  0  0  0  1  0  0  0  0  0  0
  190.5620  173.6910  136.3030 C   0  0  0  0  0  2  0  0  0  0  0  0
  194.0630  174.9810  136.9320 C   0  0  0  0  0  2  0  0  0  0  0  0
  194.4510  173.5070  136.8980 C   0  0  1  0  0  3  0  0  0  0  0  0
  195.6870  171.6700  138.0300 C   0  0  0  0  0  2  0  0  0  0  0  0
  196.2900  172.3380  135.6740 C   0  0  0  0  0  3  0  0  0  0  0  0
  196.7430  171.6280  136.9250 C   0  0  0  0  0  2  0  0  0  0  0  0
  195.2820  173.2280  135.6720 C   0  0  0  0  0  3  0  0  0  0  0  0
  195.1730  173.0950  138.1830 C   0  0  0  0  0  2  0  0  0  0  0  0
  186.6220  177.8190  144.5450 O   0  0  0  0  0  0  0  0  0  0  0  0
  190.1660  177.1460  145.4990 C   0  0  0  0  0  3  0  0  0  0  0  0
  189.9470  176.7330  146.9280 C   0  0  2  0  0  3  0  0  0  0  0  0
  187.6320  177.6330  146.6620 C   0  0  0  0  0  3  0  0  0  0  0  0
  189.1340  177.5400  144.7490 C   0  0  0  0  0  3  0  0  0  0  0  0
  187.7740  177.6560  145.3310 C   0  0  0  0  0  0  0  0  0  0  0  0
  188.8340  177.5700  147.5660 C   0  0  0  0  0  2  0  0  0  0  0  0
  192.2950  176.1010  147.0660 N   0  0  0  0  0  1  0  0  0  0  0  0
  191.2440  176.8730  147.7070 C   0  0  0  0  0  2  0  0  0  0  0  0
  1  6  1  6  0  0  0
  1  8  1  0  0  0  0
  2 13  1  0  0  0  0
  2 12  1  0  0  0  0
  3 14  1  0  0  0  0
  4 15  1  0  0  0  0
  5  9  1  0  0  0  0
  5  1  1  0  0  0  0
  7 11  1  0  0  0  0
  7  4  2  0  0  0  0
  8  4  1  0  0  0  0
  9  7  1  0  0  0  0
 10  3  2  0  0  0  0
 10 11  1  0  0  0  0
 11  2  2  0  0  0  0
 13 35  1  0  0  0  0
 14 13  2  0  0  0  0
 15 12  2  0  0  0  0
 16 18  1  0  0  0  0
 16  3  1  1  0  0  0
 17 20  2  0  0  0  0
 19 16  1  0  0  0  0
 20 18  1  0  0  0  0
 21 19  1  0  0  0  0
 21 20  1  0  0  0  0
 22 17  1  0  0  0  0
 23 24  1  6  0  0  0
 23 28  1  0  0  0  0
 23 25  1  0  0  0  0
 23 22  1  0  0  0  0
 27 26  1  0  0  0  0
 27 25  1  0  0  0  0
 29 28  1  1  0  0  0
 29 34  1  0  0  0  0
 30 34  1  0  0  0  0
 31 32  1  0  0  0  0
 32 30  1  0  0  0  0
 33 31  2  0  0  0  0
 33 29  1  0  0  0  0
 35 40  1  0  0  0  0
 36 37  1  0  0  0  0
 37 41  1  0  0  0  0
 37 43  1  1  0  0  0
 38 41  1  0  0  0  0
 39 40  1  0  0  0  0
 39 36  2  0  0  0  0
 40 38  2  0  0  0  0
 42 43  1  0  0  0  0
M  END
>  <MODEL>
2

>  <REMARK>
 VINA RESULT:      -9.0      3.470      7.681
  Name = 
  10 active torsions:
  status: ('A' for Active; 'I' for Inactive)
    1  A    between atoms: O_1  and  C_34
    2  A    between atoms: O_1  and  C_35
    3  A    between atoms: C_2  and  C_13
    4  A    between atoms: C_3  and  N_4
    5  A    between atoms: N_4  and  C_22
    6  A    between atoms: C_10  and  C_22
    7  A    between atoms: C_10  and  C_42
    8  A    between atoms: C_11  and  C_14
    9  A    between atoms: C_14  and  C_22
   10  A    between atoms: C_19  and  C_37
                            x       y       z     vdW  Elec       q    Type
                         _______ _______ _______ _____ _____    ______ ____

>  <TORSDO>
F 10

$$$$
=
 OpenBabel10272414203D

 43 48  0  0  1  0  0  0  0  0999 V2000
  187.9800  177.1960  146.8860 C   0  0  1  0  0  3  0  0  0  0  0  0
  185.9370  178.4800  142.3540 C   0  0  0  0  0  0  0  0  0  0  0  0
  188.0080  178.1680  140.5290 C   0  0  0  0  0  0  0  0  0  0  0  0
  186.4590  178.0830  145.0880 C   0  0  0  0  0  0  0  0  0  0  0  0
  189.1330  177.7640  146.0740 C   0  0  0  0  0  2  0  0  0  0  0  0
  188.2870  177.3220  148.3610 C   0  0  0  0  0  1  0  0  0  0  0  0
  187.5090  177.9470  144.1500 C   0  0  0  0  0  0  0  0  0  0  0  0
  186.7030  177.9670  146.5640 C   0  0  0  0  0  2  0  0  0  0  0  0
  188.8840  177.5070  144.5890 C   0  0  0  0  0  2  0  0  0  0  0  0
  188.2300  177.9830  141.8580 N   0  0  0  0  0  0  0  0  0  0  0  0
  187.2410  178.1340  142.7810 C   0  0  0  0  0  0  0  0  0  0  0  0
  184.9150  178.6280  143.2990 C   0  0  0  0  0  3  0  0  0  0  0  0
  185.6790  178.6610  140.9850 C   0  0  0  0  0  0  0  0  0  0  0  0
  186.7330  178.5070  140.0750 C   0  0  0  0  0  3  0  0  0  0  0  0
  185.1780  178.4360  144.6560 C   0  0  0  0  0  3  0  0  0  0  0  0
  189.1120  177.9760  139.5420 C   0  0  1  0  0  3  0  0  0  0  0  0
  192.1850  175.9900  138.5840 C   0  0  0  0  0  3  0  0  0  0  0  0
  190.6280  177.3540  140.3530 S   0  0  0  0  0  0  0  0  0  0  0  0
  188.6930  177.0010  138.4460 C   0  0  0  0  0  2  0  0  0  0  0  0
  190.9770  176.4660  138.8590 C   0  0  0  0  0  0  0  0  0  0  0  0
  189.8960  176.3650  137.9490 N   0  0  0  0  0  2  0  0  0  0  0  0
  192.4550  175.3390  137.3400 N   0  0  0  0  0  2  0  0  0  0  0  0
  193.7780  175.3210  136.7240 C   0  0  2  0  0  0  0  0  0  0  0  0
  194.1570  176.6380  136.4440 O   0  0  0  0  0  1  0  0  0  0  0  0
  193.7410  174.5070  135.4220 C   0  0  0  0  0  2  0  0  0  0  0  0
  192.9530  172.1410  135.5870 C   0  0  0  0  0  1  0  0  0  0  0  0
  192.5340  173.5770  135.3370 C   0  0  0  0  0  2  0  0  0  0  0  0
  194.7880  174.7060  137.7030 C   0  0  0  0  0  2  0  0  0  0  0  0
  195.8910  173.9080  137.0160 C   0  0  1  0  0  3  0  0  0  0  0  0
  197.4090  171.9430  137.1500 C   0  0  0  0  0  2  0  0  0  0  0  0
  198.3630  174.2700  136.9530 C   0  0  0  0  0  3  0  0  0  0  0  0
  198.6350  172.8370  137.3370 C   0  0  0  0  0  2  0  0  0  0  0  0
  197.1180  174.7680  136.8560 C   0  0  0  0  0  3  0  0  0  0  0  0
  196.1950  172.6150  137.7760 C   0  0  0  0  0  2  0  0  0  0  0  0
  184.3810  179.0130  140.5710 O   0  0  0  0  0  0  0  0  0  0  0  0
  182.3150  176.2110  139.2290 C   0  0  0  0  0  3  0  0  0  0  0  0
  182.3460  176.5770  137.7710 C   0  0  2  0  0  3  0  0  0  0  0  0
  183.2670  178.7780  138.5120 C   0  0  0  0  0  3  0  0  0  0  0  0
  182.9090  176.9970  140.1310 C   0  0  0  0  0  3  0  0  0  0  0  0
  183.5350  178.2790  139.7250 C   0  0  0  0  0  0  0  0  0  0  0  0
  182.2830  178.0980  137.5970 C   0  0  0  0  0  2  0  0  0  0  0  0
  181.6610  175.3140  135.8050 N   0  0  0  0  0  1  0  0  0  0  0  0
  181.1930  175.9020  137.0490 C   0  0  0  0  0  2  0  0  0  0  0  0
  1  6  1  1  0  0  0
  2 11  1  0  0  0  0
  2 12  1  0  0  0  0
  3 10  1  0  0  0  0
  4  8  1  0  0  0  0
  5  1  1  0  0  0  0
  7  9  1  0  0  0  0
  7  4  2  0  0  0  0
  8  1  1  0  0  0  0
  9  5  1  0  0  0  0
 10 11  2  0  0  0  0
 11  7  1  0  0  0  0
 12 15  2  0  0  0  0
 13  2  2  0  0  0  0
 14  3  2  0  0  0  0
 14 13  1  0  0  0  0
 15  4  1  0  0  0  0
 16 18  1  0  0  0  0
 16  3  1  1  0  0  0
 17 20  2  0  0  0  0
 19 16  1  0  0  0  0
 20 18  1  0  0  0  0
 21 19  1  0  0  0  0
 21 20  1  0  0  0  0
 22 17  1  0  0  0  0
 23 24  1  6  0  0  0
 23 22  1  0  0  0  0
 23 28  1  0  0  0  0
 25 23  1  0  0  0  0
 27 25  1  0  0  0  0
 27 26  1  0  0  0  0
 29 28  1  1  0  0  0
 29 34  1  0  0  0  0
 30 32  1  0  0  0  0
 30 34  1  0  0  0  0
 31 32  1  0  0  0  0
 33 31  2  0  0  0  0
 33 29  1  0  0  0  0
 35 13  1  0  0  0  0
 36 39  2  0  0  0  0
 37 43  1  6  0  0  0
 37 36  1  0  0  0  0
 38 40  2  0  0  0  0
 40 39  1  0  0  0  0
 40 35  1  0  0  0  0
 41 37  1  0  0  0  0
 41 38  1  0  0  0  0
 42 43  1  0  0  0  0
M  END
>  <MODEL>
3

>  <REMARK>
 VINA RESULT:      -8.8      4.140      5.916
  Name = 
  10 active torsions:
  status: ('A' for Active; 'I' for Inactive)
    1  A    between atoms: O_1  and  C_34
    2  A    between atoms: O_1  and  C_35
    3  A    between atoms: C_2  and  C_13
    4  A    between atoms: C_3  and  N_4
    5  A    between atoms: N_4  and  C_22
    6  A    between atoms: C_10  and  C_22
    7  A    between atoms: C_10  and  C_42
    8  A    between atoms: C_11  and  C_14
    9  A    between atoms: C_14  and  C_22
   10  A    between atoms: C_19  and  C_37
                            x       y       z     vdW  Elec       q    Type
                         _______ _______ _______ _____ _____    ______ ____

>  <TORSDO>
F 10

$$$$
=
 OpenBabel10272414203D

 43 48  0  0  1  0  0  0  0  0999 V2000
  191.0080  176.1960  146.7280 C   0  0  1  0  0  3  0  0  0  0  0  0
  187.0310  178.1000  144.0980 C   0  0  0  0  0  0  0  0  0  0  0  0
  187.9330  178.2700  141.4750 C   0  0  0  0  0  0  0  0  0  0  0  0
  188.8200  177.2680  146.1010 C   0  0  0  0  0  0  0  0  0  0  0  0
  191.6260  176.9830  145.5830 C   0  0  0  0  0  2  0  0  0  0  0  0
  192.0030  176.0840  147.8610 C   0  0  0  0  0  1  0  0  0  0  0  0
  189.2710  177.3790  144.7650 C   0  0  0  0  0  0  0  0  0  0  0  0
  189.7550  176.9130  147.2210 C   0  0  0  0  0  2  0  0  0  0  0  0
  190.6750  176.9740  144.3880 C   0  0  0  0  0  2  0  0  0  0  0  0
  188.7740  177.8720  142.4660 N   0  0  0  0  0  0  0  0  0  0  0  0
  188.3700  177.7840  143.7630 C   0  0  0  0  0  0  0  0  0  0  0  0
  186.6090  178.0010  145.4280 C   0  0  0  0  0  3  0  0  0  0  0  0
  186.1390  178.4980  143.0880 C   0  0  0  0  0  0  0  0  0  0  0  0
  186.6070  178.5870  141.7710 C   0  0  0  0  0  3  0  0  0  0  0  0
  187.5000  177.5950  146.4210 C   0  0  0  0  0  3  0  0  0  0  0  0
  188.4050  178.3380  140.0610 C   0  0  1  0  0  3  0  0  0  0  0  0
  190.4410  176.7000  137.3260 C   0  0  0  0  0  3  0  0  0  0  0  0
  190.0590  177.5790  139.8740 S   0  0  0  0  0  0  0  0  0  0  0  0
  187.4230  177.6360  139.1280 C   0  0  0  0  0  2  0  0  0  0  0  0
  189.5640  177.0720  138.2500 C   0  0  0  0  0  0  0  0  0  0  0  0
  188.1750  177.1610  137.9850 N   0  0  0  0  0  2  0  0  0  0  0  0
  190.0200  176.3640  136.0020 N   0  0  0  0  0  2  0  0  0  0  0  0
  190.4500  175.1490  135.3160 C   0  0  2  0  0  0  0  0  0  0  0  0
  191.4550  175.4860  134.4040 O   0  0  0  0  0  1  0  0  0  0  0  0
  189.2650  174.5180  134.5700 C   0  0  0  0  0  2  0  0  0  0  0  0
  187.3900  173.9850  136.1350 C   0  0  0  0  0  1  0  0  0  0  0  0
  187.9120  174.9740  135.1100 C   0  0  0  0  0  2  0  0  0  0  0  0
  191.0170  174.1580  136.3430 C   0  0  0  0  0  2  0  0  0  0  0  0
  192.5010  173.8660  136.1480 C   0  0  1  0  0  3  0  0  0  0  0  0
  194.2450  172.1120  135.8880 C   0  0  0  0  0  2  0  0  0  0  0  0
  194.3650  173.7440  137.8090 C   0  0  0  0  0  3  0  0  0  0  0  0
  194.8290  172.4130  137.2690 C   0  0  0  0  0  2  0  0  0  0  0  0
  193.2800  174.3780  137.3330 C   0  0  0  0  0  3  0  0  0  0  0  0
  192.7450  172.3740  135.9070 C   0  0  0  0  0  2  0  0  0  0  0  0
  184.8120  178.8200  143.4330 O   0  0  0  0  0  0  0  0  0  0  0  0
  182.6450  178.0130  140.5050 C   0  0  0  0  0  3  0  0  0  0  0  0
  181.4230  178.7970  140.8970 C   0  0  2  0  0  3  0  0  0  0  0  0
  182.4840  179.0100  143.1480 C   0  0  0  0  0  3  0  0  0  0  0  0
  183.7040  177.9680  141.3170 C   0  0  0  0  0  3  0  0  0  0  0  0
  183.6640  178.6190  142.6500 C   0  0  0  0  0  0  0  0  0  0  0  0
  181.2020  178.7270  142.4110 C   0  0  0  0  0  2  0  0  0  0  0  0
  180.6040  177.1710  139.2790 N   0  0  0  0  0  1  0  0  0  0  0  0
  180.2120  178.2680  140.1480 C   0  0  0  0  0  2  0  0  0  0  0  0
  1  8  1  0  0  0  0
  1  6  1  1  0  0  0
  2 12  1  0  0  0  0
  3 14  2  0  0  0  0
  3 10  1  0  0  0  0
  4 15  1  0  0  0  0
  4  8  1  0  0  0  0
  5  1  1  0  0  0  0
  7  4  2  0  0  0  0
  9  7  1  0  0  0  0
  9  5  1  0  0  0  0
 10 11  2  0  0  0  0
 11  2  1  0  0  0  0
 11  7  1  0  0  0  0
 12 15  2  0  0  0  0
 13 35  1  0  0  0  0
 13  2  2  0  0  0  0
 14 13  1  0  0  0  0
 16  3  1  1  0  0  0
 17 20  2  0  0  0  0
 18 16  1  0  0  0  0
 19 16  1  0  0  0  0
 20 18  1  0  0  0  0
 21 20  1  0  0  0  0
 21 19  1  0  0  0  0
 22 17  1  0  0  0  0
 23 24  1  6  0  0  0
 23 22  1  0  0  0  0
 23 28  1  0  0  0  0
 25 27  1  0  0  0  0
 25 23  1  0  0  0  0
 27 26  1  0  0  0  0
 29 28  1  1  0  0  0
 29 33  1  0  0  0  0
 30 34  1  0  0  0  0
 30 32  1  0  0  0  0
 32 31  1  0  0  0  0
 33 31  2  0  0  0  0
 34 29  1  0  0  0  0
 36 37  1  0  0  0  0
 36 39  2  0  0  0  0
 37 43  1  6  0  0  0
 37 41  1  0  0  0  0
 39 40  1  0  0  0  0
 40 38  2  0  0  0  0
 40 35  1  0  0  0  0
 41 38  1  0  0  0  0
 42 43  1  0  0  0  0
M  END
>  <MODEL>
4

>  <REMARK>
 VINA RESULT:      -8.7      2.275      3.437
  Name = 
  10 active torsions:
  status: ('A' for Active; 'I' for Inactive)
    1  A    between atoms: O_1  and  C_34
    2  A    between atoms: O_1  and  C_35
    3  A    between atoms: C_2  and  C_13
    4  A    between atoms: C_3  and  N_4
    5  A    between atoms: N_4  and  C_22
    6  A    between atoms: C_10  and  C_22
    7  A    between atoms: C_10  and  C_42
    8  A    between atoms: C_11  and  C_14
    9  A    between atoms: C_14  and  C_22
   10  A    between atoms: C_19  and  C_37
                            x       y       z     vdW  Elec       q    Type
                         _______ _______ _______ _____ _____    ______ ____

>  <TORSDO>
F 10

$$$$
=
 OpenBabel10272414203D

 43 48  0  0  1  0  0  0  0  0999 V2000
  181.6220  179.7040  139.2000 C   0  0  1  0  0  3  0  0  0  0  0  0
  185.3990  178.2700  142.3670 C   0  0  0  0  0  0  0  0  0  0  0  0
  187.6960  178.3310  140.8030 C   0  0  0  0  0  0  0  0  0  0  0  0
  182.9170  178.8060  141.1610 C   0  0  0  0  0  0  0  0  0  0  0  0
  182.6450  179.0130  138.3140 C   0  0  0  0  0  2  0  0  0  0  0  0
  180.2610  179.6520  138.5410 C   0  0  0  0  0  1  0  0  0  0  0  0
  184.0920  178.8130  140.3730 C   0  0  0  0  0  0  0  0  0  0  0  0
  181.5590  178.9990  140.5520 C   0  0  0  0  0  2  0  0  0  0  0  0
  184.0390  179.1900  138.9120 C   0  0  0  0  0  2  0  0  0  0  0  0
  186.4800  178.5850  140.2490 N   0  0  0  0  0  0  0  0  0  0  0  0
  185.3340  178.5570  140.9820 C   0  0  0  0  0  0  0  0  0  0  0  0
  184.2240  178.2500  143.1260 C   0  0  0  0  0  3  0  0  0  0  0  0
  186.6460  178.0200  142.9660 C   0  0  0  0  0  0  0  0  0  0  0  0
  187.7950  178.0470  142.1660 C   0  0  0  0  0  3  0  0  0  0  0  0
  182.9930  178.5100  142.5240 C   0  0  0  0  0  3  0  0  0  0  0  0
  188.9350  178.3880  139.9730 C   0  0  1  0  0  3  0  0  0  0  0  0
  191.9590  176.5210  138.6760 C   0  0  0  0  0  3  0  0  0  0  0  0
  190.2330  177.2860  140.6390 S   0  0  0  0  0  0  0  0  0  0  0  0
  188.6360  177.9950  138.5290 C   0  0  0  0  0  2  0  0  0  0  0  0
  190.7630  177.0190  138.9680 C   0  0  0  0  0  0  0  0  0  0  0  0
  189.8520  177.4400  137.9700 N   0  0  0  0  0  2  0  0  0  0  0  0
  192.3870  176.3830  137.3190 N   0  0  0  0  0  2  0  0  0  0  0  0
  193.5020  175.5290  136.9210 C   0  0  2  0  0  0  0  0  0  0  0  0
  194.5910  175.8030  137.7550 O   0  0  0  0  0  1  0  0  0  0  0  0
  193.8850  175.8100  135.4610 C   0  0  0  0  0  2  0  0  0  0  0  0
  196.3180  175.8490  134.8900 C   0  0  0  0  0  1  0  0  0  0  0  0
  195.1310  176.6830  135.3300 C   0  0  0  0  0  2  0  0  0  0  0  0
  193.1010  174.0560  137.0890 C   0  0  0  0  0  2  0  0  0  0  0  0
  193.9320  173.1010  136.2390 C   0  0  1  0  0  3  0  0  0  0  0  0
  193.9830  170.9390  135.0120 C   0  0  0  0  0  2  0  0  0  0  0  0
  195.5970  171.3600  136.9050 C   0  0  0  0  0  3  0  0  0  0  0  0
  194.9340  170.3190  136.0370 C   0  0  0  0  0  2  0  0  0  0  0  0
  195.1130  172.6070  137.0350 C   0  0  0  0  0  3  0  0  0  0  0  0
  193.0790  171.9470  135.7070 C   0  0  0  0  0  2  0  0  0  0  0  0
  186.7000  177.7270  144.3410 O   0  0  0  0  0  0  0  0  0  0  0  0
  190.2420  177.0660  145.3110 C   0  0  0  0  0  3  0  0  0  0  0  0
  190.0240  176.7030  146.7530 C   0  0  2  0  0  3  0  0  0  0  0  0
  187.7140  177.6070  146.4610 C   0  0  0  0  0  3  0  0  0  0  0  0
  189.2110  177.4410  144.5490 C   0  0  0  0  0  3  0  0  0  0  0  0
  187.8530  177.5840  145.1300 C   0  0  0  0  0  0  0  0  0  0  0  0
  188.9170  177.5690  147.3650 C   0  0  0  0  0  2  0  0  0  0  0  0
  192.0600  175.6100  147.5220 N   0  0  0  0  0  1  0  0  0  0  0  0
  191.3230  176.8620  147.5240 C   0  0  0  0  0  2  0  0  0  0  0  0
  1  6  1  6  0  0  0
  1  8  1  0  0  0  0
  2 13  1  0  0  0  0
  2 12  1  0  0  0  0
  3 14  1  0  0  0  0
  4 15  1  0  0  0  0
  5  9  1  0  0  0  0
  5  1  1  0  0  0  0
  7 11  1  0  0  0  0
  7  4  2  0  0  0  0
  8  4  1  0  0  0  0
  9  7  1  0  0  0  0
 10  3  2  0  0  0  0
 10 11  1  0  0  0  0
 11  2  2  0  0  0  0
 13 35  1  0  0  0  0
 14 13  2  0  0  0  0
 15 12  2  0  0  0  0
 16 18  1  0  0  0  0
 16  3  1  1  0  0  0
 17 20  2  0  0  0  0
 19 16  1  0  0  0  0
 20 18  1  0  0  0  0
 21 19  1  0  0  0  0
 21 20  1  0  0  0  0
 22 17  1  0  0  0  0
 23 28  1  0  0  0  0
 23 22  1  0  0  0  0
 23 24  1  1  0  0  0
 25 23  1  0  0  0  0
 26 27  1  0  0  0  0
 27 25  1  0  0  0  0
 29 33  1  0  0  0  0
 29 28  1  1  0  0  0
 30 34  1  0  0  0  0
 30 32  1  0  0  0  0
 31 33  2  0  0  0  0
 32 31  1  0  0  0  0
 34 29  1  0  0  0  0
 35 40  1  0  0  0  0
 36 37  1  0  0  0  0
 37 41  1  0  0  0  0
 37 43  1  1  0  0  0
 38 41  1  0  0  0  0
 39 40  1  0  0  0  0
 39 36  2  0  0  0  0
 40 38  2  0  0  0  0
 42 43  1  0  0  0  0
M  END
>  <MODEL>
5

>  <REMARK>
 VINA RESULT:      -8.6      3.732      7.768
  Name = 
  10 active torsions:
  status: ('A' for Active; 'I' for Inactive)
    1  A    between atoms: O_1  and  C_34
    2  A    between atoms: O_1  and  C_35
    3  A    between atoms: C_2  and  C_13
    4  A    between atoms: C_3  and  N_4
    5  A    between atoms: N_4  and  C_22
    6  A    between atoms: C_10  and  C_22
    7  A    between atoms: C_10  and  C_42
    8  A    between atoms: C_11  and  C_14
    9  A    between atoms: C_14  and  C_22
   10  A    between atoms: C_19  and  C_37
                            x       y       z     vdW  Elec       q    Type
                         _______ _______ _______ _____ _____    ______ ____

>  <TORSDO>
F 10

$$$$
=
 OpenBabel10272414203D

 43 48  0  0  1  0  0  0  0  0999 V2000
  181.6580  179.3950  142.5580 C   0  0  1  0  0  3  0  0  0  0  0  0
  186.2400  178.2460  144.5700 C   0  0  0  0  0  0  0  0  0  0  0  0
  187.9780  178.2170  142.4020 C   0  0  0  0  0  0  0  0  0  0  0  0
  183.4980  178.6610  144.1100 C   0  0  0  0  0  0  0  0  0  0  0  0
  182.4020  178.6520  141.4610 C   0  0  0  0  0  2  0  0  0  0  0  0
  180.1680  179.2780  142.3320 C   0  0  0  0  0  1  0  0  0  0  0  0
  184.3910  178.6230  143.0140 C   0  0  0  0  0  0  0  0  0  0  0  0
  182.0150  178.7920  143.9140 C   0  0  0  0  0  2  0  0  0  0  0  0
  183.9030  178.8890  141.6110 C   0  0  0  0  0  2  0  0  0  0  0  0
  186.6460  178.4140  142.2120 N   0  0  0  0  0  0  0  0  0  0  0  0
  185.7650  178.4280  143.2490 C   0  0  0  0  0  0  0  0  0  0  0  0
  185.3380  178.2680  145.6390 C   0  0  0  0  0  3  0  0  0  0  0  0
  187.6140  178.0560  144.7930 C   0  0  0  0  0  0  0  0  0  0  0  0
  188.4790  178.0360  143.6910 C   0  0  0  0  0  3  0  0  0  0  0  0
  183.9770  178.4680  145.4080 C   0  0  0  0  0  3  0  0  0  0  0  0
  188.9190  178.2260  141.2430 C   0  0  1  0  0  3  0  0  0  0  0  0
  191.0010  176.1700  138.8460 C   0  0  0  0  0  3  0  0  0  0  0  0
  190.0920  176.8260  141.3270 S   0  0  0  0  0  0  0  0  0  0  0  0
  188.1530  178.1600  139.9250 C   0  0  0  0  0  2  0  0  0  0  0  0
  190.0660  176.7900  139.5560 C   0  0  0  0  0  0  0  0  0  0  0  0
  189.0210  177.5300  138.9510 N   0  0  0  0  0  2  0  0  0  0  0  0
  190.9940  176.2170  137.4170 N   0  0  0  0  0  2  0  0  0  0  0  0
  190.9670  175.0200  136.5830 C   0  0  2  0  0  0  0  0  0  0  0  0
  190.6630  173.9210  137.3930 O   0  0  0  0  0  1  0  0  0  0  0  0
  192.3370  174.8100  135.9200 C   0  0  0  0  0  2  0  0  0  0  0  0
  194.5980  175.7490  135.4200 C   0  0  0  0  0  1  0  0  0  0  0  0
  193.2160  176.0560  135.9650 C   0  0  0  0  0  2  0  0  0  0  0  0
  189.8780  175.1700  135.5110 C   0  0  0  0  0  2  0  0  0  0  0  0
  188.8440  176.2400  135.8440 C   0  0  1  0  0  3  0  0  0  0  0  0
  186.4800  176.7100  136.4560 C   0  0  0  0  0  2  0  0  0  0  0  0
  187.4600  177.6850  134.3460 C   0  0  0  0  0  3  0  0  0  0  0  0
  186.1950  177.3360  135.0900 C   0  0  0  0  0  2  0  0  0  0  0  0
  188.6530  177.1500  134.6570 C   0  0  0  0  0  3  0  0  0  0  0  0
  187.5240  175.6130  136.3010 C   0  0  0  0  0  2  0  0  0  0  0  0
  188.0760  177.8670  146.1090 O   0  0  0  0  0  0  0  0  0  0  0  0
  191.3680  176.1110  146.0310 C   0  0  0  0  0  3  0  0  0  0  0  0
  191.6150  176.0150  147.5110 C   0  0  2  0  0  3  0  0  0  0  0  0
  189.7330  177.6370  147.7640 C   0  0  0  0  0  3  0  0  0  0  0  0
  190.2810  176.7370  145.5710 C   0  0  0  0  0  3  0  0  0  0  0  0
  189.3470  177.4160  146.5010 C   0  0  0  0  0  0  0  0  0  0  0  0
  191.1210  177.2790  148.2220 C   0  0  0  0  0  2  0  0  0  0  0  0
  193.4720  176.3830  149.0420 N   0  0  0  0  0  1  0  0  0  0  0  0
  193.0940  175.7900  147.7710 C   0  0  0  0  0  2  0  0  0  0  0  0
  1  6  1  6  0  0  0
  1  8  1  0  0  0  0
  2 13  1  0  0  0  0
  2 12  1  0  0  0  0
  3 14  1  0  0  0  0
  4 15  1  0  0  0  0
  5  9  1  0  0  0  0
  5  1  1  0  0  0  0
  7 11  1  0  0  0  0
  7  4  2  0  0  0  0
  8  4  1  0  0  0  0
  9  7  1  0  0  0  0
 10  3  2  0  0  0  0
 10 11  1  0  0  0  0
 11  2  2  0  0  0  0
 13 35  1  0  0  0  0
 14 13  2  0  0  0  0
 15 12  2  0  0  0  0
 16 18  1  0  0  0  0
 16  3  1  1  0  0  0
 17 20  2  0  0  0  0
 19 16  1  0  0  0  0
 20 18  1  0  0  0  0
 21 20  1  0  0  0  0
 21 19  1  0  0  0  0
 22 17  1  0  0  0  0
 23 24  1  1  0  0  0
 23 22  1  0  0  0  0
 25 27  1  0  0  0  0
 25 23  1  0  0  0  0
 26 27  1  0  0  0  0
 28 23  1  0  0  0  0
 29 28  1  6  0  0  0
 29 34  1  0  0  0  0
 31 33  2  0  0  0  0
 31 32  1  0  0  0  0
 32 30  1  0  0  0  0
 33 29  1  0  0  0  0
 34 30  1  0  0  0  0
 35 40  1  0  0  0  0
 36 37  1  0  0  0  0
 37 43  1  6  0  0  0
 37 41  1  0  0  0  0
 38 41  1  0  0  0  0
 39 36  2  0  0  0  0
 39 40  1  0  0  0  0
 40 38  2  0  0  0  0
 43 42  1  0  0  0  0
M  END
>  <MODEL>
6

>  <REMARK>
 VINA RESULT:      -8.5      2.165      6.836
  Name = 
  10 active torsions:
  status: ('A' for Active; 'I' for Inactive)
    1  A    between atoms: O_1  and  C_34
    2  A    between atoms: O_1  and  C_35
    3  A    between atoms: C_2  and  C_13
    4  A    between atoms: C_3  and  N_4
    5  A    between atoms: N_4  and  C_22
    6  A    between atoms: C_10  and  C_22
    7  A    between atoms: C_10  and  C_42
    8  A    between atoms: C_11  and  C_14
    9  A    between atoms: C_14  and  C_22
   10  A    between atoms: C_19  and  C_37
                            x       y       z     vdW  Elec       q    Type
                         _______ _______ _______ _____ _____    ______ ____

>  <TORSDO>
F 10

$$$$
=
 OpenBabel10272414203D

 43 48  0  0  1  0  0  0  0  0999 V2000
  187.7950  171.0770  135.7740 C   0  0  1  0  0  3  0  0  0  0  0  0
  191.5240  174.5910  136.1050 C   0  0  0  0  0  0  0  0  0  0  0  0
  190.6380  176.3850  138.0330 C   0  0  0  0  0  0  0  0  0  0  0  0
  189.8350  172.4820  135.3280 C   0  0  0  0  0  0  0  0  0  0  0  0
  187.0950  172.3680  136.1660 C   0  0  0  0  0  2  0  0  0  0  0  0
  186.8110  170.1510  135.0960 C   0  0  0  0  0  1  0  0  0  0  0  0
  189.3880  173.4150  136.2940 C   0  0  0  0  0  0  0  0  0  0  0  0
  188.9410  171.3910  134.8150 C   0  0  0  0  0  2  0  0  0  0  0  0
  188.0520  173.2420  136.9740 C   0  0  0  0  0  2  0  0  0  0  0  0
  189.8430  175.3550  137.6360 N   0  0  0  0  0  0  0  0  0  0  0  0
  190.2410  174.4620  136.6890 C   0  0  0  0  0  0  0  0  0  0  0  0
  191.9410  173.6680  135.1390 C   0  0  0  0  0  3  0  0  0  0  0  0
  192.3690  175.6370  136.5110 C   0  0  0  0  0  0  0  0  0  0  0  0
  191.9090  176.5390  137.4790 C   0  0  0  0  0  3  0  0  0  0  0  0
  191.0980  172.6270  134.7500 C   0  0  0  0  0  3  0  0  0  0  0  0
  190.1760  177.3360  139.0870 C   0  0  1  0  0  3  0  0  0  0  0  0
  187.2390  178.7210  141.0270 C   0  0  0  0  0  3  0  0  0  0  0  0
  188.4910  177.9520  138.7340 S   0  0  0  0  0  0  0  0  0  0  0  0
  190.1900  176.6700  140.4590 C   0  0  0  0  0  2  0  0  0  0  0  0
  188.2250  178.0160  140.4860 C   0  0  0  0  0  0  0  0  0  0  0  0
  189.1810  177.3230  141.2680 N   0  0  0  0  0  2  0  0  0  0  0  0
  187.0920  178.8120  142.4460 N   0  0  0  0  0  2  0  0  0  0  0  0
  185.9200  178.3080  143.1560 C   0  0  2  0  0  0  0  0  0  0  0  0
  185.0870  177.6610  142.2380 O   0  0  0  0  0  1  0  0  0  0  0  0
  185.1600  179.4720  143.8110 C   0  0  0  0  0  2  0  0  0  0  0  0
  182.7710  178.8530  144.2020 C   0  0  0  0  0  1  0  0  0  0  0  0
  184.1360  179.0090  144.8430 C   0  0  0  0  0  2  0  0  0  0  0  0
  186.3660  177.3010  144.2260 C   0  0  0  0  0  2  0  0  0  0  0  0
  187.5680  177.7710  145.0380 C   0  0  1  0  0  3  0  0  0  0  0  0
  189.9200  177.3120  145.7020 C   0  0  0  0  0  2  0  0  0  0  0  0
  188.1150  177.4690  147.4580 C   0  0  0  0  0  3  0  0  0  0  0  0
  189.5060  176.9800  147.1360 C   0  0  0  0  0  2  0  0  0  0  0  0
  187.2200  177.7800  146.5040 C   0  0  0  0  0  3  0  0  0  0  0  0
  188.8020  176.9130  144.7480 C   0  0  0  0  0  2  0  0  0  0  0  0
  193.6390  175.7630  135.9180 O   0  0  0  0  0  0  0  0  0  0  0  0
  197.2780  174.9790  136.1820 C   0  0  0  0  0  3  0  0  0  0  0  0
  197.2080  173.9010  137.2280 C   0  0  2  0  0  3  0  0  0  0  0  0
  194.8490  174.6370  137.5930 C   0  0  0  0  0  3  0  0  0  0  0  0
  196.1670  175.6120  135.7950 C   0  0  0  0  0  3  0  0  0  0  0  0
  194.8650  175.3230  136.4430 C   0  0  0  0  0  0  0  0  0  0  0  0
  196.1310  174.2290  138.2680 C   0  0  0  0  0  2  0  0  0  0  0  0
  199.5210  174.6610  137.2980 N   0  0  0  0  0  1  0  0  0  0  0  0
  198.5660  173.7390  137.8890 C   0  0  0  0  0  2  0  0  0  0  0  0
  1  6  1  6  0  0  0
  1  5  1  0  0  0  0
  2 13  2  0  0  0  0
  2 11  1  0  0  0  0
  4  7  2  0  0  0  0
  5  9  1  0  0  0  0
  7 11  1  0  0  0  0
  7  9  1  0  0  0  0
  8  4  1  0  0  0  0
  8  1  1  0  0  0  0
 10  3  1  0  0  0  0
 11 10  2  0  0  0  0
 12  2  1  0  0  0  0
 13 14  1  0  0  0  0
 14  3  2  0  0  0  0
 15 12  2  0  0  0  0
 15  4  1  0  0  0  0
 16  3  1  6  0  0  0
 16 19  1  0  0  0  0
 17 22  1  0  0  0  0
 18 16  1  0  0  0  0
 18 20  1  0  0  0  0
 19 21  1  0  0  0  0
 20 17  2  0  0  0  0
 20 21  1  0  0  0  0
 22 23  1  0  0  0  0
 23 24  1  6  0  0  0
 23 25  1  0  0  0  0
 23 28  1  0  0  0  0
 25 27  1  0  0  0  0
 26 27  1  0  0  0  0
 29 28  1  6  0  0  0
 29 33  1  0  0  0  0
 30 32  1  0  0  0  0
 32 31  1  0  0  0  0
 33 31  2  0  0  0  0
 34 29  1  0  0  0  0
 34 30  1  0  0  0  0
 35 40  1  0  0  0  0
 35 13  1  0  0  0  0
 36 37  1  0  0  0  0
 37 43  1  1  0  0  0
 37 41  1  0  0  0  0
 38 41  1  0  0  0  0
 39 36  2  0  0  0  0
 39 40  1  0  0  0  0
 40 38  2  0  0  0  0
 42 43  1  0  0  0  0
M  END
>  <MODEL>
7

>  <REMARK>
 VINA RESULT:      -8.5      3.896     11.288
  Name = 
  10 active torsions:
  status: ('A' for Active; 'I' for Inactive)
    1  A    between atoms: O_1  and  C_34
    2  A    between atoms: O_1  and  C_35
    3  A    between atoms: C_2  and  C_13
    4  A    between atoms: C_3  and  N_4
    5  A    between atoms: N_4  and  C_22
    6  A    between atoms: C_10  and  C_22
    7  A    between atoms: C_10  and  C_42
    8  A    between atoms: C_11  and  C_14
    9  A    between atoms: C_14  and  C_22
   10  A    between atoms: C_19  and  C_37
                            x       y       z     vdW  Elec       q    Type
                         _______ _______ _______ _____ _____    ______ ____

>  <TORSDO>
F 10

$$$$
=
 OpenBabel10272414203D

 43 48  0  0  1  0  0  0  0  0999 V2000
  181.4140  179.4570  139.8710 C   0  0  1  0  0  3  0  0  0  0  0  0
  185.4260  178.4100  142.8980 C   0  0  0  0  0  0  0  0  0  0  0  0
  187.6210  178.4200  141.1940 C   0  0  0  0  0  0  0  0  0  0  0  0
  182.8570  178.7640  141.8120 C   0  0  0  0  0  0  0  0  0  0  0  0
  182.4080  178.7310  138.9800 C   0  0  0  0  0  2  0  0  0  0  0  0
  180.0200  179.3080  139.3040 C   0  0  0  0  0  1  0  0  0  0  0  0
  183.9810  178.7460  140.9530 C   0  0  0  0  0  0  0  0  0  0  0  0
  181.4590  178.8620  141.2750 C   0  0  0  0  0  2  0  0  0  0  0  0
  183.8270  179.0010  139.4740 C   0  0  0  0  0  2  0  0  0  0  0  0
  186.3650  178.5880  140.6990 N   0  0  0  0  0  0  0  0  0  0  0  0
  185.2670  178.5810  141.5020 C   0  0  0  0  0  0  0  0  0  0  0  0
  184.3000  178.4120  143.7290 C   0  0  0  0  0  3  0  0  0  0  0  0
  186.7140  178.2500  143.4360 C   0  0  0  0  0  0  0  0  0  0  0  0
  187.8120  178.2500  142.5660 C   0  0  0  0  0  3  0  0  0  0  0  0
  183.0250  178.5810  143.1870 C   0  0  0  0  0  3  0  0  0  0  0  0
  188.8050  178.4500  140.2860 C   0  0  1  0  0  3  0  0  0  0  0  0
  191.6080  176.4820  138.6800 C   0  0  0  0  0  3  0  0  0  0  0  0
  190.0670  177.2290  140.7970 S   0  0  0  0  0  0  0  0  0  0  0  0
  188.3880  178.1680  138.8460 C   0  0  0  0  0  2  0  0  0  0  0  0
  190.4690  177.0340  139.0820 C   0  0  0  0  0  0  0  0  0  0  0  0
  189.5260  177.5740  138.1740 N   0  0  0  0  0  2  0  0  0  0  0  0
  191.9370  176.4010  137.2920 N   0  0  0  0  0  2  0  0  0  0  0  0
  191.9630  175.1420  136.5530 C   0  0  2  0  0  0  0  0  0  0  0  0
  192.2290  174.1050  137.4520 O   0  0  0  0  0  1  0  0  0  0  0  0
  193.0580  175.1860  135.4760 C   0  0  0  0  0  2  0  0  0  0  0  0
  195.2850  174.0580  135.6090 C   0  0  0  0  0  1  0  0  0  0  0  0
  193.8060  173.8630  135.3340 C   0  0  0  0  0  2  0  0  0  0  0  0
  190.5920  174.9040  135.9030 C   0  0  0  0  0  2  0  0  0  0  0  0
  190.0850  173.4750  136.0640 C   0  0  1  0  0  3  0  0  0  0  0  0
  189.1150  171.4870  134.9280 C   0  0  0  0  0  2  0  0  0  0  0  0
  187.8580  172.6140  136.8030 C   0  0  0  0  0  3  0  0  0  0  0  0
  187.7650  171.6870  135.6170 C   0  0  0  0  0  2  0  0  0  0  0  0
  188.8880  173.4600  136.9790 C   0  0  0  0  0  3  0  0  0  0  0  0
  189.7740  172.8420  134.7060 C   0  0  0  0  0  2  0  0  0  0  0  0
  186.8620  178.0710  144.8240 O   0  0  0  0  0  0  0  0  0  0  0  0
  190.4480  177.2830  145.4870 C   0  0  0  0  0  3  0  0  0  0  0  0
  190.2860  176.5360  146.7820 C   0  0  2  0  0  3  0  0  0  0  0  0
  187.9470  177.4130  146.8050 C   0  0  0  0  0  3  0  0  0  0  0  0
  189.3840  177.8170  144.8820 C   0  0  0  0  0  3  0  0  0  0  0  0
  188.0430  177.7560  145.5140 C   0  0  0  0  0  0  0  0  0  0  0  0
  189.1800  177.1680  147.6330 C   0  0  0  0  0  2  0  0  0  0  0  0
  192.4540  175.4540  147.0290 N   0  0  0  0  0  1  0  0  0  0  0  0
  191.6060  176.5210  147.5330 C   0  0  0  0  0  2  0  0  0  0  0  0
  1  6  1  6  0  0  0
  1  8  1  0  0  0  0
  2 13  1  0  0  0  0
  2 12  1  0  0  0  0
  3 14  1  0  0  0  0
  4 15  1  0  0  0  0
  5  9  1  0  0  0  0
  5  1  1  0  0  0  0
  7 11  1  0  0  0  0
  7  4  2  0  0  0  0
  8  4  1  0  0  0  0
  9  7  1  0  0  0  0
 10  3  2  0  0  0  0
 10 11  1  0  0  0  0
 11  2  2  0  0  0  0
 13 35  1  0  0  0  0
 14 13  2  0  0  0  0
 15 12  2  0  0  0  0
 16 18  1  0  0  0  0
 16  3  1  1  0  0  0
 17 20  2  0  0  0  0
 19 16  1  0  0  0  0
 20 18  1  0  0  0  0
 21 19  1  0  0  0  0
 21 20  1  0  0  0  0
 22 17  1  0  0  0  0
 23 22  1  0  0  0  0
 23 24  1  1  0  0  0
 25 23  1  0  0  0  0
 27 25  1  0  0  0  0
 27 26  1  0  0  0  0
 28 23  1  0  0  0  0
 29 28  1  6  0  0  0
 29 33  1  0  0  0  0
 30 32  1  0  0  0  0
 31 33  2  0  0  0  0
 32 31  1  0  0  0  0
 34 30  1  0  0  0  0
 34 29  1  0  0  0  0
 35 40  1  0  0  0  0
 36 37  1  0  0  0  0
 37 43  1  1  0  0  0
 37 41  1  0  0  0  0
 38 41  1  0  0  0  0
 39 36  2  0  0  0  0
 39 40  1  0  0  0  0
 40 38  2  0  0  0  0
 42 43  1  0  0  0  0
M  END
>  <MODEL>
8

>  <REMARK>
 VINA RESULT:      -8.4      2.432      6.913
  Name = 
  10 active torsions:
  status: ('A' for Active; 'I' for Inactive)
    1  A    between atoms: O_1  and  C_34
    2  A    between atoms: O_1  and  C_35
    3  A    between atoms: C_2  and  C_13
    4  A    between atoms: C_3  and  N_4
    5  A    between atoms: N_4  and  C_22
    6  A    between atoms: C_10  and  C_22
    7  A    between atoms: C_10  and  C_42
    8  A    between atoms: C_11  and  C_14
    9  A    between atoms: C_14  and  C_22
   10  A    between atoms: C_19  and  C_37
                            x       y       z     vdW  Elec       q    Type
                         _______ _______ _______ _____ _____    ______ ____

>  <TORSDO>
F 10

$$$$
=
 OpenBabel10272414203D

 43 48  0  0  1  0  0  0  0  0999 V2000
  187.6810  177.2940  147.0230 C   0  0  1  0  0  3  0  0  0  0  0  0
  187.0470  178.2580  142.0200 C   0  0  0  0  0  0  0  0  0  0  0  0
  189.2830  177.1510  140.7960 C   0  0  0  0  0  0  0  0  0  0  0  0
  186.8660  178.2090  144.8250 C   0  0  0  0  0  0  0  0  0  0  0  0
  189.0870  177.4200  146.4590 C   0  0  0  0  0  2  0  0  0  0  0  0
  187.7000  177.5870  148.5060 C   0  0  0  0  0  1  0  0  0  0  0  0
  188.0080  177.6670  144.1900 C   0  0  0  0  0  0  0  0  0  0  0  0
  186.7590  178.2860  146.3200 C   0  0  0  0  0  2  0  0  0  0  0  0
  189.0890  176.9870  144.9950 C   0  0  0  0  0  2  0  0  0  0  0  0
  189.1670  177.1430  142.1510 N   0  0  0  0  0  0  0  0  0  0  0  0
  188.0900  177.6820  142.7850 C   0  0  0  0  0  0  0  0  0  0  0  0
  185.9340  178.8050  142.6680 C   0  0  0  0  0  3  0  0  0  0  0  0
  187.1380  178.2630  140.6180 C   0  0  0  0  0  0  0  0  0  0  0  0
  188.2730  177.7080  140.0130 C   0  0  0  0  0  3  0  0  0  0  0  0
  185.8490  178.7850  144.0600 C   0  0  0  0  0  3  0  0  0  0  0  0
  190.4700  176.5350  140.1340 C   0  0  1  0  0  3  0  0  0  0  0  0
  192.5950  176.3290  137.0110 C   0  0  0  0  0  3  0  0  0  0  0  0
  190.2140  176.3660  138.3310 S   0  0  0  0  0  0  0  0  0  0  0  0
  191.7230  177.3680  140.3860 C   0  0  0  0  0  2  0  0  0  0  0  0
  191.9530  176.6420  138.1300 C   0  0  0  0  0  0  0  0  0  0  0  0
  192.6210  177.1500  139.2710 N   0  0  0  0  0  2  0  0  0  0  0  0
  194.0100  176.4960  136.9020 N   0  0  0  0  0  2  0  0  0  0  0  0
  194.8940  175.4620  136.3710 C   0  0  2  0  0  0  0  0  0  0  0  0
  196.0420  175.4060  137.1670 O   0  0  0  0  0  1  0  0  0  0  0  0
  195.2840  175.7960  134.9230 C   0  0  0  0  0  2  0  0  0  0  0  0
  196.2330  178.0940  134.6660 C   0  0  0  0  0  1  0  0  0  0  0  0
  194.9820  177.2440  134.5450 C   0  0  0  0  0  2  0  0  0  0  0  0
  194.1790  174.1040  136.4250 C   0  0  0  0  0  2  0  0  0  0  0  0
  195.1350  172.9170  136.4650 C   0  0  1  0  0  3  0  0  0  0  0  0
  195.7360  170.7140  135.4790 C   0  0  0  0  0  2  0  0  0  0  0  0
  195.1520  170.8900  137.9270 C   0  0  0  0  0  3  0  0  0  0  0  0
  195.2940  169.9700  136.7400 C   0  0  0  0  0  2  0  0  0  0  0  0
  195.0300  172.2220  137.7980 C   0  0  0  0  0  3  0  0  0  0  0  0
  194.8760  171.9580  135.3000 C   0  0  0  0  0  2  0  0  0  0  0  0
  186.1010  178.8460  139.8660 O   0  0  0  0  0  0  0  0  0  0  0  0
  182.7210  177.2670  139.7780 C   0  0  0  0  0  3  0  0  0  0  0  0
  182.9020  176.3990  138.5630 C   0  0  2  0  0  3  0  0  0  0  0  0
  184.9780  177.7190  138.1320 C   0  0  0  0  0  3  0  0  0  0  0  0
  183.7020  178.0830  140.1720 C   0  0  0  0  0  3  0  0  0  0  0  0
  184.9490  178.2080  139.3780 C   0  0  0  0  0  0  0  0  0  0  0  0
  183.7460  177.1200  137.5070 C   0  0  0  0  0  2  0  0  0  0  0  0
  180.8130  175.2130  138.9660 N   0  0  0  0  0  1  0  0  0  0  0  0
  181.5440  176.0160  138.0010 C   0  0  0  0  0  2  0  0  0  0  0  0
  1  6  1  1  0  0  0
  2 12  1  0  0  0  0
  2 11  1  0  0  0  0
  3 10  1  0  0  0  0
  4  8  1  0  0  0  0
  5  1  1  0  0  0  0
  7  4  2  0  0  0  0
  7  9  1  0  0  0  0
  8  1  1  0  0  0  0
  9  5  1  0  0  0  0
 10 11  2  0  0  0  0
 11  7  1  0  0  0  0
 12 15  2  0  0  0  0
 13  2  2  0  0  0  0
 14 13  1  0  0  0  0
 14  3  2  0  0  0  0
 15  4  1  0  0  0  0
 16 19  1  0  0  0  0
 16  3  1  1  0  0  0
 17 20  2  0  0  0  0
 18 16  1  0  0  0  0
 20 18  1  0  0  0  0
 20 21  1  0  0  0  0
 21 19  1  0  0  0  0
 22 17  1  0  0  0  0
 23 28  1  0  0  0  0
 23 22  1  0  0  0  0
 23 24  1  1  0  0  0
 25 23  1  0  0  0  0
 27 26  1  0  0  0  0
 27 25  1  0  0  0  0
 29 28  1  1  0  0  0
 29 33  1  0  0  0  0
 30 32  1  0  0  0  0
 32 31  1  0  0  0  0
 33 31  2  0  0  0  0
 34 30  1  0  0  0  0
 34 29  1  0  0  0  0
 35 13  1  0  0  0  0
 36 39  2  0  0  0  0
 37 43  1  6  0  0  0
 37 36  1  0  0  0  0
 38 40  2  0  0  0  0
 40 35  1  0  0  0  0
 40 39  1  0  0  0  0
 41 38  1  0  0  0  0
 41 37  1  0  0  0  0
 43 42  1  0  0  0  0
M  END
>  <MODEL>
9

>  <REMARK>
 VINA RESULT:      -8.3      4.217      5.715
  Name = 
  10 active torsions:
  status: ('A' for Active; 'I' for Inactive)
    1  A    between atoms: O_1  and  C_34
    2  A    between atoms: O_1  and  C_35
    3  A    between atoms: C_2  and  C_13
    4  A    between atoms: C_3  and  N_4
    5  A    between atoms: N_4  and  C_22
    6  A    between atoms: C_10  and  C_22
    7  A    between atoms: C_10  and  C_42
    8  A    between atoms: C_11  and  C_14
    9  A    between atoms: C_14  and  C_22
   10  A    between atoms: C_19  and  C_37
                            x       y       z     vdW  Elec       q    Type
                         _______ _______ _______ _____ _____    ______ ____

>  <TORSDO>
F 10

$$$$
