=
 OpenBabel10272414583D

 37 40  0  0  1  0  0  0  0  0999 V2000
  182.6210  176.6730  137.1880 C   0  0  0  0  0  2  0  0  0  0  0  0
  180.3460  180.6190  136.4280 C   0  0  0  0  0  3  0  0  0  0  0  0
  183.1950  177.6330  138.2370 C   0  0  2  0  0  3  0  0  0  0  0  0
  180.7340  179.4820  137.1450 C   0  0  0  0  0  0  0  0  0  0  0  0
  180.1910  177.8680  136.5740 S   0  0  0  0  0  0  0  0  0  0  0  0
  181.5420  179.6140  138.2880 C   0  0  0  0  0  0  0  0  0  0  0  0
  181.5610  182.0220  137.9790 C   0  0  0  0  0  3  0  0  0  0  0  0
  181.8720  177.3800  136.0520 C   0  0  2  0  0  3  0  0  0  0  0  0
  181.9620  180.8880  138.6900 C   0  0  0  0  0  3  0  0  0  0  0  0
  182.0670  178.3820  138.9720 C   0  0  2  0  0  3  0  0  0  0  0  0
  180.7500  181.8910  136.8410 C   0  0  0  0  0  0  0  0  0  0  0  0
  185.4180  178.7880  138.5520 C   0  0  0  0  0  2  0  0  0  0  0  0
  184.2500  178.5630  137.6110 C   0  0  1  0  0  3  0  0  0  0  0  0
  185.6100  177.9060  137.3360 C   0  0  2  0  0  3  0  0  0  0  0  0
  185.7330  176.4570  137.7880 C   0  0  0  0  0  2  0  0  0  0  0  0
  186.8310  175.8430  137.1330 O   0  0  0  0  0  0  0  0  0  0  0  0
  188.5090  176.8600  138.6110 C   0  0  0  0  0  3  0  0  0  0  0  0
  188.1490  176.1330  137.4840 C   0  0  0  0  0  0  0  0  0  0  0  0
  189.5290  175.6660  136.6290 S   0  0  0  0  0  0  0  0  0  0  0  0
  192.0930  176.3730  137.5450 C   0  0  0  0  0  1  0  0  0  0  0  0
  190.5060  177.6840  139.7590 O   0  0  0  0  0  1  0  0  0  0  0  0
  190.6110  176.3900  137.6910 C   0  0  0  0  0  0  0  0  0  0  0  0
  189.8980  176.9980  138.7150 C   0  0  0  0  0  0  0  0  0  0  0  0
  180.3360  183.0040  136.1050 O   0  0  0  0  0  0  0  0  0  0  0  0
  180.9190  184.2910  136.2640 C   0  0  0  0  0  1  0  0  0  0  0  0
  181.8200  176.5380  134.8590 N   0  0  0  0  0  2  0  0  0  0  0  0
  181.6900  175.2440  135.2450 O   0  0  0  0  0  1  0  0  0  0  0  0
  182.0900  178.3900  140.5070 C   0  0  1  0  0  3  0  0  0  0  0  0
  180.8130  177.8180  141.0460 C   0  0  0  0  0  0  0  0  0  0  0  0
  180.3780  176.7240  140.5980 O   0  0  0  0  0  0  0  0  0  0  0  0
  180.0780  178.4900  142.0260 O   0  0  0  0  0  0  0  0  0  0  0  0
  180.5160  179.7120  142.5980 C   0  0  0  0  0  1  0  0  0  0  0  0
  183.2940  177.6780  141.1110 C   0  0  0  0  0  2  0  0  0  0  0  0
  184.1550  178.6550  141.8840 C   0  0  0  0  0  2  0  0  0  0  0  0
  183.9380  178.4530  143.3670 C   0  0  0  0  0  2  0  0  0  0  0  0
  185.0500  178.8180  145.5450 C   0  0  0  0  0  1  0  0  0  0  0  0
  185.2720  178.4980  144.0820 C   0  0  0  0  0  2  0  0  0  0  0  0
  2 11  2  0  0  0  0
  2  4  1  0  0  0  0
  3  1  1  6  0  0  0
  3 10  1  0  0  0  0
  4  6  2  0  0  0  0
  5  4  1  0  0  0  0
  6  9  1  0  0  0  0
  6 10  1  0  0  0  0
  7  9  2  0  0  0  0
  8 26  1  6  0  0  0
  8  5  1  0  0  0  0
  8  1  1  0  0  0  0
 10 28  1  1  0  0  0
 11  7  1  0  0  0  0
 13  3  1  0  0  0  0
 13 12  1  1  0  0  0
 14 13  1  0  0  0  0
 14 15  1  1  0  0  0
 14 12  1  0  0  0  0
 16 18  1  0  0  0  0
 16 15  1  0  0  0  0
 17 23  1  0  0  0  0
 18 17  2  0  0  0  0
 19 18  1  0  0  0  0
 19 22  1  0  0  0  0
 20 22  1  0  0  0  0
 22 23  2  0  0  0  0
 23 21  1  0  0  0  0
 24 25  1  0  0  0  0
 24 11  1  0  0  0  0
 26 27  1  0  0  0  0
 28 29  1  0  0  0  0
 28 33  1  6  0  0  0
 29 31  1  0  0  0  0
 30 29  2  0  0  0  0
 31 32  1  0  0  0  0
 33 34  1  0  0  0  0
 34 35  1  0  0  0  0
 35 37  1  0  0  0  0
 37 36  1  0  0  0  0
M  END
>  <MODEL>
1

>  <REMARK>
 VINA RESULT:      -4.9      0.000      0.000
  Name = 
  13 active torsions:
  status: ('A' for Active; 'I' for Inactive)
    1  A    between atoms: C_1  and  O_12
    2  A    between atoms: C_1  and  C_36
    3  A    between atoms: O_3  and  C_32
    4  A    between atoms: C_6  and  O_31
    5  A    between atoms: C_10  and  C_14
    6  A    between atoms: C_17  and  C_26
    7  A    between atoms: C_17  and  C_33
    8  A    between atoms: N_22  and  C_24
    9  A    between atoms: C_26  and  C_34
   10  A    between atoms: C_27  and  C_37
   11  A    between atoms: C_29  and  C_36
   12  A    between atoms: O_31  and  C_37
   13  A    between atoms: C_33  and  C_36
                            x       y       z     vdW  Elec       q    Type
                         _______ _______ _______ _____ _____    ______ ____

>  <TORSDO>
F 13

$$$$
=
 OpenBabel10272414583D

 37 40  0  0  1  0  0  0  0  0999 V2000
  182.4440  176.5120  137.6820 C   0  0  0  0  0  2  0  0  0  0  0  0
  180.1670  180.3860  136.6180 C   0  0  0  0  0  3  0  0  0  0  0  0
  183.1430  177.5880  138.5230 C   0  0  2  0  0  3  0  0  0  0  0  0
  180.6100  179.3460  137.4430 C   0  0  0  0  0  0  0  0  0  0  0  0
  179.9830  177.6880  137.1610 S   0  0  0  0  0  0  0  0  0  0  0  0
  181.5370  179.6090  138.4670 C   0  0  0  0  0  0  0  0  0  0  0  0
  181.5640  181.9490  137.8250 C   0  0  0  0  0  3  0  0  0  0  0  0
  181.5910  177.0800  136.5420 C   0  0  2  0  0  3  0  0  0  0  0  0
  182.0190  180.9120  138.6420 C   0  0  0  0  0  3  0  0  0  0  0  0
  182.1120  178.4650  139.2580 C   0  0  2  0  0  3  0  0  0  0  0  0
  180.6340  181.6900  136.8070 C   0  0  0  0  0  0  0  0  0  0  0  0
  185.4410  178.6260  138.4110 C   0  0  0  0  0  2  0  0  0  0  0  0
  184.1400  178.3910  137.6680 C   0  0  1  0  0  3  0  0  0  0  0  0
  185.4130  177.6280  137.2720 C   0  0  2  0  0  3  0  0  0  0  0  0
  185.5290  176.2210  137.8420 C   0  0  0  0  0  2  0  0  0  0  0  0
  186.1810  175.3780  136.9070 O   0  0  0  0  0  0  0  0  0  0  0  0
  184.6650  173.4840  137.2930 C   0  0  0  0  0  3  0  0  0  0  0  0
  185.6940  174.1080  136.6000 C   0  0  0  0  0  0  0  0  0  0  0  0
  186.2430  173.1090  135.3540 S   0  0  0  0  0  0  0  0  0  0  0  0
  185.0910  170.5790  134.9280 C   0  0  0  0  0  1  0  0  0  0  0  0
  183.3900  171.3970  137.2900 O   0  0  0  0  0  1  0  0  0  0  0  0
  185.1710  171.8590  135.6840 C   0  0  0  0  0  0  0  0  0  0  0  0
  184.3810  172.2180  136.7680 C   0  0  0  0  0  0  0  0  0  0  0  0
  180.1620  182.7040  135.9690 O   0  0  0  0  0  0  0  0  0  0  0  0
  180.9660  183.8080  135.5720 C   0  0  0  0  0  1  0  0  0  0  0  0
  181.3990  176.0850  135.4900 N   0  0  0  0  0  2  0  0  0  0  0  0
  180.2630  175.3890  135.7500 O   0  0  0  0  0  1  0  0  0  0  0  0
  182.2980  178.6830  140.7660 C   0  0  1  0  0  3  0  0  0  0  0  0
  181.0220  178.3790  141.4940 C   0  0  0  0  0  0  0  0  0  0  0  0
  180.2850  177.4370  141.1000 O   0  0  0  0  0  0  0  0  0  0  0  0
  180.6190  179.1420  142.5920 O   0  0  0  0  0  0  0  0  0  0  0  0
  180.5370  178.6020  143.9030 C   0  0  0  0  0  1  0  0  0  0  0  0
  183.4570  177.8970  141.3660 C   0  0  0  0  0  2  0  0  0  0  0  0
  184.4020  178.8230  142.1020 C   0  0  0  0  0  2  0  0  0  0  0  0
  185.4700  178.0050  142.7950 C   0  0  0  0  0  2  0  0  0  0  0  0
  184.1750  178.9020  144.7010 C   0  0  0  0  0  1  0  0  0  0  0  0
  185.5310  178.3950  144.2570 C   0  0  0  0  0  2  0  0  0  0  0  0
  2 11  2  0  0  0  0
  2  4  1  0  0  0  0
  3  1  1  6  0  0  0
  3 10  1  0  0  0  0
  4  6  2  0  0  0  0
  5  4  1  0  0  0  0
  6  9  1  0  0  0  0
  6 10  1  0  0  0  0
  7  9  2  0  0  0  0
  8 26  1  6  0  0  0
  8  5  1  0  0  0  0
  8  1  1  0  0  0  0
 10 28  1  1  0  0  0
 11  7  1  0  0  0  0
 13 12  1  1  0  0  0
 13  3  1  0  0  0  0
 14 13  1  0  0  0  0
 14 15  1  1  0  0  0
 14 12  1  0  0  0  0
 16 15  1  0  0  0  0
 18 16  1  0  0  0  0
 18 17  2  0  0  0  0
 19 22  1  0  0  0  0
 19 18  1  0  0  0  0
 20 22  1  0  0  0  0
 22 23  2  0  0  0  0
 23 21  1  0  0  0  0
 23 17  1  0  0  0  0
 24 11  1  0  0  0  0
 25 24  1  0  0  0  0
 26 27  1  0  0  0  0
 28 33  1  1  0  0  0
 28 29  1  0  0  0  0
 29 31  1  0  0  0  0
 30 29  2  0  0  0  0
 31 32  1  0  0  0  0
 33 34  1  0  0  0  0
 34 35  1  0  0  0  0
 35 37  1  0  0  0  0
 37 36  1  0  0  0  0
M  END
>  <MODEL>
2

>  <REMARK>
 VINA RESULT:      -4.8      2.165      3.169
  Name = 
  13 active torsions:
  status: ('A' for Active; 'I' for Inactive)
    1  A    between atoms: C_1  and  O_12
    2  A    between atoms: C_1  and  C_36
    3  A    between atoms: O_3  and  C_32
    4  A    between atoms: C_6  and  O_31
    5  A    between atoms: C_10  and  C_14
    6  A    between atoms: C_17  and  C_26
    7  A    between atoms: C_17  and  C_33
    8  A    between atoms: N_22  and  C_24
    9  A    between atoms: C_26  and  C_34
   10  A    between atoms: C_27  and  C_37
   11  A    between atoms: C_29  and  C_36
   12  A    between atoms: O_31  and  C_37
   13  A    between atoms: C_33  and  C_36
                            x       y       z     vdW  Elec       q    Type
                         _______ _______ _______ _____ _____    ______ ____

>  <TORSDO>
F 13

$$$$
=
 OpenBabel10272414583D

 37 40  0  0  1  0  0  0  0  0999 V2000
  184.5530  176.9720  138.0410 C   0  0  0  0  0  2  0  0  0  0  0  0
  181.8280  179.1670  135.0290 C   0  0  0  0  0  3  0  0  0  0  0  0
  183.4170  177.5230  138.9120 C   0  0  2  0  0  3  0  0  0  0  0  0
  182.1730  178.1870  135.9660 C   0  0  0  0  0  0  0  0  0  0  0  0
  183.3940  176.9490  135.5180 S   0  0  0  0  0  0  0  0  0  0  0  0
  181.5700  178.1870  137.2360 C   0  0  0  0  0  0  0  0  0  0  0  0
  180.2860  180.1500  136.6110 C   0  0  0  0  0  3  0  0  0  0  0  0
  184.6460  177.6310  136.6600 C   0  0  2  0  0  3  0  0  0  0  0  0
  180.6370  179.1820  137.5550 C   0  0  0  0  0  3  0  0  0  0  0  0
  182.0450  177.2170  138.2830 C   0  0  2  0  0  3  0  0  0  0  0  0
  180.8820  180.1470  135.3410 C   0  0  0  0  0  0  0  0  0  0  0  0
  182.7910  179.4680  140.3930 C   0  0  0  0  0  2  0  0  0  0  0  0
  183.6370  179.0150  139.2200 C   0  0  1  0  0  3  0  0  0  0  0  0
  184.2840  179.3060  140.5820 C   0  0  2  0  0  3  0  0  0  0  0  0
  184.5450  178.0820  141.4500 C   0  0  0  0  0  2  0  0  0  0  0  0
  184.0560  178.3120  142.7610 O   0  0  0  0  0  0  0  0  0  0  0  0
  184.5220  178.7480  145.1330 C   0  0  0  0  0  3  0  0  0  0  0  0
  184.9030  178.3210  143.8680 C   0  0  0  0  0  0  0  0  0  0  0  0
  186.5180  177.8260  143.8860 S   0  0  0  0  0  0  0  0  0  0  0  0
  188.0280  177.9360  146.2570 C   0  0  0  0  0  1  0  0  0  0  0  0
  185.4380  179.0130  147.3850 O   0  0  0  0  0  1  0  0  0  0  0  0
  186.7530  178.1510  145.5180 C   0  0  0  0  0  0  0  0  0  0  0  0
  185.5730  178.6480  146.0520 C   0  0  0  0  0  0  0  0  0  0  0  0
  180.5570  181.1050  134.3760 O   0  0  0  0  0  0  0  0  0  0  0  0
  180.7360  182.4990  134.5870 C   0  0  0  0  0  1  0  0  0  0  0  0
  185.9890  177.4870  136.1030 N   0  0  0  0  0  2  0  0  0  0  0  0
  186.8770  177.4060  137.1250 O   0  0  0  0  0  1  0  0  0  0  0  0
  180.9740  176.5690  139.1720 C   0  0  1  0  0  3  0  0  0  0  0  0
  180.8580  175.1070  138.8590 C   0  0  0  0  0  0  0  0  0  0  0  0
  180.1610  174.3610  139.5970 O   0  0  0  0  0  0  0  0  0  0  0  0
  181.5310  174.5460  137.7710 O   0  0  0  0  0  0  0  0  0  0  0  0
  180.9240  173.5930  136.9120 C   0  0  0  0  0  1  0  0  0  0  0  0
  181.1990  176.7810  140.6640 C   0  0  0  0  0  2  0  0  0  0  0  0
  179.9830  177.4240  141.2970 C   0  0  0  0  0  2  0  0  0  0  0  0
  180.2160  177.5850  142.7840 C   0  0  0  0  0  2  0  0  0  0  0  0
  180.0870  179.9000  141.9260 C   0  0  0  0  0  1  0  0  0  0  0  0
  180.0240  179.0360  143.1690 C   0  0  0  0  0  2  0  0  0  0  0  0
  2 11  2  0  0  0  0
  2  4  1  0  0  0  0
  3  1  1  6  0  0  0
  3 13  1  0  0  0  0
  4  6  2  0  0  0  0
  5  4  1  0  0  0  0
  5  8  1  0  0  0  0
  6  9  1  0  0  0  0
  6 10  1  0  0  0  0
  7  9  2  0  0  0  0
  8 26  1  6  0  0  0
  8  1  1  0  0  0  0
 10  3  1  0  0  0  0
 10 28  1  1  0  0  0
 11  7  1  0  0  0  0
 12 14  1  0  0  0  0
 13 12  1  1  0  0  0
 13 14  1  0  0  0  0
 14 15  1  1  0  0  0
 15 16  1  0  0  0  0
 16 18  1  0  0  0  0
 17 23  1  0  0  0  0
 18 19  1  0  0  0  0
 18 17  2  0  0  0  0
 19 22  1  0  0  0  0
 22 23  2  0  0  0  0
 22 20  1  0  0  0  0
 23 21  1  0  0  0  0
 24 25  1  0  0  0  0
 24 11  1  0  0  0  0
 26 27  1  0  0  0  0
 28 33  1  1  0  0  0
 29 28  1  0  0  0  0
 29 30  2  0  0  0  0
 31 29  1  0  0  0  0
 32 31  1  0  0  0  0
 33 34  1  0  0  0  0
 34 35  1  0  0  0  0
 35 37  1  0  0  0  0
 36 37  1  0  0  0  0
M  END
>  <MODEL>
3

>  <REMARK>
 VINA RESULT:      -4.6      2.989      5.137
  Name = 
  13 active torsions:
  status: ('A' for Active; 'I' for Inactive)
    1  A    between atoms: C_1  and  O_12
    2  A    between atoms: C_1  and  C_36
    3  A    between atoms: O_3  and  C_32
    4  A    between atoms: C_6  and  O_31
    5  A    between atoms: C_10  and  C_14
    6  A    between atoms: C_17  and  C_26
    7  A    between atoms: C_17  and  C_33
    8  A    between atoms: N_22  and  C_24
    9  A    between atoms: C_26  and  C_34
   10  A    between atoms: C_27  and  C_37
   11  A    between atoms: C_29  and  C_36
   12  A    between atoms: O_31  and  C_37
   13  A    between atoms: C_33  and  C_36
                            x       y       z     vdW  Elec       q    Type
                         _______ _______ _______ _____ _____    ______ ____

>  <TORSDO>
F 13

$$$$
=
 OpenBabel10272414583D

 37 40  0  0  1  0  0  0  0  0999 V2000
  187.9060  174.2580  136.7880 C   0  0  0  0  0  2  0  0  0  0  0  0
  183.3610  174.0460  136.0030 C   0  0  0  0  0  3  0  0  0  0  0  0
  187.5120  175.7180  136.5330 C   0  0  2  0  0  3  0  0  0  0  0  0
  184.5270  174.4010  136.6900 C   0  0  0  0  0  0  0  0  0  0  0  0
  185.4790  173.1170  137.5070 S   0  0  0  0  0  0  0  0  0  0  0  0
  184.9390  175.7460  136.7260 C   0  0  0  0  0  0  0  0  0  0  0  0
  183.0090  176.3570  135.3850 C   0  0  0  0  0  3  0  0  0  0  0  0
  186.8570  173.2450  136.3150 C   0  0  2  0  0  3  0  0  0  0  0  0
  184.1800  176.7150  136.0580 C   0  0  0  0  0  3  0  0  0  0  0  0
  186.2620  176.1000  137.3470 C   0  0  2  0  0  3  0  0  0  0  0  0
  182.5950  175.0170  135.3540 C   0  0  0  0  0  0  0  0  0  0  0  0
  187.4820  177.4750  134.7200 C   0  0  0  0  0  2  0  0  0  0  0  0
  187.3750  175.9930  135.0240 C   0  0  1  0  0  3  0  0  0  0  0  0
  188.6340  176.5640  134.3540 C   0  0  2  0  0  3  0  0  0  0  0  0
  189.8010  176.8370  135.2930 C   0  0  0  0  0  2  0  0  0  0  0  0
  190.7740  175.8140  135.1580 O   0  0  0  0  0  0  0  0  0  0  0  0
  192.0320  176.5120  137.1480 C   0  0  0  0  0  3  0  0  0  0  0  0
  191.7880  175.6380  136.0980 C   0  0  0  0  0  0  0  0  0  0  0  0
  192.8880  174.3570  136.1420 S   0  0  0  0  0  0  0  0  0  0  0  0
  194.8510  174.2200  138.1520 C   0  0  0  0  0  1  0  0  0  0  0  0
  193.5470  176.7950  139.0480 O   0  0  0  0  0  1  0  0  0  0  0  0
  193.6960  174.9040  137.5100 C   0  0  0  0  0  0  0  0  0  0  0  0
  193.1090  176.0880  137.9350 C   0  0  0  0  0  0  0  0  0  0  0  0
  181.4320  174.6250  134.6850 O   0  0  0  0  0  0  0  0  0  0  0  0
  180.7330  173.4270  134.9980 C   0  0  0  0  0  1  0  0  0  0  0  0
  187.4650  171.9370  136.0820 N   0  0  0  0  0  2  0  0  0  0  0  0
  186.8620  171.3610  135.0120 O   0  0  0  0  0  1  0  0  0  0  0  0
  186.3160  177.3810  138.1910 C   0  0  1  0  0  3  0  0  0  0  0  0
  187.7180  177.9150  138.2300 C   0  0  0  0  0  0  0  0  0  0  0  0
  188.0070  178.9630  137.5930 O   0  0  0  0  0  0  0  0  0  0  0  0
  188.7210  177.2560  138.9430 O   0  0  0  0  0  0  0  0  0  0  0  0
  188.9110  177.4460  140.3370 C   0  0  0  0  0  1  0  0  0  0  0  0
  185.3440  178.4620  137.7360 C   0  0  0  0  0  2  0  0  0  0  0  0
  184.6030  179.0420  138.9230 C   0  0  0  0  0  2  0  0  0  0  0  0
  183.2120  178.4490  138.9860 C   0  0  0  0  0  2  0  0  0  0  0  0
  182.5850  176.1130  139.4980 C   0  0  0  0  0  1  0  0  0  0  0  0
  183.1650  177.3910  140.0680 C   0  0  0  0  0  2  0  0  0  0  0  0
  2  4  1  0  0  0  0
  3  1  1  6  0  0  0
  3 10  1  0  0  0  0
  4  6  2  0  0  0  0
  4  5  1  0  0  0  0
  6 10  1  0  0  0  0
  7  9  2  0  0  0  0
  8 26  1  1  0  0  0
  8  1  1  0  0  0  0
  8  5  1  0  0  0  0
  9  6  1  0  0  0  0
 10 28  1  6  0  0  0
 11  7  1  0  0  0  0
 11  2  2  0  0  0  0
 13 12  1  1  0  0  0
 13  3  1  0  0  0  0
 14 12  1  0  0  0  0
 14 13  1  0  0  0  0
 14 15  1  1  0  0  0
 16 15  1  0  0  0  0
 16 18  1  0  0  0  0
 17 23  1  0  0  0  0
 18 19  1  0  0  0  0
 18 17  2  0  0  0  0
 19 22  1  0  0  0  0
 22 23  2  0  0  0  0
 22 20  1  0  0  0  0
 23 21  1  0  0  0  0
 24 25  1  0  0  0  0
 24 11  1  0  0  0  0
 27 26  1  0  0  0  0
 28 33  1  6  0  0  0
 28 29  1  0  0  0  0
 29 31  1  0  0  0  0
 30 29  2  0  0  0  0
 31 32  1  0  0  0  0
 33 34  1  0  0  0  0
 34 35  1  0  0  0  0
 35 37  1  0  0  0  0
 36 37  1  0  0  0  0
M  END
>  <MODEL>
4

>  <REMARK>
 VINA RESULT:      -4.5      3.932      6.026
  Name = 
  13 active torsions:
  status: ('A' for Active; 'I' for Inactive)
    1  A    between atoms: C_1  and  O_12
    2  A    between atoms: C_1  and  C_36
    3  A    between atoms: O_3  and  C_32
    4  A    between atoms: C_6  and  O_31
    5  A    between atoms: C_10  and  C_14
    6  A    between atoms: C_17  and  C_26
    7  A    between atoms: C_17  and  C_33
    8  A    between atoms: N_22  and  C_24
    9  A    between atoms: C_26  and  C_34
   10  A    between atoms: C_27  and  C_37
   11  A    between atoms: C_29  and  C_36
   12  A    between atoms: O_31  and  C_37
   13  A    between atoms: C_33  and  C_36
                            x       y       z     vdW  Elec       q    Type
                         _______ _______ _______ _____ _____    ______ ____

>  <TORSDO>
F 13

$$$$
=
 OpenBabel10272414583D

 37 40  0  0  1  0  0  0  0  0999 V2000
  188.7790  176.7370  139.2850 C   0  0  0  0  0  2  0  0  0  0  0  0
  192.3900  176.0880  136.4810 C   0  0  0  0  0  3  0  0  0  0  0  0
  188.1390  176.5540  137.9030 C   0  0  2  0  0  3  0  0  0  0  0  0
  191.2140  175.7430  137.1550 C   0  0  0  0  0  0  0  0  0  0  0  0
  191.2620  175.5430  138.9390 S   0  0  0  0  0  0  0  0  0  0  0  0
  190.0180  175.5650  136.4360 C   0  0  0  0  0  0  0  0  0  0  0  0
  191.1960  176.0820  134.3770 C   0  0  0  0  0  3  0  0  0  0  0  0
  190.2780  177.0540  139.2320 C   0  0  2  0  0  3  0  0  0  0  0  0
  190.0170  175.7500  135.0470 C   0  0  0  0  0  3  0  0  0  0  0  0
  188.7330  175.3300  137.1800 C   0  0  2  0  0  3  0  0  0  0  0  0
  192.3910  176.2540  135.0930 C   0  0  0  0  0  0  0  0  0  0  0  0
  187.2090  177.8620  135.9550 C   0  0  0  0  0  2  0  0  0  0  0  0
  188.2210  177.8550  137.0840 C   0  0  1  0  0  3  0  0  0  0  0  0
  186.9730  178.7470  137.1600 C   0  0  2  0  0  3  0  0  0  0  0  0
  185.8180  178.1780  137.9750 C   0  0  0  0  0  2  0  0  0  0  0  0
  185.3260  179.1670  138.8630 O   0  0  0  0  0  0  0  0  0  0  0  0
  183.9640  178.8960  140.8890 C   0  0  0  0  0  3  0  0  0  0  0  0
  185.1850  178.9220  140.2290 C   0  0  0  0  0  0  0  0  0  0  0  0
  186.4400  178.6140  141.3160 S   0  0  0  0  0  0  0  0  0  0  0  0
  185.9000  178.1420  144.0360 C   0  0  0  0  0  1  0  0  0  0  0  0
  183.0440  178.5460  143.1280 O   0  0  0  0  0  1  0  0  0  0  0  0
  185.4370  178.4430  142.6530 C   0  0  0  0  0  0  0  0  0  0  0  0
  184.1210  178.6260  142.2540 C   0  0  0  0  0  0  0  0  0  0  0  0
  193.5870  176.5910  134.4530 O   0  0  0  0  0  0  0  0  0  0  0  0
  194.6820  175.6900  134.3500 C   0  0  0  0  0  1  0  0  0  0  0  0
  190.7110  177.7260  140.4550 N   0  0  0  0  0  2  0  0  0  0  0  0
  192.0650  177.6710  140.5260 O   0  0  0  0  0  1  0  0  0  0  0  0
  187.7590  174.3030  136.5850 C   0  0  1  0  0  3  0  0  0  0  0  0
  188.3690  172.9330  136.6160 C   0  0  0  0  0  0  0  0  0  0  0  0
  188.4680  172.3160  137.7100 O   0  0  0  0  0  0  0  0  0  0  0  0
  188.8560  172.3340  135.4520 O   0  0  0  0  0  0  0  0  0  0  0  0
  188.0710  171.4460  134.6700 C   0  0  0  0  0  1  0  0  0  0  0  0
  186.3880  174.2940  137.2500 C   0  0  0  0  0  2  0  0  0  0  0  0
  185.5640  173.1260  136.7500 C   0  0  0  0  0  2  0  0  0  0  0  0
  184.1750  173.1990  137.3450 C   0  0  0  0  0  2  0  0  0  0  0  0
  182.8520  174.8600  136.0800 C   0  0  0  0  0  1  0  0  0  0  0  0
  183.1610  173.3860  136.2370 C   0  0  0  0  0  2  0  0  0  0  0  0
  2  4  1  0  0  0  0
  3  1  1  1  0  0  0
  4  5  1  0  0  0  0
  5  8  1  0  0  0  0
  6  4  2  0  0  0  0
  6 10  1  0  0  0  0
  7  9  2  0  0  0  0
  7 11  1  0  0  0  0
  8  1  1  0  0  0  0
  8 26  1  1  0  0  0
  9  6  1  0  0  0  0
 10 28  1  6  0  0  0
 10  3  1  0  0  0  0
 11  2  2  0  0  0  0
 12 14  1  0  0  0  0
 13 12  1  6  0  0  0
 13 14  1  0  0  0  0
 13  3  1  0  0  0  0
 14 15  1  1  0  0  0
 15 16  1  0  0  0  0
 16 18  1  0  0  0  0
 17 23  1  0  0  0  0
 18 17  2  0  0  0  0
 18 19  1  0  0  0  0
 19 22  1  0  0  0  0
 22 20  1  0  0  0  0
 23 22  2  0  0  0  0
 23 21  1  0  0  0  0
 24 11  1  0  0  0  0
 25 24  1  0  0  0  0
 26 27  1  0  0  0  0
 28 29  1  0  0  0  0
 28 33  1  1  0  0  0
 29 30  2  0  0  0  0
 31 29  1  0  0  0  0
 32 31  1  0  0  0  0
 34 33  1  0  0  0  0
 34 35  1  0  0  0  0
 36 37  1  0  0  0  0
 37 35  1  0  0  0  0
M  END
>  <MODEL>
5

>  <REMARK>
 VINA RESULT:      -4.4      4.017      9.359
  Name = 
  13 active torsions:
  status: ('A' for Active; 'I' for Inactive)
    1  A    between atoms: C_1  and  O_12
    2  A    between atoms: C_1  and  C_36
    3  A    between atoms: O_3  and  C_32
    4  A    between atoms: C_6  and  O_31
    5  A    between atoms: C_10  and  C_14
    6  A    between atoms: C_17  and  C_26
    7  A    between atoms: C_17  and  C_33
    8  A    between atoms: N_22  and  C_24
    9  A    between atoms: C_26  and  C_34
   10  A    between atoms: C_27  and  C_37
   11  A    between atoms: C_29  and  C_36
   12  A    between atoms: O_31  and  C_37
   13  A    between atoms: C_33  and  C_36
                            x       y       z     vdW  Elec       q    Type
                         _______ _______ _______ _____ _____    ______ ____

>  <TORSDO>
F 13

$$$$
=
 OpenBabel10272414583D

 37 40  0  0  1  0  0  0  0  0999 V2000
  183.7600  176.0810  138.2240 C   0  0  0  0  0  2  0  0  0  0  0  0
  180.6330  179.4390  137.7140 C   0  0  0  0  0  3  0  0  0  0  0  0
  184.5200  177.3510  138.6280 C   0  0  2  0  0  3  0  0  0  0  0  0
  181.5100  178.6010  138.4100 C   0  0  0  0  0  0  0  0  0  0  0  0
  181.1140  176.8560  138.5530 S   0  0  0  0  0  0  0  0  0  0  0  0
  182.6830  179.1300  138.9790 C   0  0  0  0  0  0  0  0  0  0  0  0
  182.0810  181.3280  138.1430 C   0  0  0  0  0  3  0  0  0  0  0  0
  182.4730  176.3570  137.4380 C   0  0  2  0  0  3  0  0  0  0  0  0
  182.9670  180.4930  138.8280 C   0  0  0  0  0  3  0  0  0  0  0  0
  183.6870  178.2010  139.6050 C   0  0  2  0  0  3  0  0  0  0  0  0
  180.9070  180.8030  137.5810 C   0  0  0  0  0  0  0  0  0  0  0  0
  186.1520  179.0470  137.7160 C   0  0  0  0  0  2  0  0  0  0  0  0
  184.9950  178.1250  137.3840 C   0  0  1  0  0  3  0  0  0  0  0  0
  186.4190  177.7890  136.9180 C   0  0  2  0  0  3  0  0  0  0  0  0
  187.1700  176.7950  137.7950 C   0  0  0  0  0  2  0  0  0  0  0  0
  188.3840  177.3750  138.2440 O   0  0  0  0  0  0  0  0  0  0  0  0
  190.7740  176.9490  138.6170 C   0  0  0  0  0  3  0  0  0  0  0  0
  189.6250  176.8840  137.8410 C   0  0  0  0  0  0  0  0  0  0  0  0
  189.9620  176.1300  136.3670 S   0  0  0  0  0  0  0  0  0  0  0  0
  192.5570  175.2150  135.7840 C   0  0  0  0  0  1  0  0  0  0  0  0
  193.1360  176.3220  138.5370 O   0  0  0  0  0  1  0  0  0  0  0  0
  191.5890  175.8750  136.7020 C   0  0  0  0  0  0  0  0  0  0  0  0
  191.8720  176.3790  137.9640 C   0  0  0  0  0  0  0  0  0  0  0  0
  180.0030  181.6100  136.8860 O   0  0  0  0  0  0  0  0  0  0  0  0
  180.2530  182.0870  135.5700 C   0  0  0  0  0  1  0  0  0  0  0  0
  182.0900  175.1950  136.6410 N   0  0  0  0  0  2  0  0  0  0  0  0
  183.1570  174.3620  136.5450 O   0  0  0  0  0  1  0  0  0  0  0  0
  184.3600  178.6720  140.9020 C   0  0  1  0  0  3  0  0  0  0  0  0
  183.3760  178.6430  142.0350 C   0  0  0  0  0  0  0  0  0  0  0  0
  182.2310  178.1480  141.8580 O   0  0  0  0  0  0  0  0  0  0  0  0
  183.6970  179.1810  143.2830 O   0  0  0  0  0  0  0  0  0  0  0  0
  183.0020  178.8200  144.4670 C   0  0  0  0  0  1  0  0  0  0  0  0
  185.6170  177.8920  141.2650 C   0  0  0  0  0  2  0  0  0  0  0  0
  186.7890  178.8320  141.4500 C   0  0  0  0  0  2  0  0  0  0  0  0
  188.0760  178.0360  141.4560 C   0  0  0  0  0  2  0  0  0  0  0  0
  188.6100  176.2020  143.0250 C   0  0  0  0  0  1  0  0  0  0  0  0
  188.4540  177.7020  142.8830 C   0  0  0  0  0  2  0  0  0  0  0  0
  2  4  1  0  0  0  0
  3  1  1  6  0  0  0
  3 10  1  0  0  0  0
  4  5  1  0  0  0  0
  4  6  2  0  0  0  0
  6 10  1  0  0  0  0
  7  9  2  0  0  0  0
  8 26  1  1  0  0  0
  8  1  1  0  0  0  0
  8  5  1  0  0  0  0
  9  6  1  0  0  0  0
 10 28  1  6  0  0  0
 11  2  2  0  0  0  0
 11  7  1  0  0  0  0
 13 12  1  1  0  0  0
 13  3  1  0  0  0  0
 14 13  1  0  0  0  0
 14 12  1  0  0  0  0
 14 15  1  1  0  0  0
 15 16  1  0  0  0  0
 18 16  1  0  0  0  0
 18 17  2  0  0  0  0
 19 22  1  0  0  0  0
 19 18  1  0  0  0  0
 20 22  1  0  0  0  0
 22 23  2  0  0  0  0
 23 21  1  0  0  0  0
 23 17  1  0  0  0  0
 24 11  1  0  0  0  0
 25 24  1  0  0  0  0
 27 26  1  0  0  0  0
 28 33  1  1  0  0  0
 28 29  1  0  0  0  0
 29 31  1  0  0  0  0
 30 29  2  0  0  0  0
 31 32  1  0  0  0  0
 33 34  1  0  0  0  0
 34 35  1  0  0  0  0
 35 37  1  0  0  0  0
 37 36  1  0  0  0  0
M  END
>  <MODEL>
6

>  <REMARK>
 VINA RESULT:      -4.3      1.908      2.362
  Name = 
  13 active torsions:
  status: ('A' for Active; 'I' for Inactive)
    1  A    between atoms: C_1  and  O_12
    2  A    between atoms: C_1  and  C_36
    3  A    between atoms: O_3  and  C_32
    4  A    between atoms: C_6  and  O_31
    5  A    between atoms: C_10  and  C_14
    6  A    between atoms: C_17  and  C_26
    7  A    between atoms: C_17  and  C_33
    8  A    between atoms: N_22  and  C_24
    9  A    between atoms: C_26  and  C_34
   10  A    between atoms: C_27  and  C_37
   11  A    between atoms: C_29  and  C_36
   12  A    between atoms: O_31  and  C_37
   13  A    between atoms: C_33  and  C_36
                            x       y       z     vdW  Elec       q    Type
                         _______ _______ _______ _____ _____    ______ ____

>  <TORSDO>
F 13

$$$$
=
 OpenBabel10272414583D

 37 40  0  0  1  0  0  0  0  0999 V2000
  189.3750  178.0790  136.6910 C   0  0  0  0  0  2  0  0  0  0  0  0
  187.9150  174.1600  134.7330 C   0  0  0  0  0  3  0  0  0  0  0  0
  190.1920  176.9910  137.3990 C   0  0  2  0  0  3  0  0  0  0  0  0
  188.8320  175.1660  135.0560 C   0  0  0  0  0  0  0  0  0  0  0  0
  188.6130  176.8000  134.3460 S   0  0  0  0  0  0  0  0  0  0  0  0
  189.8990  174.8890  135.9300 C   0  0  0  0  0  0  0  0  0  0  0  0
  189.1140  172.6020  136.1440 C   0  0  0  0  0  3  0  0  0  0  0  0
  188.1450  177.5400  135.9500 C   0  0  2  0  0  3  0  0  0  0  0  0
  190.0240  173.6070  136.4790 C   0  0  0  0  0  3  0  0  0  0  0  0
  190.7980  176.0080  136.3790 C   0  0  2  0  0  3  0  0  0  0  0  0
  188.0520  172.8750  135.2680 C   0  0  0  0  0  0  0  0  0  0  0  0
  190.2450  175.5960  139.5020 C   0  0  0  0  0  2  0  0  0  0  0  0
  189.3590  176.3070  138.4980 C   0  0  1  0  0  3  0  0  0  0  0  0
  189.5550  176.8800  139.9090 C   0  0  2  0  0  3  0  0  0  0  0  0
  190.5930  177.9890  140.0200 C   0  0  0  0  0  2  0  0  0  0  0  0
  191.4780  177.7090  141.0920 O   0  0  0  0  0  0  0  0  0  0  0  0
  191.7750  177.0340  143.4350 C   0  0  0  0  0  3  0  0  0  0  0  0
  191.0240  177.5830  142.4040 C   0  0  0  0  0  0  0  0  0  0  0  0
  189.5110  178.0630  142.9810 S   0  0  0  0  0  0  0  0  0  0  0  0
  188.8250  177.7040  145.6850 C   0  0  0  0  0  1  0  0  0  0  0  0
  191.6110  176.5380  145.8240 O   0  0  0  0  0  1  0  0  0  0  0  0
  189.7950  177.5740  144.5630 C   0  0  0  0  0  0  0  0  0  0  0  0
  191.0710  177.0340  144.6450 C   0  0  0  0  0  0  0  0  0  0  0  0
  187.1220  171.8940  134.9150 O   0  0  0  0  0  0  0  0  0  0  0  0
  185.7190  172.0860  135.0390 C   0  0  0  0  0  1  0  0  0  0  0  0
  187.1480  178.5910  135.7640 N   0  0  0  0  0  2  0  0  0  0  0  0
  187.0110  179.2730  136.9290 O   0  0  0  0  0  1  0  0  0  0  0  0
  192.2990  175.7010  136.4810 C   0  0  1  0  0  3  0  0  0  0  0  0
  192.9290  175.7440  135.1200 C   0  0  0  0  0  0  0  0  0  0  0  0
  192.8910  174.7260  134.3790 O   0  0  0  0  0  0  0  0  0  0  0  0
  193.5830  176.8910  134.6640 O   0  0  0  0  0  0  0  0  0  0  0  0
  194.9670  176.9020  134.3520 C   0  0  0  0  0  1  0  0  0  0  0  0
  193.0510  176.6050  137.4480 C   0  0  0  0  0  2  0  0  0  0  0  0
  193.7760  175.7800  138.4910 C   0  0  0  0  0  2  0  0  0  0  0  0
  194.8820  174.9900  137.8260 C   0  0  0  0  0  2  0  0  0  0  0  0
  195.3500  172.6500  138.4740 C   0  0  0  0  0  1  0  0  0  0  0  0
  194.4430  173.5510  137.6620 C   0  0  0  0  0  2  0  0  0  0  0  0
  2  4  2  0  0  0  0
  2 11  1  0  0  0  0
  3  1  1  6  0  0  0
  3 13  1  0  0  0  0
  4  6  1  0  0  0  0
  5  4  1  0  0  0  0
  5  8  1  0  0  0  0
  6 10  1  0  0  0  0
  6  9  2  0  0  0  0
  7  9  1  0  0  0  0
  8 26  1  6  0  0  0
  8  1  1  0  0  0  0
 10 28  1  1  0  0  0
 10  3  1  0  0  0  0
 11  7  2  0  0  0  0
 12 14  1  0  0  0  0
 13 12  1  1  0  0  0
 13 14  1  0  0  0  0
 14 15  1  6  0  0  0
 15 16  1  0  0  0  0
 16 18  1  0  0  0  0
 17 23  1  0  0  0  0
 18 19  1  0  0  0  0
 18 17  2  0  0  0  0
 19 22  1  0  0  0  0
 22 23  2  0  0  0  0
 22 20  1  0  0  0  0
 23 21  1  0  0  0  0
 24 25  1  0  0  0  0
 24 11  1  0  0  0  0
 26 27  1  0  0  0  0
 28 33  1  1  0  0  0
 29 28  1  0  0  0  0
 30 29  2  0  0  0  0
 31 29  1  0  0  0  0
 32 31  1  0  0  0  0
 33 34  1  0  0  0  0
 35 34  1  0  0  0  0
 37 35  1  0  0  0  0
 37 36  1  0  0  0  0
M  END
>  <MODEL>
7

>  <REMARK>
 VINA RESULT:      -4.2      6.191      9.960
  Name = 
  13 active torsions:
  status: ('A' for Active; 'I' for Inactive)
    1  A    between atoms: C_1  and  O_12
    2  A    between atoms: C_1  and  C_36
    3  A    between atoms: O_3  and  C_32
    4  A    between atoms: C_6  and  O_31
    5  A    between atoms: C_10  and  C_14
    6  A    between atoms: C_17  and  C_26
    7  A    between atoms: C_17  and  C_33
    8  A    between atoms: N_22  and  C_24
    9  A    between atoms: C_26  and  C_34
   10  A    between atoms: C_27  and  C_37
   11  A    between atoms: C_29  and  C_36
   12  A    between atoms: O_31  and  C_37
   13  A    between atoms: C_33  and  C_36
                            x       y       z     vdW  Elec       q    Type
                         _______ _______ _______ _____ _____    ______ ____

>  <TORSDO>
F 13

$$$$
=
 OpenBabel10272414583D

 37 40  0  0  1  0  0  0  0  0999 V2000
  190.3500  173.6980  134.9570 C   0  0  0  0  0  2  0  0  0  0  0  0
  191.6380  176.5430  138.3580 C   0  0  0  0  0  3  0  0  0  0  0  0
  189.0330  174.0380  135.6650 C   0  0  2  0  0  3  0  0  0  0  0  0
  190.9930  176.1730  137.1730 C   0  0  0  0  0  0  0  0  0  0  0  0
  191.9850  175.8080  135.7220 S   0  0  0  0  0  0  0  0  0  0  0  0
  189.5900  176.0860  137.1350 C   0  0  0  0  0  0  0  0  0  0  0  0
  189.5000  176.7400  139.4700 C   0  0  0  0  0  3  0  0  0  0  0  0
  191.5980  174.0240  135.7860 C   0  0  2  0  0  3  0  0  0  0  0  0
  188.8520  176.3590  138.2930 C   0  0  0  0  0  3  0  0  0  0  0  0
  188.9130  175.5560  135.9010 C   0  0  2  0  0  3  0  0  0  0  0  0
  190.8990  176.8330  139.5080 C   0  0  0  0  0  0  0  0  0  0  0  0
  187.4070  173.0860  137.3450 C   0  0  0  0  0  2  0  0  0  0  0  0
  188.8660  173.1990  136.9450 C   0  0  1  0  0  3  0  0  0  0  0  0
  188.1050  171.8780  136.7560 C   0  0  2  0  0  3  0  0  0  0  0  0
  187.5720  171.6320  135.3510 C   0  0  0  0  0  2  0  0  0  0  0  0
  186.8180  170.4310  135.3290 O   0  0  0  0  0  0  0  0  0  0  0  0
  184.6620  171.5970  135.1800 C   0  0  0  0  0  3  0  0  0  0  0  0
  185.4260  170.4400  135.2440 C   0  0  0  0  0  0  0  0  0  0  0  0
  184.4260  169.0800  135.2010 S   0  0  0  0  0  0  0  0  0  0  0  0
  181.6330  169.3590  135.0230 C   0  0  0  0  0  1  0  0  0  0  0  0
  182.3240  172.3020  135.0250 O   0  0  0  0  0  1  0  0  0  0  0  0
  182.9940  169.9550  135.1000 C   0  0  0  0  0  0  0  0  0  0  0  0
  183.2940  171.3100  135.1000 C   0  0  0  0  0  0  0  0  0  0  0  0
  191.5780  177.2080  140.6710 O   0  0  0  0  0  0  0  0  0  0  0  0
  190.9710  177.1840  141.9560 C   0  0  0  0  0  1  0  0  0  0  0  0
  192.7400  173.2280  135.3430 N   0  0  0  0  0  2  0  0  0  0  0  0
  193.8490  174.0090  135.3640 O   0  0  0  0  0  1  0  0  0  0  0  0
  187.6170  176.2520  135.4620 C   0  0  1  0  0  3  0  0  0  0  0  0
  187.8990  177.6720  135.0720 C   0  0  0  0  0  0  0  0  0  0  0  0
  188.8950  177.9370  134.3470 O   0  0  0  0  0  0  0  0  0  0  0  0
  187.0890  178.7180  135.5190 O   0  0  0  0  0  0  0  0  0  0  0  0
  186.8800  178.9800  136.8990 C   0  0  0  0  0  1  0  0  0  0  0  0
  186.8740  175.5280  134.3460 C   0  0  0  0  0  2  0  0  0  0  0  0
  185.4160  175.3420  134.7130 C   0  0  0  0  0  2  0  0  0  0  0  0
  185.2040  175.7520  136.1540 C   0  0  0  0  0  2  0  0  0  0  0  0
  182.7620  175.4720  136.4120 C   0  0  0  0  0  1  0  0  0  0  0  0
  184.1170  174.8950  136.7650 C   0  0  0  0  0  2  0  0  0  0  0  0
  1  8  1  0  0  0  0
  2 11  1  0  0  0  0
  3  1  1  1  0  0  0
  3 10  1  0  0  0  0
  3 13  1  0  0  0  0
  4  2  2  0  0  0  0
  5  8  1  0  0  0  0
  5  4  1  0  0  0  0
  6  4  1  0  0  0  0
  6  9  2  0  0  0  0
  7 11  2  0  0  0  0
  8 26  1  6  0  0  0
  9  7  1  0  0  0  0
 10 28  1  1  0  0  0
 10  6  1  0  0  0  0
 11 24  1  0  0  0  0
 13 12  1  1  0  0  0
 14 15  1  6  0  0  0
 14 13  1  0  0  0  0
 14 12  1  0  0  0  0
 16 15  1  0  0  0  0
 17 18  2  0  0  0  0
 18 16  1  0  0  0  0
 19 18  1  0  0  0  0
 20 22  1  0  0  0  0
 21 23  1  0  0  0  0
 22 19  1  0  0  0  0
 23 22  2  0  0  0  0
 23 17  1  0  0  0  0
 24 25  1  0  0  0  0
 26 27  1  0  0  0  0
 28 33  1  6  0  0  0
 29 28  1  0  0  0  0
 29 31  1  0  0  0  0
 30 29  2  0  0  0  0
 31 32  1  0  0  0  0
 33 34  1  0  0  0  0
 34 35  1  0  0  0  0
 35 37  1  0  0  0  0
 36 37  1  0  0  0  0
M  END
>  <MODEL>
8

>  <REMARK>
 VINA RESULT:      -4.1      5.428      9.518
  Name = 
  13 active torsions:
  status: ('A' for Active; 'I' for Inactive)
    1  A    between atoms: C_1  and  O_12
    2  A    between atoms: C_1  and  C_36
    3  A    between atoms: O_3  and  C_32
    4  A    between atoms: C_6  and  O_31
    5  A    between atoms: C_10  and  C_14
    6  A    between atoms: C_17  and  C_26
    7  A    between atoms: C_17  and  C_33
    8  A    between atoms: N_22  and  C_24
    9  A    between atoms: C_26  and  C_34
   10  A    between atoms: C_27  and  C_37
   11  A    between atoms: C_29  and  C_36
   12  A    between atoms: O_31  and  C_37
   13  A    between atoms: C_33  and  C_36
                            x       y       z     vdW  Elec       q    Type
                         _______ _______ _______ _____ _____    ______ ____

>  <TORSDO>
F 13

$$$$
=
 OpenBabel10272414583D

 37 40  0  0  1  0  0  0  0  0999 V2000
  188.8110  176.5210  138.5090 C   0  0  0  0  0  2  0  0  0  0  0  0
  193.0260  176.0600  136.6810 C   0  0  0  0  0  3  0  0  0  0  0  0
  188.5430  176.3770  137.0060 C   0  0  2  0  0  3  0  0  0  0  0  0
  191.7300  175.6640  137.0280 C   0  0  0  0  0  0  0  0  0  0  0  0
  191.3380  175.3960  138.7590 S   0  0  0  0  0  0  0  0  0  0  0  0
  190.7580  175.4870  136.0260 C   0  0  0  0  0  0  0  0  0  0  0  0
  192.3970  176.1080  134.3460 C   0  0  0  0  0  3  0  0  0  0  0  0
  190.2650  176.8730  138.8440 C   0  0  2  0  0  3  0  0  0  0  0  0
  191.0980  175.7250  134.6890 C   0  0  0  0  0  3  0  0  0  0  0  0
  189.3360  175.1950  136.4170 C   0  0  2  0  0  3  0  0  0  0  0  0
  193.3690  176.2790  135.3440 C   0  0  0  0  0  0  0  0  0  0  0  0
  187.9010  177.8400  135.0510 C   0  0  0  0  0  2  0  0  0  0  0  0
  188.7860  177.7110  136.2760 C   0  0  1  0  0  3  0  0  0  0  0  0
  187.5910  178.6750  136.2750 C   0  0  2  0  0  3  0  0  0  0  0  0
  186.3260  178.1400  136.9340 C   0  0  0  0  0  2  0  0  0  0  0  0
  186.0250  178.9110  138.0860 O   0  0  0  0  0  0  0  0  0  0  0  0
  184.8470  178.8030  140.2380 C   0  0  0  0  0  3  0  0  0  0  0  0
  184.8910  178.6610  138.8580 C   0  0  0  0  0  0  0  0  0  0  0  0
  183.3880  178.1510  138.2790 S   0  0  0  0  0  0  0  0  0  0  0  0
  181.2430  177.7160  140.0450 C   0  0  0  0  0  1  0  0  0  0  0  0
  183.2880  178.5530  142.1070 O   0  0  0  0  0  1  0  0  0  0  0  0
  182.6570  178.1050  139.7910 C   0  0  0  0  0  0  0  0  0  0  0  0
  183.5840  178.4870  140.7510 C   0  0  0  0  0  0  0  0  0  0  0  0
  194.6750  176.6660  135.0350 O   0  0  0  0  0  0  0  0  0  0  0  0
  195.8120  175.8970  135.4060 C   0  0  0  0  0  1  0  0  0  0  0  0
  190.3590  177.5070  140.1570 N   0  0  0  0  0  2  0  0  0  0  0  0
  191.6450  177.4380  140.5840 O   0  0  0  0  0  1  0  0  0  0  0  0
  188.5730  174.1710  135.5650 C   0  0  1  0  0  3  0  0  0  0  0  0
  188.6830  172.8060  136.1760 C   0  0  0  0  0  0  0  0  0  0  0  0
  188.2690  172.6090  137.3490 O   0  0  0  0  0  0  0  0  0  0  0  0
  189.2620  171.7460  135.4740 O   0  0  0  0  0  0  0  0  0  0  0  0
  188.5430  170.5640  135.1550 C   0  0  0  0  0  1  0  0  0  0  0  0
  187.1140  174.5330  135.3220 C   0  0  0  0  0  2  0  0  0  0  0  0
  186.4260  173.4510  134.5170 C   0  0  0  0  0  2  0  0  0  0  0  0
  184.9290  173.6680  134.5580 C   0  0  0  0  0  2  0  0  0  0  0  0
  183.8320  172.9590  136.6570 C   0  0  0  0  0  1  0  0  0  0  0  0
  184.5220  174.1060  135.9480 C   0  0  0  0  0  2  0  0  0  0  0  0
  1  8  1  0  0  0  0
  2  4  1  0  0  0  0
  3  1  1  1  0  0  0
  4  5  1  0  0  0  0
  5  8  1  0  0  0  0
  6 10  1  0  0  0  0
  6  4  2  0  0  0  0
  7  9  2  0  0  0  0
  7 11  1  0  0  0  0
  8 26  1  1  0  0  0
  9  6  1  0  0  0  0
 10 28  1  6  0  0  0
 10  3  1  0  0  0  0
 11  2  2  0  0  0  0
 12 14  1  0  0  0  0
 13 12  1  6  0  0  0
 13  3  1  0  0  0  0
 14 13  1  0  0  0  0
 14 15  1  1  0  0  0
 15 16  1  0  0  0  0
 16 18  1  0  0  0  0
 17 23  1  0  0  0  0
 18 17  2  0  0  0  0
 19 18  1  0  0  0  0
 19 22  1  0  0  0  0
 22 20  1  0  0  0  0
 22 23  2  0  0  0  0
 23 21  1  0  0  0  0
 24 11  1  0  0  0  0
 24 25  1  0  0  0  0
 26 27  1  0  0  0  0
 28 33  1  1  0  0  0
 28 29  1  0  0  0  0
 29 30  2  0  0  0  0
 31 29  1  0  0  0  0
 32 31  1  0  0  0  0
 34 35  1  0  0  0  0
 34 33  1  0  0  0  0
 35 37  1  0  0  0  0
 37 36  1  0  0  0  0
M  END
>  <MODEL>
9

>  <REMARK>
 VINA RESULT:      -4.1      3.689      9.857
  Name = 
  13 active torsions:
  status: ('A' for Active; 'I' for Inactive)
    1  A    between atoms: C_1  and  O_12
    2  A    between atoms: C_1  and  C_36
    3  A    between atoms: O_3  and  C_32
    4  A    between atoms: C_6  and  O_31
    5  A    between atoms: C_10  and  C_14
    6  A    between atoms: C_17  and  C_26
    7  A    between atoms: C_17  and  C_33
    8  A    between atoms: N_22  and  C_24
    9  A    between atoms: C_26  and  C_34
   10  A    between atoms: C_27  and  C_37
   11  A    between atoms: C_29  and  C_36
   12  A    between atoms: O_31  and  C_37
   13  A    between atoms: C_33  and  C_36
                            x       y       z     vdW  Elec       q    Type
                         _______ _______ _______ _____ _____    ______ ____

>  <TORSDO>
F 13

$$$$
