=
 OpenBabel10272400403D

 25 27  0  0  1  0  0  0  0  0999 V2000
  187.0510  178.0460  145.4120 N   0  0  0  0  0  0  0  0  0  0  0  0
  188.2120  177.2590  145.1360 C   0  0  0  0  0  0  0  0  0  0  0  0
  188.3500  177.6900  148.6340 N   0  0  0  0  0  2  0  0  0  0  0  0
  188.2320  177.8170  147.3550 C   0  0  0  0  0  0  0  0  0  0  0  0
  190.4220  177.4000  146.1770 C   0  0  1  0  0  3  0  0  0  0  0  0
  191.1670  177.2050  147.3230 F   0  0  0  0  0  0  0  0  0  0  0  0
  188.7600  177.1340  143.9250 C   0  0  0  0  0  3  0  0  0  0  0  0
  187.0660  178.3890  146.7660 N   0  0  0  0  0  2  0  0  0  0  0  0
  191.0330  176.6010  145.0210 C   0  0  0  0  0  2  0  0  0  0  0  0
  190.1260  176.5070  143.7630 C   0  0  2  0  0  3  0  0  0  0  0  0
  188.9770  176.9510  146.3870 C   0  0  2  0  0  3  0  0  0  0  0  0
  185.9210  178.2620  144.5420 C   0  0  0  0  0  0  0  0  0  0  0  0
  183.7450  178.6590  142.7990 C   0  0  0  0  0  3  0  0  0  0  0  0
  184.6520  178.6320  145.0490 C   0  0  0  0  0  0  0  0  0  0  0  0
  183.5770  178.8210  144.1760 C   0  0  0  0  0  3  0  0  0  0  0  0
  184.9930  178.3020  142.2870 C   0  0  0  0  0  3  0  0  0  0  0  0
  184.4370  178.8310  146.4440 N   0  0  0  0  0  1  0  0  0  0  0  0
  186.0700  178.1060  143.1520 C   0  0  0  0  0  3  0  0  0  0  0  0
  190.7750  177.0750  142.6620 O   0  0  0  0  0  0  0  0  0  0  0  0
  190.1190  176.5630  141.5400 C   0  0  0  0  0  2  0  0  0  0  0  0
  190.8060  177.0500  140.2600 C   0  0  2  0  0  3  0  0  0  0  0  0
  192.0050  177.6820  140.5800 O   0  0  0  0  0  1  0  0  0  0  0  0
  189.9680  177.9440  139.4500 N   0  0  0  0  0  0  0  0  0  0  0  0
  189.8890  177.4210  138.0940 C   0  0  0  0  0  1  0  0  0  0  0  0
  188.6110  178.0090  139.9810 C   0  0  0  0  0  1  0  0  0  0  0  0
  1  8  1  0  0  0  0
  2  1  1  0  0  0  0
  4  3  2  0  0  0  0
  5 11  1  0  0  0  0
  5  6  1  1  0  0  0
  7  2  2  0  0  0  0
  8  4  1  0  0  0  0
  9  5  1  0  0  0  0
 10 19  1  6  0  0  0
 10  7  1  0  0  0  0
 10  9  1  0  0  0  0
 11  2  1  6  0  0  0
 11  4  1  0  0  0  0
 12 14  1  0  0  0  0
 12  1  1  0  0  0  0
 13 15  1  0  0  0  0
 14 17  1  0  0  0  0
 15 14  2  0  0  0  0
 16 13  2  0  0  0  0
 16 18  1  0  0  0  0
 18 12  2  0  0  0  0
 20 19  1  0  0  0  0
 21 22  1  1  0  0  0
 21 20  1  0  0  0  0
 23 25  1  0  0  0  0
 23 21  1  0  0  0  0
 24 23  1  0  0  0  0
M  END
>  <MODEL>
1

>  <REMARK>
 VINA RESULT:      -8.9      0.000      0.000
  Name = 
  5 active torsions:
  status: ('A' for Active; 'I' for Inactive)
    1  A    between atoms: N_1  and  C_5
    2  A    between atoms: N_2  and  C_21
    3  A    between atoms: O_6  and  C_15
    4  A    between atoms: O_6  and  C_23
    5  A    between atoms: C_15  and  C_21
                            x       y       z     vdW  Elec       q    Type
                         _______ _______ _______ _____ _____    ______ ____

>  <TORSDO>
F 5

$$$$
=
 OpenBabel10272400403D

 25 27  0  0  1  0  0  0  0  0999 V2000
  187.3300  178.0010  145.1920 N   0  0  0  0  0  0  0  0  0  0  0  0
  188.3630  177.3110  144.4840 C   0  0  0  0  0  0  0  0  0  0  0  0
  189.5200  177.2860  147.8160 N   0  0  0  0  0  2  0  0  0  0  0  0
  189.0310  177.5740  146.6570 C   0  0  0  0  0  0  0  0  0  0  0  0
  190.7800  177.4170  144.8480 C   0  0  1  0  0  3  0  0  0  0  0  0
  191.8300  177.1070  145.6900 F   0  0  0  0  0  0  0  0  0  0  0  0
  188.5310  177.3720  143.1610 C   0  0  0  0  0  3  0  0  0  0  0  0
  187.7400  178.1640  146.5170 N   0  0  0  0  0  2  0  0  0  0  0  0
  191.0290  176.8050  143.4650 C   0  0  0  0  0  2  0  0  0  0  0  0
  189.7930  176.8350  142.5240 C   0  0  2  0  0  3  0  0  0  0  0  0
  189.4630  176.8780  145.4040 C   0  0  2  0  0  3  0  0  0  0  0  0
  185.9930  178.2780  144.7260 C   0  0  0  0  0  0  0  0  0  0  0  0
  183.3960  178.7900  143.7660 C   0  0  0  0  0  3  0  0  0  0  0  0
  184.9750  178.7180  145.6060 C   0  0  0  0  0  0  0  0  0  0  0  0
  183.6880  178.9640  145.1210 C   0  0  0  0  0  3  0  0  0  0  0  0
  184.3930  178.3640  142.8880 C   0  0  0  0  0  3  0  0  0  0  0  0
  185.2300  178.9310  146.9920 N   0  0  0  0  0  1  0  0  0  0  0  0
  185.6790  178.1110  143.3660 C   0  0  0  0  0  3  0  0  0  0  0  0
  190.0870  177.5720  141.3720 O   0  0  0  0  0  0  0  0  0  0  0  0
  188.8480  177.8930  140.8110 C   0  0  0  0  0  2  0  0  0  0  0  0
  188.8480  177.5710  139.3140 C   0  0  2  0  0  3  0  0  0  0  0  0
  190.1580  177.4220  138.8640 O   0  0  0  0  0  1  0  0  0  0  0  0
  188.1470  178.5710  138.4990 N   0  0  0  0  0  0  0  0  0  0  0  0
  189.0070  178.9680  137.3930 C   0  0  0  0  0  1  0  0  0  0  0  0
  186.9230  178.0170  137.9320 C   0  0  0  0  0  1  0  0  0  0  0  0
  1  8  1  0  0  0  0
  2  1  1  0  0  0  0
  4  3  2  0  0  0  0
  5 11  1  0  0  0  0
  5  6  1  1  0  0  0
  7  2  2  0  0  0  0
  8  4  1  0  0  0  0
  9  5  1  0  0  0  0
 10 19  1  6  0  0  0
 10  7  1  0  0  0  0
 10  9  1  0  0  0  0
 11  2  1  6  0  0  0
 11  4  1  0  0  0  0
 12  1  1  0  0  0  0
 12 14  1  0  0  0  0
 13 15  1  0  0  0  0
 14 17  1  0  0  0  0
 15 14  2  0  0  0  0
 16 18  1  0  0  0  0
 16 13  2  0  0  0  0
 18 12  2  0  0  0  0
 20 19  1  0  0  0  0
 21 22  1  6  0  0  0
 21 20  1  0  0  0  0
 23 21  1  0  0  0  0
 24 23  1  0  0  0  0
 25 23  1  0  0  0  0
M  END
>  <MODEL>
2

>  <REMARK>
 VINA RESULT:      -8.9      1.274      1.456
  Name = 
  5 active torsions:
  status: ('A' for Active; 'I' for Inactive)
    1  A    between atoms: N_1  and  C_5
    2  A    between atoms: N_2  and  C_21
    3  A    between atoms: O_6  and  C_15
    4  A    between atoms: O_6  and  C_23
    5  A    between atoms: C_15  and  C_21
                            x       y       z     vdW  Elec       q    Type
                         _______ _______ _______ _____ _____    ______ ____

>  <TORSDO>
F 5

$$$$
=
 OpenBabel10272400403D

 25 27  0  0  1  0  0  0  0  0999 V2000
  187.1530  178.3120  141.8770 N   0  0  0  0  0  0  0  0  0  0  0  0
  186.7160  177.8700  143.1640 C   0  0  0  0  0  0  0  0  0  0  0  0
  183.7630  179.1270  141.7020 N   0  0  0  0  0  2  0  0  0  0  0  0
  184.9620  178.9110  142.1260 C   0  0  0  0  0  0  0  0  0  0  0  0
  185.0690  178.9110  144.6440 C   0  0  1  0  0  3  0  0  0  0  0  0
  183.7390  179.2230  144.8450 F   0  0  0  0  0  0  0  0  0  0  0  0
  187.5340  177.6370  144.1930 C   0  0  0  0  0  3  0  0  0  0  0  0
  186.0840  178.9500  141.2450 N   0  0  0  0  0  2  0  0  0  0  0  0
  185.5900  178.0870  145.8270 C   0  0  0  0  0  2  0  0  0  0  0  0
  186.9780  177.4320  145.5830 C   0  0  2  0  0  3  0  0  0  0  0  0
  185.2490  178.1090  143.3570 C   0  0  2  0  0  3  0  0  0  0  0  0
  188.3880  177.9680  141.2140 C   0  0  0  0  0  0  0  0  0  0  0  0
  190.8170  177.2740  139.9700 C   0  0  0  0  0  3  0  0  0  0  0  0
  188.4980  177.9650  139.8020 C   0  0  0  0  0  0  0  0  0  0  0  0
  189.7060  177.6140  139.1950 C   0  0  0  0  0  3  0  0  0  0  0  0
  190.7220  177.2790  141.3620 C   0  0  0  0  0  3  0  0  0  0  0  0
  187.3990  178.3270  138.9700 N   0  0  0  0  0  1  0  0  0  0  0  0
  189.5180  177.6240  141.9770 C   0  0  0  0  0  3  0  0  0  0  0  0
  187.8970  177.8970  146.5300 O   0  0  0  0  0  0  0  0  0  0  0  0
  189.1560  177.5960  146.0030 C   0  0  0  0  0  2  0  0  0  0  0  0
  190.0620  177.0200  147.0960 C   0  0  2  0  0  3  0  0  0  0  0  0
  189.9290  177.7720  148.2610 O   0  0  0  0  0  1  0  0  0  0  0  0
  191.4750  176.9440  146.7050 N   0  0  0  0  0  0  0  0  0  0  0  0
  192.0860  175.7940  147.3570 C   0  0  0  0  0  1  0  0  0  0  0  0
  191.6080  176.7600  145.2640 C   0  0  0  0  0  1  0  0  0  0  0  0
  1  2  1  0  0  0  0
  2 11  1  0  0  0  0
  2  7  2  0  0  0  0
  3  4  2  0  0  0  0
  5  6  1  1  0  0  0
  5  9  1  0  0  0  0
  7 10  1  0  0  0  0
  8  1  1  0  0  0  0
  8  4  1  0  0  0  0
 10  9  1  0  0  0  0
 10 19  1  1  0  0  0
 11  4  1  6  0  0  0
 11  5  1  0  0  0  0
 12  1  1  0  0  0  0
 12 18  1  0  0  0  0
 13 16  1  0  0  0  0
 14 12  2  0  0  0  0
 15 14  1  0  0  0  0
 15 13  2  0  0  0  0
 16 18  2  0  0  0  0
 17 14  1  0  0  0  0
 20 19  1  0  0  0  0
 20 21  1  0  0  0  0
 21 22  1  1  0  0  0
 23 21  1  0  0  0  0
 23 24  1  0  0  0  0
 25 23  1  0  0  0  0
M  END
>  <MODEL>
3

>  <REMARK>
 VINA RESULT:      -8.7      3.110      6.241
  Name = 
  5 active torsions:
  status: ('A' for Active; 'I' for Inactive)
    1  A    between atoms: N_1  and  C_5
    2  A    between atoms: N_2  and  C_21
    3  A    between atoms: O_6  and  C_15
    4  A    between atoms: O_6  and  C_23
    5  A    between atoms: C_15  and  C_21
                            x       y       z     vdW  Elec       q    Type
                         _______ _______ _______ _____ _____    ______ ____

>  <TORSDO>
F 5

$$$$
=
 OpenBabel10272400403D

 25 27  0  0  1  0  0  0  0  0999 V2000
  188.4550  177.6550  145.2010 N   0  0  0  0  0  0  0  0  0  0  0  0
  187.1860  178.2880  145.0260 C   0  0  0  0  0  0  0  0  0  0  0  0
  187.4970  178.0710  148.5320 N   0  0  0  0  0  2  0  0  0  0  0  0
  187.4830  177.8760  147.2560 C   0  0  0  0  0  0  0  0  0  0  0  0
  185.1400  177.9680  146.3310 C   0  0  1  0  0  3  0  0  0  0  0  0
  184.5120  178.1530  147.5460 F   0  0  0  0  0  0  0  0  0  0  0  0
  186.4930  178.2720  143.8840 C   0  0  0  0  0  3  0  0  0  0  0  0
  188.6350  177.4000  146.5620 N   0  0  0  0  0  2  0  0  0  0  0  0
  184.3120  178.6170  145.2160 C   0  0  0  0  0  2  0  0  0  0  0  0
  185.0530  178.7310  143.8560 C   0  0  2  0  0  3  0  0  0  0  0  0
  186.5360  178.5880  146.3420 C   0  0  2  0  0  3  0  0  0  0  0  0
  189.4970  177.5090  144.2120 C   0  0  0  0  0  0  0  0  0  0  0  0
  191.5640  177.2630  142.3170 C   0  0  0  0  0  3  0  0  0  0  0  0
  189.4570  176.4870  143.2340 C   0  0  0  0  0  0  0  0  0  0  0  0
  190.4910  176.3690  142.3020 C   0  0  0  0  0  3  0  0  0  0  0  0
  191.6110  178.2790  143.2710 C   0  0  0  0  0  3  0  0  0  0  0  0
  188.3720  175.5660  143.1650 N   0  0  0  0  0  1  0  0  0  0  0  0
  190.5850  178.4000  144.2100 C   0  0  0  0  0  3  0  0  0  0  0  0
  184.3550  178.0230  142.8710 O   0  0  0  0  0  0  0  0  0  0  0  0
  183.7410  178.9980  142.0800 C   0  0  0  0  0  2  0  0  0  0  0  0
  184.0260  178.7310  140.5990 C   0  0  2  0  0  3  0  0  0  0  0  0
  184.9600  179.6500  140.1260 O   0  0  0  0  0  1  0  0  0  0  0  0
  182.8230  178.7580  139.7570 N   0  0  0  0  0  0  0  0  0  0  0  0
  181.6480  178.8450  140.6110 C   0  0  0  0  0  1  0  0  0  0  0  0
  182.8250  179.9270  138.8840 C   0  0  0  0  0  1  0  0  0  0  0  0
  1  8  1  0  0  0  0
  2  1  1  0  0  0  0
  4  3  2  0  0  0  0
  5 11  1  0  0  0  0
  5  6  1  1  0  0  0
  7  2  2  0  0  0  0
  8  4  1  0  0  0  0
  9  5  1  0  0  0  0
 10 19  1  6  0  0  0
 10  7  1  0  0  0  0
 10  9  1  0  0  0  0
 11  2  1  6  0  0  0
 11  4  1  0  0  0  0
 12  1  1  0  0  0  0
 13 16  1  0  0  0  0
 14 12  2  0  0  0  0
 15 13  2  0  0  0  0
 15 14  1  0  0  0  0
 16 18  2  0  0  0  0
 17 14  1  0  0  0  0
 18 12  1  0  0  0  0
 20 19  1  0  0  0  0
 21 22  1  6  0  0  0
 21 20  1  0  0  0  0
 23 21  1  0  0  0  0
 23 24  1  0  0  0  0
 25 23  1  0  0  0  0
M  END
>  <MODEL>
4

>  <REMARK>
 VINA RESULT:      -8.5      3.216      5.672
  Name = 
  5 active torsions:
  status: ('A' for Active; 'I' for Inactive)
    1  A    between atoms: N_1  and  C_5
    2  A    between atoms: N_2  and  C_21
    3  A    between atoms: O_6  and  C_15
    4  A    between atoms: O_6  and  C_23
    5  A    between atoms: C_15  and  C_21
                            x       y       z     vdW  Elec       q    Type
                         _______ _______ _______ _____ _____    ______ ____

>  <TORSDO>
F 5

$$$$
=
 OpenBabel10272400403D

 25 27  0  0  1  0  0  0  0  0999 V2000
  187.2530  177.4430  144.7870 N   0  0  0  0  0  0  0  0  0  0  0  0
  186.3900  178.2970  144.0320 C   0  0  0  0  0  0  0  0  0  0  0  0
  185.0170  178.4380  147.2780 N   0  0  0  0  0  2  0  0  0  0  0  0
  185.5380  178.1000  146.1460 C   0  0  0  0  0  0  0  0  0  0  0  0
  183.9660  178.5600  144.2300 C   0  0  1  0  0  3  0  0  0  0  0  0
  182.9180  179.0120  145.0070 F   0  0  0  0  0  0  0  0  0  0  0  0
  186.3090  178.2890  142.6990 C   0  0  0  0  0  3  0  0  0  0  0  0
  186.7300  177.3200  146.0760 N   0  0  0  0  0  2  0  0  0  0  0  0
  183.9120  179.2280  142.8510 C   0  0  0  0  0  2  0  0  0  0  0  0
  185.1930  179.0260  141.9950 C   0  0  2  0  0  3  0  0  0  0  0  0
  185.3070  178.8780  144.8880 C   0  0  2  0  0  3  0  0  0  0  0  0
  188.5620  176.9720  144.4030 C   0  0  0  0  0  0  0  0  0  0  0  0
  191.0950  176.0400  143.6010 C   0  0  0  0  0  3  0  0  0  0  0  0
  189.7090  177.2450  145.1860 C   0  0  0  0  0  0  0  0  0  0  0  0
  190.9630  176.7830  144.7760 C   0  0  0  0  0  3  0  0  0  0  0  0
  189.9710  175.7590  142.8250 C   0  0  0  0  0  3  0  0  0  0  0  0
  189.6210  177.9790  146.4050 N   0  0  0  0  0  1  0  0  0  0  0  0
  188.7160  176.2210  143.2240 C   0  0  0  0  0  3  0  0  0  0  0  0
  184.8710  178.3650  140.8050 O   0  0  0  0  0  0  0  0  0  0  0  0
  183.5520  178.7300  140.5240 C   0  0  0  0  0  2  0  0  0  0  0  0
  183.4470  179.2670  139.0930 C   0  0  2  0  0  3  0  0  0  0  0  0
  184.2330  180.4100  138.9600 O   0  0  0  0  0  1  0  0  0  0  0  0
  182.0690  179.5550  138.6750 N   0  0  0  0  0  0  0  0  0  0  0  0
  181.9250  180.9890  138.4700 C   0  0  0  0  0  1  0  0  0  0  0  0
  181.7590  178.8930  137.4120 C   0  0  0  0  0  1  0  0  0  0  0  0
  1  8  1  0  0  0  0
  2  1  1  0  0  0  0
  4  3  2  0  0  0  0
  5 11  1  0  0  0  0
  5  6  1  1  0  0  0
  7  2  2  0  0  0  0
  8  4  1  0  0  0  0
  9  5  1  0  0  0  0
 10 19  1  6  0  0  0
 10  7  1  0  0  0  0
 10  9  1  0  0  0  0
 11  2  1  6  0  0  0
 11  4  1  0  0  0  0
 12  1  1  0  0  0  0
 12 14  1  0  0  0  0
 13 15  1  0  0  0  0
 14 17  1  0  0  0  0
 15 14  2  0  0  0  0
 16 18  1  0  0  0  0
 16 13  2  0  0  0  0
 18 12  2  0  0  0  0
 20 19  1  0  0  0  0
 21 22  1  1  0  0  0
 21 20  1  0  0  0  0
 23 21  1  0  0  0  0
 24 23  1  0  0  0  0
 25 23  1  0  0  0  0
M  END
>  <MODEL>
5

>  <REMARK>
 VINA RESULT:      -8.4      3.739      6.069
  Name = 
  5 active torsions:
  status: ('A' for Active; 'I' for Inactive)
    1  A    between atoms: N_1  and  C_5
    2  A    between atoms: N_2  and  C_21
    3  A    between atoms: O_6  and  C_15
    4  A    between atoms: O_6  and  C_23
    5  A    between atoms: C_15  and  C_21
                            x       y       z     vdW  Elec       q    Type
                         _______ _______ _______ _____ _____    ______ ____

>  <TORSDO>
F 5

$$$$
=
 OpenBabel10272400403D

 25 27  0  0  1  0  0  0  0  0999 V2000
  185.4220  178.7150  143.6160 N   0  0  0  0  0  0  0  0  0  0  0  0
  186.4590  177.8060  143.9940 C   0  0  0  0  0  0  0  0  0  0  0  0
  185.3300  179.0680  147.0880 N   0  0  0  0  0  2  0  0  0  0  0  0
  185.7270  178.8870  145.8730 C   0  0  0  0  0  0  0  0  0  0  0  0
  188.1020  178.0460  145.7910 C   0  0  1  0  0  3  0  0  0  0  0  0
  188.3170  178.0850  147.1540 F   0  0  0  0  0  0  0  0  0  0  0  0
  187.3960  177.3520  143.1590 C   0  0  0  0  0  3  0  0  0  0  0  0
  184.9780  179.3760  144.7630 N   0  0  0  0  0  2  0  0  0  0  0  0
  188.9690  176.9490  145.1630 C   0  0  0  0  0  2  0  0  0  0  0  0
  188.6020  176.6130  143.6910 C   0  0  2  0  0  3  0  0  0  0  0  0
  186.6340  177.7620  145.4810 C   0  0  2  0  0  3  0  0  0  0  0  0
  184.7560  178.7900  142.3380 C   0  0  0  0  0  0  0  0  0  0  0  0
  183.5070  178.9270  139.8180 C   0  0  0  0  0  3  0  0  0  0  0  0
  183.3470  178.6960  142.2270 C   0  0  0  0  0  0  0  0  0  0  0  0
  182.7380  178.7590  140.9710 C   0  0  0  0  0  3  0  0  0  0  0  0
  184.8950  179.0280  139.9150 C   0  0  0  0  0  3  0  0  0  0  0  0
  182.5190  178.5470  143.3770 N   0  0  0  0  0  1  0  0  0  0  0  0
  185.5120  178.9600  141.1650 C   0  0  0  0  0  3  0  0  0  0  0  0
  189.7020  176.8490  142.8600 O   0  0  0  0  0  0  0  0  0  0  0  0
  189.1750  176.9590  141.5700 C   0  0  0  0  0  2  0  0  0  0  0  0
  190.3010  176.8940  140.5320 C   0  0  2  0  0  3  0  0  0  0  0  0
  191.4620  177.4520  141.0620 O   0  0  0  0  0  1  0  0  0  0  0  0
  189.9640  177.5470  139.2610 N   0  0  0  0  0  0  0  0  0  0  0  0
  189.6090  176.5280  138.2840 C   0  0  0  0  0  1  0  0  0  0  0  0
  188.8140  178.4310  139.4180 C   0  0  0  0  0  1  0  0  0  0  0  0
  1  2  1  0  0  0  0
  1  8  1  0  0  0  0
  4  3  2  0  0  0  0
  5  6  1  1  0  0  0
  7 10  1  0  0  0  0
  7  2  2  0  0  0  0
  8  4  1  0  0  0  0
  9  5  1  0  0  0  0
 10 19  1  6  0  0  0
 10  9  1  0  0  0  0
 11  2  1  6  0  0  0
 11  5  1  0  0  0  0
 11  4  1  0  0  0  0
 12  1  1  0  0  0  0
 13 16  2  0  0  0  0
 13 15  1  0  0  0  0
 14 12  1  0  0  0  0
 14 17  1  0  0  0  0
 15 14  2  0  0  0  0
 16 18  1  0  0  0  0
 18 12  2  0  0  0  0
 20 19  1  0  0  0  0
 21 22  1  1  0  0  0
 21 20  1  0  0  0  0
 23 25  1  0  0  0  0
 23 21  1  0  0  0  0
 24 23  1  0  0  0  0
M  END
>  <MODEL>
6

>  <REMARK>
 VINA RESULT:      -8.4      1.658      2.365
  Name = 
  5 active torsions:
  status: ('A' for Active; 'I' for Inactive)
    1  A    between atoms: N_1  and  C_5
    2  A    between atoms: N_2  and  C_21
    3  A    between atoms: O_6  and  C_15
    4  A    between atoms: O_6  and  C_23
    5  A    between atoms: C_15  and  C_21
                            x       y       z     vdW  Elec       q    Type
                         _______ _______ _______ _____ _____    ______ ____

>  <TORSDO>
F 5

$$$$
=
 OpenBabel10272400403D

 25 27  0  0  1  0  0  0  0  0999 V2000
  188.4300  177.7130  144.8510 N   0  0  0  0  0  0  0  0  0  0  0  0
  188.8650  177.2890  143.5570 C   0  0  0  0  0  0  0  0  0  0  0  0
  191.5950  176.4620  145.6300 N   0  0  0  0  0  2  0  0  0  0  0  0
  190.5980  177.0140  145.0240 C   0  0  0  0  0  0  0  0  0  0  0  0
  191.1080  177.4300  142.5910 C   0  0  1  0  0  3  0  0  0  0  0  0
  192.4100  176.9710  142.6360 F   0  0  0  0  0  0  0  0  0  0  0  0
  188.3150  177.7010  142.4120 C   0  0  0  0  0  3  0  0  0  0  0  0
  189.4890  177.5480  145.7450 N   0  0  0  0  0  2  0  0  0  0  0  0
  190.5320  177.2150  141.1870 C   0  0  0  0  0  2  0  0  0  0  0  0
  188.9950  177.4200  141.0910 C   0  0  2  0  0  3  0  0  0  0  0  0
  190.2380  176.6930  143.6070 C   0  0  2  0  0  3  0  0  0  0  0  0
  187.0800  178.0270  145.2550 C   0  0  0  0  0  0  0  0  0  0  0  0
  184.4290  178.6270  145.9870 C   0  0  0  0  0  3  0  0  0  0  0  0
  186.7210  178.1440  146.6190 C   0  0  0  0  0  0  0  0  0  0  0  0
  185.4010  178.4370  146.9720 C   0  0  0  0  0  3  0  0  0  0  0  0
  184.7730  178.5200  144.6400 C   0  0  0  0  0  3  0  0  0  0  0  0
  187.6820  177.9820  147.6580 N   0  0  0  0  0  1  0  0  0  0  0  0
  186.0880  178.2230  144.2780 C   0  0  0  0  0  3  0  0  0  0  0  0
  188.7060  178.4460  140.1860 O   0  0  0  0  0  0  0  0  0  0  0  0
  187.8560  177.8740  139.2360 C   0  0  0  0  0  2  0  0  0  0  0  0
  188.2070  178.3890  137.8360 C   0  0  2  0  0  3  0  0  0  0  0  0
  188.9930  179.5350  137.9400 O   0  0  0  0  0  1  0  0  0  0  0  0
  187.0310  178.6610  137.0000 N   0  0  0  0  0  0  0  0  0  0  0  0
  187.2420  178.0810  135.6820 C   0  0  0  0  0  1  0  0  0  0  0  0
  185.8350  178.0470  137.5680 C   0  0  0  0  0  1  0  0  0  0  0  0
  1 12  1  0  0  0  0
  1  8  1  0  0  0  0
  2  1  1  0  0  0  0
  4  3  2  0  0  0  0
  4  8  1  0  0  0  0
  5  6  1  6  0  0  0
  5 11  1  0  0  0  0
  7  2  2  0  0  0  0
  9  5  1  0  0  0  0
 10 19  1  6  0  0  0
 10  9  1  0  0  0  0
 10  7  1  0  0  0  0
 11  2  1  6  0  0  0
 11  4  1  0  0  0  0
 12 14  1  0  0  0  0
 13 15  1  0  0  0  0
 14 15  2  0  0  0  0
 14 17  1  0  0  0  0
 16 13  2  0  0  0  0
 18 16  1  0  0  0  0
 18 12  2  0  0  0  0
 20 19  1  0  0  0  0
 21 22  1  1  0  0  0
 21 20  1  0  0  0  0
 23 25  1  0  0  0  0
 23 21  1  0  0  0  0
 24 23  1  0  0  0  0
M  END
>  <MODEL>
7

>  <REMARK>
 VINA RESULT:      -8.3      2.463      3.286
  Name = 
  5 active torsions:
  status: ('A' for Active; 'I' for Inactive)
    1  A    between atoms: N_1  and  C_5
    2  A    between atoms: N_2  and  C_21
    3  A    between atoms: O_6  and  C_15
    4  A    between atoms: O_6  and  C_23
    5  A    between atoms: C_15  and  C_21
                            x       y       z     vdW  Elec       q    Type
                         _______ _______ _______ _____ _____    ______ ____

>  <TORSDO>
F 5

$$$$
=
 OpenBabel10272400403D

 25 27  0  0  1  0  0  0  0  0999 V2000
  187.1680  177.4940  144.7650 N   0  0  0  0  0  0  0  0  0  0  0  0
  186.2660  178.2850  143.9880 C   0  0  0  0  0  0  0  0  0  0  0  0
  185.0210  178.6400  147.2680 N   0  0  0  0  0  2  0  0  0  0  0  0
  185.5000  178.2280  146.1430 C   0  0  0  0  0  0  0  0  0  0  0  0
  183.8480  178.5370  144.2640 C   0  0  1  0  0  3  0  0  0  0  0  0
  182.8270  179.0320  145.0500 F   0  0  0  0  0  0  0  0  0  0  0  0
  186.1320  178.1810  142.6630 C   0  0  0  0  0  3  0  0  0  0  0  0
  186.6990  177.4570  146.0790 N   0  0  0  0  0  2  0  0  0  0  0  0
  183.7320  179.1060  142.8460 C   0  0  0  0  0  2  0  0  0  0  0  0
  184.9800  178.8560  141.9550 C   0  0  2  0  0  3  0  0  0  0  0  0
  185.2100  178.9140  144.8440 C   0  0  2  0  0  3  0  0  0  0  0  0
  188.4670  177.0090  144.3630 C   0  0  0  0  0  0  0  0  0  0  0  0
  190.9780  176.0510  143.5260 C   0  0  0  0  0  3  0  0  0  0  0  0
  189.6330  177.2990  145.1120 C   0  0  0  0  0  0  0  0  0  0  0  0
  190.8760  176.8230  144.6850 C   0  0  0  0  0  3  0  0  0  0  0  0
  189.8360  175.7540  142.7830 C   0  0  0  0  0  3  0  0  0  0  0  0
  189.5750  178.0630  146.3140 N   0  0  0  0  0  1  0  0  0  0  0  0
  188.5920  176.2300  143.2000 C   0  0  0  0  0  3  0  0  0  0  0  0
  184.6200  178.1100  140.8280 O   0  0  0  0  0  0  0  0  0  0  0  0
  185.0370  178.8710  139.7320 C   0  0  0  0  0  2  0  0  0  0  0  0
  186.0130  178.0630  138.8700 C   0  0  2  0  0  3  0  0  0  0  0  0
  187.2690  178.6660  138.8910 O   0  0  0  0  0  1  0  0  0  0  0  0
  185.5630  177.8870  137.4840 N   0  0  0  0  0  0  0  0  0  0  0  0
  186.3080  176.7930  136.8790 C   0  0  0  0  0  1  0  0  0  0  0  0
  184.1470  177.5400  137.4360 C   0  0  0  0  0  1  0  0  0  0  0  0
  1  8  1  0  0  0  0
  2  1  1  0  0  0  0
  4  3  2  0  0  0  0
  5 11  1  0  0  0  0
  5  6  1  1  0  0  0
  7  2  2  0  0  0  0
  8  4  1  0  0  0  0
  9  5  1  0  0  0  0
 10 19  1  6  0  0  0
 10  7  1  0  0  0  0
 10  9  1  0  0  0  0
 11  2  1  6  0  0  0
 11  4  1  0  0  0  0
 12  1  1  0  0  0  0
 12 14  1  0  0  0  0
 13 15  1  0  0  0  0
 14 17  1  0  0  0  0
 15 14  2  0  0  0  0
 16 18  1  0  0  0  0
 16 13  2  0  0  0  0
 18 12  2  0  0  0  0
 20 19  1  0  0  0  0
 21 22  1  6  0  0  0
 21 20  1  0  0  0  0
 23 21  1  0  0  0  0
 24 23  1  0  0  0  0
 25 23  1  0  0  0  0
M  END
>  <MODEL>
8

>  <REMARK>
 VINA RESULT:      -8.2      3.123      5.290
  Name = 
  5 active torsions:
  status: ('A' for Active; 'I' for Inactive)
    1  A    between atoms: N_1  and  C_5
    2  A    between atoms: N_2  and  C_21
    3  A    between atoms: O_6  and  C_15
    4  A    between atoms: O_6  and  C_23
    5  A    between atoms: C_15  and  C_21
                            x       y       z     vdW  Elec       q    Type
                         _______ _______ _______ _____ _____    ______ ____

>  <TORSDO>
F 5

$$$$
=
 OpenBabel10272400403D

 25 27  0  0  1  0  0  0  0  0999 V2000
  187.4520  177.5370  144.9790 N   0  0  0  0  0  0  0  0  0  0  0  0
  186.7730  178.3460  144.0170 C   0  0  0  0  0  0  0  0  0  0  0  0
  184.5620  178.3440  146.7640 N   0  0  0  0  0  2  0  0  0  0  0  0
  185.3920  178.0590  145.8180 C   0  0  0  0  0  0  0  0  0  0  0  0
  184.3740  178.4490  143.5450 C   0  0  1  0  0  3  0  0  0  0  0  0
  183.1270  178.8190  144.0070 F   0  0  0  0  0  0  0  0  0  0  0  0
  187.0580  178.3550  142.7120 C   0  0  0  0  0  3  0  0  0  0  0  0
  186.6070  177.3590  146.0770 N   0  0  0  0  0  2  0  0  0  0  0  0
  184.6540  179.1360  142.2030 C   0  0  0  0  0  2  0  0  0  0  0  0
  186.1290  179.0300  141.7300 C   0  0  2  0  0  3  0  0  0  0  0  0
  185.4610  178.8420  144.5440 C   0  0  2  0  0  3  0  0  0  0  0  0
  188.8440  177.1570  144.9680 C   0  0  0  0  0  0  0  0  0  0  0  0
  191.5580  176.4110  144.8880 C   0  0  0  0  0  3  0  0  0  0  0  0
  189.6790  177.3590  146.0940 C   0  0  0  0  0  0  0  0  0  0  0  0
  191.0260  176.9910  146.0420 C   0  0  0  0  0  3  0  0  0  0  0  0
  190.7440  176.2010  143.7750 C   0  0  0  0  0  3  0  0  0  0  0  0
  189.1760  177.9260  147.3010 N   0  0  0  0  0  1  0  0  0  0  0  0
  189.3990  176.5710  143.8170 C   0  0  0  0  0  3  0  0  0  0  0  0
  186.1890  178.3700  140.4980 O   0  0  0  0  0  0  0  0  0  0  0  0
  187.5460  178.1200  140.2770 C   0  0  0  0  0  2  0  0  0  0  0  0
  187.8240  178.0090  138.7740 C   0  0  2  0  0  3  0  0  0  0  0  0
  187.7230  176.6780  138.3740 O   0  0  0  0  0  1  0  0  0  0  0  0
  189.1280  178.5550  138.3780 N   0  0  0  0  0  0  0  0  0  0  0  0
  190.0790  177.4610  138.2420 C   0  0  0  0  0  1  0  0  0  0  0  0
  189.0400  179.2290  137.0870 C   0  0  0  0  0  1  0  0  0  0  0  0
  1  8  1  0  0  0  0
  2  1  1  0  0  0  0
  4  8  1  0  0  0  0
  4  3  2  0  0  0  0
  5  6  1  1  0  0  0
  5 11  1  0  0  0  0
  7  2  2  0  0  0  0
  9  5  1  0  0  0  0
 10 19  1  6  0  0  0
 10  9  1  0  0  0  0
 10  7  1  0  0  0  0
 11  2  1  6  0  0  0
 11  4  1  0  0  0  0
 12  1  1  0  0  0  0
 12 14  1  0  0  0  0
 13 15  1  0  0  0  0
 14 17  1  0  0  0  0
 15 14  2  0  0  0  0
 16 18  1  0  0  0  0
 16 13  2  0  0  0  0
 18 12  2  0  0  0  0
 20 19  1  0  0  0  0
 21 22  1  1  0  0  0
 21 20  1  0  0  0  0
 23 21  1  0  0  0  0
 24 23  1  0  0  0  0
 25 23  1  0  0  0  0
M  END
>  <MODEL>
9

>  <REMARK>
 VINA RESULT:      -7.9      2.544      4.899
  Name = 
  5 active torsions:
  status: ('A' for Active; 'I' for Inactive)
    1  A    between atoms: N_1  and  C_5
    2  A    between atoms: N_2  and  C_21
    3  A    between atoms: O_6  and  C_15
    4  A    between atoms: O_6  and  C_23
    5  A    between atoms: C_15  and  C_21
                            x       y       z     vdW  Elec       q    Type
                         _______ _______ _______ _____ _____    ______ ____

>  <TORSDO>
F 5

$$$$
