=
 OpenBabel10272400203D

 31 35  0  0  1  0  0  0  0  0999 V2000
  190.5940  177.1480  140.5640 C   0  0  1  0  0  3  0  0  0  0  0  0
  188.5860  177.4840  143.7470 C   0  0  0  0  0  0  0  0  0  0  0  0
  189.5070  177.1500  144.7840 C   0  0  0  0  0  0  0  0  0  0  0  0
  182.7350  178.9830  143.0970 O   0  0  0  0  0  0  0  0  0  0  0  0
  183.8680  178.7640  142.5900 C   0  0  0  0  0  0  0  0  0  0  0  0
  191.7340  176.5160  145.5600 C   0  0  0  0  0  3  0  0  0  0  0  0
  188.9430  177.5310  142.3750 C   0  0  0  0  0  0  0  0  0  0  0  0
  189.8020  178.1520  139.7380 C   0  0  0  0  0  2  0  0  0  0  0  0
  190.8540  176.8400  144.5250 C   0  0  0  0  0  3  0  0  0  0  0  0
  186.3070  178.1120  143.1040 C   0  0  0  0  0  0  0  0  0  0  0  0
  192.0780  177.3880  140.3850 C   0  0  0  0  0  1  0  0  0  0  0  0
  187.7430  177.4210  146.4480 C   0  0  0  0  0  3  0  0  0  0  0  0
  192.3850  176.0920  148.1760 Cl  0  0  0  0  0  0  0  0  0  0  0  0
  186.7000  178.1480  141.8050 N   0  0  0  0  0  0  0  0  0  0  0  0
  187.2410  177.7810  144.1010 C   0  0  0  0  0  0  0  0  0  0  0  0
  184.9460  178.4070  143.4650 N   0  0  0  0  0  2  0  0  0  0  0  0
  190.2530  177.2670  141.9440 O   0  0  0  0  0  0  0  0  0  0  0  0
  191.2820  176.4970  146.8790 C   0  0  0  0  0  0  0  0  0  0  0  0
  187.9710  177.8830  141.4200 C   0  0  0  0  0  0  0  0  0  0  0  0
  188.3130  177.9100  139.9590 C   0  0  0  0  0  2  0  0  0  0  0  0
  186.8410  177.7460  145.4420 C   0  0  0  0  0  3  0  0  0  0  0  0
  189.0650  177.1250  146.1340 C   0  0  0  0  0  0  0  0  0  0  0  0
  189.9510  176.8000  147.1650 C   0  0  0  0  0  3  0  0  0  0  0  0
  184.0650  178.8780  141.1320 C   0  0  0  0  0  3  0  0  0  0  0  0
  182.7190  176.9100  138.1380 C   0  0  0  0  0  2  0  0  0  0  0  0
  182.6340  177.0210  140.5110 N   0  0  0  0  0  0  0  0  0  0  0  0
  183.8240  178.3290  138.4720 S   0  0  0  0  0  0  0  0  0  0  0  0
  183.5090  178.0930  140.2070 C   0  0  0  0  0  0  0  0  0  0  0  0
  182.2230  176.4060  139.4540 C   0  0  0  0  0  0  0  0  0  0  0  0
  181.3520  175.3180  139.5250 O   0  0  0  0  0  0  0  0  0  0  0  0
  180.8430  174.6820  138.3620 C   0  0  0  0  0  1  0  0  0  0  0  0
  1 11  1  1  0  0  0
  1 17  1  0  0  0  0
  2 15  2  0  0  0  0
  2  3  1  0  0  0  0
  3 22  1  0  0  0  0
  5  4  2  0  0  0  0
  5 16  1  0  0  0  0
  6 18  2  0  0  0  0
  7  2  1  0  0  0  0
  8 20  1  0  0  0  0
  8  1  1  0  0  0  0
  9  3  2  0  0  0  0
  9  6  1  0  0  0  0
 10 16  1  0  0  0  0
 10 15  1  0  0  0  0
 14 10  2  0  0  0  0
 15 21  1  0  0  0  0
 17  7  1  0  0  0  0
 18 23  1  0  0  0  0
 18 13  1  0  0  0  0
 19 14  1  0  0  0  0
 19  7  2  0  0  0  0
 20 19  1  0  0  0  0
 21 12  2  0  0  0  0
 22 12  1  0  0  0  0
 22 23  2  0  0  0  0
 24  5  1  0  0  0  0
 25 27  1  0  0  0  0
 25 29  1  0  0  0  0
 27 28  1  0  0  0  0
 28 26  1  0  0  0  0
 28 24  2  0  0  0  0
 29 30  1  0  0  0  0
 29 26  2  0  0  0  0
 31 30  1  0  0  0  0
M  END
>  <MODEL>
1

>  <REMARK>
 VINA RESULT:     -10.9      0.000      0.000
  Name = 
  2 active torsions:
  status: ('A' for Active; 'I' for Inactive)
    1  A    between atoms: O_1  and  C_24
    2  A    between atoms: C_3  and  C_9
                            x       y       z     vdW  Elec       q    Type
                         _______ _______ _______ _____ _____    ______ ____

>  <TORSDO>
F 2

$$$$
=
 OpenBabel10272400203D

 31 35  0  0  1  0  0  0  0  0999 V2000
  185.4190  178.8270  145.3740 C   0  0  1  0  0  3  0  0  0  0  0  0
  188.5150  177.5900  143.5960 C   0  0  0  0  0  0  0  0  0  0  0  0
  189.4100  177.2340  144.6480 C   0  0  0  0  0  0  0  0  0  0  0  0
  188.4110  177.8270  137.5260 O   0  0  0  0  0  0  0  0  0  0  0  0
  187.8350  177.9930  138.6340 C   0  0  0  0  0  0  0  0  0  0  0  0
  189.9490  176.9700  147.0140 C   0  0  0  0  0  3  0  0  0  0  0  0
  187.1980  178.0650  143.8220 C   0  0  0  0  0  0  0  0  0  0  0  0
  184.4230  178.4780  144.2780 C   0  0  0  0  0  2  0  0  0  0  0  0
  189.0520  177.3250  146.0040 C   0  0  0  0  0  3  0  0  0  0  0  0
  188.1070  177.8120  141.1900 C   0  0  0  0  0  0  0  0  0  0  0  0
  184.8890  178.3730  146.7180 C   0  0  0  0  0  1  0  0  0  0  0  0
  191.1220  176.6580  143.0070 C   0  0  0  0  0  3  0  0  0  0  0  0
  192.3480  176.0670  147.9510 Cl  0  0  0  0  0  0  0  0  0  0  0  0
  186.8530  178.2580  141.4590 N   0  0  0  0  0  0  0  0  0  0  0  0
  188.9620  177.4680  142.2510 C   0  0  0  0  0  0  0  0  0  0  0  0
  188.5640  177.6930  139.8320 N   0  0  0  0  0  2  0  0  0  0  0  0
  186.6740  178.2000  145.1180 O   0  0  0  0  0  0  0  0  0  0  0  0
  191.2250  176.5130  146.6860 C   0  0  0  0  0  0  0  0  0  0  0  0
  186.3790  178.3810  142.7220 C   0  0  0  0  0  0  0  0  0  0  0  0
  184.9920  178.9160  142.9330 C   0  0  0  0  0  2  0  0  0  0  0  0
  190.2550  177.0050  141.9770 C   0  0  0  0  0  3  0  0  0  0  0  0
  190.7140  176.7670  144.3310 C   0  0  0  0  0  0  0  0  0  0  0  0
  191.6060  176.4120  145.3480 C   0  0  0  0  0  3  0  0  0  0  0  0
  186.4430  178.4820  138.6830 C   0  0  0  0  0  3  0  0  0  0  0  0
  183.1030  177.0200  137.5200 C   0  0  0  0  0  2  0  0  0  0  0  0
  185.4330  176.5560  137.6110 N   0  0  0  0  0  0  0  0  0  0  0  0
  183.7390  178.5270  138.3370 S   0  0  0  0  0  0  0  0  0  0  0  0
  185.3730  177.8320  138.2220 C   0  0  0  0  0  0  0  0  0  0  0  0
  184.2710  176.1290  137.2460 C   0  0  0  0  0  0  0  0  0  0  0  0
  184.1010  174.8910  136.6230 O   0  0  0  0  0  0  0  0  0  0  0  0
  184.4020  173.6690  137.2790 C   0  0  0  0  0  1  0  0  0  0  0  0
  1 11  1  1  0  0  0
  2  7  1  0  0  0  0
  2  3  1  0  0  0  0
  3  9  1  0  0  0  0
  4  5  2  0  0  0  0
  5 24  1  0  0  0  0
  5 16  1  0  0  0  0
  7 17  1  0  0  0  0
  8  1  1  0  0  0  0
  9  6  2  0  0  0  0
 10 14  2  0  0  0  0
 10 15  1  0  0  0  0
 12 22  1  0  0  0  0
 14 19  1  0  0  0  0
 15  2  2  0  0  0  0
 16 10  1  0  0  0  0
 17  1  1  0  0  0  0
 18  6  1  0  0  0  0
 18 13  1  0  0  0  0
 19 20  1  0  0  0  0
 19  7  2  0  0  0  0
 20  8  1  0  0  0  0
 21 15  1  0  0  0  0
 21 12  2  0  0  0  0
 22  3  2  0  0  0  0
 22 23  1  0  0  0  0
 23 18  2  0  0  0  0
 25 27  1  0  0  0  0
 26 28  1  0  0  0  0
 28 27  1  0  0  0  0
 28 24  2  0  0  0  0
 29 25  1  0  0  0  0
 29 26  2  0  0  0  0
 30 29  1  0  0  0  0
 30 31  1  0  0  0  0
M  END
>  <MODEL>
2

>  <REMARK>
 VINA RESULT:     -10.4      2.097      4.154
  Name = 
  2 active torsions:
  status: ('A' for Active; 'I' for Inactive)
    1  A    between atoms: O_1  and  C_24
    2  A    between atoms: C_3  and  C_9
                            x       y       z     vdW  Elec       q    Type
                         _______ _______ _______ _____ _____    ______ ____

>  <TORSDO>
F 2

$$$$
=
 OpenBabel10272400203D

 31 35  0  0  1  0  0  0  0  0999 V2000
  183.6770  179.1350  142.6770 C   0  0  1  0  0  3  0  0  0  0  0  0
  187.2750  178.0780  143.1380 C   0  0  0  0  0  0  0  0  0  0  0  0
  187.4420  177.9960  144.5520 C   0  0  0  0  0  0  0  0  0  0  0  0
  190.5660  177.4380  138.0720 O   0  0  0  0  0  0  0  0  0  0  0  0
  189.4650  177.6810  138.6340 C   0  0  0  0  0  0  0  0  0  0  0  0
  186.5780  178.1440  146.8310 C   0  0  0  0  0  3  0  0  0  0  0  0
  186.0420  178.4030  142.5180 C   0  0  0  0  0  0  0  0  0  0  0  0
  183.4730  178.5060  141.3060 C   0  0  0  0  0  2  0  0  0  0  0  0
  186.3860  178.2310  145.4500 C   0  0  0  0  0  3  0  0  0  0  0  0
  188.2710  177.9020  140.9060 C   0  0  0  0  0  0  0  0  0  0  0  0
  182.5020  178.8100  143.5750 C   0  0  0  0  0  1  0  0  0  0  0  0
  189.7950  177.4250  144.2490 C   0  0  0  0  0  3  0  0  0  0  0  0
  188.0740  177.7070  149.0710 Cl  0  0  0  0  0  0  0  0  0  0  0  0
  187.0670  178.2120  140.3610 N   0  0  0  0  0  0  0  0  0  0  0  0
  188.4000  177.8270  142.3040 C   0  0  0  0  0  0  0  0  0  0  0  0
  189.4120  177.6530  140.0660 N   0  0  0  0  0  2  0  0  0  0  0  0
  184.8810  178.6490  143.2680 O   0  0  0  0  0  0  0  0  0  0  0  0
  187.8340  177.8170  147.3420 C   0  0  0  0  0  0  0  0  0  0  0  0
  185.9660  178.4490  141.1140 C   0  0  0  0  0  0  0  0  0  0  0  0
  184.6810  178.8210  140.4310 C   0  0  0  0  0  2  0  0  0  0  0  0
  189.6390  177.5050  142.8700 C   0  0  0  0  0  3  0  0  0  0  0  0
  188.7150  177.6660  145.0900 C   0  0  0  0  0  0  0  0  0  0  0  0
  188.8990  177.5790  146.4730 C   0  0  0  0  0  3  0  0  0  0  0  0
  188.2680  177.9840  137.8250 C   0  0  0  0  0  3  0  0  0  0  0  0
  185.5590  175.8060  136.2240 C   0  0  0  0  0  2  0  0  0  0  0  0
  187.5410  175.6900  137.5320 N   0  0  0  0  0  0  0  0  0  0  0  0
  185.9990  177.5750  136.3690 S   0  0  0  0  0  0  0  0  0  0  0  0
  187.4110  177.0860  137.3350 C   0  0  0  0  0  0  0  0  0  0  0  0
  186.5940  175.0220  136.9640 C   0  0  0  0  0  0  0  0  0  0  0  0
  186.5270  173.6290  137.0340 O   0  0  0  0  0  0  0  0  0  0  0  0
  185.4310  172.9550  137.6320 C   0  0  0  0  0  1  0  0  0  0  0  0
  1 17  1  0  0  0  0
  1 11  1  1  0  0  0
  2  3  1  0  0  0  0
  3 22  2  0  0  0  0
  3  9  1  0  0  0  0
  4  5  2  0  0  0  0
  5 16  1  0  0  0  0
  6 18  1  0  0  0  0
  7  2  1  0  0  0  0
  7 17  1  0  0  0  0
  8  1  1  0  0  0  0
  9  6  2  0  0  0  0
 10 15  1  0  0  0  0
 12 22  1  0  0  0  0
 14 10  2  0  0  0  0
 14 19  1  0  0  0  0
 15 21  1  0  0  0  0
 15  2  2  0  0  0  0
 16 10  1  0  0  0  0
 18 13  1  0  0  0  0
 19  7  2  0  0  0  0
 20 19  1  0  0  0  0
 20  8  1  0  0  0  0
 21 12  2  0  0  0  0
 22 23  1  0  0  0  0
 23 18  2  0  0  0  0
 24  5  1  0  0  0  0
 25 27  1  0  0  0  0
 25 29  1  0  0  0  0
 27 28  1  0  0  0  0
 28 26  1  0  0  0  0
 28 24  2  0  0  0  0
 29 30  1  0  0  0  0
 29 26  2  0  0  0  0
 30 31  1  0  0  0  0
M  END
>  <MODEL>
3

>  <REMARK>
 VINA RESULT:     -10.3      2.627      4.987
  Name = 
  2 active torsions:
  status: ('A' for Active; 'I' for Inactive)
    1  A    between atoms: O_1  and  C_24
    2  A    between atoms: C_3  and  C_9
                            x       y       z     vdW  Elec       q    Type
                         _______ _______ _______ _____ _____    ______ ____

>  <TORSDO>
F 2

$$$$
=
 OpenBabel10272400203D

 31 35  0  0  1  0  0  0  0  0999 V2000
  190.6200  176.8780  141.6440 C   0  0  1  0  0  3  0  0  0  0  0  0
  187.2940  178.0130  143.0320 C   0  0  0  0  0  0  0  0  0  0  0  0
  187.4500  177.9220  144.4470 C   0  0  0  0  0  0  0  0  0  0  0  0
  183.0130  179.4210  138.9570 O   0  0  0  0  0  0  0  0  0  0  0  0
  184.1920  179.0640  139.2210 C   0  0  0  0  0  0  0  0  0  0  0  0
  188.7860  177.4530  146.4360 C   0  0  0  0  0  3  0  0  0  0  0  0
  188.3340  177.7200  142.1130 C   0  0  0  0  0  0  0  0  0  0  0  0
  190.5570  177.6660  140.3440 C   0  0  0  0  0  2  0  0  0  0  0  0
  188.6610  177.5330  145.0470 C   0  0  0  0  0  3  0  0  0  0  0  0
  185.8430  178.5100  141.1210 C   0  0  0  0  0  0  0  0  0  0  0  0
  191.9840  177.0390  142.2810 C   0  0  0  0  0  1  0  0  0  0  0  0
  185.1330  178.6220  144.7560 C   0  0  0  0  0  3  0  0  0  0  0  0
  187.8570  177.6640  148.9930 Cl  0  0  0  0  0  0  0  0  0  0  0  0
  186.8720  178.2230  140.2840 N   0  0  0  0  0  0  0  0  0  0  0  0
  186.0320  178.4130  142.5110 C   0  0  0  0  0  0  0  0  0  0  0  0
  184.5640  178.9090  140.5980 N   0  0  0  0  0  2  0  0  0  0  0  0
  189.6130  177.3340  142.5460 O   0  0  0  0  0  0  0  0  0  0  0  0
  187.7000  177.7630  147.2530 C   0  0  0  0  0  0  0  0  0  0  0  0
  188.0940  177.8480  140.7330 C   0  0  0  0  0  0  0  0  0  0  0  0
  189.1670  177.5140  139.7370 C   0  0  0  0  0  2  0  0  0  0  0  0
  184.9740  178.7110  143.3780 C   0  0  0  0  0  3  0  0  0  0  0  0
  186.3540  178.2340  145.2950 C   0  0  0  0  0  0  0  0  0  0  0  0
  186.4870  178.1520  146.6840 C   0  0  0  0  0  3  0  0  0  0  0  0
  185.1570  178.8170  138.1310 C   0  0  0  0  0  3  0  0  0  0  0  0
  185.9590  175.7590  135.9760 C   0  0  0  0  0  2  0  0  0  0  0  0
  184.5480  176.5040  137.7390 N   0  0  0  0  0  0  0  0  0  0  0  0
  186.5110  177.4910  136.1730 S   0  0  0  0  0  0  0  0  0  0  0  0
  185.3100  177.6670  137.4730 C   0  0  0  0  0  0  0  0  0  0  0  0
  184.8750  175.5160  136.9750 C   0  0  0  0  0  0  0  0  0  0  0  0
  184.2480  174.2720  137.0680 O   0  0  0  0  0  0  0  0  0  0  0  0
  184.8560  173.1680  137.7210 C   0  0  0  0  0  1  0  0  0  0  0  0
  1 11  1  1  0  0  0
  1 17  1  0  0  0  0
  2  3  1  0  0  0  0
  3  9  2  0  0  0  0
  3 22  1  0  0  0  0
  4  5  2  0  0  0  0
  5 16  1  0  0  0  0
  6 18  2  0  0  0  0
  7 17  1  0  0  0  0
  7  2  1  0  0  0  0
  8  1  1  0  0  0  0
  9  6  1  0  0  0  0
 10 15  1  0  0  0  0
 12 22  1  0  0  0  0
 14 19  1  0  0  0  0
 14 10  2  0  0  0  0
 15  2  2  0  0  0  0
 15 21  1  0  0  0  0
 16 10  1  0  0  0  0
 18 13  1  0  0  0  0
 19  7  2  0  0  0  0
 20  8  1  0  0  0  0
 20 19  1  0  0  0  0
 21 12  2  0  0  0  0
 22 23  2  0  0  0  0
 23 18  1  0  0  0  0
 24  5  1  0  0  0  0
 25 27  1  0  0  0  0
 25 29  1  0  0  0  0
 27 28  1  0  0  0  0
 28 26  1  0  0  0  0
 28 24  2  0  0  0  0
 29 30  1  0  0  0  0
 29 26  2  0  0  0  0
 30 31  1  0  0  0  0
M  END
>  <MODEL>
4

>  <REMARK>
 VINA RESULT:     -10.1      2.371      2.967
  Name = 
  2 active torsions:
  status: ('A' for Active; 'I' for Inactive)
    1  A    between atoms: O_1  and  C_24
    2  A    between atoms: C_3  and  C_9
                            x       y       z     vdW  Elec       q    Type
                         _______ _______ _______ _____ _____    ______ ____

>  <TORSDO>
F 2

$$$$
=
 OpenBabel10272400203D

 31 35  0  0  1  0  0  0  0  0999 V2000
  184.9410  179.0150  141.8100 C   0  0  1  0  0  3  0  0  0  0  0  0
  188.2760  177.7110  143.0150 C   0  0  0  0  0  0  0  0  0  0  0  0
  188.1540  177.6860  144.4360 C   0  0  0  0  0  0  0  0  0  0  0  0
  192.4320  176.5760  138.7320 O   0  0  0  0  0  0  0  0  0  0  0  0
  191.2660  176.9290  139.0540 C   0  0  0  0  0  0  0  0  0  0  0  0
  186.8750  178.0090  146.4900 C   0  0  0  0  0  3  0  0  0  0  0  0
  187.2200  178.0980  142.1500 C   0  0  0  0  0  0  0  0  0  0  0  0
  184.9580  178.3370  140.4480 C   0  0  0  0  0  2  0  0  0  0  0  0
  186.9660  178.0440  145.0970 C   0  0  0  0  0  3  0  0  0  0  0  0
  189.6720  177.3510  141.0340 C   0  0  0  0  0  0  0  0  0  0  0  0
  183.5890  178.8250  142.4650 C   0  0  0  0  0  1  0  0  0  0  0  0
  190.4640  176.9230  144.6280 C   0  0  0  0  0  3  0  0  0  0  0  0
  187.8590  177.5700  148.9970 Cl  0  0  0  0  0  0  0  0  0  0  0  0
  188.6290  177.7250  140.2490 N   0  0  0  0  0  0  0  0  0  0  0  0
  189.5170  177.3350  142.4310 C   0  0  0  0  0  0  0  0  0  0  0  0
  190.9300  176.9750  140.4480 N   0  0  0  0  0  2  0  0  0  0  0  0
  185.9590  178.4680  142.6450 O   0  0  0  0  0  0  0  0  0  0  0  0
  187.9740  177.6140  147.2520 C   0  0  0  0  0  0  0  0  0  0  0  0
  187.4250  178.0810  140.7580 C   0  0  0  0  0  0  0  0  0  0  0  0
  186.3360  178.5160  139.8210 C   0  0  0  0  0  2  0  0  0  0  0  0
  190.5890  176.9470  143.2430 C   0  0  0  0  0  3  0  0  0  0  0  0
  189.2640  177.2860  145.2280 C   0  0  0  0  0  0  0  0  0  0  0  0
  189.1650  177.2530  146.6220 C   0  0  0  0  0  3  0  0  0  0  0  0
  190.2820  177.2830  138.0130 C   0  0  0  0  0  3  0  0  0  0  0  0
  188.0350  175.2100  135.7110 C   0  0  0  0  0  2  0  0  0  0  0  0
  189.6670  175.0110  137.4280 N   0  0  0  0  0  0  0  0  0  0  0  0
  188.4090  176.9660  136.0570 S   0  0  0  0  0  0  0  0  0  0  0  0
  189.5700  176.4170  137.2890 C   0  0  0  0  0  0  0  0  0  0  0  0
  188.8820  174.3810  136.6210 C   0  0  0  0  0  0  0  0  0  0  0  0
  188.8180  172.9870  136.5910 O   0  0  0  0  0  0  0  0  0  0  0  0
  187.6490  172.2770  136.9710 C   0  0  0  0  0  1  0  0  0  0  0  0
  1 11  1  1  0  0  0
  1 17  1  0  0  0  0
  2  3  1  0  0  0  0
  3  9  2  0  0  0  0
  3 22  1  0  0  0  0
  4  5  2  0  0  0  0
  5 16  1  0  0  0  0
  6 18  2  0  0  0  0
  7 17  1  0  0  0  0
  7  2  1  0  0  0  0
  8  1  1  0  0  0  0
  9  6  1  0  0  0  0
 10 15  1  0  0  0  0
 12 22  1  0  0  0  0
 14 19  1  0  0  0  0
 14 10  2  0  0  0  0
 15  2  2  0  0  0  0
 15 21  1  0  0  0  0
 16 10  1  0  0  0  0
 18 13  1  0  0  0  0
 19  7  2  0  0  0  0
 20  8  1  0  0  0  0
 20 19  1  0  0  0  0
 21 12  2  0  0  0  0
 22 23  2  0  0  0  0
 23 18  1  0  0  0  0
 24  5  1  0  0  0  0
 25 27  1  0  0  0  0
 25 29  1  0  0  0  0
 27 28  1  0  0  0  0
 28 26  1  0  0  0  0
 28 24  2  0  0  0  0
 29 26  2  0  0  0  0
 30 29  1  0  0  0  0
 30 31  1  0  0  0  0
M  END
>  <MODEL>
5

>  <REMARK>
 VINA RESULT:      -9.9      3.189      5.559
  Name = 
  2 active torsions:
  status: ('A' for Active; 'I' for Inactive)
    1  A    between atoms: O_1  and  C_24
    2  A    between atoms: C_3  and  C_9
                            x       y       z     vdW  Elec       q    Type
                         _______ _______ _______ _____ _____    ______ ____

>  <TORSDO>
F 2

$$$$
=
 OpenBabel10272400203D

 31 35  0  0  1  0  0  0  0  0999 V2000
  191.1410  176.5000  143.7410 C   0  0  1  0  0  3  0  0  0  0  0  0
  187.8860  177.8710  142.3990 C   0  0  0  0  0  0  0  0  0  0  0  0
  187.0460  177.9760  143.5460 C   0  0  0  0  0  0  0  0  0  0  0  0
  187.6130  178.7690  136.3970 O   0  0  0  0  0  0  0  0  0  0  0  0
  188.2660  178.4340  137.4210 C   0  0  0  0  0  0  0  0  0  0  0  0
  186.6480  177.7660  145.9460 C   0  0  0  0  0  3  0  0  0  0  0  0
  189.2350  177.4360  142.4590 C   0  0  0  0  0  0  0  0  0  0  0  0
  192.0490  177.1010  142.6780 C   0  0  0  0  0  2  0  0  0  0  0  0
  187.4930  177.6550  144.8400 C   0  0  0  0  0  3  0  0  0  0  0  0
  188.1500  178.1220  139.9760 C   0  0  0  0  0  0  0  0  0  0  0  0
  191.7360  176.7260  145.1150 C   0  0  0  0  0  1  0  0  0  0  0  0
  185.2080  178.7500  142.1390 C   0  0  0  0  0  3  0  0  0  0  0  0
  184.2760  178.3450  147.1650 Cl  0  0  0  0  0  0  0  0  0  0  0  0
  189.4370  177.7040  140.0870 N   0  0  0  0  0  0  0  0  0  0  0  0
  187.3490  178.2160  141.1280 C   0  0  0  0  0  0  0  0  0  0  0  0
  187.6010  178.4660  138.6910 N   0  0  0  0  0  2  0  0  0  0  0  0
  189.8460  177.0930  143.6770 O   0  0  0  0  0  0  0  0  0  0  0  0
  185.3340  178.2040  145.7790 C   0  0  0  0  0  0  0  0  0  0  0  0
  189.9950  177.3760  141.2770 C   0  0  0  0  0  0  0  0  0  0  0  0
  191.4150  176.8890  141.3070 C   0  0  0  0  0  2  0  0  0  0  0  0
  186.0230  178.6490  141.0170 C   0  0  0  0  0  3  0  0  0  0  0  0
  185.7050  178.4200  143.3950 C   0  0  0  0  0  0  0  0  0  0  0  0
  184.8640  178.5300  144.5070 C   0  0  0  0  0  3  0  0  0  0  0  0
  189.6780  178.0220  137.3000 C   0  0  0  0  0  3  0  0  0  0  0  0
  191.4180  174.6170  137.1420 C   0  0  0  0  0  2  0  0  0  0  0  0
  189.2750  175.6310  137.3250 N   0  0  0  0  0  0  0  0  0  0  0  0
  191.8550  176.3930  137.1120 S   0  0  0  0  0  0  0  0  0  0  0  0
  190.1220  176.7650  137.2590 C   0  0  0  0  0  0  0  0  0  0  0  0
  189.9320  174.5220  137.2670 C   0  0  0  0  0  0  0  0  0  0  0  0
  189.2930  173.2820  137.3150 O   0  0  0  0  0  0  0  0  0  0  0  0
  188.2250  172.9480  136.4420 C   0  0  0  0  0  1  0  0  0  0  0  0
  1 11  1  1  0  0  0
  2  7  1  0  0  0  0
  2  3  1  0  0  0  0
  3  9  1  0  0  0  0
  4  5  2  0  0  0  0
  5 16  1  0  0  0  0
  7 17  1  0  0  0  0
  8  1  1  0  0  0  0
  9  6  2  0  0  0  0
 10 14  2  0  0  0  0
 10 15  1  0  0  0  0
 12 22  1  0  0  0  0
 14 19  1  0  0  0  0
 15  2  2  0  0  0  0
 16 10  1  0  0  0  0
 17  1  1  0  0  0  0
 18  6  1  0  0  0  0
 18 13  1  0  0  0  0
 19 20  1  0  0  0  0
 19  7  2  0  0  0  0
 20  8  1  0  0  0  0
 21 15  1  0  0  0  0
 21 12  2  0  0  0  0
 22  3  2  0  0  0  0
 22 23  1  0  0  0  0
 23 18  2  0  0  0  0
 24  5  1  0  0  0  0
 25 29  1  0  0  0  0
 27 25  1  0  0  0  0
 27 28  1  0  0  0  0
 28 24  2  0  0  0  0
 28 26  1  0  0  0  0
 29 30  1  0  0  0  0
 29 26  2  0  0  0  0
 31 30  1  0  0  0  0
M  END
>  <MODEL>
6

>  <REMARK>
 VINA RESULT:      -9.6      3.882      5.743
  Name = 
  2 active torsions:
  status: ('A' for Active; 'I' for Inactive)
    1  A    between atoms: O_1  and  C_24
    2  A    between atoms: C_3  and  C_9
                            x       y       z     vdW  Elec       q    Type
                         _______ _______ _______ _____ _____    ______ ____

>  <TORSDO>
F 2

$$$$
=
 OpenBabel10272400203D

 31 35  0  0  1  0  0  0  0  0999 V2000
  188.5310  177.6030  141.0920 C   0  0  1  0  0  3  0  0  0  0  0  0
  185.7440  178.3510  143.5310 C   0  0  0  0  0  0  0  0  0  0  0  0
  186.3560  178.2420  144.8140 C   0  0  0  0  0  0  0  0  0  0  0  0
  180.2680  179.4090  141.1220 O   0  0  0  0  0  0  0  0  0  0  0  0
  181.4960  179.1700  140.9750 C   0  0  0  0  0  0  0  0  0  0  0  0
  188.3000  177.8640  146.2430 C   0  0  0  0  0  3  0  0  0  0  0  0
  186.4540  178.1910  142.3130 C   0  0  0  0  0  0  0  0  0  0  0  0
  187.9810  178.4130  139.9270 C   0  0  0  0  0  2  0  0  0  0  0  0
  187.7260  177.9660  144.9740 C   0  0  0  0  0  3  0  0  0  0  0  0
  183.7140  178.7420  142.2140 C   0  0  0  0  0  0  0  0  0  0  0  0
  190.0070  177.8890  141.2690 C   0  0  0  0  0  1  0  0  0  0  0  0
  184.2100  178.6890  145.8850 C   0  0  0  0  0  3  0  0  0  0  0  0
  188.2320  177.9120  148.9710 Cl  0  0  0  0  0  0  0  0  0  0  0  0
  184.4400  178.5850  141.0770 N   0  0  0  0  0  0  0  0  0  0  0  0
  184.3510  178.6300  143.4630 C   0  0  0  0  0  0  0  0  0  0  0  0
  182.3050  179.0200  142.1500 N   0  0  0  0  0  2  0  0  0  0  0  0
  187.8330  177.9290  142.2920 O   0  0  0  0  0  0  0  0  0  0  0  0
  187.5120  178.0380  147.3810 C   0  0  0  0  0  0  0  0  0  0  0  0
  185.7700  178.3280  141.0910 C   0  0  0  0  0  0  0  0  0  0  0  0
  186.4890  178.1330  139.7880 C   0  0  0  0  0  2  0  0  0  0  0  0
  183.6070  178.7950  144.6370 C   0  0  0  0  0  3  0  0  0  0  0  0
  185.5700  178.4160  145.9840 C   0  0  0  0  0  0  0  0  0  0  0  0
  186.1510  178.3130  147.2510 C   0  0  0  0  0  3  0  0  0  0  0  0
  182.0750  179.0520  139.6220 C   0  0  0  0  0  3  0  0  0  0  0  0
  182.1390  176.2400  137.0280 C   0  0  0  0  0  2  0  0  0  0  0  0
  181.3480  176.7770  139.2040 N   0  0  0  0  0  0  0  0  0  0  0  0
  182.7440  177.9550  137.2180 S   0  0  0  0  0  0  0  0  0  0  0  0
  182.0040  177.9770  138.8360 C   0  0  0  0  0  0  0  0  0  0  0  0
  181.4120  175.8770  138.2820 C   0  0  0  0  0  0  0  0  0  0  0  0
  180.8300  174.6180  138.4370 O   0  0  0  0  0  0  0  0  0  0  0  0
  180.7870  173.6710  137.3800 C   0  0  0  0  0  1  0  0  0  0  0  0
  1 11  1  1  0  0  0
  1 17  1  0  0  0  0
  2  3  1  0  0  0  0
  3  9  2  0  0  0  0
  3 22  1  0  0  0  0
  5  4  2  0  0  0  0
  5 16  1  0  0  0  0
  6 18  2  0  0  0  0
  7  2  1  0  0  0  0
  8  1  1  0  0  0  0
  9  6  1  0  0  0  0
 10 15  1  0  0  0  0
 12 22  1  0  0  0  0
 14 19  1  0  0  0  0
 14 10  2  0  0  0  0
 15  2  2  0  0  0  0
 15 21  1  0  0  0  0
 16 10  1  0  0  0  0
 17  7  1  0  0  0  0
 18 13  1  0  0  0  0
 19  7  2  0  0  0  0
 20  8  1  0  0  0  0
 20 19  1  0  0  0  0
 21 12  2  0  0  0  0
 22 23  2  0  0  0  0
 23 18  1  0  0  0  0
 24  5  1  0  0  0  0
 25 27  1  0  0  0  0
 25 29  1  0  0  0  0
 27 28  1  0  0  0  0
 28 26  1  0  0  0  0
 28 24  2  0  0  0  0
 29 30  1  0  0  0  0
 29 26  2  0  0  0  0
 31 30  1  0  0  0  0
M  END
>  <MODEL>
7

>  <REMARK>
 VINA RESULT:      -9.5      2.060      2.849
  Name = 
  2 active torsions:
  status: ('A' for Active; 'I' for Inactive)
    1  A    between atoms: O_1  and  C_24
    2  A    between atoms: C_3  and  C_9
                            x       y       z     vdW  Elec       q    Type
                         _______ _______ _______ _____ _____    ______ ____

>  <TORSDO>
F 2

$$$$
=
 OpenBabel10272400203D

 31 35  0  0  1  0  0  0  0  0999 V2000
  188.0700  177.4870  144.7980 C   0  0  1  0  0  3  0  0  0  0  0  0
  185.7790  178.3580  141.9230 C   0  0  0  0  0  0  0  0  0  0  0  0
  184.4980  178.5250  142.5280 C   0  0  0  0  0  0  0  0  0  0  0  0
  188.3060  178.4640  136.4000 O   0  0  0  0  0  0  0  0  0  0  0  0
  188.4160  178.3240  137.6470 C   0  0  0  0  0  0  0  0  0  0  0  0
  183.0350  178.5810  144.4820 C   0  0  0  0  0  3  0  0  0  0  0  0
  186.9560  178.0660  142.6600 C   0  0  0  0  0  0  0  0  0  0  0  0
  189.3520  178.0340  144.1870 C   0  0  0  0  0  2  0  0  0  0  0  0
  184.3010  178.4130  143.9160 C   0  0  0  0  0  3  0  0  0  0  0  0
  187.1330  178.3260  139.8820 C   0  0  0  0  0  0  0  0  0  0  0  0
  187.9510  177.9400  146.2380 C   0  0  0  0  0  1  0  0  0  0  0  0
  183.5070  178.9350  140.3370 C   0  0  0  0  0  3  0  0  0  0  0  0
  180.3530  179.0770  144.3780 Cl  0  0  0  0  0  0  0  0  0  0  0  0
  188.2310  178.0520  140.6320 N   0  0  0  0  0  0  0  0  0  0  0  0
  185.8860  178.4860  140.5110 C   0  0  0  0  0  0  0  0  0  0  0  0
  187.2360  178.4510  138.4520 N   0  0  0  0  0  2  0  0  0  0  0  0
  186.9390  177.9390  144.0580 O   0  0  0  0  0  0  0  0  0  0  0  0
  181.9390  178.8660  143.6690 C   0  0  0  0  0  0  0  0  0  0  0  0
  188.1800  177.9310  141.9800 C   0  0  0  0  0  0  0  0  0  0  0  0
  189.4360  177.5910  142.7300 C   0  0  0  0  0  2  0  0  0  0  0  0
  184.7520  178.7720  139.7410 C   0  0  0  0  0  3  0  0  0  0  0  0
  183.3710  178.8150  141.7150 C   0  0  0  0  0  0  0  0  0  0  0  0
  182.1060  178.9820  142.2890 C   0  0  0  0  0  3  0  0  0  0  0  0
  189.7330  178.0390  138.2500 C   0  0  0  0  0  3  0  0  0  0  0  0
  192.1000  175.0360  138.0910 C   0  0  0  0  0  2  0  0  0  0  0  0
  190.0030  175.8260  137.2970 N   0  0  0  0  0  0  0  0  0  0  0  0
  192.0180  176.6880  138.8700 S   0  0  0  0  0  0  0  0  0  0  0  0
  190.4370  176.9170  138.0890 C   0  0  0  0  0  0  0  0  0  0  0  0
  190.8510  174.8530  137.2920 C   0  0  0  0  0  0  0  0  0  0  0  0
  190.6220  173.6770  136.5740 O   0  0  0  0  0  0  0  0  0  0  0  0
  189.3130  173.1910  136.3200 C   0  0  0  0  0  1  0  0  0  0  0  0
  1 11  1  1  0  0  0
  2  3  1  0  0  0  0
  2  7  1  0  0  0  0
  3  9  1  0  0  0  0
  4  5  2  0  0  0  0
  5 24  1  0  0  0  0
  5 16  1  0  0  0  0
  7 17  1  0  0  0  0
  8  1  1  0  0  0  0
  9  6  2  0  0  0  0
 10 15  1  0  0  0  0
 10 14  2  0  0  0  0
 12 22  1  0  0  0  0
 14 19  1  0  0  0  0
 15  2  2  0  0  0  0
 16 10  1  0  0  0  0
 17  1  1  0  0  0  0
 18 13  1  0  0  0  0
 18  6  1  0  0  0  0
 19  7  2  0  0  0  0
 19 20  1  0  0  0  0
 20  8  1  0  0  0  0
 21 12  2  0  0  0  0
 21 15  1  0  0  0  0
 22 23  1  0  0  0  0
 22  3  2  0  0  0  0
 23 18  2  0  0  0  0
 25 27  1  0  0  0  0
 26 28  1  0  0  0  0
 28 24  2  0  0  0  0
 28 27  1  0  0  0  0
 29 26  2  0  0  0  0
 29 25  1  0  0  0  0
 30 29  1  0  0  0  0
 31 30  1  0  0  0  0
M  END
>  <MODEL>
8

>  <REMARK>
 VINA RESULT:      -9.1      3.985      7.116
  Name = 
  2 active torsions:
  status: ('A' for Active; 'I' for Inactive)
    1  A    between atoms: O_1  and  C_24
    2  A    between atoms: C_3  and  C_9
                            x       y       z     vdW  Elec       q    Type
                         _______ _______ _______ _____ _____    ______ ____

>  <TORSDO>
F 2

$$$$
=
 OpenBabel10272400203D

 31 35  0  0  1  0  0  0  0  0999 V2000
  186.3430  178.3010  138.4710 C   0  0  1  0  0  3  0  0  0  0  0  0
  188.6120  177.7540  141.4420 C   0  0  0  0  0  0  0  0  0  0  0  0
  187.7560  177.9000  142.5740 C   0  0  0  0  0  0  0  0  0  0  0  0
  194.4780  176.7710  140.2080 O   0  0  0  0  0  0  0  0  0  0  0  0
  193.2980  176.9630  139.8120 C   0  0  0  0  0  0  0  0  0  0  0  0
  185.5600  178.2760  143.5740 C   0  0  0  0  0  3  0  0  0  0  0  0
  188.1520  177.8370  140.1030 C   0  0  0  0  0  0  0  0  0  0  0  0
  187.1310  177.4580  137.4780 C   0  0  0  0  0  2  0  0  0  0  0  0
  186.3750  178.1370  142.4480 C   0  0  0  0  0  3  0  0  0  0  0  0
  190.8690  177.3710  140.5700 C   0  0  0  0  0  0  0  0  0  0  0  0
  184.8680  177.9750  138.3690 C   0  0  0  0  0  1  0  0  0  0  0  0
  189.6580  177.5710  144.0660 C   0  0  0  0  0  3  0  0  0  0  0  0
  185.0900  178.3510  146.2610 Cl  0  0  0  0  0  0  0  0  0  0  0  0
  190.3790  177.4540  139.3060 N   0  0  0  0  0  0  0  0  0  0  0  0
  189.9970  177.5170  141.6630 C   0  0  0  0  0  0  0  0  0  0  0  0
  192.2700  177.1380  140.7970 N   0  0  0  0  0  2  0  0  0  0  0  0
  186.7980  178.0520  139.7990 O   0  0  0  0  0  0  0  0  0  0  0  0
  186.1120  178.1780  144.8510 C   0  0  0  0  0  0  0  0  0  0  0  0
  189.0670  177.6680  139.0470 C   0  0  0  0  0  0  0  0  0  0  0  0
  188.6140  177.7810  137.6200 C   0  0  0  0  0  2  0  0  0  0  0  0
  190.4980  177.4300  142.9670 C   0  0  0  0  0  3  0  0  0  0  0  0
  188.3000  177.8040  143.8820 C   0  0  0  0  0  0  0  0  0  0  0  0
  187.4780  177.9430  145.0040 C   0  0  0  0  0  3  0  0  0  0  0  0
  192.9950  177.0010  138.3680 C   0  0  0  0  0  3  0  0  0  0  0  0
  193.6420  174.5710  135.4830 C   0  0  0  0  0  2  0  0  0  0  0  0
  193.9640  174.8470  137.8220 N   0  0  0  0  0  0  0  0  0  0  0  0
  192.8790  176.2090  135.7620 S   0  0  0  0  0  0  0  0  0  0  0  0
  193.2970  176.0490  137.4830 C   0  0  0  0  0  0  0  0  0  0  0  0
  194.1470  174.0800  136.8010 C   0  0  0  0  0  0  0  0  0  0  0  0
  194.7860  172.8430  136.9100 O   0  0  0  0  0  0  0  0  0  0  0  0
  195.2970  172.3640  138.1440 C   0  0  0  0  0  1  0  0  0  0  0  0
  1 11  1  1  0  0  0
  1 17  1  0  0  0  0
  2 15  2  0  0  0  0
  2  3  1  0  0  0  0
  3 22  1  0  0  0  0
  5  4  2  0  0  0  0
  5 16  1  0  0  0  0
  6 18  2  0  0  0  0
  7  2  1  0  0  0  0
  8 20  1  0  0  0  0
  8  1  1  0  0  0  0
  9  3  2  0  0  0  0
  9  6  1  0  0  0  0
 10 16  1  0  0  0  0
 10 15  1  0  0  0  0
 14 10  2  0  0  0  0
 15 21  1  0  0  0  0
 17  7  1  0  0  0  0
 18 23  1  0  0  0  0
 18 13  1  0  0  0  0
 19 14  1  0  0  0  0
 19  7  2  0  0  0  0
 20 19  1  0  0  0  0
 21 12  2  0  0  0  0
 22 12  1  0  0  0  0
 22 23  2  0  0  0  0
 24  5  1  0  0  0  0
 25 27  1  0  0  0  0
 25 29  1  0  0  0  0
 27 28  1  0  0  0  0
 28 26  1  0  0  0  0
 28 24  2  0  0  0  0
 29 30  1  0  0  0  0
 29 26  2  0  0  0  0
 30 31  1  0  0  0  0
M  END
>  <MODEL>
9

>  <REMARK>
 VINA RESULT:      -8.8      4.214      7.742
  Name = 
  2 active torsions:
  status: ('A' for Active; 'I' for Inactive)
    1  A    between atoms: O_1  and  C_24
    2  A    between atoms: C_3  and  C_9
                            x       y       z     vdW  Elec       q    Type
                         _______ _______ _______ _____ _____    ______ ____

>  <TORSDO>
F 2

$$$$
