=
 OpenBabel10272400043D

 34 39  0  0  1  0  0  0  0  0999 V2000
  191.1150  177.0710  141.5910 C   0  0  0  0  0  0  0  0  0  0  0  0
  189.1140  178.2410  140.6570 C   0  0  2  0  0  3  0  0  0  0  0  0
  189.1430  177.6600  143.0280 C   0  0  2  0  0  3  0  0  0  0  0  0
  187.1050  177.7300  144.4630 C   0  0  1  0  0  3  0  0  0  0  0  0
  191.0990  177.7980  139.2720 C   0  0  0  0  0  3  0  0  0  0  0  0
  189.7180  178.0420  139.3800 O   0  0  0  0  0  0  0  0  0  0  0  0
  186.9940  178.4080  142.0110 C   0  0  0  0  0  2  0  0  0  0  0  0
  189.6220  177.2120  141.6550 C   0  0  2  0  0  3  0  0  0  0  0  0
  191.8050  177.3630  140.3240 C   0  0  0  0  0  3  0  0  0  0  0  0
  189.9640  177.0910  144.2140 C   0  0  1  0  0  3  0  0  0  0  0  0
  191.7580  176.5560  142.5970 N   0  0  0  0  0  0  0  0  0  0  0  0
  187.5850  178.1660  140.6060 C   0  0  0  0  0  2  0  0  0  0  0  0
  187.6470  176.6370  145.3730 C   0  0  0  0  0  2  0  0  0  0  0  0
  189.1790  176.6250  145.4530 C   0  0  2  0  0  3  0  0  0  0  0  0
  187.6260  177.4680  143.0600 C   0  0  1  0  0  3  0  0  0  0  0  0
  191.0510  176.0940  143.7960 C   0  0  0  0  0  2  0  0  0  0  0  0
  190.9570  176.9040  147.2620 C   0  0  0  0  0  0  0  0  0  0  0  0
  191.4740  177.6500  148.1370 O   0  0  0  0  0  0  0  0  0  0  0  0
  189.6740  177.2430  146.6890 N   0  0  0  0  0  0  0  0  0  0  0  0
  191.6920  175.6690  146.8660 C   0  0  0  0  0  1  0  0  0  0  0  0
  188.9400  178.4010  147.2080 C   0  0  0  0  0  3  0  0  0  0  0  0
  189.0080  178.4220  148.7270 C   0  0  0  0  0  2  0  0  0  0  0  0
  187.7470  177.9530  148.0420 C   0  0  0  0  0  2  0  0  0  0  0  0
  185.7060  177.6920  144.4860 O   0  0  0  0  0  0  0  0  0  0  0  0
  185.3320  178.7560  145.3110 C   0  0  0  0  0  2  0  0  0  0  0  0
  183.8250  178.9330  145.2720 C   0  0  0  0  0  2  0  0  0  0  0  0
  183.4370  179.6830  144.0130 C   0  0  0  0  0  2  0  0  0  0  0  0
  180.4440  178.6050  143.9690 C   0  0  0  0  0  1  0  0  0  0  0  0
  182.7470  178.7820  143.1040 N   0  0  0  0  0  0  0  0  0  0  0  0
  181.3650  179.2840  142.9640 C   0  0  1  0  0  3  0  0  0  0  0  0
  181.2440  177.9490  141.0830 C   0  0  0  0  0  2  0  0  0  0  0  0
  182.7430  177.9750  140.7920 C   0  0  0  0  0  2  0  0  0  0  0  0
  183.4430  178.8600  141.8190 C   0  0  0  0  0  2  0  0  0  0  0  0
  180.8390  179.1750  141.6460 O   0  0  0  0  0  0  0  0  0  0  0  0
  1  8  1  0  0  0  0
  1 11  2  0  0  0  0
  2 12  1  6  0  0  0
  2  8  1  0  0  0  0
  3 15  1  0  0  0  0
  3 10  1  0  0  0  0
  4 24  1  0  0  0  0
  4 13  1  0  0  0  0
  5  6  1  0  0  0  0
  5  9  2  0  0  0  0
  6  2  1  0  0  0  0
  7 15  1  0  0  0  0
  8  3  1  0  0  0  0
  9  1  1  0  0  0  0
 10 14  1  0  0  0  0
 11 16  1  0  0  0  0
 12  7  1  0  0  0  0
 13 14  1  0  0  0  0
 14 19  1  0  0  0  0
 15  4  1  0  0  0  0
 16 10  1  0  0  0  0
 17 18  2  0  0  0  0
 19 21  1  0  0  0  0
 19 17  1  0  0  0  0
 20 17  1  0  0  0  0
 21 23  1  0  0  0  0
 21 22  1  0  0  0  0
 23 22  1  0  0  0  0
 24 25  1  0  0  0  0
 26 25  1  0  0  0  0
 27 26  1  0  0  0  0
 29 27  1  0  0  0  0
 30 29  1  0  0  0  0
 30 28  1  0  0  0  0
 31 34  1  0  0  0  0
 32 31  1  0  0  0  0
 32 33  1  0  0  0  0
 33 29  1  0  0  0  0
 34 30  1  0  0  0  0
M  END
>  <MODEL>
1

>  <REMARK>
 VINA RESULT:      -8.2      0.000      0.000
  Name = 
  7 active torsions:
  status: ('A' for Active; 'I' for Inactive)
    1  A    between atoms: C_3  and  N_13
    2  A    between atoms: C_3  and  C_17
    3  A    between atoms: C_5  and  O_18
    4  A    between atoms: C_12  and  N_23
    5  A    between atoms: C_17  and  C_29
    6  A    between atoms: O_18  and  C_29
    7  A    between atoms: N_23  and  C_28
                            x       y       z     vdW  Elec       q    Type
                         _______ _______ _______ _____ _____    ______ ____

>  <TORSDO>
F 7

$$$$
=
 OpenBabel10272400043D

 34 39  0  0  1  0  0  0  0  0999 V2000
  189.7590  177.1710  143.3260 C   0  0  0  0  0  0  0  0  0  0  0  0
  187.3410  177.7500  143.0780 C   0  0  2  0  0  3  0  0  0  0  0  0
  188.6800  177.3860  141.0700 C   0  0  2  0  0  3  0  0  0  0  0  0
  187.9020  178.0300  138.7900 C   0  0  1  0  0  3  0  0  0  0  0  0
  188.3520  177.4010  145.2940 C   0  0  0  0  0  3  0  0  0  0  0  0
  187.3530  177.9750  144.4870 O   0  0  0  0  0  0  0  0  0  0  0  0
  186.4140  178.3950  140.8240 C   0  0  0  0  0  2  0  0  0  0  0  0
  188.7400  177.9010  142.5010 C   0  0  2  0  0  3  0  0  0  0  0  0
  189.5050  176.9750  144.7630 C   0  0  0  0  0  3  0  0  0  0  0  0
  190.0480  176.9500  140.4850 C   0  0  1  0  0  3  0  0  0  0  0  0
  190.9060  176.8560  142.8040 N   0  0  0  0  0  0  0  0  0  0  0  0
  186.3960  178.7010  142.3360 C   0  0  0  0  0  2  0  0  0  0  0  0
  189.3300  178.2370  138.3070 C   0  0  0  0  0  2  0  0  0  0  0  0
  190.3460  177.3400  139.0270 C   0  0  2  0  0  3  0  0  0  0  0  0
  187.8540  178.3910  140.2650 C   0  0  1  0  0  3  0  0  0  0  0  0
  191.2360  177.2120  141.4190 C   0  0  0  0  0  2  0  0  0  0  0  0
  192.1170  175.7610  138.0880 C   0  0  0  0  0  0  0  0  0  0  0  0
  192.3860  174.6150  137.6360 O   0  0  0  0  0  0  0  0  0  0  0  0
  190.7410  176.1850  138.2120 N   0  0  0  0  0  0  0  0  0  0  0  0
  193.2510  176.6550  138.4600 C   0  0  0  0  0  1  0  0  0  0  0  0
  189.6740  175.3130  137.7120 C   0  0  0  0  0  3  0  0  0  0  0  0
  190.2020  174.4360  136.5880 C   0  0  0  0  0  2  0  0  0  0  0  0
  189.3470  175.6370  136.2600 C   0  0  0  0  0  2  0  0  0  0  0  0
  187.0450  178.8520  138.0500 O   0  0  0  0  0  0  0  0  0  0  0  0
  186.8180  178.1570  136.8600 C   0  0  0  0  0  2  0  0  0  0  0  0
  185.9460  176.9460  137.1290 C   0  0  0  0  0  2  0  0  0  0  0  0
  184.4870  177.3270  136.9700 C   0  0  0  0  0  2  0  0  0  0  0  0
  183.6350  179.6610  138.9560 C   0  0  0  0  0  1  0  0  0  0  0  0
  183.8350  177.3010  138.2690 N   0  0  0  0  0  0  0  0  0  0  0  0
  182.9320  178.4690  138.3230 C   0  0  1  0  0  3  0  0  0  0  0  0
  181.9130  177.3960  140.0960 C   0  0  0  0  0  2  0  0  0  0  0  0
  182.2990  175.9870  139.6510 C   0  0  0  0  0  2  0  0  0  0  0  0
  183.0580  176.0620  138.3300 C   0  0  0  0  0  2  0  0  0  0  0  0
  181.6910  178.2140  138.9710 O   0  0  0  0  0  0  0  0  0  0  0  0
  1  9  1  0  0  0  0
  2 12  1  6  0  0  0
  2  6  1  0  0  0  0
  3  8  1  0  0  0  0
  4 15  1  0  0  0  0
  6  5  1  0  0  0  0
  7 12  1  0  0  0  0
  8  2  1  0  0  0  0
  8  1  1  0  0  0  0
  9  5  2  0  0  0  0
 10  3  1  0  0  0  0
 10 16  1  0  0  0  0
 11  1  2  0  0  0  0
 13  4  1  0  0  0  0
 13 14  1  0  0  0  0
 14 10  1  0  0  0  0
 15  7  1  0  0  0  0
 15  3  1  0  0  0  0
 16 11  1  0  0  0  0
 17 19  1  0  0  0  0
 17 20  1  0  0  0  0
 18 17  2  0  0  0  0
 19 14  1  0  0  0  0
 21 19  1  0  0  0  0
 22 21  1  0  0  0  0
 23 22  1  0  0  0  0
 23 21  1  0  0  0  0
 24  4  1  0  0  0  0
 25 26  1  0  0  0  0
 25 24  1  0  0  0  0
 27 26  1  0  0  0  0
 27 29  1  0  0  0  0
 29 30  1  0  0  0  0
 29 33  1  0  0  0  0
 30 28  1  0  0  0  0
 30 34  1  0  0  0  0
 32 31  1  0  0  0  0
 33 32  1  0  0  0  0
 34 31  1  0  0  0  0
M  END
>  <MODEL>
2

>  <REMARK>
 VINA RESULT:      -8.0      2.691      6.485
  Name = 
  7 active torsions:
  status: ('A' for Active; 'I' for Inactive)
    1  A    between atoms: C_3  and  N_13
    2  A    between atoms: C_3  and  C_17
    3  A    between atoms: C_5  and  O_18
    4  A    between atoms: C_12  and  N_23
    5  A    between atoms: C_17  and  C_29
    6  A    between atoms: O_18  and  C_29
    7  A    between atoms: N_23  and  C_28
                            x       y       z     vdW  Elec       q    Type
                         _______ _______ _______ _____ _____    ______ ____

>  <TORSDO>
F 7

$$$$
=
 OpenBabel10272400043D

 34 39  0  0  1  0  0  0  0  0999 V2000
  191.0230  177.2090  145.1160 C   0  0  0  0  0  0  0  0  0  0  0  0
  188.7770  176.8920  146.1620 C   0  0  2  0  0  3  0  0  0  0  0  0
  188.9110  177.3300  143.7650 C   0  0  2  0  0  3  0  0  0  0  0  0
  186.9280  177.9580  142.3900 C   0  0  1  0  0  3  0  0  0  0  0  0
  190.8450  176.6280  147.4690 C   0  0  0  0  0  3  0  0  0  0  0  0
  189.4670  176.9050  147.4110 O   0  0  0  0  0  0  0  0  0  0  0  0
  186.6850  177.4630  144.8760 C   0  0  0  0  0  2  0  0  0  0  0  0
  189.5810  177.6240  145.0990 C   0  0  2  0  0  3  0  0  0  0  0  0
  191.6140  176.7330  146.3770 C   0  0  0  0  0  3  0  0  0  0  0  0
  189.8310  177.5120  142.5290 C   0  0  1  0  0  3  0  0  0  0  0  0
  191.7650  177.4130  144.0680 N   0  0  0  0  0  0  0  0  0  0  0  0
  187.3840  177.5250  146.2500 C   0  0  0  0  0  2  0  0  0  0  0  0
  187.7910  178.7400  141.4110 C   0  0  0  0  0  2  0  0  0  0  0  0
  189.2170  178.1850  141.2890 C   0  0  2  0  0  3  0  0  0  0  0  0
  187.5700  178.0650  143.7640 C   0  0  1  0  0  3  0  0  0  0  0  0
  191.2240  178.0560  142.8650 C   0  0  0  0  0  2  0  0  0  0  0  0
  190.6750  176.8210  139.7010 C   0  0  0  0  0  0  0  0  0  0  0  0
  190.7360  175.9080  138.8340 O   0  0  0  0  0  0  0  0  0  0  0  0
  189.3970  177.3820  140.0740 N   0  0  0  0  0  0  0  0  0  0  0  0
  191.9510  177.3100  140.2980 C   0  0  0  0  0  1  0  0  0  0  0  0
  188.1900  176.9510  139.3620 C   0  0  0  0  0  3  0  0  0  0  0  0
  188.5210  176.6530  137.9090 C   0  0  0  0  0  2  0  0  0  0  0  0
  187.8250  177.9440  138.2670 C   0  0  0  0  0  2  0  0  0  0  0  0
  185.6400  178.5050  142.4020 O   0  0  0  0  0  0  0  0  0  0  0  0
  185.5040  179.1330  141.1620 C   0  0  0  0  0  2  0  0  0  0  0  0
  184.1690  178.7640  140.5420 C   0  0  0  0  0  2  0  0  0  0  0  0
  184.3480  178.5340  139.0540 C   0  0  0  0  0  2  0  0  0  0  0  0
  184.0670  176.9760  136.2950 C   0  0  0  0  0  1  0  0  0  0  0  0
  183.3870  177.5440  138.5970 N   0  0  0  0  0  0  0  0  0  0  0  0
  184.1280  176.5760  137.7630 C   0  0  1  0  0  3  0  0  0  0  0  0
  182.3110  175.1800  138.0530 C   0  0  0  0  0  2  0  0  0  0  0  0
  181.8790  175.7840  139.3880 C   0  0  0  0  0  2  0  0  0  0  0  0
  182.8620  176.8790  139.7910 C   0  0  0  0  0  2  0  0  0  0  0  0
  183.7140  175.2250  137.9340 O   0  0  0  0  0  0  0  0  0  0  0  0
  1  9  1  0  0  0  0
  2 12  1  1  0  0  0
  2  6  1  0  0  0  0
  3  8  1  0  0  0  0
  4 24  1  0  0  0  0
  4 15  1  0  0  0  0
  6  5  1  0  0  0  0
  7 12  1  0  0  0  0
  8  1  1  0  0  0  0
  8  2  1  0  0  0  0
  9  5  2  0  0  0  0
 10 16  1  0  0  0  0
 10  3  1  0  0  0  0
 11  1  2  0  0  0  0
 13  4  1  0  0  0  0
 14 13  1  0  0  0  0
 14 10  1  0  0  0  0
 15  3  1  0  0  0  0
 15  7  1  0  0  0  0
 16 11  1  0  0  0  0
 17 19  1  0  0  0  0
 17 20  1  0  0  0  0
 18 17  2  0  0  0  0
 19 14  1  0  0  0  0
 21 19  1  0  0  0  0
 22 23  1  0  0  0  0
 22 21  1  0  0  0  0
 23 21  1  0  0  0  0
 25 24  1  0  0  0  0
 26 25  1  0  0  0  0
 27 26  1  0  0  0  0
 28 30  1  0  0  0  0
 29 27  1  0  0  0  0
 29 33  1  0  0  0  0
 30 34  1  0  0  0  0
 30 29  1  0  0  0  0
 31 32  1  0  0  0  0
 32 33  1  0  0  0  0
 34 31  1  0  0  0  0
M  END
>  <MODEL>
3

>  <REMARK>
 VINA RESULT:      -8.0      2.415      5.754
  Name = 
  7 active torsions:
  status: ('A' for Active; 'I' for Inactive)
    1  A    between atoms: C_3  and  N_13
    2  A    between atoms: C_3  and  C_17
    3  A    between atoms: C_5  and  O_18
    4  A    between atoms: C_12  and  N_23
    5  A    between atoms: C_17  and  C_29
    6  A    between atoms: O_18  and  C_29
    7  A    between atoms: N_23  and  C_28
                            x       y       z     vdW  Elec       q    Type
                         _______ _______ _______ _____ _____    ______ ____

>  <TORSDO>
F 7

$$$$
=
 OpenBabel10272400043D

 34 39  0  0  1  0  0  0  0  0999 V2000
  189.7070  177.2140  143.2940 C   0  0  0  0  0  0  0  0  0  0  0  0
  187.2880  177.7540  142.9730 C   0  0  2  0  0  3  0  0  0  0  0  0
  188.6910  177.4040  141.0060 C   0  0  2  0  0  3  0  0  0  0  0  0
  187.9700  178.0260  138.7020 C   0  0  1  0  0  3  0  0  0  0  0  0
  188.2390  177.4290  145.2190 C   0  0  0  0  0  3  0  0  0  0  0  0
  187.2560  177.9840  144.3800 O   0  0  0  0  0  0  0  0  0  0  0  0
  186.4180  178.3750  140.6900 C   0  0  0  0  0  2  0  0  0  0  0  0
  188.7010  177.9250  142.4360 C   0  0  2  0  0  3  0  0  0  0  0  0
  189.4140  177.0200  144.7230 C   0  0  0  0  0  3  0  0  0  0  0  0
  190.0830  176.9880  140.4630 C   0  0  1  0  0  3  0  0  0  0  0  0
  190.8740  176.9160  142.8060 N   0  0  0  0  0  0  0  0  0  0  0  0
  186.3500  178.6860  142.2000 C   0  0  0  0  0  2  0  0  0  0  0  0
  189.4080  178.2550  138.2590 C   0  0  0  0  0  2  0  0  0  0  0  0
  190.4170  177.3760  139.0120 C   0  0  2  0  0  3  0  0  0  0  0  0
  187.8720  178.3920  140.1730 C   0  0  1  0  0  3  0  0  0  0  0  0
  191.2380  177.2720  141.4300 C   0  0  0  0  0  2  0  0  0  0  0  0
  192.2320  175.7940  138.1700 C   0  0  0  0  0  0  0  0  0  0  0  0
  192.5220  174.6500  137.7270 O   0  0  0  0  0  0  0  0  0  0  0  0
  190.8530  176.2250  138.2140 N   0  0  0  0  0  0  0  0  0  0  0  0
  193.3460  176.6790  138.6170 C   0  0  0  0  0  1  0  0  0  0  0  0
  189.8140  175.3630  137.6450 C   0  0  0  0  0  3  0  0  0  0  0  0
  190.4210  174.4310  136.6070 C   0  0  0  0  0  2  0  0  0  0  0  0
  189.6360  175.6410  136.1580 C   0  0  0  0  0  2  0  0  0  0  0  0
  187.1220  178.8320  137.9340 O   0  0  0  0  0  0  0  0  0  0  0  0
  186.8990  178.1050  136.7620 C   0  0  0  0  0  2  0  0  0  0  0  0
  186.1790  176.8100  137.0870 C   0  0  0  0  0  2  0  0  0  0  0  0
  186.1180  175.9400  135.8480 C   0  0  0  0  0  2  0  0  0  0  0  0
  187.1090  172.9180  135.9340 C   0  0  0  0  0  1  0  0  0  0  0  0
  185.4210  174.7030  136.1580 N   0  0  0  0  0  0  0  0  0  0  0  0
  186.3710  173.8430  136.8930 C   0  0  1  0  0  3  0  0  0  0  0  0
  184.5180  172.6300  137.5470 C   0  0  0  0  0  2  0  0  0  0  0  0
  183.5370  173.7940  137.4320 C   0  0  0  0  0  2  0  0  0  0  0  0
  184.2920  175.0550  137.0210 C   0  0  0  0  0  2  0  0  0  0  0  0
  185.7820  173.1010  137.9540 O   0  0  0  0  0  0  0  0  0  0  0  0
  1  9  1  0  0  0  0
  2 12  1  6  0  0  0
  2  6  1  0  0  0  0
  3  8  1  0  0  0  0
  4 15  1  0  0  0  0
  6  5  1  0  0  0  0
  7 12  1  0  0  0  0
  8  2  1  0  0  0  0
  8  1  1  0  0  0  0
  9  5  2  0  0  0  0
 10  3  1  0  0  0  0
 10 16  1  0  0  0  0
 11  1  2  0  0  0  0
 13  4  1  0  0  0  0
 13 14  1  0  0  0  0
 14 10  1  0  0  0  0
 15  7  1  0  0  0  0
 15  3  1  0  0  0  0
 16 11  1  0  0  0  0
 17 19  1  0  0  0  0
 17 20  1  0  0  0  0
 18 17  2  0  0  0  0
 19 14  1  0  0  0  0
 21 19  1  0  0  0  0
 22 21  1  0  0  0  0
 23 22  1  0  0  0  0
 23 21  1  0  0  0  0
 24  4  1  0  0  0  0
 25 26  1  0  0  0  0
 25 24  1  0  0  0  0
 27 29  1  0  0  0  0
 27 26  1  0  0  0  0
 28 30  1  0  0  0  0
 29 30  1  0  0  0  0
 29 33  1  0  0  0  0
 30 34  1  0  0  0  0
 31 34  1  0  0  0  0
 32 31  1  0  0  0  0
 33 32  1  0  0  0  0
M  END
>  <MODEL>
4

>  <REMARK>
 VINA RESULT:      -7.9      3.778      7.365
  Name = 
  7 active torsions:
  status: ('A' for Active; 'I' for Inactive)
    1  A    between atoms: C_3  and  N_13
    2  A    between atoms: C_3  and  C_17
    3  A    between atoms: C_5  and  O_18
    4  A    between atoms: C_12  and  N_23
    5  A    between atoms: C_17  and  C_29
    6  A    between atoms: O_18  and  C_29
    7  A    between atoms: N_23  and  C_28
                            x       y       z     vdW  Elec       q    Type
                         _______ _______ _______ _____ _____    ______ ____

>  <TORSDO>
F 7

$$$$
=
 OpenBabel10272400043D

 34 39  0  0  1  0  0  0  0  0999 V2000
  186.1060  178.1820  146.0200 C   0  0  0  0  0  0  0  0  0  0  0  0
  185.2740  178.1890  143.6640 C   0  0  2  0  0  3  0  0  0  0  0  0
  187.6490  177.8030  144.0760 C   0  0  2  0  0  3  0  0  0  0  0  0
  189.3680  177.8960  142.2730 C   0  0  1  0  0  3  0  0  0  0  0  0
  183.7310  178.4190  145.5660 C   0  0  0  0  0  3  0  0  0  0  0  0
  184.0330  178.6330  144.2090 O   0  0  0  0  0  0  0  0  0  0  0  0
  186.9040  178.2560  141.7420 C   0  0  0  0  0  2  0  0  0  0  0  0
  186.4230  178.5390  144.5970 C   0  0  2  0  0  3  0  0  0  0  0  0
  184.7000  178.1670  146.4550 C   0  0  0  0  0  3  0  0  0  0  0  0
  188.7620  177.5790  145.1320 C   0  0  1  0  0  3  0  0  0  0  0  0
  187.0710  178.0390  146.8780 N   0  0  0  0  0  0  0  0  0  0  0  0
  185.5600  178.7880  142.2830 C   0  0  0  0  0  2  0  0  0  0  0  0
  190.4490  178.3220  143.2560 C   0  0  0  0  0  2  0  0  0  0  0  0
  190.2170  177.7860  144.6750 C   0  0  2  0  0  3  0  0  0  0  0  0
  188.0470  178.4680  142.7570 C   0  0  1  0  0  3  0  0  0  0  0  0
  188.4720  178.2310  146.4890 C   0  0  0  0  0  2  0  0  0  0  0  0
  191.1890  175.5060  144.0710 C   0  0  0  0  0  0  0  0  0  0  0  0
  192.1330  174.6830  144.2120 O   0  0  0  0  0  0  0  0  0  0  0  0
  191.0640  176.6270  144.9750 N   0  0  0  0  0  0  0  0  0  0  0  0
  190.2090  175.2720  142.9710 C   0  0  0  0  0  1  0  0  0  0  0  0
  191.9820  176.7350  146.1130 C   0  0  0  0  0  3  0  0  0  0  0  0
  192.0410  175.4130  146.8620 C   0  0  0  0  0  2  0  0  0  0  0  0
  191.2350  176.5570  147.4280 C   0  0  0  0  0  2  0  0  0  0  0  0
  189.6850  178.3900  141.0020 O   0  0  0  0  0  0  0  0  0  0  0  0
  190.2590  177.3090  140.3290 C   0  0  0  0  0  2  0  0  0  0  0  0
  190.1070  177.4960  138.8310 C   0  0  0  0  0  2  0  0  0  0  0  0
  188.7990  178.2040  138.5390 C   0  0  0  0  0  2  0  0  0  0  0  0
  185.6290  178.4110  138.3750 C   0  0  0  0  0  1  0  0  0  0  0  0
  187.7830  177.2250  138.1910 N   0  0  0  0  0  0  0  0  0  0  0  0
  186.7320  177.9390  137.4380 C   0  0  1  0  0  3  0  0  0  0  0  0
  186.0380  175.8500  136.7400 C   0  0  0  0  0  2  0  0  0  0  0  0
  187.4070  175.1890  136.8820 C   0  0  0  0  0  2  0  0  0  0  0  0
  188.4280  176.2300  137.3330 C   0  0  0  0  0  2  0  0  0  0  0  0
  186.1880  177.1970  136.3530 O   0  0  0  0  0  0  0  0  0  0  0  0
  1  9  1  0  0  0  0
  1 11  2  0  0  0  0
  2 12  1  6  0  0  0
  2  6  1  0  0  0  0
  2  8  1  0  0  0  0
  3  8  1  0  0  0  0
  3 10  1  0  0  0  0
  4 15  1  0  0  0  0
  4 13  1  0  0  0  0
  5  9  2  0  0  0  0
  6  5  1  0  0  0  0
  7 12  1  0  0  0  0
  7 15  1  0  0  0  0
  8  1  1  0  0  0  0
 10 16  1  0  0  0  0
 13 14  1  0  0  0  0
 14 19  1  0  0  0  0
 14 10  1  0  0  0  0
 15  3  1  0  0  0  0
 16 11  1  0  0  0  0
 17 18  2  0  0  0  0
 17 19  1  0  0  0  0
 19 21  1  0  0  0  0
 20 17  1  0  0  0  0
 21 22  1  0  0  0  0
 21 23  1  0  0  0  0
 22 23  1  0  0  0  0
 24  4  1  0  0  0  0
 25 24  1  0  0  0  0
 26 25  1  0  0  0  0
 27 26  1  0  0  0  0
 29 27  1  0  0  0  0
 30 29  1  0  0  0  0
 30 28  1  0  0  0  0
 31 32  1  0  0  0  0
 32 33  1  0  0  0  0
 33 29  1  0  0  0  0
 34 31  1  0  0  0  0
 34 30  1  0  0  0  0
M  END
>  <MODEL>
5

>  <REMARK>
 VINA RESULT:      -7.9      2.489      5.791
  Name = 
  7 active torsions:
  status: ('A' for Active; 'I' for Inactive)
    1  A    between atoms: C_3  and  N_13
    2  A    between atoms: C_3  and  C_17
    3  A    between atoms: C_5  and  O_18
    4  A    between atoms: C_12  and  N_23
    5  A    between atoms: C_17  and  C_29
    6  A    between atoms: O_18  and  C_29
    7  A    between atoms: N_23  and  C_28
                            x       y       z     vdW  Elec       q    Type
                         _______ _______ _______ _____ _____    ______ ____

>  <TORSDO>
F 7

$$$$
=
 OpenBabel10272400043D

 34 39  0  0  1  0  0  0  0  0999 V2000
  186.0180  178.2640  145.8790 C   0  0  0  0  0  0  0  0  0  0  0  0
  185.2330  178.2280  143.5070 C   0  0  2  0  0  3  0  0  0  0  0  0
  187.6020  177.8670  143.9730 C   0  0  2  0  0  3  0  0  0  0  0  0
  189.3570  177.9460  142.2030 C   0  0  1  0  0  3  0  0  0  0  0  0
  183.6500  178.4750  145.3740 C   0  0  0  0  0  3  0  0  0  0  0  0
  183.9780  178.6700  144.0200 O   0  0  0  0  0  0  0  0  0  0  0  0
  186.9010  178.2780  141.6170 C   0  0  0  0  0  2  0  0  0  0  0  0
  186.3610  178.6010  144.4570 C   0  0  2  0  0  3  0  0  0  0  0  0
  184.6040  178.2450  146.2860 C   0  0  0  0  0  3  0  0  0  0  0  0
  188.6960  177.6680  145.0540 C   0  0  1  0  0  3  0  0  0  0  0  0
  186.9670  178.1420  146.7590 N   0  0  0  0  0  0  0  0  0  0  0  0
  185.5430  178.8070  142.1230 C   0  0  0  0  0  2  0  0  0  0  0  0
  190.4140  178.3950  143.2000 C   0  0  0  0  0  2  0  0  0  0  0  0
  190.1580  177.8800  144.6230 C   0  0  2  0  0  3  0  0  0  0  0  0
  188.0210  178.5150  142.6520 C   0  0  1  0  0  3  0  0  0  0  0  0
  188.3740  178.3390  146.3950 C   0  0  0  0  0  2  0  0  0  0  0  0
  191.1470  175.5910  144.0810 C   0  0  0  0  0  0  0  0  0  0  0  0
  192.0930  174.7760  144.2510 O   0  0  0  0  0  0  0  0  0  0  0  0
  191.0080  176.7320  144.9580 N   0  0  0  0  0  0  0  0  0  0  0  0
  190.1780  175.3270  142.9790 C   0  0  0  0  0  1  0  0  0  0  0  0
  191.9140  176.8710  146.1010 C   0  0  0  0  0  3  0  0  0  0  0  0
  192.0220  175.5490  146.8450 C   0  0  0  0  0  2  0  0  0  0  0  0
  191.1670  176.6580  147.4120 C   0  0  0  0  0  2  0  0  0  0  0  0
  189.6950  178.4220  140.9310 O   0  0  0  0  0  0  0  0  0  0  0  0
  190.3280  177.3480  140.3010 C   0  0  0  0  0  2  0  0  0  0  0  0
  189.5120  176.9000  139.1030 C   0  0  0  0  0  2  0  0  0  0  0  0
  190.2340  177.2840  137.8270 C   0  0  0  0  0  2  0  0  0  0  0  0
  193.0670  176.1380  136.9410 C   0  0  0  0  0  1  0  0  0  0  0  0
  190.6060  176.0810  137.1000 N   0  0  0  0  0  0  0  0  0  0  0  0
  191.8650  175.5870  137.6950 C   0  0  1  0  0  3  0  0  0  0  0  0
  191.3910  173.5890  136.6380 C   0  0  0  0  0  2  0  0  0  0  0  0
  189.8780  173.7940  136.6160 C   0  0  0  0  0  2  0  0  0  0  0  0
  189.5340  175.1080  137.3110 C   0  0  0  0  0  2  0  0  0  0  0  0
  191.9410  174.1700  137.7980 O   0  0  0  0  0  0  0  0  0  0  0  0
  1  9  1  0  0  0  0
  1 11  2  0  0  0  0
  2 12  1  6  0  0  0
  2  6  1  0  0  0  0
  2  8  1  0  0  0  0
  3  8  1  0  0  0  0
  3 10  1  0  0  0  0
  4 15  1  0  0  0  0
  4 13  1  0  0  0  0
  5  9  2  0  0  0  0
  6  5  1  0  0  0  0
  7 12  1  0  0  0  0
  7 15  1  0  0  0  0
  8  1  1  0  0  0  0
 10 16  1  0  0  0  0
 13 14  1  0  0  0  0
 14 19  1  0  0  0  0
 14 10  1  0  0  0  0
 15  3  1  0  0  0  0
 16 11  1  0  0  0  0
 17 18  2  0  0  0  0
 17 19  1  0  0  0  0
 19 21  1  0  0  0  0
 20 17  1  0  0  0  0
 21 22  1  0  0  0  0
 21 23  1  0  0  0  0
 22 23  1  0  0  0  0
 24  4  1  0  0  0  0
 25 24  1  0  0  0  0
 26 25  1  0  0  0  0
 27 26  1  0  0  0  0
 28 30  1  0  0  0  0
 29 33  1  0  0  0  0
 29 30  1  0  0  0  0
 29 27  1  0  0  0  0
 30 34  1  0  0  0  0
 31 34  1  0  0  0  0
 32 31  1  0  0  0  0
 32 33  1  0  0  0  0
M  END
>  <MODEL>
6

>  <REMARK>
 VINA RESULT:      -7.8      2.499      7.103
  Name = 
  7 active torsions:
  status: ('A' for Active; 'I' for Inactive)
    1  A    between atoms: C_3  and  N_13
    2  A    between atoms: C_3  and  C_17
    3  A    between atoms: C_5  and  O_18
    4  A    between atoms: C_12  and  N_23
    5  A    between atoms: C_17  and  C_29
    6  A    between atoms: O_18  and  C_29
    7  A    between atoms: N_23  and  C_28
                            x       y       z     vdW  Elec       q    Type
                         _______ _______ _______ _____ _____    ______ ____

>  <TORSDO>
F 7

$$$$
=
 OpenBabel10272400043D

 34 39  0  0  1  0  0  0  0  0999 V2000
  191.0320  177.1900  145.1290 C   0  0  0  0  0  0  0  0  0  0  0  0
  188.7730  176.9280  146.1630 C   0  0  2  0  0  3  0  0  0  0  0  0
  188.9310  177.3540  143.7650 C   0  0  2  0  0  3  0  0  0  0  0  0
  186.9710  178.0210  142.3760 C   0  0  1  0  0  3  0  0  0  0  0  0
  190.8270  176.6230  147.4830 C   0  0  0  0  0  3  0  0  0  0  0  0
  189.4550  176.9300  147.4160 O   0  0  0  0  0  0  0  0  0  0  0  0
  186.7020  177.5410  144.8620 C   0  0  0  0  0  2  0  0  0  0  0  0
  189.6000  177.6370  145.1020 C   0  0  2  0  0  3  0  0  0  0  0  0
  191.6040  176.7060  146.3960 C   0  0  0  0  0  3  0  0  0  0  0  0
  189.8620  177.5100  142.5340 C   0  0  1  0  0  3  0  0  0  0  0  0
  191.7840  177.3740  144.0850 N   0  0  0  0  0  0  0  0  0  0  0  0
  187.3940  177.5920  146.2400 C   0  0  0  0  0  2  0  0  0  0  0  0
  187.8570  178.7790  141.3990 C   0  0  0  0  0  2  0  0  0  0  0  0
  189.2710  178.1920  141.2880 C   0  0  2  0  0  3  0  0  0  0  0  0
  187.6070  178.1180  143.7530 C   0  0  1  0  0  3  0  0  0  0  0  0
  191.2650  178.0240  142.8770 C   0  0  0  0  0  2  0  0  0  0  0  0
  190.7180  176.8290  139.6880 C   0  0  0  0  0  0  0  0  0  0  0  0
  190.7740  175.9100  138.8280 O   0  0  0  0  0  0  0  0  0  0  0  0
  189.4400  177.3800  140.0770 N   0  0  0  0  0  0  0  0  0  0  0  0
  191.9980  177.3360  140.2620 C   0  0  0  0  0  1  0  0  0  0  0  0
  188.2270  176.9310  139.3880 C   0  0  0  0  0  3  0  0  0  0  0  0
  188.5170  176.7110  137.9120 C   0  0  0  0  0  2  0  0  0  0  0  0
  187.7840  177.9550  138.3520 C   0  0  0  0  0  2  0  0  0  0  0  0
  185.6960  178.5970  142.3780 O   0  0  0  0  0  0  0  0  0  0  0  0
  185.4280  178.8830  141.0370 C   0  0  0  0  0  2  0  0  0  0  0  0
  183.9450  178.7170  140.7610 C   0  0  0  0  0  2  0  0  0  0  0  0
  183.7260  178.5240  139.2740 C   0  0  0  0  0  2  0  0  0  0  0  0
  180.7330  177.5500  139.7350 C   0  0  0  0  0  1  0  0  0  0  0  0
  182.4500  179.1060  138.8920 N   0  0  0  0  0  0  0  0  0  0  0  0
  181.5040  178.8370  139.9940 C   0  0  1  0  0  3  0  0  0  0  0  0
  180.1920  180.4900  139.0560 C   0  0  0  0  0  2  0  0  0  0  0  0
  181.3510  181.2400  138.4030 C   0  0  0  0  0  2  0  0  0  0  0  0
  182.6650  180.5480  138.7560 C   0  0  0  0  0  2  0  0  0  0  0  0
  180.6120  179.9110  140.2700 O   0  0  0  0  0  0  0  0  0  0  0  0
  1  9  1  0  0  0  0
  2 12  1  1  0  0  0
  2  6  1  0  0  0  0
  3  8  1  0  0  0  0
  4 24  1  0  0  0  0
  4 15  1  0  0  0  0
  6  5  1  0  0  0  0
  7 12  1  0  0  0  0
  8  1  1  0  0  0  0
  8  2  1  0  0  0  0
  9  5  2  0  0  0  0
 10 16  1  0  0  0  0
 10  3  1  0  0  0  0
 11  1  2  0  0  0  0
 13  4  1  0  0  0  0
 14 13  1  0  0  0  0
 14 10  1  0  0  0  0
 15  3  1  0  0  0  0
 15  7  1  0  0  0  0
 16 11  1  0  0  0  0
 17 19  1  0  0  0  0
 17 20  1  0  0  0  0
 18 17  2  0  0  0  0
 19 14  1  0  0  0  0
 21 19  1  0  0  0  0
 22 23  1  0  0  0  0
 22 21  1  0  0  0  0
 23 21  1  0  0  0  0
 25 24  1  0  0  0  0
 26 25  1  0  0  0  0
 27 26  1  0  0  0  0
 28 30  1  0  0  0  0
 29 27  1  0  0  0  0
 29 30  1  0  0  0  0
 30 34  1  0  0  0  0
 31 34  1  0  0  0  0
 32 33  1  0  0  0  0
 32 31  1  0  0  0  0
 33 29  1  0  0  0  0
M  END
>  <MODEL>
7

>  <REMARK>
 VINA RESULT:      -7.8      2.026      5.428
  Name = 
  7 active torsions:
  status: ('A' for Active; 'I' for Inactive)
    1  A    between atoms: C_3  and  N_13
    2  A    between atoms: C_3  and  C_17
    3  A    between atoms: C_5  and  O_18
    4  A    between atoms: C_12  and  N_23
    5  A    between atoms: C_17  and  C_29
    6  A    between atoms: O_18  and  C_29
    7  A    between atoms: N_23  and  C_28
                            x       y       z     vdW  Elec       q    Type
                         _______ _______ _______ _____ _____    ______ ____

>  <TORSDO>
F 7

$$$$
=
 OpenBabel10272400043D

 34 39  0  0  1  0  0  0  0  0999 V2000
  187.8950  176.5440  136.0870 C   0  0  0  0  0  0  0  0  0  0  0  0
  188.9960  177.0290  138.2770 C   0  0  2  0  0  3  0  0  0  0  0  0
  186.5870  177.3640  138.0670 C   0  0  2  0  0  3  0  0  0  0  0  0
  185.2430  178.6150  139.7530 C   0  0  1  0  0  3  0  0  0  0  0  0
  190.2630  176.0900  136.3880 C   0  0  0  0  0  3  0  0  0  0  0  0
  190.2290  176.8210  137.5900 O   0  0  0  0  0  0  0  0  0  0  0  0
  187.7430  178.2650  140.0820 C   0  0  0  0  0  2  0  0  0  0  0  0
  187.9000  177.4270  137.3000 C   0  0  2  0  0  3  0  0  0  0  0  0
  189.1530  175.9110  135.6600 C   0  0  0  0  0  3  0  0  0  0  0  0
  185.3290  177.2040  137.1750 C   0  0  1  0  0  3  0  0  0  0  0  0
  186.8270  176.4690  135.3490 N   0  0  0  0  0  0  0  0  0  0  0  0
  189.1000  178.1010  139.3660 C   0  0  0  0  0  2  0  0  0  0  0  0
  184.2280  179.0420  138.7020 C   0  0  0  0  0  2  0  0  0  0  0  0
  184.0880  178.0310  137.5560 C   0  0  2  0  0  3  0  0  0  0  0  0
  186.5990  178.5130  139.0760 C   0  0  1  0  0  3  0  0  0  0  0  0
  185.6230  177.2430  135.6710 C   0  0  0  0  0  2  0  0  0  0  0  0
  181.6900  177.4350  136.9200 C   0  0  0  0  0  0  0  0  0  0  0  0
  180.8010  176.5440  136.8440 O   0  0  0  0  0  0  0  0  0  0  0  0
  182.8870  177.1990  137.6950 N   0  0  0  0  0  0  0  0  0  0  0  0
  181.4540  178.7270  136.2130 C   0  0  0  0  0  1  0  0  0  0  0  0
  183.0060  175.9610  138.4700 C   0  0  0  0  0  3  0  0  0  0  0  0
  181.6350  175.5140  138.9510 C   0  0  0  0  0  2  0  0  0  0  0  0
  182.5830  176.1860  139.9160 C   0  0  0  0  0  2  0  0  0  0  0  0
  185.2710  179.5700  140.7750 O   0  0  0  0  0  0  0  0  0  0  0  0
  184.4920  179.0250  141.7990 C   0  0  0  0  0  2  0  0  0  0  0  0
  185.3130  178.0260  142.5940 C   0  0  0  0  0  2  0  0  0  0  0  0
  185.0670  178.2330  144.0750 C   0  0  0  0  0  2  0  0  0  0  0  0
  185.7990  179.2040  147.0140 C   0  0  0  0  0  1  0  0  0  0  0  0
  186.3390  178.3390  144.7680 N   0  0  0  0  0  0  0  0  0  0  0  0
  186.0970  177.9680  146.1770 C   0  0  1  0  0  3  0  0  0  0  0  0
  188.3860  177.7080  146.3330 C   0  0  0  0  0  2  0  0  0  0  0  0
  188.5960  177.3920  144.8540 C   0  0  0  0  0  2  0  0  0  0  0  0
  187.2460  177.3750  144.1430 C   0  0  0  0  0  2  0  0  0  0  0  0
  187.1440  177.2030  146.7640 O   0  0  0  0  0  0  0  0  0  0  0  0
  1  8  1  0  0  0  0
  2 12  1  1  0  0  0
  3 15  1  0  0  0  0
  4 24  1  0  0  0  0
  5  6  1  0  0  0  0
  6  2  1  0  0  0  0
  8  3  1  0  0  0  0
  8  2  1  0  0  0  0
  9  1  1  0  0  0  0
  9  5  2  0  0  0  0
 10 14  1  0  0  0  0
 10  3  1  0  0  0  0
 11 16  1  0  0  0  0
 11  1  2  0  0  0  0
 12  7  1  0  0  0  0
 13  4  1  0  0  0  0
 14 19  1  0  0  0  0
 14 13  1  0  0  0  0
 15  4  1  0  0  0  0
 15  7  1  0  0  0  0
 16 10  1  0  0  0  0
 17 19  1  0  0  0  0
 18 17  2  0  0  0  0
 19 21  1  0  0  0  0
 20 17  1  0  0  0  0
 21 22  1  0  0  0  0
 21 23  1  0  0  0  0
 22 23  1  0  0  0  0
 24 25  1  0  0  0  0
 25 26  1  0  0  0  0
 26 27  1  0  0  0  0
 27 29  1  0  0  0  0
 29 30  1  0  0  0  0
 30 34  1  0  0  0  0
 30 28  1  0  0  0  0
 31 34  1  0  0  0  0
 32 31  1  0  0  0  0
 33 29  1  0  0  0  0
 33 32  1  0  0  0  0
M  END
>  <MODEL>
8

>  <REMARK>
 VINA RESULT:      -7.6      3.521      7.890
  Name = 
  7 active torsions:
  status: ('A' for Active; 'I' for Inactive)
    1  A    between atoms: C_3  and  N_13
    2  A    between atoms: C_3  and  C_17
    3  A    between atoms: C_5  and  O_18
    4  A    between atoms: C_12  and  N_23
    5  A    between atoms: C_17  and  C_29
    6  A    between atoms: O_18  and  C_29
    7  A    between atoms: N_23  and  C_28
                            x       y       z     vdW  Elec       q    Type
                         _______ _______ _______ _____ _____    ______ ____

>  <TORSDO>
F 7

$$$$
=
 OpenBabel10272400043D

 34 39  0  0  1  0  0  0  0  0999 V2000
  192.3330  175.7060  136.0060 C   0  0  0  0  0  0  0  0  0  0  0  0
  192.8380  176.0150  138.4340 C   0  0  2  0  0  3  0  0  0  0  0  0
  190.5870  176.5020  137.6250 C   0  0  2  0  0  3  0  0  0  0  0  0
  188.9020  177.7450  138.9780 C   0  0  1  0  0  3  0  0  0  0  0  0
  194.5160  175.0980  136.8850 C   0  0  0  0  0  3  0  0  0  0  0  0
  194.1980  175.7690  138.0800 O   0  0  0  0  0  0  0  0  0  0  0  0
  191.2100  177.2320  139.9250 C   0  0  0  0  0  2  0  0  0  0  0  0
  192.0570  176.5260  137.2330 C   0  0  2  0  0  3  0  0  0  0  0  0
  193.6300  175.0220  135.8830 C   0  0  0  0  0  3  0  0  0  0  0  0
  189.6030  176.4610  136.4280 C   0  0  1  0  0  3  0  0  0  0  0  0
  191.4950  175.7300  135.0130 N   0  0  0  0  0  0  0  0  0  0  0  0
  192.6990  177.0240  139.5780 C   0  0  0  0  0  2  0  0  0  0  0  0
  188.2210  178.2830  137.7280 C   0  0  0  0  0  2  0  0  0  0  0  0
  188.3430  177.3400  136.5230 C   0  0  2  0  0  3  0  0  0  0  0  0
  190.3830  177.5970  138.6730 C   0  0  1  0  0  3  0  0  0  0  0  0
  190.2840  176.5570  135.0580 C   0  0  0  0  0  2  0  0  0  0  0  0
  186.9150  175.2470  136.8280 C   0  0  0  0  0  0  0  0  0  0  0  0
  185.7590  174.7460  136.8650 O   0  0  0  0  0  0  0  0  0  0  0  0
  187.1120  176.5750  136.2920 N   0  0  0  0  0  0  0  0  0  0  0  0
  188.0560  174.4250  137.3270 C   0  0  0  0  0  1  0  0  0  0  0  0
  185.9740  177.2850  135.7010 C   0  0  0  0  0  3  0  0  0  0  0  0
  185.5420  176.5970  134.4150 C   0  0  0  0  0  2  0  0  0  0  0  0
  186.3490  177.8720  134.3460 C   0  0  0  0  0  2  0  0  0  0  0  0
  188.7020  178.6450  140.0310 O   0  0  0  0  0  0  0  0  0  0  0  0
  187.4970  178.2500  140.6170 C   0  0  0  0  0  2  0  0  0  0  0  0
  187.6700  178.1310  142.1200 C   0  0  0  0  0  2  0  0  0  0  0  0
  188.3830  176.8340  142.4460 C   0  0  0  0  0  2  0  0  0  0  0  0
  191.1970  176.6880  143.9210 C   0  0  0  0  0  1  0  0  0  0  0  0
  188.7350  176.8140  143.8560 N   0  0  0  0  0  0  0  0  0  0  0  0
  189.9790  177.5970  144.0020 C   0  0  1  0  0  3  0  0  0  0  0  0
  189.4720  177.6780  146.2540 C   0  0  0  0  0  2  0  0  0  0  0  0
  187.9630  177.5320  146.0670 C   0  0  0  0  0  2  0  0  0  0  0  0
  187.6410  177.4690  144.5760 C   0  0  0  0  0  2  0  0  0  0  0  0
  190.0260  178.3990  145.1770 O   0  0  0  0  0  0  0  0  0  0  0  0
  1  8  1  0  0  0  0
  2 12  1  1  0  0  0
  3 15  1  0  0  0  0
  4 24  1  0  0  0  0
  5  6  1  0  0  0  0
  6  2  1  0  0  0  0
  8  3  1  0  0  0  0
  8  2  1  0  0  0  0
  9  1  1  0  0  0  0
  9  5  2  0  0  0  0
 10 14  1  0  0  0  0
 10  3  1  0  0  0  0
 11 16  1  0  0  0  0
 11  1  2  0  0  0  0
 12  7  1  0  0  0  0
 13  4  1  0  0  0  0
 14 13  1  0  0  0  0
 15  4  1  0  0  0  0
 15  7  1  0  0  0  0
 16 10  1  0  0  0  0
 17 18  2  0  0  0  0
 17 20  1  0  0  0  0
 19 14  1  0  0  0  0
 19 17  1  0  0  0  0
 21 19  1  0  0  0  0
 22 21  1  0  0  0  0
 23 22  1  0  0  0  0
 23 21  1  0  0  0  0
 24 25  1  0  0  0  0
 25 26  1  0  0  0  0
 26 27  1  0  0  0  0
 27 29  1  0  0  0  0
 28 30  1  0  0  0  0
 29 30  1  0  0  0  0
 29 33  1  0  0  0  0
 30 34  1  0  0  0  0
 32 31  1  0  0  0  0
 33 32  1  0  0  0  0
 34 31  1  0  0  0  0
M  END
>  <MODEL>
9

>  <REMARK>
 VINA RESULT:      -7.3      3.892      8.308
  Name = 
  7 active torsions:
  status: ('A' for Active; 'I' for Inactive)
    1  A    between atoms: C_3  and  N_13
    2  A    between atoms: C_3  and  C_17
    3  A    between atoms: C_5  and  O_18
    4  A    between atoms: C_12  and  N_23
    5  A    between atoms: C_17  and  C_29
    6  A    between atoms: O_18  and  C_29
    7  A    between atoms: N_23  and  C_28
                            x       y       z     vdW  Elec       q    Type
                         _______ _______ _______ _____ _____    ______ ____

>  <TORSDO>
F 7

$$$$
