=
 OpenBabel10272400143D

 31 34  0  0  1  0  0  0  0  0999 V2000
  188.1180  177.3910  145.7590 C   0  0  0  0  0  0  0  0  0  0  0  0
  186.4870  178.3410  142.5320 C   0  0  0  0  0  0  0  0  0  0  0  0
  185.0170  178.4840  142.9150 C   0  0  1  0  0  3  0  0  0  0  0  0
  183.7930  179.1580  145.0470 C   0  0  0  0  0  2  0  0  0  0  0  0
  187.4710  178.0020  143.4920 C   0  0  0  0  0  0  0  0  0  0  0  0
  189.4590  177.3510  145.3740 C   0  0  0  0  0  3  0  0  0  0  0  0
  184.8590  179.5320  144.0150 C   0  0  0  0  0  2  0  0  0  0  0  0
  188.2360  178.4810  140.8230 C   0  0  0  0  0  0  0  0  0  0  0  0
  187.6710  177.0420  147.4140 Cl  0  0  0  0  0  0  0  0  0  0  0  0
  184.5600  178.3470  140.4240 C   0  0  0  0  0  2  0  0  0  0  0  0
  182.5130  178.5440  144.4720 C   0  0  0  0  0  2  0  0  0  0  0  0
  189.2020  178.1970  141.7930 C   0  0  0  0  0  3  0  0  0  0  0  0
  186.8810  178.5130  141.1850 C   0  0  0  0  0  0  0  0  0  0  0  0
  187.1310  177.7130  144.8240 C   0  0  0  0  0  3  0  0  0  0  0  0
  182.0440  179.2290  143.1980 C   0  0  0  0  0  2  0  0  0  0  0  0
  188.8330  177.9450  143.1110 C   0  0  0  0  0  0  0  0  0  0  0  0
  189.8160  177.6260  144.0520 C   0  0  0  0  0  3  0  0  0  0  0  0
  185.9150  178.6970  140.1930 O   0  0  0  0  0  0  0  0  0  0  0  0
  184.1030  178.9270  141.7510 C   0  0  1  0  0  3  0  0  0  0  0  0
  182.6490  178.5300  141.9870 C   0  0  0  0  0  2  0  0  0  0  0  0
  189.5020  176.5800  138.8950 N   0  0  0  0  0  2  0  0  0  0  0  0
  189.2070  177.7850  138.5360 C   0  0  0  0  0  0  0  0  0  0  0  0
  188.5930  178.7080  139.4500 N   0  0  0  0  0  2  0  0  0  0  0  0
  189.3850  179.5760  136.9810 F   0  0  0  0  0  0  0  0  0  0  0  0
  189.4360  178.1990  137.1160 C   0  0  2  0  0  3  0  0  0  0  0  0
  188.8650  176.1480  135.9800 O   0  0  0  0  0  1  0  0  0  0  0  0
  188.5220  177.4970  136.0940 C   0  0  1  0  0  3  0  0  0  0  0  0
  186.9960  177.6700  136.2530 C   0  0  0  0  0  0  0  0  0  0  0  0
  186.2890  177.7350  134.9100 C   0  0  0  0  0  1  0  0  0  0  0  0
  186.3910  176.5500  137.0800 C   0  0  0  0  0  1  0  0  0  0  0  0
  186.7620  178.8600  136.9160 F   0  0  0  0  0  0  0  0  0  0  0  0
  1  9  1  0  0  0  0
  2  3  1  0  0  0  0
  2  5  1  0  0  0  0
  3  7  1  1  0  0  0
  5 14  1  0  0  0  0
  6  1  1  0  0  0  0
  7  4  1  0  0  0  0
  8 13  1  0  0  0  0
  8 12  2  0  0  0  0
 11  4  1  0  0  0  0
 12 16  1  0  0  0  0
 13  2  2  0  0  0  0
 14  1  2  0  0  0  0
 15 11  1  0  0  0  0
 16  5  2  0  0  0  0
 16 17  1  0  0  0  0
 17  6  2  0  0  0  0
 18 10  1  0  0  0  0
 18 13  1  0  0  0  0
 19 10  1  6  0  0  0
 19 20  1  0  0  0  0
 19  3  1  0  0  0  0
 20 15  1  0  0  0  0
 22 21  2  0  0  0  0
 22 23  1  0  0  0  0
 23  8  1  0  0  0  0
 25 24  1  1  0  0  0
 25 22  1  0  0  0  0
 27 26  1  1  0  0  0
 27 28  1  0  0  0  0
 27 25  1  0  0  0  0
 28 31  1  0  0  0  0
 28 30  1  0  0  0  0
 29 28  1  0  0  0  0
M  END
>  <MODEL>
1

>  <REMARK>
 VINA RESULT:      -9.8      0.000      0.000
  Name = 
  4 active torsions:
  status: ('A' for Active; 'I' for Inactive)
    1  A    between atoms: C_1  and  C_19
    2  A    between atoms: C_9  and  C_22
    3  A    between atoms: C_15  and  N_23
    4  A    between atoms: C_19  and  C_22
                            x       y       z     vdW  Elec       q    Type
                         _______ _______ _______ _____ _____    ______ ____

>  <TORSDO>
F 4

$$$$
=
 OpenBabel10272400143D

 31 34  0  0  1  0  0  0  0  0999 V2000
  188.0620  177.4310  145.9470 C   0  0  0  0  0  0  0  0  0  0  0  0
  186.5370  178.3550  142.6600 C   0  0  0  0  0  0  0  0  0  0  0  0
  185.0550  178.4990  142.9940 C   0  0  1  0  0  3  0  0  0  0  0  0
  183.7610  179.1880  145.0800 C   0  0  0  0  0  2  0  0  0  0  0  0
  187.4900  178.0240  143.6560 C   0  0  0  0  0  0  0  0  0  0  0  0
  189.4150  177.3900  145.6070 C   0  0  0  0  0  3  0  0  0  0  0  0
  184.8610  179.5550  144.0810 C   0  0  0  0  0  2  0  0  0  0  0  0
  188.3420  178.4840  141.0090 C   0  0  0  0  0  0  0  0  0  0  0  0
  187.5610  177.0950  147.5890 Cl  0  0  0  0  0  0  0  0  0  0  0  0
  184.6800  178.3420  140.4910 C   0  0  0  0  0  2  0  0  0  0  0  0
  182.5020  178.5680  144.4680 C   0  0  0  0  0  2  0  0  0  0  0  0
  189.2750  178.2080  142.0120 C   0  0  0  0  0  3  0  0  0  0  0  0
  186.9760  178.5170  141.3260 C   0  0  0  0  0  0  0  0  0  0  0  0
  187.1060  177.7450  144.9780 C   0  0  0  0  0  3  0  0  0  0  0  0
  182.0740  179.2430  143.1740 C   0  0  0  0  0  2  0  0  0  0  0  0
  188.8630  177.9660  143.3190 C   0  0  0  0  0  0  0  0  0  0  0  0
  189.8150  177.6560  144.2950 C   0  0  0  0  0  3  0  0  0  0  0  0
  186.0430  178.6920  140.3020 O   0  0  0  0  0  0  0  0  0  0  0  0
  184.1800  178.9320  141.7970 C   0  0  1  0  0  3  0  0  0  0  0  0
  182.7190  178.5350  141.9880 C   0  0  0  0  0  2  0  0  0  0  0  0
  189.4570  176.5060  139.0650 N   0  0  0  0  0  2  0  0  0  0  0  0
  189.2840  177.7410  138.7250 C   0  0  0  0  0  0  0  0  0  0  0  0
  188.7440  178.7010  139.6470 N   0  0  0  0  0  2  0  0  0  0  0  0
  188.9560  179.3550  137.0100 F   0  0  0  0  0  0  0  0  0  0  0  0
  189.5770  178.1570  137.3180 C   0  0  2  0  0  3  0  0  0  0  0  0
  188.6190  177.6400  135.1630 O   0  0  0  0  0  1  0  0  0  0  0  0
  189.2770  177.0770  136.2610 C   0  0  1  0  0  3  0  0  0  0  0  0
  190.4400  176.1710  135.8050 C   0  0  0  0  0  0  0  0  0  0  0  0
  190.1250  174.6980  136.0090 C   0  0  0  0  0  1  0  0  0  0  0  0
  190.7930  176.4060  134.3470 C   0  0  0  0  0  1  0  0  0  0  0  0
  191.5520  176.4780  136.5660 F   0  0  0  0  0  0  0  0  0  0  0  0
  1  9  1  0  0  0  0
  2  3  1  0  0  0  0
  2  5  1  0  0  0  0
  3  7  1  1  0  0  0
  5 14  1  0  0  0  0
  6  1  1  0  0  0  0
  7  4  1  0  0  0  0
  8 13  1  0  0  0  0
  8 12  2  0  0  0  0
 11  4  1  0  0  0  0
 12 16  1  0  0  0  0
 13  2  2  0  0  0  0
 14  1  2  0  0  0  0
 15 11  1  0  0  0  0
 16  5  2  0  0  0  0
 16 17  1  0  0  0  0
 17  6  2  0  0  0  0
 18 10  1  0  0  0  0
 18 13  1  0  0  0  0
 19 10  1  6  0  0  0
 19 20  1  0  0  0  0
 19  3  1  0  0  0  0
 20 15  1  0  0  0  0
 22 21  2  0  0  0  0
 22 23  1  0  0  0  0
 23  8  1  0  0  0  0
 25 24  1  6  0  0  0
 25 22  1  0  0  0  0
 27 26  1  6  0  0  0
 27 25  1  0  0  0  0
 28 29  1  0  0  0  0
 28 27  1  0  0  0  0
 28 31  1  0  0  0  0
 30 28  1  0  0  0  0
M  END
>  <MODEL>
2

>  <REMARK>
 VINA RESULT:      -9.6      1.198      1.794
  Name = 
  4 active torsions:
  status: ('A' for Active; 'I' for Inactive)
    1  A    between atoms: C_1  and  C_19
    2  A    between atoms: C_9  and  C_22
    3  A    between atoms: C_15  and  N_23
    4  A    between atoms: C_19  and  C_22
                            x       y       z     vdW  Elec       q    Type
                         _______ _______ _______ _____ _____    ______ ____

>  <TORSDO>
F 4

$$$$
=
 OpenBabel10272400143D

 31 34  0  0  1  0  0  0  0  0999 V2000
  189.4030  176.9800  145.7590 C   0  0  0  0  0  0  0  0  0  0  0  0
  187.1250  178.1540  143.0370 C   0  0  0  0  0  0  0  0  0  0  0  0
  185.7890  178.3290  143.7540 C   0  0  1  0  0  3  0  0  0  0  0  0
  185.1170  178.9350  146.1380 C   0  0  0  0  0  2  0  0  0  0  0  0
  188.2860  177.7300  143.7300 C   0  0  0  0  0  0  0  0  0  0  0  0
  190.6180  176.9120  145.0740 C   0  0  0  0  0  3  0  0  0  0  0  0
  185.9360  179.3240  144.9050 C   0  0  0  0  0  2  0  0  0  0  0  0
  188.4430  178.3200  140.9790 C   0  0  0  0  0  0  0  0  0  0  0  0
  189.3300  176.5620  147.4560 Cl  0  0  0  0  0  0  0  0  0  0  0  0
  184.7700  178.3380  141.4320 C   0  0  0  0  0  2  0  0  0  0  0  0
  183.7130  178.3970  145.8470 C   0  0  0  0  0  2  0  0  0  0  0  0
  189.5900  177.9520  141.6880 C   0  0  0  0  0  3  0  0  0  0  0  0
  187.2090  178.3810  141.6440 C   0  0  0  0  0  0  0  0  0  0  0  0
  188.2450  177.3850  145.0910 C   0  0  0  0  0  3  0  0  0  0  0  0
  182.9980  179.1640  144.7450 C   0  0  0  0  0  2  0  0  0  0  0  0
  189.5200  177.6450  143.0430 C   0  0  0  0  0  0  0  0  0  0  0  0
  190.6760  177.2430  143.7190 C   0  0  0  0  0  3  0  0  0  0  0  0
  186.0520  178.6510  140.9100 O   0  0  0  0  0  0  0  0  0  0  0  0
  184.6560  178.8640  142.8520 C   0  0  1  0  0  3  0  0  0  0  0  0
  183.2760  178.5080  143.3990 C   0  0  0  0  0  2  0  0  0  0  0  0
  189.5150  176.6130  138.7720 N   0  0  0  0  0  2  0  0  0  0  0  0
  189.0110  177.7770  138.5220 C   0  0  0  0  0  0  0  0  0  0  0  0
  188.4870  178.6050  139.5720 N   0  0  0  0  0  2  0  0  0  0  0  0
  189.5860  179.4160  136.8990 F   0  0  0  0  0  0  0  0  0  0  0  0
  188.8990  178.2320  137.1000 C   0  0  2  0  0  3  0  0  0  0  0  0
  186.9840  179.6330  136.6600 O   0  0  0  0  0  1  0  0  0  0  0  0
  187.4550  178.3200  136.5730 C   0  0  1  0  0  3  0  0  0  0  0  0
  187.1550  177.7130  135.1860 C   0  0  0  0  0  0  0  0  0  0  0  0
  188.3910  177.0890  134.5600 C   0  0  0  0  0  1  0  0  0  0  0  0
  186.0540  176.6700  135.2590 C   0  0  0  0  0  1  0  0  0  0  0  0
  186.7220  178.7290  134.3540 F   0  0  0  0  0  0  0  0  0  0  0  0
  1  9  1  0  0  0  0
  2  5  1  0  0  0  0
  2  3  1  0  0  0  0
  3  7  1  1  0  0  0
  5 14  2  0  0  0  0
  6  1  2  0  0  0  0
  7  4  1  0  0  0  0
  8 13  1  0  0  0  0
  8 12  2  0  0  0  0
 11  4  1  0  0  0  0
 12 16  1  0  0  0  0
 13  2  2  0  0  0  0
 14  1  1  0  0  0  0
 15 11  1  0  0  0  0
 16 17  2  0  0  0  0
 16  5  1  0  0  0  0
 17  6  1  0  0  0  0
 18 10  1  0  0  0  0
 18 13  1  0  0  0  0
 19 10  1  6  0  0  0
 19 20  1  0  0  0  0
 19  3  1  0  0  0  0
 20 15  1  0  0  0  0
 22 21  2  0  0  0  0
 22 23  1  0  0  0  0
 23  8  1  0  0  0  0
 25 24  1  1  0  0  0
 25 22  1  0  0  0  0
 27 26  1  6  0  0  0
 27 25  1  0  0  0  0
 28 30  1  0  0  0  0
 28 27  1  0  0  0  0
 29 28  1  0  0  0  0
 31 28  1  0  0  0  0
M  END
>  <MODEL>
3

>  <REMARK>
 VINA RESULT:      -9.4      1.255      1.446
  Name = 
  4 active torsions:
  status: ('A' for Active; 'I' for Inactive)
    1  A    between atoms: C_1  and  C_19
    2  A    between atoms: C_9  and  C_22
    3  A    between atoms: C_15  and  N_23
    4  A    between atoms: C_19  and  C_22
                            x       y       z     vdW  Elec       q    Type
                         _______ _______ _______ _____ _____    ______ ____

>  <TORSDO>
F 4

$$$$
=
 OpenBabel10272400143D

 31 34  0  0  1  0  0  0  0  0999 V2000
  189.3910  177.3530  146.8520 C   0  0  0  0  0  0  0  0  0  0  0  0
  187.7880  177.7450  143.4970 C   0  0  0  0  0  0  0  0  0  0  0  0
  188.9520  177.5450  142.5310 C   0  0  1  0  0  3  0  0  0  0  0  0
  191.1130  176.1940  142.6060 C   0  0  0  0  0  2  0  0  0  0  0  0
  187.9680  177.6550  144.8990 C   0  0  0  0  0  0  0  0  0  0  0  0
  188.2790  177.4640  147.6890 C   0  0  0  0  0  3  0  0  0  0  0  0
  189.5890  176.1740  142.7510 C   0  0  0  0  0  2  0  0  0  0  0  0
  185.4000  178.1580  143.8530 C   0  0  0  0  0  0  0  0  0  0  0  0
  190.9790  177.0880  147.5360 Cl  0  0  0  0  0  0  0  0  0  0  0  0
  187.4400  178.6150  140.8000 C   0  0  0  0  0  2  0  0  0  0  0  0
  191.6490  177.0410  141.4480 C   0  0  0  0  0  2  0  0  0  0  0  0
  185.5840  178.0150  145.2310 C   0  0  0  0  0  3  0  0  0  0  0  0
  186.5060  178.0630  142.9950 C   0  0  0  0  0  0  0  0  0  0  0  0
  189.2360  177.4480  145.4670 C   0  0  0  0  0  3  0  0  0  0  0  0
  190.8260  176.8990  140.1760 C   0  0  0  0  0  2  0  0  0  0  0  0
  186.8500  177.7810  145.7590 C   0  0  0  0  0  0  0  0  0  0  0  0
  187.0120  177.6790  147.1440 C   0  0  0  0  0  3  0  0  0  0  0  0
  186.3310  178.3080  141.6310 O   0  0  0  0  0  0  0  0  0  0  0  0
  188.5520  177.6100  141.0410 C   0  0  1  0  0  3  0  0  0  0  0  0
  189.7370  177.9650  140.1480 C   0  0  0  0  0  2  0  0  0  0  0  0
  182.9770  179.2470  145.2240 N   0  0  0  0  0  2  0  0  0  0  0  0
  182.9490  178.9550  143.9650 C   0  0  0  0  0  0  0  0  0  0  0  0
  184.1070  178.4360  143.2920 N   0  0  0  0  0  2  0  0  0  0  0  0
  180.5990  179.3170  144.0030 F   0  0  0  0  0  0  0  0  0  0  0  0
  181.7080  179.2410  143.1780 C   0  0  2  0  0  3  0  0  0  0  0  0
  180.2090  177.6870  142.1000 O   0  0  0  0  0  1  0  0  0  0  0  0
  181.4690  178.2810  141.9970 C   0  0  1  0  0  3  0  0  0  0  0  0
  181.7150  178.8180  140.5710 C   0  0  0  0  0  0  0  0  0  0  0  0
  181.5920  177.7240  139.5240 C   0  0  0  0  0  1  0  0  0  0  0  0
  180.7580  179.9450  140.2270 C   0  0  0  0  0  1  0  0  0  0  0  0
  183.0010  179.3210  140.5130 F   0  0  0  0  0  0  0  0  0  0  0  0
  1  9  1  0  0  0  0
  1  6  1  0  0  0  0
  2  5  1  0  0  0  0
  3  7  1  1  0  0  0
  3  2  1  0  0  0  0
  4  7  1  0  0  0  0
  5 14  1  0  0  0  0
  5 16  2  0  0  0  0
  8 12  2  0  0  0  0
 10 19  1  0  0  0  0
 10 18  1  0  0  0  0
 11  4  1  0  0  0  0
 12 16  1  0  0  0  0
 13  2  2  0  0  0  0
 13  8  1  0  0  0  0
 14  1  2  0  0  0  0
 15 11  1  0  0  0  0
 16 17  1  0  0  0  0
 17  6  2  0  0  0  0
 18 13  1  0  0  0  0
 19 20  1  6  0  0  0
 19  3  1  0  0  0  0
 20 15  1  0  0  0  0
 22 21  2  0  0  0  0
 23  8  1  0  0  0  0
 23 22  1  0  0  0  0
 25 22  1  0  0  0  0
 25 24  1  1  0  0  0
 27 26  1  6  0  0  0
 27 25  1  0  0  0  0
 28 27  1  0  0  0  0
 29 28  1  0  0  0  0
 30 28  1  0  0  0  0
 31 28  1  0  0  0  0
M  END
>  <MODEL>
4

>  <REMARK>
 VINA RESULT:      -9.4      3.413      6.448
  Name = 
  4 active torsions:
  status: ('A' for Active; 'I' for Inactive)
    1  A    between atoms: C_1  and  C_19
    2  A    between atoms: C_9  and  C_22
    3  A    between atoms: C_15  and  N_23
    4  A    between atoms: C_19  and  C_22
                            x       y       z     vdW  Elec       q    Type
                         _______ _______ _______ _____ _____    ______ ____

>  <TORSDO>
F 4

$$$$
=
 OpenBabel10272400143D

 31 34  0  0  1  0  0  0  0  0999 V2000
  187.2100  177.7860  146.7800 C   0  0  0  0  0  0  0  0  0  0  0  0
  186.7720  178.0660  143.0780 C   0  0  0  0  0  0  0  0  0  0  0  0
  188.1360  177.6460  142.5350 C   0  0  1  0  0  3  0  0  0  0  0  0
  189.9610  176.0620  143.3460 C   0  0  0  0  0  2  0  0  0  0  0  0
  186.5040  178.0800  144.4690 C   0  0  0  0  0  0  0  0  0  0  0  0
  185.9230  178.1010  147.2210 C   0  0  0  0  0  3  0  0  0  0  0  0
  188.4790  176.2350  143.0080 C   0  0  0  0  0  2  0  0  0  0  0  0
  184.4710  178.7860  142.6490 C   0  0  0  0  0  0  0  0  0  0  0  0
  188.4620  177.3980  147.9380 Cl  0  0  0  0  0  0  0  0  0  0  0  0
  187.3850  178.7290  140.3680 C   0  0  0  0  0  2  0  0  0  0  0  0
  190.9360  176.7350  142.3750 C   0  0  0  0  0  2  0  0  0  0  0  0
  184.2060  178.7440  144.0210 C   0  0  0  0  0  3  0  0  0  0  0  0
  185.7610  178.4870  142.1850 C   0  0  0  0  0  0  0  0  0  0  0  0
  187.4980  177.7760  145.4130 C   0  0  0  0  0  3  0  0  0  0  0  0
  190.5270  176.5790  140.9180 C   0  0  0  0  0  2  0  0  0  0  0  0
  185.2070  178.4110  144.9280 C   0  0  0  0  0  0  0  0  0  0  0  0
  184.9240  178.4130  146.2970 C   0  0  0  0  0  3  0  0  0  0  0  0
  186.0450  178.6280  140.8250 O   0  0  0  0  0  0  0  0  0  0  0  0
  188.2200  177.6260  140.9920 C   0  0  1  0  0  3  0  0  0  0  0  0
  189.6580  177.7580  140.4990 C   0  0  0  0  0  2  0  0  0  0  0  0
  182.9900  177.0450  140.7230 N   0  0  0  0  0  2  0  0  0  0  0  0
  182.7610  178.3160  140.7750 C   0  0  0  0  0  0  0  0  0  0  0  0
  183.4610  179.1630  141.6990 N   0  0  0  0  0  2  0  0  0  0  0  0
  180.8250  177.9180  139.4530 F   0  0  0  0  0  0  0  0  0  0  0  0
  181.6870  178.8990  139.9110 C   0  0  2  0  0  3  0  0  0  0  0  0
  182.4160  179.0020  137.6120 O   0  0  0  0  0  1  0  0  0  0  0  0
  182.2070  179.7770  138.7570 C   0  0  1  0  0  3  0  0  0  0  0  0
  181.4250  181.0640  138.4200 C   0  0  0  0  0  0  0  0  0  0  0  0
  180.8260  181.0160  137.0240 C   0  0  0  0  0  1  0  0  0  0  0  0
  180.3190  181.3240  139.4270 C   0  0  0  0  0  1  0  0  0  0  0  0
  182.3030  182.1300  138.4710 F   0  0  0  0  0  0  0  0  0  0  0  0
  1  6  1  0  0  0  0
  1  9  1  0  0  0  0
  2  5  1  0  0  0  0
  3  7  1  6  0  0  0
  3  2  1  0  0  0  0
  5 16  2  0  0  0  0
  5 14  1  0  0  0  0
  7  4  1  0  0  0  0
  8 12  2  0  0  0  0
 10 18  1  0  0  0  0
 11  4  1  0  0  0  0
 12 16  1  0  0  0  0
 13  8  1  0  0  0  0
 13  2  2  0  0  0  0
 14  1  2  0  0  0  0
 15 11  1  0  0  0  0
 16 17  1  0  0  0  0
 17  6  2  0  0  0  0
 18 13  1  0  0  0  0
 19 10  1  6  0  0  0
 19  3  1  0  0  0  0
 20 15  1  0  0  0  0
 20 19  1  0  0  0  0
 21 22  2  0  0  0  0
 22 23  1  0  0  0  0
 23  8  1  0  0  0  0
 25 24  1  6  0  0  0
 25 22  1  0  0  0  0
 27 26  1  6  0  0  0
 27 25  1  0  0  0  0
 28 31  1  0  0  0  0
 28 27  1  0  0  0  0
 28 30  1  0  0  0  0
 29 28  1  0  0  0  0
M  END
>  <MODEL>
5

>  <REMARK>
 VINA RESULT:      -9.3      3.326      5.728
  Name = 
  4 active torsions:
  status: ('A' for Active; 'I' for Inactive)
    1  A    between atoms: C_1  and  C_19
    2  A    between atoms: C_9  and  C_22
    3  A    between atoms: C_15  and  N_23
    4  A    between atoms: C_19  and  C_22
                            x       y       z     vdW  Elec       q    Type
                         _______ _______ _______ _____ _____    ______ ____

>  <TORSDO>
F 4

$$$$
=
 OpenBabel10272400143D

 31 34  0  0  1  0  0  0  0  0999 V2000
  190.7020  177.4220  140.5460 C   0  0  0  0  0  0  0  0  0  0  0  0
  188.2870  177.8490  143.3670 C   0  0  0  0  0  0  0  0  0  0  0  0
  189.1200  177.4900  144.5940 C   0  0  1  0  0  3  0  0  0  0  0  0
  191.5940  177.6760  145.1800 C   0  0  0  0  0  2  0  0  0  0  0  0
  188.8450  177.8340  142.0650 C   0  0  0  0  0  0  0  0  0  0  0  0
  189.9210  177.8350  139.4650 C   0  0  0  0  0  3  0  0  0  0  0  0
  190.3410  178.4030  144.6860 C   0  0  0  0  0  2  0  0  0  0  0  0
  186.1550  178.5960  142.4190 C   0  0  0  0  0  0  0  0  0  0  0  0
  192.3540  176.9100  140.2860 Cl  0  0  0  0  0  0  0  0  0  0  0  0
  186.8960  177.2630  145.7910 C   0  0  0  0  0  2  0  0  0  0  0  0
  191.3670  176.6860  146.3260 C   0  0  0  0  0  2  0  0  0  0  0  0
  186.7350  178.6260  141.1480 C   0  0  0  0  0  3  0  0  0  0  0  0
  186.9180  178.1700  143.5170 C   0  0  0  0  0  0  0  0  0  0  0  0
  190.1670  177.4200  141.8360 C   0  0  0  0  0  3  0  0  0  0  0  0
  190.3990  177.2050  147.3780 C   0  0  0  0  0  2  0  0  0  0  0  0
  188.0580  178.2380  140.9600 C   0  0  0  0  0  0  0  0  0  0  0  0
  188.6010  178.2420  139.6720 C   0  0  0  0  0  3  0  0  0  0  0  0
  186.3050  178.0460  144.7650 O   0  0  0  0  0  0  0  0  0  0  0  0
  188.3620  177.6310  145.9320 C   0  0  1  0  0  3  0  0  0  0  0  0
  188.9810  176.7710  147.0300 C   0  0  0  0  0  2  0  0  0  0  0  0
  183.7390  177.6400  140.9420 N   0  0  0  0  0  2  0  0  0  0  0  0
  183.6290  178.4930  141.9050 C   0  0  0  0  0  0  0  0  0  0  0  0
  184.7800  178.9580  142.6280 N   0  0  0  0  0  2  0  0  0  0  0  0
  181.9940  178.5640  143.6310 F   0  0  0  0  0  0  0  0  0  0  0  0
  182.2650  178.9430  142.3280 C   0  0  2  0  0  3  0  0  0  0  0  0
  179.9950  178.1580  142.0930 O   0  0  0  0  0  1  0  0  0  0  0  0
  181.1330  178.5250  141.3700 C   0  0  1  0  0  3  0  0  0  0  0  0
  180.7720  179.4860  140.2170 C   0  0  0  0  0  0  0  0  0  0  0  0
  179.9820  178.7870  139.1230 C   0  0  0  0  0  1  0  0  0  0  0  0
  179.9820  180.6830  140.7140 C   0  0  0  0  0  1  0  0  0  0  0  0
  181.9480  179.9550  139.6610 F   0  0  0  0  0  0  0  0  0  0  0  0
  1 14  1  0  0  0  0
  2 13  2  0  0  0  0
  2  3  1  0  0  0  0
  3  7  1  1  0  0  0
  3 19  1  0  0  0  0
  4 11  1  0  0  0  0
  5  2  1  0  0  0  0
  6 17  1  0  0  0  0
  6  1  2  0  0  0  0
  7  4  1  0  0  0  0
  8 23  1  0  0  0  0
  8 13  1  0  0  0  0
  9  1  1  0  0  0  0
 11 15  1  0  0  0  0
 12  8  2  0  0  0  0
 13 18  1  0  0  0  0
 14  5  2  0  0  0  0
 16 12  1  0  0  0  0
 16  5  1  0  0  0  0
 17 16  2  0  0  0  0
 18 10  1  0  0  0  0
 19 10  1  6  0  0  0
 19 20  1  0  0  0  0
 20 15  1  0  0  0  0
 21 22  2  0  0  0  0
 22 25  1  0  0  0  0
 22 23  1  0  0  0  0
 25 24  1  1  0  0  0
 27 26  1  1  0  0  0
 27 25  1  0  0  0  0
 28 30  1  0  0  0  0
 28 27  1  0  0  0  0
 29 28  1  0  0  0  0
 31 28  1  0  0  0  0
M  END
>  <MODEL>
6

>  <REMARK>
 VINA RESULT:      -9.1      3.800      6.665
  Name = 
  4 active torsions:
  status: ('A' for Active; 'I' for Inactive)
    1  A    between atoms: C_1  and  C_19
    2  A    between atoms: C_9  and  C_22
    3  A    between atoms: C_15  and  N_23
    4  A    between atoms: C_19  and  C_22
                            x       y       z     vdW  Elec       q    Type
                         _______ _______ _______ _____ _____    ______ ____

>  <TORSDO>
F 4

$$$$
=
 OpenBabel10272400143D

 31 34  0  0  1  0  0  0  0  0999 V2000
  186.5590  178.0900  146.4370 C   0  0  0  0  0  0  0  0  0  0  0  0
  187.0520  178.1520  142.7320 C   0  0  0  0  0  0  0  0  0  0  0  0
  188.4830  177.6470  142.5640 C   0  0  1  0  0  3  0  0  0  0  0  0
  189.9700  176.0500  143.8810 C   0  0  0  0  0  2  0  0  0  0  0  0
  186.4540  178.2640  144.0110 C   0  0  0  0  0  0  0  0  0  0  0  0
  185.2220  178.4810  146.5310 C   0  0  0  0  0  3  0  0  0  0  0  0
  188.6250  176.2570  143.1800 C   0  0  0  0  0  2  0  0  0  0  0  0
  184.9660  178.9310  141.7130 C   0  0  0  0  0  0  0  0  0  0  0  0
  187.4690  177.7280  147.8870 Cl  0  0  0  0  0  0  0  0  0  0  0  0
  188.3400  178.6200  140.2270 C   0  0  0  0  0  2  0  0  0  0  0  0
  191.1850  176.6220  143.1460 C   0  0  0  0  0  2  0  0  0  0  0  0
  184.3730  178.9870  142.9770 C   0  0  0  0  0  3  0  0  0  0  0  0
  186.3120  178.5550  141.5970 C   0  0  0  0  0  0  0  0  0  0  0  0
  187.1700  177.9830  145.1860 C   0  0  0  0  0  3  0  0  0  0  0  0
  191.1370  176.3900  141.6440 C   0  0  0  0  0  2  0  0  0  0  0  0
  185.1030  178.6730  144.1200 C   0  0  0  0  0  0  0  0  0  0  0  0
  184.4960  178.7730  145.3750 C   0  0  0  0  0  3  0  0  0  0  0  0
  186.9260  178.5990  140.3440 O   0  0  0  0  0  0  0  0  0  0  0  0
  188.9390  177.5270  141.0940 C   0  0  1  0  0  3  0  0  0  0  0  0
  190.4590  177.5730  140.9640 C   0  0  0  0  0  2  0  0  0  0  0  0
  182.7290  177.4520  140.3920 N   0  0  0  0  0  2  0  0  0  0  0  0
  183.1690  178.5630  139.8980 C   0  0  0  0  0  0  0  0  0  0  0  0
  184.2390  179.2870  140.5250 N   0  0  0  0  0  2  0  0  0  0  0  0
  181.5220  180.0590  139.0610 F   0  0  0  0  0  0  0  0  0  0  0  0
  182.4930  179.1440  138.6960 C   0  0  2  0  0  3  0  0  0  0  0  0
  180.9310  178.6560  136.9220 O   0  0  0  0  0  1  0  0  0  0  0  0
  181.9410  178.0970  137.7100 C   0  0  1  0  0  3  0  0  0  0  0  0
  182.9530  177.3170  136.8440 C   0  0  0  0  0  0  0  0  0  0  0  0
  182.9880  175.8410  137.2020 C   0  0  0  0  0  1  0  0  0  0  0  0
  182.6490  177.4620  135.3630 C   0  0  0  0  0  1  0  0  0  0  0  0
  184.2120  177.8410  137.0710 F   0  0  0  0  0  0  0  0  0  0  0  0
  1  6  1  0  0  0  0
  1  9  1  0  0  0  0
  2  5  1  0  0  0  0
  3  2  1  0  0  0  0
  3  7  1  6  0  0  0
  5 16  2  0  0  0  0
  5 14  1  0  0  0  0
  7  4  1  0  0  0  0
  8 12  2  0  0  0  0
 10 18  1  0  0  0  0
 11  4  1  0  0  0  0
 12 16  1  0  0  0  0
 13  8  1  0  0  0  0
 13  2  2  0  0  0  0
 14  1  2  0  0  0  0
 15 11  1  0  0  0  0
 16 17  1  0  0  0  0
 17  6  2  0  0  0  0
 18 13  1  0  0  0  0
 19 10  1  6  0  0  0
 19  3  1  0  0  0  0
 20 19  1  0  0  0  0
 20 15  1  0  0  0  0
 22 21  2  0  0  0  0
 22 23  1  0  0  0  0
 23  8  1  0  0  0  0
 25 24  1  1  0  0  0
 25 22  1  0  0  0  0
 27 26  1  6  0  0  0
 27 25  1  0  0  0  0
 28 31  1  0  0  0  0
 28 29  1  0  0  0  0
 28 27  1  0  0  0  0
 30 28  1  0  0  0  0
M  END
>  <MODEL>
7

>  <REMARK>
 VINA RESULT:      -9.0      2.747      5.332
  Name = 
  4 active torsions:
  status: ('A' for Active; 'I' for Inactive)
    1  A    between atoms: C_1  and  C_19
    2  A    between atoms: C_9  and  C_22
    3  A    between atoms: C_15  and  N_23
    4  A    between atoms: C_19  and  C_22
                            x       y       z     vdW  Elec       q    Type
                         _______ _______ _______ _____ _____    ______ ____

>  <TORSDO>
F 4

$$$$
=
 OpenBabel10272400143D

 31 34  0  0  1  0  0  0  0  0999 V2000
  183.7310  178.7080  143.2890 C   0  0  0  0  0  0  0  0  0  0  0  0
  187.3920  178.1710  142.7550 C   0  0  0  0  0  0  0  0  0  0  0  0
  187.9230  177.9680  144.1720 C   0  0  1  0  0  3  0  0  0  0  0  0
  186.9370  177.0140  146.3200 C   0  0  0  0  0  2  0  0  0  0  0  0
  186.0150  178.3910  142.5070 C   0  0  0  0  0  0  0  0  0  0  0  0
  183.2850  178.8080  141.9700 C   0  0  0  0  0  3  0  0  0  0  0  0
  187.2180  176.7850  144.8330 C   0  0  0  0  0  2  0  0  0  0  0  0
  187.8180  178.2680  140.3460 C   0  0  0  0  0  0  0  0  0  0  0  0
  182.5920  178.8360  144.6110 Cl  0  0  0  0  0  0  0  0  0  0  0  0
  190.2070  178.4240  143.1680 C   0  0  0  0  0  2  0  0  0  0  0  0
  188.0670  177.6880  147.1040 C   0  0  0  0  0  2  0  0  0  0  0  0
  186.4500  178.4310  140.1130 C   0  0  0  0  0  3  0  0  0  0  0  0
  188.2900  178.1790  141.6640 C   0  0  0  0  0  0  0  0  0  0  0  0
  185.0860  178.5020  143.5550 C   0  0  0  0  0  3  0  0  0  0  0  0
  189.4460  177.1700  146.7240 C   0  0  0  0  0  2  0  0  0  0  0  0
  185.5530  178.5080  141.1740 C   0  0  0  0  0  0  0  0  0  0  0  0
  184.1940  178.7090  140.9150 C   0  0  0  0  0  3  0  0  0  0  0  0
  189.6660  178.1180  141.8920 O   0  0  0  0  0  0  0  0  0  0  0  0
  189.4380  177.6730  144.2400 C   0  0  1  0  0  3  0  0  0  0  0  0
  190.0250  178.0240  145.6040 C   0  0  0  0  0  2  0  0  0  0  0  0
  187.7880  176.5190  137.9210 N   0  0  0  0  0  2  0  0  0  0  0  0
  188.7400  177.3730  138.1070 C   0  0  0  0  0  0  0  0  0  0  0  0
  188.7650  178.2230  139.2650 N   0  0  0  0  0  2  0  0  0  0  0  0
  189.3560  178.3580  136.0330 F   0  0  0  0  0  0  0  0  0  0  0  0
  189.7920  177.5330  137.0550 C   0  0  2  0  0  3  0  0  0  0  0  0
  190.6580  176.3280  135.1510 O   0  0  0  0  0  1  0  0  0  0  0  0
  190.3520  176.2060  136.5100 C   0  0  1  0  0  3  0  0  0  0  0  0
  191.5120  175.5410  137.2820 C   0  0  0  0  0  0  0  0  0  0  0  0
  192.1070  174.3720  136.5160 C   0  0  0  0  0  1  0  0  0  0  0  0
  192.6120  176.5370  137.6020 C   0  0  0  0  0  1  0  0  0  0  0  0
  191.0150  175.0590  138.4780 F   0  0  0  0  0  0  0  0  0  0  0  0
  1 14  1  0  0  0  0
  1  9  1  0  0  0  0
  2  3  1  0  0  0  0
  3 19  1  0  0  0  0
  3  7  1  6  0  0  0
  4 11  1  0  0  0  0
  5  2  1  0  0  0  0
  5 14  2  0  0  0  0
  6  1  2  0  0  0  0
  7  4  1  0  0  0  0
  8 13  1  0  0  0  0
 12  8  2  0  0  0  0
 12 16  1  0  0  0  0
 13 18  1  0  0  0  0
 13  2  2  0  0  0  0
 15 11  1  0  0  0  0
 16  5  1  0  0  0  0
 17 16  2  0  0  0  0
 17  6  1  0  0  0  0
 18 10  1  0  0  0  0
 19 10  1  6  0  0  0
 19 20  1  0  0  0  0
 20 15  1  0  0  0  0
 21 22  2  0  0  0  0
 22 23  1  0  0  0  0
 23  8  1  0  0  0  0
 25 24  1  6  0  0  0
 25 22  1  0  0  0  0
 27 26  1  6  0  0  0
 27 25  1  0  0  0  0
 27 28  1  0  0  0  0
 28 30  1  0  0  0  0
 28 31  1  0  0  0  0
 29 28  1  0  0  0  0
M  END
>  <MODEL>
8

>  <REMARK>
 VINA RESULT:      -8.9      2.278      4.657
  Name = 
  4 active torsions:
  status: ('A' for Active; 'I' for Inactive)
    1  A    between atoms: C_1  and  C_19
    2  A    between atoms: C_9  and  C_22
    3  A    between atoms: C_15  and  N_23
    4  A    between atoms: C_19  and  C_22
                            x       y       z     vdW  Elec       q    Type
                         _______ _______ _______ _____ _____    ______ ____

>  <TORSDO>
F 4

$$$$
=
 OpenBabel10272400143D

 31 34  0  0  1  0  0  0  0  0999 V2000
  184.0030  178.6900  138.9230 C   0  0  0  0  0  0  0  0  0  0  0  0
  187.6640  177.9580  139.1220 C   0  0  0  0  0  0  0  0  0  0  0  0
  188.0340  177.6470  137.6740 C   0  0  1  0  0  3  0  0  0  0  0  0
  187.1500  178.4130  135.4090 C   0  0  0  0  0  2  0  0  0  0  0  0
  186.3410  178.3140  139.4860 C   0  0  0  0  0  0  0  0  0  0  0  0
  183.7330  179.0430  140.2470 C   0  0  0  0  0  3  0  0  0  0  0  0
  187.6920  178.8350  136.7760 C   0  0  0  0  0  2  0  0  0  0  0  0
  188.3550  178.2300  141.4550 C   0  0  0  0  0  0  0  0  0  0  0  0
  182.7200  178.7070  137.7340 Cl  0  0  0  0  0  0  0  0  0  0  0  0
  190.1390  176.6170  138.6430 C   0  0  0  0  0  2  0  0  0  0  0  0
  187.8650  177.2240  134.7610 C   0  0  0  0  0  2  0  0  0  0  0  0
  187.0580  178.6290  141.7900 C   0  0  0  0  0  3  0  0  0  0  0  0
  188.6450  177.8580  140.1340 C   0  0  0  0  0  0  0  0  0  0  0  0
  185.2980  178.3270  138.5460 C   0  0  0  0  0  3  0  0  0  0  0  0
  189.3760  177.2720  134.9290 C   0  0  0  0  0  2  0  0  0  0  0  0
  186.0530  178.6600  140.8280 C   0  0  0  0  0  0  0  0  0  0  0  0
  184.7560  179.0270  141.1970 C   0  0  0  0  0  3  0  0  0  0  0  0
  189.9150  177.3640  139.8290 O   0  0  0  0  0  0  0  0  0  0  0  0
  189.5340  177.3490  137.4580 C   0  0  1  0  0  3  0  0  0  0  0  0
  189.7750  176.5260  136.1960 C   0  0  0  0  0  2  0  0  0  0  0  0
  189.3110  175.8370  142.9710 N   0  0  0  0  0  2  0  0  0  0  0  0
  189.8430  176.9990  143.1670 C   0  0  0  0  0  0  0  0  0  0  0  0
  189.3970  178.1560  142.4420 N   0  0  0  0  0  2  0  0  0  0  0  0
  192.0720  176.3550  143.6870 F   0  0  0  0  0  0  0  0  0  0  0  0
  190.9990  177.1210  144.1090 C   0  0  2  0  0  3  0  0  0  0  0  0
  191.8070  176.8520  146.3680 O   0  0  0  0  0  1  0  0  0  0  0  0
  190.6500  176.8420  145.5830 C   0  0  1  0  0  3  0  0  0  0  0  0
  189.5320  177.6850  146.2320 C   0  0  0  0  0  0  0  0  0  0  0  0
  188.1530  177.1150  145.9470 C   0  0  0  0  0  1  0  0  0  0  0  0
  189.7210  177.8010  147.7340 C   0  0  0  0  0  1  0  0  0  0  0  0
  189.5850  178.9590  145.6990 F   0  0  0  0  0  0  0  0  0  0  0  0
  1  6  1  0  0  0  0
  2  5  2  0  0  0  0
  2 13  1  0  0  0  0
  3  7  1  6  0  0  0
  3  2  1  0  0  0  0
  4  7  1  0  0  0  0
  5 16  1  0  0  0  0
  6 17  2  0  0  0  0
  8 12  1  0  0  0  0
  8 23  1  0  0  0  0
  9  1  1  0  0  0  0
 10 18  1  0  0  0  0
 11 15  1  0  0  0  0
 11  4  1  0  0  0  0
 13  8  2  0  0  0  0
 14  1  2  0  0  0  0
 14  5  1  0  0  0  0
 15 20  1  0  0  0  0
 16 17  1  0  0  0  0
 16 12  2  0  0  0  0
 18 13  1  0  0  0  0
 19 20  1  6  0  0  0
 19  3  1  0  0  0  0
 19 10  1  0  0  0  0
 21 22  2  0  0  0  0
 22 25  1  0  0  0  0
 23 22  1  0  0  0  0
 25 24  1  6  0  0  0
 25 27  1  0  0  0  0
 27 28  1  0  0  0  0
 27 26  1  1  0  0  0
 28 30  1  0  0  0  0
 29 28  1  0  0  0  0
 31 28  1  0  0  0  0
M  END
>  <MODEL>
9

>  <REMARK>
 VINA RESULT:      -8.4      3.703      7.721
  Name = 
  4 active torsions:
  status: ('A' for Active; 'I' for Inactive)
    1  A    between atoms: C_1  and  C_19
    2  A    between atoms: C_9  and  C_22
    3  A    between atoms: C_15  and  N_23
    4  A    between atoms: C_19  and  C_22
                            x       y       z     vdW  Elec       q    Type
                         _______ _______ _______ _____ _____    ______ ____

>  <TORSDO>
F 4

$$$$
