=
 OpenBabel10272415093D

 34 40  0  0  0  0  0  0  0  0999 V2000
  186.6920  178.2150  143.8850 C   0  0  0  0  0  0  0  0  0  0  0  0
  188.3080  177.4640  147.2210 C   0  0  0  0  0  3  0  0  0  0  0  0
  186.1160  178.0980  146.6540 C   0  0  0  0  0  3  0  0  0  0  0  0
  185.5650  178.7500  141.6250 C   0  0  0  0  0  0  0  0  0  0  0  0
  186.8370  178.3180  142.3720 C   0  0  0  0  0  2  0  0  0  0  0  0
  184.3590  178.8460  143.7320 C   0  0  0  0  0  0  0  0  0  0  0  0
  183.3520  179.0200  144.6740 C   0  0  0  0  0  3  0  0  0  0  0  0
  184.3980  178.9840  142.2760 C   0  0  0  0  0  3  0  0  0  0  0  0
  185.1500  178.4420  145.7200 C   0  0  0  0  0  0  0  0  0  0  0  0
  185.4560  178.4880  144.4150 C   0  0  0  0  0  0  0  0  0  0  0  0
  183.8540  178.7650  145.9190 N   0  0  0  0  0  0  0  0  0  0  0  0
  189.6520  177.1250  147.1900 C   0  0  0  0  0  3  0  0  0  0  0  0
  190.5240  177.0270  146.1150 C   0  0  0  0  0  0  0  0  0  0  0  0
  190.1810  177.2120  144.7810 C   0  0  0  0  0  3  0  0  0  0  0  0
  187.4260  177.7990  146.2000 C   0  0  0  0  0  0  0  0  0  0  0  0
  188.9690  177.5750  144.2150 C   0  0  0  0  0  3  0  0  0  0  0  0
  187.7290  177.8550  144.7900 C   0  0  0  0  0  0  0  0  0  0  0  0
  191.9300  176.5860  146.4070 C   0  0  0  0  0  3  0  0  0  0  0  0
  192.0280  175.0670  146.4190 C   0  0  0  0  0  2  0  0  0  0  0  0
  191.9970  175.8270  147.7240 C   0  0  0  0  0  2  0  0  0  0  0  0
  185.6600  178.8540  140.2270 O   0  0  0  0  0  0  0  0  0  0  0  0
  187.3330  177.4610  137.2370 C   0  0  0  0  0  3  0  0  0  0  0  0
  188.0100  178.2080  139.8460 C   0  0  0  0  0  3  0  0  0  0  0  0
  190.6800  175.9720  137.5220 N   0  0  0  0  0  0  0  0  0  0  0  0
  191.3540  174.8940  136.8520 C   0  0  0  0  0  0  0  0  0  0  0  0
  189.7110  176.7900  136.7780 C   0  0  0  0  0  2  0  0  0  0  0  0
  192.2290  174.2190  137.4570 O   0  0  0  0  0  0  0  0  0  0  0  0
  188.6450  177.3110  137.6880 C   0  0  0  0  0  0  0  0  0  0  0  0
  191.0400  174.5510  135.4340 C   0  0  0  0  0  1  0  0  0  0  0  0
  190.4040  177.5630  139.4410 C   0  0  0  0  0  2  0  0  0  0  0  0
  188.9850  177.6850  138.9930 C   0  0  0  0  0  0  0  0  0  0  0  0
  191.0250  176.2610  138.9250 C   0  0  0  0  0  2  0  0  0  0  0  0
  186.6840  178.3590  139.4020 C   0  0  0  0  0  0  0  0  0  0  0  0
  186.3570  177.9780  138.0950 C   0  0  0  0  0  3  0  0  0  0  0  0
  1 10  1  0  0  0  0
  1 17  2  0  0  0  0
  4  8  2  0  0  0  0
  4  5  1  0  0  0  0
  5  1  1  0  0  0  0
  6 10  2  0  0  0  0
  6  7  1  0  0  0  0
  7 11  2  0  0  0  0
  8  6  1  0  0  0  0
  9 11  1  0  0  0  0
  9  3  2  0  0  0  0
 10  9  1  0  0  0  0
 12  2  1  0  0  0  0
 13 18  1  0  0  0  0
 13 12  2  0  0  0  0
 14 13  1  0  0  0  0
 15  3  1  0  0  0  0
 15  2  2  0  0  0  0
 16 14  2  0  0  0  0
 16 17  1  0  0  0  0
 17 15  1  0  0  0  0
 18 19  1  0  0  0  0
 18 20  1  0  0  0  0
 19 20  1  0  0  0  0
 21  4  1  0  0  0  0
 22 28  2  0  0  0  0
 22 34  1  0  0  0  0
 24 32  1  0  0  0  0
 25 27  2  0  0  0  0
 25 24  1  0  0  0  0
 26 24  1  0  0  0  0
 26 28  1  0  0  0  0
 28 31  1  0  0  0  0
 29 25  1  0  0  0  0
 31 30  1  0  0  0  0
 31 23  2  0  0  0  0
 32 30  1  0  0  0  0
 33 23  1  0  0  0  0
 33 21  1  0  0  0  0
 34 33  2  0  0  0  0
M  END
>  <MODEL>
1

>  <REMARK>
 VINA RESULT:     -12.4      0.000      0.000
  Name = 
  3 active torsions:
  status: ('A' for Active; 'I' for Inactive)
    1  A    between atoms: C_3  and  C_25
    2  A    between atoms: C_8  and  O_18
    3  A    between atoms: O_18  and  C_30
                            x       y       z     vdW  Elec       q    Type
                         _______ _______ _______ _____ _____    ______ ____

>  <TORSDO>
F 3

$$$$
=
 OpenBabel10272415093D

 34 40  0  0  0  0  0  0  0  0999 V2000
  188.3100  177.6160  144.6150 C   0  0  0  0  0  0  0  0  0  0  0  0
  185.2390  178.4620  146.6540 C   0  0  0  0  0  3  0  0  0  0  0  0
  187.3940  177.7690  147.2890 C   0  0  0  0  0  3  0  0  0  0  0  0
  190.4180  177.0150  143.2510 C   0  0  0  0  0  0  0  0  0  0  0  0
  188.9550  177.4890  143.2410 C   0  0  0  0  0  3  0  0  0  0  0  0
  190.3750  176.9290  145.6780 C   0  0  0  0  0  0  0  0  0  0  0  0
  190.7540  176.7490  147.0030 C   0  0  0  0  0  2  0  0  0  0  0  0
  191.0810  176.7660  144.4080 C   0  0  0  0  0  3  0  0  0  0  0  0
  188.6920  177.3850  146.9820 C   0  0  0  0  0  0  0  0  0  0  0  0
  189.0940  177.3240  145.7030 C   0  0  0  0  0  0  0  0  0  0  0  0
  189.6940  177.0370  147.8160 N   0  0  0  0  0  0  0  0  0  0  0  0
  184.1090  178.8310  145.9400 C   0  0  0  0  0  3  0  0  0  0  0  0
  183.9120  178.9300  144.5690 C   0  0  0  0  0  0  0  0  0  0  0  0
  184.8830  178.7140  143.5990 C   0  0  0  0  0  3  0  0  0  0  0  0
  186.5090  178.0890  146.2290 C   0  0  0  0  0  0  0  0  0  0  0  0
  186.2040  178.3130  143.7340 C   0  0  0  0  0  3  0  0  0  0  0  0
  186.9670  178.0160  144.8620 C   0  0  0  0  0  0  0  0  0  0  0  0
  182.5680  179.4090  144.1000 C   0  0  0  0  0  3  0  0  0  0  0  0
  181.5990  178.2430  143.9580 C   0  0  0  0  0  2  0  0  0  0  0  0
  182.2390  178.8410  142.7270 C   0  0  0  0  0  2  0  0  0  0  0  0
  191.0470  176.8880  142.0010 O   0  0  0  0  0  0  0  0  0  0  0  0
  188.8280  178.3320  139.4180 C   0  0  0  0  0  3  0  0  0  0  0  0
  190.9380  176.5030  139.5670 C   0  0  0  0  0  3  0  0  0  0  0  0
  188.6230  176.7900  136.0900 N   0  0  0  0  0  0  0  0  0  0  0  0
  187.5750  176.6490  135.1180 C   0  0  0  0  0  0  0  0  0  0  0  0
  188.6660  177.9930  136.9340 C   0  0  0  0  0  2  0  0  0  0  0  0
  187.5540  175.6510  134.3470 O   0  0  0  0  0  0  0  0  0  0  0  0
  189.2760  177.6880  138.2640 C   0  0  0  0  0  0  0  0  0  0  0  0
  186.4940  177.6700  134.9940 C   0  0  0  0  0  1  0  0  0  0  0  0
  190.8290  176.1310  137.0850 C   0  0  0  0  0  2  0  0  0  0  0  0
  190.3320  176.7730  138.3380 C   0  0  0  0  0  0  0  0  0  0  0  0
  189.6600  175.7470  136.1710 C   0  0  0  0  0  2  0  0  0  0  0  0
  190.4910  177.1440  140.7360 C   0  0  0  0  0  0  0  0  0  0  0  0
  189.4310  178.0560  140.6490 C   0  0  0  0  0  3  0  0  0  0  0  0
  1 17  1  0  0  0  0
  1 10  1  0  0  0  0
  4  8  2  0  0  0  0
  5  4  1  0  0  0  0
  5  1  2  0  0  0  0
  6 10  2  0  0  0  0
  6  7  1  0  0  0  0
  7 11  1  0  0  0  0
  8  6  1  0  0  0  0
  9  3  1  0  0  0  0
  9 11  2  0  0  0  0
 10  9  1  0  0  0  0
 12  2  2  0  0  0  0
 13 12  1  0  0  0  0
 14 16  1  0  0  0  0
 14 13  2  0  0  0  0
 15  2  1  0  0  0  0
 15  3  2  0  0  0  0
 16 17  2  0  0  0  0
 17 15  1  0  0  0  0
 18 13  1  0  0  0  0
 19 18  1  0  0  0  0
 20 19  1  0  0  0  0
 20 18  1  0  0  0  0
 21  4  1  0  0  0  0
 22 34  1  0  0  0  0
 23 33  1  0  0  0  0
 24 32  1  0  0  0  0
 24 26  1  0  0  0  0
 25 24  1  0  0  0  0
 26 28  1  0  0  0  0
 27 25  2  0  0  0  0
 28 31  1  0  0  0  0
 28 22  2  0  0  0  0
 29 25  1  0  0  0  0
 30 31  1  0  0  0  0
 31 23  2  0  0  0  0
 32 30  1  0  0  0  0
 33 21  1  0  0  0  0
 34 33  2  0  0  0  0
M  END
>  <MODEL>
2

>  <REMARK>
 VINA RESULT:     -11.7      2.192      5.350
  Name = 
  3 active torsions:
  status: ('A' for Active; 'I' for Inactive)
    1  A    between atoms: C_3  and  C_25
    2  A    between atoms: C_8  and  O_18
    3  A    between atoms: O_18  and  C_30
                            x       y       z     vdW  Elec       q    Type
                         _______ _______ _______ _____ _____    ______ ____

>  <TORSDO>
F 3

$$$$
=
 OpenBabel10272415093D

 34 40  0  0  0  0  0  0  0  0999 V2000
  186.6020  178.3590  143.5980 C   0  0  0  0  0  0  0  0  0  0  0  0
  188.2340  177.3190  146.8480 C   0  0  0  0  0  3  0  0  0  0  0  0
  186.0330  177.9760  146.3450 C   0  0  0  0  0  3  0  0  0  0  0  0
  185.4640  179.0890  141.3990 C   0  0  0  0  0  0  0  0  0  0  0  0
  186.7430  178.6050  142.1010 C   0  0  0  0  0  2  0  0  0  0  0  0
  184.2610  178.9720  143.5060 C   0  0  0  0  0  0  0  0  0  0  0  0
  183.2540  179.0450  144.4610 C   0  0  0  0  0  3  0  0  0  0  0  0
  184.2960  179.2470  142.0700 C   0  0  0  0  0  3  0  0  0  0  0  0
  185.0610  178.3940  145.4480 C   0  0  0  0  0  0  0  0  0  0  0  0
  185.3640  178.5650  144.1520 C   0  0  0  0  0  0  0  0  0  0  0  0
  183.7610  178.6810  145.6770 N   0  0  0  0  0  0  0  0  0  0  0  0
  189.5820  177.0010  146.7850 C   0  0  0  0  0  3  0  0  0  0  0  0
  190.4530  177.0150  145.7040 C   0  0  0  0  0  0  0  0  0  0  0  0
  190.1050  177.3200  144.3940 C   0  0  0  0  0  3  0  0  0  0  0  0
  187.3460  177.7370  145.8630 C   0  0  0  0  0  0  0  0  0  0  0  0
  188.8870  177.7190  143.8660 C   0  0  0  0  0  3  0  0  0  0  0  0
  187.6450  177.9280  144.4650 C   0  0  0  0  0  0  0  0  0  0  0  0
  191.8650  176.5660  145.9530 C   0  0  0  0  0  3  0  0  0  0  0  0
  191.9420  175.0480  146.0340 C   0  0  0  0  0  2  0  0  0  0  0  0
  191.9820  175.8700  147.3010 C   0  0  0  0  0  2  0  0  0  0  0  0
  185.5560  179.3250  140.0170 O   0  0  0  0  0  0  0  0  0  0  0  0
  184.8620  176.7850  137.4200 C   0  0  0  0  0  3  0  0  0  0  0  0
  187.0830  178.0330  138.5750 C   0  0  0  0  0  3  0  0  0  0  0  0
  187.5710  174.6450  136.1620 N   0  0  0  0  0  0  0  0  0  0  0  0
  187.6340  173.2920  135.6860 C   0  0  0  0  0  0  0  0  0  0  0  0
  186.3590  175.4410  135.9160 C   0  0  0  0  0  2  0  0  0  0  0  0
  188.6870  172.6140  135.8380 O   0  0  0  0  0  0  0  0  0  0  0  0
  186.1500  176.4430  137.0050 C   0  0  0  0  0  0  0  0  0  0  0  0
  186.4690  172.6580  135.0020 C   0  0  0  0  0  1  0  0  0  0  0  0
  188.6280  176.7230  137.0880 C   0  0  0  0  0  2  0  0  0  0  0  0
  187.2610  177.0670  137.5810 C   0  0  0  0  0  0  0  0  0  0  0  0
  188.7500  175.2160  136.8360 C   0  0  0  0  0  2  0  0  0  0  0  0
  185.7900  178.3810  139.0030 C   0  0  0  0  0  0  0  0  0  0  0  0
  184.6860  177.7470  138.4200 C   0  0  0  0  0  3  0  0  0  0  0  0
  1 10  1  0  0  0  0
  1 17  2  0  0  0  0
  4  8  2  0  0  0  0
  4  5  1  0  0  0  0
  5  1  1  0  0  0  0
  6 10  2  0  0  0  0
  6  7  1  0  0  0  0
  7 11  2  0  0  0  0
  8  6  1  0  0  0  0
  9 11  1  0  0  0  0
  9  3  2  0  0  0  0
 10  9  1  0  0  0  0
 12  2  1  0  0  0  0
 13 18  1  0  0  0  0
 13 12  2  0  0  0  0
 14 13  1  0  0  0  0
 15  3  1  0  0  0  0
 15  2  2  0  0  0  0
 16 14  2  0  0  0  0
 16 17  1  0  0  0  0
 17 15  1  0  0  0  0
 18 19  1  0  0  0  0
 18 20  1  0  0  0  0
 19 20  1  0  0  0  0
 21  4  1  0  0  0  0
 22 34  1  0  0  0  0
 23 33  1  0  0  0  0
 24 32  1  0  0  0  0
 25 27  2  0  0  0  0
 25 24  1  0  0  0  0
 26 24  1  0  0  0  0
 26 28  1  0  0  0  0
 28 22  2  0  0  0  0
 28 31  1  0  0  0  0
 29 25  1  0  0  0  0
 30 31  1  0  0  0  0
 31 23  2  0  0  0  0
 32 30  1  0  0  0  0
 33 21  1  0  0  0  0
 34 33  2  0  0  0  0
M  END
>  <MODEL>
3

>  <REMARK>
 VINA RESULT:     -11.6      1.666      2.000
  Name = 
  3 active torsions:
  status: ('A' for Active; 'I' for Inactive)
    1  A    between atoms: C_3  and  C_25
    2  A    between atoms: C_8  and  O_18
    3  A    between atoms: O_18  and  C_30
                            x       y       z     vdW  Elec       q    Type
                         _______ _______ _______ _____ _____    ______ ____

>  <TORSDO>
F 3

$$$$
=
 OpenBabel10272415093D

 34 40  0  0  0  0  0  0  0  0999 V2000
  186.6300  178.3440  143.8480 C   0  0  0  0  0  0  0  0  0  0  0  0
  188.3090  177.3630  147.0920 C   0  0  0  0  0  3  0  0  0  0  0  0
  186.1090  178.0390  146.6140 C   0  0  0  0  0  3  0  0  0  0  0  0
  185.4610  179.0350  141.6530 C   0  0  0  0  0  0  0  0  0  0  0  0
  186.7460  178.5500  142.3430 C   0  0  0  0  0  2  0  0  0  0  0  0
  184.2970  178.9890  143.7840 C   0  0  0  0  0  0  0  0  0  0  0  0
  183.3090  179.1010  144.7560 C   0  0  0  0  0  3  0  0  0  0  0  0
  184.3080  179.2270  142.3410 C   0  0  0  0  0  3  0  0  0  0  0  0
  185.1250  178.4490  145.7250 C   0  0  0  0  0  0  0  0  0  0  0  0
  185.4060  178.5830  144.4190 C   0  0  0  0  0  0  0  0  0  0  0  0
  183.8350  178.7610  145.9710 N   0  0  0  0  0  0  0  0  0  0  0  0
  189.6510  177.0230  147.0120 C   0  0  0  0  0  3  0  0  0  0  0  0
  190.5010  176.9970  145.9150 C   0  0  0  0  0  0  0  0  0  0  0  0
  190.1330  177.2740  144.6050 C   0  0  0  0  0  3  0  0  0  0  0  0
  187.4080  177.7690  146.1140 C   0  0  0  0  0  0  0  0  0  0  0  0
  188.9110  177.6780  144.0890 C   0  0  0  0  0  3  0  0  0  0  0  0
  187.6830  177.9200  144.7060 C   0  0  0  0  0  0  0  0  0  0  0  0
  191.9110  176.5330  146.1490 C   0  0  0  0  0  3  0  0  0  0  0  0
  191.9820  175.0140  146.1750 C   0  0  0  0  0  2  0  0  0  0  0  0
  192.0240  175.7880  147.4710 C   0  0  0  0  0  2  0  0  0  0  0  0
  185.5300  179.2350  140.2630 O   0  0  0  0  0  0  0  0  0  0  0  0
  183.2640  176.9570  138.4310 C   0  0  0  0  0  3  0  0  0  0  0  0
  185.8250  178.0380  138.1270 C   0  0  0  0  0  3  0  0  0  0  0  0
  184.5600  174.8710  135.6990 N   0  0  0  0  0  0  0  0  0  0  0  0
  184.2330  173.5640  135.1990 C   0  0  0  0  0  0  0  0  0  0  0  0
  183.4950  175.7160  136.2590 C   0  0  0  0  0  2  0  0  0  0  0  0
  185.1220  172.8490  134.6630 O   0  0  0  0  0  0  0  0  0  0  0  0
  184.0360  176.6210  137.3180 C   0  0  0  0  0  0  0  0  0  0  0  0
  182.8450  173.0260  135.2970 C   0  0  0  0  0  1  0  0  0  0  0  0
  186.1090  176.8290  135.9440 C   0  0  0  0  0  2  0  0  0  0  0  0
  185.3170  177.1620  137.1650 C   0  0  0  0  0  0  0  0  0  0  0  0
  185.9490  175.3480  135.5810 C   0  0  0  0  0  2  0  0  0  0  0  0
  185.0570  178.3800  139.2540 C   0  0  0  0  0  0  0  0  0  0  0  0
  183.7770  177.8300  139.3970 C   0  0  0  0  0  3  0  0  0  0  0  0
  1 10  1  0  0  0  0
  1 17  2  0  0  0  0
  4  8  2  0  0  0  0
  4  5  1  0  0  0  0
  5  1  1  0  0  0  0
  6 10  2  0  0  0  0
  6  7  1  0  0  0  0
  7 11  2  0  0  0  0
  8  6  1  0  0  0  0
  9 11  1  0  0  0  0
  9  3  2  0  0  0  0
 10  9  1  0  0  0  0
 12  2  1  0  0  0  0
 13 18  1  0  0  0  0
 13 12  2  0  0  0  0
 14 13  1  0  0  0  0
 15  3  1  0  0  0  0
 15  2  2  0  0  0  0
 16 14  2  0  0  0  0
 16 17  1  0  0  0  0
 17 15  1  0  0  0  0
 18 19  1  0  0  0  0
 18 20  1  0  0  0  0
 19 20  1  0  0  0  0
 21  4  1  0  0  0  0
 22 34  1  0  0  0  0
 23 33  1  0  0  0  0
 24 26  1  0  0  0  0
 25 29  1  0  0  0  0
 25 24  1  0  0  0  0
 26 28  1  0  0  0  0
 27 25  2  0  0  0  0
 28 22  2  0  0  0  0
 30 31  1  0  0  0  0
 31 28  1  0  0  0  0
 31 23  2  0  0  0  0
 32 24  1  0  0  0  0
 32 30  1  0  0  0  0
 33 34  2  0  0  0  0
 33 21  1  0  0  0  0
M  END
>  <MODEL>
4

>  <REMARK>
 VINA RESULT:     -11.5      2.773      3.484
  Name = 
  3 active torsions:
  status: ('A' for Active; 'I' for Inactive)
    1  A    between atoms: C_3  and  C_25
    2  A    between atoms: C_8  and  O_18
    3  A    between atoms: O_18  and  C_30
                            x       y       z     vdW  Elec       q    Type
                         _______ _______ _______ _____ _____    ______ ____

>  <TORSDO>
F 3

$$$$
=
 OpenBabel10272415093D

 34 40  0  0  0  0  0  0  0  0999 V2000
  187.4510  177.7780  144.9490 C   0  0  0  0  0  0  0  0  0  0  0  0
  190.9510  176.8120  143.8930 C   0  0  0  0  0  3  0  0  0  0  0  0
  190.0100  177.2000  146.0120 C   0  0  0  0  0  3  0  0  0  0  0  0
  185.0750  178.4550  145.7000 C   0  0  0  0  0  0  0  0  0  0  0  0
  186.0210  178.1090  144.5390 C   0  0  0  0  0  3  0  0  0  0  0  0
  186.8810  178.0860  147.2830 C   0  0  0  0  0  0  0  0  0  0  0  0
  187.6050  177.9840  148.4650 C   0  0  0  0  0  2  0  0  0  0  0  0
  185.4890  178.4290  146.9920 C   0  0  0  0  0  3  0  0  0  0  0  0
  188.9360  177.5290  146.8280 C   0  0  0  0  0  0  0  0  0  0  0  0
  187.7360  177.7970  146.2910 C   0  0  0  0  0  0  0  0  0  0  0  0
  188.8930  177.6340  148.1730 N   0  0  0  0  0  0  0  0  0  0  0  0
  191.1670  176.6750  142.5310 C   0  0  0  0  0  3  0  0  0  0  0  0
  190.2930  176.8510  141.4660 C   0  0  0  0  0  0  0  0  0  0  0  0
  188.9450  177.1680  141.5760 C   0  0  0  0  0  3  0  0  0  0  0  0
  189.8100  177.1560  144.6090 C   0  0  0  0  0  0  0  0  0  0  0  0
  188.1800  177.4300  142.7030 C   0  0  0  0  0  3  0  0  0  0  0  0
  188.5090  177.4480  144.0580 C   0  0  0  0  0  0  0  0  0  0  0  0
  190.8240  176.5780  140.0880 C   0  0  0  0  0  3  0  0  0  0  0  0
  191.8490  177.6290  139.6860 C   0  0  0  0  0  2  0  0  0  0  0  0
  190.4470  177.6990  139.1300 C   0  0  0  0  0  2  0  0  0  0  0  0
  183.7470  178.7640  145.3600 O   0  0  0  0  0  0  0  0  0  0  0  0
  181.1840  178.8550  142.6950 C   0  0  0  0  0  3  0  0  0  0  0  0
  183.9730  178.8700  142.9060 C   0  0  0  0  0  3  0  0  0  0  0  0
  182.1310  178.2220  139.2020 N   0  0  0  0  0  0  0  0  0  0  0  0
  181.4680  177.6150  138.0820 C   0  0  0  0  0  0  0  0  0  0  0  0
  181.3410  178.9700  140.1900 C   0  0  0  0  0  2  0  0  0  0  0  0
  182.1360  177.0180  137.1950 O   0  0  0  0  0  0  0  0  0  0  0  0
  181.9720  178.8950  141.5430 C   0  0  0  0  0  0  0  0  0  0  0  0
  179.9840  177.6780  137.9380 C   0  0  0  0  0  1  0  0  0  0  0  0
  184.1910  178.9960  140.4070 C   0  0  0  0  0  2  0  0  0  0  0  0
  183.3670  178.9030  141.6480 C   0  0  0  0  0  0  0  0  0  0  0  0
  183.5980  178.1220  139.2960 C   0  0  0  0  0  2  0  0  0  0  0  0
  183.1890  178.8250  144.0720 C   0  0  0  0  0  0  0  0  0  0  0  0
  181.7930  178.8150  143.9540 C   0  0  0  0  0  3  0  0  0  0  0  0
  1 10  1  0  0  0  0
  2 15  1  0  0  0  0
  3  9  1  0  0  0  0
  4  8  2  0  0  0  0
  5  1  2  0  0  0  0
  5  4  1  0  0  0  0
  6  7  1  0  0  0  0
  8  6  1  0  0  0  0
  9 11  2  0  0  0  0
 10  9  1  0  0  0  0
 10  6  2  0  0  0  0
 11  7  1  0  0  0  0
 12  2  2  0  0  0  0
 13 14  2  0  0  0  0
 13 12  1  0  0  0  0
 14 16  1  0  0  0  0
 15  3  2  0  0  0  0
 16 17  2  0  0  0  0
 17 15  1  0  0  0  0
 17  1  1  0  0  0  0
 18 13  1  0  0  0  0
 19 18  1  0  0  0  0
 20 19  1  0  0  0  0
 20 18  1  0  0  0  0
 21  4  1  0  0  0  0
 22 34  1  0  0  0  0
 23 33  1  0  0  0  0
 24 32  1  0  0  0  0
 24 26  1  0  0  0  0
 25 24  1  0  0  0  0
 26 28  1  0  0  0  0
 27 25  2  0  0  0  0
 28 31  1  0  0  0  0
 28 22  2  0  0  0  0
 29 25  1  0  0  0  0
 30 31  1  0  0  0  0
 31 23  2  0  0  0  0
 32 30  1  0  0  0  0
 33 21  1  0  0  0  0
 34 33  2  0  0  0  0
M  END
>  <MODEL>
5

>  <REMARK>
 VINA RESULT:     -11.3      3.300      6.364
  Name = 
  3 active torsions:
  status: ('A' for Active; 'I' for Inactive)
    1  A    between atoms: C_3  and  C_25
    2  A    between atoms: C_8  and  O_18
    3  A    between atoms: O_18  and  C_30
                            x       y       z     vdW  Elec       q    Type
                         _______ _______ _______ _____ _____    ______ ____

>  <TORSDO>
F 3

$$$$
=
 OpenBabel10272415093D

 34 40  0  0  0  0  0  0  0  0999 V2000
  184.6610  178.5350  142.5890 C   0  0  0  0  0  0  0  0  0  0  0  0
  185.5340  178.2680  146.2590 C   0  0  0  0  0  3  0  0  0  0  0  0
  183.4890  178.6470  145.1630 C   0  0  0  0  0  3  0  0  0  0  0  0
  184.0350  178.7400  140.0920 C   0  0  0  0  0  0  0  0  0  0  0  0
  185.1330  178.4990  141.1410 C   0  0  0  0  0  2  0  0  0  0  0  0
  182.3860  178.9410  141.8640 C   0  0  0  0  0  0  0  0  0  0  0  0
  181.1840  179.1200  142.5400 C   0  0  0  0  0  3  0  0  0  0  0  0
  182.7400  178.9360  140.4450 C   0  0  0  0  0  3  0  0  0  0  0  0
  182.7360  178.8100  144.0090 C   0  0  0  0  0  0  0  0  0  0  0  0
  183.3230  178.7510  142.8040 C   0  0  0  0  0  0  0  0  0  0  0  0
  181.4110  179.0370  143.8860 N   0  0  0  0  0  0  0  0  0  0  0  0
  186.8700  178.0460  146.5580 C   0  0  0  0  0  3  0  0  0  0  0  0
  187.9650  177.9170  145.7140 C   0  0  0  0  0  0  0  0  0  0  0  0
  187.9170  177.9370  144.3260 C   0  0  0  0  0  3  0  0  0  0  0  0
  184.8830  178.4200  145.0400 C   0  0  0  0  0  0  0  0  0  0  0  0
  186.8420  178.1340  143.4740 C   0  0  0  0  0  3  0  0  0  0  0  0
  185.4900  178.3600  143.7320 C   0  0  0  0  0  0  0  0  0  0  0  0
  189.2950  177.6320  146.3520 C   0  0  0  0  0  3  0  0  0  0  0  0
  189.1670  176.5360  147.4000 C   0  0  0  0  0  2  0  0  0  0  0  0
  189.2700  177.9800  147.8340 C   0  0  0  0  0  2  0  0  0  0  0  0
  184.4340  178.7120  138.7450 O   0  0  0  0  0  0  0  0  0  0  0  0
  186.3570  176.2050  136.8230 C   0  0  0  0  0  3  0  0  0  0  0  0
  186.8660  178.4180  138.4540 C   0  0  0  0  0  3  0  0  0  0  0  0
  189.9630  175.8040  137.4020 N   0  0  0  0  0  0  0  0  0  0  0  0
  190.8640  174.6870  137.3520 C   0  0  0  0  0  0  0  0  0  0  0  0
  188.8210  175.8520  136.4780 C   0  0  0  0  0  2  0  0  0  0  0  0
  191.8810  174.6570  138.0980 O   0  0  0  0  0  0  0  0  0  0  0  0
  187.6720  176.5890  137.0890 C   0  0  0  0  0  0  0  0  0  0  0  0
  190.6260  173.5450  136.4220 C   0  0  0  0  0  1  0  0  0  0  0  0
  189.3400  178.1200  138.1380 C   0  0  0  0  0  2  0  0  0  0  0  0
  187.9280  177.6960  137.9050 C   0  0  0  0  0  0  0  0  0  0  0  0
  190.2450  176.9010  138.3450 C   0  0  0  0  0  2  0  0  0  0  0  0
  185.5380  178.0370  138.1960 C   0  0  0  0  0  0  0  0  0  0  0  0
  185.2950  176.9250  137.3800 C   0  0  0  0  0  3  0  0  0  0  0  0
  1 10  1  0  0  0  0
  1 17  2  0  0  0  0
  2 12  1  0  0  0  0
  4  8  2  0  0  0  0
  4  5  1  0  0  0  0
  5  1  1  0  0  0  0
  6  7  1  0  0  0  0
  6 10  2  0  0  0  0
  7 11  2  0  0  0  0
  8  6  1  0  0  0  0
  9  3  2  0  0  0  0
 10  9  1  0  0  0  0
 11  9  1  0  0  0  0
 13 18  1  0  0  0  0
 13 12  2  0  0  0  0
 14 13  1  0  0  0  0
 15  3  1  0  0  0  0
 15  2  2  0  0  0  0
 16 17  1  0  0  0  0
 16 14  2  0  0  0  0
 17 15  1  0  0  0  0
 18 19  1  0  0  0  0
 18 20  1  0  0  0  0
 19 20  1  0  0  0  0
 21  4  1  0  0  0  0
 22 28  2  0  0  0  0
 22 34  1  0  0  0  0
 24 32  1  0  0  0  0
 25 24  1  0  0  0  0
 25 27  2  0  0  0  0
 26 28  1  0  0  0  0
 26 24  1  0  0  0  0
 28 31  1  0  0  0  0
 29 25  1  0  0  0  0
 30 32  1  0  0  0  0
 31 30  1  0  0  0  0
 31 23  2  0  0  0  0
 33 23  1  0  0  0  0
 33 21  1  0  0  0  0
 34 33  2  0  0  0  0
M  END
>  <MODEL>
6

>  <REMARK>
 VINA RESULT:     -11.2      1.468      2.340
  Name = 
  3 active torsions:
  status: ('A' for Active; 'I' for Inactive)
    1  A    between atoms: C_3  and  C_25
    2  A    between atoms: C_8  and  O_18
    3  A    between atoms: O_18  and  C_30
                            x       y       z     vdW  Elec       q    Type
                         _______ _______ _______ _____ _____    ______ ____

>  <TORSDO>
F 3

$$$$
=
 OpenBabel10272415093D

 34 40  0  0  0  0  0  0  0  0999 V2000
  187.3840  178.0310  143.8850 C   0  0  0  0  0  0  0  0  0  0  0  0
  184.0580  178.5800  145.5990 C   0  0  0  0  0  3  0  0  0  0  0  0
  186.1880  178.0640  146.4500 C   0  0  0  0  0  3  0  0  0  0  0  0
  189.6650  177.6330  142.7420 C   0  0  0  0  0  0  0  0  0  0  0  0
  188.1760  177.9800  142.5840 C   0  0  0  0  0  3  0  0  0  0  0  0
  189.3810  177.5080  145.1520 C   0  0  0  0  0  0  0  0  0  0  0  0
  189.6360  177.3410  146.5080 C   0  0  0  0  0  2  0  0  0  0  0  0
  190.2250  177.4240  143.9600 C   0  0  0  0  0  3  0  0  0  0  0  0
  187.5390  177.7980  146.2770 C   0  0  0  0  0  0  0  0  0  0  0  0
  188.0740  177.7910  145.0460 C   0  0  0  0  0  0  0  0  0  0  0  0
  188.4770  177.5240  147.2080 N   0  0  0  0  0  0  0  0  0  0  0  0
  182.9800  178.8620  144.7740 C   0  0  0  0  0  3  0  0  0  0  0  0
  182.9170  178.9640  143.3910 C   0  0  0  0  0  0  0  0  0  0  0  0
  183.9970  178.8460  142.5250 C   0  0  0  0  0  3  0  0  0  0  0  0
  185.3930  178.3240  145.3050 C   0  0  0  0  0  0  0  0  0  0  0  0
  185.3270  178.5580  142.7930 C   0  0  0  0  0  3  0  0  0  0  0  0
  185.9930  178.3100  143.9930 C   0  0  0  0  0  0  0  0  0  0  0  0
  181.5910  179.3320  142.7880 C   0  0  0  0  0  3  0  0  0  0  0  0
  180.7740  178.0860  142.4790 C   0  0  0  0  0  2  0  0  0  0  0  0
  181.4820  178.8140  141.3610 C   0  0  0  0  0  2  0  0  0  0  0  0
  190.4280  177.5790  141.5630 O   0  0  0  0  0  0  0  0  0  0  0  0
  188.5510  178.2710  138.4520 C   0  0  0  0  0  3  0  0  0  0  0  0
  190.3220  176.3420  139.4330 C   0  0  0  0  0  3  0  0  0  0  0  0
  188.1830  175.6540  135.8990 N   0  0  0  0  0  0  0  0  0  0  0  0
  187.1530  175.3170  134.9570 C   0  0  0  0  0  0  0  0  0  0  0  0
  188.4040  177.0640  136.2530 C   0  0  0  0  0  2  0  0  0  0  0  0
  186.9880  174.1190  134.5990 O   0  0  0  0  0  0  0  0  0  0  0  0
  188.9180  177.1880  137.6520 C   0  0  0  0  0  0  0  0  0  0  0  0
  186.2620  176.3650  134.3800 C   0  0  0  0  0  1  0  0  0  0  0  0
  190.2210  175.0980  137.2530 C   0  0  0  0  0  2  0  0  0  0  0  0
  189.8030  176.2230  138.1420 C   0  0  0  0  0  0  0  0  0  0  0  0
  189.0290  174.5770  136.4420 C   0  0  0  0  0  2  0  0  0  0  0  0
  189.9570  177.4260  140.2490 C   0  0  0  0  0  0  0  0  0  0  0  0
  189.0670  178.3850  139.7480 C   0  0  0  0  0  3  0  0  0  0  0  0
  1 17  1  0  0  0  0
  1 10  1  0  0  0  0
  4  8  2  0  0  0  0
  5  4  1  0  0  0  0
  5  1  2  0  0  0  0
  6  7  1  0  0  0  0
  7 11  1  0  0  0  0
  8  6  1  0  0  0  0
  9  3  1  0  0  0  0
  9 11  2  0  0  0  0
 10  6  2  0  0  0  0
 10  9  1  0  0  0  0
 12  2  2  0  0  0  0
 13 12  1  0  0  0  0
 14 16  1  0  0  0  0
 14 13  2  0  0  0  0
 15  2  1  0  0  0  0
 15  3  2  0  0  0  0
 16 17  2  0  0  0  0
 17 15  1  0  0  0  0
 18 13  1  0  0  0  0
 19 18  1  0  0  0  0
 20 19  1  0  0  0  0
 20 18  1  0  0  0  0
 21  4  1  0  0  0  0
 22 34  1  0  0  0  0
 23 33  1  0  0  0  0
 24 26  1  0  0  0  0
 24 32  1  0  0  0  0
 25 24  1  0  0  0  0
 26 28  1  0  0  0  0
 27 25  2  0  0  0  0
 28 31  1  0  0  0  0
 28 22  2  0  0  0  0
 29 25  1  0  0  0  0
 30 31  1  0  0  0  0
 31 23  2  0  0  0  0
 32 30  1  0  0  0  0
 33 21  1  0  0  0  0
 34 33  2  0  0  0  0
M  END
>  <MODEL>
7

>  <REMARK>
 VINA RESULT:     -11.1      2.246      5.459
  Name = 
  3 active torsions:
  status: ('A' for Active; 'I' for Inactive)
    1  A    between atoms: C_3  and  C_25
    2  A    between atoms: C_8  and  O_18
    3  A    between atoms: O_18  and  C_30
                            x       y       z     vdW  Elec       q    Type
                         _______ _______ _______ _____ _____    ______ ____

>  <TORSDO>
F 3

$$$$
=
 OpenBabel10272415093D

 34 40  0  0  0  0  0  0  0  0999 V2000
  187.7900  177.7710  142.6770 C   0  0  0  0  0  0  0  0  0  0  0  0
  185.4710  178.3470  145.6070 C   0  0  0  0  0  3  0  0  0  0  0  0
  187.7010  177.6140  145.5020 C   0  0  0  0  0  3  0  0  0  0  0  0
  189.3930  177.3510  140.6960 C   0  0  0  0  0  0  0  0  0  0  0  0
  188.0020  177.8050  141.1680 C   0  0  0  0  0  2  0  0  0  0  0  0
  190.0610  176.9950  143.0040 C   0  0  0  0  0  0  0  0  0  0  0  0
  190.8090  176.6730  144.1310 C   0  0  0  0  0  3  0  0  0  0  0  0
  190.3600  176.9830  141.5720 C   0  0  0  0  0  3  0  0  0  0  0  0
  188.8440  177.2830  144.7860 C   0  0  0  0  0  0  0  0  0  0  0  0
  188.8520  177.3690  143.4470 C   0  0  0  0  0  0  0  0  0  0  0  0
  190.0390  176.8560  145.2460 N   0  0  0  0  0  0  0  0  0  0  0  0
  184.1890  178.7800  145.3010 C   0  0  0  0  0  3  0  0  0  0  0  0
  183.6010  179.0280  144.0680 C   0  0  0  0  0  0  0  0  0  0  0  0
  184.2400  178.9330  142.8380 C   0  0  0  0  0  3  0  0  0  0  0  0
  186.5520  178.0400  144.7890 C   0  0  0  0  0  0  0  0  0  0  0  0
  185.5330  178.5360  142.5340 C   0  0  0  0  0  3  0  0  0  0  0  0
  186.5880  178.1240  143.3490 C   0  0  0  0  0  0  0  0  0  0  0  0
  182.1880  179.5390  144.0710 C   0  0  0  0  0  3  0  0  0  0  0  0
  181.1970  178.3850  144.0930 C   0  0  0  0  0  2  0  0  0  0  0  0
  181.4600  179.1230  142.8010 C   0  0  0  0  0  2  0  0  0  0  0  0
  189.6240  177.3720  139.3100 O   0  0  0  0  0  0  0  0  0  0  0  0
  190.3070  174.4870  137.0980 C   0  0  0  0  0  3  0  0  0  0  0  0
  191.7530  176.4340  138.4910 C   0  0  0  0  0  3  0  0  0  0  0  0
  193.7030  173.1030  136.8670 N   0  0  0  0  0  0  0  0  0  0  0  0
  194.2310  171.7840  136.6560 C   0  0  0  0  0  0  0  0  0  0  0  0
  192.4380  173.4860  136.2220 C   0  0  0  0  0  2  0  0  0  0  0  0
  195.3420  171.4580  137.1550 O   0  0  0  0  0  0  0  0  0  0  0  0
  191.7020  174.4910  137.0470 C   0  0  0  0  0  0  0  0  0  0  0  0
  193.4870  170.7760  135.8460 C   0  0  0  0  0  1  0  0  0  0  0  0
  193.9150  175.4810  137.6370 C   0  0  0  0  0  2  0  0  0  0  0  0
  192.4260  175.4640  137.7440 C   0  0  0  0  0  0  0  0  0  0  0  0
  194.4780  174.0560  137.6810 C   0  0  0  0  0  2  0  0  0  0  0  0
  190.3490  176.4370  138.5520 C   0  0  0  0  0  0  0  0  0  0  0  0
  189.6350  175.4550  137.8530 C   0  0  0  0  0  3  0  0  0  0  0  0
  1 17  2  0  0  0  0
  1 10  1  0  0  0  0
  4  5  1  0  0  0  0
  4  8  2  0  0  0  0
  5  1  1  0  0  0  0
  6 10  2  0  0  0  0
  6  7  1  0  0  0  0
  7 11  2  0  0  0  0
  8  6  1  0  0  0  0
  9 11  1  0  0  0  0
  9  3  2  0  0  0  0
 10  9  1  0  0  0  0
 12  2  1  0  0  0  0
 13 18  1  0  0  0  0
 13 12  2  0  0  0  0
 14 13  1  0  0  0  0
 15  3  1  0  0  0  0
 15  2  2  0  0  0  0
 16 14  2  0  0  0  0
 16 17  1  0  0  0  0
 17 15  1  0  0  0  0
 18 19  1  0  0  0  0
 20 18  1  0  0  0  0
 20 19  1  0  0  0  0
 21  4  1  0  0  0  0
 22 34  1  0  0  0  0
 23 33  1  0  0  0  0
 24 32  1  0  0  0  0
 25 24  1  0  0  0  0
 25 27  2  0  0  0  0
 26 24  1  0  0  0  0
 26 28  1  0  0  0  0
 28 22  2  0  0  0  0
 28 31  1  0  0  0  0
 29 25  1  0  0  0  0
 30 32  1  0  0  0  0
 30 31  1  0  0  0  0
 31 23  2  0  0  0  0
 33 21  1  0  0  0  0
 34 33  2  0  0  0  0
M  END
>  <MODEL>
8

>  <REMARK>
 VINA RESULT:     -11.0      2.427      5.560
  Name = 
  3 active torsions:
  status: ('A' for Active; 'I' for Inactive)
    1  A    between atoms: C_3  and  C_25
    2  A    between atoms: C_8  and  O_18
    3  A    between atoms: O_18  and  C_30
                            x       y       z     vdW  Elec       q    Type
                         _______ _______ _______ _____ _____    ______ ____

>  <TORSDO>
F 3

$$$$
=
 OpenBabel10272415093D

 34 40  0  0  0  0  0  0  0  0999 V2000
  187.2480  177.9400  143.2870 C   0  0  0  0  0  0  0  0  0  0  0  0
  187.4080  177.2920  147.0090 C   0  0  0  0  0  3  0  0  0  0  0  0
  185.6800  178.1040  145.6380 C   0  0  0  0  0  3  0  0  0  0  0  0
  187.1130  178.4090  140.7520 C   0  0  0  0  0  0  0  0  0  0  0  0
  187.9540  177.9070  141.9370 C   0  0  0  0  0  2  0  0  0  0  0  0
  185.2370  178.7980  142.2450 C   0  0  0  0  0  0  0  0  0  0  0  0
  183.9840  179.1500  142.7320 C   0  0  0  0  0  3  0  0  0  0  0  0
  185.8280  178.8150  140.9080 C   0  0  0  0  0  3  0  0  0  0  0  0
  185.1790  178.4730  144.3970 C   0  0  0  0  0  0  0  0  0  0  0  0
  185.9490  178.3820  143.3030 C   0  0  0  0  0  0  0  0  0  0  0  0
  183.9540  178.9440  144.0830 N   0  0  0  0  0  0  0  0  0  0  0  0
  188.6140  176.8120  147.4990 C   0  0  0  0  0  3  0  0  0  0  0  0
  189.8010  176.5390  146.8340 C   0  0  0  0  0  0  0  0  0  0  0  0
  190.0020  176.6520  145.4640 C   0  0  0  0  0  3  0  0  0  0  0  0
  187.0160  177.6350  145.7210 C   0  0  0  0  0  0  0  0  0  0  0  0
  189.1410  177.0940  144.4710 C   0  0  0  0  0  3  0  0  0  0  0  0
  187.8230  177.5470  144.5270 C   0  0  0  0  0  0  0  0  0  0  0  0
  190.9320  175.9770  147.6500 C   0  0  0  0  0  3  0  0  0  0  0  0
  192.0390  177.0070  147.8190 C   0  0  0  0  0  2  0  0  0  0  0  0
  192.2040  175.8860  146.8200 C   0  0  0  0  0  2  0  0  0  0  0  0
  187.7310  178.3920  139.4900 O   0  0  0  0  0  0  0  0  0  0  0  0
  191.0860  176.8660  139.1760 C   0  0  0  0  0  3  0  0  0  0  0  0
  188.5360  176.5400  138.0740 C   0  0  0  0  0  3  0  0  0  0  0  0
  191.8520  174.6630  136.3370 N   0  0  0  0  0  0  0  0  0  0  0  0
  193.0390  174.3940  135.5740 C   0  0  0  0  0  0  0  0  0  0  0  0
  191.9710  174.9830  137.7670 C   0  0  0  0  0  2  0  0  0  0  0  0
  192.9530  174.0620  134.3610 O   0  0  0  0  0  0  0  0  0  0  0  0
  190.8650  175.8900  138.2030 C   0  0  0  0  0  0  0  0  0  0  0  0
  194.3930  174.4960  136.1920 C   0  0  0  0  0  1  0  0  0  0  0  0
  189.3630  174.6440  136.6480 C   0  0  0  0  0  2  0  0  0  0  0  0
  189.5900  175.7260  137.6520 C   0  0  0  0  0  0  0  0  0  0  0  0
  190.5420  174.5530  135.6730 C   0  0  0  0  0  2  0  0  0  0  0  0
  188.7490  177.5290  139.0500 C   0  0  0  0  0  0  0  0  0  0  0  0
  190.0310  177.6850  139.5920 C   0  0  0  0  0  3  0  0  0  0  0  0
  1 10  1  0  0  0  0
  1 17  2  0  0  0  0
  2 12  1  0  0  0  0
  3 15  1  0  0  0  0
  4  8  2  0  0  0  0
  4  5  1  0  0  0  0
  5  1  1  0  0  0  0
  6  7  1  0  0  0  0
  6 10  2  0  0  0  0
  7 11  2  0  0  0  0
  8  6  1  0  0  0  0
  9  3  2  0  0  0  0
 10  9  1  0  0  0  0
 11  9  1  0  0  0  0
 13 12  2  0  0  0  0
 13 18  1  0  0  0  0
 14 13  1  0  0  0  0
 15  2  2  0  0  0  0
 16 17  1  0  0  0  0
 16 14  2  0  0  0  0
 17 15  1  0  0  0  0
 18 19  1  0  0  0  0
 20 18  1  0  0  0  0
 20 19  1  0  0  0  0
 21  4  1  0  0  0  0
 22 34  1  0  0  0  0
 23 33  1  0  0  0  0
 24 26  1  0  0  0  0
 25 29  1  0  0  0  0
 25 24  1  0  0  0  0
 26 28  1  0  0  0  0
 27 25  2  0  0  0  0
 28 22  2  0  0  0  0
 30 31  1  0  0  0  0
 31 23  2  0  0  0  0
 31 28  1  0  0  0  0
 32 24  1  0  0  0  0
 32 30  1  0  0  0  0
 33 21  1  0  0  0  0
 33 34  2  0  0  0  0
M  END
>  <MODEL>
9

>  <REMARK>
 VINA RESULT:     -10.7      1.334      2.266
  Name = 
  3 active torsions:
  status: ('A' for Active; 'I' for Inactive)
    1  A    between atoms: C_3  and  C_25
    2  A    between atoms: C_8  and  O_18
    3  A    between atoms: O_18  and  C_30
                            x       y       z     vdW  Elec       q    Type
                         _______ _______ _______ _____ _____    ______ ____

>  <TORSDO>
F 3

$$$$
