=
 OpenBabel10272400513D

 25 28  0  0  1  0  0  0  0  0999 V2000
  186.9660  177.8580  144.8350 N   0  0  0  0  0  0  0  0  0  0  0  0
  188.0070  177.1560  144.3100 C   0  0  0  0  0  0  0  0  0  0  0  0
  188.1640  178.4420  146.8150 C   0  0  0  0  0  3  0  0  0  0  0  0
  185.7330  178.1190  144.3830 C   0  0  0  0  0  0  0  0  0  0  0  0
  183.1670  178.9130  143.8680 C   0  0  0  0  0  3  0  0  0  0  0  0
  189.2610  177.7230  146.3180 C   0  0  0  0  0  3  0  0  0  0  0  0
  185.0760  178.8860  145.3000 C   0  0  0  0  0  0  0  0  0  0  0  0
  183.7720  179.3110  145.0770 C   0  0  0  0  0  3  0  0  0  0  0  0
  190.3290  176.3510  144.5450 N   0  0  0  0  0  0  0  0  0  0  0  0
  191.6350  176.4350  145.1790 C   0  0  0  0  0  1  0  0  0  0  0  0
  187.8850  176.4450  142.9860 C   0  0  0  0  0  2  0  0  0  0  0  0
  183.8870  178.1180  142.9450 C   0  0  0  0  0  3  0  0  0  0  0  0
  187.0140  178.4880  146.0330 C   0  0  0  0  0  0  0  0  0  0  0  0
  185.8660  179.1390  146.3660 N   0  0  0  0  0  0  0  0  0  0  0  0
  190.1980  175.5270  143.3450 C   0  0  0  0  0  2  0  0  0  0  0  0
  185.1700  177.7270  143.2120 N   0  0  0  0  0  0  0  0  0  0  0  0
  189.2450  176.1720  142.3380 C   0  0  2  0  0  3  0  0  0  0  0  0
  189.1950  177.0670  145.0690 C   0  0  0  0  0  0  0  0  0  0  0  0
  189.8290  177.4220  141.7680 C   0  0  0  0  0  3  0  0  0  0  0  0
  189.8420  177.6080  140.4790 C   0  0  0  0  0  0  0  0  0  0  0  0
  189.8560  177.7900  139.1870 C   0  0  0  0  0  0  0  0  0  0  0  0
  189.1560  178.9780  138.6200 C   0  0  0  0  0  1  0  0  0  0  0  0
  190.5370  176.8300  138.3030 C   0  0  0  0  0  0  0  0  0  0  0  0
  191.0360  175.6340  138.8110 O   0  0  0  0  0  1  0  0  0  0  0  0
  190.6770  177.0840  137.0780 O   0  0  0  0  0  0  0  0  0  0  0  0
  1 13  1  0  0  0  0
  2  1  1  0  0  0  0
  2 18  2  0  0  0  0
  4  1  1  0  0  0  0
  4  7  1  0  0  0  0
  5  8  1  0  0  0  0
  6  3  2  0  0  0  0
  7 14  1  0  0  0  0
  8  7  2  0  0  0  0
  9 18  1  0  0  0  0
  9 10  1  0  0  0  0
 11  2  1  0  0  0  0
 12 16  1  0  0  0  0
 12  5  2  0  0  0  0
 13 14  2  0  0  0  0
 13  3  1  0  0  0  0
 15  9  1  0  0  0  0
 16  4  2  0  0  0  0
 17 19  1  1  0  0  0
 17 11  1  0  0  0  0
 17 15  1  0  0  0  0
 18  6  1  0  0  0  0
 20 19  2  0  0  0  0
 21 20  2  0  0  0  0
 22 21  1  0  0  0  0
 23 24  1  0  0  0  0
 23 21  1  0  0  0  0
 25 23  2  0  0  0  0
M  END
>  <MODEL>
1

>  <REMARK>
 VINA RESULT:      -8.2      0.000      0.000
  Name = 
  2 active torsions:
  status: ('A' for Active; 'I' for Inactive)
    1  A    between atoms: C_2  and  C_21
    2  A    between atoms: C_6  and  C_23
                            x       y       z     vdW  Elec       q    Type
                         _______ _______ _______ _____ _____    ______ ____

>  <TORSDO>
F 2

$$$$
=
 OpenBabel10272400513D

 25 28  0  0  1  0  0  0  0  0999 V2000
  188.1310  177.6830  142.0700 N   0  0  0  0  0  0  0  0  0  0  0  0
  187.0470  178.3000  142.6140 C   0  0  0  0  0  0  0  0  0  0  0  0
  188.6820  176.5380  144.0900 C   0  0  0  0  0  3  0  0  0  0  0  0
  188.6670  177.7160  140.8430 C   0  0  0  0  0  0  0  0  0  0  0  0
  190.0790  177.4580  138.5160 C   0  0  0  0  0  3  0  0  0  0  0  0
  187.5790  177.1570  144.6970 C   0  0  0  0  0  3  0  0  0  0  0  0
  189.7590  176.8980  140.8130 C   0  0  0  0  0  0  0  0  0  0  0  0
  190.5030  176.7390  139.6500 C   0  0  0  0  0  3  0  0  0  0  0  0
  185.6070  178.6620  144.5870 N   0  0  0  0  0  0  0  0  0  0  0  0
  185.1390  178.2490  145.9000 C   0  0  0  0  0  1  0  0  0  0  0  0
  186.2110  179.2670  141.8160 C   0  0  0  0  0  2  0  0  0  0  0  0
  188.9410  178.2940  138.5920 C   0  0  0  0  0  3  0  0  0  0  0  0
  188.9320  176.8300  142.7530 C   0  0  0  0  0  0  0  0  0  0  0  0
  189.9550  176.3180  142.0170 N   0  0  0  0  0  0  0  0  0  0  0  0
  184.8700  179.7160  143.8940 C   0  0  0  0  0  2  0  0  0  0  0  0
  188.2410  178.4150  139.7610 N   0  0  0  0  0  0  0  0  0  0  0  0
  184.8030  179.4430  142.3910 C   0  0  2  0  0  3  0  0  0  0  0  0
  186.7560  178.0470  143.9730 C   0  0  0  0  0  0  0  0  0  0  0  0
  183.9520  178.2530  142.0980 C   0  0  0  0  0  3  0  0  0  0  0  0
  182.6660  178.3920  141.9450 C   0  0  0  0  0  0  0  0  0  0  0  0
  181.3770  178.5350  141.7940 C   0  0  0  0  0  0  0  0  0  0  0  0
  180.7530  178.1240  140.5050 C   0  0  0  0  0  1  0  0  0  0  0  0
  180.5560  179.1080  142.8740 C   0  0  0  0  0  0  0  0  0  0  0  0
  179.9820  178.2830  143.8380 O   0  0  0  0  0  1  0  0  0  0  0  0
  180.3650  180.3500  142.9340 O   0  0  0  0  0  0  0  0  0  0  0  0
  1  2  1  0  0  0  0
  1 13  1  0  0  0  0
  2 18  2  0  0  0  0
  3  6  2  0  0  0  0
  4  1  1  0  0  0  0
  5 12  2  0  0  0  0
  5  8  1  0  0  0  0
  7  4  1  0  0  0  0
  7 14  1  0  0  0  0
  8  7  2  0  0  0  0
  9 10  1  0  0  0  0
 11 17  1  0  0  0  0
 11  2  1  0  0  0  0
 12 16  1  0  0  0  0
 13  3  1  0  0  0  0
 14 13  2  0  0  0  0
 15  9  1  0  0  0  0
 16  4  2  0  0  0  0
 17 19  1  1  0  0  0
 17 15  1  0  0  0  0
 18  9  1  0  0  0  0
 18  6  1  0  0  0  0
 20 19  2  0  0  0  0
 21 20  2  0  0  0  0
 21 23  1  0  0  0  0
 22 21  1  0  0  0  0
 23 25  2  0  0  0  0
 23 24  1  0  0  0  0
M  END
>  <MODEL>
2

>  <REMARK>
 VINA RESULT:      -8.1      4.035      7.018
  Name = 
  2 active torsions:
  status: ('A' for Active; 'I' for Inactive)
    1  A    between atoms: C_2  and  C_21
    2  A    between atoms: C_6  and  C_23
                            x       y       z     vdW  Elec       q    Type
                         _______ _______ _______ _____ _____    ______ ____

>  <TORSDO>
F 2

$$$$
=
 OpenBabel10272400513D

 25 28  0  0  1  0  0  0  0  0999 V2000
  188.1110  177.7070  141.8600 N   0  0  0  0  0  0  0  0  0  0  0  0
  186.9990  178.2500  142.4250 C   0  0  0  0  0  0  0  0  0  0  0  0
  188.7870  176.6200  143.8730 C   0  0  0  0  0  3  0  0  0  0  0  0
  188.6150  177.7680  140.6200 C   0  0  0  0  0  0  0  0  0  0  0  0
  189.9870  177.5890  138.2610 C   0  0  0  0  0  3  0  0  0  0  0  0
  187.6580  177.1660  144.5020 C   0  0  0  0  0  3  0  0  0  0  0  0
  189.7600  177.0280  140.5690 C   0  0  0  0  0  0  0  0  0  0  0  0
  190.4870  176.9110  139.3900 C   0  0  0  0  0  3  0  0  0  0  0  0
  185.5830  178.5280  144.4290 N   0  0  0  0  0  0  0  0  0  0  0  0
  185.1760  178.0930  145.7560 C   0  0  0  0  0  1  0  0  0  0  0  0
  186.0790  179.1500  141.6400 C   0  0  0  0  0  2  0  0  0  0  0  0
  188.7950  178.3440  138.3590 C   0  0  0  0  0  3  0  0  0  0  0  0
  188.9850  176.9180  142.5290 C   0  0  0  0  0  0  0  0  0  0  0  0
  190.0250  176.4730  141.7720 N   0  0  0  0  0  0  0  0  0  0  0  0
  184.7580  179.5220  143.7460 C   0  0  0  0  0  2  0  0  0  0  0  0
  188.1150  178.4260  139.5440 N   0  0  0  0  0  0  0  0  0  0  0  0
  184.6750  179.2310  142.2470 C   0  0  2  0  0  3  0  0  0  0  0  0
  186.7580  177.9900  143.7920 C   0  0  0  0  0  0  0  0  0  0  0  0
  183.9030  177.9820  141.9830 C   0  0  0  0  0  3  0  0  0  0  0  0
  183.3090  177.8130  140.8360 C   0  0  0  0  0  0  0  0  0  0  0  0
  182.7120  177.6470  139.6870 C   0  0  0  0  0  0  0  0  0  0  0  0
  183.0850  176.4760  138.8440 C   0  0  0  0  0  1  0  0  0  0  0  0
  181.6990  178.6110  139.2240 C   0  0  0  0  0  0  0  0  0  0  0  0
  181.0170  179.4100  140.1360 O   0  0  0  0  0  1  0  0  0  0  0  0
  181.4400  178.7180  137.9970 O   0  0  0  0  0  0  0  0  0  0  0  0
  1  2  1  0  0  0  0
  1 13  1  0  0  0  0
  2 18  2  0  0  0  0
  3  6  2  0  0  0  0
  4  1  1  0  0  0  0
  5 12  2  0  0  0  0
  5  8  1  0  0  0  0
  7  4  1  0  0  0  0
  7 14  1  0  0  0  0
  8  7  2  0  0  0  0
  9 10  1  0  0  0  0
 11 17  1  0  0  0  0
 11  2  1  0  0  0  0
 12 16  1  0  0  0  0
 13  3  1  0  0  0  0
 14 13  2  0  0  0  0
 15  9  1  0  0  0  0
 16  4  2  0  0  0  0
 17 19  1  1  0  0  0
 17 15  1  0  0  0  0
 18  9  1  0  0  0  0
 18  6  1  0  0  0  0
 20 19  2  0  0  0  0
 21 20  2  0  0  0  0
 22 21  1  0  0  0  0
 23 21  1  0  0  0  0
 23 24  1  0  0  0  0
 25 23  2  0  0  0  0
M  END
>  <MODEL>
3

>  <REMARK>
 VINA RESULT:      -7.9      3.593      6.415
  Name = 
  2 active torsions:
  status: ('A' for Active; 'I' for Inactive)
    1  A    between atoms: C_2  and  C_21
    2  A    between atoms: C_6  and  C_23
                            x       y       z     vdW  Elec       q    Type
                         _______ _______ _______ _____ _____    ______ ____

>  <TORSDO>
F 2

$$$$
=
 OpenBabel10272400513D

 25 28  0  0  1  0  0  0  0  0999 V2000
  188.7510  177.6490  143.4560 N   0  0  0  0  0  0  0  0  0  0  0  0
  188.9720  177.8910  142.1350 C   0  0  0  0  0  0  0  0  0  0  0  0
  186.3810  177.8380  143.2490 C   0  0  0  0  0  3  0  0  0  0  0  0
  189.5790  177.3930  144.4780 C   0  0  0  0  0  0  0  0  0  0  0  0
  190.8590  176.8250  146.8270 C   0  0  0  0  0  3  0  0  0  0  0  0
  186.5600  178.1000  141.8830 C   0  0  0  0  0  3  0  0  0  0  0  0
  188.8420  177.2120  145.6120 C   0  0  0  0  0  0  0  0  0  0  0  0
  189.4530  176.9210  146.8260 C   0  0  0  0  0  3  0  0  0  0  0  0
  188.0340  178.3790  139.9040 N   0  0  0  0  0  0  0  0  0  0  0  0
  186.9060  178.4010  138.9870 C   0  0  0  0  0  1  0  0  0  0  0  0
  190.3680  177.9520  141.5720 C   0  0  0  0  0  2  0  0  0  0  0  0
  191.5820  177.0180  145.6270 C   0  0  0  0  0  3  0  0  0  0  0  0
  187.5190  177.6140  144.0180 C   0  0  0  0  0  0  0  0  0  0  0  0
  187.5230  177.3470  145.3520 N   0  0  0  0  0  0  0  0  0  0  0  0
  189.3710  178.5970  139.3560 C   0  0  0  0  0  2  0  0  0  0  0  0
  190.9320  177.3020  144.4570 N   0  0  0  0  0  0  0  0  0  0  0  0
  190.4040  177.7150  140.0590 C   0  0  2  0  0  3  0  0  0  0  0  0
  187.8510  178.1380  141.3120 C   0  0  0  0  0  0  0  0  0  0  0  0
  190.1890  176.2740  139.7370 C   0  0  0  0  0  3  0  0  0  0  0  0
  190.4780  175.8210  138.5500 C   0  0  0  0  0  0  0  0  0  0  0  0
  190.7660  175.3700  137.3590 C   0  0  0  0  0  0  0  0  0  0  0  0
  191.7730  174.2800  137.2270 C   0  0  0  0  0  1  0  0  0  0  0  0
  190.1180  175.9410  136.1670 C   0  0  0  0  0  0  0  0  0  0  0  0
  189.0100  176.7720  136.2950 O   0  0  0  0  0  1  0  0  0  0  0  0
  190.5610  175.6790  135.0180 O   0  0  0  0  0  0  0  0  0  0  0  0
  1 13  1  0  0  0  0
  1  4  1  0  0  0  0
  2  1  1  0  0  0  0
  3 13  1  0  0  0  0
  4  7  1  0  0  0  0
  6  3  2  0  0  0  0
  7  8  2  0  0  0  0
  8  5  1  0  0  0  0
  9 18  1  0  0  0  0
 10  9  1  0  0  0  0
 11  2  1  0  0  0  0
 12  5  2  0  0  0  0
 13 14  2  0  0  0  0
 14  7  1  0  0  0  0
 15  9  1  0  0  0  0
 15 17  1  0  0  0  0
 16  4  2  0  0  0  0
 16 12  1  0  0  0  0
 17 19  1  1  0  0  0
 17 11  1  0  0  0  0
 18  6  1  0  0  0  0
 18  2  2  0  0  0  0
 20 19  2  0  0  0  0
 21 20  2  0  0  0  0
 22 21  1  0  0  0  0
 23 24  1  0  0  0  0
 23 21  1  0  0  0  0
 25 23  2  0  0  0  0
M  END
>  <MODEL>
4

>  <REMARK>
 VINA RESULT:      -7.3      1.995      4.692
  Name = 
  2 active torsions:
  status: ('A' for Active; 'I' for Inactive)
    1  A    between atoms: C_2  and  C_21
    2  A    between atoms: C_6  and  C_23
                            x       y       z     vdW  Elec       q    Type
                         _______ _______ _______ _____ _____    ______ ____

>  <TORSDO>
F 2

$$$$
=
 OpenBabel10272400513D

 25 28  0  0  1  0  0  0  0  0999 V2000
  187.5820  177.7080  142.8000 N   0  0  0  0  0  0  0  0  0  0  0  0
  186.3430  178.2700  142.7830 C   0  0  0  0  0  0  0  0  0  0  0  0
  187.4850  177.1970  145.1280 C   0  0  0  0  0  3  0  0  0  0  0  0
  188.4990  177.5160  141.8420 C   0  0  0  0  0  0  0  0  0  0  0  0
  190.6290  176.9040  140.2390 C   0  0  0  0  0  3  0  0  0  0  0  0
  186.2070  177.7740  145.1620 C   0  0  0  0  0  3  0  0  0  0  0  0
  189.5840  176.8900  142.3840 C   0  0  0  0  0  0  0  0  0  0  0  0
  190.6860  176.5610  141.6040 C   0  0  0  0  0  3  0  0  0  0  0  0
  184.3020  178.8900  144.0260 N   0  0  0  0  0  0  0  0  0  0  0  0
  183.4420  178.7500  145.1910 C   0  0  0  0  0  1  0  0  0  0  0  0
  185.7710  178.8720  141.5250 C   0  0  0  0  0  2  0  0  0  0  0  0
  189.4830  177.5510  139.7190 C   0  0  0  0  0  3  0  0  0  0  0  0
  188.1550  177.1820  143.9090 C   0  0  0  0  0  0  0  0  0  0  0  0
  189.3960  176.6640  143.7030 N   0  0  0  0  0  0  0  0  0  0  0  0
  183.7810  179.6160  142.8690 C   0  0  0  0  0  2  0  0  0  0  0  0
  188.4230  177.8520  140.5300 N   0  0  0  0  0  0  0  0  0  0  0  0
  184.2430  178.9710  141.5620 C   0  0  2  0  0  3  0  0  0  0  0  0
  185.6250  178.3220  143.9990 C   0  0  0  0  0  0  0  0  0  0  0  0
  183.6140  177.6310  141.3720 C   0  0  0  0  0  3  0  0  0  0  0  0
  183.1280  177.2970  140.2100 C   0  0  0  0  0  0  0  0  0  0  0  0
  182.6400  176.9670  139.0450 C   0  0  0  0  0  0  0  0  0  0  0  0
  183.1860  175.7660  138.3510 C   0  0  0  0  0  1  0  0  0  0  0  0
  181.5800  177.7760  138.4210 C   0  0  0  0  0  0  0  0  0  0  0  0
  181.5400  177.9420  137.0400 O   0  0  0  0  0  0  0  0  0  0  0  0
  180.7020  178.3290  139.1330 O   0  0  0  0  0  1  0  0  0  0  0  0
  1 13  1  0  0  0  0
  2  1  1  0  0  0  0
  2 18  2  0  0  0  0
  3  6  2  0  0  0  0
  4  7  1  0  0  0  0
  4  1  1  0  0  0  0
  5  8  1  0  0  0  0
  7 14  1  0  0  0  0
  8  7  2  0  0  0  0
  9 10  1  0  0  0  0
 11 17  1  0  0  0  0
 11  2  1  0  0  0  0
 12  5  2  0  0  0  0
 12 16  1  0  0  0  0
 13  3  1  0  0  0  0
 14 13  2  0  0  0  0
 15  9  1  0  0  0  0
 16  4  2  0  0  0  0
 17 19  1  1  0  0  0
 17 15  1  0  0  0  0
 18  9  1  0  0  0  0
 18  6  1  0  0  0  0
 20 19  2  0  0  0  0
 21 20  2  0  0  0  0
 22 21  1  0  0  0  0
 23 21  1  0  0  0  0
 23 25  1  0  0  0  0
 24 23  2  0  0  0  0
M  END
>  <MODEL>
5

>  <REMARK>
 VINA RESULT:      -7.2      3.583      6.356
  Name = 
  2 active torsions:
  status: ('A' for Active; 'I' for Inactive)
    1  A    between atoms: C_2  and  C_21
    2  A    between atoms: C_6  and  C_23
                            x       y       z     vdW  Elec       q    Type
                         _______ _______ _______ _____ _____    ______ ____

>  <TORSDO>
F 2

$$$$
=
 OpenBabel10272400513D

 25 28  0  0  1  0  0  0  0  0999 V2000
  188.1590  177.6720  139.6290 N   0  0  0  0  0  0  0  0  0  0  0  0
  188.9290  177.9710  140.7100 C   0  0  0  0  0  0  0  0  0  0  0  0
  189.8430  176.3180  138.6170 C   0  0  0  0  0  3  0  0  0  0  0  0
  186.9110  178.0170  139.2860 C   0  0  0  0  0  0  0  0  0  0  0  0
  184.4370  178.4330  138.1980 C   0  0  0  0  0  3  0  0  0  0  0  0
  190.6760  176.6060  139.7070 C   0  0  0  0  0  3  0  0  0  0  0  0
  186.6010  177.4340  138.0920 C   0  0  0  0  0  0  0  0  0  0  0  0
  185.3550  177.6210  137.5050 C   0  0  0  0  0  3  0  0  0  0  0  0
  191.0810  177.7120  141.8930 N   0  0  0  0  0  0  0  0  0  0  0  0
  192.3310  176.9970  142.0960 C   0  0  0  0  0  1  0  0  0  0  0  0
  188.4320  178.8890  141.7980 C   0  0  0  0  0  2  0  0  0  0  0  0
  184.8000  179.0150  139.4350 C   0  0  0  0  0  3  0  0  0  0  0  0
  188.5700  176.8790  138.6110 C   0  0  0  0  0  0  0  0  0  0  0  0
  187.6400  176.7020  137.6330 N   0  0  0  0  0  0  0  0  0  0  0  0
  190.6920  178.7130  142.8840 C   0  0  0  0  0  2  0  0  0  0  0  0
  186.0400  178.8000  139.9710 N   0  0  0  0  0  0  0  0  0  0  0  0
  189.1810  178.6960  143.1200 C   0  0  2  0  0  3  0  0  0  0  0  0
  190.2360  177.4380  140.7600 C   0  0  0  0  0  0  0  0  0  0  0  0
  188.7560  177.4370  143.7980 C   0  0  0  0  0  3  0  0  0  0  0  0
  189.1900  177.1630  144.9960 C   0  0  0  0  0  0  0  0  0  0  0  0
  189.6280  176.8900  146.1950 C   0  0  0  0  0  0  0  0  0  0  0  0
  188.6410  176.7070  147.2970 C   0  0  0  0  0  1  0  0  0  0  0  0
  191.0720  176.7820  146.4570 C   0  0  0  0  0  0  0  0  0  0  0  0
  191.5780  177.0250  147.7310 O   0  0  0  0  0  1  0  0  0  0  0  0
  191.8640  176.4710  145.5290 O   0  0  0  0  0  0  0  0  0  0  0  0
  1  2  1  0  0  0  0
  2 18  2  0  0  0  0
  2 11  1  0  0  0  0
  3  6  2  0  0  0  0
  4  1  1  0  0  0  0
  4 16  1  0  0  0  0
  5 12  1  0  0  0  0
  6 18  1  0  0  0  0
  7  4  2  0  0  0  0
  8  7  1  0  0  0  0
  8  5  2  0  0  0  0
  9 10  1  0  0  0  0
  9 15  1  0  0  0  0
 11 17  1  0  0  0  0
 12 16  2  0  0  0  0
 13  3  1  0  0  0  0
 13  1  1  0  0  0  0
 14  7  1  0  0  0  0
 14 13  2  0  0  0  0
 15 17  1  0  0  0  0
 17 19  1  6  0  0  0
 18  9  1  0  0  0  0
 19 20  2  0  0  0  0
 20 21  2  0  0  0  0
 21 23  1  0  0  0  0
 21 22  1  0  0  0  0
 23 24  1  0  0  0  0
 25 23  2  0  0  0  0
M  END
>  <MODEL>
6

>  <REMARK>
 VINA RESULT:      -7.0      3.680      6.198
  Name = 
  2 active torsions:
  status: ('A' for Active; 'I' for Inactive)
    1  A    between atoms: C_2  and  C_21
    2  A    between atoms: C_6  and  C_23
                            x       y       z     vdW  Elec       q    Type
                         _______ _______ _______ _____ _____    ______ ____

>  <TORSDO>
F 2

$$$$
=
 OpenBabel10272400513D

 25 28  0  0  1  0  0  0  0  0999 V2000
  186.5510  177.3170  138.0040 N   0  0  0  0  0  0  0  0  0  0  0  0
  187.8140  177.3750  138.5070 C   0  0  0  0  0  0  0  0  0  0  0  0
  187.0790  175.5630  136.4750 C   0  0  0  0  0  3  0  0  0  0  0  0
  185.4350  178.0010  138.2870 C   0  0  0  0  0  0  0  0  0  0  0  0
  182.9450  179.1060  138.5320 C   0  0  0  0  0  3  0  0  0  0  0  0
  188.3960  175.5910  136.9560 C   0  0  0  0  0  3  0  0  0  0  0  0
  184.4220  177.5460  137.4940 C   0  0  0  0  0  0  0  0  0  0  0  0
  183.1420  178.0800  137.5870 C   0  0  0  0  0  3  0  0  0  0  0  0
  190.1260  176.5090  138.4820 N   0  0  0  0  0  0  0  0  0  0  0  0
  191.0810  175.4720  138.1260 C   0  0  0  0  0  1  0  0  0  0  0  0
  188.1920  178.3790  139.5660 C   0  0  0  0  0  2  0  0  0  0  0  0
  184.0240  179.5460  139.3350 C   0  0  0  0  0  3  0  0  0  0  0  0
  186.1680  176.4570  137.0310 C   0  0  0  0  0  0  0  0  0  0  0  0
  184.8580  176.5600  136.6800 N   0  0  0  0  0  0  0  0  0  0  0  0
  190.5640  177.5650  139.3930 C   0  0  0  0  0  2  0  0  0  0  0  0
  185.2650  178.9860  139.2040 N   0  0  0  0  0  0  0  0  0  0  0  0
  189.4410  177.9660  140.3500 C   0  0  2  0  0  3  0  0  0  0  0  0
  188.7810  176.4980  137.9670 C   0  0  0  0  0  0  0  0  0  0  0  0
  189.1320  176.8650  141.3090 C   0  0  0  0  0  3  0  0  0  0  0  0
  188.8860  177.1380  142.5590 C   0  0  0  0  0  0  0  0  0  0  0  0
  188.6430  177.4140  143.8110 C   0  0  0  0  0  0  0  0  0  0  0  0
  187.3290  177.0190  144.3930 C   0  0  0  0  0  1  0  0  0  0  0  0
  189.6430  178.1190  144.6300 C   0  0  0  0  0  0  0  0  0  0  0  0
  190.5870  178.9480  144.0320 O   0  0  0  0  0  0  0  0  0  0  0  0
  189.6540  177.9750  145.8800 O   0  0  0  0  0  1  0  0  0  0  0  0
  1  4  1  0  0  0  0
  1  2  1  0  0  0  0
  2 11  1  0  0  0  0
  3  6  2  0  0  0  0
  3 13  1  0  0  0  0
  4 16  1  0  0  0  0
  5 12  1  0  0  0  0
  6 18  1  0  0  0  0
  7  8  1  0  0  0  0
  7  4  2  0  0  0  0
  8  5  2  0  0  0  0
  9 15  1  0  0  0  0
 10  9  1  0  0  0  0
 11 17  1  0  0  0  0
 13  1  1  0  0  0  0
 14 13  2  0  0  0  0
 14  7  1  0  0  0  0
 15 17  1  0  0  0  0
 16 12  2  0  0  0  0
 17 19  1  1  0  0  0
 18  9  1  0  0  0  0
 18  2  2  0  0  0  0
 19 20  2  0  0  0  0
 20 21  2  0  0  0  0
 21 22  1  0  0  0  0
 21 23  1  0  0  0  0
 23 25  1  0  0  0  0
 24 23  2  0  0  0  0
M  END
>  <MODEL>
7

>  <REMARK>
 VINA RESULT:      -7.0      3.952      6.660
  Name = 
  2 active torsions:
  status: ('A' for Active; 'I' for Inactive)
    1  A    between atoms: C_2  and  C_21
    2  A    between atoms: C_6  and  C_23
                            x       y       z     vdW  Elec       q    Type
                         _______ _______ _______ _____ _____    ______ ____

>  <TORSDO>
F 2

$$$$
=
 OpenBabel10272400513D

 25 28  0  0  1  0  0  0  0  0999 V2000
  185.1070  178.3620  143.2850 N   0  0  0  0  0  0  0  0  0  0  0  0
  184.1940  178.5560  142.2950 C   0  0  0  0  0  0  0  0  0  0  0  0
  183.5080  178.6810  145.0270 C   0  0  0  0  0  3  0  0  0  0  0  0
  186.4180  178.0860  143.2640 C   0  0  0  0  0  0  0  0  0  0  0  0
  189.0530  177.5080  143.7070 C   0  0  0  0  0  3  0  0  0  0  0  0
  182.5340  178.8960  144.0410 C   0  0  0  0  0  3  0  0  0  0  0  0
  186.8700  177.9780  144.5460 C   0  0  0  0  0  0  0  0  0  0  0  0
  188.2020  177.6850  144.8150 C   0  0  0  0  0  3  0  0  0  0  0  0
  181.8580  179.0380  141.6560 N   0  0  0  0  0  0  0  0  0  0  0  0
  180.4450  179.1000  141.9930 C   0  0  0  0  0  1  0  0  0  0  0  0
  184.5940  178.5220  140.8410 C   0  0  0  0  0  2  0  0  0  0  0  0
  188.5410  177.6280  142.3940 C   0  0  0  0  0  3  0  0  0  0  0  0
  184.8060  178.4130  144.6050 C   0  0  0  0  0  0  0  0  0  0  0  0
  185.8660  178.1820  145.4270 N   0  0  0  0  0  0  0  0  0  0  0  0
  182.2370  179.1630  140.2500 C   0  0  0  0  0  2  0  0  0  0  0  0
  187.2200  177.9170  142.1830 N   0  0  0  0  0  0  0  0  0  0  0  0
  183.4100  178.2430  139.9110 C   0  0  2  0  0  3  0  0  0  0  0  0
  182.8630  178.8450  142.6690 C   0  0  0  0  0  0  0  0  0  0  0  0
  183.0040  176.8080  139.9750 C   0  0  0  0  0  3  0  0  0  0  0  0
  182.9820  176.0880  138.8900 C   0  0  0  0  0  0  0  0  0  0  0  0
  182.9580  175.3680  137.8010 C   0  0  0  0  0  0  0  0  0  0  0  0
  183.8120  174.1490  137.7250 C   0  0  0  0  0  1  0  0  0  0  0  0
  182.1150  175.7650  136.6610 C   0  0  0  0  0  0  0  0  0  0  0  0
  181.7140  177.0890  136.5070 O   0  0  0  0  0  1  0  0  0  0  0  0
  181.7470  174.9080  135.8160 O   0  0  0  0  0  0  0  0  0  0  0  0
  1 13  1  0  0  0  0
  2 18  2  0  0  0  0
  2  1  1  0  0  0  0
  4  1  1  0  0  0  0
  4  7  1  0  0  0  0
  5  8  1  0  0  0  0
  6  3  2  0  0  0  0
  7  8  2  0  0  0  0
  7 14  1  0  0  0  0
  9 10  1  0  0  0  0
  9 18  1  0  0  0  0
 11  2  1  0  0  0  0
 12  5  2  0  0  0  0
 13  3  1  0  0  0  0
 13 14  2  0  0  0  0
 15  9  1  0  0  0  0
 16 12  1  0  0  0  0
 16  4  2  0  0  0  0
 17 19  1  1  0  0  0
 17 15  1  0  0  0  0
 17 11  1  0  0  0  0
 18  6  1  0  0  0  0
 20 19  2  0  0  0  0
 21 20  2  0  0  0  0
 22 21  1  0  0  0  0
 23 21  1  0  0  0  0
 24 23  1  0  0  0  0
 25 23  2  0  0  0  0
M  END
>  <MODEL>
8

>  <REMARK>
 VINA RESULT:      -7.0      3.979      6.631
  Name = 
  2 active torsions:
  status: ('A' for Active; 'I' for Inactive)
    1  A    between atoms: C_2  and  C_21
    2  A    between atoms: C_6  and  C_23
                            x       y       z     vdW  Elec       q    Type
                         _______ _______ _______ _____ _____    ______ ____

>  <TORSDO>
F 2

$$$$
=
 OpenBabel10272400513D

 25 28  0  0  1  0  0  0  0  0999 V2000
  188.4750  176.9160  138.4850 N   0  0  0  0  0  0  0  0  0  0  0  0
  188.7950  177.4810  139.6800 C   0  0  0  0  0  0  0  0  0  0  0  0
  190.5360  175.7240  138.3250 C   0  0  0  0  0  3  0  0  0  0  0  0
  187.3890  177.0050  137.7060 C   0  0  0  0  0  0  0  0  0  0  0  0
  185.4030  176.8650  135.8310 C   0  0  0  0  0  3  0  0  0  0  0  0
  190.9140  176.2890  139.5520 C   0  0  0  0  0  3  0  0  0  0  0  0
  187.5670  176.2220  136.6030 C   0  0  0  0  0  0  0  0  0  0  0  0
  186.5830  176.1230  135.6270 C   0  0  0  0  0  3  0  0  0  0  0  0
  190.4320  177.7350  141.5120 N   0  0  0  0  0  0  0  0  0  0  0  0
  191.6070  177.2660  142.2280 C   0  0  0  0  0  1  0  0  0  0  0  0
  187.8640  178.4480  140.3660 C   0  0  0  0  0  2  0  0  0  0  0  0
  185.2600  177.6630  136.9910 C   0  0  0  0  0  3  0  0  0  0  0  0
  189.2890  176.0670  137.8130 C   0  0  0  0  0  0  0  0  0  0  0  0
  188.7710  175.6100  136.6400 N   0  0  0  0  0  0  0  0  0  0  0  0
  189.6260  178.7880  142.1270 C   0  0  0  0  0  2  0  0  0  0  0  0
  186.2600  177.7250  137.9230 N   0  0  0  0  0  0  0  0  0  0  0  0
  188.1350  178.5610  141.8690 C   0  0  2  0  0  3  0  0  0  0  0  0
  190.0570  177.1760  140.2380 C   0  0  0  0  0  0  0  0  0  0  0  0
  187.6410  177.3560  142.5960 C   0  0  0  0  0  3  0  0  0  0  0  0
  187.6710  177.3210  143.8980 C   0  0  0  0  0  0  0  0  0  0  0  0
  187.7040  177.2880  145.2020 C   0  0  0  0  0  0  0  0  0  0  0  0
  186.4280  177.1040  145.9500 C   0  0  0  0  0  1  0  0  0  0  0  0
  188.9780  177.4490  145.9230 C   0  0  0  0  0  0  0  0  0  0  0  0
  189.1250  176.9550  147.2150 O   0  0  0  0  0  1  0  0  0  0  0  0
  189.9460  178.0380  145.3750 O   0  0  0  0  0  0  0  0  0  0  0  0
  1  2  1  0  0  0  0
  2 18  2  0  0  0  0
  2 11  1  0  0  0  0
  3  6  2  0  0  0  0
  4 16  1  0  0  0  0
  4  1  1  0  0  0  0
  5 12  1  0  0  0  0
  6 18  1  0  0  0  0
  7 14  1  0  0  0  0
  7  4  2  0  0  0  0
  8  5  2  0  0  0  0
  8  7  1  0  0  0  0
  9 15  1  0  0  0  0
  9 10  1  0  0  0  0
 11 17  1  0  0  0  0
 12 16  2  0  0  0  0
 13  3  1  0  0  0  0
 13  1  1  0  0  0  0
 14 13  2  0  0  0  0
 17 15  1  0  0  0  0
 17 19  1  1  0  0  0
 18  9  1  0  0  0  0
 19 20  2  0  0  0  0
 20 21  2  0  0  0  0
 21 23  1  0  0  0  0
 21 22  1  0  0  0  0
 23 24  1  0  0  0  0
 25 23  2  0  0  0  0
M  END
>  <MODEL>
9

>  <REMARK>
 VINA RESULT:      -7.0      3.881      6.902
  Name = 
  2 active torsions:
  status: ('A' for Active; 'I' for Inactive)
    1  A    between atoms: C_2  and  C_21
    2  A    between atoms: C_6  and  C_23
                            x       y       z     vdW  Elec       q    Type
                         _______ _______ _______ _____ _____    ______ ____

>  <TORSDO>
F 2

$$$$
