=
 OpenBabel10272413253D

 32 37  0  0  1  0  0  0  0  0999 V2000
  182.1590  175.7900  138.9260 C   0  0  2  0  0  3  0  0  0  0  0  0
  183.7260  178.5690  138.3830 C   0  0  0  0  0  2  0  0  0  0  0  0
  186.5840  177.9850  142.8250 C   0  0  0  0  0  2  0  0  0  0  0  0
  190.3300  176.6660  138.4460 C   0  0  0  0  0  3  0  0  0  0  0  0
  191.2870  176.8720  139.4590 C   0  0  0  0  0  3  0  0  0  0  0  0
  184.6200  178.3590  141.2140 C   0  0  2  0  0  3  0  0  0  0  0  0
  186.4230  178.6790  139.5470 C   0  0  0  0  0  2  0  0  0  0  0  0
  181.8220  177.0340  138.1080 C   0  0  0  0  0  2  0  0  0  0  0  0
  184.3380  179.7330  139.1600 C   0  0  0  0  0  2  0  0  0  0  0  0
  188.9760  176.9590  138.6790 C   0  0  0  0  0  3  0  0  0  0  0  0
  187.2640  177.7850  140.4530 C   0  0  1  0  0  3  0  0  0  0  0  0
  188.6180  177.4720  139.9270 C   0  0  0  0  0  0  0  0  0  0  0  0
  188.9530  178.1550  142.1040 N   0  0  0  0  0  0  0  0  0  0  0  0
  182.6040  176.2590  140.3010 C   0  0  0  0  0  2  0  0  0  0  0  0
  182.2950  177.7400  140.3320 C   0  0  1  0  0  3  0  0  0  0  0  0
  183.2000  175.0940  138.3140 O   0  0  0  0  0  1  0  0  0  0  0  0
  185.2490  179.2720  140.2180 N   0  0  1  0  0  0  0  0  0  0  0  0
  183.1050  178.5440  141.3530 C   0  0  0  0  0  2  0  0  0  0  0  0
  182.3270  178.2300  138.8920 C   0  0  1  0  0  3  0  0  0  0  0  0
  190.8980  177.3670  140.7140 C   0  0  0  0  0  3  0  0  0  0  0  0
  189.5470  177.6500  140.9190 C   0  0  0  0  0  0  0  0  0  0  0  0
  185.2150  178.6290  142.6030 C   0  0  0  0  0  2  0  0  0  0  0  0
  187.5650  178.4860  141.7840 C   0  0  2  0  0  3  0  0  0  0  0  0
  189.6960  178.7630  143.2020 C   0  0  0  0  0  2  0  0  0  0  0  0
  189.0040  177.9060  145.3620 C   0  0  0  0  0  3  0  0  0  0  0  0
  188.9840  176.9630  146.5200 C   0  0  1  0  0  3  0  0  0  0  0  0
  191.6090  176.2670  145.2580 C   0  0  0  0  0  3  0  0  0  0  0  0
  191.4370  176.6030  146.6840 C   0  0  0  0  0  3  0  0  0  0  0  0
  190.2850  176.9570  147.2510 C   0  0  0  0  0  3  0  0  0  0  0  0
  187.9710  177.3230  147.3870 F   0  0  0  0  0  0  0  0  0  0  0  0
  190.9130  176.7830  144.2380 C   0  0  0  0  0  3  0  0  0  0  0  0
  189.8420  177.7970  144.3290 C   0  0  0  0  0  0  0  0  0  0  0  0
  1 16  1  6  0  0  0
  1 14  1  0  0  0  0
  2 19  1  0  0  0  0
  2  9  1  0  0  0  0
  4 10  2  0  0  0  0
  4  5  1  0  0  0  0
  5 20  2  0  0  0  0
  6 18  1  1  0  0  0
  6 22  1  0  0  0  0
  7 17  1  0  0  0  0
  8  1  1  0  0  0  0
 10 12  1  0  0  0  0
 11  7  1  6  0  0  0
 11 23  1  0  0  0  0
 12 11  1  0  0  0  0
 12 21  2  0  0  0  0
 13 24  1  0  0  0  0
 15 14  1  6  0  0  0
 15 18  1  0  0  0  0
 17  9  1  6  0  0  0
 17  6  1  0  0  0  0
 19  8  1  6  0  0  0
 19 15  1  0  0  0  0
 20 21  1  0  0  0  0
 21 13  1  0  0  0  0
 22  3  1  0  0  0  0
 23 13  1  0  0  0  0
 23  3  1  1  0  0  0
 24 32  1  0  0  0  0
 25 26  1  0  0  0  0
 26 29  1  0  0  0  0
 26 30  1  1  0  0  0
 27 28  1  0  0  0  0
 28 29  2  0  0  0  0
 31 32  1  0  0  0  0
 31 27  2  0  0  0  0
 32 25  2  0  0  0  0
M  END
>  <MODEL>
1

>  <REMARK>
 VINA RESULT:      -9.4      0.000      0.000
  Name = 
  2 active torsions:
  status: ('A' for Active; 'I' for Inactive)
    1  A    between atoms: N_16  and  C_27
    2  A    between atoms: C_27  and  C_32
                            x       y       z     vdW  Elec       q    Type
                         _______ _______ _______ _____ _____    ______ ____

>  <TORSDO>
F 2

$$$$
=
 OpenBabel10272413253D

 32 37  0  0  1  0  0  0  0  0999 V2000
  188.8330  174.6750  136.1650 C   0  0  2  0  0  3  0  0  0  0  0  0
  189.8670  177.4880  137.3870 C   0  0  0  0  0  2  0  0  0  0  0  0
  185.2330  178.2730  139.8670 C   0  0  0  0  0  2  0  0  0  0  0  0
  188.9740  176.6650  144.1510 C   0  0  0  0  0  3  0  0  0  0  0  0
  187.9730  177.2180  144.9730 C   0  0  0  0  0  3  0  0  0  0  0  0
  187.0080  178.0040  138.0310 C   0  0  2  0  0  3  0  0  0  0  0  0
  188.5870  178.2430  139.9230 C   0  0  0  0  0  2  0  0  0  0  0  0
  189.9210  175.6580  135.7420 C   0  0  0  0  0  2  0  0  0  0  0  0
  189.3240  178.8660  137.7610 C   0  0  0  0  0  2  0  0  0  0  0  0
  188.8970  176.7900  142.7550 C   0  0  0  0  0  3  0  0  0  0  0  0
  187.4560  177.6940  140.7880 C   0  0  1  0  0  3  0  0  0  0  0  0
  187.8160  177.4890  142.2150 C   0  0  0  0  0  0  0  0  0  0  0  0
  185.8230  178.6480  142.2490 N   0  0  0  0  0  0  0  0  0  0  0  0
  187.5670  175.4790  136.4120 C   0  0  0  0  0  2  0  0  0  0  0  0
  187.8780  176.8700  135.9040 C   0  0  1  0  0  3  0  0  0  0  0  0
  189.2110  174.0350  137.3440 O   0  0  0  0  0  1  0  0  0  0  0  0
  188.1360  178.7770  138.6220 N   0  0  1  0  0  0  0  0  0  0  0  0
  187.0080  177.9810  136.4980 C   0  0  0  0  0  2  0  0  0  0  0  0
  189.3860  177.0530  136.0050 C   0  0  1  0  0  3  0  0  0  0  0  0
  186.8820  177.8950  144.4040 C   0  0  0  0  0  3  0  0  0  0  0  0
  186.8300  178.0060  143.0140 C   0  0  0  0  0  0  0  0  0  0  0  0
  185.6750  178.6420  138.4500 C   0  0  0  0  0  2  0  0  0  0  0  0
  186.2930  178.6910  140.8650 C   0  0  2  0  0  3  0  0  0  0  0  0
  184.8380  179.5750  142.7970 C   0  0  0  0  0  2  0  0  0  0  0  0
  182.9200  178.7290  141.5780 C   0  0  0  0  0  3  0  0  0  0  0  0
  181.5990  178.0550  141.3980 C   0  0  1  0  0  3  0  0  0  0  0  0
  181.5120  178.7160  144.3170 C   0  0  0  0  0  3  0  0  0  0  0  0
  180.4510  179.0670  143.3550 C   0  0  0  0  0  3  0  0  0  0  0  0
  180.4940  178.8190  142.0460 C   0  0  0  0  0  3  0  0  0  0  0  0
  181.3350  177.9200  140.0490 F   0  0  0  0  0  0  0  0  0  0  0  0
  182.8240  178.6680  144.0600 C   0  0  0  0  0  3  0  0  0  0  0  0
  183.4780  178.9660  142.7680 C   0  0  0  0  0  0  0  0  0  0  0  0
  1 14  1  0  0  0  0
  1 16  1  1  0  0  0
  2  9  1  0  0  0  0
  4  5  1  0  0  0  0
  6 18  1  6  0  0  0
  6 22  1  0  0  0  0
  6 17  1  0  0  0  0
  8  1  1  0  0  0  0
 10  4  2  0  0  0  0
 11  7  1  6  0  0  0
 11 23  1  0  0  0  0
 11 12  1  0  0  0  0
 12 10  1  0  0  0  0
 12 21  2  0  0  0  0
 13 24  1  0  0  0  0
 13 21  1  0  0  0  0
 15 19  1  0  0  0  0
 15 14  1  1  0  0  0
 15 18  1  0  0  0  0
 17  9  1  6  0  0  0
 17  7  1  0  0  0  0
 19  8  1  1  0  0  0
 19  2  1  0  0  0  0
 20  5  2  0  0  0  0
 21 20  1  0  0  0  0
 22  3  1  0  0  0  0
 23  3  1  6  0  0  0
 23 13  1  0  0  0  0
 25 32  2  0  0  0  0
 26 30  1  6  0  0  0
 26 25  1  0  0  0  0
 26 29  1  0  0  0  0
 28 27  1  0  0  0  0
 29 28  2  0  0  0  0
 31 27  2  0  0  0  0
 32 24  1  0  0  0  0
 32 31  1  0  0  0  0
M  END
>  <MODEL>
2

>  <REMARK>
 VINA RESULT:      -7.9      2.946      6.565
  Name = 
  2 active torsions:
  status: ('A' for Active; 'I' for Inactive)
    1  A    between atoms: N_16  and  C_27
    2  A    between atoms: C_27  and  C_32
                            x       y       z     vdW  Elec       q    Type
                         _______ _______ _______ _____ _____    ______ ____

>  <TORSDO>
F 2

$$$$
=
 OpenBabel10272413253D

 32 37  0  0  1  0  0  0  0  0999 V2000
  180.7250  175.5080  138.5370 C   0  0  2  0  0  3  0  0  0  0  0  0
  181.8210  178.5060  138.0050 C   0  0  0  0  0  2  0  0  0  0  0  0
  185.2720  178.1070  142.0270 C   0  0  0  0  0  2  0  0  0  0  0  0
  188.5760  177.5620  137.1560 C   0  0  0  0  0  3  0  0  0  0  0  0
  189.6180  177.8500  138.0590 C   0  0  0  0  0  3  0  0  0  0  0  0
  183.0870  178.2790  140.6890 C   0  0  2  0  0  3  0  0  0  0  0  0
  184.6050  178.9380  138.8470 C   0  0  0  0  0  2  0  0  0  0  0  0
  180.1230  176.7310  137.8530 C   0  0  0  0  0  2  0  0  0  0  0  0
  182.3640  179.7030  138.7830 C   0  0  0  0  0  2  0  0  0  0  0  0
  187.2360  177.6460  137.5670 C   0  0  0  0  0  3  0  0  0  0  0  0
  185.6670  178.1280  139.5840 C   0  0  1  0  0  3  0  0  0  0  0  0
  186.9730  178.0390  138.8800 C   0  0  0  0  0  0  0  0  0  0  0  0
  187.4860  178.6490  141.0440 N   0  0  0  0  0  0  0  0  0  0  0  0
  181.2740  175.9630  139.8790 C   0  0  0  0  0  2  0  0  0  0  0  0
  180.7740  177.3810  140.0490 C   0  0  1  0  0  3  0  0  0  0  0  0
  181.7650  175.0000  137.7600 O   0  0  0  0  0  1  0  0  0  0  0  0
  183.4560  179.3230  139.6920 N   0  0  1  0  0  0  0  0  0  0  0  0
  181.5910  178.2390  141.0190 C   0  0  0  0  0  2  0  0  0  0  0  0
  180.5570  177.9460  138.6520 C   0  0  1  0  0  3  0  0  0  0  0  0
  189.3270  178.2180  139.3830 C   0  0  0  0  0  3  0  0  0  0  0  0
  187.9870  178.2950  139.7650 C   0  0  0  0  0  0  0  0  0  0  0  0
  183.8110  178.5590  142.0140 C   0  0  0  0  0  2  0  0  0  0  0  0
  186.0370  178.7940  140.9150 C   0  0  2  0  0  3  0  0  0  0  0  0
  188.2730  179.2990  142.0860 C   0  0  0  0  0  2  0  0  0  0  0  0
  190.2600  178.6640  143.3220 C   0  0  0  0  0  3  0  0  0  0  0  0
  191.1320  177.7840  144.1570 C   0  0  1  0  0  3  0  0  0  0  0  0
  189.1930  175.7870  143.0540 C   0  0  0  0  0  3  0  0  0  0  0  0
  190.6590  175.6490  142.9790 C   0  0  0  0  0  3  0  0  0  0  0  0
  191.5350  176.5480  143.4260 C   0  0  0  0  0  3  0  0  0  0  0  0
  192.2620  178.4840  144.5340 F   0  0  0  0  0  0  0  0  0  0  0  0
  188.5060  176.9350  142.9970 C   0  0  0  0  0  3  0  0  0  0  0  0
  189.0730  178.2910  142.8390 C   0  0  0  0  0  0  0  0  0  0  0  0
  1 16  1  6  0  0  0
  1 14  1  0  0  0  0
  2 19  1  0  0  0  0
  2  9  1  0  0  0  0
  4 10  2  0  0  0  0
  4  5  1  0  0  0  0
  5 20  2  0  0  0  0
  6 18  1  1  0  0  0
  6 22  1  0  0  0  0
  7 17  1  0  0  0  0
  8  1  1  0  0  0  0
 10 12  1  0  0  0  0
 11  7  1  6  0  0  0
 11 23  1  0  0  0  0
 12 11  1  0  0  0  0
 12 21  2  0  0  0  0
 13 24  1  0  0  0  0
 15 14  1  6  0  0  0
 15 18  1  0  0  0  0
 17  9  1  6  0  0  0
 17  6  1  0  0  0  0
 19  8  1  6  0  0  0
 19 15  1  0  0  0  0
 20 21  1  0  0  0  0
 21 13  1  0  0  0  0
 22  3  1  0  0  0  0
 23 13  1  0  0  0  0
 23  3  1  1  0  0  0
 24 32  1  0  0  0  0
 25 26  1  0  0  0  0
 26 30  1  6  0  0  0
 28 27  1  0  0  0  0
 28 29  2  0  0  0  0
 29 26  1  0  0  0  0
 31 27  2  0  0  0  0
 32 31  1  0  0  0  0
 32 25  2  0  0  0  0
M  END
>  <MODEL>
3

>  <REMARK>
 VINA RESULT:      -7.8      1.901      2.381
  Name = 
  2 active torsions:
  status: ('A' for Active; 'I' for Inactive)
    1  A    between atoms: N_16  and  C_27
    2  A    between atoms: C_27  and  C_32
                            x       y       z     vdW  Elec       q    Type
                         _______ _______ _______ _____ _____    ______ ____

>  <TORSDO>
F 2

$$$$
=
 OpenBabel10272413253D

 32 37  0  0  1  0  0  0  0  0999 V2000
  188.6960  173.7340  135.4500 C   0  0  2  0  0  3  0  0  0  0  0  0
  190.1100  176.5820  136.0550 C   0  0  0  0  0  2  0  0  0  0  0  0
  186.2240  177.9570  139.4070 C   0  0  0  0  0  2  0  0  0  0  0  0
  190.7870  176.5580  142.8940 C   0  0  0  0  0  3  0  0  0  0  0  0
  190.0310  177.2660  143.8480 C   0  0  0  0  0  3  0  0  0  0  0  0
  187.5070  177.3660  137.2630 C   0  0  2  0  0  3  0  0  0  0  0  0
  189.4930  177.6950  138.7050 C   0  0  0  0  0  2  0  0  0  0  0  0
  189.6970  174.5860  134.6750 C   0  0  0  0  0  2  0  0  0  0  0  0
  189.7320  178.0270  136.3720 C   0  0  0  0  0  2  0  0  0  0  0  0
  190.3910  176.5370  141.5470 C   0  0  0  0  0  3  0  0  0  0  0  0
  188.5730  177.3240  139.8630 C   0  0  1  0  0  3  0  0  0  0  0  0
  189.2460  177.2490  141.1860 C   0  0  0  0  0  0  0  0  0  0  0  0
  187.3690  178.5440  141.5290 N   0  0  0  0  0  0  0  0  0  0  0  0
  187.5600  174.6490  135.8780 C   0  0  0  0  0  2  0  0  0  0  0  0
  187.8050  175.9510  135.1480 C   0  0  1  0  0  3  0  0  0  0  0  0
  189.3110  173.1990  136.5810 O   0  0  0  0  0  1  0  0  0  0  0  0
  188.7750  178.1160  137.4840 N   0  0  1  0  0  0  0  0  0  0  0  0
  187.1480  177.1780  135.7850 C   0  0  0  0  0  2  0  0  0  0  0  0
  189.3010  176.0360  134.8820 C   0  0  1  0  0  3  0  0  0  0  0  0
  188.8690  177.9540  143.4630 C   0  0  0  0  0  3  0  0  0  0  0  0
  188.4980  177.9180  142.1180 C   0  0  0  0  0  0  0  0  0  0  0  0
  186.3390  178.1390  137.8930 C   0  0  0  0  0  2  0  0  0  0  0  0
  187.5050  178.4040  140.0800 C   0  0  2  0  0  3  0  0  0  0  0  0
  186.5820  179.5930  142.1700 C   0  0  0  0  0  2  0  0  0  0  0  0
  184.2300  179.0240  142.0200 C   0  0  0  0  0  3  0  0  0  0  0  0
  182.9360  178.4170  142.4550 C   0  0  1  0  0  3  0  0  0  0  0  0
  184.4260  178.5110  145.0500 C   0  0  0  0  0  3  0  0  0  0  0  0
  183.0700  179.0560  144.8520 C   0  0  0  0  0  3  0  0  0  0  0  0
  182.4110  179.0610  143.6940 C   0  0  0  0  0  3  0  0  0  0  0  0
  182.0060  178.5460  141.4410 F   0  0  0  0  0  0  0  0  0  0  0  0
  185.4080  178.4930  144.1410 C   0  0  0  0  0  3  0  0  0  0  0  0
  185.3390  179.0210  142.7620 C   0  0  0  0  0  0  0  0  0  0  0  0
  1 14  1  0  0  0  0
  1 16  1  1  0  0  0
  2  9  1  0  0  0  0
  4  5  1  0  0  0  0
  6 18  1  6  0  0  0
  6 17  1  0  0  0  0
  6 22  1  0  0  0  0
  8  1  1  0  0  0  0
 10  4  2  0  0  0  0
 11  7  1  6  0  0  0
 11 23  1  0  0  0  0
 11 12  1  0  0  0  0
 12 10  1  0  0  0  0
 12 21  2  0  0  0  0
 13 21  1  0  0  0  0
 13 24  1  0  0  0  0
 15 18  1  1  0  0  0
 15 14  1  0  0  0  0
 17  9  1  6  0  0  0
 17  7  1  0  0  0  0
 19  8  1  1  0  0  0
 19 15  1  0  0  0  0
 19  2  1  0  0  0  0
 20  5  2  0  0  0  0
 21 20  1  0  0  0  0
 22  3  1  0  0  0  0
 23  3  1  1  0  0  0
 23 13  1  0  0  0  0
 24 32  1  0  0  0  0
 25 26  1  0  0  0  0
 25 32  2  0  0  0  0
 26 30  1  6  0  0  0
 26 29  1  0  0  0  0
 28 27  1  0  0  0  0
 29 28  2  0  0  0  0
 31 27  2  0  0  0  0
 32 31  1  0  0  0  0
M  END
>  <MODEL>
4

>  <REMARK>
 VINA RESULT:      -7.6      3.035      5.901
  Name = 
  2 active torsions:
  status: ('A' for Active; 'I' for Inactive)
    1  A    between atoms: N_16  and  C_27
    2  A    between atoms: C_27  and  C_32
                            x       y       z     vdW  Elec       q    Type
                         _______ _______ _______ _____ _____    ______ ____

>  <TORSDO>
F 2

$$$$
=
 OpenBabel10272413253D

 32 37  0  0  1  0  0  0  0  0999 V2000
  185.5620  175.0710  135.7370 C   0  0  2  0  0  3  0  0  0  0  0  0
  187.1250  177.9050  135.6960 C   0  0  0  0  0  2  0  0  0  0  0  0
  187.7990  177.7660  140.9650 C   0  0  0  0  0  2  0  0  0  0  0  0
  193.1070  176.4230  138.7370 C   0  0  0  0  0  3  0  0  0  0  0  0
  193.5270  176.7480  140.0420 C   0  0  0  0  0  3  0  0  0  0  0  0
  186.7140  177.9200  138.6430 C   0  0  2  0  0  3  0  0  0  0  0  0
  189.0500  178.2510  137.8910 C   0  0  0  0  0  2  0  0  0  0  0  0
  185.5740  176.2410  134.7570 C   0  0  0  0  0  2  0  0  0  0  0  0
  187.3060  179.1490  136.5640 C   0  0  0  0  0  2  0  0  0  0  0  0
  191.7780  176.6440  138.3430 C   0  0  0  0  0  3  0  0  0  0  0  0
  189.4430  177.4670  139.1390 C   0  0  1  0  0  3  0  0  0  0  0  0
  190.9010  177.2080  139.2710 C   0  0  0  0  0  0  0  0  0  0  0  0
  190.2410  178.0390  141.3180 N   0  0  0  0  0  0  0  0  0  0  0  0
  185.3550  175.6480  137.1280 C   0  0  0  0  0  2  0  0  0  0  0  0
  185.0180  177.1060  136.9040 C   0  0  1  0  0  3  0  0  0  0  0  0
  186.7860  174.4060  135.6890 O   0  0  0  0  0  1  0  0  0  0  0  0
  187.6840  178.8100  137.9440 N   0  0  1  0  0  0  0  0  0  0  0  0
  185.2830  178.0180  138.1040 C   0  0  0  0  0  2  0  0  0  0  0  0
  185.6550  177.5110  135.5820 C   0  0  1  0  0  3  0  0  0  0  0  0
  192.6190  177.2910  140.9640 C   0  0  0  0  0  3  0  0  0  0  0  0
  191.3040  177.5020  140.5470 C   0  0  0  0  0  0  0  0  0  0  0  0
  186.6420  178.3100  140.1270 C   0  0  0  0  0  2  0  0  0  0  0  0
  189.1180  178.2630  140.4090 C   0  0  2  0  0  3  0  0  0  0  0  0
  190.4180  178.7570  142.5760 C   0  0  0  0  0  2  0  0  0  0  0  0
  188.9620  177.9120  144.3200 C   0  0  0  0  0  3  0  0  0  0  0  0
  188.5370  177.0140  145.4360 C   0  0  1  0  0  3  0  0  0  0  0  0
  191.4940  176.5430  145.4140 C   0  0  0  0  0  3  0  0  0  0  0  0
  190.7210  176.9100  146.6150 C   0  0  0  0  0  3  0  0  0  0  0  0
  189.4140  177.1660  146.6330 C   0  0  0  0  0  3  0  0  0  0  0  0
  187.2310  177.3010  145.7830 F   0  0  0  0  0  0  0  0  0  0  0  0
  191.2460  176.9490  144.1630 C   0  0  0  0  0  3  0  0  0  0  0  0
  190.1580  177.8520  143.7320 C   0  0  0  0  0  0  0  0  0  0  0  0
  1 16  1  1  0  0  0
  1 14  1  0  0  0  0
  2  9  1  0  0  0  0
  4  5  1  0  0  0  0
  5 20  2  0  0  0  0
  6 18  1  6  0  0  0
  6 22  1  0  0  0  0
  7 17  1  0  0  0  0
  8  1  1  0  0  0  0
 10  4  2  0  0  0  0
 10 12  1  0  0  0  0
 11  7  1  6  0  0  0
 11 12  1  0  0  0  0
 11 23  1  0  0  0  0
 12 21  2  0  0  0  0
 13 24  1  0  0  0  0
 15 14  1  1  0  0  0
 15 18  1  0  0  0  0
 17  9  1  6  0  0  0
 17  6  1  0  0  0  0
 19  8  1  6  0  0  0
 19  2  1  0  0  0  0
 19 15  1  0  0  0  0
 21 20  1  0  0  0  0
 21 13  1  0  0  0  0
 22  3  1  0  0  0  0
 23  3  1  1  0  0  0
 23 13  1  0  0  0  0
 24 32  1  0  0  0  0
 25 26  1  0  0  0  0
 26 30  1  1  0  0  0
 26 29  1  0  0  0  0
 27 28  1  0  0  0  0
 28 29  2  0  0  0  0
 31 27  2  0  0  0  0
 32 31  1  0  0  0  0
 32 25  2  0  0  0  0
M  END
>  <MODEL>
5

>  <REMARK>
 VINA RESULT:      -7.6      2.262      2.960
  Name = 
  2 active torsions:
  status: ('A' for Active; 'I' for Inactive)
    1  A    between atoms: N_16  and  C_27
    2  A    between atoms: C_27  and  C_32
                            x       y       z     vdW  Elec       q    Type
                         _______ _______ _______ _____ _____    ______ ____

>  <TORSDO>
F 2

$$$$
=
 OpenBabel10272413253D

 32 37  0  0  1  0  0  0  0  0999 V2000
  180.8740  174.3670  136.5890 C   0  0  2  0  0  3  0  0  0  0  0  0
  181.5460  177.5150  136.2480 C   0  0  0  0  0  2  0  0  0  0  0  0
  183.3840  177.8030  141.2250 C   0  0  0  0  0  2  0  0  0  0  0  0
  188.2250  177.8570  137.8330 C   0  0  0  0  0  3  0  0  0  0  0  0
  188.8170  178.3420  139.0150 C   0  0  0  0  0  3  0  0  0  0  0  0
  181.8120  177.5500  139.2120 C   0  0  2  0  0  3  0  0  0  0  0  0
  183.7380  178.4700  137.9580 C   0  0  0  0  0  2  0  0  0  0  0  0
  180.3460  175.4500  135.6530 C   0  0  0  0  0  2  0  0  0  0  0  0
  181.5650  178.7980  137.0760 C   0  0  0  0  0  2  0  0  0  0  0  0
  186.8330  177.6890  137.7530 C   0  0  0  0  0  3  0  0  0  0  0  0
  184.5990  177.8810  139.0700 C   0  0  1  0  0  3  0  0  0  0  0  0
  186.0630  178.0340  138.8650 C   0  0  0  0  0  0  0  0  0  0  0  0
  185.6720  178.7460  141.0230 N   0  0  0  0  0  0  0  0  0  0  0  0
  180.8300  174.9280  138.0010 C   0  0  0  0  0  2  0  0  0  0  0  0
  180.0630  176.2280  137.8860 C   0  0  1  0  0  3  0  0  0  0  0  0
  182.1910  174.0590  136.2540 O   0  0  0  0  0  1  0  0  0  0  0  0
  182.3180  178.6380  138.3280 N   0  0  1  0  0  0  0  0  0  0  0  0
  180.3260  177.2300  139.0120 C   0  0  0  0  0  2  0  0  0  0  0  0
  180.2540  176.7310  136.4620 C   0  0  1  0  0  3  0  0  0  0  0  0
  188.0220  178.6590  140.1290 C   0  0  0  0  0  3  0  0  0  0  0  0
  186.6420  178.4840  140.0230 C   0  0  0  0  0  0  0  0  0  0  0  0
  181.9660  177.9720  140.6800 C   0  0  0  0  0  2  0  0  0  0  0  0
  184.3580  178.6140  140.3950 C   0  0  2  0  0  3  0  0  0  0  0  0
  185.9180  179.5410  142.2220 C   0  0  0  0  0  2  0  0  0  0  0  0
  185.1860  178.8450  144.4260 C   0  0  0  0  0  3  0  0  0  0  0  0
  185.1420  177.9860  145.6470 C   0  0  1  0  0  3  0  0  0  0  0  0
  187.7790  177.1830  144.4790 C   0  0  0  0  0  3  0  0  0  0  0  0
  187.5880  177.6210  145.8740 C   0  0  0  0  0  3  0  0  0  0  0  0
  186.4310  178.0220  146.3980 C   0  0  0  0  0  3  0  0  0  0  0  0
  184.1190  178.4150  146.4710 F   0  0  0  0  0  0  0  0  0  0  0  0
  187.1020  177.6300  143.4140 C   0  0  0  0  0  3  0  0  0  0  0  0
  186.0390  178.6560  143.4160 C   0  0  0  0  0  0  0  0  0  0  0  0
  1 16  1  6  0  0  0
  1 14  1  0  0  0  0
  2 19  1  0  0  0  0
  2  9  1  0  0  0  0
  4  5  1  0  0  0  0
  5 20  2  0  0  0  0
  6 18  1  6  0  0  0
  6 22  1  0  0  0  0
  7 17  1  0  0  0  0
  8  1  1  0  0  0  0
 10  4  2  0  0  0  0
 10 12  1  0  0  0  0
 11  7  1  6  0  0  0
 11 23  1  0  0  0  0
 12 11  1  0  0  0  0
 12 21  2  0  0  0  0
 13 24  1  0  0  0  0
 15 14  1  1  0  0  0
 15 18  1  0  0  0  0
 17  9  1  6  0  0  0
 17  6  1  0  0  0  0
 19  8  1  6  0  0  0
 19 15  1  0  0  0  0
 21 20  1  0  0  0  0
 21 13  1  0  0  0  0
 22  3  1  0  0  0  0
 23 13  1  0  0  0  0
 23  3  1  1  0  0  0
 24 32  1  0  0  0  0
 25 26  1  0  0  0  0
 26 29  1  0  0  0  0
 26 30  1  1  0  0  0
 27 28  1  0  0  0  0
 28 29  2  0  0  0  0
 31 32  1  0  0  0  0
 31 27  2  0  0  0  0
 32 25  2  0  0  0  0
M  END
>  <MODEL>
6

>  <REMARK>
 VINA RESULT:      -7.5      2.211      3.500
  Name = 
  2 active torsions:
  status: ('A' for Active; 'I' for Inactive)
    1  A    between atoms: N_16  and  C_27
    2  A    between atoms: C_27  and  C_32
                            x       y       z     vdW  Elec       q    Type
                         _______ _______ _______ _____ _____    ______ ____

>  <TORSDO>
F 2

$$$$
=
 OpenBabel10272413253D

 32 37  0  0  1  0  0  0  0  0999 V2000
  184.8760  175.0720  135.8320 C   0  0  2  0  0  3  0  0  0  0  0  0
  186.8030  177.5840  135.1590 C   0  0  0  0  0  2  0  0  0  0  0  0
  189.0570  177.3200  139.9640 C   0  0  0  0  0  2  0  0  0  0  0  0
  193.0950  175.0590  136.2860 C   0  0  0  0  0  3  0  0  0  0  0  0
  193.9500  175.3020  137.3790 C   0  0  0  0  0  3  0  0  0  0  0  0
  187.3430  177.6670  138.0840 C   0  0  2  0  0  3  0  0  0  0  0  0
  189.3470  177.5790  136.6320 C   0  0  0  0  0  2  0  0  0  0  0  0
  184.7790  176.2230  134.8340 C   0  0  0  0  0  2  0  0  0  0  0  0
  187.4530  178.7740  135.8610 C   0  0  0  0  0  2  0  0  0  0  0  0
  191.7660  175.5130  136.3090 C   0  0  0  0  0  3  0  0  0  0  0  0
  189.9720  176.7360  137.7390 C   0  0  1  0  0  3  0  0  0  0  0  0
  191.3320  176.2220  137.4300 C   0  0  0  0  0  0  0  0  0  0  0  0
  191.4960  177.1540  139.5330 N   0  0  0  0  0  0  0  0  0  0  0  0
  185.2150  175.6750  137.1860 C   0  0  0  0  0  2  0  0  0  0  0  0
  185.0760  177.1700  136.9980 C   0  0  1  0  0  3  0  0  0  0  0  0
  185.8930  174.2000  135.4460 O   0  0  0  0  0  1  0  0  0  0  0  0
  188.1810  178.3720  137.0730 N   0  0  1  0  0  0  0  0  0  0  0  0
  185.8530  178.0190  138.0070 C   0  0  0  0  0  2  0  0  0  0  0  0
  185.3260  177.4570  135.5250 C   0  0  1  0  0  3  0  0  0  0  0  0
  193.4810  175.9970  138.5050 C   0  0  0  0  0  3  0  0  0  0  0  0
  192.1570  176.4380  138.5020 C   0  0  0  0  0  0  0  0  0  0  0  0
  187.8050  178.0610  139.4950 C   0  0  0  0  0  2  0  0  0  0  0  0
  190.2000  177.5750  139.0030 C   0  0  2  0  0  3  0  0  0  0  0  0
  192.1760  177.8270  140.6340 C   0  0  0  0  0  2  0  0  0  0  0  0
  191.2030  176.2010  142.1460 C   0  0  0  0  0  3  0  0  0  0  0  0
  190.6250  175.6940  143.4270 C   0  0  1  0  0  3  0  0  0  0  0  0
  190.2770  178.6480  143.7700 C   0  0  0  0  0  3  0  0  0  0  0  0
  189.1940  177.6600  143.9350 C   0  0  0  0  0  3  0  0  0  0  0  0
  189.3220  176.3480  143.7440 C   0  0  0  0  0  3  0  0  0  0  0  0
  190.4440  174.3280  143.3390 F   0  0  0  0  0  0  0  0  0  0  0  0
  191.2930  178.5650  142.9040 C   0  0  0  0  0  3  0  0  0  0  0  0
  191.5340  177.4760  141.9340 C   0  0  0  0  0  0  0  0  0  0  0  0
  1 16  1  6  0  0  0
  1 14  1  0  0  0  0
  2 19  1  0  0  0  0
  2  9  1  0  0  0  0
  4 10  2  0  0  0  0
  4  5  1  0  0  0  0
  5 20  2  0  0  0  0
  6 18  1  6  0  0  0
  6 22  1  0  0  0  0
  7 17  1  0  0  0  0
  8  1  1  0  0  0  0
 10 12  1  0  0  0  0
 11  7  1  6  0  0  0
 11 23  1  0  0  0  0
 12 11  1  0  0  0  0
 12 21  2  0  0  0  0
 13 24  1  0  0  0  0
 15 14  1  6  0  0  0
 15 18  1  0  0  0  0
 17  9  1  6  0  0  0
 17  6  1  0  0  0  0
 19  8  1  6  0  0  0
 19 15  1  0  0  0  0
 21 20  1  0  0  0  0
 21 13  1  0  0  0  0
 22  3  1  0  0  0  0
 23 13  1  0  0  0  0
 23  3  1  1  0  0  0
 24 32  1  0  0  0  0
 25 26  1  0  0  0  0
 26 30  1  6  0  0  0
 26 29  1  0  0  0  0
 27 28  1  0  0  0  0
 29 28  2  0  0  0  0
 31 27  2  0  0  0  0
 32 25  2  0  0  0  0
 32 31  1  0  0  0  0
M  END
>  <MODEL>
7

>  <REMARK>
 VINA RESULT:      -6.8      2.950      4.027
  Name = 
  2 active torsions:
  status: ('A' for Active; 'I' for Inactive)
    1  A    between atoms: N_16  and  C_27
    2  A    between atoms: C_27  and  C_32
                            x       y       z     vdW  Elec       q    Type
                         _______ _______ _______ _____ _____    ______ ____

>  <TORSDO>
F 2

$$$$
=
 OpenBabel10272413253D

 32 37  0  0  1  0  0  0  0  0999 V2000
  181.5640  174.0810  136.3320 C   0  0  2  0  0  3  0  0  0  0  0  0
  183.5600  175.8300  134.4810 C   0  0  0  0  0  2  0  0  0  0  0  0
  186.1730  177.6190  138.7480 C   0  0  0  0  0  2  0  0  0  0  0  0
  189.7810  173.5910  136.3590 C   0  0  0  0  0  3  0  0  0  0  0  0
  190.7320  174.2380  137.1720 C   0  0  0  0  0  3  0  0  0  0  0  0
  184.3360  177.2050  137.0040 C   0  0  2  0  0  3  0  0  0  0  0  0
  186.2100  176.2920  135.6680 C   0  0  0  0  0  2  0  0  0  0  0  0
  181.4480  174.6470  134.9200 C   0  0  0  0  0  2  0  0  0  0  0  0
  184.3260  177.1510  134.5180 C   0  0  0  0  0  2  0  0  0  0  0  0
  188.4840  174.1140  136.2300 C   0  0  0  0  0  3  0  0  0  0  0  0
  186.8760  176.0040  137.0090 C   0  0  1  0  0  3  0  0  0  0  0  0
  188.1780  175.2930  136.9110 C   0  0  0  0  0  0  0  0  0  0  0  0
  188.5580  177.0710  138.3300 N   0  0  0  0  0  0  0  0  0  0  0  0
  182.0410  175.2080  137.2340 C   0  0  0  0  0  2  0  0  0  0  0  0
  181.9660  176.4550  136.3800 C   0  0  1  0  0  3  0  0  0  0  0  0
  182.4990  173.0480  136.3490 O   0  0  0  0  0  1  0  0  0  0  0  0
  185.1260  177.2920  135.7440 N   0  0  1  0  0  0  0  0  0  0  0  0
  182.8640  177.6050  136.8420 C   0  0  0  0  0  2  0  0  0  0  0  0
  182.1130  176.0100  134.9310 C   0  0  1  0  0  3  0  0  0  0  0  0
  190.3910  175.4090  137.8680 C   0  0  0  0  0  3  0  0  0  0  0  0
  189.0960  175.9090  137.7210 C   0  0  0  0  0  0  0  0  0  0  0  0
  184.9280  178.1630  138.0470 C   0  0  0  0  0  2  0  0  0  0  0  0
  187.2480  177.3080  137.7260 C   0  0  2  0  0  3  0  0  0  0  0  0
  189.3580  178.1160  138.9600 C   0  0  0  0  0  2  0  0  0  0  0  0
  190.5110  177.3240  140.9410 C   0  0  0  0  0  3  0  0  0  0  0  0
  190.7430  177.1190  142.4020 C   0  0  1  0  0  3  0  0  0  0  0  0
  187.8200  177.7680  142.3700 C   0  0  0  0  0  3  0  0  0  0  0  0
  188.4000  176.5820  143.0270 C   0  0  0  0  0  3  0  0  0  0  0  0
  189.6920  176.2560  143.0140 C   0  0  0  0  0  3  0  0  0  0  0  0
  191.9820  176.5390  142.5920 F   0  0  0  0  0  0  0  0  0  0  0  0
  188.2670  178.3430  141.2480 C   0  0  0  0  0  3  0  0  0  0  0  0
  189.4210  177.9050  140.4350 C   0  0  0  0  0  0  0  0  0  0  0  0
  1 16  1  6  0  0  0
  1 14  1  0  0  0  0
  2  9  1  0  0  0  0
  4  5  1  0  0  0  0
  5 20  2  0  0  0  0
  6 18  1  6  0  0  0
  6 22  1  0  0  0  0
  7 17  1  0  0  0  0
  8 19  1  0  0  0  0
  8  1  1  0  0  0  0
 10  4  2  0  0  0  0
 10 12  1  0  0  0  0
 11  7  1  6  0  0  0
 11 23  1  0  0  0  0
 12 11  1  0  0  0  0
 12 21  2  0  0  0  0
 13 24  1  0  0  0  0
 15 18  1  1  0  0  0
 15 14  1  0  0  0  0
 17  9  1  6  0  0  0
 17  6  1  0  0  0  0
 19  2  1  1  0  0  0
 19 15  1  0  0  0  0
 21 20  1  0  0  0  0
 21 13  1  0  0  0  0
 22  3  1  0  0  0  0
 23 13  1  0  0  0  0
 23  3  1  1  0  0  0
 24 32  1  0  0  0  0
 25 26  1  0  0  0  0
 26 30  1  6  0  0  0
 26 29  1  0  0  0  0
 27 28  1  0  0  0  0
 29 28  2  0  0  0  0
 31 27  2  0  0  0  0
 32 25  2  0  0  0  0
 32 31  1  0  0  0  0
M  END
>  <MODEL>
8

>  <REMARK>
 VINA RESULT:      -6.7      2.896      4.284
  Name = 
  2 active torsions:
  status: ('A' for Active; 'I' for Inactive)
    1  A    between atoms: N_16  and  C_27
    2  A    between atoms: C_27  and  C_32
                            x       y       z     vdW  Elec       q    Type
                         _______ _______ _______ _____ _____    ______ ____

>  <TORSDO>
F 2

$$$$
=
 OpenBabel10272413253D

 32 37  0  0  1  0  0  0  0  0999 V2000
  189.2030  176.3370  143.3470 C   0  0  2  0  0  3  0  0  0  0  0  0
  188.4820  178.1180  140.7430 C   0  0  0  0  0  2  0  0  0  0  0  0
  191.7340  175.2260  137.6930 C   0  0  0  0  0  2  0  0  0  0  0  0
  186.2990  173.4340  136.2130 C   0  0  0  0  0  3  0  0  0  0  0  0
  186.9790  172.9230  135.0900 C   0  0  0  0  0  3  0  0  0  0  0  0
  190.8590  176.8410  139.4870 C   0  0  2  0  0  3  0  0  0  0  0  0
  188.7550  176.6860  138.1900 C   0  0  0  0  0  2  0  0  0  0  0  0
  188.6600  177.7520  143.1700 C   0  0  0  0  0  2  0  0  0  0  0  0
  189.1440  178.6410  139.4690 C   0  0  0  0  0  2  0  0  0  0  0  0
  186.9690  174.2510  137.1370 C   0  0  0  0  0  3  0  0  0  0  0  0
  189.2610  175.3160  137.7490 C   0  0  1  0  0  3  0  0  0  0  0  0
  188.3110  174.5520  136.8990 C   0  0  0  0  0  0  0  0  0  0  0  0
  190.3330  174.4530  135.7960 N   0  0  0  0  0  0  0  0  0  0  0  0
  190.4120  176.1980  142.4360 C   0  0  0  0  0  2  0  0  0  0  0  0
  190.6860  177.5980  141.9290 C   0  0  1  0  0  3  0  0  0  0  0  0
  188.2320  175.4100  142.9710 O   0  0  0  0  0  1  0  0  0  0  0  0
  189.8140  177.5720  138.7160 N   0  0  1  0  0  0  0  0  0  0  0  0
  191.4800  177.6630  140.6220 C   0  0  0  0  0  2  0  0  0  0  0  0
  189.3640  178.3510  141.9670 C   0  0  1  0  0  3  0  0  0  0  0  0
  188.3360  173.2200  134.8860 C   0  0  0  0  0  3  0  0  0  0  0  0
  188.9780  174.0360  135.8190 C   0  0  0  0  0  0  0  0  0  0  0  0
  192.0150  176.4610  138.5510 C   0  0  0  0  0  2  0  0  0  0  0  0
  190.4960  175.4530  136.8500 C   0  0  2  0  0  3  0  0  0  0  0  0
  191.2020  174.3640  134.6260 C   0  0  0  0  0  2  0  0  0  0  0  0
  192.3680  172.4090  135.4620 C   0  0  0  0  0  3  0  0  0  0  0  0
  193.5470  171.5470  135.7760 C   0  0  1  0  0  3  0  0  0  0  0  0
  194.8570  174.2230  135.4820 C   0  0  0  0  0  3  0  0  0  0  0  0
  195.0320  173.3370  136.6480 C   0  0  0  0  0  3  0  0  0  0  0  0
  194.4230  172.1640  136.8140 C   0  0  0  0  0  3  0  0  0  0  0  0
  193.1070  170.3150  136.2200 F   0  0  0  0  0  0  0  0  0  0  0  0
  193.7430  174.3530  134.7520 C   0  0  0  0  0  3  0  0  0  0  0  0
  192.4630  173.6460  134.9690 C   0  0  0  0  0  0  0  0  0  0  0  0
  1 16  1  6  0  0  0
  3 22  1  0  0  0  0
  4 10  1  0  0  0  0
  5  4  2  0  0  0  0
  6 22  1  6  0  0  0
  6 18  1  0  0  0  0
  8  1  1  0  0  0  0
  9  2  1  0  0  0  0
 11  7  1  6  0  0  0
 12 10  2  0  0  0  0
 12 11  1  0  0  0  0
 13 21  1  0  0  0  0
 13 23  1  0  0  0  0
 14  1  1  0  0  0  0
 15 18  1  6  0  0  0
 15 19  1  0  0  0  0
 15 14  1  0  0  0  0
 17  7  1  1  0  0  0
 17  9  1  0  0  0  0
 17  6  1  0  0  0  0
 19  2  1  6  0  0  0
 19  8  1  0  0  0  0
 20  5  1  0  0  0  0
 20 21  2  0  0  0  0
 21 12  1  0  0  0  0
 23  3  1  1  0  0  0
 23 11  1  0  0  0  0
 24 32  1  0  0  0  0
 24 13  1  0  0  0  0
 25 26  1  0  0  0  0
 26 30  1  1  0  0  0
 26 29  1  0  0  0  0
 27 28  1  0  0  0  0
 28 29  2  0  0  0  0
 31 32  1  0  0  0  0
 31 27  2  0  0  0  0
 32 25  2  0  0  0  0
M  END
>  <MODEL>
9

>  <REMARK>
 VINA RESULT:      -6.5      4.784      8.383
  Name = 
  2 active torsions:
  status: ('A' for Active; 'I' for Inactive)
    1  A    between atoms: N_16  and  C_27
    2  A    between atoms: C_27  and  C_32
                            x       y       z     vdW  Elec       q    Type
                         _______ _______ _______ _____ _____    ______ ____

>  <TORSDO>
F 2

$$$$
