=
 OpenBabel10272415193D

 34 38  0  0  1  0  0  0  0  0999 V2000
  181.6090  178.4150  143.2580 C   0  0  1  0  0  3  0  0  0  0  0  0
  180.2800  178.2410  143.9690 C   0  0  0  0  0  1  0  0  0  0  0  0
  182.1160  177.6620  140.9750 N   0  0  0  0  0  0  0  0  0  0  0  0
  180.8080  178.6340  137.7270 C   0  0  0  0  0  2  0  0  0  0  0  0
  180.5510  179.5510  139.8110 N   0  0  0  0  0  0  0  0  0  0  0  0
  180.6680  179.5320  141.1610 C   0  0  0  0  0  0  0  0  0  0  0  0
  181.4290  178.5220  141.7680 C   0  0  0  0  0  0  0  0  0  0  0  0
  179.9880  180.5150  141.9370 N   0  0  0  0  0  1  0  0  0  0  0  0
  181.0960  177.5500  136.7460 C   0  0  0  0  0  2  0  0  0  0  0  0
  182.5500  177.3300  136.5270 C   0  0  0  0  0  0  0  0  0  0  0  0
  183.3400  176.9780  137.5400 C   0  0  0  0  0  3  0  0  0  0  0  0
  181.1740  178.6430  139.0130 C   0  0  0  0  0  0  0  0  0  0  0  0
  182.9820  176.9750  138.9710 C   0  0  0  0  0  2  0  0  0  0  0  0
  182.0590  177.7060  139.6170 C   0  0  0  0  0  0  0  0  0  0  0  0
  183.0630  177.3350  135.1870 N   0  0  0  0  0  0  0  0  0  0  0  0
  183.9720  176.3800  134.7930 O   0  0  0  0  0  0  0  0  0  0  0  0
  182.6800  178.1860  134.3560 O   0  0  0  0  0  0  0  0  0  0  0  0
  182.3750  179.6010  143.8350 C   0  0  0  0  0  2  0  0  0  0  0  0
  187.3410  177.8170  144.3320 C   0  0  0  0  0  3  0  0  0  0  0  0
  186.2010  178.4500  146.8540 C   0  0  0  0  0  3  0  0  0  0  0  0
  190.1220  176.9230  146.6160 C   0  0  0  0  0  0  0  0  0  0  0  0
  183.7440  179.1950  144.2660 C   0  0  0  0  0  0  0  0  0  0  0  0
  184.9530  178.6430  143.2190 S   0  0  0  0  0  0  0  0  0  0  0  0
  189.3780  177.1190  145.4440 C   0  0  0  0  0  3  0  0  0  0  0  0
  188.0770  177.6250  145.5090 C   0  0  0  0  0  0  0  0  0  0  0  0
  184.1740  179.1250  145.5910 C   0  0  0  0  0  3  0  0  0  0  0  0
  188.2520  177.7440  147.9380 C   0  0  0  0  0  3  0  0  0  0  0  0
  187.5070  177.9420  146.7740 C   0  0  0  0  0  0  0  0  0  0  0  0
  189.5520  177.2380  147.8580 C   0  0  0  0  0  3  0  0  0  0  0  0
  185.4810  178.6380  145.6740 C   0  0  0  0  0  0  0  0  0  0  0  0
  186.0490  178.3250  144.4470 C   0  0  0  0  0  0  0  0  0  0  0  0
  191.4920  176.3900  146.5370 C   0  0  0  0  0  0  0  0  0  0  0  0
  191.9200  175.8850  145.4650 O   0  0  0  0  0  0  0  0  0  0  0  0
  192.3270  176.4390  147.6470 O   0  0  0  0  0  1  0  0  0  0  0  0
  1 18  1  0  0  0  0
  1  2  1  1  0  0  0
  3  7  1  0  0  0  0
  4 12  1  0  0  0  0
  5  6  1  0  0  0  0
  6  7  2  0  0  0  0
  6  8  1  0  0  0  0
  7  1  1  0  0  0  0
  9  4  1  0  0  0  0
 10  9  1  0  0  0  0
 10 11  2  0  0  0  0
 11 13  1  0  0  0  0
 12 14  1  0  0  0  0
 12  5  2  0  0  0  0
 13 14  1  0  0  0  0
 14  3  2  0  0  0  0
 15 10  1  0  0  0  0
 16 15  2  0  0  0  0
 17 15  2  0  0  0  0
 18 22  1  0  0  0  0
 19 31  2  0  0  0  0
 19 25  1  0  0  0  0
 21 29  1  0  0  0  0
 22 26  2  0  0  0  0
 23 22  1  0  0  0  0
 23 31  1  0  0  0  0
 24 25  1  0  0  0  0
 24 21  2  0  0  0  0
 25 28  2  0  0  0  0
 26 30  1  0  0  0  0
 28 20  1  0  0  0  0
 28 27  1  0  0  0  0
 29 27  2  0  0  0  0
 30 20  2  0  0  0  0
 31 30  1  0  0  0  0
 32 21  1  0  0  0  0
 32 34  1  0  0  0  0
 33 32  2  0  0  0  0
M  END
>  <MODEL>
1

>  <REMARK>
 VINA RESULT:      -9.6      0.000      0.000
  Name = 
  5 active torsions:
  status: ('A' for Active; 'I' for Inactive)
    1  A    between atoms: N_3  and  C_25
    2  A    between atoms: C_7  and  C_11
    3  A    between atoms: C_8  and  C_17
    4  A    between atoms: C_10  and  C_17
    5  A    between atoms: C_10  and  C_20
                            x       y       z     vdW  Elec       q    Type
                         _______ _______ _______ _____ _____    ______ ____

>  <TORSDO>
F 5

$$$$
=
 OpenBabel10272415193D

 34 38  0  0  1  0  0  0  0  0999 V2000
  189.5740  176.5060  137.0400 C   0  0  1  0  0  3  0  0  0  0  0  0
  188.9890  176.6990  135.6530 C   0  0  0  0  0  1  0  0  0  0  0  0
  192.0060  176.3380  136.7300 N   0  0  0  0  0  0  0  0  0  0  0  0
  194.3350  173.5710  137.0760 C   0  0  0  0  0  2  0  0  0  0  0  0
  192.0460  173.6450  137.0690 N   0  0  0  0  0  0  0  0  0  0  0  0
  190.8580  174.2970  137.1130 C   0  0  0  0  0  0  0  0  0  0  0  0
  190.8410  175.6950  136.9960 C   0  0  0  0  0  0  0  0  0  0  0  0
  189.6570  173.5550  137.3120 N   0  0  0  0  0  1  0  0  0  0  0  0
  195.7120  174.1160  137.2470 C   0  0  0  0  0  2  0  0  0  0  0  0
  196.1900  174.8780  136.0630 C   0  0  0  0  0  0  0  0  0  0  0  0
  195.5340  175.9600  135.6450 C   0  0  0  0  0  3  0  0  0  0  0  0
  193.2260  174.2920  136.8820 C   0  0  0  0  0  0  0  0  0  0  0  0
  194.2060  176.4100  136.1030 C   0  0  0  0  0  2  0  0  0  0  0  0
  193.1970  175.6910  136.6220 C   0  0  0  0  0  0  0  0  0  0  0  0
  197.4550  174.5390  135.4780 N   0  0  0  0  0  0  0  0  0  0  0  0
  198.4620  175.4750  135.4210 O   0  0  0  0  0  0  0  0  0  0  0  0
  197.6700  173.3900  135.0360 O   0  0  0  0  0  0  0  0  0  0  0  0
  189.7700  177.8510  137.7310 C   0  0  0  0  0  2  0  0  0  0  0  0
  188.4190  177.8710  142.8560 C   0  0  0  0  0  3  0  0  0  0  0  0
  191.1190  177.0740  142.4900 C   0  0  0  0  0  3  0  0  0  0  0  0
  189.4870  177.3400  146.3670 C   0  0  0  0  0  0  0  0  0  0  0  0
  189.6580  177.7120  139.2120 C   0  0  0  0  0  0  0  0  0  0  0  0
  188.2730  178.0860  140.1070 S   0  0  0  0  0  0  0  0  0  0  0  0
  188.6930  177.6470  145.2540 C   0  0  0  0  0  3  0  0  0  0  0  0
  189.2210  177.5620  143.9630 C   0  0  0  0  0  0  0  0  0  0  0  0
  190.7060  177.3500  140.0590 C   0  0  0  0  0  3  0  0  0  0  0  0
  191.3620  176.8590  144.8940 C   0  0  0  0  0  3  0  0  0  0  0  0
  190.5750  177.1620  143.7810 C   0  0  0  0  0  0  0  0  0  0  0  0
  190.8200  176.9470  146.1790 C   0  0  0  0  0  3  0  0  0  0  0  0
  190.3080  177.3830  141.3980 C   0  0  0  0  0  0  0  0  0  0  0  0
  188.9890  177.7710  141.5900 C   0  0  0  0  0  0  0  0  0  0  0  0
  188.9210  177.4320  147.7230 C   0  0  0  0  0  0  0  0  0  0  0  0
  188.1620  176.5260  148.1600 O   0  0  0  0  0  0  0  0  0  0  0  0
  189.2210  178.5200  148.5350 O   0  0  0  0  0  1  0  0  0  0  0  0
  1  2  1  6  0  0  0
  1 18  1  0  0  0  0
  3  7  1  0  0  0  0
  4  9  1  0  0  0  0
  5  6  1  0  0  0  0
  6  8  1  0  0  0  0
  7  1  1  0  0  0  0
  7  6  2  0  0  0  0
 10  9  1  0  0  0  0
 11 10  2  0  0  0  0
 11 13  1  0  0  0  0
 12  5  2  0  0  0  0
 12  4  1  0  0  0  0
 13 14  1  0  0  0  0
 14  3  2  0  0  0  0
 14 12  1  0  0  0  0
 15 10  1  0  0  0  0
 16 15  2  0  0  0  0
 17 15  2  0  0  0  0
 18 22  1  0  0  0  0
 19 25  1  0  0  0  0
 20 28  1  0  0  0  0
 21 32  1  0  0  0  0
 22 26  2  0  0  0  0
 22 23  1  0  0  0  0
 23 31  1  0  0  0  0
 24 21  2  0  0  0  0
 25 24  1  0  0  0  0
 26 30  1  0  0  0  0
 27 29  2  0  0  0  0
 28 25  2  0  0  0  0
 28 27  1  0  0  0  0
 29 21  1  0  0  0  0
 30 31  1  0  0  0  0
 30 20  2  0  0  0  0
 31 19  2  0  0  0  0
 32 33  2  0  0  0  0
 32 34  1  0  0  0  0
M  END
>  <MODEL>
2

>  <REMARK>
 VINA RESULT:      -9.4      7.562      9.894
  Name = 
  5 active torsions:
  status: ('A' for Active; 'I' for Inactive)
    1  A    between atoms: N_3  and  C_25
    2  A    between atoms: C_7  and  C_11
    3  A    between atoms: C_8  and  C_17
    4  A    between atoms: C_10  and  C_17
    5  A    between atoms: C_10  and  C_20
                            x       y       z     vdW  Elec       q    Type
                         _______ _______ _______ _____ _____    ______ ____

>  <TORSDO>
F 5

$$$$
=
 OpenBabel10272415193D

 34 38  0  0  1  0  0  0  0  0999 V2000
  188.8900  177.6760  137.6010 C   0  0  1  0  0  3  0  0  0  0  0  0
  189.3990  178.1330  136.2470 C   0  0  0  0  0  1  0  0  0  0  0  0
  187.9740  175.4320  137.2030 N   0  0  0  0  0  0  0  0  0  0  0  0
  184.5870  174.1160  137.2930 C   0  0  0  0  0  2  0  0  0  0  0  0
  185.3930  176.2600  137.3650 N   0  0  0  0  0  0  0  0  0  0  0  0
  186.3870  177.1730  137.4890 C   0  0  0  0  0  0  0  0  0  0  0  0
  187.7210  176.7390  137.4640 C   0  0  0  0  0  0  0  0  0  0  0  0
  186.0580  178.5470  137.6770 N   0  0  0  0  0  1  0  0  0  0  0  0
  184.6480  172.6360  137.4540 C   0  0  0  0  0  2  0  0  0  0  0  0
  185.2990  171.9490  136.3070 C   0  0  0  0  0  0  0  0  0  0  0  0
  186.5610  172.2250  135.9830 C   0  0  0  0  0  3  0  0  0  0  0  0
  185.6380  174.9350  137.1820 C   0  0  0  0  0  0  0  0  0  0  0  0
  187.3800  173.3320  136.5110 C   0  0  0  0  0  2  0  0  0  0  0  0
  186.9880  174.5140  137.0140 C   0  0  0  0  0  0  0  0  0  0  0  0
  184.6150  170.8660  135.6620 N   0  0  0  0  0  0  0  0  0  0  0  0
  185.0670  170.3870  134.4530 O   0  0  0  0  0  0  0  0  0  0  0  0
  183.6190  170.3290  136.1920 O   0  0  0  0  0  0  0  0  0  0  0  0
  190.0240  177.0720  138.4230 C   0  0  0  0  0  2  0  0  0  0  0  0
  190.2230  177.4750  143.7040 C   0  0  0  0  0  3  0  0  0  0  0  0
  187.5490  177.5450  142.7500 C   0  0  0  0  0  3  0  0  0  0  0  0
  188.3380  177.7640  146.8850 C   0  0  0  0  0  0  0  0  0  0  0  0
  189.7820  177.2570  139.8830 C   0  0  0  0  0  0  0  0  0  0  0  0
  190.9950  177.2650  141.0620 S   0  0  0  0  0  0  0  0  0  0  0  0
  189.4010  177.6560  145.9770 C   0  0  0  0  0  3  0  0  0  0  0  0
  189.1530  177.5830  144.6040 C   0  0  0  0  0  0  0  0  0  0  0  0
  188.5230  177.3500  140.4760 C   0  0  0  0  0  3  0  0  0  0  0  0
  186.7580  177.7260  145.0350 C   0  0  0  0  0  3  0  0  0  0  0  0
  187.8130  177.6190  144.1270 C   0  0  0  0  0  0  0  0  0  0  0  0
  187.0200  177.7980  146.4060 C   0  0  0  0  0  3  0  0  0  0  0  0
  188.6240  177.4390  141.8670 C   0  0  0  0  0  0  0  0  0  0  0  0
  189.9260  177.4060  142.3450 C   0  0  0  0  0  0  0  0  0  0  0  0
  188.6100  177.8410  148.3300 C   0  0  0  0  0  0  0  0  0  0  0  0
  187.7120  177.5460  149.1640 O   0  0  0  0  0  1  0  0  0  0  0  0
  189.8610  178.2370  148.7870 O   0  0  0  0  0  0  0  0  0  0  0  0
  1  2  1  6  0  0  0
  1 18  1  0  0  0  0
  3  7  1  0  0  0  0
  4  9  1  0  0  0  0
  5  6  1  0  0  0  0
  6  8  1  0  0  0  0
  7  6  2  0  0  0  0
  7  1  1  0  0  0  0
 10  9  1  0  0  0  0
 11 10  2  0  0  0  0
 11 13  1  0  0  0  0
 12  4  1  0  0  0  0
 12  5  2  0  0  0  0
 13 14  1  0  0  0  0
 14 12  1  0  0  0  0
 14  3  2  0  0  0  0
 15 17  2  0  0  0  0
 15 10  1  0  0  0  0
 16 15  2  0  0  0  0
 18 22  1  0  0  0  0
 19 25  1  0  0  0  0
 20 28  1  0  0  0  0
 21 32  1  0  0  0  0
 22 26  2  0  0  0  0
 22 23  1  0  0  0  0
 23 31  1  0  0  0  0
 24 21  2  0  0  0  0
 25 24  1  0  0  0  0
 26 30  1  0  0  0  0
 27 29  2  0  0  0  0
 28 25  2  0  0  0  0
 28 27  1  0  0  0  0
 29 21  1  0  0  0  0
 30 31  1  0  0  0  0
 30 20  2  0  0  0  0
 31 19  2  0  0  0  0
 32 34  2  0  0  0  0
 32 33  1  0  0  0  0
M  END
>  <MODEL>
3

>  <REMARK>
 VINA RESULT:      -9.4      4.498      6.216
  Name = 
  5 active torsions:
  status: ('A' for Active; 'I' for Inactive)
    1  A    between atoms: N_3  and  C_25
    2  A    between atoms: C_7  and  C_11
    3  A    between atoms: C_8  and  C_17
    4  A    between atoms: C_10  and  C_17
    5  A    between atoms: C_10  and  C_20
                            x       y       z     vdW  Elec       q    Type
                         _______ _______ _______ _____ _____    ______ ____

>  <TORSDO>
F 5

$$$$
=
 OpenBabel10272415193D

 34 38  0  0  1  0  0  0  0  0999 V2000
  189.5920  178.0610  147.2230 C   0  0  1  0  0  3  0  0  0  0  0  0
  190.5770  177.9530  148.3730 C   0  0  0  0  0  1  0  0  0  0  0  0
  189.7070  178.1390  144.7710 N   0  0  0  0  0  0  0  0  0  0  0  0
  192.0060  176.6590  142.3770 C   0  0  0  0  0  2  0  0  0  0  0  0
  191.7280  176.3320  144.6270 N   0  0  0  0  0  0  0  0  0  0  0  0
  191.2180  176.6550  145.8410 C   0  0  0  0  0  0  0  0  0  0  0  0
  190.2140  177.6320  145.9230 C   0  0  0  0  0  0  0  0  0  0  0  0
  191.7350  176.0240  147.0100 N   0  0  0  0  0  1  0  0  0  0  0  0
  191.9110  177.4050  141.0900 C   0  0  0  0  0  2  0  0  0  0  0  0
  190.5710  177.3050  140.4530 C   0  0  0  0  0  0  0  0  0  0  0  0
  189.4860  177.7460  141.0880 C   0  0  0  0  0  3  0  0  0  0  0  0
  191.2800  176.8950  143.4740 C   0  0  0  0  0  0  0  0  0  0  0  0
  189.4050  178.1580  142.5020 C   0  0  0  0  0  2  0  0  0  0  0  0
  190.1660  177.7790  143.5420 C   0  0  0  0  0  0  0  0  0  0  0  0
  190.4780  176.8860  139.0840 N   0  0  0  0  0  0  0  0  0  0  0  0
  190.8010  175.5950  138.7340 O   0  0  0  0  0  0  0  0  0  0  0  0
  190.0840  177.6730  138.1980 O   0  0  0  0  0  0  0  0  0  0  0  0
  188.3150  177.2910  147.5380 C   0  0  0  0  0  2  0  0  0  0  0  0
  183.8260  178.8340  145.1790 C   0  0  0  0  0  3  0  0  0  0  0  0
  185.6930  177.8060  143.3030 C   0  0  0  0  0  3  0  0  0  0  0  0
  181.9040  179.1380  142.0220 C   0  0  0  0  0  0  0  0  0  0  0  0
  187.2110  177.6860  146.6150 C   0  0  0  0  0  0  0  0  0  0  0  0
  185.7360  178.3450  147.1130 S   0  0  0  0  0  0  0  0  0  0  0  0
  182.2440  179.2020  143.3810 C   0  0  0  0  0  3  0  0  0  0  0  0
  183.4960  178.7650  143.8190 C   0  0  0  0  0  0  0  0  0  0  0  0
  187.2130  177.4750  145.2360 C   0  0  0  0  0  3  0  0  0  0  0  0
  184.0880  178.1870  141.5250 C   0  0  0  0  0  3  0  0  0  0  0  0
  184.4310  178.2500  142.8770 C   0  0  0  0  0  0  0  0  0  0  0  0
  182.8320  178.6290  141.1010 C   0  0  0  0  0  3  0  0  0  0  0  0
  186.0080  177.8820  144.6600 C   0  0  0  0  0  0  0  0  0  0  0  0
  185.0860  178.3870  145.5680 C   0  0  0  0  0  0  0  0  0  0  0  0
  180.5820  179.6010  141.5710 C   0  0  0  0  0  0  0  0  0  0  0  0
  179.9820  179.0070  140.6360 O   0  0  0  0  0  0  0  0  0  0  0  0
  179.9820  180.7000  142.1750 O   0  0  0  0  0  1  0  0  0  0  0  0
  1 18  1  0  0  0  0
  1  2  1  1  0  0  0
  3  7  1  0  0  0  0
  4 12  1  0  0  0  0
  5  6  1  0  0  0  0
  6  7  2  0  0  0  0
  6  8  1  0  0  0  0
  7  1  1  0  0  0  0
  9  4  1  0  0  0  0
 10 11  2  0  0  0  0
 10  9  1  0  0  0  0
 11 13  1  0  0  0  0
 12 14  1  0  0  0  0
 12  5  2  0  0  0  0
 13 14  1  0  0  0  0
 14  3  2  0  0  0  0
 15 10  1  0  0  0  0
 16 15  2  0  0  0  0
 17 15  2  0  0  0  0
 19 31  1  0  0  0  0
 20 30  1  0  0  0  0
 21 24  2  0  0  0  0
 22 23  1  0  0  0  0
 22 18  1  0  0  0  0
 24 25  1  0  0  0  0
 25 19  2  0  0  0  0
 26 22  2  0  0  0  0
 27 28  1  0  0  0  0
 28 20  2  0  0  0  0
 28 25  1  0  0  0  0
 29 27  2  0  0  0  0
 29 21  1  0  0  0  0
 30 26  1  0  0  0  0
 30 31  2  0  0  0  0
 31 23  1  0  0  0  0
 32 21  1  0  0  0  0
 32 34  1  0  0  0  0
 33 32  2  0  0  0  0
M  END
>  <MODEL>
4

>  <REMARK>
 VINA RESULT:      -9.3      4.674      9.004
  Name = 
  5 active torsions:
  status: ('A' for Active; 'I' for Inactive)
    1  A    between atoms: N_3  and  C_25
    2  A    between atoms: C_7  and  C_11
    3  A    between atoms: C_8  and  C_17
    4  A    between atoms: C_10  and  C_17
    5  A    between atoms: C_10  and  C_20
                            x       y       z     vdW  Elec       q    Type
                         _______ _______ _______ _____ _____    ______ ____

>  <TORSDO>
F 5

$$$$
=
 OpenBabel10272415193D

 34 38  0  0  1  0  0  0  0  0999 V2000
  189.5620  176.4130  136.6480 C   0  0  1  0  0  3  0  0  0  0  0  0
  189.1740  176.5090  135.1840 C   0  0  0  0  0  1  0  0  0  0  0  0
  192.0110  176.2450  136.5690 N   0  0  0  0  0  0  0  0  0  0  0  0
  194.3190  173.6040  137.5210 C   0  0  0  0  0  2  0  0  0  0  0  0
  192.0380  173.6340  137.3140 N   0  0  0  0  0  0  0  0  0  0  0  0
  190.8470  174.2640  137.1600 C   0  0  0  0  0  0  0  0  0  0  0  0
  190.8320  175.6280  136.8320 C   0  0  0  0  0  0  0  0  0  0  0  0
  189.6380  173.5390  137.3690 N   0  0  0  0  0  1  0  0  0  0  0  0
  195.6730  174.1940  137.7200 C   0  0  0  0  0  2  0  0  0  0  0  0
  196.2450  174.7780  136.4780 C   0  0  0  0  0  0  0  0  0  0  0  0
  195.6210  175.7720  135.8490 C   0  0  0  0  0  3  0  0  0  0  0  0
  193.2260  174.2670  137.1290 C   0  0  0  0  0  0  0  0  0  0  0  0
  194.2560  176.2620  136.1220 C   0  0  0  0  0  2  0  0  0  0  0  0
  193.2110  175.6110  136.6580 C   0  0  0  0  0  0  0  0  0  0  0  0
  197.5570  174.3770  136.0580 N   0  0  0  0  0  0  0  0  0  0  0  0
  197.7610  173.1200  135.5360 O   0  0  0  0  0  0  0  0  0  0  0  0
  198.5240  175.1650  136.1360 O   0  0  0  0  0  0  0  0  0  0  0  0
  189.6420  177.8010  137.2730 C   0  0  0  0  0  2  0  0  0  0  0  0
  186.2810  178.5620  141.2990 C   0  0  0  0  0  3  0  0  0  0  0  0
  188.7390  177.4510  142.1850 C   0  0  0  0  0  3  0  0  0  0  0  0
  185.6850  178.3380  144.9530 C   0  0  0  0  0  0  0  0  0  0  0  0
  188.8990  177.8490  138.5660 C   0  0  0  0  0  0  0  0  0  0  0  0
  187.3360  178.4680  138.7500 S   0  0  0  0  0  0  0  0  0  0  0  0
  185.4860  178.5930  143.5890 C   0  0  0  0  0  3  0  0  0  0  0  0
  186.4890  178.3030  142.6610 C   0  0  0  0  0  0  0  0  0  0  0  0
  189.4290  177.4820  139.8020 C   0  0  0  0  0  3  0  0  0  0  0  0
  187.9150  177.4940  144.4660 C   0  0  0  0  0  3  0  0  0  0  0  0
  187.7210  177.7460  143.1060 C   0  0  0  0  0  0  0  0  0  0  0  0
  186.9020  177.7880  145.3830 C   0  0  0  0  0  3  0  0  0  0  0  0
  188.5160  177.7130  140.8330 C   0  0  0  0  0  0  0  0  0  0  0  0
  187.3100  178.2560  140.4120 C   0  0  0  0  0  0  0  0  0  0  0  0
  184.6220  178.6460  145.9220 C   0  0  0  0  0  0  0  0  0  0  0  0
  183.4760  178.9890  145.5260 O   0  0  0  0  0  0  0  0  0  0  0  0
  184.8720  178.5590  147.2870 O   0  0  0  0  0  1  0  0  0  0  0  0
  1  2  1  6  0  0  0
  1  7  1  0  0  0  0
  1 18  1  0  0  0  0
  3 14  2  0  0  0  0
  3  7  1  0  0  0  0
  4  9  1  0  0  0  0
  6  5  1  0  0  0  0
  6  8  1  0  0  0  0
  7  6  2  0  0  0  0
 10  9  1  0  0  0  0
 11 13  1  0  0  0  0
 11 10  2  0  0  0  0
 12  5  2  0  0  0  0
 12  4  1  0  0  0  0
 13 14  1  0  0  0  0
 14 12  1  0  0  0  0
 15 17  2  0  0  0  0
 15 10  1  0  0  0  0
 16 15  2  0  0  0  0
 18 22  1  0  0  0  0
 19 25  1  0  0  0  0
 20 28  1  0  0  0  0
 21 29  1  0  0  0  0
 21 32  1  0  0  0  0
 22 23  1  0  0  0  0
 22 26  2  0  0  0  0
 23 31  1  0  0  0  0
 24 21  2  0  0  0  0
 25 28  2  0  0  0  0
 25 24  1  0  0  0  0
 26 30  1  0  0  0  0
 27 29  2  0  0  0  0
 28 27  1  0  0  0  0
 30 20  2  0  0  0  0
 31 30  1  0  0  0  0
 31 19  2  0  0  0  0
 32 34  1  0  0  0  0
 33 32  2  0  0  0  0
M  END
>  <MODEL>
5

>  <REMARK>
 VINA RESULT:      -9.1      7.689     10.192
  Name = 
  5 active torsions:
  status: ('A' for Active; 'I' for Inactive)
    1  A    between atoms: N_3  and  C_25
    2  A    between atoms: C_7  and  C_11
    3  A    between atoms: C_8  and  C_17
    4  A    between atoms: C_10  and  C_17
    5  A    between atoms: C_10  and  C_20
                            x       y       z     vdW  Elec       q    Type
                         _______ _______ _______ _____ _____    ______ ____

>  <TORSDO>
F 5

$$$$
=
 OpenBabel10272415193D

 34 38  0  0  1  0  0  0  0  0999 V2000
  191.3250  175.4110  138.0550 C   0  0  1  0  0  3  0  0  0  0  0  0
  190.2200  174.6920  137.3030 C   0  0  0  0  0  1  0  0  0  0  0  0
  193.6930  174.7610  138.1360 N   0  0  0  0  0  0  0  0  0  0  0  0
  196.2500  174.4970  135.5670 C   0  0  0  0  0  2  0  0  0  0  0  0
  194.1410  175.3910  135.5330 N   0  0  0  0  0  0  0  0  0  0  0  0
  192.9100  175.6020  136.0590 C   0  0  0  0  0  0  0  0  0  0  0  0
  192.6600  175.2230  137.3870 C   0  0  0  0  0  0  0  0  0  0  0  0
  191.8870  176.1700  135.2460 N   0  0  0  0  0  1  0  0  0  0  0  0
  197.3430  173.6140  136.0630 C   0  0  0  0  0  2  0  0  0  0  0  0
  198.0460  174.1640  137.2530 C   0  0  0  0  0  0  0  0  0  0  0  0
  197.3780  174.4050  138.3800 C   0  0  0  0  0  3  0  0  0  0  0  0
  195.1600  174.8550  136.2550 C   0  0  0  0  0  0  0  0  0  0  0  0
  195.9130  174.3900  138.5510 C   0  0  0  0  0  2  0  0  0  0  0  0
  194.9490  174.6020  137.6400 C   0  0  0  0  0  0  0  0  0  0  0  0
  199.4760  174.2730  137.2310 N   0  0  0  0  0  0  0  0  0  0  0  0
  200.0950  175.0380  136.2700 O   0  0  0  0  0  0  0  0  0  0  0  0
  200.1760  173.6980  138.0920 O   0  0  0  0  0  0  0  0  0  0  0  0
  190.9730  176.8820  138.2450 C   0  0  0  0  0  2  0  0  0  0  0  0
  187.2500  178.1340  141.8050 C   0  0  0  0  0  3  0  0  0  0  0  0
  189.5360  176.9890  143.0410 C   0  0  0  0  0  3  0  0  0  0  0  0
  186.2590  178.2450  145.3770 C   0  0  0  0  0  0  0  0  0  0  0  0
  190.1010  177.0730  139.4410 C   0  0  0  0  0  0  0  0  0  0  0  0
  188.5630  177.7760  139.4020 S   0  0  0  0  0  0  0  0  0  0  0  0
  186.2200  178.3940  143.9830 C   0  0  0  0  0  3  0  0  0  0  0  0
  187.2990  177.9810  143.1970 C   0  0  0  0  0  0  0  0  0  0  0  0
  190.4760  176.7870  140.7530 C   0  0  0  0  0  3  0  0  0  0  0  0
  188.4790  177.2620  145.2060 C   0  0  0  0  0  3  0  0  0  0  0  0
  188.4440  177.4070  143.8180 C   0  0  0  0  0  0  0  0  0  0  0  0
  187.3920  177.6790  145.9800 C   0  0  0  0  0  3  0  0  0  0  0  0
  189.4720  177.1460  141.6560 C   0  0  0  0  0  0  0  0  0  0  0  0
  188.3490  177.7070  141.0640 C   0  0  0  0  0  0  0  0  0  0  0  0
  185.1180  178.6830  146.1960 C   0  0  0  0  0  0  0  0  0  0  0  0
  185.2320  178.7880  147.4460 O   0  0  0  0  0  1  0  0  0  0  0  0
  183.9010  178.9870  145.5960 O   0  0  0  0  0  0  0  0  0  0  0  0
  1  2  1  6  0  0  0
  1 18  1  0  0  0  0
  4  9  1  0  0  0  0
  4 12  1  0  0  0  0
  5  6  2  0  0  0  0
  5 12  1  0  0  0  0
  6  7  1  0  0  0  0
  7  1  1  0  0  0  0
  7  3  2  0  0  0  0
  8  6  1  0  0  0  0
  9 10  1  0  0  0  0
 10 11  2  0  0  0  0
 11 13  1  0  0  0  0
 12 14  2  0  0  0  0
 14  3  1  0  0  0  0
 14 13  1  0  0  0  0
 15 10  1  0  0  0  0
 15 17  2  0  0  0  0
 16 15  2  0  0  0  0
 18 22  1  0  0  0  0
 19 25  1  0  0  0  0
 20 28  1  0  0  0  0
 21 29  1  0  0  0  0
 21 32  1  0  0  0  0
 22 26  2  0  0  0  0
 23 22  1  0  0  0  0
 23 31  1  0  0  0  0
 24 21  2  0  0  0  0
 25 28  2  0  0  0  0
 25 24  1  0  0  0  0
 26 30  1  0  0  0  0
 27 29  2  0  0  0  0
 28 27  1  0  0  0  0
 30 20  2  0  0  0  0
 31 30  1  0  0  0  0
 31 19  2  0  0  0  0
 32 33  1  0  0  0  0
 34 32  2  0  0  0  0
M  END
>  <MODEL>
6

>  <REMARK>
 VINA RESULT:      -9.0      8.282     11.214
  Name = 
  5 active torsions:
  status: ('A' for Active; 'I' for Inactive)
    1  A    between atoms: N_3  and  C_25
    2  A    between atoms: C_7  and  C_11
    3  A    between atoms: C_8  and  C_17
    4  A    between atoms: C_10  and  C_17
    5  A    between atoms: C_10  and  C_20
                            x       y       z     vdW  Elec       q    Type
                         _______ _______ _______ _____ _____    ______ ____

>  <TORSDO>
F 5

$$$$
=
 OpenBabel10272415193D

 34 38  0  0  1  0  0  0  0  0999 V2000
  189.6930  177.6230  139.2390 C   0  0  1  0  0  3  0  0  0  0  0  0
  189.1120  178.8110  138.4950 C   0  0  0  0  0  1  0  0  0  0  0  0
  187.9830  177.8180  140.9920 N   0  0  0  0  0  0  0  0  0  0  0  0
  188.1220  177.4460  144.6050 C   0  0  0  0  0  2  0  0  0  0  0  0
  189.7710  177.5630  143.0190 N   0  0  0  0  0  0  0  0  0  0  0  0
  190.2190  177.5580  141.7390 C   0  0  0  0  0  0  0  0  0  0  0  0
  189.2920  177.6300  140.6890 C   0  0  0  0  0  0  0  0  0  0  0  0
  191.6170  177.4420  141.4860 N   0  0  0  0  0  1  0  0  0  0  0  0
  186.7470  177.1910  145.1180 C   0  0  0  0  0  2  0  0  0  0  0  0
  185.8140  178.3260  144.8820 C   0  0  0  0  0  0  0  0  0  0  0  0
  185.5540  178.7400  143.6430 C   0  0  0  0  0  3  0  0  0  0  0  0
  188.4520  177.6720  143.3290 C   0  0  0  0  0  0  0  0  0  0  0  0
  186.2650  178.3340  142.4160 C   0  0  0  0  0  2  0  0  0  0  0  0
  187.5240  177.8890  142.2710 C   0  0  0  0  0  0  0  0  0  0  0  0
  185.0680  178.8580  145.9850 N   0  0  0  0  0  0  0  0  0  0  0  0
  183.6960  178.9420  145.9140 O   0  0  0  0  0  0  0  0  0  0  0  0
  185.6440  179.2280  147.0300 O   0  0  0  0  0  0  0  0  0  0  0  0
  189.3200  176.3200  138.5410 C   0  0  0  0  0  2  0  0  0  0  0  0
  192.9160  173.1240  136.3160 C   0  0  0  0  0  3  0  0  0  0  0  0
  194.1460  175.1960  137.8190 C   0  0  0  0  0  3  0  0  0  0  0  0
  196.5030  172.3000  135.8630 C   0  0  0  0  0  0  0  0  0  0  0  0
  190.5320  175.6370  138.0030 C   0  0  0  0  0  0  0  0  0  0  0  0
  190.5000  174.2510  137.0340 S   0  0  0  0  0  0  0  0  0  0  0  0
  195.1060  172.2400  135.7710 C   0  0  0  0  0  3  0  0  0  0  0  0
  194.3130  173.1940  136.4140 C   0  0  0  0  0  0  0  0  0  0  0  0
  191.8460  175.9920  138.3060 C   0  0  0  0  0  3  0  0  0  0  0  0
  196.3230  174.2880  137.2550 C   0  0  0  0  0  3  0  0  0  0  0  0
  194.9300  174.2320  137.1660 C   0  0  0  0  0  0  0  0  0  0  0  0
  197.1030  173.3270  136.6070 C   0  0  0  0  0  3  0  0  0  0  0  0
  192.7570  175.1150  137.7110 C   0  0  0  0  0  0  0  0  0  0  0  0
  192.1680  174.0980  136.9740 C   0  0  0  0  0  0  0  0  0  0  0  0
  197.3300  171.2910  135.1820 C   0  0  0  0  0  0  0  0  0  0  0  0
  198.5440  171.5210  134.9350 O   0  0  0  0  0  1  0  0  0  0  0  0
  196.7780  170.0720  134.8060 O   0  0  0  0  0  0  0  0  0  0  0  0
  1  2  1  6  0  0  0
  1  7  1  0  0  0  0
  3 14  1  0  0  0  0
  4  9  1  0  0  0  0
  5 12  1  0  0  0  0
  6  5  2  0  0  0  0
  7  3  2  0  0  0  0
  7  6  1  0  0  0  0
  8  6  1  0  0  0  0
 10  9  1  0  0  0  0
 10 15  1  0  0  0  0
 11 10  2  0  0  0  0
 12  4  1  0  0  0  0
 13 11  1  0  0  0  0
 14 13  1  0  0  0  0
 14 12  2  0  0  0  0
 15 17  2  0  0  0  0
 16 15  2  0  0  0  0
 18  1  1  0  0  0  0
 19 25  2  0  0  0  0
 19 31  1  0  0  0  0
 21 29  1  0  0  0  0
 22 26  2  0  0  0  0
 22 18  1  0  0  0  0
 23 22  1  0  0  0  0
 24 21  2  0  0  0  0
 24 25  1  0  0  0  0
 25 28  1  0  0  0  0
 28 27  1  0  0  0  0
 28 20  2  0  0  0  0
 29 27  2  0  0  0  0
 30 20  1  0  0  0  0
 30 26  1  0  0  0  0
 31 23  1  0  0  0  0
 31 30  2  0  0  0  0
 32 21  1  0  0  0  0
 33 32  1  0  0  0  0
 34 32  2  0  0  0  0
M  END
>  <MODEL>
7

>  <REMARK>
 VINA RESULT:      -8.9      8.356     10.892
  Name = 
  5 active torsions:
  status: ('A' for Active; 'I' for Inactive)
    1  A    between atoms: N_3  and  C_25
    2  A    between atoms: C_7  and  C_11
    3  A    between atoms: C_8  and  C_17
    4  A    between atoms: C_10  and  C_17
    5  A    between atoms: C_10  and  C_20
                            x       y       z     vdW  Elec       q    Type
                         _______ _______ _______ _____ _____    ______ ____

>  <TORSDO>
F 5

$$$$
=
 OpenBabel10272415193D

 34 38  0  0  1  0  0  0  0  0999 V2000
  191.0540  175.4860  138.0370 C   0  0  1  0  0  3  0  0  0  0  0  0
  189.8960  174.9250  137.2330 C   0  0  0  0  0  1  0  0  0  0  0  0
  193.4010  174.7610  138.0960 N   0  0  0  0  0  0  0  0  0  0  0  0
  195.9070  174.3560  135.4960 C   0  0  0  0  0  2  0  0  0  0  0  0
  193.8280  175.3180  135.4730 N   0  0  0  0  0  0  0  0  0  0  0  0
  192.6130  175.5810  136.0130 C   0  0  0  0  0  0  0  0  0  0  0  0
  192.3720  175.2400  137.3530 C   0  0  0  0  0  0  0  0  0  0  0  0
  191.5960  176.1640  135.2030 N   0  0  0  0  0  1  0  0  0  0  0  0
  196.9790  173.4480  135.9950 C   0  0  0  0  0  2  0  0  0  0  0  0
  197.7170  174.0010  137.1610 C   0  0  0  0  0  0  0  0  0  0  0  0
  197.0760  174.2890  138.2920 C   0  0  0  0  0  3  0  0  0  0  0  0
  194.8400  174.7640  136.1910 C   0  0  0  0  0  0  0  0  0  0  0  0
  195.6140  174.3260  138.4860 C   0  0  0  0  0  2  0  0  0  0  0  0
  194.6430  174.5490  137.5850 C   0  0  0  0  0  0  0  0  0  0  0  0
  199.1500  174.0620  137.1150 N   0  0  0  0  0  0  0  0  0  0  0  0
  199.7760  175.0360  136.3720 O   0  0  0  0  0  0  0  0  0  0  0  0
  199.8470  173.2530  137.7630 O   0  0  0  0  0  0  0  0  0  0  0  0
  190.8270  176.9620  138.3430 C   0  0  0  0  0  2  0  0  0  0  0  0
  190.6330  177.4990  143.6130 C   0  0  0  0  0  3  0  0  0  0  0  0
  188.0340  177.3450  142.4820 C   0  0  0  0  0  3  0  0  0  0  0  0
  188.5200  177.7170  146.6520 C   0  0  0  0  0  0  0  0  0  0  0  0
  190.4730  177.1610  139.7790 C   0  0  0  0  0  0  0  0  0  0  0  0
  191.5980  177.2880  141.0350 S   0  0  0  0  0  0  0  0  0  0  0  0
  189.6470  177.6690  145.8200 C   0  0  0  0  0  3  0  0  0  0  0  0
  189.5000  177.5460  144.4360 C   0  0  0  0  0  0  0  0  0  0  0  0
  189.1730  177.1720  140.2840 C   0  0  0  0  0  3  0  0  0  0  0  0
  187.0770  177.5170  144.7030 C   0  0  0  0  0  3  0  0  0  0  0  0
  188.1960  177.4690  143.8710 C   0  0  0  0  0  0  0  0  0  0  0  0
  187.2380  177.6410  146.0860 C   0  0  0  0  0  3  0  0  0  0  0  0
  189.1710  177.3000  141.6750 C   0  0  0  0  0  0  0  0  0  0  0  0
  190.4370  177.3770  142.2400 C   0  0  0  0  0  0  0  0  0  0  0  0
  188.6850  177.8470  148.1090 C   0  0  0  0  0  0  0  0  0  0  0  0
  189.7030  178.4140  148.5880 O   0  0  0  0  0  0  0  0  0  0  0  0
  187.7150  177.3460  148.9710 O   0  0  0  0  0  1  0  0  0  0  0  0
  1  2  1  6  0  0  0
  1 18  1  0  0  0  0
  4  9  1  0  0  0  0
  4 12  1  0  0  0  0
  5  6  2  0  0  0  0
  5 12  1  0  0  0  0
  6  7  1  0  0  0  0
  7  1  1  0  0  0  0
  7  3  2  0  0  0  0
  8  6  1  0  0  0  0
  9 10  1  0  0  0  0
 10 11  2  0  0  0  0
 11 13  1  0  0  0  0
 12 14  2  0  0  0  0
 14  3  1  0  0  0  0
 14 13  1  0  0  0  0
 15 10  1  0  0  0  0
 15 17  2  0  0  0  0
 16 15  2  0  0  0  0
 18 22  1  0  0  0  0
 19 25  1  0  0  0  0
 20 28  1  0  0  0  0
 21 32  1  0  0  0  0
 22 26  2  0  0  0  0
 22 23  1  0  0  0  0
 23 31  1  0  0  0  0
 24 21  2  0  0  0  0
 25 24  1  0  0  0  0
 26 30  1  0  0  0  0
 27 29  2  0  0  0  0
 28 25  2  0  0  0  0
 28 27  1  0  0  0  0
 29 21  1  0  0  0  0
 30 31  1  0  0  0  0
 30 20  2  0  0  0  0
 31 19  2  0  0  0  0
 32 33  2  0  0  0  0
 32 34  1  0  0  0  0
M  END
>  <MODEL>
8

>  <REMARK>
 VINA RESULT:      -8.9      8.030     10.849
  Name = 
  5 active torsions:
  status: ('A' for Active; 'I' for Inactive)
    1  A    between atoms: N_3  and  C_25
    2  A    between atoms: C_7  and  C_11
    3  A    between atoms: C_8  and  C_17
    4  A    between atoms: C_10  and  C_17
    5  A    between atoms: C_10  and  C_20
                            x       y       z     vdW  Elec       q    Type
                         _______ _______ _______ _____ _____    ______ ____

>  <TORSDO>
F 5

$$$$
=
 OpenBabel10272415193D

 34 38  0  0  1  0  0  0  0  0999 V2000
  190.1590  175.9820  136.9030 C   0  0  1  0  0  3  0  0  0  0  0  0
  190.6850  174.7780  137.6620 C   0  0  0  0  0  1  0  0  0  0  0  0
  187.9980  174.8570  137.2130 N   0  0  0  0  0  0  0  0  0  0  0  0
  184.6630  175.5640  135.9520 C   0  0  0  0  0  2  0  0  0  0  0  0
  186.7130  176.4340  135.4150 N   0  0  0  0  0  0  0  0  0  0  0  0
  188.0400  176.6190  135.6250 C   0  0  0  0  0  0  0  0  0  0  0  0
  188.6930  175.8440  136.5950 C   0  0  0  0  0  0  0  0  0  0  0  0
  188.7350  177.6170  134.8820 N   0  0  0  0  0  1  0  0  0  0  0  0
  183.6640  174.8770  136.8180 C   0  0  0  0  0  2  0  0  0  0  0  0
  183.7820  173.3950  136.7880 C   0  0  0  0  0  0  0  0  0  0  0  0
  184.9100  172.8000  137.1740 C   0  0  0  0  0  3  0  0  0  0  0  0
  185.9920  175.4990  136.0880 C   0  0  0  0  0  0  0  0  0  0  0  0
  186.2000  173.4600  137.4490 C   0  0  0  0  0  2  0  0  0  0  0  0
  186.6810  174.6180  136.9690 C   0  0  0  0  0  0  0  0  0  0  0  0
  182.6180  172.6070  136.5020 N   0  0  0  0  0  0  0  0  0  0  0  0
  182.2620  171.5740  137.3390 O   0  0  0  0  0  0  0  0  0  0  0  0
  181.9020  172.8580  135.5090 O   0  0  0  0  0  0  0  0  0  0  0  0
  190.4750  177.2700  137.6580 C   0  0  0  0  0  2  0  0  0  0  0  0
  186.8530  178.4310  141.3490 C   0  0  0  0  0  3  0  0  0  0  0  0
  189.0350  176.9800  142.4450 C   0  0  0  0  0  3  0  0  0  0  0  0
  185.8630  178.2410  144.9180 C   0  0  0  0  0  0  0  0  0  0  0  0
  189.6170  177.4020  138.8710 C   0  0  0  0  0  0  0  0  0  0  0  0
  188.1410  178.2270  138.9160 S   0  0  0  0  0  0  0  0  0  0  0  0
  185.8410  178.5400  143.5490 C   0  0  0  0  0  3  0  0  0  0  0  0
  186.8850  178.1270  142.7180 C   0  0  0  0  0  0  0  0  0  0  0  0
  189.9630  176.9480  140.1440 C   0  0  0  0  0  3  0  0  0  0  0  0
  187.9960  177.1050  144.6320 C   0  0  0  0  0  3  0  0  0  0  0  0
  187.9770  177.4000  143.2680 C   0  0  0  0  0  0  0  0  0  0  0  0
  186.9440  177.5240  145.4520 C   0  0  0  0  0  3  0  0  0  0  0  0
  188.9890  177.2880  141.0850 C   0  0  0  0  0  0  0  0  0  0  0  0
  187.9170  177.9980  140.5610 C   0  0  0  0  0  0  0  0  0  0  0  0
  184.7570  178.6800  145.7850 C   0  0  0  0  0  0  0  0  0  0  0  0
  184.8690  178.6230  147.0390 O   0  0  0  0  0  1  0  0  0  0  0  0
  183.5790  179.1630  145.2280 O   0  0  0  0  0  0  0  0  0  0  0  0
  1 18  1  0  0  0  0
  1  2  1  1  0  0  0
  4 12  1  0  0  0  0
  4  9  1  0  0  0  0
  5  6  2  0  0  0  0
  5 12  1  0  0  0  0
  6  7  1  0  0  0  0
  7  1  1  0  0  0  0
  7  3  2  0  0  0  0
  8  6  1  0  0  0  0
 10  9  1  0  0  0  0
 10 11  2  0  0  0  0
 11 13  1  0  0  0  0
 12 14  2  0  0  0  0
 14  3  1  0  0  0  0
 14 13  1  0  0  0  0
 15 10  1  0  0  0  0
 15 16  2  0  0  0  0
 17 15  2  0  0  0  0
 18 22  1  0  0  0  0
 19 25  1  0  0  0  0
 20 28  1  0  0  0  0
 21 29  1  0  0  0  0
 21 32  1  0  0  0  0
 22 23  1  0  0  0  0
 22 26  2  0  0  0  0
 23 31  1  0  0  0  0
 24 21  2  0  0  0  0
 25 28  2  0  0  0  0
 25 24  1  0  0  0  0
 26 30  1  0  0  0  0
 27 29  2  0  0  0  0
 28 27  1  0  0  0  0
 30 20  2  0  0  0  0
 31 30  1  0  0  0  0
 31 19  2  0  0  0  0
 32 33  1  0  0  0  0
 34 32  2  0  0  0  0
M  END
>  <MODEL>
9

>  <REMARK>
 VINA RESULT:      -8.9      4.684      6.949
  Name = 
  5 active torsions:
  status: ('A' for Active; 'I' for Inactive)
    1  A    between atoms: N_3  and  C_25
    2  A    between atoms: C_7  and  C_11
    3  A    between atoms: C_8  and  C_17
    4  A    between atoms: C_10  and  C_17
    5  A    between atoms: C_10  and  C_20
                            x       y       z     vdW  Elec       q    Type
                         _______ _______ _______ _____ _____    ______ ____

>  <TORSDO>
F 5

$$$$
