=
 OpenBabel10272401483D

 28 30  0  0  1  0  0  0  0  0999 V2000
  191.6110  178.7720  144.0240 C   0  0  0  0  0  1  0  0  0  0  0  0
  190.8540  177.5590  144.5590 C   0  0  2  0  0  0  0  0  0  0  0  0
  190.0850  176.8320  142.2440 C   0  0  2  0  0  3  0  0  0  0  0  0
  190.8910  176.4430  143.4770 C   0  0  2  0  0  3  0  0  0  0  0  0
  189.5660  175.7580  143.1790 C   0  0  0  0  0  2  0  0  0  0  0  0
  190.6440  176.2320  141.1120 O   0  0  0  0  0  0  0  0  0  0  0  0
  190.4400  177.1490  140.0740 C   0  0  2  0  0  3  0  0  0  0  0  0
  189.1530  178.4120  137.8670 C   0  0  0  0  0  2  0  0  0  0  0  0
  189.1170  177.8500  140.2630 C   0  0  0  0  0  3  0  0  0  0  0  0
  191.1500  175.4470  138.5730 O   0  0  0  0  0  0  0  0  0  0  0  0
  190.4780  176.4560  138.7290 C   0  0  0  0  0  0  0  0  0  0  0  0
  189.7090  177.0190  137.5580 C   0  0  0  0  0  2  0  0  0  0  0  0
  188.5120  178.4440  139.2270 C   0  0  0  0  0  3  0  0  0  0  0  0
  189.3890  177.9530  144.8130 C   0  0  0  0  0  2  0  0  0  0  0  0
  189.2400  178.2120  147.2160 O   0  0  0  0  0  1  0  0  0  0  0  0
  188.7860  177.4540  146.1360 C   0  0  1  0  0  3  0  0  0  0  0  0
  187.2510  177.4470  146.1070 C   0  0  1  0  0  3  0  0  0  0  0  0
  186.6790  178.0110  147.4060 C   0  0  0  0  0  1  0  0  0  0  0  0
  186.0150  178.0050  142.5170 C   0  0  0  0  0  3  0  0  0  0  0  0
  186.6880  178.1800  144.8800 C   0  0  1  0  0  3  0  0  0  0  0  0
  184.2690  178.5690  144.0360 C   0  0  1  0  0  3  0  0  0  0  0  0
  186.6940  177.2800  143.6380 C   0  0  0  0  0  2  0  0  0  0  0  0
  185.2890  178.7740  145.1700 C   0  0  0  0  0  2  0  0  0  0  0  0
  183.1850  179.6210  144.1190 C   0  0  0  0  0  1  0  0  0  0  0  0
  184.8990  178.6120  142.7320 N   0  0  0  0  0  0  0  0  0  0  0  0
  191.4250  177.1590  145.9400 C   0  0  0  0  0  2  0  0  0  0  0  0
  192.0540  175.7690  146.0100 C   0  0  0  0  0  2  0  0  0  0  0  0
  192.5360  175.5190  147.2950 O   0  0  0  0  0  1  0  0  0  0  0  0
  2  1  1  6  0  0  0
  2 14  1  0  0  0  0
  2 26  1  0  0  0  0
  3  6  1  6  0  0  0
  3  5  1  0  0  0  0
  3  4  1  0  0  0  0
  4  2  1  1  0  0  0
  5  4  1  0  0  0  0
  7  9  1  0  0  0  0
  7  6  1  1  0  0  0
  8 13  1  0  0  0  0
 10 11  2  0  0  0  0
 11  7  1  0  0  0  0
 12  8  1  0  0  0  0
 12 11  1  0  0  0  0
 13  9  2  0  0  0  0
 14 16  1  0  0  0  0
 16 15  1  1  0  0  0
 17 16  1  0  0  0  0
 17 18  1  1  0  0  0
 19 25  2  0  0  0  0
 19 22  1  0  0  0  0
 20 23  1  0  0  0  0
 20 17  1  1  0  0  0
 21 24  1  6  0  0  0
 21 23  1  0  0  0  0
 22 20  1  0  0  0  0
 25 21  1  0  0  0  0
 26 27  1  0  0  0  0
 27 28  1  0  0  0  0
M  END
>  <MODEL>
1

>  <REMARK>
 VINA RESULT:      -8.4      0.000      0.000
  Name = 
  9 active torsions:
  status: ('A' for Active; 'I' for Inactive)
    1  A    between atoms: C_1  and  O_2
    2  A    between atoms: O_2  and  C_3
    3  A    between atoms: C_9  and  C_14
    4  A    between atoms: C_10  and  C_25
    5  A    between atoms: C_10  and  C_27
    6  A    between atoms: C_14  and  C_25
    7  A    between atoms: C_16  and  C_21
    8  A    between atoms: C_17  and  C_27
    9  A    between atoms: C_21  and  C_27
                            x       y       z     vdW  Elec       q    Type
                         _______ _______ _______ _____ _____    ______ ____

>  <TORSDO>
F 9

$$$$
=
 OpenBabel10272401483D

 28 30  0  0  1  0  0  0  0  0999 V2000
  190.2180  178.8780  144.2350 C   0  0  0  0  0  1  0  0  0  0  0  0
  190.6830  177.4850  144.6510 C   0  0  2  0  0  0  0  0  0  0  0  0
  190.5110  176.8010  142.2060 C   0  0  2  0  0  3  0  0  0  0  0  0
  191.4020  176.8270  143.4410 C   0  0  2  0  0  3  0  0  0  0  0  0
  190.8160  175.5140  142.9460 C   0  0  0  0  0  2  0  0  0  0  0  0
  191.3030  176.8730  141.0560 O   0  0  0  0  0  0  0  0  0  0  0  0
  190.4820  177.4560  140.0830 C   0  0  2  0  0  3  0  0  0  0  0  0
  188.1550  177.9030  138.4980 C   0  0  0  0  0  2  0  0  0  0  0  0
  189.2100  177.9590  140.7210 C   0  0  0  0  0  3  0  0  0  0  0  0
  190.9470  175.5710  138.7110 O   0  0  0  0  0  0  0  0  0  0  0  0
  190.1600  176.4640  138.9860 C   0  0  0  0  0  0  0  0  0  0  0  0
  188.8770  176.5850  138.1990 C   0  0  0  0  0  2  0  0  0  0  0  0
  188.1170  178.1700  139.9770 C   0  0  0  0  0  3  0  0  0  0  0  0
  189.4550  176.6330  145.0170 C   0  0  0  0  0  2  0  0  0  0  0  0
  187.6740  176.1940  143.4350 O   0  0  0  0  0  1  0  0  0  0  0  0
  188.1210  177.0930  144.4060 C   0  0  1  0  0  3  0  0  0  0  0  0
  187.0360  177.2990  145.4710 C   0  0  1  0  0  3  0  0  0  0  0  0
  187.4780  178.3330  146.5050 C   0  0  0  0  0  1  0  0  0  0  0  0
  183.7390  179.1850  144.9220 C   0  0  0  0  0  3  0  0  0  0  0  0
  185.6770  177.6650  144.8560 C   0  0  1  0  0  3  0  0  0  0  0  0
  185.0090  179.2380  142.9080 C   0  0  1  0  0  3  0  0  0  0  0  0
  184.9890  178.7870  145.6450 C   0  0  0  0  0  2  0  0  0  0  0  0
  185.8100  178.0020  143.3520 C   0  0  0  0  0  2  0  0  0  0  0  0
  184.7170  179.1610  141.4250 C   0  0  0  0  0  1  0  0  0  0  0  0
  183.7710  179.3700  143.6480 N   0  0  0  0  0  0  0  0  0  0  0  0
  191.5240  177.5830  145.9460 C   0  0  0  0  0  2  0  0  0  0  0  0
  191.1880  176.5540  147.0240 C   0  0  0  0  0  2  0  0  0  0  0  0
  192.2970  176.3280  147.8400 O   0  0  0  0  0  1  0  0  0  0  0  0
  2  1  1  6  0  0  0
  2 14  1  0  0  0  0
  2 26  1  0  0  0  0
  3  6  1  6  0  0  0
  3  5  1  0  0  0  0
  3  4  1  0  0  0  0
  4  2  1  1  0  0  0
  5  4  1  0  0  0  0
  7  9  1  0  0  0  0
  7  6  1  1  0  0  0
  8 13  1  0  0  0  0
 10 11  2  0  0  0  0
 11  7  1  0  0  0  0
 12  8  1  0  0  0  0
 12 11  1  0  0  0  0
 13  9  2  0  0  0  0
 16 15  1  6  0  0  0
 16 14  1  0  0  0  0
 16 17  1  0  0  0  0
 17 18  1  1  0  0  0
 19 22  1  0  0  0  0
 20 17  1  1  0  0  0
 20 22  1  0  0  0  0
 21 24  1  6  0  0  0
 21 23  1  0  0  0  0
 21 25  1  0  0  0  0
 23 20  1  0  0  0  0
 25 19  2  0  0  0  0
 26 27  1  0  0  0  0
 27 28  1  0  0  0  0
M  END
>  <MODEL>
2

>  <REMARK>
 VINA RESULT:      -7.8      1.247      1.722
  Name = 
  9 active torsions:
  status: ('A' for Active; 'I' for Inactive)
    1  A    between atoms: C_1  and  O_2
    2  A    between atoms: O_2  and  C_3
    3  A    between atoms: C_9  and  C_14
    4  A    between atoms: C_10  and  C_25
    5  A    between atoms: C_10  and  C_27
    6  A    between atoms: C_14  and  C_25
    7  A    between atoms: C_16  and  C_21
    8  A    between atoms: C_17  and  C_27
    9  A    between atoms: C_21  and  C_27
                            x       y       z     vdW  Elec       q    Type
                         _______ _______ _______ _____ _____    ______ ____

>  <TORSDO>
F 9

$$$$
=
 OpenBabel10272401483D

 28 30  0  0  1  0  0  0  0  0999 V2000
  191.6110  177.6310  139.8920 C   0  0  0  0  0  1  0  0  0  0  0  0
  190.2020  177.1210  139.5990 C   0  0  2  0  0  0  0  0  0  0  0  0
  188.1260  177.8100  138.2970 C   0  0  2  0  0  3  0  0  0  0  0  0
  189.3590  178.3030  139.0440 C   0  0  2  0  0  3  0  0  0  0  0  0
  189.2840  178.4180  137.5300 C   0  0  0  0  0  2  0  0  0  0  0  0
  187.1010  178.7530  138.4130 O   0  0  0  0  0  0  0  0  0  0  0  0
  185.9150  178.0120  138.3490 C   0  0  2  0  0  3  0  0  0  0  0  0
  183.3040  177.2550  137.4910 C   0  0  0  0  0  2  0  0  0  0  0  0
  185.6860  177.5340  136.9360 C   0  0  0  0  0  3  0  0  0  0  0  0
  184.8970  179.7270  139.6430 O   0  0  0  0  0  0  0  0  0  0  0  0
  184.7380  178.8390  138.8190 C   0  0  0  0  0  0  0  0  0  0  0  0
  183.3500  178.5570  138.2970 C   0  0  0  0  0  2  0  0  0  0  0  0
  184.4600  177.1780  136.5330 C   0  0  0  0  0  3  0  0  0  0  0  0
  189.5630  176.6330  140.9110 C   0  0  0  0  0  2  0  0  0  0  0  0
  188.8500  178.6300  142.0800 O   0  0  0  0  0  1  0  0  0  0  0  0
  189.7440  177.5590  142.1250 C   0  0  1  0  0  3  0  0  0  0  0  0
  189.5980  176.8060  143.4540 C   0  0  1  0  0  3  0  0  0  0  0  0
  190.9660  176.4960  144.0580 C   0  0  0  0  0  1  0  0  0  0  0  0
  186.5130  177.6350  145.5820 C   0  0  0  0  0  3  0  0  0  0  0  0
  188.7000  177.5540  144.4520 C   0  0  1  0  0  3  0  0  0  0  0  0
  188.3920  177.3500  147.0170 C   0  0  1  0  0  3  0  0  0  0  0  0
  187.2910  176.9490  144.5020 C   0  0  0  0  0  2  0  0  0  0  0  0
  189.3560  177.6340  145.8510 C   0  0  0  0  0  2  0  0  0  0  0  0
  188.9110  177.9920  148.2850 C   0  0  0  0  0  1  0  0  0  0  0  0
  187.0530  177.8250  146.7350 N   0  0  0  0  0  0  0  0  0  0  0  0
  190.2790  175.8780  138.6830 C   0  0  0  0  0  2  0  0  0  0  0  0
  191.6440  175.6170  138.0480 C   0  0  0  0  0  2  0  0  0  0  0  0
  191.8060  174.2560  137.7880 O   0  0  0  0  0  1  0  0  0  0  0  0
  2  1  1  1  0  0  0
  2 14  1  0  0  0  0
  3  6  1  1  0  0  0
  3  4  1  0  0  0  0
  4  2  1  6  0  0  0
  5  3  1  0  0  0  0
  5  4  1  0  0  0  0
  7  6  1  6  0  0  0
  7 11  1  0  0  0  0
  8 12  1  0  0  0  0
  9  7  1  0  0  0  0
 11 10  2  0  0  0  0
 12 11  1  0  0  0  0
 13  9  2  0  0  0  0
 13  8  1  0  0  0  0
 14 16  1  0  0  0  0
 16 15  1  1  0  0  0
 16 17  1  0  0  0  0
 17 18  1  1  0  0  0
 19 25  2  0  0  0  0
 20 17  1  6  0  0  0
 20 22  1  0  0  0  0
 20 23  1  0  0  0  0
 21 24  1  1  0  0  0
 22 19  1  0  0  0  0
 23 21  1  0  0  0  0
 25 21  1  0  0  0  0
 26  2  1  0  0  0  0
 27 26  1  0  0  0  0
 28 27  1  0  0  0  0
M  END
>  <MODEL>
3

>  <REMARK>
 VINA RESULT:      -7.8      2.960      5.529
  Name = 
  9 active torsions:
  status: ('A' for Active; 'I' for Inactive)
    1  A    between atoms: C_1  and  O_2
    2  A    between atoms: O_2  and  C_3
    3  A    between atoms: C_9  and  C_14
    4  A    between atoms: C_10  and  C_25
    5  A    between atoms: C_10  and  C_27
    6  A    between atoms: C_14  and  C_25
    7  A    between atoms: C_16  and  C_21
    8  A    between atoms: C_17  and  C_27
    9  A    between atoms: C_21  and  C_27
                            x       y       z     vdW  Elec       q    Type
                         _______ _______ _______ _____ _____    ______ ____

>  <TORSDO>
F 9

$$$$
=
 OpenBabel10272401483D

 28 30  0  0  1  0  0  0  0  0999 V2000
  191.5510  177.4710  141.0680 C   0  0  0  0  0  1  0  0  0  0  0  0
  190.0510  177.1880  141.0630 C   0  0  2  0  0  0  0  0  0  0  0  0
  189.6400  177.1360  143.5740 C   0  0  2  0  0  3  0  0  0  0  0  0
  189.7150  176.3070  142.2980 C   0  0  2  0  0  3  0  0  0  0  0  0
  190.8040  176.1910  143.3530 C   0  0  0  0  0  2  0  0  0  0  0  0
  188.7290  176.5510  144.4580 O   0  0  0  0  0  0  0  0  0  0  0  0
  188.5320  177.5060  145.4630 C   0  0  2  0  0  3  0  0  0  0  0  0
  187.7130  178.5870  147.9700 C   0  0  0  0  0  2  0  0  0  0  0  0
  189.1890  177.0480  146.7410 C   0  0  0  0  0  3  0  0  0  0  0  0
  186.2570  177.6020  144.7780 O   0  0  0  0  0  0  0  0  0  0  0  0
  187.0550  177.7490  145.6920 C   0  0  0  0  0  0  0  0  0  0  0  0
  186.5570  178.2030  147.0420 C   0  0  0  0  0  2  0  0  0  0  0  0
  188.8060  177.5550  147.9190 C   0  0  0  0  0  3  0  0  0  0  0  0
  189.6920  176.4070  139.7870 C   0  0  0  0  0  2  0  0  0  0  0  0
  191.0720  174.9060  138.4800 O   0  0  0  0  0  1  0  0  0  0  0  0
  190.8260  176.2510  138.7600 C   0  0  1  0  0  3  0  0  0  0  0  0
  190.5390  177.0150  137.4600 C   0  0  1  0  0  3  0  0  0  0  0  0
  191.2060  176.3310  136.2680 C   0  0  0  0  0  1  0  0  0  0  0  0
  187.2720  178.7410  136.4230 C   0  0  0  0  0  3  0  0  0  0  0  0
  189.0350  177.2170  137.2220 C   0  0  1  0  0  3  0  0  0  0  0  0
  187.5050  176.7160  135.1920 C   0  0  1  0  0  3  0  0  0  0  0  0
  188.7280  178.6490  136.7630 C   0  0  0  0  0  2  0  0  0  0  0  0
  188.4690  176.1540  136.2520 C   0  0  0  0  0  2  0  0  0  0  0  0
  186.5850  175.6220  134.6960 C   0  0  0  0  0  1  0  0  0  0  0  0
  186.7240  177.8210  135.7080 N   0  0  0  0  0  0  0  0  0  0  0  0
  189.2720  178.5210  140.9700 C   0  0  0  0  0  2  0  0  0  0  0  0
  187.8260  178.4010  140.4930 C   0  0  0  0  0  2  0  0  0  0  0  0
  186.9530  178.4140  141.5820 O   0  0  0  0  0  1  0  0  0  0  0  0
  2  1  1  6  0  0  0
  3  6  1  1  0  0  0
  4  2  1  6  0  0  0
  4  5  1  0  0  0  0
  4  3  1  0  0  0  0
  5  3  1  0  0  0  0
  7  6  1  6  0  0  0
  7 11  1  0  0  0  0
  7  9  1  0  0  0  0
  9 13  2  0  0  0  0
 10 11  2  0  0  0  0
 11 12  1  0  0  0  0
 12  8  1  0  0  0  0
 13  8  1  0  0  0  0
 14  2  1  0  0  0  0
 16 15  1  6  0  0  0
 16 14  1  0  0  0  0
 17 18  1  6  0  0  0
 17 16  1  0  0  0  0
 19 22  1  0  0  0  0
 20 17  1  6  0  0  0
 21 24  1  1  0  0  0
 21 25  1  0  0  0  0
 21 23  1  0  0  0  0
 22 20  1  0  0  0  0
 23 20  1  0  0  0  0
 25 19  2  0  0  0  0
 26  2  1  0  0  0  0
 27 26  1  0  0  0  0
 27 28  1  0  0  0  0
M  END
>  <MODEL>
4

>  <REMARK>
 VINA RESULT:      -7.6      2.540      7.600
  Name = 
  9 active torsions:
  status: ('A' for Active; 'I' for Inactive)
    1  A    between atoms: C_1  and  O_2
    2  A    between atoms: O_2  and  C_3
    3  A    between atoms: C_9  and  C_14
    4  A    between atoms: C_10  and  C_25
    5  A    between atoms: C_10  and  C_27
    6  A    between atoms: C_14  and  C_25
    7  A    between atoms: C_16  and  C_21
    8  A    between atoms: C_17  and  C_27
    9  A    between atoms: C_21  and  C_27
                            x       y       z     vdW  Elec       q    Type
                         _______ _______ _______ _____ _____    ______ ____

>  <TORSDO>
F 9

$$$$
=
 OpenBabel10272401483D

 28 30  0  0  1  0  0  0  0  0999 V2000
  190.1540  176.1740  141.6980 C   0  0  0  0  0  1  0  0  0  0  0  0
  189.5140  177.5320  141.4200 C   0  0  2  0  0  0  0  0  0  0  0  0
  189.1910  177.7150  138.9020 C   0  0  2  0  0  3  0  0  0  0  0  0
  190.0850  178.0780  140.0810 C   0  0  2  0  0  3  0  0  0  0  0  0
  190.5350  177.0340  139.0710 C   0  0  0  0  0  2  0  0  0  0  0  0
  189.2920  178.7030  137.9180 O   0  0  0  0  0  0  0  0  0  0  0  0
  188.1370  178.5620  137.1400 C   0  0  2  0  0  3  0  0  0  0  0  0
  185.8940  177.2860  135.9290 C   0  0  0  0  0  2  0  0  0  0  0  0
  187.0070  178.0380  137.9920 C   0  0  0  0  0  3  0  0  0  0  0  0
  189.5020  177.5380  135.4850 O   0  0  0  0  0  0  0  0  0  0  0  0
  188.3840  177.6340  135.9700 C   0  0  0  0  0  0  0  0  0  0  0  0
  187.2490  176.8390  135.3720 C   0  0  0  0  0  2  0  0  0  0  0  0
  185.9530  177.4390  137.4240 C   0  0  0  0  0  3  0  0  0  0  0  0
  189.8910  178.5060  142.5500 C   0  0  0  0  0  2  0  0  0  0  0  0
  191.7140  179.0890  144.0350 O   0  0  0  0  0  1  0  0  0  0  0  0
  190.9890  178.0180  143.5100 C   0  0  1  0  0  3  0  0  0  0  0  0
  190.4230  177.1580  144.6480 C   0  0  1  0  0  3  0  0  0  0  0  0
  191.5030  176.8420  145.6820 C   0  0  0  0  0  1  0  0  0  0  0  0
  186.7520  177.6690  145.6430 C   0  0  0  0  0  3  0  0  0  0  0  0
  189.1890  177.7960  145.3020 C   0  0  1  0  0  3  0  0  0  0  0  0
  188.0700  177.4630  147.6160 C   0  0  1  0  0  3  0  0  0  0  0  0
  187.8970  177.0880  144.8720 C   0  0  0  0  0  2  0  0  0  0  0  0
  189.3370  177.8650  146.8410 C   0  0  0  0  0  2  0  0  0  0  0  0
  188.0860  178.0880  148.9940 C   0  0  0  0  0  1  0  0  0  0  0  0
  186.8640  177.8510  146.9130 N   0  0  0  0  0  0  0  0  0  0  0  0
  187.9740  177.4020  141.4770 C   0  0  0  0  0  2  0  0  0  0  0  0
  187.2130  178.7160  141.6470 C   0  0  0  0  0  2  0  0  0  0  0  0
  185.9170  178.4700  142.1030 O   0  0  0  0  0  1  0  0  0  0  0  0
  2 26  1  0  0  0  0
  2  1  1  1  0  0  0
  2 14  1  0  0  0  0
  3  6  1  6  0  0  0
  3  5  1  0  0  0  0
  3  4  1  0  0  0  0
  4  2  1  1  0  0  0
  5  4  1  0  0  0  0
  7  6  1  1  0  0  0
  7  9  1  0  0  0  0
  8 13  1  0  0  0  0
 10 11  2  0  0  0  0
 11  7  1  0  0  0  0
 12  8  1  0  0  0  0
 12 11  1  0  0  0  0
 13  9  2  0  0  0  0
 14 16  1  0  0  0  0
 16 15  1  1  0  0  0
 16 17  1  0  0  0  0
 17 18  1  1  0  0  0
 19 25  2  0  0  0  0
 20 17  1  6  0  0  0
 20 23  1  0  0  0  0
 21 24  1  1  0  0  0
 22 20  1  0  0  0  0
 22 19  1  0  0  0  0
 23 21  1  0  0  0  0
 25 21  1  0  0  0  0
 26 27  1  0  0  0  0
 27 28  1  0  0  0  0
M  END
>  <MODEL>
5

>  <REMARK>
 VINA RESULT:      -7.5      2.476      4.479
  Name = 
  9 active torsions:
  status: ('A' for Active; 'I' for Inactive)
    1  A    between atoms: C_1  and  O_2
    2  A    between atoms: O_2  and  C_3
    3  A    between atoms: C_9  and  C_14
    4  A    between atoms: C_10  and  C_25
    5  A    between atoms: C_10  and  C_27
    6  A    between atoms: C_14  and  C_25
    7  A    between atoms: C_16  and  C_21
    8  A    between atoms: C_17  and  C_27
    9  A    between atoms: C_21  and  C_27
                            x       y       z     vdW  Elec       q    Type
                         _______ _______ _______ _____ _____    ______ ____

>  <TORSDO>
F 9

$$$$
=
 OpenBabel10272401483D

 28 30  0  0  1  0  0  0  0  0999 V2000
  190.0250  178.9270  142.2730 C   0  0  0  0  0  1  0  0  0  0  0  0
  189.6370  177.4560  142.3920 C   0  0  2  0  0  0  0  0  0  0  0  0
  189.2040  177.7340  144.8850 C   0  0  2  0  0  3  0  0  0  0  0  0
  189.9890  176.9700  143.8260 C   0  0  2  0  0  3  0  0  0  0  0  0
  190.6910  177.9810  144.7210 C   0  0  0  0  0  2  0  0  0  0  0  0
  188.9910  176.9100  145.9940 O   0  0  0  0  0  0  0  0  0  0  0  0
  187.6620  177.1420  146.3700 C   0  0  2  0  0  3  0  0  0  0  0  0
  185.2160  178.5610  146.7290 C   0  0  0  0  0  2  0  0  0  0  0  0
  186.8630  177.5980  145.1740 C   0  0  0  0  0  3  0  0  0  0  0  0
  188.5110  178.3010  148.2640 O   0  0  0  0  0  0  0  0  0  0  0  0
  187.5880  178.1750  147.4730 C   0  0  0  0  0  0  0  0  0  0  0  0
  186.3610  179.0400  147.6280 C   0  0  0  0  0  2  0  0  0  0  0  0
  185.7140  178.2640  145.3420 C   0  0  0  0  0  3  0  0  0  0  0  0
  190.4550  176.6370  141.3790 C   0  0  0  0  0  2  0  0  0  0  0  0
  192.6610  177.2880  140.6210 O   0  0  0  0  0  1  0  0  0  0  0  0
  191.2950  177.4550  140.3850 C   0  0  1  0  0  3  0  0  0  0  0  0
  190.9670  177.1100  138.9270 C   0  0  1  0  0  3  0  0  0  0  0  0
  191.7270  175.8630  138.4780 C   0  0  0  0  0  1  0  0  0  0  0  0
  187.3920  178.0400  137.8840 C   0  0  0  0  0  3  0  0  0  0  0  0
  189.4560  176.9620  138.6890 C   0  0  1  0  0  3  0  0  0  0  0  0
  188.0820  176.1160  136.6610 C   0  0  1  0  0  3  0  0  0  0  0  0
  188.8300  178.2830  138.2230 C   0  0  0  0  0  2  0  0  0  0  0  0
  189.1480  175.7930  137.7220 C   0  0  0  0  0  2  0  0  0  0  0  0
  187.4370  174.8380  136.1700 C   0  0  0  0  0  1  0  0  0  0  0  0
  187.0690  177.0160  137.1720 N   0  0  0  0  0  0  0  0  0  0  0  0
  188.1570  177.2750  141.9790 C   0  0  0  0  0  2  0  0  0  0  0  0
  187.4370  178.5520  141.5480 C   0  0  0  0  0  2  0  0  0  0  0  0
  186.0730  178.4550  141.8230 O   0  0  0  0  0  1  0  0  0  0  0  0
  2  1  1  6  0  0  0
  3  6  1  1  0  0  0
  4  2  1  6  0  0  0
  4  5  1  0  0  0  0
  4  3  1  0  0  0  0
  5  3  1  0  0  0  0
  7  6  1  6  0  0  0
  7 11  1  0  0  0  0
  8 12  1  0  0  0  0
  9 13  2  0  0  0  0
  9  7  1  0  0  0  0
 11 12  1  0  0  0  0
 11 10  2  0  0  0  0
 13  8  1  0  0  0  0
 14  2  1  0  0  0  0
 16 15  1  1  0  0  0
 16 14  1  0  0  0  0
 17 18  1  1  0  0  0
 17 16  1  0  0  0  0
 19 22  1  0  0  0  0
 20 17  1  6  0  0  0
 21 24  1  1  0  0  0
 21 25  1  0  0  0  0
 21 23  1  0  0  0  0
 22 20  1  0  0  0  0
 23 20  1  0  0  0  0
 25 19  2  0  0  0  0
 26  2  1  0  0  0  0
 27 28  1  0  0  0  0
 27 26  1  0  0  0  0
M  END
>  <MODEL>
6

>  <REMARK>
 VINA RESULT:      -7.4      2.084      7.146
  Name = 
  9 active torsions:
  status: ('A' for Active; 'I' for Inactive)
    1  A    between atoms: C_1  and  O_2
    2  A    between atoms: O_2  and  C_3
    3  A    between atoms: C_9  and  C_14
    4  A    between atoms: C_10  and  C_25
    5  A    between atoms: C_10  and  C_27
    6  A    between atoms: C_14  and  C_25
    7  A    between atoms: C_16  and  C_21
    8  A    between atoms: C_17  and  C_27
    9  A    between atoms: C_21  and  C_27
                            x       y       z     vdW  Elec       q    Type
                         _______ _______ _______ _____ _____    ______ ____

>  <TORSDO>
F 9

$$$$
=
 OpenBabel10272401483D

 28 30  0  0  1  0  0  0  0  0999 V2000
  191.7690  177.7030  141.9500 C   0  0  0  0  0  1  0  0  0  0  0  0
  190.4530  176.9530  142.1440 C   0  0  2  0  0  0  0  0  0  0  0  0
  190.7940  176.9760  139.6220 C   0  0  2  0  0  3  0  0  0  0  0  0
  189.7960  176.7480  140.7510 C   0  0  2  0  0  3  0  0  0  0  0  0
  189.6900  177.9850  139.8720 C   0  0  0  0  0  2  0  0  0  0  0  0
  190.4510  176.1770  138.5270 O   0  0  0  0  0  0  0  0  0  0  0  0
  191.6190  175.4730  138.2100 C   0  0  2  0  0  3  0  0  0  0  0  0
  193.7190  174.4060  136.6040 C   0  0  0  0  0  2  0  0  0  0  0  0
  192.6040  176.3940  137.5330 C   0  0  0  0  0  3  0  0  0  0  0  0
  190.2230  173.7370  137.3820 O   0  0  0  0  0  0  0  0  0  0  0  0
  191.3100  174.2910  137.3170 C   0  0  0  0  0  0  0  0  0  0  0  0
  192.3500  173.7660  136.3570 C   0  0  0  0  0  2  0  0  0  0  0  0
  193.5910  175.8940  136.7790 C   0  0  0  0  0  3  0  0  0  0  0  0
  189.5120  177.8070  143.0120 C   0  0  0  0  0  2  0  0  0  0  0  0
  188.1360  175.8140  142.9700 O   0  0  0  0  0  1  0  0  0  0  0  0
  188.2350  177.1020  143.4990 C   0  0  1  0  0  3  0  0  0  0  0  0
  188.1500  177.0510  145.0300 C   0  0  1  0  0  3  0  0  0  0  0  0
  189.1270  178.0400  145.6640 C   0  0  0  0  0  1  0  0  0  0  0  0
  185.2780  178.4280  147.1710 C   0  0  0  0  0  3  0  0  0  0  0  0
  186.7180  177.2700  145.5430 C   0  0  1  0  0  3  0  0  0  0  0  0
  184.8680  178.9610  144.8860 C   0  0  1  0  0  3  0  0  0  0  0  0
  186.7010  178.1450  146.8020 C   0  0  0  0  0  2  0  0  0  0  0  0
  185.7990  177.8240  144.4290 C   0  0  0  0  0  2  0  0  0  0  0  0
  183.6610  179.0390  143.9780 C   0  0  0  0  0  1  0  0  0  0  0  0
  184.4410  178.7870  146.2600 N   0  0  0  0  0  0  0  0  0  0  0  0
  190.7080  175.6590  142.9520 C   0  0  0  0  0  2  0  0  0  0  0  0
  191.6140  175.8170  144.1720 C   0  0  0  0  0  2  0  0  0  0  0  0
  192.3500  174.6510  144.3830 O   0  0  0  0  0  1  0  0  0  0  0  0
  2  1  1  6  0  0  0
  2 26  1  0  0  0  0
  2 14  1  0  0  0  0
  3  6  1  6  0  0  0
  3  5  1  0  0  0  0
  3  4  1  0  0  0  0
  4  2  1  1  0  0  0
  5  4  1  0  0  0  0
  7  6  1  6  0  0  0
  8 13  1  0  0  0  0
  9  7  1  0  0  0  0
 11 10  2  0  0  0  0
 11  7  1  0  0  0  0
 12  8  1  0  0  0  0
 12 11  1  0  0  0  0
 13  9  2  0  0  0  0
 14 16  1  0  0  0  0
 16 15  1  6  0  0  0
 16 17  1  0  0  0  0
 17 18  1  1  0  0  0
 20 17  1  6  0  0  0
 20 22  1  0  0  0  0
 21 24  1  6  0  0  0
 21 25  1  0  0  0  0
 22 19  1  0  0  0  0
 23 21  1  0  0  0  0
 23 20  1  0  0  0  0
 25 19  2  0  0  0  0
 26 27  1  0  0  0  0
 27 28  1  0  0  0  0
M  END
>  <MODEL>
7

>  <REMARK>
 VINA RESULT:      -7.4      2.099      3.329
  Name = 
  9 active torsions:
  status: ('A' for Active; 'I' for Inactive)
    1  A    between atoms: C_1  and  O_2
    2  A    between atoms: O_2  and  C_3
    3  A    between atoms: C_9  and  C_14
    4  A    between atoms: C_10  and  C_25
    5  A    between atoms: C_10  and  C_27
    6  A    between atoms: C_14  and  C_25
    7  A    between atoms: C_16  and  C_21
    8  A    between atoms: C_17  and  C_27
    9  A    between atoms: C_21  and  C_27
                            x       y       z     vdW  Elec       q    Type
                         _______ _______ _______ _____ _____    ______ ____

>  <TORSDO>
F 9

$$$$
=
 OpenBabel10272401483D

 28 30  0  0  1  0  0  0  0  0999 V2000
  190.7510  178.9130  143.4850 C   0  0  0  0  0  1  0  0  0  0  0  0
  190.8900  177.6240  142.6790 C   0  0  2  0  0  0  0  0  0  0  0  0
  191.1340  177.0170  140.2190 C   0  0  2  0  0  3  0  0  0  0  0  0
  191.5790  177.9630  141.3280 C   0  0  2  0  0  3  0  0  0  0  0  0
  192.5370  176.9150  140.7840 C   0  0  0  0  0  2  0  0  0  0  0  0
  191.1760  177.6840  138.9910 O   0  0  0  0  0  0  0  0  0  0  0  0
  190.1510  177.1100  138.2290 C   0  0  2  0  0  3  0  0  0  0  0  0
  188.5370  176.5530  135.9470 C   0  0  0  0  0  2  0  0  0  0  0  0
  190.7380  176.3950  137.0380 C   0  0  0  0  0  3  0  0  0  0  0  0
  188.9820  179.1690  138.4440 O   0  0  0  0  0  0  0  0  0  0  0  0
  189.1650  178.1640  137.7740 C   0  0  0  0  0  0  0  0  0  0  0  0
  188.3750  177.9720  136.5010 C   0  0  0  0  0  2  0  0  0  0  0  0
  189.9810  176.1330  135.9650 C   0  0  0  0  0  3  0  0  0  0  0  0
  189.4890  177.0580  142.3900 C   0  0  0  0  0  2  0  0  0  0  0  0
  187.8070  178.4530  141.3450 O   0  0  0  0  0  1  0  0  0  0  0  0
  188.3230  178.0430  142.5760 C   0  0  1  0  0  3  0  0  0  0  0  0
  187.2030  177.4570  143.4460 C   0  0  1  0  0  3  0  0  0  0  0  0
  187.4460  175.9730  143.7200 C   0  0  0  0  0  1  0  0  0  0  0  0
  185.4850  178.7830  146.6110 C   0  0  0  0  0  3  0  0  0  0  0  0
  187.0070  178.2430  144.7510 C   0  0  1  0  0  3  0  0  0  0  0  0
  187.4950  177.6640  147.2290 C   0  0  1  0  0  3  0  0  0  0  0  0
  185.5730  178.1060  145.2780 C   0  0  0  0  0  2  0  0  0  0  0  0
  188.0630  177.8500  145.8120 C   0  0  0  0  0  2  0  0  0  0  0  0
  188.5890  177.8620  148.2560 C   0  0  0  0  0  1  0  0  0  0  0  0
  186.4000  178.5750  147.4940 N   0  0  0  0  0  0  0  0  0  0  0  0
  191.6050  176.5520  143.5340 C   0  0  0  0  0  2  0  0  0  0  0  0
  191.5450  176.7730  145.0450 C   0  0  0  0  0  2  0  0  0  0  0  0
  191.9970  175.6380  145.7190 O   0  0  0  0  0  1  0  0  0  0  0  0
  2  1  1  1  0  0  0
  2 26  1  0  0  0  0
  3  6  1  6  0  0  0
  3  5  1  0  0  0  0
  3  4  1  0  0  0  0
  4  2  1  1  0  0  0
  5  4  1  0  0  0  0
  7  6  1  6  0  0  0
  8 13  1  0  0  0  0
  8 12  1  0  0  0  0
  9  7  1  0  0  0  0
 11  7  1  0  0  0  0
 11 10  2  0  0  0  0
 12 11  1  0  0  0  0
 13  9  2  0  0  0  0
 14 16  1  0  0  0  0
 14  2  1  0  0  0  0
 16 15  1  6  0  0  0
 16 17  1  0  0  0  0
 17 18  1  1  0  0  0
 19 25  2  0  0  0  0
 20 17  1  6  0  0  0
 20 22  1  0  0  0  0
 20 23  1  0  0  0  0
 21 25  1  0  0  0  0
 21 24  1  1  0  0  0
 22 19  1  0  0  0  0
 23 21  1  0  0  0  0
 26 27  1  0  0  0  0
 27 28  1  0  0  0  0
M  END
>  <MODEL>
8

>  <REMARK>
 VINA RESULT:      -7.3      1.949      3.446
  Name = 
  9 active torsions:
  status: ('A' for Active; 'I' for Inactive)
    1  A    between atoms: C_1  and  O_2
    2  A    between atoms: O_2  and  C_3
    3  A    between atoms: C_9  and  C_14
    4  A    between atoms: C_10  and  C_25
    5  A    between atoms: C_10  and  C_27
    6  A    between atoms: C_14  and  C_25
    7  A    between atoms: C_16  and  C_21
    8  A    between atoms: C_17  and  C_27
    9  A    between atoms: C_21  and  C_27
                            x       y       z     vdW  Elec       q    Type
                         _______ _______ _______ _____ _____    ______ ____

>  <TORSDO>
F 9

$$$$
=
 OpenBabel10272401483D

 28 30  0  0  1  0  0  0  0  0999 V2000
  191.4970  177.3720  137.9670 C   0  0  0  0  0  1  0  0  0  0  0  0
  190.2340  177.2140  138.8100 C   0  0  2  0  0  0  0  0  0  0  0  0
  187.9450  177.8950  137.9320 C   0  0  2  0  0  3  0  0  0  0  0  0
  189.2760  178.3920  138.4820 C   0  0  2  0  0  3  0  0  0  0  0  0
  188.9330  178.5870  137.0130 C   0  0  0  0  0  2  0  0  0  0  0  0
  186.9310  178.7920  138.2810 O   0  0  0  0  0  0  0  0  0  0  0  0
  185.7730  178.0120  138.3820 C   0  0  2  0  0  3  0  0  0  0  0  0
  183.1270  177.1090  137.8250 C   0  0  0  0  0  2  0  0  0  0  0  0
  185.4380  177.4160  137.0370 C   0  0  0  0  0  3  0  0  0  0  0  0
  184.8090  179.7920  139.6280 O   0  0  0  0  0  0  0  0  0  0  0  0
  184.6110  178.8370  138.8920 C   0  0  0  0  0  0  0  0  0  0  0  0
  183.1940  178.4710  138.5220 C   0  0  0  0  0  2  0  0  0  0  0  0
  184.1960  176.9910  136.7750 C   0  0  0  0  0  3  0  0  0  0  0  0
  190.6120  177.2850  140.3000 C   0  0  0  0  0  2  0  0  0  0  0  0
  190.1280  175.6890  142.0560 O   0  0  0  0  0  1  0  0  0  0  0  0
  189.5750  176.7070  141.2770 C   0  0  1  0  0  3  0  0  0  0  0  0
  188.9650  177.7880  142.1800 C   0  0  1  0  0  3  0  0  0  0  0  0
  187.6290  178.2730  141.6210 C   0  0  0  0  0  1  0  0  0  0  0  0
  189.5770  177.6230  145.9650 C   0  0  0  0  0  3  0  0  0  0  0  0
  188.8290  177.3220  143.6370 C   0  0  1  0  0  3  0  0  0  0  0  0
  187.2700  178.0640  145.5690 C   0  0  1  0  0  3  0  0  0  0  0  0
  189.8490  178.0200  144.5470 C   0  0  0  0  0  2  0  0  0  0  0  0
  187.3780  177.4840  144.1480 C   0  0  0  0  0  2  0  0  0  0  0  0
  185.9540  177.6600  146.1960 C   0  0  0  0  0  1  0  0  0  0  0  0
  188.3690  177.6340  146.4100 N   0  0  0  0  0  0  0  0  0  0  0  0
  189.6420  175.8010  138.5960 C   0  0  0  0  0  2  0  0  0  0  0  0
  190.1400  175.0640  137.3550 C   0  0  0  0  0  2  0  0  0  0  0  0
  190.8590  173.9250  137.7230 O   0  0  0  0  0  1  0  0  0  0  0  0
  2  1  1  6  0  0  0
  2 14  1  0  0  0  0
  3  6  1  1  0  0  0
  3  4  1  0  0  0  0
  4  2  1  6  0  0  0
  5  3  1  0  0  0  0
  5  4  1  0  0  0  0
  7  6  1  6  0  0  0
  7 11  1  0  0  0  0
  8 12  1  0  0  0  0
  9  7  1  0  0  0  0
 11 10  2  0  0  0  0
 12 11  1  0  0  0  0
 13  9  2  0  0  0  0
 13  8  1  0  0  0  0
 14 16  1  0  0  0  0
 16 15  1  1  0  0  0
 16 17  1  0  0  0  0
 17 18  1  6  0  0  0
 19 25  2  0  0  0  0
 20 17  1  6  0  0  0
 20 23  1  0  0  0  0
 20 22  1  0  0  0  0
 21 24  1  1  0  0  0
 21 25  1  0  0  0  0
 22 19  1  0  0  0  0
 23 21  1  0  0  0  0
 26  2  1  0  0  0  0
 27 28  1  0  0  0  0
 27 26  1  0  0  0  0
M  END
>  <MODEL>
9

>  <REMARK>
 VINA RESULT:      -7.3      3.012      5.780
  Name = 
  9 active torsions:
  status: ('A' for Active; 'I' for Inactive)
    1  A    between atoms: C_1  and  O_2
    2  A    between atoms: O_2  and  C_3
    3  A    between atoms: C_9  and  C_14
    4  A    between atoms: C_10  and  C_25
    5  A    between atoms: C_10  and  C_27
    6  A    between atoms: C_14  and  C_25
    7  A    between atoms: C_16  and  C_21
    8  A    between atoms: C_17  and  C_27
    9  A    between atoms: C_21  and  C_27
                            x       y       z     vdW  Elec       q    Type
                         _______ _______ _______ _____ _____    ______ ____

>  <TORSDO>
F 9

$$$$
