=
 OpenBabel10272415333D

 34 39  0  0  1  0  0  0  0  0999 V2000
  188.2070  176.4480  136.6270 C   0  0  2  0  0  0  0  0  0  0  0  0
  192.4800  175.9920  134.5390 O   0  0  0  0  0  1  0  0  0  0  0  0
  189.9630  177.4310  135.1810 C   0  0  0  0  0  2  0  0  0  0  0  0
  188.4580  177.5740  138.8950 C   0  0  0  0  0  2  0  0  0  0  0  0
  188.3770  178.8050  138.2350 O   0  0  0  0  0  0  0  0  0  0  0  0
  188.7710  177.7970  136.0740 C   0  0  2  0  0  3  0  0  0  0  0  0
  187.7050  176.5280  138.0860 C   0  0  0  0  0  2  0  0  0  0  0  0
  189.2970  178.7160  137.1850 C   0  0  0  0  0  2  0  0  0  0  0  0
  191.5430  175.4100  135.3860 C   0  0  0  0  0  0  0  0  0  0  0  0
  191.7610  174.1390  135.9730 C   0  0  0  0  0  0  0  0  0  0  0  0
  190.7780  173.6030  136.8290 C   0  0  0  0  0  3  0  0  0  0  0  0
  190.3570  176.0910  135.6750 C   0  0  0  0  0  0  0  0  0  0  0  0
  189.5960  174.3030  137.0990 C   0  0  0  0  0  3  0  0  0  0  0  0
  189.4030  175.5530  136.5040 C   0  0  0  0  0  0  0  0  0  0  0  0
  186.7030  174.4720  135.9260 C   0  0  1  0  0  3  0  0  0  0  0  0
  184.6010  176.6500  136.4620 C   0  0  2  0  0  3  0  0  0  0  0  0
  183.7470  171.7980  137.0020 C   0  0  0  0  0  1  0  0  0  0  0  0
  185.8430  176.9330  135.6380 C   0  0  2  0  0  0  0  0  0  0  0  0
  187.0550  175.9610  135.7000 C   0  0  1  0  0  3  0  0  0  0  0  0
  182.4830  174.0510  136.9660 C   0  0  2  0  0  3  0  0  0  0  0  0
  184.4280  173.6350  135.5360 O   0  0  0  0  0  0  0  0  0  0  0  0
  181.3530  173.3840  137.7440 C   0  0  0  0  0  1  0  0  0  0  0  0
  185.3180  174.1470  136.5120 C   0  0  2  0  0  3  0  0  0  0  0  0
  186.1040  178.2940  135.4560 O   0  0  0  0  0  1  0  0  0  0  0  0
  183.8870  177.5030  134.3460 O   0  0  0  0  0  1  0  0  0  0  0  0
  183.3280  173.0250  136.1860 C   0  0  1  0  0  3  0  0  0  0  0  0
  183.3590  174.9430  137.8150 C   0  0  0  0  0  0  0  0  0  0  0  0
  184.7020  175.3380  137.2700 C   0  0  2  0  0  3  0  0  0  0  0  0
  182.8430  175.6580  138.8190 C   0  0  0  0  0  2  0  0  0  0  0  0
  184.5780  176.4450  134.9420 C   0  0  2  0  0  3  0  0  0  0  0  0
  187.0630  173.6310  134.7110 C   0  0  0  0  0  1  0  0  0  0  0  0
  192.9900  173.3530  135.7180 C   0  0  0  0  0  0  0  0  0  0  0  0
  193.1690  172.6700  134.5210 O   0  0  0  0  0  0  0  0  0  0  0  0
  193.8940  173.2910  136.5930 O   0  0  0  0  0  1  0  0  0  0  0  0
  1  7  1  1  0  0  0
  2  9  1  0  0  0  0
  3 12  1  0  0  0  0
  5  4  1  0  0  0  0
  6  3  1  6  0  0  0
  6  1  1  0  0  0  0
  6  8  1  0  0  0  0
  7  4  1  0  0  0  0
  8  5  1  0  0  0  0
  9 12  2  0  0  0  0
  9 10  1  0  0  0  0
 10 11  2  0  0  0  0
 11 13  1  0  0  0  0
 12 14  1  0  0  0  0
 14  1  1  0  0  0  0
 14 13  2  0  0  0  0
 15 31  1  6  0  0  0
 15 23  1  0  0  0  0
 16 28  1  0  0  0  0
 18 19  1  0  0  0  0
 18 16  1  0  0  0  0
 19 15  1  0  0  0  0
 19  1  1  0  0  0  0
 20 22  1  0  0  0  0
 20 27  1  0  0  0  0
 21 26  1  0  0  0  0
 21 23  1  0  0  0  0
 23 28  1  0  0  0  0
 24 18  1  0  0  0  0
 25 30  1  0  0  0  0
 26 20  1  0  0  0  0
 26 17  1  0  0  0  0
 27 29  2  0  0  0  0
 28 27  1  0  0  0  0
 30 18  1  0  0  0  0
 30 16  1  0  0  0  0
 32 10  1  0  0  0  0
 32 34  1  0  0  0  0
 33 32  2  0  0  0  0
M  END
>  <MODEL>
1

>  <REMARK>
 VINA RESULT:      -5.3      0.000      0.000
  Name = 
  2 active torsions:
  status: ('A' for Active; 'I' for Inactive)
    1  A    between atoms: C_1  and  C_9
    2  A    between atoms: C_3  and  C_25
                            x       y       z     vdW  Elec       q    Type
                         _______ _______ _______ _____ _____    ______ ____

>  <TORSDO>
F 2

$$$$
=
 OpenBabel10272415333D

 34 39  0  0  1  0  0  0  0  0999 V2000
  185.7850  174.8650  136.2030 C   0  0  2  0  0  0  0  0  0  0  0  0
  182.2740  171.8340  137.3460 O   0  0  0  0  0  1  0  0  0  0  0  0
  183.7710  174.3890  137.5650 C   0  0  0  0  0  2  0  0  0  0  0  0
  185.0210  176.4290  134.3460 C   0  0  0  0  0  2  0  0  0  0  0  0
  184.4910  177.2620  135.3370 O   0  0  0  0  0  0  0  0  0  0  0  0
  184.6350  175.5340  137.0220 C   0  0  2  0  0  3  0  0  0  0  0  0
  186.1880  175.6440  134.9300 C   0  0  0  0  0  2  0  0  0  0  0  0
  183.7290  176.4180  136.1530 C   0  0  0  0  0  2  0  0  0  0  0  0
  183.3770  172.0650  136.5310 C   0  0  0  0  0  0  0  0  0  0  0  0
  183.8070  171.1120  135.5760 C   0  0  0  0  0  0  0  0  0  0  0  0
  184.9290  171.4060  134.7730 C   0  0  0  0  0  3  0  0  0  0  0  0
  184.0810  173.2680  136.6480 C   0  0  0  0  0  0  0  0  0  0  0  0
  185.6200  172.6150  134.9130 C   0  0  0  0  0  3  0  0  0  0  0  0
  185.1780  173.5370  135.8650 C   0  0  0  0  0  0  0  0  0  0  0  0
  187.9290  173.5110  136.6800 C   0  0  1  0  0  3  0  0  0  0  0  0
  189.0330  176.3790  136.6870 C   0  0  2  0  0  3  0  0  0  0  0  0
  191.6990  172.4020  135.4120 C   0  0  0  0  0  1  0  0  0  0  0  0
  187.7700  176.0140  137.4450 C   0  0  2  0  0  0  0  0  0  0  0  0
  187.0280  174.6860  137.1240 C   0  0  1  0  0  3  0  0  0  0  0  0
  191.9940  174.9160  135.9260 C   0  0  2  0  0  3  0  0  0  0  0  0
  190.3480  173.5380  137.1060 O   0  0  0  0  0  0  0  0  0  0  0  0
  193.3020  174.8820  135.1410 C   0  0  0  0  0  1  0  0  0  0  0  0
  189.3380  173.8470  136.1610 C   0  0  2  0  0  3  0  0  0  0  0  0
  187.0020  177.1160  137.8320 O   0  0  0  0  0  1  0  0  0  0  0  0
  189.3420  177.0300  138.9670 O   0  0  0  0  0  1  0  0  0  0  0  0
  191.6030  173.5210  136.4530 C   0  0  1  0  0  3  0  0  0  0  0  0
  190.8500  175.5520  135.1720 C   0  0  0  0  0  0  0  0  0  0  0  0
  189.4540  175.3010  135.6660 C   0  0  2  0  0  3  0  0  0  0  0  0
  191.0600  176.5810  134.3460 C   0  0  0  0  0  2  0  0  0  0  0  0
  189.1180  175.9200  138.1490 C   0  0  2  0  0  3  0  0  0  0  0  0
  187.9110  172.3860  137.7040 C   0  0  0  0  0  1  0  0  0  0  0  0
  183.1170  169.8160  135.3900 C   0  0  0  0  0  0  0  0  0  0  0  0
  181.9020  169.7390  134.7200 O   0  0  0  0  0  0  0  0  0  0  0  0
  183.6270  168.7570  135.8450 O   0  0  0  0  0  1  0  0  0  0  0  0
  1  7  1  6  0  0  0
  1  6  1  0  0  0  0
  1 19  1  0  0  0  0
  4  7  1  0  0  0  0
  4  5  1  0  0  0  0
  5  8  1  0  0  0  0
  6  8  1  6  0  0  0
  6  3  1  0  0  0  0
  9 12  1  0  0  0  0
  9  2  1  0  0  0  0
 10  9  2  0  0  0  0
 11 13  2  0  0  0  0
 11 10  1  0  0  0  0
 12  3  1  0  0  0  0
 13 14  1  0  0  0  0
 14  1  1  0  0  0  0
 14 12  2  0  0  0  0
 15 19  1  0  0  0  0
 15 31  1  1  0  0  0
 16 18  1  0  0  0  0
 16 30  1  0  0  0  0
 17 26  1  0  0  0  0
 18 24  1  0  0  0  0
 18 30  1  0  0  0  0
 19 18  1  0  0  0  0
 20 26  1  0  0  0  0
 22 20  1  0  0  0  0
 23 15  1  0  0  0  0
 23 21  1  0  0  0  0
 26 21  1  0  0  0  0
 27 28  1  0  0  0  0
 27 20  1  0  0  0  0
 28 23  1  0  0  0  0
 28 16  1  0  0  0  0
 29 27  2  0  0  0  0
 30 25  1  0  0  0  0
 32 10  1  0  0  0  0
 32 34  1  0  0  0  0
 33 32  2  0  0  0  0
M  END
>  <MODEL>
2

>  <REMARK>
 VINA RESULT:      -4.9      1.987      7.136
  Name = 
  2 active torsions:
  status: ('A' for Active; 'I' for Inactive)
    1  A    between atoms: C_1  and  C_9
    2  A    between atoms: C_3  and  C_25
                            x       y       z     vdW  Elec       q    Type
                         _______ _______ _______ _____ _____    ______ ____

>  <TORSDO>
F 2

$$$$
=
 OpenBabel10272415333D

 34 39  0  0  1  0  0  0  0  0999 V2000
  190.3060  175.3400  136.0010 C   0  0  2  0  0  0  0  0  0  0  0  0
  186.4710  172.7410  137.1680 O   0  0  0  0  0  1  0  0  0  0  0  0
  188.3480  175.0220  137.4840 C   0  0  0  0  0  2  0  0  0  0  0  0
  189.6540  177.1770  134.3650 C   0  0  0  0  0  2  0  0  0  0  0  0
  189.3280  177.9730  135.4680 O   0  0  0  0  0  0  0  0  0  0  0  0
  189.3320  176.0810  136.9730 C   0  0  2  0  0  3  0  0  0  0  0  0
  190.7280  176.1790  134.7730 C   0  0  0  0  0  2  0  0  0  0  0  0
  188.5090  177.1670  136.2680 C   0  0  0  0  0  2  0  0  0  0  0  0
  187.5350  172.8940  136.2840 C   0  0  0  0  0  0  0  0  0  0  0  0
  187.7460  171.9910  135.2140 C   0  0  0  0  0  0  0  0  0  0  0  0
  188.8380  172.2010  134.3470 C   0  0  0  0  0  3  0  0  0  0  0  0
  188.4180  173.9660  136.4470 C   0  0  0  0  0  0  0  0  0  0  0  0
  189.7110  173.2790  134.5340 C   0  0  0  0  0  3  0  0  0  0  0  0
  189.4830  174.1540  135.6000 C   0  0  0  0  0  0  0  0  0  0  0  0
  192.4720  173.9380  135.9760 C   0  0  1  0  0  3  0  0  0  0  0  0
  193.5510  176.6680  136.8860 C   0  0  2  0  0  3  0  0  0  0  0  0
  196.2210  173.3550  134.3460 C   0  0  0  0  0  1  0  0  0  0  0  0
  192.3090  176.0580  137.5090 C   0  0  2  0  0  0  0  0  0  0  0  0
  191.5710  174.8930  136.7910 C   0  0  1  0  0  3  0  0  0  0  0  0
  196.5070  175.5740  135.6380 C   0  0  2  0  0  3  0  0  0  0  0  0
  194.9000  173.8640  136.3420 O   0  0  0  0  0  0  0  0  0  0  0  0
  197.7960  175.8150  134.8590 C   0  0  0  0  0  1  0  0  0  0  0  0
  193.8660  174.4450  135.5660 C   0  0  2  0  0  3  0  0  0  0  0  0
  191.5410  176.9650  138.2450 O   0  0  0  0  0  1  0  0  0  0  0  0
  193.9060  176.5540  139.2480 O   0  0  0  0  0  1  0  0  0  0  0  0
  196.1400  174.0780  135.6940 C   0  0  1  0  0  3  0  0  0  0  0  0
  195.3400  176.4010  135.1510 C   0  0  0  0  0  0  0  0  0  0  0  0
  193.9580  175.9830  135.5640 C   0  0  2  0  0  3  0  0  0  0  0  0
  195.5220  177.6450  134.6970 C   0  0  0  0  0  2  0  0  0  0  0  0
  193.6740  175.7640  138.1200 C   0  0  2  0  0  3  0  0  0  0  0  0
  192.4870  172.5430  136.5820 C   0  0  0  0  0  1  0  0  0  0  0  0
  186.8570  170.8320  134.9730 C   0  0  0  0  0  0  0  0  0  0  0  0
  187.2350  169.5480  135.3490 O   0  0  0  0  0  1  0  0  0  0  0  0
  185.7400  170.9970  134.4160 O   0  0  0  0  0  0  0  0  0  0  0  0
  1  7  1  6  0  0  0
  1 19  1  0  0  0  0
  1  6  1  0  0  0  0
  4  7  1  0  0  0  0
  4  5  1  0  0  0  0
  5  8  1  0  0  0  0
  6  8  1  6  0  0  0
  6  3  1  0  0  0  0
  9 12  1  0  0  0  0
  9  2  1  0  0  0  0
 10  9  2  0  0  0  0
 11 13  2  0  0  0  0
 11 10  1  0  0  0  0
 12  3  1  0  0  0  0
 13 14  1  0  0  0  0
 14  1  1  0  0  0  0
 14 12  2  0  0  0  0
 15 31  1  1  0  0  0
 15 19  1  0  0  0  0
 16 18  1  0  0  0  0
 16 30  1  0  0  0  0
 17 26  1  0  0  0  0
 18 30  1  0  0  0  0
 18 24  1  0  0  0  0
 19 18  1  0  0  0  0
 20 26  1  0  0  0  0
 22 20  1  0  0  0  0
 23 15  1  0  0  0  0
 23 21  1  0  0  0  0
 26 21  1  0  0  0  0
 27 28  1  0  0  0  0
 27 20  1  0  0  0  0
 28 23  1  0  0  0  0
 28 16  1  0  0  0  0
 29 27  2  0  0  0  0
 30 25  1  0  0  0  0
 32 10  1  0  0  0  0
 32 33  1  0  0  0  0
 34 32  2  0  0  0  0
M  END
>  <MODEL>
3

>  <REMARK>
 VINA RESULT:      -4.8      3.131      8.177
  Name = 
  2 active torsions:
  status: ('A' for Active; 'I' for Inactive)
    1  A    between atoms: C_1  and  C_9
    2  A    between atoms: C_3  and  C_25
                            x       y       z     vdW  Elec       q    Type
                         _______ _______ _______ _____ _____    ______ ____

>  <TORSDO>
F 2

$$$$
=
 OpenBabel10272415333D

 34 39  0  0  1  0  0  0  0  0999 V2000
  182.4030  177.2150  139.3580 C   0  0  2  0  0  0  0  0  0  0  0  0
  181.4670  180.1720  142.9920 O   0  0  0  0  0  1  0  0  0  0  0  0
  180.8450  178.8220  140.4210 C   0  0  0  0  0  2  0  0  0  0  0  0
  181.4630  174.9020  139.8490 C   0  0  0  0  0  2  0  0  0  0  0  0
  180.2480  175.3370  139.3110 O   0  0  0  0  0  0  0  0  0  0  0  0
  180.9060  177.6610  139.4210 C   0  0  2  0  0  3  0  0  0  0  0  0
  182.5990  175.6900  139.2120 C   0  0  0  0  0  2  0  0  0  0  0  0
  179.9830  176.5540  139.9490 C   0  0  0  0  0  2  0  0  0  0  0  0
  182.3600  179.2500  142.4570 C   0  0  0  0  0  0  0  0  0  0  0  0
  183.5690  178.9190  143.1170 C   0  0  0  0  0  0  0  0  0  0  0  0
  184.4320  177.9720  142.5290 C   0  0  0  0  0  3  0  0  0  0  0  0
  182.0630  178.6270  141.2420 C   0  0  0  0  0  0  0  0  0  0  0  0
  184.1140  177.3650  141.3090 C   0  0  0  0  0  3  0  0  0  0  0  0
  182.9170  177.7120  140.6760 C   0  0  0  0  0  0  0  0  0  0  0  0
  184.4860  178.5190  138.5730 C   0  0  1  0  0  3  0  0  0  0  0  0
  184.2700  176.3790  136.3770 C   0  0  2  0  0  3  0  0  0  0  0  0
  188.5400  178.4560  137.7930 C   0  0  0  0  0  1  0  0  0  0  0  0
  183.0590  177.1700  136.8350 C   0  0  2  0  0  0  0  0  0  0  0  0
  183.1030  177.9510  138.1780 C   0  0  1  0  0  3  0  0  0  0  0  0
  187.5870  176.9270  135.9420 C   0  0  2  0  0  3  0  0  0  0  0  0
  186.2780  178.7580  136.9110 O   0  0  0  0  0  0  0  0  0  0  0  0
  189.0020  176.4130  135.6930 C   0  0  0  0  0  1  0  0  0  0  0  0
  185.7280  177.9070  137.9000 C   0  0  2  0  0  3  0  0  0  0  0  0
  181.8380  176.6170  136.4390 O   0  0  0  0  0  1  0  0  0  0  0  0
  183.3110  177.4160  134.4480 O   0  0  0  0  0  1  0  0  0  0  0  0
  187.5890  178.3210  136.6010 C   0  0  1  0  0  3  0  0  0  0  0  0
  186.7180  175.9620  136.7150 C   0  0  0  0  0  0  0  0  0  0  0  0
  185.4650  176.4930  137.3480 C   0  0  2  0  0  3  0  0  0  0  0  0
  186.8360  174.6420  136.5420 C   0  0  0  0  0  2  0  0  0  0  0  0
  183.9050  177.6960  135.6810 C   0  0  2  0  0  3  0  0  0  0  0  0
  184.4790  180.0400  138.5660 C   0  0  0  0  0  1  0  0  0  0  0  0
  183.9570  179.5340  144.4060 C   0  0  0  0  0  0  0  0  0  0  0  0
  183.3410  179.1610  145.5940 O   0  0  0  0  0  1  0  0  0  0  0  0
  184.8580  180.4150  144.4410 O   0  0  0  0  0  0  0  0  0  0  0  0
  1  7  1  6  0  0  0
  1  6  1  0  0  0  0
  1 14  1  0  0  0  0
  3 12  1  0  0  0  0
  5  4  1  0  0  0  0
  5  8  1  0  0  0  0
  6  8  1  1  0  0  0
  6  3  1  0  0  0  0
  7  4  1  0  0  0  0
  9  2  1  0  0  0  0
  9 10  1  0  0  0  0
 10 32  1  0  0  0  0
 11 10  2  0  0  0  0
 12  9  2  0  0  0  0
 13 11  1  0  0  0  0
 14 12  1  0  0  0  0
 14 13  2  0  0  0  0
 15 31  1  6  0  0  0
 16 18  1  0  0  0  0
 16 28  1  0  0  0  0
 18 19  1  0  0  0  0
 19 15  1  0  0  0  0
 19  1  1  0  0  0  0
 20 26  1  0  0  0  0
 20 27  1  0  0  0  0
 21 23  1  0  0  0  0
 22 20  1  0  0  0  0
 23 15  1  0  0  0  0
 24 18  1  0  0  0  0
 25 30  1  0  0  0  0
 26 21  1  0  0  0  0
 26 17  1  0  0  0  0
 27 28  1  0  0  0  0
 28 23  1  0  0  0  0
 29 27  2  0  0  0  0
 30 16  1  0  0  0  0
 30 18  1  0  0  0  0
 32 34  2  0  0  0  0
 32 33  1  0  0  0  0
M  END
>  <MODEL>
4

>  <REMARK>
 VINA RESULT:      -4.8      3.838      8.435
  Name = 
  2 active torsions:
  status: ('A' for Active; 'I' for Inactive)
    1  A    between atoms: C_1  and  C_9
    2  A    between atoms: C_3  and  C_25
                            x       y       z     vdW  Elec       q    Type
                         _______ _______ _______ _____ _____    ______ ____

>  <TORSDO>
F 2

$$$$
=
 OpenBabel10272415333D

 34 39  0  0  1  0  0  0  0  0999 V2000
  184.0320  176.7090  136.9040 C   0  0  2  0  0  0  0  0  0  0  0  0
  180.1210  179.0310  138.3630 O   0  0  0  0  0  1  0  0  0  0  0  0
  182.0470  178.0690  136.3170 C   0  0  0  0  0  2  0  0  0  0  0  0
  183.4460  174.3110  136.2830 C   0  0  0  0  0  2  0  0  0  0  0  0
  183.1240  174.7760  135.0040 O   0  0  0  0  0  0  0  0  0  0  0  0
  183.0630  177.0790  135.7350 C   0  0  2  0  0  3  0  0  0  0  0  0
  184.4910  175.2330  136.8970 C   0  0  0  0  0  2  0  0  0  0  0  0
  182.2760  175.8680  135.2160 C   0  0  0  0  0  2  0  0  0  0  0  0
  181.2000  178.2390  138.7420 C   0  0  0  0  0  0  0  0  0  0  0  0
  181.4040  177.8590  140.0900 C   0  0  0  0  0  0  0  0  0  0  0  0
  182.5120  177.0500  140.4130 C   0  0  0  0  0  3  0  0  0  0  0  0
  182.1060  177.7990  137.7720 C   0  0  0  0  0  0  0  0  0  0  0  0
  183.4080  176.6250  139.4250 C   0  0  0  0  0  3  0  0  0  0  0  0
  183.1860  177.0170  138.1020 C   0  0  0  0  0  0  0  0  0  0  0  0
  185.9500  177.8150  138.2300 C   0  0  1  0  0  3  0  0  0  0  0  0
  187.5030  176.5400  135.9050 C   0  0  2  0  0  3  0  0  0  0  0  0
  189.4180  177.3040  140.4110 C   0  0  0  0  0  1  0  0  0  0  0  0
  186.2390  177.3440  135.6670 C   0  0  2  0  0  0  0  0  0  0  0  0
  185.2760  177.6450  136.8490 C   0  0  1  0  0  3  0  0  0  0  0  0
  190.1440  176.6190  138.0290 C   0  0  2  0  0  3  0  0  0  0  0  0
  188.3590  178.2500  138.4180 O   0  0  0  0  0  0  0  0  0  0  0  0
  191.3870  175.9740  138.6360 C   0  0  0  0  0  1  0  0  0  0  0  0
  187.3660  177.2410  138.4090 C   0  0  2  0  0  3  0  0  0  0  0  0
  185.6820  177.1610  134.3980 O   0  0  0  0  0  1  0  0  0  0  0  0
  188.0320  178.2760  134.3490 O   0  0  0  0  0  1  0  0  0  0  0  0
  189.5600  177.7140  138.9420 C   0  0  1  0  0  3  0  0  0  0  0  0
  189.0810  175.6240  137.6240 C   0  0  0  0  0  0  0  0  0  0  0  0
  187.6900  176.1380  137.3840 C   0  0  2  0  0  3  0  0  0  0  0  0
  189.4120  174.4250  137.1360 C   0  0  0  0  0  2  0  0  0  0  0  0
  187.5890  178.0510  135.6550 C   0  0  2  0  0  3  0  0  0  0  0  0
  185.8020  179.2390  138.7430 C   0  0  0  0  0  1  0  0  0  0  0  0
  180.4910  178.2840  141.1760 C   0  0  0  0  0  0  0  0  0  0  0  0
  180.1830  179.6250  141.3710 O   0  0  0  0  0  0  0  0  0  0  0  0
  179.9820  177.4260  141.9460 O   0  0  0  0  0  1  0  0  0  0  0  0
  1  7  1  6  0  0  0
  1 14  1  0  0  0  0
  2  9  1  0  0  0  0
  3 12  1  0  0  0  0
  4  7  1  0  0  0  0
  5  8  1  0  0  0  0
  5  4  1  0  0  0  0
  6  8  1  1  0  0  0
  6  3  1  0  0  0  0
  6  1  1  0  0  0  0
  9 10  1  0  0  0  0
 10 11  2  0  0  0  0
 10 32  1  0  0  0  0
 12 14  1  0  0  0  0
 12  9  2  0  0  0  0
 13 11  1  0  0  0  0
 14 13  2  0  0  0  0
 15 23  1  0  0  0  0
 15 31  1  6  0  0  0
 16 28  1  0  0  0  0
 18 16  1  0  0  0  0
 18 19  1  0  0  0  0
 19  1  1  0  0  0  0
 19 15  1  0  0  0  0
 20 22  1  0  0  0  0
 20 26  1  0  0  0  0
 21 26  1  0  0  0  0
 23 21  1  0  0  0  0
 24 18  1  0  0  0  0
 25 30  1  0  0  0  0
 26 17  1  0  0  0  0
 27 20  1  0  0  0  0
 28 27  1  0  0  0  0
 28 23  1  0  0  0  0
 29 27  2  0  0  0  0
 30 18  1  0  0  0  0
 30 16  1  0  0  0  0
 32 33  2  0  0  0  0
 32 34  1  0  0  0  0
M  END
>  <MODEL>
5

>  <REMARK>
 VINA RESULT:      -4.6      2.936      8.202
  Name = 
  2 active torsions:
  status: ('A' for Active; 'I' for Inactive)
    1  A    between atoms: C_1  and  C_9
    2  A    between atoms: C_3  and  C_25
                            x       y       z     vdW  Elec       q    Type
                         _______ _______ _______ _____ _____    ______ ____

>  <TORSDO>
F 2

$$$$
=
 OpenBabel10272415333D

 34 39  0  0  1  0  0  0  0  0999 V2000
  187.0650  177.6390  137.6590 C   0  0  2  0  0  0  0  0  0  0  0  0
  189.8240  175.5810  134.3460 O   0  0  0  0  0  1  0  0  0  0  0  0
  188.7470  177.8990  135.8590 C   0  0  0  0  0  2  0  0  0  0  0  0
  188.3430  177.8590  139.8480 C   0  0  0  0  0  2  0  0  0  0  0  0
  188.8470  179.0740  139.3710 O   0  0  0  0  0  0  0  0  0  0  0  0
  188.1730  178.5900  137.1010 C   0  0  2  0  0  3  0  0  0  0  0  0
  186.9900  177.5960  139.2010 C   0  0  0  0  0  2  0  0  0  0  0  0
  189.3300  178.7890  138.0890 C   0  0  0  0  0  2  0  0  0  0  0  0
  188.9080  175.3760  135.3720 C   0  0  0  0  0  0  0  0  0  0  0  0
  188.4770  174.0770  135.7340 C   0  0  0  0  0  0  0  0  0  0  0  0
  187.5520  173.9310  136.7880 C   0  0  0  0  0  3  0  0  0  0  0  0
  188.4000  176.4740  136.0720 C   0  0  0  0  0  0  0  0  0  0  0  0
  187.0540  175.0470  137.4700 C   0  0  0  0  0  3  0  0  0  0  0  0
  187.4920  176.3190  137.0920 C   0  0  0  0  0  0  0  0  0  0  0  0
  185.1090  177.0300  136.0900 C   0  0  1  0  0  3  0  0  0  0  0  0
  183.5980  177.6950  138.6820 C   0  0  2  0  0  3  0  0  0  0  0  0
  181.9610  174.4830  135.2820 C   0  0  0  0  0  1  0  0  0  0  0  0
  184.6910  178.6010  138.1470 C   0  0  2  0  0  0  0  0  0  0  0  0
  185.6860  178.0700  137.0780 C   0  0  1  0  0  3  0  0  0  0  0  0
  181.1620  175.7080  137.4120 C   0  0  2  0  0  3  0  0  0  0  0  0
  182.6840  176.7610  135.8060 O   0  0  0  0  0  0  0  0  0  0  0  0
  180.0960  174.6310  137.5830 C   0  0  0  0  0  1  0  0  0  0  0  0
  183.8240  176.2890  136.5020 C   0  0  2  0  0  3  0  0  0  0  0  0
  185.1640  179.5290  139.0790 O   0  0  0  0  0  1  0  0  0  0  0  0
  182.6680  179.8830  138.4370 O   0  0  0  0  0  1  0  0  0  0  0  0
  181.6340  175.8230  135.9480 C   0  0  1  0  0  3  0  0  0  0  0  0
  182.3370  175.5540  138.3500 C   0  0  0  0  0  0  0  0  0  0  0  0
  183.6000  176.2970  138.0260 C   0  0  2  0  0  3  0  0  0  0  0  0
  182.1660  175.0970  139.5940 C   0  0  0  0  0  2  0  0  0  0  0  0
  183.2470  178.8350  137.7180 C   0  0  2  0  0  3  0  0  0  0  0  0
  185.0640  177.5810  134.6730 C   0  0  0  0  0  1  0  0  0  0  0  0
  188.9670  172.8620  135.0430 C   0  0  0  0  0  0  0  0  0  0  0  0
  190.2950  172.4670  135.1420 O   0  0  0  0  0  1  0  0  0  0  0  0
  188.1780  172.1690  134.3470 O   0  0  0  0  0  0  0  0  0  0  0  0
  1  7  1  1  0  0  0
  2  9  1  0  0  0  0
  3 12  1  0  0  0  0
  5  4  1  0  0  0  0
  6  3  1  6  0  0  0
  6  1  1  0  0  0  0
  6  8  1  0  0  0  0
  7  4  1  0  0  0  0
  8  5  1  0  0  0  0
  9 10  2  0  0  0  0
  9 12  1  0  0  0  0
 10 11  1  0  0  0  0
 11 13  2  0  0  0  0
 12 14  2  0  0  0  0
 14 13  1  0  0  0  0
 14  1  1  0  0  0  0
 15 31  1  6  0  0  0
 15 23  1  0  0  0  0
 15 19  1  0  0  0  0
 17 26  1  0  0  0  0
 18 16  1  0  0  0  0
 18 24  1  0  0  0  0
 19  1  1  0  0  0  0
 19 18  1  0  0  0  0
 20 22  1  0  0  0  0
 20 27  1  0  0  0  0
 21 26  1  0  0  0  0
 21 23  1  0  0  0  0
 23 28  1  0  0  0  0
 26 20  1  0  0  0  0
 27 29  2  0  0  0  0
 28 27  1  0  0  0  0
 28 16  1  0  0  0  0
 30 18  1  0  0  0  0
 30 25  1  0  0  0  0
 30 16  1  0  0  0  0
 32 33  1  0  0  0  0
 32 10  1  0  0  0  0
 34 32  2  0  0  0  0
M  END
>  <MODEL>
6

>  <REMARK>
 VINA RESULT:      -4.5      2.182      2.954
  Name = 
  2 active torsions:
  status: ('A' for Active; 'I' for Inactive)
    1  A    between atoms: C_1  and  C_9
    2  A    between atoms: C_3  and  C_25
                            x       y       z     vdW  Elec       q    Type
                         _______ _______ _______ _____ _____    ______ ____

>  <TORSDO>
F 2

$$$$
=
 OpenBabel10272415333D

 34 39  0  0  1  0  0  0  0  0999 V2000
  190.0750  176.5240  137.7920 C   0  0  2  0  0  0  0  0  0  0  0  0
  193.8400  174.2600  135.9150 O   0  0  0  0  0  1  0  0  0  0  0  0
  192.4580  176.5980  137.1160 C   0  0  0  0  0  2  0  0  0  0  0  0
  190.0740  176.2690  140.3240 C   0  0  0  0  0  2  0  0  0  0  0  0
  190.9050  177.3930  140.3850 O   0  0  0  0  0  0  0  0  0  0  0  0
  191.4260  177.2740  138.0280 C   0  0  2  0  0  3  0  0  0  0  0  0
  189.2190  176.3530  139.0670 C   0  0  0  0  0  2  0  0  0  0  0  0
  191.9320  177.1360  139.4700 C   0  0  0  0  0  2  0  0  0  0  0  0
  192.5110  174.1540  136.3110 C   0  0  0  0  0  0  0  0  0  0  0  0
  191.7900  172.9440  136.1700 C   0  0  0  0  0  0  0  0  0  0  0  0
  190.4460  172.8950  136.5960 C   0  0  0  0  0  3  0  0  0  0  0  0
  191.8670  175.2630  136.8670 C   0  0  0  0  0  0  0  0  0  0  0  0
  189.8210  174.0200  137.1450 C   0  0  0  0  0  3  0  0  0  0  0  0
  190.5540  175.2040  137.2690 C   0  0  0  0  0  0  0  0  0  0  0  0
  188.4900  176.3260  135.7650 C   0  0  1  0  0  3  0  0  0  0  0  0
  186.9440  178.3140  137.5270 C   0  0  2  0  0  3  0  0  0  0  0  0
  184.7840  175.1890  134.3460 C   0  0  0  0  0  1  0  0  0  0  0  0
  188.4290  178.4770  137.2630 C   0  0  2  0  0  0  0  0  0  0  0  0
  189.2560  177.2840  136.7070 C   0  0  1  0  0  3  0  0  0  0  0  0
  184.2170  177.2220  135.8360 C   0  0  2  0  0  3  0  0  0  0  0  0
  186.3810  177.0060  134.7070 O   0  0  0  0  0  0  0  0  0  0  0  0
  182.7540  176.7890  135.8010 C   0  0  0  0  0  1  0  0  0  0  0  0
  186.9530  176.3450  135.8220 C   0  0  2  0  0  3  0  0  0  0  0  0
  189.0660  179.3640  138.1360 O   0  0  0  0  0  1  0  0  0  0  0  0
  187.2820  180.4990  136.6190 O   0  0  0  0  0  1  0  0  0  0  0  0
  185.0070  176.6770  134.6290 C   0  0  1  0  0  3  0  0  0  0  0  0
  184.9170  176.8940  137.1340 C   0  0  0  0  0  0  0  0  0  0  0  0
  186.4180  176.9120  137.1510 C   0  0  2  0  0  3  0  0  0  0  0  0
  184.2640  176.9530  138.2990 C   0  0  0  0  0  2  0  0  0  0  0  0
  187.4250  179.1410  136.3280 C   0  0  2  0  0  3  0  0  0  0  0  0
  189.0470  176.3820  134.3510 C   0  0  0  0  0  1  0  0  0  0  0  0
  192.3990  171.7250  135.5910 C   0  0  0  0  0  0  0  0  0  0  0  0
  193.4490  171.0760  136.2290 O   0  0  0  0  0  1  0  0  0  0  0  0
  191.9700  171.2600  134.5020 O   0  0  0  0  0  0  0  0  0  0  0  0
  1  6  1  0  0  0  0
  1  7  1  1  0  0  0
  2  9  1  0  0  0  0
  4  5  1  0  0  0  0
  6  3  1  6  0  0  0
  6  8  1  0  0  0  0
  7  4  1  0  0  0  0
  8  5  1  0  0  0  0
  9 12  1  0  0  0  0
 10  9  2  0  0  0  0
 10 11  1  0  0  0  0
 11 13  2  0  0  0  0
 12  3  1  0  0  0  0
 12 14  2  0  0  0  0
 13 14  1  0  0  0  0
 14  1  1  0  0  0  0
 15 31  1  6  0  0  0
 15 23  1  0  0  0  0
 15 19  1  0  0  0  0
 17 26  1  0  0  0  0
 18 16  1  0  0  0  0
 18 24  1  0  0  0  0
 19 18  1  0  0  0  0
 19  1  1  0  0  0  0
 20 27  1  0  0  0  0
 21 23  1  0  0  0  0
 22 20  1  0  0  0  0
 23 28  1  0  0  0  0
 26 21  1  0  0  0  0
 26 20  1  0  0  0  0
 27 28  1  0  0  0  0
 27 29  2  0  0  0  0
 28 16  1  0  0  0  0
 30 25  1  0  0  0  0
 30 18  1  0  0  0  0
 30 16  1  0  0  0  0
 32 10  1  0  0  0  0
 32 33  1  0  0  0  0
 34 32  2  0  0  0  0
M  END
>  <MODEL>
7

>  <REMARK>
 VINA RESULT:      -4.5      2.066      3.070
  Name = 
  2 active torsions:
  status: ('A' for Active; 'I' for Inactive)
    1  A    between atoms: C_1  and  C_9
    2  A    between atoms: C_3  and  C_25
                            x       y       z     vdW  Elec       q    Type
                         _______ _______ _______ _____ _____    ______ ____

>  <TORSDO>
F 2

$$$$
=
 OpenBabel10272415333D

 34 39  0  0  1  0  0  0  0  0999 V2000
  182.7440  175.3440  136.1580 C   0  0  2  0  0  0  0  0  0  0  0  0
  180.2150  171.3620  136.9160 O   0  0  0  0  0  1  0  0  0  0  0  0
  180.8970  174.2180  137.3660 C   0  0  0  0  0  2  0  0  0  0  0  0
  181.6400  176.7490  134.3460 C   0  0  0  0  0  2  0  0  0  0  0  0
  180.8490  177.3250  135.3460 O   0  0  0  0  0  0  0  0  0  0  0  0
  181.4140  175.5970  136.9400 C   0  0  2  0  0  3  0  0  0  0  0  0
  182.9580  176.2930  134.9580 C   0  0  0  0  0  2  0  0  0  0  0  0
  180.3300  176.2420  136.0660 C   0  0  0  0  0  2  0  0  0  0  0  0
  181.2390  171.9560  136.1850 C   0  0  0  0  0  0  0  0  0  0  0  0
  181.9670  171.2360  135.2080 C   0  0  0  0  0  0  0  0  0  0  0  0
  182.9890  171.8930  134.4930 C   0  0  0  0  0  3  0  0  0  0  0  0
  181.5580  173.2990  136.4100 C   0  0  0  0  0  0  0  0  0  0  0  0
  183.2930  173.2370  134.7400 C   0  0  0  0  0  3  0  0  0  0  0  0
  182.5620  173.9250  135.7130 C   0  0  0  0  0  0  0  0  0  0  0  0
  185.0490  174.4220  136.8600 C   0  0  1  0  0  3  0  0  0  0  0  0
  185.6660  177.4230  136.6190 C   0  0  2  0  0  3  0  0  0  0  0  0
  189.0160  173.8500  135.8680 C   0  0  0  0  0  1  0  0  0  0  0  0
  184.4380  176.9230  137.3570 C   0  0  2  0  0  0  0  0  0  0  0  0
  183.9440  175.4650  137.1430 C   0  0  1  0  0  3  0  0  0  0  0  0
  188.8660  176.4160  136.1340 C   0  0  2  0  0  3  0  0  0  0  0  0
  187.4020  174.8970  137.3800 O   0  0  0  0  0  0  0  0  0  0  0  0
  190.2050  176.5290  135.4100 C   0  0  0  0  0  1  0  0  0  0  0  0
  186.4120  174.9410  136.3680 C   0  0  2  0  0  3  0  0  0  0  0  0
  183.4800  177.9120  137.5970 O   0  0  0  0  0  1  0  0  0  0  0  0
  185.7320  178.3280  138.8310 O   0  0  0  0  0  1  0  0  0  0  0  0
  188.6790  175.0310  136.7840 C   0  0  1  0  0  3  0  0  0  0  0  0
  187.6780  176.7760  135.2720 C   0  0  0  0  0  0  0  0  0  0  0  0
  186.3160  176.3410  135.7310 C   0  0  2  0  0  3  0  0  0  0  0  0
  187.7640  177.7440  134.3540 C   0  0  0  0  0  2  0  0  0  0  0  0
  185.7410  177.1250  138.1220 C   0  0  2  0  0  3  0  0  0  0  0  0
  185.1570  173.4120  137.9910 C   0  0  0  0  0  1  0  0  0  0  0  0
  181.6910  169.8120  134.9090 C   0  0  0  0  0  0  0  0  0  0  0  0
  182.6080  168.8200  135.2370 O   0  0  0  0  0  1  0  0  0  0  0  0
  180.6140  169.4810  134.3460 O   0  0  0  0  0  0  0  0  0  0  0  0
  1  7  1  6  0  0  0
  1  6  1  0  0  0  0
  1 19  1  0  0  0  0
  4  7  1  0  0  0  0
  4  5  1  0  0  0  0
  5  8  1  0  0  0  0
  6  8  1  6  0  0  0
  6  3  1  0  0  0  0
  9 12  1  0  0  0  0
  9  2  1  0  0  0  0
 10  9  2  0  0  0  0
 11 13  2  0  0  0  0
 11 10  1  0  0  0  0
 12  3  1  0  0  0  0
 13 14  1  0  0  0  0
 14  1  1  0  0  0  0
 14 12  2  0  0  0  0
 15 19  1  0  0  0  0
 15 31  1  1  0  0  0
 16 18  1  0  0  0  0
 16 30  1  0  0  0  0
 17 26  1  0  0  0  0
 18 24  1  0  0  0  0
 18 30  1  0  0  0  0
 19 18  1  0  0  0  0
 20 26  1  0  0  0  0
 22 20  1  0  0  0  0
 23 15  1  0  0  0  0
 23 21  1  0  0  0  0
 26 21  1  0  0  0  0
 27 28  1  0  0  0  0
 27 20  1  0  0  0  0
 28 23  1  0  0  0  0
 28 16  1  0  0  0  0
 29 27  2  0  0  0  0
 30 25  1  0  0  0  0
 32 10  1  0  0  0  0
 32 33  1  0  0  0  0
 34 32  2  0  0  0  0
M  END
>  <MODEL>
8

>  <REMARK>
 VINA RESULT:      -4.3      2.722      7.573
  Name = 
  2 active torsions:
  status: ('A' for Active; 'I' for Inactive)
    1  A    between atoms: C_1  and  C_9
    2  A    between atoms: C_3  and  C_25
                            x       y       z     vdW  Elec       q    Type
                         _______ _______ _______ _____ _____    ______ ____

>  <TORSDO>
F 2

$$$$
=
 OpenBabel10272415333D

 34 39  0  0  1  0  0  0  0  0999 V2000
  190.1540  175.8830  136.8590 C   0  0  2  0  0  0  0  0  0  0  0  0
  186.1280  176.4350  134.3460 O   0  0  0  0  0  1  0  0  0  0  0  0
  189.0480  176.7210  134.8060 C   0  0  0  0  0  2  0  0  0  0  0  0
  191.3080  173.7140  136.1950 C   0  0  0  0  0  2  0  0  0  0  0  0
  191.9330  174.4230  135.1640 O   0  0  0  0  0  0  0  0  0  0  0  0
  190.4060  176.2860  135.3700 C   0  0  2  0  0  3  0  0  0  0  0  0
  190.9900  174.6740  137.3340 C   0  0  0  0  0  2  0  0  0  0  0  0
  190.8990  175.1090  134.5170 C   0  0  0  0  0  2  0  0  0  0  0  0
  186.7040  175.9130  135.5000 C   0  0  0  0  0  0  0  0  0  0  0  0
  185.9340  175.2270  136.4690 C   0  0  0  0  0  0  0  0  0  0  0  0
  186.5750  174.7150  137.6160 C   0  0  0  0  0  3  0  0  0  0  0  0
  188.0780  176.0610  135.7110 C   0  0  0  0  0  0  0  0  0  0  0  0
  187.9520  174.8800  137.8080 C   0  0  0  0  0  3  0  0  0  0  0  0
  188.6890  175.5640  136.8370 C   0  0  0  0  0  0  0  0  0  0  0  0
  189.1430  177.7670  138.3040 C   0  0  1  0  0  3  0  0  0  0  0  0
  191.1640  176.5390  140.2680 C   0  0  2  0  0  3  0  0  0  0  0  0
  186.9770  178.7910  141.6660 C   0  0  0  0  0  1  0  0  0  0  0  0
  191.5460  176.8610  138.8350 C   0  0  2  0  0  0  0  0  0  0  0  0
  190.4390  177.1110  137.7730 C   0  0  1  0  0  3  0  0  0  0  0  0
  189.1650  177.8540  142.6700 C   0  0  2  0  0  3  0  0  0  0  0  0
  189.1060  178.9270  140.4680 O   0  0  0  0  0  0  0  0  0  0  0  0
  188.4570  177.7540  144.0180 C   0  0  0  0  0  1  0  0  0  0  0  0
  188.8720  177.6910  139.8170 C   0  0  2  0  0  3  0  0  0  0  0  0
  192.7310  176.2520  138.4150 O   0  0  0  0  0  1  0  0  0  0  0  0
  193.0740  177.9760  140.3330 O   0  0  0  0  0  1  0  0  0  0  0  0
  188.5020  178.8970  141.7480 C   0  0  1  0  0  3  0  0  0  0  0  0
  189.3190  176.5270  141.9650 C   0  0  0  0  0  0  0  0  0  0  0  0
  189.6370  176.5400  140.4970 C   0  0  2  0  0  3  0  0  0  0  0  0
  189.5390  175.4040  142.6560 C   0  0  0  0  0  2  0  0  0  0  0  0
  191.7410  177.9170  139.9170 C   0  0  2  0  0  3  0  0  0  0  0  0
  188.9520  179.1590  137.7210 C   0  0  0  0  0  1  0  0  0  0  0  0
  184.4740  175.0280  136.3200 C   0  0  0  0  0  0  0  0  0  0  0  0
  183.5810  176.0640  136.5630 O   0  0  0  0  0  1  0  0  0  0  0  0
  184.0210  173.9050  135.9720 O   0  0  0  0  0  0  0  0  0  0  0  0
  1  7  1  1  0  0  0
  1 19  1  0  0  0  0
  2  9  1  0  0  0  0
  3  6  1  0  0  0  0
  3 12  1  0  0  0  0
  4  7  1  0  0  0  0
  5  4  1  0  0  0  0
  6  8  1  6  0  0  0
  6  1  1  0  0  0  0
  8  5  1  0  0  0  0
  9 12  2  0  0  0  0
  9 10  1  0  0  0  0
 10 11  2  0  0  0  0
 11 13  1  0  0  0  0
 12 14  1  0  0  0  0
 14  1  1  0  0  0  0
 14 13  2  0  0  0  0
 15 31  1  1  0  0  0
 15 23  1  0  0  0  0
 16 28  1  0  0  0  0
 17 26  1  0  0  0  0
 18 30  1  0  0  0  0
 18 16  1  0  0  0  0
 19 15  1  0  0  0  0
 19 18  1  0  0  0  0
 20 22  1  0  0  0  0
 21 26  1  0  0  0  0
 23 21  1  0  0  0  0
 23 28  1  0  0  0  0
 24 18  1  0  0  0  0
 26 20  1  0  0  0  0
 27 29  2  0  0  0  0
 27 20  1  0  0  0  0
 28 27  1  0  0  0  0
 30 16  1  0  0  0  0
 30 25  1  0  0  0  0
 32 10  1  0  0  0  0
 32 33  1  0  0  0  0
 34 32  2  0  0  0  0
M  END
>  <MODEL>
9

>  <REMARK>
 VINA RESULT:      -4.2      2.513      6.869
  Name = 
  2 active torsions:
  status: ('A' for Active; 'I' for Inactive)
    1  A    between atoms: C_1  and  C_9
    2  A    between atoms: C_3  and  C_25
                            x       y       z     vdW  Elec       q    Type
                         _______ _______ _______ _____ _____    ______ ____

>  <TORSDO>
F 2

$$$$
