=
 OpenBabel10272415273D

 34 39  0  0  1  0  0  0  0  0999 V2000
  189.1290  176.3860  143.1140 C   0  0  1  0  0  3  0  0  0  0  0  0
  188.3970  178.5000  146.1950 C   0  0  0  0  0  2  0  0  0  0  0  0
  190.4630  178.2030  144.9610 C   0  0  0  0  0  2  0  0  0  0  0  0
  189.5810  177.1310  140.8110 C   0  0  2  0  0  3  0  0  0  0  0  0
  188.5330  176.4800  141.7070 C   0  0  0  0  0  2  0  0  0  0  0  0
  191.2850  175.4680  142.6430 O   0  0  0  0  0  0  0  0  0  0  0  0
  191.9110  175.0350  143.8320 C   0  0  0  0  0  2  0  0  0  0  0  0
  190.6890  177.6160  141.7220 C   0  0  2  0  0  3  0  0  0  0  0  0
  192.0330  177.5940  141.0080 C   0  0  0  0  0  1  0  0  0  0  0  0
  191.3420  177.3030  144.1180 C   0  0  2  0  0  3  0  0  0  0  0  0
  190.6340  176.6880  142.9280 C   0  0  1  0  0  0  0  0  0  0  0  0
  191.8490  176.1240  144.8810 C   0  0  0  0  0  2  0  0  0  0  0  0
  187.3030  177.7780  146.9700 C   0  0  0  0  0  2  0  0  0  0  0  0
  185.9610  177.7590  146.2280 C   0  0  2  0  0  3  0  0  0  0  0  0
  186.0610  177.5610  144.7140 C   0  0  0  0  0  2  0  0  0  0  0  0
  189.1360  177.5360  145.2660 C   0  0  2  0  0  3  0  0  0  0  0  0
  187.1590  176.5820  144.3310 C   0  0  0  0  0  2  0  0  0  0  0  0
  188.3950  177.3010  144.0110 N   0  0  2  0  0  0  0  0  0  0  0  0
  187.0510  177.1370  138.7930 C   0  0  0  0  0  3  0  0  0  0  0  0
  189.9110  178.5510  138.7170 C   0  0  0  0  0  3  0  0  0  0  0  0
  188.6700  174.9360  135.6290 C   0  0  0  0  0  0  0  0  0  0  0  0
  187.4360  174.5620  136.2480 N   0  0  0  0  0  0  0  0  0  0  0  0
  186.7050  175.5170  137.0750 C   0  0  0  0  0  2  0  0  0  0  0  0
  189.1600  174.2450  134.6950 O   0  0  0  0  0  0  0  0  0  0  0  0
  187.6030  176.5270  137.7390 C   0  0  0  0  0  0  0  0  0  0  0  0
  186.7680  173.3290  135.8690 C   0  0  0  0  0  1  0  0  0  0  0  0
  188.9360  176.8520  137.1270 C   0  0  0  0  0  0  0  0  0  0  0  0
  189.8480  177.9340  137.5400 C   0  0  0  0  0  3  0  0  0  0  0  0
  189.3920  176.1090  136.1170 C   0  0  0  0  0  2  0  0  0  0  0  0
  189.0560  178.2480  139.8960 C   0  0  0  0  0  0  0  0  0  0  0  0
  187.5700  178.2990  139.5750 C   0  0  0  0  0  2  0  0  0  0  0  0
  185.1700  178.9860  146.5370 C   0  0  0  0  0  0  0  0  0  0  0  0
  185.6270  179.8370  147.3430 O   0  0  0  0  0  1  0  0  0  0  0  0
  183.9360  179.1980  145.9350 O   0  0  0  0  0  0  0  0  0  0  0  0
  1  5  1  6  0  0  0
  1 18  1  0  0  0  0
  2 13  1  0  0  0  0
  4 30  1  1  0  0  0
  4  5  1  0  0  0  0
  4  8  1  0  0  0  0
  6  7  1  0  0  0  0
  7 12  1  0  0  0  0
  8  9  1  6  0  0  0
  8 11  1  0  0  0  0
 10 12  1  1  0  0  0
 10  3  1  0  0  0  0
 11  6  1  6  0  0  0
 11  1  1  0  0  0  0
 11 10  1  0  0  0  0
 14 32  1  6  0  0  0
 14 13  1  0  0  0  0
 15 14  1  0  0  0  0
 16  3  1  6  0  0  0
 16  2  1  0  0  0  0
 17 15  1  0  0  0  0
 18 17  1  1  0  0  0
 18 16  1  0  0  0  0
 19 31  1  0  0  0  0
 20 30  2  3  0  0  0
 21 29  1  0  0  0  0
 21 22  1  0  0  0  0
 22 23  1  0  0  0  0
 23 25  1  0  0  0  0
 24 21  2  0  0  0  0
 25 19  2  0  0  0  0
 26 22  1  0  0  0  0
 27 28  2  0  0  0  0
 27 25  1  0  0  0  0
 28 20  1  0  0  0  0
 29 27  1  0  0  0  0
 31 30  1  0  0  0  0
 32 33  1  0  0  0  0
 34 32  2  0  0  0  0
M  END
>  <MODEL>
1

>  <REMARK>
 VINA RESULT:      -7.4      0.000      0.000
  Name = 
  2 active torsions:
  status: ('A' for Active; 'I' for Inactive)
    1  A    between atoms: C_3  and  C_25
    2  A    between atoms: C_8  and  C_30
                            x       y       z     vdW  Elec       q    Type
                         _______ _______ _______ _____ _____    ______ ____

>  <TORSDO>
F 2

$$$$
=
 OpenBabel10272415273D

 34 39  0  0  1  0  0  0  0  0999 V2000
  189.3630  176.3230  142.9630 C   0  0  1  0  0  3  0  0  0  0  0  0
  187.8530  178.6510  145.5700 C   0  0  0  0  0  2  0  0  0  0  0  0
  190.1620  178.3540  144.8940 C   0  0  0  0  0  2  0  0  0  0  0  0
  190.3330  176.8920  140.7720 C   0  0  2  0  0  3  0  0  0  0  0  0
  189.1190  176.2670  141.4520 C   0  0  0  0  0  2  0  0  0  0  0  0
  191.5940  175.4780  143.1040 O   0  0  0  0  0  0  0  0  0  0  0  0
  191.9280  175.1790  144.4430 C   0  0  0  0  0  2  0  0  0  0  0  0
  191.1750  177.5070  141.8690 C   0  0  2  0  0  3  0  0  0  0  0  0
  192.6520  177.4930  141.4990 C   0  0  0  0  0  1  0  0  0  0  0  0
  191.2430  177.4320  144.3700 C   0  0  2  0  0  3  0  0  0  0  0  0
  190.8590  176.6840  143.1100 C   0  0  1  0  0  0  0  0  0  0  0  0
  191.5850  176.3480  145.3390 C   0  0  0  0  0  2  0  0  0  0  0  0
  186.6250  177.9440  146.1290 C   0  0  0  0  0  2  0  0  0  0  0  0
  185.5020  177.7940  145.0960 C   0  0  2  0  0  3  0  0  0  0  0  0
  185.9680  177.4750  143.6740 C   0  0  0  0  0  2  0  0  0  0  0  0
  188.8200  177.6500  144.9370 C   0  0  2  0  0  3  0  0  0  0  0  0
  187.1540  176.5230  143.6550 C   0  0  0  0  0  2  0  0  0  0  0  0
  188.4090  177.2730  143.5710 N   0  0  2  0  0  0  0  0  0  0  0  0
  187.8100  177.0070  138.7480 C   0  0  0  0  0  3  0  0  0  0  0  0
  190.8850  177.8120  138.4570 C   0  0  0  0  0  3  0  0  0  0  0  0
  188.9190  173.9910  136.0730 C   0  0  0  0  0  0  0  0  0  0  0  0
  187.6490  173.9800  136.7310 N   0  0  0  0  0  0  0  0  0  0  0  0
  187.1290  175.1930  137.3550 C   0  0  0  0  0  2  0  0  0  0  0  0
  189.2500  173.0590  135.2910 O   0  0  0  0  0  0  0  0  0  0  0  0
  188.2150  176.1190  137.8350 C   0  0  0  0  0  0  0  0  0  0  0  0
  186.7510  172.8480  136.5770 C   0  0  0  0  0  1  0  0  0  0  0  0
  189.5730  176.0650  137.1940 C   0  0  0  0  0  0  0  0  0  0  0  0
  190.6820  177.0110  137.4130 C   0  0  0  0  0  3  0  0  0  0  0  0
  189.8590  175.0750  136.3460 C   0  0  0  0  0  2  0  0  0  0  0  0
  190.0110  177.9000  139.6580 C   0  0  0  0  0  0  0  0  0  0  0  0
  188.5570  178.1730  139.3100 C   0  0  0  0  0  2  0  0  0  0  0  0
  184.6250  179.0020  145.0920 C   0  0  0  0  0  0  0  0  0  0  0  0
  183.7390  179.1320  145.9760 O   0  0  0  0  0  1  0  0  0  0  0  0
  184.7850  179.9860  144.1250 O   0  0  0  0  0  0  0  0  0  0  0  0
  1  5  1  6  0  0  0
  1 11  1  0  0  0  0
  1 18  1  0  0  0  0
  2 13  1  0  0  0  0
  4 30  1  6  0  0  0
  4  5  1  0  0  0  0
  4  8  1  0  0  0  0
  6  7  1  0  0  0  0
  7 12  1  0  0  0  0
  8  9  1  6  0  0  0
  8 11  1  0  0  0  0
 10  3  1  1  0  0  0
 10 12  1  0  0  0  0
 11  6  1  6  0  0  0
 11 10  1  0  0  0  0
 14 32  1  6  0  0  0
 14 13  1  0  0  0  0
 15 14  1  0  0  0  0
 16  3  1  6  0  0  0
 16  2  1  0  0  0  0
 17 15  1  0  0  0  0
 18 17  1  1  0  0  0
 18 16  1  0  0  0  0
 19 31  1  0  0  0  0
 20 30  2  3  0  0  0
 21 29  1  0  0  0  0
 21 22  1  0  0  0  0
 22 23  1  0  0  0  0
 23 25  1  0  0  0  0
 24 21  2  0  0  0  0
 25 19  2  0  0  0  0
 26 22  1  0  0  0  0
 27 28  2  0  0  0  0
 27 25  1  0  0  0  0
 28 20  1  0  0  0  0
 29 27  1  0  0  0  0
 31 30  1  0  0  0  0
 32 33  1  0  0  0  0
 34 32  2  0  0  0  0
M  END
>  <MODEL>
2

>  <REMARK>
 VINA RESULT:      -7.3      0.909      1.017
  Name = 
  2 active torsions:
  status: ('A' for Active; 'I' for Inactive)
    1  A    between atoms: C_3  and  C_25
    2  A    between atoms: C_8  and  C_30
                            x       y       z     vdW  Elec       q    Type
                         _______ _______ _______ _____ _____    ______ ____

>  <TORSDO>
F 2

$$$$
=
 OpenBabel10272415273D

 34 39  0  0  1  0  0  0  0  0999 V2000
  189.5110  174.5130  137.1970 C   0  0  1  0  0  3  0  0  0  0  0  0
  192.4920  174.4710  134.8290 C   0  0  0  0  0  2  0  0  0  0  0  0
  190.1260  174.2150  134.3640 C   0  0  0  0  0  2  0  0  0  0  0  0
  187.7730  176.2390  137.4490 C   0  0  2  0  0  3  0  0  0  0  0  0
  189.0090  175.6370  138.1080 C   0  0  0  0  0  2  0  0  0  0  0  0
  187.4810  173.3290  136.7610 O   0  0  0  0  0  0  0  0  0  0  0  0
  187.7540  172.0820  136.1590 C   0  0  0  0  0  2  0  0  0  0  0  0
  187.6790  175.6310  136.0660 C   0  0  2  0  0  3  0  0  0  0  0  0
  186.2300  175.5340  135.6080 C   0  0  0  0  0  1  0  0  0  0  0  0
  188.7650  173.7440  134.8310 C   0  0  2  0  0  3  0  0  0  0  0  0
  188.3610  174.2750  136.1910 C   0  0  1  0  0  0  0  0  0  0  0  0
  188.7010  172.2600  134.9930 C   0  0  0  0  0  2  0  0  0  0  0  0
  193.6680  173.9070  135.6160 C   0  0  0  0  0  2  0  0  0  0  0  0
  194.1270  174.8360  136.7470 C   0  0  2  0  0  3  0  0  0  0  0  0
  193.0010  175.5540  137.4930 C   0  0  0  0  0  2  0  0  0  0  0  0
  191.1630  174.0570  135.4600 C   0  0  2  0  0  3  0  0  0  0  0  0
  191.7780  174.6710  137.6810 C   0  0  0  0  0  2  0  0  0  0  0  0
  190.8070  174.9100  136.6110 N   0  0  2  0  0  0  0  0  0  0  0  0
  189.0320  178.3970  139.5060 C   0  0  0  0  0  3  0  0  0  0  0  0
  186.4080  178.3820  137.6890 C   0  0  0  0  0  3  0  0  0  0  0  0
  186.2250  178.1450  142.5940 C   0  0  0  0  0  0  0  0  0  0  0  0
  187.6230  177.9650  142.8350 N   0  0  0  0  0  0  0  0  0  0  0  0
  188.6060  178.4140  141.8550 C   0  0  0  0  0  2  0  0  0  0  0  0
  185.3880  178.0370  143.5310 O   0  0  0  0  0  0  0  0  0  0  0  0
  188.0790  178.3950  140.4440 C   0  0  1  0  0  3  0  0  0  0  0  0
  188.0970  177.5690  144.1510 C   0  0  0  0  0  1  0  0  0  0  0  0
  186.6000  178.4990  140.2030 C   0  0  0  0  0  0  0  0  0  0  0  0
  185.9360  178.6770  138.8980 C   0  0  0  0  0  3  0  0  0  0  0  0
  185.7590  178.4130  141.2350 C   0  0  0  0  0  2  0  0  0  0  0  0
  187.7370  177.7740  137.4070 C   0  0  0  0  0  0  0  0  0  0  0  0
  188.8850  178.5550  138.0280 C   0  0  0  0  0  3  0  0  0  0  0  0
  195.1260  175.8250  136.2440 C   0  0  0  0  0  0  0  0  0  0  0  0
  194.7390  176.9540  135.8460 O   0  0  0  0  0  0  0  0  0  0  0  0
  196.4790  175.5110  136.2200 O   0  0  0  0  0  1  0  0  0  0  0  0
  1  5  1  1  0  0  0
  2 16  1  0  0  0  0
  2 13  1  0  0  0  0
  4 30  1  6  0  0  0
  4  5  1  0  0  0  0
  7  6  1  0  0  0  0
  8  9  1  1  0  0  0
  8 11  1  0  0  0  0
  8  4  1  0  0  0  0
 10  3  1  1  0  0  0
 10 12  1  0  0  0  0
 10 11  1  0  0  0  0
 11  6  1  1  0  0  0
 11  1  1  0  0  0  0
 12  7  1  0  0  0  0
 13 14  1  0  0  0  0
 14 32  1  6  0  0  0
 14 15  1  0  0  0  0
 15 17  1  0  0  0  0
 16  3  1  6  0  0  0
 16 18  1  0  0  0  0
 18  1  1  0  0  0  0
 18 17  1  1  0  0  0
 20 28  1  0  0  0  0
 21 22  1  0  0  0  0
 21 24  2  0  0  0  0
 22 26  1  0  0  0  0
 23 22  1  0  0  0  0
 25 19  1  6  0  0  0
 25 23  1  0  0  0  0
 27 25  1  0  0  0  0
 27 29  1  0  0  0  0
 28 27  2  0  0  0  0
 29 21  1  0  0  0  0
 30 20  2  3  0  0  0
 30 31  1  0  0  0  0
 31 19  2  0  0  0  0
 33 32  2  0  0  0  0
 34 32  1  0  0  0  0
M  END
>  <MODEL>
3

>  <REMARK>
 VINA RESULT:      -6.8      3.019      9.029
  Name = 
  2 active torsions:
  status: ('A' for Active; 'I' for Inactive)
    1  A    between atoms: C_3  and  C_25
    2  A    between atoms: C_8  and  C_30
                            x       y       z     vdW  Elec       q    Type
                         _______ _______ _______ _____ _____    ______ ____

>  <TORSDO>
F 2

$$$$
=
 OpenBabel10272415273D

 34 39  0  0  1  0  0  0  0  0999 V2000
  183.5970  175.6930  137.8680 C   0  0  1  0  0  3  0  0  0  0  0  0
  185.7540  176.4980  134.8360 C   0  0  0  0  0  2  0  0  0  0  0  0
  183.3570  176.1720  135.0040 C   0  0  0  0  0  2  0  0  0  0  0  0
  181.9990  177.1490  139.0470 C   0  0  2  0  0  3  0  0  0  0  0  0
  183.3770  176.5050  139.1480 C   0  0  0  0  0  2  0  0  0  0  0  0
  181.5350  174.4930  137.7220 O   0  0  0  0  0  0  0  0  0  0  0  0
  181.6260  173.4650  136.7580 C   0  0  0  0  0  2  0  0  0  0  0  0
  181.5080  176.9040  137.6370 C   0  0  2  0  0  3  0  0  0  0  0  0
  179.9890  176.8060  137.5950 C   0  0  0  0  0  1  0  0  0  0  0  0
  182.1950  175.4860  135.6910 C   0  0  2  0  0  3  0  0  0  0  0  0
  182.2040  175.6220  137.2000 C   0  0  1  0  0  0  0  0  0  0  0  0
  182.1900  174.0100  135.4650 C   0  0  0  0  0  2  0  0  0  0  0  0
  187.1120  175.8530  135.0820 C   0  0  0  0  0  2  0  0  0  0  0  0
  187.8770  176.5010  136.2420 C   0  0  2  0  0  3  0  0  0  0  0  0
  187.0150  176.9110  137.4380 C   0  0  0  0  0  2  0  0  0  0  0  0
  184.6700  175.8280  135.6810 C   0  0  2  0  0  3  0  0  0  0  0  0
  185.9050  175.9110  137.7200 C   0  0  0  0  0  2  0  0  0  0  0  0
  184.6620  176.3310  137.0690 N   0  0  2  0  0  0  0  0  0  0  0  0
  184.4090  179.2490  139.5490 C   0  0  0  0  0  3  0  0  0  0  0  0
  181.5000  178.9160  140.8200 C   0  0  0  0  0  3  0  0  0  0  0  0
  185.6100  178.0410  143.3670 C   0  0  0  0  0  0  0  0  0  0  0  0
  186.5370  178.1270  142.2810 N   0  0  0  0  0  0  0  0  0  0  0  0
  186.2030  178.8870  141.0820 C   0  0  0  0  0  2  0  0  0  0  0  0
  185.9820  177.6470  144.5050 O   0  0  0  0  0  0  0  0  0  0  0  0
  184.7220  178.9340  140.8100 C   0  0  1  0  0  3  0  0  0  0  0  0
  187.9100  177.6780  142.4490 C   0  0  0  0  0  1  0  0  0  0  0  0
  183.7530  178.7590  141.9450 C   0  0  0  0  0  0  0  0  0  0  0  0
  182.2930  178.9560  141.8870 C   0  0  0  0  0  3  0  0  0  0  0  0
  184.2060  178.3730  143.1390 C   0  0  0  0  0  2  0  0  0  0  0  0
  181.9430  178.6360  139.4270 C   0  0  0  0  0  0  0  0  0  0  0  0
  183.0660  179.5550  138.9710 C   0  0  0  0  0  3  0  0  0  0  0  0
  188.6790  177.6640  135.7610 C   0  0  0  0  0  0  0  0  0  0  0  0
  189.1370  177.6640  134.5890 O   0  0  0  0  0  0  0  0  0  0  0  0
  188.9160  178.7500  136.5950 O   0  0  0  0  0  1  0  0  0  0  0  0
  1  5  1  1  0  0  0
  2 13  1  0  0  0  0
  3 16  1  0  0  0  0
  4  5  1  0  0  0  0
  4 30  1  6  0  0  0
  7  6  1  0  0  0  0
  8  9  1  1  0  0  0
  8  4  1  0  0  0  0
 10  3  1  6  0  0  0
 10 11  1  0  0  0  0
 11  8  1  0  0  0  0
 11  6  1  1  0  0  0
 11  1  1  0  0  0  0
 12 10  1  0  0  0  0
 12  7  1  0  0  0  0
 13 14  1  0  0  0  0
 14 32  1  6  0  0  0
 14 15  1  0  0  0  0
 15 17  1  0  0  0  0
 16  2  1  6  0  0  0
 16 18  1  0  0  0  0
 18 17  1  1  0  0  0
 18  1  1  0  0  0  0
 20 28  1  0  0  0  0
 21 24  2  0  0  0  0
 22 26  1  0  0  0  0
 22 21  1  0  0  0  0
 23 22  1  0  0  0  0
 25 19  1  1  0  0  0
 25 23  1  0  0  0  0
 25 27  1  0  0  0  0
 27 29  1  0  0  0  0
 28 27  2  0  0  0  0
 29 21  1  0  0  0  0
 30 20  2  3  0  0  0
 31 30  1  0  0  0  0
 31 19  2  0  0  0  0
 32 34  1  0  0  0  0
 33 32  2  0  0  0  0
M  END
>  <MODEL>
4

>  <REMARK>
 VINA RESULT:      -6.7      4.023      9.574
  Name = 
  2 active torsions:
  status: ('A' for Active; 'I' for Inactive)
    1  A    between atoms: C_3  and  C_25
    2  A    between atoms: C_8  and  C_30
                            x       y       z     vdW  Elec       q    Type
                         _______ _______ _______ _____ _____    ______ ____

>  <TORSDO>
F 2

$$$$
=
 OpenBabel10272415273D

 34 39  0  0  1  0  0  0  0  0999 V2000
  189.3100  174.5970  137.1660 C   0  0  1  0  0  3  0  0  0  0  0  0
  192.3380  174.8060  134.8680 C   0  0  0  0  0  2  0  0  0  0  0  0
  189.9720  174.9130  134.3460 C   0  0  0  0  0  2  0  0  0  0  0  0
  187.7450  176.3850  137.8130 C   0  0  2  0  0  3  0  0  0  0  0  0
  188.8960  175.5200  138.3160 C   0  0  0  0  0  2  0  0  0  0  0  0
  187.1850  173.7650  136.4540 O   0  0  0  0  0  0  0  0  0  0  0  0
  187.3490  172.6740  135.5740 C   0  0  0  0  0  2  0  0  0  0  0  0
  187.6310  176.1330  136.3260 C   0  0  2  0  0  3  0  0  0  0  0  0
  186.1930  176.2970  135.8510 C   0  0  0  0  0  1  0  0  0  0  0  0
  188.5580  174.4880  134.6830 C   0  0  2  0  0  3  0  0  0  0  0  0
  188.1710  174.7230  136.1280 C   0  0  1  0  0  0  0  0  0  0  0  0
  188.3420  173.0230  134.4880 C   0  0  0  0  0  2  0  0  0  0  0  0
  193.4280  173.9540  135.5040 C   0  0  0  0  0  2  0  0  0  0  0  0
  193.9460  174.5380  136.8240 C   0  0  2  0  0  3  0  0  0  0  0  0
  192.8770  175.1720  137.7150 C   0  0  0  0  0  2  0  0  0  0  0  0
  190.9560  174.3940  135.3770 C   0  0  2  0  0  3  0  0  0  0  0  0
  191.5670  174.4010  137.6830 C   0  0  0  0  0  2  0  0  0  0  0  0
  190.6550  174.9850  136.6960 N   0  0  2  0  0  0  0  0  0  0  0  0
  190.0550  177.9800  139.4240 C   0  0  0  0  0  3  0  0  0  0  0  0
  186.9010  178.3860  139.1540 C   0  0  0  0  0  3  0  0  0  0  0  0
  189.0280  176.9380  143.3410 C   0  0  0  0  0  0  0  0  0  0  0  0
  190.3450  176.7210  142.8280 N   0  0  0  0  0  0  0  0  0  0  0  0
  190.7930  177.4090  141.6220 C   0  0  0  0  0  2  0  0  0  0  0  0
  188.7260  176.5910  144.5150 O   0  0  0  0  0  0  0  0  0  0  0  0
  189.6640  177.7350  140.6790 C   0  0  1  0  0  3  0  0  0  0  0  0
  191.3370  176.0160  143.6240 C   0  0  0  0  0  1  0  0  0  0  0  0
  188.2670  177.8790  141.2140 C   0  0  0  0  0  0  0  0  0  0  0  0
  187.0910  178.3670  140.4710 C   0  0  0  0  0  3  0  0  0  0  0  0
  188.0100  177.5300  142.4760 C   0  0  0  0  0  2  0  0  0  0  0  0
  187.8640  177.8820  138.1370 C   0  0  0  0  0  0  0  0  0  0  0  0
  189.2470  178.4980  138.2800 C   0  0  0  0  0  3  0  0  0  0  0  0
  195.0520  175.5080  136.5740 C   0  0  0  0  0  0  0  0  0  0  0  0
  194.7820  176.6790  136.1990 O   0  0  0  0  0  0  0  0  0  0  0  0
  196.3760  175.1310  136.7600 O   0  0  0  0  0  1  0  0  0  0  0  0
  1  5  1  1  0  0  0
  2 16  1  0  0  0  0
  2 13  1  0  0  0  0
  4 30  1  6  0  0  0
  4  5  1  0  0  0  0
  7  6  1  0  0  0  0
  8  9  1  1  0  0  0
  8  4  1  0  0  0  0
 10  3  1  1  0  0  0
 10 11  1  0  0  0  0
 11  8  1  0  0  0  0
 11  6  1  1  0  0  0
 11  1  1  0  0  0  0
 12 10  1  0  0  0  0
 12  7  1  0  0  0  0
 13 14  1  0  0  0  0
 14 32  1  6  0  0  0
 14 15  1  0  0  0  0
 16  3  1  6  0  0  0
 16 18  1  0  0  0  0
 17 15  1  0  0  0  0
 18  1  1  0  0  0  0
 18 17  1  1  0  0  0
 20 28  1  0  0  0  0
 21 24  2  0  0  0  0
 22 21  1  0  0  0  0
 22 26  1  0  0  0  0
 23 22  1  0  0  0  0
 25 19  1  1  0  0  0
 25 27  1  0  0  0  0
 25 23  1  0  0  0  0
 27 29  1  0  0  0  0
 28 27  2  0  0  0  0
 29 21  1  0  0  0  0
 30 31  1  0  0  0  0
 30 20  2  3  0  0  0
 31 19  2  0  0  0  0
 32 34  1  0  0  0  0
 33 32  2  0  0  0  0
M  END
>  <MODEL>
5

>  <REMARK>
 VINA RESULT:      -6.6      2.891      8.974
  Name = 
  2 active torsions:
  status: ('A' for Active; 'I' for Inactive)
    1  A    between atoms: C_3  and  C_25
    2  A    between atoms: C_8  and  C_30
                            x       y       z     vdW  Elec       q    Type
                         _______ _______ _______ _____ _____    ______ ____

>  <TORSDO>
F 2

$$$$
=
 OpenBabel10272415273D

 34 39  0  0  1  0  0  0  0  0999 V2000
  189.5440  175.8080  138.5450 C   0  0  1  0  0  3  0  0  0  0  0  0
  186.9680  178.3960  137.4670 C   0  0  0  0  0  2  0  0  0  0  0  0
  188.9770  178.6550  138.8010 C   0  0  0  0  0  2  0  0  0  0  0  0
  191.8650  175.5340  137.7680 C   0  0  2  0  0  3  0  0  0  0  0  0
  190.4650  174.9360  137.6860 C   0  0  0  0  0  2  0  0  0  0  0  0
  190.8320  176.0030  140.5490 O   0  0  0  0  0  0  0  0  0  0  0  0
  190.0470  176.5420  141.5930 C   0  0  0  0  0  2  0  0  0  0  0  0
  191.7290  176.8620  138.4810 C   0  0  2  0  0  3  0  0  0  0  0  0
  192.9930  177.1970  139.2610 C   0  0  0  0  0  1  0  0  0  0  0  0
  189.9550  178.0520  139.7870 C   0  0  2  0  0  3  0  0  0  0  0  0
  190.5010  176.7020  139.3680 C   0  0  1  0  0  0  0  0  0  0  0  0
  189.3330  177.7880  141.1190 C   0  0  0  0  0  2  0  0  0  0  0  0
  185.6340  177.6690  137.3660 C   0  0  0  0  0  2  0  0  0  0  0  0
  185.6010  176.6420  136.2280 C   0  0  2  0  0  3  0  0  0  0  0  0
  186.8980  175.8570  136.0250 C   0  0  0  0  0  2  0  0  0  0  0  0
  187.9380  177.6360  138.3730 C   0  0  2  0  0  3  0  0  0  0  0  0
  187.5790  175.5160  137.3410 C   0  0  0  0  0  2  0  0  0  0  0  0
  188.5950  176.5200  137.6660 N   0  0  2  0  0  0  0  0  0  0  0  0
  192.3660  173.3370  135.4440 C   0  0  0  0  0  3  0  0  0  0  0  0
  194.0750  175.8080  136.5210 C   0  0  0  0  0  3  0  0  0  0  0  0
  195.4580  171.1430  137.2060 C   0  0  0  0  0  0  0  0  0  0  0  0
  194.2620  170.5120  136.7400 N   0  0  0  0  0  0  0  0  0  0  0  0
  193.3740  171.2050  135.8130 C   0  0  0  0  0  2  0  0  0  0  0  0
  196.3690  170.4720  137.7620 O   0  0  0  0  0  0  0  0  0  0  0  0
  193.4240  172.7030  135.9590 C   0  0  1  0  0  3  0  0  0  0  0  0
  194.0380  169.0960  136.9770 C   0  0  0  0  0  1  0  0  0  0  0  0
  194.6540  173.3520  136.5290 C   0  0  0  0  0  0  0  0  0  0  0  0
  194.9390  174.7980  136.5730 C   0  0  0  0  0  3  0  0  0  0  0  0
  195.6040  172.5910  137.0750 C   0  0  0  0  0  2  0  0  0  0  0  0
  192.5960  175.6730  136.4240 C   0  0  0  0  0  0  0  0  0  0  0  0
  192.1590  174.8040  135.2550 C   0  0  0  0  0  3  0  0  0  0  0  0
  185.1810  177.2860  134.9490 C   0  0  0  0  0  0  0  0  0  0  0  0
  185.9770  178.0520  134.3460 O   0  0  0  0  0  0  0  0  0  0  0  0
  183.9230  177.0380  134.4140 O   0  0  0  0  0  1  0  0  0  0  0  0
  1  5  1  6  0  0  0
  1 11  1  0  0  0  0
  4 30  1  6  0  0  0
  4  8  1  0  0  0  0
  5  4  1  0  0  0  0
  6  7  1  0  0  0  0
  8  9  1  1  0  0  0
  8 11  1  0  0  0  0
 10  3  1  6  0  0  0
 10 12  1  0  0  0  0
 11 10  1  0  0  0  0
 11  6  1  1  0  0  0
 12  7  1  0  0  0  0
 13  2  1  0  0  0  0
 14 32  1  6  0  0  0
 14 13  1  0  0  0  0
 15 14  1  0  0  0  0
 15 17  1  0  0  0  0
 16  2  1  6  0  0  0
 16  3  1  0  0  0  0
 18 17  1  1  0  0  0
 18 16  1  0  0  0  0
 18  1  1  0  0  0  0
 20 28  1  0  0  0  0
 21 24  2  0  0  0  0
 22 26  1  0  0  0  0
 22 21  1  0  0  0  0
 23 25  1  0  0  0  0
 23 22  1  0  0  0  0
 25 19  1  6  0  0  0
 25 27  1  0  0  0  0
 27 28  2  0  0  0  0
 27 29  1  0  0  0  0
 29 21  1  0  0  0  0
 30 20  2  3  0  0  0
 31 19  2  0  0  0  0
 31 30  1  0  0  0  0
 33 32  2  0  0  0  0
 34 32  1  0  0  0  0
M  END
>  <MODEL>
6

>  <REMARK>
 VINA RESULT:      -6.4      4.333      7.319
  Name = 
  2 active torsions:
  status: ('A' for Active; 'I' for Inactive)
    1  A    between atoms: C_3  and  C_25
    2  A    between atoms: C_8  and  C_30
                            x       y       z     vdW  Elec       q    Type
                         _______ _______ _______ _____ _____    ______ ____

>  <TORSDO>
F 2

$$$$
=
 OpenBabel10272415273D

 34 39  0  0  1  0  0  0  0  0999 V2000
  189.1800  175.4600  137.9060 C   0  0  1  0  0  3  0  0  0  0  0  0
  186.6300  178.1380  137.0000 C   0  0  0  0  0  2  0  0  0  0  0  0
  188.9030  178.3590  137.8160 C   0  0  0  0  0  2  0  0  0  0  0  0
  191.2360  174.8270  136.7080 C   0  0  2  0  0  3  0  0  0  0  0  0
  189.8120  174.3800  137.0230 C   0  0  0  0  0  2  0  0  0  0  0  0
  190.8990  175.7910  139.5330 O   0  0  0  0  0  0  0  0  0  0  0  0
  190.4150  176.5530  140.6190 C   0  0  0  0  0  2  0  0  0  0  0  0
  191.3660  176.2480  137.2110 C   0  0  2  0  0  3  0  0  0  0  0  0
  192.7960  176.5490  137.6400 C   0  0  0  0  0  1  0  0  0  0  0  0
  190.0310  177.7960  138.6560 C   0  0  2  0  0  3  0  0  0  0  0  0
  190.3630  176.3500  138.3520 C   0  0  1  0  0  0  0  0  0  0  0  0
  189.7080  177.7910  140.1140 C   0  0  0  0  0  2  0  0  0  0  0  0
  185.2570  177.5540  137.3030 C   0  0  0  0  0  2  0  0  0  0  0  0
  184.8880  176.3880  136.3780 C   0  0  2  0  0  3  0  0  0  0  0  0
  186.0430  175.4460  136.0330 C   0  0  0  0  0  2  0  0  0  0  0  0
  187.7200  177.4110  137.7890 C   0  0  2  0  0  3  0  0  0  0  0  0
  186.9760  175.2190  137.2110 C   0  0  0  0  0  2  0  0  0  0  0  0
  188.1120  176.1410  137.1470 N   0  0  2  0  0  0  0  0  0  0  0  0
  193.4110  172.8620  135.3350 C   0  0  0  0  0  3  0  0  0  0  0  0
  192.4430  175.8360  134.6990 C   0  0  0  0  0  3  0  0  0  0  0  0
  196.9300  174.8340  136.4330 C   0  0  0  0  0  0  0  0  0  0  0  0
  196.7240  173.4490  136.7260 N   0  0  0  0  0  0  0  0  0  0  0  0
  195.6880  172.6920  136.0300 C   0  0  0  0  0  2  0  0  0  0  0  0
  197.9850  175.4220  136.7970 O   0  0  0  0  0  0  0  0  0  0  0  0
  194.5290  173.5490  135.5940 C   0  0  1  0  0  3  0  0  0  0  0  0
  197.6910  172.7150  137.5250 C   0  0  0  0  0  1  0  0  0  0  0  0
  194.7350  175.0200  135.3700 C   0  0  0  0  0  0  0  0  0  0  0  0
  193.7660  175.9590  134.7760 C   0  0  0  0  0  3  0  0  0  0  0  0
  195.8850  175.5850  135.7430 C   0  0  0  0  0  2  0  0  0  0  0  0
  191.6510  174.6960  135.2350 C   0  0  0  0  0  0  0  0  0  0  0  0
  192.1380  173.3490  134.7240 C   0  0  0  0  0  3  0  0  0  0  0  0
  184.2400  176.8890  135.1310 C   0  0  0  0  0  0  0  0  0  0  0  0
  184.8850  177.6320  134.3470 O   0  0  0  0  0  0  0  0  0  0  0  0
  182.9320  176.5330  134.8240 O   0  0  0  0  0  1  0  0  0  0  0  0
  1  5  1  6  0  0  0
  1 11  1  0  0  0  0
  2 13  1  0  0  0  0
  4 30  1  6  0  0  0
  4  5  1  0  0  0  0
  4  8  1  0  0  0  0
  6  7  1  0  0  0  0
  8  9  1  1  0  0  0
  8 11  1  0  0  0  0
 10  3  1  6  0  0  0
 10 12  1  0  0  0  0
 11 10  1  0  0  0  0
 11  6  1  1  0  0  0
 12  7  1  0  0  0  0
 14 32  1  6  0  0  0
 14 13  1  0  0  0  0
 15 14  1  0  0  0  0
 15 17  1  0  0  0  0
 16  2  1  6  0  0  0
 16  3  1  0  0  0  0
 18 17  1  1  0  0  0
 18 16  1  0  0  0  0
 18  1  1  0  0  0  0
 20 28  1  0  0  0  0
 20 30  2  3  0  0  0
 21 22  1  0  0  0  0
 21 24  2  0  0  0  0
 22 26  1  0  0  0  0
 23 22  1  0  0  0  0
 25 19  1  6  0  0  0
 25 23  1  0  0  0  0
 27 25  1  0  0  0  0
 27 29  1  0  0  0  0
 28 27  2  0  0  0  0
 29 21  1  0  0  0  0
 31 30  1  0  0  0  0
 31 19  2  0  0  0  0
 33 32  2  0  0  0  0
 34 32  1  0  0  0  0
M  END
>  <MODEL>
7

>  <REMARK>
 VINA RESULT:      -6.0      4.553      7.817
  Name = 
  2 active torsions:
  status: ('A' for Active; 'I' for Inactive)
    1  A    between atoms: C_3  and  C_25
    2  A    between atoms: C_8  and  C_30
                            x       y       z     vdW  Elec       q    Type
                         _______ _______ _______ _____ _____    ______ ____

>  <TORSDO>
F 2

$$$$
=
 OpenBabel10272415273D

 34 39  0  0  1  0  0  0  0  0999 V2000
  183.6950  174.4470  137.4580 C   0  0  1  0  0  3  0  0  0  0  0  0
  185.8680  175.1450  134.4110 C   0  0  0  0  0  2  0  0  0  0  0  0
  183.6830  174.1060  134.5640 C   0  0  0  0  0  2  0  0  0  0  0  0
  181.5950  175.5440  138.1310 C   0  0  2  0  0  3  0  0  0  0  0  0
  183.0800  175.4300  138.4590 C   0  0  0  0  0  2  0  0  0  0  0  0
  182.1300  172.6430  137.5600 O   0  0  0  0  0  0  0  0  0  0  0  0
  182.6490  171.4990  136.9160 C   0  0  0  0  0  2  0  0  0  0  0  0
  181.3830  174.8150  136.8220 C   0  0  2  0  0  3  0  0  0  0  0  0
  179.9830  174.2200  136.7470 C   0  0  0  0  0  1  0  0  0  0  0  0
  182.7070  173.2700  135.3640 C   0  0  2  0  0  3  0  0  0  0  0  0
  182.4840  173.7650  136.7790 C   0  0  1  0  0  0  0  0  0  0  0  0
  183.1780  171.8640  135.5480 C   0  0  0  0  0  2  0  0  0  0  0  0
  187.3150  175.0590  134.8780 C   0  0  0  0  0  2  0  0  0  0  0  0
  187.6950  176.1840  135.8480 C   0  0  2  0  0  3  0  0  0  0  0  0
  186.6070  176.5700  136.8510 C   0  0  0  0  0  2  0  0  0  0  0  0
  184.9410  174.3870  135.3620 C   0  0  2  0  0  3  0  0  0  0  0  0
  185.8270  175.3640  137.3490 C   0  0  0  0  0  2  0  0  0  0  0  0
  184.6070  175.1820  136.5590 N   0  0  2  0  0  0  0  0  0  0  0  0
  183.1710  178.3700  138.1280 C   0  0  0  0  0  3  0  0  0  0  0  0
  180.3710  177.4300  139.3370 C   0  0  0  0  0  3  0  0  0  0  0  0
  184.2110  178.5990  142.1700 C   0  0  0  0  0  0  0  0  0  0  0  0
  185.1930  178.7130  141.1360 N   0  0  0  0  0  0  0  0  0  0  0  0
  184.7900  179.0020  139.7640 C   0  0  0  0  0  2  0  0  0  0  0  0
  184.5450  178.6410  143.3860 O   0  0  0  0  0  0  0  0  0  0  0  0
  183.4100  178.4950  139.4370 C   0  0  1  0  0  3  0  0  0  0  0  0
  186.6050  178.7920  141.4690 C   0  0  0  0  0  1  0  0  0  0  0  0
  182.4110  178.2990  140.5420 C   0  0  0  0  0  0  0  0  0  0  0  0
  180.9780  177.9880  140.3810 C   0  0  0  0  0  3  0  0  0  0  0  0
  182.8110  178.3880  141.8120 C   0  0  0  0  0  2  0  0  0  0  0  0
  181.0430  176.9770  138.0900 C   0  0  0  0  0  0  0  0  0  0  0  0
  181.8790  178.0690  137.4410 C   0  0  0  0  0  3  0  0  0  0  0  0
  188.1600  177.3900  135.1020 C   0  0  0  0  0  0  0  0  0  0  0  0
  189.3590  177.4690  134.7290 O   0  0  0  0  0  0  0  0  0  0  0  0
  187.2760  178.4210  134.8090 O   0  0  0  0  0  1  0  0  0  0  0  0
  1  5  1  1  0  0  0
  2 13  1  0  0  0  0
  3 16  1  0  0  0  0
  4 30  1  6  0  0  0
  4  5  1  0  0  0  0
  7  6  1  0  0  0  0
  8  9  1  1  0  0  0
  8  4  1  0  0  0  0
 10  3  1  1  0  0  0
 10 12  1  0  0  0  0
 10 11  1  0  0  0  0
 11  8  1  0  0  0  0
 11  1  1  0  0  0  0
 11  6  1  1  0  0  0
 12  7  1  0  0  0  0
 13 14  1  0  0  0  0
 14 32  1  6  0  0  0
 14 15  1  0  0  0  0
 15 17  1  0  0  0  0
 16  2  1  6  0  0  0
 16 18  1  0  0  0  0
 18 17  1  1  0  0  0
 18  1  1  0  0  0  0
 20 28  1  0  0  0  0
 21 24  2  0  0  0  0
 22 26  1  0  0  0  0
 22 21  1  0  0  0  0
 23 22  1  0  0  0  0
 25 19  1  6  0  0  0
 25 23  1  0  0  0  0
 25 27  1  0  0  0  0
 27 29  1  0  0  0  0
 28 27  2  0  0  0  0
 29 21  1  0  0  0  0
 30 20  2  3  0  0  0
 31 30  1  0  0  0  0
 31 19  2  0  0  0  0
 33 32  2  0  0  0  0
 34 32  1  0  0  0  0
M  END
>  <MODEL>
8

>  <REMARK>
 VINA RESULT:      -5.9      4.253      9.927
  Name = 
  2 active torsions:
  status: ('A' for Active; 'I' for Inactive)
    1  A    between atoms: C_3  and  C_25
    2  A    between atoms: C_8  and  C_30
                            x       y       z     vdW  Elec       q    Type
                         _______ _______ _______ _____ _____    ______ ____

>  <TORSDO>
F 2

$$$$
=
 OpenBabel10272415273D

 34 39  0  0  1  0  0  0  0  0999 V2000
  183.0650  178.7850  138.4720 C   0  0  1  0  0  3  0  0  0  0  0  0
  184.0480  178.3060  142.1190 C   0  0  0  0  0  2  0  0  0  0  0  0
  181.8860  178.0870  141.0440 C   0  0  0  0  0  2  0  0  0  0  0  0
  182.4170  177.0790  136.8190 C   0  0  2  0  0  3  0  0  0  0  0  0
  183.5400  178.0260  137.2300 C   0  0  0  0  0  2  0  0  0  0  0  0
  180.8810  179.4720  137.7890 O   0  0  0  0  0  0  0  0  0  0  0  0
  180.3590  180.4320  138.6830 C   0  0  0  0  0  2  0  0  0  0  0  0
  181.3890  177.1180  137.9290 C   0  0  2  0  0  3  0  0  0  0  0  0
  179.9880  176.8650  137.3880 C   0  0  0  0  0  1  0  0  0  0  0  0
  180.9420  178.5310  139.9460 C   0  0  2  0  0  3  0  0  0  0  0  0
  181.5490  178.4950  138.5590 C   0  0  1  0  0  0  0  0  0  0  0  0
  180.5060  179.9500  140.1090 C   0  0  0  0  0  2  0  0  0  0  0  0
  185.2070  179.2570  142.3880 C   0  0  0  0  0  2  0  0  0  0  0  0
  186.4810  178.8740  141.6250 C   0  0  2  0  0  3  0  0  0  0  0  0
  186.2530  178.3530  140.2050 C   0  0  0  0  0  2  0  0  0  0  0  0
  183.2370  178.7620  140.9060 C   0  0  2  0  0  3  0  0  0  0  0  0
  185.1300  179.0890  139.4920 C   0  0  0  0  0  2  0  0  0  0  0  0
  183.8690  178.3580  139.6350 N   0  0  2  0  0  0  0  0  0  0  0  0
  185.0810  175.4760  137.7160 C   0  0  0  0  0  3  0  0  0  0  0  0
  183.2810  175.4210  135.0820 C   0  0  0  0  0  3  0  0  0  0  0  0
  187.8560  177.2130  135.1160 C   0  0  0  0  0  0  0  0  0  0  0  0
  188.0670  177.1890  136.5300 N   0  0  0  0  0  0  0  0  0  0  0  0
  187.3040  176.2770  137.3760 C   0  0  0  0  0  2  0  0  0  0  0  0
  188.6880  177.7670  134.3470 O   0  0  0  0  0  0  0  0  0  0  0  0
  185.9440  175.9530  136.8140 C   0  0  0  0  0  0  0  0  0  0  0  0
  189.2040  177.8790  137.1150 C   0  0  0  0  0  1  0  0  0  0  0  0
  185.7080  176.0630  135.3340 C   0  0  0  0  0  0  0  0  0  0  0  0
  184.5070  175.6150  134.6050 C   0  0  0  0  0  3  0  0  0  0  0  0
  186.6380  176.6260  134.5610 C   0  0  0  0  0  2  0  0  0  0  0  0
  182.8580  175.6450  136.4910 C   0  0  0  0  0  0  0  0  0  0  0  0
  183.7240  174.8940  137.4910 C   0  0  0  0  0  2  0  0  0  0  0  0
  187.2910  177.8960  142.4100 C   0  0  0  0  0  0  0  0  0  0  0  0
  188.2390  177.2830  141.8530 O   0  0  0  0  0  0  0  0  0  0  0  0
  187.0130  177.6650  143.7510 O   0  0  0  0  0  1  0  0  0  0  0  0
  1  5  1  6  0  0  0
  1 11  1  0  0  0  0
  1 18  1  0  0  0  0
  2 13  1  0  0  0  0
  4 30  1  1  0  0  0
  4  5  1  0  0  0  0
  4  8  1  0  0  0  0
  6  7  1  0  0  0  0
  7 12  1  0  0  0  0
  8  9  1  6  0  0  0
  8 11  1  0  0  0  0
 10 12  1  1  0  0  0
 10  3  1  0  0  0  0
 11  6  1  6  0  0  0
 11 10  1  0  0  0  0
 14 13  1  0  0  0  0
 14 32  1  1  0  0  0
 15 14  1  0  0  0  0
 16  3  1  1  0  0  0
 16  2  1  0  0  0  0
 17 15  1  0  0  0  0
 18 17  1  6  0  0  0
 18 16  1  0  0  0  0
 20 30  2  3  0  0  0
 21 22  1  0  0  0  0
 22 26  1  0  0  0  0
 22 23  1  0  0  0  0
 24 21  2  0  0  0  0
 25 23  1  0  0  0  0
 25 19  2  0  0  0  0
 27 25  1  0  0  0  0
 28 20  1  0  0  0  0
 28 27  2  0  0  0  0
 29 21  1  0  0  0  0
 29 27  1  0  0  0  0
 30 31  1  0  0  0  0
 31 19  1  0  0  0  0
 32 34  1  0  0  0  0
 33 32  2  0  0  0  0
M  END
>  <MODEL>
9

>  <REMARK>
 VINA RESULT:      -5.9      4.346      7.418
  Name = 
  2 active torsions:
  status: ('A' for Active; 'I' for Inactive)
    1  A    between atoms: C_3  and  C_25
    2  A    between atoms: C_8  and  C_30
                            x       y       z     vdW  Elec       q    Type
                         _______ _______ _______ _____ _____    ______ ____

>  <TORSDO>
F 2

$$$$
