=
 OpenBabel10272401453D

 28 31  0  0  1  0  0  0  0  0999 V2000
  182.5530  178.8270  139.2200 C   0  0  2  0  0  3  0  0  0  0  0  0
  186.3330  177.7950  142.6540 C   0  0  0  0  0  3  0  0  0  0  0  0
  180.5780  179.4800  143.6590 O   0  0  0  0  0  0  0  0  0  0  0  0
  185.3610  178.3890  144.8020 C   0  0  0  0  0  0  0  0  0  0  0  0
  183.9660  178.4230  142.7960 C   0  0  0  0  0  0  0  0  0  0  0  0
  187.7000  177.7720  144.6530 C   0  0  0  0  0  0  0  0  0  0  0  0
  185.2170  178.1990  143.4060 C   0  0  0  0  0  0  0  0  0  0  0  0
  183.0300  179.0030  144.9690 C   0  0  0  0  0  3  0  0  0  0  0  0
  186.6000  178.1750  145.4140 C   0  0  0  0  0  3  0  0  0  0  0  0
  181.3590  178.8720  141.4920 C   0  0  2  0  0  3  0  0  0  0  0  0
  183.7800  178.1750  141.3190 C   0  0  0  0  0  2  0  0  0  0  0  0
  184.2690  178.7880  145.5710 C   0  0  0  0  0  3  0  0  0  0  0  0
  181.0020  176.9440  139.8300 C   0  0  0  0  0  2  0  0  0  0  0  0
  181.5500  179.0850  142.9630 C   0  0  0  0  0  0  0  0  0  0  0  0
  180.7200  177.4980  141.2320 C   0  0  0  0  0  2  0  0  0  0  0  0
  189.0140  177.5480  145.3080 C   0  0  0  0  0  1  0  0  0  0  0  0
  187.5670  177.5820  143.2750 C   0  0  0  0  0  3  0  0  0  0  0  0
  182.8640  178.8190  143.5900 C   0  0  0  0  0  0  0  0  0  0  0  0
  181.2850  178.0590  138.8320 C   0  0  0  0  0  2  0  0  0  0  0  0
  182.6860  179.0680  140.7350 C   0  0  1  0  0  3  0  0  0  0  0  0
  182.5750  180.1510  138.4710 C   0  0  0  0  0  2  0  0  0  0  0  0
  181.1700  180.7190  138.2970 C   0  0  0  0  0  2  0  0  0  0  0  0
  180.7300  182.5390  136.6100 C   0  0  0  0  0  0  0  0  0  0  0  0
  180.9500  181.1540  136.9230 N   0  0  0  0  0  0  0  0  0  0  0  0
  180.5560  182.8990  135.4150 O   0  0  0  0  0  0  0  0  0  0  0  0
  180.9010  180.1500  135.8680 C   0  0  0  0  0  1  0  0  0  0  0  0
  181.4820  184.7880  137.2830 C   0  0  0  0  0  1  0  0  0  0  0  0
  180.6710  183.5730  137.6860 C   0  0  0  0  0  2  0  0  0  0  0  0
  1 21  1  6  0  0  0
  1 20  1  0  0  0  0
  2 17  2  0  0  0  0
  2  7  1  0  0  0  0
  4  9  1  0  0  0  0
  4 12  1  0  0  0  0
  5  7  1  0  0  0  0
  5 18  2  0  0  0  0
  6 16  1  0  0  0  0
  6  9  2  0  0  0  0
  7  4  2  0  0  0  0
  8 12  2  0  0  0  0
 10 15  1  1  0  0  0
 10 14  1  0  0  0  0
 11  5  1  0  0  0  0
 13 15  1  0  0  0  0
 14 18  1  0  0  0  0
 14  3  2  0  0  0  0
 17  6  1  0  0  0  0
 18  8  1  0  0  0  0
 19  1  1  0  0  0  0
 19 13  1  0  0  0  0
 20 11  1  1  0  0  0
 20 10  1  0  0  0  0
 22 21  1  0  0  0  0
 23 24  1  0  0  0  0
 23 28  1  0  0  0  0
 24 22  1  0  0  0  0
 25 23  2  0  0  0  0
 26 24  1  0  0  0  0
 27 28  1  0  0  0  0
M  END
>  <MODEL>
1

>  <REMARK>
 VINA RESULT:      -8.6      0.000      0.000
  Name = 
  4 active torsions:
  status: ('A' for Active; 'I' for Inactive)
    1  A    between atoms: C_1  and  C_2
    2  A    between atoms: C_2  and  C_3
    3  A    between atoms: C_3  and  N_7
    4  A    between atoms: C_6  and  C_11
                            x       y       z     vdW  Elec       q    Type
                         _______ _______ _______ _____ _____    ______ ____

>  <TORSDO>
F 4

$$$$
=
 OpenBabel10272401453D

 28 31  0  0  1  0  0  0  0  0999 V2000
  186.8090  177.9480  137.6740 C   0  0  2  0  0  3  0  0  0  0  0  0
  185.8440  178.5750  142.7560 C   0  0  0  0  0  3  0  0  0  0  0  0
  190.7280  176.1860  140.0360 O   0  0  0  0  0  0  0  0  0  0  0  0
  187.6980  177.4510  143.8550 C   0  0  0  0  0  0  0  0  0  0  0  0
  187.7160  177.7130  141.4250 C   0  0  0  0  0  0  0  0  0  0  0  0
  185.8420  178.3000  145.1620 C   0  0  0  0  0  0  0  0  0  0  0  0
  187.0820  177.9180  142.6680 C   0  0  0  0  0  0  0  0  0  0  0  0
  189.5580  176.6010  142.5680 C   0  0  0  0  0  3  0  0  0  0  0  0
  187.0740  177.6440  145.0910 C   0  0  0  0  0  3  0  0  0  0  0  0
  189.0210  177.3100  138.8120 C   0  0  2  0  0  3  0  0  0  0  0  0
  187.1010  178.2510  140.1560 C   0  0  0  0  0  2  0  0  0  0  0  0
  188.9280  176.7970  143.7960 C   0  0  0  0  0  3  0  0  0  0  0  0
  188.7760  179.5060  137.4970 C   0  0  0  0  0  2  0  0  0  0  0  0
  189.6350  176.8080  140.0840 C   0  0  0  0  0  0  0  0  0  0  0  0
  189.6670  178.6430  138.3990 C   0  0  0  0  0  2  0  0  0  0  0  0
  185.1830  178.5010  146.4780 C   0  0  0  0  0  1  0  0  0  0  0  0
  185.2280  178.7650  143.9960 C   0  0  0  0  0  3  0  0  0  0  0  0
  188.9690  177.0570  141.3810 C   0  0  0  0  0  0  0  0  0  0  0  0
  187.7760  178.6590  136.7210 C   0  0  0  0  0  2  0  0  0  0  0  0
  187.4890  177.4040  138.9450 C   0  0  1  0  0  3  0  0  0  0  0  0
  186.1170  176.8210  136.9230 C   0  0  0  0  0  2  0  0  0  0  0  0
  184.6160  177.0650  136.8050 C   0  0  0  0  0  2  0  0  0  0  0  0
  183.2570  176.6230  138.8810 C   0  0  0  0  0  0  0  0  0  0  0  0
  183.8710  176.1560  137.6680 N   0  0  0  0  0  0  0  0  0  0  0  0
  182.6040  175.8260  139.6070 O   0  0  0  0  0  0  0  0  0  0  0  0
  183.8020  174.7460  137.3090 C   0  0  0  0  0  1  0  0  0  0  0  0
  182.8760  178.2010  140.7350 C   0  0  0  0  0  1  0  0  0  0  0  0
  183.4030  178.0410  139.3230 C   0  0  0  0  0  2  0  0  0  0  0  0
  1 21  1  6  0  0  0
  1 20  1  0  0  0  0
  2 17  1  0  0  0  0
  3 14  2  0  0  0  0
  4  9  2  0  0  0  0
  5  7  1  0  0  0  0
  6 16  1  0  0  0  0
  7  2  2  0  0  0  0
  7  4  1  0  0  0  0
  8 12  2  0  0  0  0
  9  6  1  0  0  0  0
 10 15  1  1  0  0  0
 10 20  1  0  0  0  0
 10 14  1  0  0  0  0
 11  5  1  0  0  0  0
 12  4  1  0  0  0  0
 13 15  1  0  0  0  0
 14 18  1  0  0  0  0
 17  6  2  0  0  0  0
 18  5  2  0  0  0  0
 18  8  1  0  0  0  0
 19 13  1  0  0  0  0
 19  1  1  0  0  0  0
 20 11  1  1  0  0  0
 22 21  1  0  0  0  0
 22 24  1  0  0  0  0
 23 28  1  0  0  0  0
 23 25  2  0  0  0  0
 24 23  1  0  0  0  0
 26 24  1  0  0  0  0
 28 27  1  0  0  0  0
M  END
>  <MODEL>
2

>  <REMARK>
 VINA RESULT:      -8.2      4.041      6.196
  Name = 
  4 active torsions:
  status: ('A' for Active; 'I' for Inactive)
    1  A    between atoms: C_1  and  C_2
    2  A    between atoms: C_2  and  C_3
    3  A    between atoms: C_3  and  N_7
    4  A    between atoms: C_6  and  C_11
                            x       y       z     vdW  Elec       q    Type
                         _______ _______ _______ _____ _____    ______ ____

>  <TORSDO>
F 4

$$$$
=
 OpenBabel10272401453D

 28 31  0  0  1  0  0  0  0  0999 V2000
  186.9220  177.8440  137.6840 C   0  0  2  0  0  3  0  0  0  0  0  0
  185.7540  178.5860  142.7070 C   0  0  0  0  0  3  0  0  0  0  0  0
  190.7890  176.2400  140.2350 O   0  0  0  0  0  0  0  0  0  0  0  0
  187.5910  177.5370  143.9050 C   0  0  0  0  0  0  0  0  0  0  0  0
  187.6930  177.7330  141.4700 C   0  0  0  0  0  0  0  0  0  0  0  0
  185.6690  178.3770  145.1180 C   0  0  0  0  0  0  0  0  0  0  0  0
  187.0090  177.9570  142.6830 C   0  0  0  0  0  0  0  0  0  0  0  0
  189.5160  176.6960  142.7100 C   0  0  0  0  0  3  0  0  0  0  0  0
  186.9170  177.7490  145.1110 C   0  0  0  0  0  3  0  0  0  0  0  0
  189.1030  177.2890  138.9190 C   0  0  2  0  0  3  0  0  0  0  0  0
  187.1140  178.2210  140.1650 C   0  0  0  0  0  2  0  0  0  0  0  0
  188.8370  176.9110  143.9090 C   0  0  0  0  0  3  0  0  0  0  0  0
  188.8570  179.4420  137.5350 C   0  0  0  0  0  2  0  0  0  0  0  0
  189.6800  176.8370  140.2260 C   0  0  0  0  0  0  0  0  0  0  0  0
  189.7340  178.6250  138.4920 C   0  0  0  0  0  2  0  0  0  0  0  0
  184.9570  178.5990  146.4030 C   0  0  0  0  0  1  0  0  0  0  0  0
  185.0880  178.7960  143.9180 C   0  0  0  0  0  3  0  0  0  0  0  0
  188.9610  177.1050  141.4910 C   0  0  0  0  0  0  0  0  0  0  0  0
  187.9060  178.5510  136.7460 C   0  0  0  0  0  2  0  0  0  0  0  0
  187.5660  177.3500  138.9930 C   0  0  1  0  0  3  0  0  0  0  0  0
  186.2830  176.6800  136.9400 C   0  0  0  0  0  2  0  0  0  0  0  0
  187.2860  175.9780  136.0300 C   0  0  0  0  0  2  0  0  0  0  0  0
  189.1870  174.4830  136.7390 C   0  0  0  0  0  0  0  0  0  0  0  0
  187.7780  174.7510  136.6460 N   0  0  0  0  0  0  0  0  0  0  0  0
  189.5950  173.4240  137.2880 O   0  0  0  0  0  0  0  0  0  0  0  0
  186.8140  173.7680  137.1200 C   0  0  0  0  0  1  0  0  0  0  0  0
  191.5190  175.2700  136.8820 C   0  0  0  0  0  1  0  0  0  0  0  0
  190.1920  175.4260  136.1660 C   0  0  0  0  0  2  0  0  0  0  0  0
  1 21  1  6  0  0  0
  1 20  1  0  0  0  0
  2 17  1  0  0  0  0
  4 12  1  0  0  0  0
  4  9  2  0  0  0  0
  5 18  2  0  0  0  0
  5  7  1  0  0  0  0
  6 16  1  0  0  0  0
  7  2  2  0  0  0  0
  7  4  1  0  0  0  0
  8 12  2  0  0  0  0
  9  6  1  0  0  0  0
 10 15  1  1  0  0  0
 10 20  1  0  0  0  0
 10 14  1  0  0  0  0
 11  5  1  0  0  0  0
 13 15  1  0  0  0  0
 14  3  2  0  0  0  0
 14 18  1  0  0  0  0
 17  6  2  0  0  0  0
 18  8  1  0  0  0  0
 19 13  1  0  0  0  0
 19  1  1  0  0  0  0
 20 11  1  1  0  0  0
 22 24  1  0  0  0  0
 22 21  1  0  0  0  0
 23 25  2  0  0  0  0
 24 23  1  0  0  0  0
 24 26  1  0  0  0  0
 28 23  1  0  0  0  0
 28 27  1  0  0  0  0
M  END
>  <MODEL>
3

>  <REMARK>
 VINA RESULT:      -8.1      5.647      7.687
  Name = 
  4 active torsions:
  status: ('A' for Active; 'I' for Inactive)
    1  A    between atoms: C_1  and  C_2
    2  A    between atoms: C_2  and  C_3
    3  A    between atoms: C_3  and  N_7
    4  A    between atoms: C_6  and  C_11
                            x       y       z     vdW  Elec       q    Type
                         _______ _______ _______ _____ _____    ______ ____

>  <TORSDO>
F 4

$$$$
=
 OpenBabel10272401453D

 28 31  0  0  1  0  0  0  0  0999 V2000
  190.1940  177.6590  142.4510 C   0  0  2  0  0  3  0  0  0  0  0  0
  185.1880  179.0170  142.9490 C   0  0  0  0  0  3  0  0  0  0  0  0
  189.0390  176.9130  147.1570 O   0  0  0  0  0  0  0  0  0  0  0  0
  184.6240  178.3770  145.2250 C   0  0  0  0  0  0  0  0  0  0  0  0
  186.9410  178.2120  144.4650 C   0  0  0  0  0  0  0  0  0  0  0  0
  182.8980  179.1670  143.7190 C   0  0  0  0  0  0  0  0  0  0  0  0
  185.5940  178.5380  144.2050 C   0  0  0  0  0  0  0  0  0  0  0  0
  186.3330  177.5900  146.7410 C   0  0  0  0  0  3  0  0  0  0  0  0
  183.2850  178.6910  144.9750 C   0  0  0  0  0  3  0  0  0  0  0  0
  189.7680  177.5510  144.9800 C   0  0  2  0  0  3  0  0  0  0  0  0
  187.9960  178.4280  143.4080 C   0  0  0  0  0  2  0  0  0  0  0  0
  185.0000  177.9050  146.4820 C   0  0  0  0  0  3  0  0  0  0  0  0
  191.1850  179.4270  143.9400 C   0  0  0  0  0  2  0  0  0  0  0  0
  188.7140  177.3710  146.0300 C   0  0  0  0  0  0  0  0  0  0  0  0
  190.5250  178.8700  145.2080 C   0  0  0  0  0  2  0  0  0  0  0  0
  181.4730  179.4980  143.4580 C   0  0  0  0  0  1  0  0  0  0  0  0
  183.8480  179.3300  142.7080 C   0  0  0  0  0  3  0  0  0  0  0  0
  187.3100  177.7440  145.7480 C   0  0  0  0  0  0  0  0  0  0  0  0
  191.4880  178.3240  142.9340 C   0  0  0  0  0  2  0  0  0  0  0  0
  189.1570  177.4470  143.5700 C   0  0  1  0  0  3  0  0  0  0  0  0
  190.5390  176.3310  141.7930 C   0  0  0  0  0  2  0  0  0  0  0  0
  189.7800  176.1410  140.4840 C   0  0  0  0  0  2  0  0  0  0  0  0
  189.0740  178.1570  139.1470 C   0  0  0  0  0  0  0  0  0  0  0  0
  190.0840  177.2150  139.5450 N   0  0  0  0  0  0  0  0  0  0  0  0
  189.3570  179.0880  138.3460 O   0  0  0  0  0  0  0  0  0  0  0  0
  191.4190  177.2890  138.9690 C   0  0  0  0  0  1  0  0  0  0  0  0
  186.7060  178.0380  138.4730 C   0  0  0  0  0  1  0  0  0  0  0  0
  187.6700  178.0390  139.6420 C   0  0  0  0  0  2  0  0  0  0  0  0
  1 21  1  1  0  0  0
  1 19  1  0  0  0  0
  1 20  1  0  0  0  0
  2  7  1  0  0  0  0
  4 12  1  0  0  0  0
  5 18  2  0  0  0  0
  6  9  2  0  0  0  0
  7  5  1  0  0  0  0
  7  4  2  0  0  0  0
  9  4  1  0  0  0  0
 10 15  1  1  0  0  0
 10 14  1  0  0  0  0
 11  5  1  0  0  0  0
 12  8  2  0  0  0  0
 13 15  1  0  0  0  0
 14  3  2  0  0  0  0
 16  6  1  0  0  0  0
 17  2  2  0  0  0  0
 17  6  1  0  0  0  0
 18 14  1  0  0  0  0
 18  8  1  0  0  0  0
 19 13  1  0  0  0  0
 20 11  1  1  0  0  0
 20 10  1  0  0  0  0
 22 21  1  0  0  0  0
 23 24  1  0  0  0  0
 23 28  1  0  0  0  0
 24 22  1  0  0  0  0
 25 23  2  0  0  0  0
 26 24  1  0  0  0  0
 27 28  1  0  0  0  0
M  END
>  <MODEL>
4

>  <REMARK>
 VINA RESULT:      -8.0      4.823      7.793
  Name = 
  4 active torsions:
  status: ('A' for Active; 'I' for Inactive)
    1  A    between atoms: C_1  and  C_2
    2  A    between atoms: C_2  and  C_3
    3  A    between atoms: C_3  and  N_7
    4  A    between atoms: C_6  and  C_11
                            x       y       z     vdW  Elec       q    Type
                         _______ _______ _______ _____ _____    ______ ____

>  <TORSDO>
F 4

$$$$
=
 OpenBabel10272401453D

 28 31  0  0  1  0  0  0  0  0999 V2000
  190.1690  177.6460  142.2370 C   0  0  2  0  0  3  0  0  0  0  0  0
  185.1860  179.0180  142.9000 C   0  0  0  0  0  3  0  0  0  0  0  0
  189.1400  176.8110  146.9580 O   0  0  0  0  0  0  0  0  0  0  0  0
  184.6810  178.3350  145.1770 C   0  0  0  0  0  0  0  0  0  0  0  0
  186.9750  178.1750  144.3510 C   0  0  0  0  0  0  0  0  0  0  0  0
  182.9180  179.1640  143.7360 C   0  0  0  0  0  0  0  0  0  0  0  0
  185.6230  178.5120  144.1350 C   0  0  0  0  0  0  0  0  0  0  0  0
  186.4270  177.5100  146.6300 C   0  0  0  0  0  3  0  0  0  0  0  0
  183.3370  178.6610  144.9700 C   0  0  0  0  0  3  0  0  0  0  0  0
  189.8120  177.4890  144.7750 C   0  0  2  0  0  3  0  0  0  0  0  0
  188.0030  178.4060  143.2700 C   0  0  0  0  0  2  0  0  0  0  0  0
  185.0890  177.8370  146.4140 C   0  0  0  0  0  3  0  0  0  0  0  0
  191.2100  179.3780  143.7330 C   0  0  0  0  0  2  0  0  0  0  0  0
  188.7860  177.2940  145.8490 C   0  0  0  0  0  0  0  0  0  0  0  0
  190.5820  178.7990  145.0070 C   0  0  0  0  0  2  0  0  0  0  0  0
  181.4890  179.5070  143.5210 C   0  0  0  0  0  1  0  0  0  0  0  0
  183.8410  179.3420  142.7020 C   0  0  0  0  0  3  0  0  0  0  0  0
  187.3770  177.6790  145.6140 C   0  0  0  0  0  0  0  0  0  0  0  0
  191.4790  178.2940  142.6970 C   0  0  0  0  0  2  0  0  0  0  0  0
  189.1620  177.4170  143.3800 C   0  0  1  0  0  3  0  0  0  0  0  0
  190.4880  176.3300  141.5440 C   0  0  0  0  0  2  0  0  0  0  0  0
  191.1610  176.5560  140.1940 C   0  0  0  0  0  2  0  0  0  0  0  0
  190.4550  175.7470  137.9140 C   0  0  0  0  0  0  0  0  0  0  0  0
  190.1870  176.4980  139.1100 N   0  0  0  0  0  0  0  0  0  0  0  0
  189.5960  175.6940  136.9940 O   0  0  0  0  0  0  0  0  0  0  0  0
  188.9530  177.2600  139.2330 C   0  0  0  0  0  1  0  0  0  0  0  0
  192.7690  175.9830  137.0960 C   0  0  0  0  0  1  0  0  0  0  0  0
  191.7570  175.0430  137.7210 C   0  0  0  0  0  2  0  0  0  0  0  0
  1 21  1  1  0  0  0
  1 19  1  0  0  0  0
  1 20  1  0  0  0  0
  2  7  1  0  0  0  0
  4 12  1  0  0  0  0
  5 18  2  0  0  0  0
  6  9  2  0  0  0  0
  7  5  1  0  0  0  0
  7  4  2  0  0  0  0
  9  4  1  0  0  0  0
 10 15  1  1  0  0  0
 10 14  1  0  0  0  0
 11  5  1  0  0  0  0
 12  8  2  0  0  0  0
 13 15  1  0  0  0  0
 14  3  2  0  0  0  0
 16  6  1  0  0  0  0
 17  2  2  0  0  0  0
 17  6  1  0  0  0  0
 18 14  1  0  0  0  0
 18  8  1  0  0  0  0
 19 13  1  0  0  0  0
 20 11  1  1  0  0  0
 20 10  1  0  0  0  0
 22 21  1  0  0  0  0
 23 24  1  0  0  0  0
 24 26  1  0  0  0  0
 24 22  1  0  0  0  0
 25 23  2  0  0  0  0
 27 28  1  0  0  0  0
 28 23  1  0  0  0  0
M  END
>  <MODEL>
5

>  <REMARK>
 VINA RESULT:      -7.9      5.024      8.451
  Name = 
  4 active torsions:
  status: ('A' for Active; 'I' for Inactive)
    1  A    between atoms: C_1  and  C_2
    2  A    between atoms: C_2  and  C_3
    3  A    between atoms: C_3  and  N_7
    4  A    between atoms: C_6  and  C_11
                            x       y       z     vdW  Elec       q    Type
                         _______ _______ _______ _____ _____    ______ ____

>  <TORSDO>
F 4

$$$$
=
 OpenBabel10272401453D

 28 31  0  0  1  0  0  0  0  0999 V2000
  184.2600  177.9910  139.1370 C   0  0  2  0  0  3  0  0  0  0  0  0
  186.9950  177.4020  143.5330 C   0  0  0  0  0  3  0  0  0  0  0  0
  181.3460  179.5190  142.7730 O   0  0  0  0  0  0  0  0  0  0  0  0
  185.5950  178.4150  145.2430 C   0  0  0  0  0  0  0  0  0  0  0  0
  184.7310  178.1600  142.9710 C   0  0  0  0  0  0  0  0  0  0  0  0
  187.8340  177.6680  145.7890 C   0  0  0  0  0  0  0  0  0  0  0  0
  185.7730  177.9870  143.9040 C   0  0  0  0  0  0  0  0  0  0  0  0
  183.3580  179.1620  144.7170 C   0  0  0  0  0  3  0  0  0  0  0  0
  186.6250  178.2530  146.1740 C   0  0  0  0  0  3  0  0  0  0  0  0
  182.5650  178.4980  140.9980 C   0  0  2  0  0  3  0  0  0  0  0  0
  184.8830  177.6630  141.5540 C   0  0  0  0  0  2  0  0  0  0  0  0
  184.3920  178.9980  145.6380 C   0  0  0  0  0  3  0  0  0  0  0  0
  182.4420  176.3250  139.6310 C   0  0  0  0  0  2  0  0  0  0  0  0
  182.4170  178.9600  142.4160 C   0  0  0  0  0  0  0  0  0  0  0  0
  181.8840  177.1330  140.8090 C   0  0  0  0  0  2  0  0  0  0  0  0
  188.9260  177.5000  146.7820 C   0  0  0  0  0  1  0  0  0  0  0  0
  188.0190  177.2420  144.4710 C   0  0  0  0  0  3  0  0  0  0  0  0
  183.5110  178.7450  143.3880 C   0  0  0  0  0  0  0  0  0  0  0  0
  183.0570  177.2300  138.5710 C   0  0  0  0  0  2  0  0  0  0  0  0
  184.0470  178.4910  140.5790 C   0  0  1  0  0  3  0  0  0  0  0  0
  184.5820  179.1590  138.2160 C   0  0  0  0  0  2  0  0  0  0  0  0
  186.0850  179.3070  138.0040 C   0  0  0  0  0  2  0  0  0  0  0  0
  187.7620  177.4790  138.4460 C   0  0  0  0  0  0  0  0  0  0  0  0
  186.6910  178.0260  137.6600 N   0  0  0  0  0  0  0  0  0  0  0  0
  188.2650  176.3630  138.1420 O   0  0  0  0  0  0  0  0  0  0  0  0
  186.2310  177.3300  136.4660 C   0  0  0  0  0  1  0  0  0  0  0  0
  189.1370  177.2880  140.4840 C   0  0  0  0  0  1  0  0  0  0  0  0
  188.3220  178.2240  139.6120 C   0  0  0  0  0  2  0  0  0  0  0  0
  1 21  1  6  0  0  0
  1 20  1  0  0  0  0
  2  7  2  0  0  0  0
  2 17  1  0  0  0  0
  4 12  1  0  0  0  0
  4  9  2  0  0  0  0
  5 18  2  0  0  0  0
  5  7  1  0  0  0  0
  6  9  1  0  0  0  0
  6 16  1  0  0  0  0
  7  4  1  0  0  0  0
  8 12  2  0  0  0  0
 10 15  1  1  0  0  0
 10 14  1  0  0  0  0
 11  5  1  0  0  0  0
 13 15  1  0  0  0  0
 14  3  2  0  0  0  0
 14 18  1  0  0  0  0
 17  6  2  0  0  0  0
 18  8  1  0  0  0  0
 19  1  1  0  0  0  0
 19 13  1  0  0  0  0
 20 10  1  0  0  0  0
 20 11  1  1  0  0  0
 22 21  1  0  0  0  0
 23 28  1  0  0  0  0
 24 22  1  0  0  0  0
 24 23  1  0  0  0  0
 25 23  2  0  0  0  0
 26 24  1  0  0  0  0
 28 27  1  0  0  0  0
M  END
>  <MODEL>
6

>  <REMARK>
 VINA RESULT:      -7.7      3.147      4.410
  Name = 
  4 active torsions:
  status: ('A' for Active; 'I' for Inactive)
    1  A    between atoms: C_1  and  C_2
    2  A    between atoms: C_2  and  C_3
    3  A    between atoms: C_3  and  N_7
    4  A    between atoms: C_6  and  C_11
                            x       y       z     vdW  Elec       q    Type
                         _______ _______ _______ _____ _____    ______ ____

>  <TORSDO>
F 4

$$$$
=
 OpenBabel10272401453D

 28 31  0  0  1  0  0  0  0  0999 V2000
  186.8480  177.9480  137.5440 C   0  0  2  0  0  3  0  0  0  0  0  0
  185.7570  178.6120  142.5960 C   0  0  0  0  0  3  0  0  0  0  0  0
  190.7060  176.2010  140.0150 O   0  0  0  0  0  0  0  0  0  0  0  0
  187.5830  177.4950  143.7490 C   0  0  0  0  0  0  0  0  0  0  0  0
  187.6610  177.7400  141.3180 C   0  0  0  0  0  0  0  0  0  0  0  0
  185.6960  178.3540  145.0030 C   0  0  0  0  0  0  0  0  0  0  0  0
  186.9970  177.9540  142.5430 C   0  0  0  0  0  0  0  0  0  0  0  0
  189.4740  176.6350  142.5140 C   0  0  0  0  0  3  0  0  0  0  0  0
  186.9280  177.6970  144.9670 C   0  0  0  0  0  3  0  0  0  0  0  0
  189.0300  177.3170  138.7410 C   0  0  2  0  0  3  0  0  0  0  0  0
  187.0780  178.2680  140.0300 C   0  0  0  0  0  2  0  0  0  0  0  0
  188.8140  176.8400  143.7250 C   0  0  0  0  0  3  0  0  0  0  0  0
  188.8190  179.5030  137.4050 C   0  0  0  0  0  2  0  0  0  0  0  0
  189.6120  176.8240  140.0310 C   0  0  0  0  0  0  0  0  0  0  0  0
  189.6880  178.6460  138.3340 C   0  0  0  0  0  2  0  0  0  0  0  0
  185.0040  178.5650  146.3000 C   0  0  0  0  0  1  0  0  0  0  0  0
  185.1110  178.8110  143.8190 C   0  0  0  0  0  3  0  0  0  0  0  0
  188.9140  177.0830  141.3100 C   0  0  0  0  0  0  0  0  0  0  0  0
  187.8380  178.6510  136.6100 C   0  0  0  0  0  2  0  0  0  0  0  0
  187.4960  177.4130  138.8350 C   0  0  1  0  0  3  0  0  0  0  0  0
  186.1740  176.8150  136.7840 C   0  0  0  0  0  2  0  0  0  0  0  0
  184.8420  176.4300  137.4190 C   0  0  0  0  0  2  0  0  0  0  0  0
  184.0150  174.1600  136.7000 C   0  0  0  0  0  0  0  0  0  0  0  0
  184.0620  175.5850  136.5220 N   0  0  0  0  0  0  0  0  0  0  0  0
  183.3240  173.4470  135.9240 O   0  0  0  0  0  0  0  0  0  0  0  0
  183.3690  176.2040  135.4000 C   0  0  0  0  0  1  0  0  0  0  0  0
  186.0810  172.9130  137.2080 C   0  0  0  0  0  1  0  0  0  0  0  0
  184.8010  173.4910  137.7790 C   0  0  0  0  0  2  0  0  0  0  0  0
  1 21  1  6  0  0  0
  1 20  1  0  0  0  0
  2 17  1  0  0  0  0
  3 14  2  0  0  0  0
  4  9  2  0  0  0  0
  5  7  1  0  0  0  0
  6 16  1  0  0  0  0
  7  2  2  0  0  0  0
  7  4  1  0  0  0  0
  8 12  2  0  0  0  0
  9  6  1  0  0  0  0
 10 15  1  1  0  0  0
 10 20  1  0  0  0  0
 10 14  1  0  0  0  0
 11  5  1  0  0  0  0
 12  4  1  0  0  0  0
 13 15  1  0  0  0  0
 14 18  1  0  0  0  0
 17  6  2  0  0  0  0
 18  5  2  0  0  0  0
 18  8  1  0  0  0  0
 19 13  1  0  0  0  0
 19  1  1  0  0  0  0
 20 11  1  1  0  0  0
 21 22  1  0  0  0  0
 23 28  1  0  0  0  0
 24 23  1  0  0  0  0
 24 22  1  0  0  0  0
 25 23  2  0  0  0  0
 26 24  1  0  0  0  0
 27 28  1  0  0  0  0
M  END
>  <MODEL>
7

>  <REMARK>
 VINA RESULT:      -7.6      4.853      6.857
  Name = 
  4 active torsions:
  status: ('A' for Active; 'I' for Inactive)
    1  A    between atoms: C_1  and  C_2
    2  A    between atoms: C_2  and  C_3
    3  A    between atoms: C_3  and  N_7
    4  A    between atoms: C_6  and  C_11
                            x       y       z     vdW  Elec       q    Type
                         _______ _______ _______ _____ _____    ______ ____

>  <TORSDO>
F 4

$$$$
=
 OpenBabel10272401453D

 28 31  0  0  1  0  0  0  0  0999 V2000
  192.0860  175.7650  137.5760 C   0  0  2  0  0  3  0  0  0  0  0  0
  190.9210  176.3440  142.6210 C   0  0  0  0  0  3  0  0  0  0  0  0
  188.1220  178.6460  137.7390 O   0  0  0  0  0  0  0  0  0  0  0  0
  189.1220  177.9800  142.6300 C   0  0  0  0  0  0  0  0  0  0  0  0
  189.9420  177.1000  140.5020 C   0  0  0  0  0  0  0  0  0  0  0  0
  190.0980  177.2320  144.7180 C   0  0  0  0  0  0  0  0  0  0  0  0
  190.0010  177.1330  141.9110 C   0  0  0  0  0  0  0  0  0  0  0  0
  188.1360  178.7350  140.5570 C   0  0  0  0  0  3  0  0  0  0  0  0
  189.1780  178.0240  144.0260 C   0  0  0  0  0  3  0  0  0  0  0  0
  189.8360  177.0000  137.5570 C   0  0  2  0  0  3  0  0  0  0  0  0
  190.8330  176.1660  139.7220 C   0  0  0  0  0  2  0  0  0  0  0  0
  188.1990  178.7730  141.9500 C   0  0  0  0  0  3  0  0  0  0  0  0
  190.0110  174.5270  136.8780 C   0  0  0  0  0  2  0  0  0  0  0  0
  188.9360  177.9020  138.3470 C   0  0  0  0  0  0  0  0  0  0  0  0
  189.0860  175.7190  137.1570 C   0  0  0  0  0  2  0  0  0  0  0  0
  190.1540  177.2840  146.2020 C   0  0  0  0  0  1  0  0  0  0  0  0
  190.9680  176.3930  144.0170 C   0  0  0  0  0  3  0  0  0  0  0  0
  188.9930  177.9020  139.8260 C   0  0  0  0  0  0  0  0  0  0  0  0
  191.4000  174.9830  136.4500 C   0  0  0  0  0  2  0  0  0  0  0  0
  191.1380  176.7160  138.3300 C   0  0  1  0  0  3  0  0  0  0  0  0
  193.2580  176.5410  136.9930 C   0  0  0  0  0  2  0  0  0  0  0  0
  193.9240  175.7780  135.8530 C   0  0  0  0  0  2  0  0  0  0  0  0
  196.3520  176.3450  135.4880 C   0  0  0  0  0  0  0  0  0  0  0  0
  195.3380  175.5550  136.1310 N   0  0  0  0  0  0  0  0  0  0  0  0
  197.5690  176.1490  135.7510 O   0  0  0  0  0  0  0  0  0  0  0  0
  195.7150  174.4780  137.0360 C   0  0  0  0  0  1  0  0  0  0  0  0
  196.1300  178.7670  135.0850 C   0  0  0  0  0  1  0  0  0  0  0  0
  195.9960  177.3840  134.4780 C   0  0  0  0  0  2  0  0  0  0  0  0
  1 21  1  6  0  0  0
  1 20  1  0  0  0  0
  2 17  1  0  0  0  0
  3 14  2  0  0  0  0
  4  9  2  0  0  0  0
  5  7  1  0  0  0  0
  6 16  1  0  0  0  0
  7  2  2  0  0  0  0
  7  4  1  0  0  0  0
  8 12  2  0  0  0  0
  9  6  1  0  0  0  0
 10 15  1  1  0  0  0
 10 20  1  0  0  0  0
 10 14  1  0  0  0  0
 11  5  1  0  0  0  0
 12  4  1  0  0  0  0
 13 15  1  0  0  0  0
 14 18  1  0  0  0  0
 17  6  2  0  0  0  0
 18  5  2  0  0  0  0
 18  8  1  0  0  0  0
 19 13  1  0  0  0  0
 19  1  1  0  0  0  0
 20 11  1  1  0  0  0
 22 24  1  0  0  0  0
 22 21  1  0  0  0  0
 23 25  2  0  0  0  0
 23 24  1  0  0  0  0
 24 26  1  0  0  0  0
 28 27  1  0  0  0  0
 28 23  1  0  0  0  0
M  END
>  <MODEL>
8

>  <REMARK>
 VINA RESULT:      -7.4      8.009     10.430
  Name = 
  4 active torsions:
  status: ('A' for Active; 'I' for Inactive)
    1  A    between atoms: C_1  and  C_2
    2  A    between atoms: C_2  and  C_3
    3  A    between atoms: C_3  and  N_7
    4  A    between atoms: C_6  and  C_11
                            x       y       z     vdW  Elec       q    Type
                         _______ _______ _______ _____ _____    ______ ____

>  <TORSDO>
F 4

$$$$
=
 OpenBabel10272401453D

 28 31  0  0  1  0  0  0  0  0999 V2000
  186.7990  177.9380  137.7280 C   0  0  2  0  0  3  0  0  0  0  0  0
  187.2720  177.4490  142.8940 C   0  0  0  0  0  3  0  0  0  0  0  0
  182.6280  179.6560  139.6490 O   0  0  0  0  0  0  0  0  0  0  0  0
  185.2940  178.5520  143.7780 C   0  0  0  0  0  0  0  0  0  0  0  0
  185.5220  178.2350  141.3650 C   0  0  0  0  0  0  0  0  0  0  0  0
  187.0300  177.7770  145.2810 C   0  0  0  0  0  0  0  0  0  0  0  0
  186.0340  178.0730  142.6690 C   0  0  0  0  0  0  0  0  0  0  0  0
  183.5520  179.3270  142.2930 C   0  0  0  0  0  3  0  0  0  0  0  0
  185.7970  178.4020  145.0730 C   0  0  0  0  0  3  0  0  0  0  0  0
  184.4730  178.5470  138.6270 C   0  0  2  0  0  3  0  0  0  0  0  0
  186.2710  177.6840  140.1760 C   0  0  0  0  0  2  0  0  0  0  0  0
  184.0620  179.1740  143.5820 C   0  0  0  0  0  3  0  0  0  0  0  0
  184.8950  176.3290  137.3970 C   0  0  0  0  0  2  0  0  0  0  0  0
  183.7260  179.0620  139.8190 C   0  0  0  0  0  0  0  0  0  0  0  0
  183.9000  177.1910  138.1850 C   0  0  0  0  0  2  0  0  0  0  0  0
  187.5600  177.6220  146.6590 C   0  0  0  0  0  1  0  0  0  0  0  0
  187.7670  177.3020  144.1930 C   0  0  0  0  0  3  0  0  0  0  0  0
  184.2660  178.8590  141.1820 C   0  0  0  0  0  0  0  0  0  0  0  0
  185.9480  177.1830  136.7020 C   0  0  0  0  0  2  0  0  0  0  0  0
  185.9860  178.4940  138.9120 C   0  0  1  0  0  3  0  0  0  0  0  0
  187.5370  179.0650  137.0210 C   0  0  0  0  0  2  0  0  0  0  0  0
  189.0310  179.0350  137.3270 C   0  0  0  0  0  2  0  0  0  0  0  0
  189.9150  177.0100  138.5390 C   0  0  0  0  0  0  0  0  0  0  0  0
  189.5370  177.6680  137.3180 N   0  0  0  0  0  0  0  0  0  0  0  0
  190.3370  175.8220  138.5140 O   0  0  0  0  0  0  0  0  0  0  0  0
  189.7080  176.9900  136.0400 C   0  0  0  0  0  1  0  0  0  0  0  0
  190.4130  176.8400  140.9470 C   0  0  0  0  0  1  0  0  0  0  0  0
  189.8480  177.7200  139.8500 C   0  0  0  0  0  2  0  0  0  0  0  0
  1 21  1  6  0  0  0
  1 20  1  0  0  0  0
  2 17  1  0  0  0  0
  3 14  2  0  0  0  0
  4  9  2  0  0  0  0
  5  7  1  0  0  0  0
  6 16  1  0  0  0  0
  7  2  2  0  0  0  0
  7  4  1  0  0  0  0
  8 12  2  0  0  0  0
  9  6  1  0  0  0  0
 10 15  1  1  0  0  0
 10 20  1  0  0  0  0
 10 14  1  0  0  0  0
 11  5  1  0  0  0  0
 12  4  1  0  0  0  0
 13 15  1  0  0  0  0
 14 18  1  0  0  0  0
 17  6  2  0  0  0  0
 18  5  2  0  0  0  0
 18  8  1  0  0  0  0
 19 13  1  0  0  0  0
 19  1  1  0  0  0  0
 20 11  1  1  0  0  0
 21 22  1  0  0  0  0
 23 28  1  0  0  0  0
 24 22  1  0  0  0  0
 24 23  1  0  0  0  0
 25 23  2  0  0  0  0
 26 24  1  0  0  0  0
 28 27  1  0  0  0  0
M  END
>  <MODEL>
9

>  <REMARK>
 VINA RESULT:      -7.2      4.296      6.032
  Name = 
  4 active torsions:
  status: ('A' for Active; 'I' for Inactive)
    1  A    between atoms: C_1  and  C_2
    2  A    between atoms: C_2  and  C_3
    3  A    between atoms: C_3  and  N_7
    4  A    between atoms: C_6  and  C_11
                            x       y       z     vdW  Elec       q    Type
                         _______ _______ _______ _____ _____    ______ ____

>  <TORSDO>
F 4

$$$$
