=
 OpenBabel10272401533D

 28 32  0  0  0  0  0  0  0  0999 V2000
  187.4780  178.3750  140.7820 N   0  0  0  0  0  0  0  0  0  0  0  0
  190.3630  177.2010  144.7120 C   0  0  0  0  0  3  0  0  0  0  0  0
  184.3520  178.5400  144.4220 C   0  0  0  0  0  1  0  0  0  0  0  0
  188.7950  177.2790  146.5690 C   0  0  0  0  0  0  0  0  0  0  0  0
  188.0160  177.7690  144.3120 C   0  0  0  0  0  0  0  0  0  0  0  0
  191.1170  176.7160  146.9630 C   0  0  0  0  0  0  0  0  0  0  0  0
  189.0610  177.4180  145.1860 C   0  0  0  0  0  0  0  0  0  0  0  0
  186.4720  177.8360  146.1870 C   0  0  0  0  0  3  0  0  0  0  0  0
  189.8230  176.9300  147.4480 C   0  0  0  0  0  3  0  0  0  0  0  0
  185.9770  178.4460  142.5950 C   0  0  0  0  0  0  0  0  0  0  0  0
  188.2370  177.9110  142.9800 N   0  0  0  0  0  0  0  0  0  0  0  0
  187.5050  177.4900  147.0590 C   0  0  0  0  0  3  0  0  0  0  0  0
  185.2350  178.9010  140.3970 C   0  0  0  0  0  3  0  0  0  0  0  0
  185.7130  178.3170  143.9350 N   0  0  0  0  0  0  0  0  0  0  0  0
  184.9830  178.7760  141.7230 N   0  0  0  0  0  0  0  0  0  0  0  0
  192.1120  176.3770  147.8180 F   0  0  0  0  0  0  0  0  0  0  0  0
  191.3870  176.8510  145.5980 C   0  0  0  0  0  3  0  0  0  0  0  0
  186.7120  177.9800  144.8100 C   0  0  0  0  0  0  0  0  0  0  0  0
  186.4930  178.6940  139.9410 N   0  0  0  0  0  0  0  0  0  0  0  0
  187.2340  178.2440  142.1220 C   0  0  0  0  0  0  0  0  0  0  0  0
  188.8120  178.1460  140.2350 C   0  0  0  0  0  2  0  0  0  0  0  0
  188.7280  177.8240  138.7800 C   0  0  0  0  0  0  0  0  0  0  0  0
  188.6260  177.2090  136.0540 C   0  0  0  0  0  0  0  0  0  0  0  0
  188.4060  176.5270  138.3670 C   0  0  0  0  0  3  0  0  0  0  0  0
  189.0080  178.8110  137.8290 C   0  0  0  0  0  3  0  0  0  0  0  0
  188.9550  178.5040  136.4660 C   0  0  0  0  0  3  0  0  0  0  0  0
  188.5600  176.8250  134.3470 Cl  0  0  0  0  0  0  0  0  0  0  0  0
  188.3520  176.2200  137.0030 C   0  0  0  0  0  3  0  0  0  0  0  0
  1 20  1  0  0  0  0
  2  7  2  0  0  0  0
  2 17  1  0  0  0  0
  4 12  1  0  0  0  0
  4  9  2  0  0  0  0
  5 18  2  0  0  0  0
  5  7  1  0  0  0  0
  6  9  1  0  0  0  0
  6 16  1  0  0  0  0
  7  4  1  0  0  0  0
  8 12  2  0  0  0  0
 10 14  1  0  0  0  0
 11  5  1  0  0  0  0
 13 15  1  0  0  0  0
 14  3  1  0  0  0  0
 14 18  1  0  0  0  0
 15 10  2  0  0  0  0
 17  6  2  0  0  0  0
 18  8  1  0  0  0  0
 19 13  2  0  0  0  0
 19  1  1  0  0  0  0
 20 10  1  0  0  0  0
 20 11  2  0  0  0  0
 21  1  1  0  0  0  0
 22 21  1  0  0  0  0
 23 26  2  0  0  0  0
 23 28  1  0  0  0  0
 24 22  1  0  0  0  0
 25 22  2  0  0  0  0
 26 25  1  0  0  0  0
 27 23  1  0  0  0  0
 28 24  2  0  0  0  0
M  END
>  <MODEL>
1

>  <REMARK>
 VINA RESULT:     -10.6      0.000      0.000
  Name = 
  2 active torsions:
  status: ('A' for Active; 'I' for Inactive)
    1  A    between atoms: N_1  and  C_2
    2  A    between atoms: C_2  and  C_3
                            x       y       z     vdW  Elec       q    Type
                         _______ _______ _______ _____ _____    ______ ____

>  <TORSDO>
F 2

$$$$
=
 OpenBabel10272401533D

 28 32  0  0  0  0  0  0  0  0999 V2000
  186.4890  178.5780  140.6860 N   0  0  0  0  0  0  0  0  0  0  0  0
  187.0040  178.1260  145.6540 C   0  0  0  0  0  3  0  0  0  0  0  0
  190.9790  176.9260  141.0960 C   0  0  0  0  0  1  0  0  0  0  0  0
  189.2760  177.2890  145.8820 C   0  0  0  0  0  0  0  0  0  0  0  0
  188.3710  177.7300  143.6620 C   0  0  0  0  0  0  0  0  0  0  0  0
  187.9220  177.6810  147.8510 C   0  0  0  0  0  0  0  0  0  0  0  0
  188.2070  177.7180  145.0590 C   0  0  0  0  0  0  0  0  0  0  0  0
  190.6400  176.8960  143.9220 C   0  0  0  0  0  3  0  0  0  0  0  0
  189.1270  177.2730  147.2710 C   0  0  0  0  0  3  0  0  0  0  0  0
  188.6870  177.7660  140.9300 C   0  0  0  0  0  0  0  0  0  0  0  0
  187.3670  178.1360  142.8440 N   0  0  0  0  0  0  0  0  0  0  0  0
  190.4820  176.8810  145.3090 C   0  0  0  0  0  3  0  0  0  0  0  0
  187.8000  178.2160  138.7860 C   0  0  0  0  0  3  0  0  0  0  0  0
  189.7250  177.3440  141.7220 N   0  0  0  0  0  0  0  0  0  0  0  0
  188.8190  177.7980  139.5750 N   0  0  0  0  0  0  0  0  0  0  0  0
  187.7810  177.6650  149.1990 F   0  0  0  0  0  0  0  0  0  0  0  0
  186.8630  178.1070  147.0450 C   0  0  0  0  0  3  0  0  0  0  0  0
  189.5920  177.3190  143.0850 C   0  0  0  0  0  0  0  0  0  0  0  0
  186.6370  178.6070  139.3610 N   0  0  0  0  0  0  0  0  0  0  0  0
  187.5140  178.1590  141.4910 C   0  0  0  0  0  0  0  0  0  0  0  0
  185.2220  179.0260  141.2540 C   0  0  0  0  0  2  0  0  0  0  0  0
  184.0920  178.6780  140.3430 C   0  0  0  0  0  0  0  0  0  0  0  0
  181.9400  178.0460  138.6730 C   0  0  0  0  0  0  0  0  0  0  0  0
  183.6920  179.5760  139.3480 C   0  0  0  0  0  3  0  0  0  0  0  0
  183.4100  177.4680  140.5080 C   0  0  0  0  0  3  0  0  0  0  0  0
  182.3350  177.1510  139.6720 C   0  0  0  0  0  3  0  0  0  0  0  0
  180.5940  177.6490  137.6260 Cl  0  0  0  0  0  0  0  0  0  0  0  0
  182.6170  179.2590  138.5110 C   0  0  0  0  0  3  0  0  0  0  0  0
  1 21  1  0  0  0  0
  1 20  1  0  0  0  0
  2 17  1  0  0  0  0
  3 14  1  0  0  0  0
  4  9  2  0  0  0  0
  5  7  1  0  0  0  0
  6 16  1  0  0  0  0
  7  2  2  0  0  0  0
  7  4  1  0  0  0  0
  8 12  2  0  0  0  0
  9  6  1  0  0  0  0
 10 20  1  0  0  0  0
 10 14  1  0  0  0  0
 11  5  1  0  0  0  0
 12  4  1  0  0  0  0
 13 19  2  0  0  0  0
 13 15  1  0  0  0  0
 14 18  1  0  0  0  0
 15 10  2  0  0  0  0
 17  6  2  0  0  0  0
 18  5  2  0  0  0  0
 18  8  1  0  0  0  0
 19  1  1  0  0  0  0
 20 11  2  0  0  0  0
 22 25  1  0  0  0  0
 22 21  1  0  0  0  0
 23 26  1  0  0  0  0
 24 22  2  0  0  0  0
 26 25  2  0  0  0  0
 27 23  1  0  0  0  0
 28 23  2  0  0  0  0
 28 24  1  0  0  0  0
M  END
>  <MODEL>
2

>  <REMARK>
 VINA RESULT:     -10.1      2.488      4.567
  Name = 
  2 active torsions:
  status: ('A' for Active; 'I' for Inactive)
    1  A    between atoms: N_1  and  C_2
    2  A    between atoms: C_2  and  C_3
                            x       y       z     vdW  Elec       q    Type
                         _______ _______ _______ _____ _____    ______ ____

>  <TORSDO>
F 2

$$$$
=
 OpenBabel10272401533D

 28 32  0  0  0  0  0  0  0  0999 V2000
  189.8880  177.0040  142.4140 N   0  0  0  0  0  0  0  0  0  0  0  0
  185.1000  178.4440  142.7980 C   0  0  0  0  0  3  0  0  0  0  0  0
  189.2540  177.1610  147.1710 C   0  0  0  0  0  1  0  0  0  0  0  0
  184.7590  178.5300  145.2040 C   0  0  0  0  0  0  0  0  0  0  0  0
  186.9330  177.8760  144.3180 C   0  0  0  0  0  0  0  0  0  0  0  0
  182.9470  179.0930  143.7000 C   0  0  0  0  0  0  0  0  0  0  0  0
  185.6040  178.2810  144.0970 C   0  0  0  0  0  0  0  0  0  0  0  0
  186.5630  177.9740  146.7180 C   0  0  0  0  0  3  0  0  0  0  0  0
  183.4370  178.9340  144.9990 C   0  0  0  0  0  3  0  0  0  0  0  0
  189.5350  177.0930  144.7410 C   0  0  0  0  0  0  0  0  0  0  0  0
  187.7700  177.6280  143.2780 N   0  0  0  0  0  0  0  0  0  0  0  0
  185.2430  178.3740  146.5040 C   0  0  0  0  0  3  0  0  0  0  0  0
  191.6430  176.4770  143.8640 C   0  0  0  0  0  3  0  0  0  0  0  0
  188.7210  177.3290  145.8190 N   0  0  0  0  0  0  0  0  0  0  0  0
  190.8300  176.7080  144.9230 N   0  0  0  0  0  0  0  0  0  0  0  0
  181.6650  179.4860  143.5040 F   0  0  0  0  0  0  0  0  0  0  0  0
  183.7760  178.8490  142.6010 C   0  0  0  0  0  3  0  0  0  0  0  0
  187.4210  177.7210  145.6330 C   0  0  0  0  0  0  0  0  0  0  0  0
  191.1540  176.6320  142.6100 N   0  0  0  0  0  0  0  0  0  0  0  0
  189.0600  177.2420  143.4770 C   0  0  0  0  0  0  0  0  0  0  0  0
  189.4180  177.1730  141.0420 C   0  0  0  0  0  2  0  0  0  0  0  0
  190.5230  176.9000  140.0770 C   0  0  0  0  0  0  0  0  0  0  0  0
  192.5770  176.4310  138.2380 C   0  0  0  0  0  0  0  0  0  0  0  0
  191.7890  177.4590  140.2850 C   0  0  0  0  0  3  0  0  0  0  0  0
  190.2830  176.1140  138.9450 C   0  0  0  0  0  3  0  0  0  0  0  0
  191.3110  175.8780  138.0270 C   0  0  0  0  0  3  0  0  0  0  0  0
  193.8640  176.1350  137.0880 Cl  0  0  0  0  0  0  0  0  0  0  0  0
  192.8170  177.2220  139.3660 C   0  0  0  0  0  3  0  0  0  0  0  0
  1 19  1  0  0  0  0
  1 20  1  0  0  0  0
  2  7  1  0  0  0  0
  4 12  1  0  0  0  0
  5 18  2  0  0  0  0
  6  9  2  0  0  0  0
  7  5  1  0  0  0  0
  7  4  2  0  0  0  0
  9  4  1  0  0  0  0
 10 15  2  0  0  0  0
 10 14  1  0  0  0  0
 11 20  2  0  0  0  0
 11  5  1  0  0  0  0
 12  8  2  0  0  0  0
 13 15  1  0  0  0  0
 14  3  1  0  0  0  0
 16  6  1  0  0  0  0
 17  2  2  0  0  0  0
 17  6  1  0  0  0  0
 18 14  1  0  0  0  0
 18  8  1  0  0  0  0
 19 13  2  0  0  0  0
 20 10  1  0  0  0  0
 21  1  1  0  0  0  0
 22 24  1  0  0  0  0
 22 21  1  0  0  0  0
 23 28  1  0  0  0  0
 25 22  2  0  0  0  0
 26 23  2  0  0  0  0
 26 25  1  0  0  0  0
 27 23  1  0  0  0  0
 28 24  2  0  0  0  0
M  END
>  <MODEL>
3

>  <REMARK>
 VINA RESULT:     -10.0      3.234      5.257
  Name = 
  2 active torsions:
  status: ('A' for Active; 'I' for Inactive)
    1  A    between atoms: N_1  and  C_2
    2  A    between atoms: C_2  and  C_3
                            x       y       z     vdW  Elec       q    Type
                         _______ _______ _______ _____ _____    ______ ____

>  <TORSDO>
F 2

$$$$
=
 OpenBabel10272401533D

 28 32  0  0  0  0  0  0  0  0999 V2000
  190.0880  177.7200  139.7060 N   0  0  0  0  0  0  0  0  0  0  0  0
  191.2070  176.8030  144.5070 C   0  0  0  0  0  3  0  0  0  0  0  0
  185.9010  178.5570  141.9020 C   0  0  0  0  0  1  0  0  0  0  0  0
  189.0950  177.2220  145.6380 C   0  0  0  0  0  0  0  0  0  0  0  0
  189.2440  177.4990  143.2210 C   0  0  0  0  0  0  0  0  0  0  0  0
  191.0370  176.5330  146.9090 C   0  0  0  0  0  0  0  0  0  0  0  0
  189.8560  177.1750  144.4450 C   0  0  0  0  0  0  0  0  0  0  0  0
  187.1460  177.9070  144.3790 C   0  0  0  0  0  3  0  0  0  0  0  0
  189.6900  176.9010  146.8610 C   0  0  0  0  0  3  0  0  0  0  0  0
  188.0530  178.1220  140.8210 C   0  0  0  0  0  0  0  0  0  0  0  0
  189.9440  177.4640  142.0590 N   0  0  0  0  0  0  0  0  0  0  0  0
  187.7480  177.5880  145.5960 C   0  0  0  0  0  3  0  0  0  0  0  0
  188.2100  178.3680  138.4750 C   0  0  0  0  0  3  0  0  0  0  0  0
  187.3100  178.1740  141.9740 N   0  0  0  0  0  0  0  0  0  0  0  0
  187.4850  178.4210  139.6190 N   0  0  0  0  0  0  0  0  0  0  0  0
  191.6120  176.2220  148.0960 F   0  0  0  0  0  0  0  0  0  0  0  0
  191.7950  176.4830  145.7350 C   0  0  0  0  0  3  0  0  0  0  0  0
  187.8820  177.8670  143.1810 C   0  0  0  0  0  0  0  0  0  0  0  0
  189.5160  178.0120  138.5360 N   0  0  0  0  0  0  0  0  0  0  0  0
  189.3630  177.7690  140.8660 C   0  0  0  0  0  0  0  0  0  0  0  0
  191.4930  177.3260  139.7120 C   0  0  0  0  0  2  0  0  0  0  0  0
  191.7790  176.4020  138.5760 C   0  0  0  0  0  0  0  0  0  0  0  0
  192.3430  174.6380  136.4800 C   0  0  0  0  0  0  0  0  0  0  0  0
  190.8910  175.3630  138.2780 C   0  0  0  0  0  3  0  0  0  0  0  0
  192.9530  176.5530  137.8310 C   0  0  0  0  0  3  0  0  0  0  0  0
  193.2350  175.6720  136.7820 C   0  0  0  0  0  3  0  0  0  0  0  0
  192.6950  173.5360  135.1670 Cl  0  0  0  0  0  0  0  0  0  0  0  0
  191.1720  174.4820  137.2280 C   0  0  0  0  0  3  0  0  0  0  0  0
  1 21  1  0  0  0  0
  1 20  1  0  0  0  0
  2 17  1  0  0  0  0
  3 14  1  0  0  0  0
  4  9  2  0  0  0  0
  5  7  1  0  0  0  0
  6 16  1  0  0  0  0
  7  2  2  0  0  0  0
  7  4  1  0  0  0  0
  8 12  2  0  0  0  0
  9  6  1  0  0  0  0
 10 20  1  0  0  0  0
 10 14  1  0  0  0  0
 11  5  1  0  0  0  0
 12  4  1  0  0  0  0
 13 19  2  0  0  0  0
 13 15  1  0  0  0  0
 14 18  1  0  0  0  0
 15 10  2  0  0  0  0
 17  6  2  0  0  0  0
 18  5  2  0  0  0  0
 18  8  1  0  0  0  0
 19  1  1  0  0  0  0
 20 11  2  0  0  0  0
 22 21  1  0  0  0  0
 23 26  2  0  0  0  0
 23 28  1  0  0  0  0
 24 22  1  0  0  0  0
 25 22  2  0  0  0  0
 26 25  1  0  0  0  0
 27 23  1  0  0  0  0
 28 24  2  0  0  0  0
M  END
>  <MODEL>
4

>  <REMARK>
 VINA RESULT:      -9.8      2.434      2.853
  Name = 
  2 active torsions:
  status: ('A' for Active; 'I' for Inactive)
    1  A    between atoms: N_1  and  C_2
    2  A    between atoms: C_2  and  C_3
                            x       y       z     vdW  Elec       q    Type
                         _______ _______ _______ _____ _____    ______ ____

>  <TORSDO>
F 2

$$$$
=
 OpenBabel10272401533D

 28 32  0  0  0  0  0  0  0  0999 V2000
  189.5900  177.9040  140.4390 N   0  0  0  0  0  0  0  0  0  0  0  0
  185.3570  178.6250  143.0290 C   0  0  0  0  0  3  0  0  0  0  0  0
  190.9710  176.9280  144.9330 C   0  0  0  0  0  1  0  0  0  0  0  0
  186.0370  178.1350  145.3120 C   0  0  0  0  0  0  0  0  0  0  0  0
  187.6660  177.9640  143.5060 C   0  0  0  0  0  0  0  0  0  0  0  0
  183.7550  178.7890  144.8380 C   0  0  0  0  0  0  0  0  0  0  0  0
  186.3560  178.2420  143.9370 C   0  0  0  0  0  0  0  0  0  0  0  0
  188.3160  177.4840  145.7980 C   0  0  0  0  0  3  0  0  0  0  0  0
  184.7400  178.4090  145.7530 C   0  0  0  0  0  3  0  0  0  0  0  0
  190.2270  177.4330  142.6570 C   0  0  0  0  0  0  0  0  0  0  0  0
  188.0050  178.0570  142.1950 N   0  0  0  0  0  0  0  0  0  0  0  0
  187.0180  177.7560  146.2310 C   0  0  0  0  0  3  0  0  0  0  0  0
  191.7980  177.2900  140.8960 C   0  0  0  0  0  3  0  0  0  0  0  0
  189.9250  177.3230  143.9910 N   0  0  0  0  0  0  0  0  0  0  0  0
  191.4890  177.1800  142.2110 N   0  0  0  0  0  0  0  0  0  0  0  0
  182.4980  179.0550  145.2700 F   0  0  0  0  0  0  0  0  0  0  0  0
  184.0620  178.8980  143.4790 C   0  0  0  0  0  3  0  0  0  0  0  0
  188.6550  177.5840  144.4380 C   0  0  0  0  0  0  0  0  0  0  0  0
  190.8320  177.6570  140.0190 N   0  0  0  0  0  0  0  0  0  0  0  0
  189.2700  177.7980  141.7650 C   0  0  0  0  0  0  0  0  0  0  0  0
  188.5930  178.3130  139.4550 C   0  0  0  0  0  2  0  0  0  0  0  0
  188.7660  177.5420  138.1890 C   0  0  0  0  0  0  0  0  0  0  0  0
  189.1440  176.0920  135.8280 C   0  0  0  0  0  0  0  0  0  0  0  0
  188.5520  176.1600  138.1750 C   0  0  0  0  0  3  0  0  0  0  0  0
  189.1790  178.1970  137.0230 C   0  0  0  0  0  3  0  0  0  0  0  0
  189.3660  177.4720  135.8420 C   0  0  0  0  0  3  0  0  0  0  0  0
  189.3780  175.1840  134.3490 Cl  0  0  0  0  0  0  0  0  0  0  0  0
  188.7380  175.4350  136.9930 C   0  0  0  0  0  3  0  0  0  0  0  0
  1 20  1  0  0  0  0
  2 17  2  0  0  0  0
  2  7  1  0  0  0  0
  4  9  1  0  0  0  0
  4 12  1  0  0  0  0
  5  7  1  0  0  0  0
  5 18  2  0  0  0  0
  6 16  1  0  0  0  0
  6  9  2  0  0  0  0
  7  4  2  0  0  0  0
  8 12  2  0  0  0  0
 10 14  1  0  0  0  0
 11  5  1  0  0  0  0
 13 15  1  0  0  0  0
 14 18  1  0  0  0  0
 14  3  1  0  0  0  0
 15 10  2  0  0  0  0
 17  6  1  0  0  0  0
 18  8  1  0  0  0  0
 19  1  1  0  0  0  0
 19 13  2  0  0  0  0
 20 11  2  0  0  0  0
 20 10  1  0  0  0  0
 21  1  1  0  0  0  0
 22 21  1  0  0  0  0
 23 26  2  0  0  0  0
 23 28  1  0  0  0  0
 24 22  1  0  0  0  0
 25 22  2  0  0  0  0
 26 25  1  0  0  0  0
 27 23  1  0  0  0  0
 28 24  2  0  0  0  0
M  END
>  <MODEL>
5

>  <REMARK>
 VINA RESULT:      -9.8      2.492      4.377
  Name = 
  2 active torsions:
  status: ('A' for Active; 'I' for Inactive)
    1  A    between atoms: N_1  and  C_2
    2  A    between atoms: C_2  and  C_3
                            x       y       z     vdW  Elec       q    Type
                         _______ _______ _______ _____ _____    ______ ____

>  <TORSDO>
F 2

$$$$
=
 OpenBabel10272401533D

 28 32  0  0  0  0  0  0  0  0999 V2000
  189.4760  177.7770  139.6080 N   0  0  0  0  0  0  0  0  0  0  0  0
  189.0300  177.2970  144.5800 C   0  0  0  0  0  3  0  0  0  0  0  0
  184.9150  179.0830  140.3490 C   0  0  0  0  0  1  0  0  0  0  0  0
  186.7230  177.9550  144.9760 C   0  0  0  0  0  0  0  0  0  0  0  0
  187.6080  177.9710  142.7050 C   0  0  0  0  0  0  0  0  0  0  0  0
  188.1300  177.2880  146.8300 C   0  0  0  0  0  0  0  0  0  0  0  0
  187.7960  177.7400  144.0790 C   0  0  0  0  0  0  0  0  0  0  0  0
  185.3050  178.6200  143.1310 C   0  0  0  0  0  3  0  0  0  0  0  0
  186.8960  177.7290  146.3440 C   0  0  0  0  0  3  0  0  0  0  0  0
  187.2440  178.4110  140.0150 C   0  0  0  0  0  0  0  0  0  0  0  0
  188.6170  177.7740  141.8180 N   0  0  0  0  0  0  0  0  0  0  0  0
  185.4870  178.3940  144.4960 C   0  0  0  0  0  3  0  0  0  0  0  0
  188.1140  178.4030  137.8160 C   0  0  0  0  0  3  0  0  0  0  0  0
  186.2000  178.6260  140.8780 N   0  0  0  0  0  0  0  0  0  0  0  0
  187.0890  178.6170  138.6770 N   0  0  0  0  0  0  0  0  0  0  0  0
  188.2950  177.0680  148.1570 F   0  0  0  0  0  0  0  0  0  0  0  0
  189.1950  177.0720  145.9500 C   0  0  0  0  0  3  0  0  0  0  0  0
  186.3570  178.4130  142.2230 C   0  0  0  0  0  0  0  0  0  0  0  0
  189.3060  177.9790  138.3010 N   0  0  0  0  0  0  0  0  0  0  0  0
  188.4460  177.9880  140.4850 C   0  0  0  0  0  0  0  0  0  0  0  0
  190.7750  177.3030  140.0750 C   0  0  0  0  0  2  0  0  0  0  0  0
  191.4670  176.5380  138.9960 C   0  0  0  0  0  0  0  0  0  0  0  0
  192.7880  175.0750  137.0130 C   0  0  0  0  0  0  0  0  0  0  0  0
  190.8450  175.4290  138.4130 C   0  0  0  0  0  3  0  0  0  0  0  0
  192.7540  176.9100  138.5920 C   0  0  0  0  0  3  0  0  0  0  0  0
  193.4140  176.1790  137.5990 C   0  0  0  0  0  3  0  0  0  0  0  0
  193.6150  174.1600  135.7690 Cl  0  0  0  0  0  0  0  0  0  0  0  0
  191.5050  174.6980  137.4190 C   0  0  0  0  0  3  0  0  0  0  0  0
  1 21  1  0  0  0  0
  1 20  1  0  0  0  0
  2 17  1  0  0  0  0
  3 14  1  0  0  0  0
  4  9  2  0  0  0  0
  5  7  1  0  0  0  0
  6 16  1  0  0  0  0
  7  2  2  0  0  0  0
  7  4  1  0  0  0  0
  8 12  2  0  0  0  0
  9  6  1  0  0  0  0
 10 20  1  0  0  0  0
 10 14  1  0  0  0  0
 11  5  1  0  0  0  0
 12  4  1  0  0  0  0
 13 19  2  0  0  0  0
 13 15  1  0  0  0  0
 14 18  1  0  0  0  0
 15 10  2  0  0  0  0
 17  6  2  0  0  0  0
 18  5  2  0  0  0  0
 18  8  1  0  0  0  0
 19  1  1  0  0  0  0
 20 11  2  0  0  0  0
 22 21  1  0  0  0  0
 23 28  2  0  0  0  0
 23 26  1  0  0  0  0
 24 22  2  0  0  0  0
 25 22  1  0  0  0  0
 26 25  2  0  0  0  0
 27 23  1  0  0  0  0
 28 24  1  0  0  0  0
M  END
>  <MODEL>
6

>  <REMARK>
 VINA RESULT:      -9.8      2.504      3.310
  Name = 
  2 active torsions:
  status: ('A' for Active; 'I' for Inactive)
    1  A    between atoms: N_1  and  C_2
    2  A    between atoms: C_2  and  C_3
                            x       y       z     vdW  Elec       q    Type
                         _______ _______ _______ _____ _____    ______ ____

>  <TORSDO>
F 2

$$$$
=
 OpenBabel10272401533D

 28 32  0  0  0  0  0  0  0  0999 V2000
  189.0890  177.8370  139.1780 N   0  0  0  0  0  0  0  0  0  0  0  0
  185.4040  178.6890  142.4700 C   0  0  0  0  0  3  0  0  0  0  0  0
  191.0350  176.3170  143.2960 C   0  0  0  0  0  1  0  0  0  0  0  0
  186.3720  177.9250  144.5660 C   0  0  0  0  0  0  0  0  0  0  0  0
  187.6760  177.7800  142.5120 C   0  0  0  0  0  0  0  0  0  0  0  0
  184.1240  178.8250  144.5230 C   0  0  0  0  0  0  0  0  0  0  0  0
  186.4840  178.1330  143.1700 C   0  0  0  0  0  0  0  0  0  0  0  0
  188.6180  177.0270  144.6220 C   0  0  0  0  0  3  0  0  0  0  0  0
  185.1940  178.2720  145.2330 C   0  0  0  0  0  3  0  0  0  0  0  0
  190.0070  177.1020  141.2180 C   0  0  0  0  0  0  0  0  0  0  0  0
  187.8170  177.9660  141.1750 N   0  0  0  0  0  0  0  0  0  0  0  0
  187.4370  177.3730  145.2800 C   0  0  0  0  0  3  0  0  0  0  0  0
  191.2640  176.9850  139.2200 C   0  0  0  0  0  3  0  0  0  0  0  0
  189.9030  176.8930  142.5710 N   0  0  0  0  0  0  0  0  0  0  0  0
  191.1520  176.7790  140.5550 N   0  0  0  0  0  0  0  0  0  0  0  0
  182.9840  179.1610  145.1730 F   0  0  0  0  0  0  0  0  0  0  0  0
  184.2290  179.0340  143.1450 C   0  0  0  0  0  3  0  0  0  0  0  0
  188.7520  177.2240  143.2370 C   0  0  0  0  0  0  0  0  0  0  0  0
  190.2190  177.5200  138.5440 N   0  0  0  0  0  0  0  0  0  0  0  0
  188.9670  177.6350  140.5260 C   0  0  0  0  0  0  0  0  0  0  0  0
  188.0010  178.4270  138.4040 C   0  0  0  0  0  2  0  0  0  0  0  0
  187.1000  177.3600  137.8780 C   0  0  0  0  0  0  0  0  0  0  0  0
  185.4160  175.3820  136.8410 C   0  0  0  0  0  0  0  0  0  0  0  0
  187.6350  176.1410  137.4470 C   0  0  0  0  0  3  0  0  0  0  0  0
  185.7240  177.5920  137.7810 C   0  0  0  0  0  3  0  0  0  0  0  0
  184.8820  176.6030  137.2650 C   0  0  0  0  0  3  0  0  0  0  0  0
  184.3620  174.1430  136.1950 Cl  0  0  0  0  0  0  0  0  0  0  0  0
  186.7920  175.1500  136.9310 C   0  0  0  0  0  3  0  0  0  0  0  0
  1 20  1  0  0  0  0
  2 17  2  0  0  0  0
  2  7  1  0  0  0  0
  4  9  1  0  0  0  0
  4 12  1  0  0  0  0
  5  7  1  0  0  0  0
  5 18  2  0  0  0  0
  6 16  1  0  0  0  0
  6  9  2  0  0  0  0
  7  4  2  0  0  0  0
  8 12  2  0  0  0  0
 10 14  1  0  0  0  0
 11  5  1  0  0  0  0
 13 15  1  0  0  0  0
 14 18  1  0  0  0  0
 14  3  1  0  0  0  0
 15 10  2  0  0  0  0
 17  6  1  0  0  0  0
 18  8  1  0  0  0  0
 19  1  1  0  0  0  0
 19 13  2  0  0  0  0
 20 11  2  0  0  0  0
 20 10  1  0  0  0  0
 21  1  1  0  0  0  0
 22 21  1  0  0  0  0
 23 28  2  0  0  0  0
 23 26  1  0  0  0  0
 24 22  2  0  0  0  0
 25 22  1  0  0  0  0
 26 25  2  0  0  0  0
 27 23  1  0  0  0  0
 28 24  1  0  0  0  0
M  END
>  <MODEL>
7

>  <REMARK>
 VINA RESULT:      -9.4      2.846      4.706
  Name = 
  2 active torsions:
  status: ('A' for Active; 'I' for Inactive)
    1  A    between atoms: N_1  and  C_2
    2  A    between atoms: C_2  and  C_3
                            x       y       z     vdW  Elec       q    Type
                         _______ _______ _______ _____ _____    ______ ____

>  <TORSDO>
F 2

$$$$
=
 OpenBabel10272401533D

 28 32  0  0  0  0  0  0  0  0999 V2000
  185.9790  178.7770  139.0820 N   0  0  0  0  0  0  0  0  0  0  0  0
  185.0990  178.6630  144.0180 C   0  0  0  0  0  3  0  0  0  0  0  0
  190.0780  176.9640  140.8040 C   0  0  0  0  0  1  0  0  0  0  0  0
  187.1670  177.7460  144.9090 C   0  0  0  0  0  0  0  0  0  0  0  0
  186.9270  178.0650  142.5050 C   0  0  0  0  0  0  0  0  0  0  0  0
  185.3570  178.3380  146.4050 C   0  0  0  0  0  0  0  0  0  0  0  0
  186.3900  178.1610  143.8010 C   0  0  0  0  0  0  0  0  0  0  0  0
  188.9840  177.1540  143.4250 C   0  0  0  0  0  3  0  0  0  0  0  0
  186.6460  177.8370  146.2020 C   0  0  0  0  0  3  0  0  0  0  0  0
  187.9730  177.8900  139.9670 C   0  0  0  0  0  0  0  0  0  0  0  0
  186.2090  178.4540  141.4200 N   0  0  0  0  0  0  0  0  0  0  0  0
  188.4550  177.2450  144.7130 C   0  0  0  0  0  3  0  0  0  0  0  0
  187.7310  178.2230  137.6390 C   0  0  0  0  0  3  0  0  0  0  0  0
  188.7300  177.4820  141.0360 N   0  0  0  0  0  0  0  0  0  0  0  0
  188.4700  177.8180  138.7000 N   0  0  0  0  0  0  0  0  0  0  0  0
  184.8550  178.4260  147.6610 F   0  0  0  0  0  0  0  0  0  0  0  0
  184.5850  178.7510  145.3160 C   0  0  0  0  0  3  0  0  0  0  0  0
  188.2310  177.5600  142.3100 C   0  0  0  0  0  0  0  0  0  0  0  0
  186.4820  178.7040  137.8490 N   0  0  0  0  0  0  0  0  0  0  0  0
  186.7190  178.3730  140.1610 C   0  0  0  0  0  0  0  0  0  0  0  0
  184.6350  179.3200  139.2540 C   0  0  0  0  0  2  0  0  0  0  0  0
  183.6320  178.2170  139.3080 C   0  0  0  0  0  0  0  0  0  0  0  0
  181.7850  176.1210  139.4420 C   0  0  0  0  0  0  0  0  0  0  0  0
  182.6250  178.2320  140.2790 C   0  0  0  0  0  3  0  0  0  0  0  0
  183.7200  177.1480  138.4090 C   0  0  0  0  0  3  0  0  0  0  0  0
  182.7950  176.1010  138.4750 C   0  0  0  0  0  3  0  0  0  0  0  0
  180.6280  174.8100  139.5250 Cl  0  0  0  0  0  0  0  0  0  0  0  0
  181.7000  177.1850  140.3450 C   0  0  0  0  0  3  0  0  0  0  0  0
  1 21  1  0  0  0  0
  1 20  1  0  0  0  0
  2 17  1  0  0  0  0
  3 14  1  0  0  0  0
  4  9  2  0  0  0  0
  5  7  1  0  0  0  0
  6 16  1  0  0  0  0
  7  2  2  0  0  0  0
  7  4  1  0  0  0  0
  8 12  2  0  0  0  0
  9  6  1  0  0  0  0
 10 20  1  0  0  0  0
 10 14  1  0  0  0  0
 11  5  1  0  0  0  0
 12  4  1  0  0  0  0
 13 19  2  0  0  0  0
 13 15  1  0  0  0  0
 14 18  1  0  0  0  0
 15 10  2  0  0  0  0
 17  6  2  0  0  0  0
 18  5  2  0  0  0  0
 18  8  1  0  0  0  0
 19  1  1  0  0  0  0
 20 11  2  0  0  0  0
 21 22  1  0  0  0  0
 22 24  1  0  0  0  0
 23 27  1  0  0  0  0
 23 28  1  0  0  0  0
 24 28  2  0  0  0  0
 25 26  1  0  0  0  0
 25 22  2  0  0  0  0
 26 23  2  0  0  0  0
M  END
>  <MODEL>
8

>  <REMARK>
 VINA RESULT:      -9.2      3.046      5.157
  Name = 
  2 active torsions:
  status: ('A' for Active; 'I' for Inactive)
    1  A    between atoms: N_1  and  C_2
    2  A    between atoms: C_2  and  C_3
                            x       y       z     vdW  Elec       q    Type
                         _______ _______ _______ _____ _____    ______ ____

>  <TORSDO>
F 2

$$$$
=
 OpenBabel10272401533D

 28 32  0  0  0  0  0  0  0  0999 V2000
  183.9060  178.6620  142.0050 N   0  0  0  0  0  0  0  0  0  0  0  0
  188.7860  177.5100  142.1010 C   0  0  0  0  0  3  0  0  0  0  0  0
  184.7830  178.3440  146.7160 C   0  0  0  0  0  1  0  0  0  0  0  0
  189.2500  177.3440  144.4820 C   0  0  0  0  0  0  0  0  0  0  0  0
  186.9990  177.8980  143.7280 C   0  0  0  0  0  0  0  0  0  0  0  0
  191.0160  176.9600  142.8710 C   0  0  0  0  0  0  0  0  0  0  0  0
  188.3370  177.5860  143.4280 C   0  0  0  0  0  0  0  0  0  0  0  0
  187.4920  177.7210  146.1020 C   0  0  0  0  0  3  0  0  0  0  0  0
  190.5820  177.0330  144.1970 C   0  0  0  0  0  3  0  0  0  0  0  0
  184.3780  178.4970  144.3070 C   0  0  0  0  0  0  0  0  0  0  0  0
  186.0980  178.1360  142.7410 N   0  0  0  0  0  0  0  0  0  0  0  0
  188.8220  177.4140  145.8090 C   0  0  0  0  0  3  0  0  0  0  0  0
  182.1970  179.0160  143.5580 C   0  0  0  0  0  3  0  0  0  0  0  0
  185.2580  178.2670  145.3350 N   0  0  0  0  0  0  0  0  0  0  0  0
  183.0730  178.7910  144.5670 N   0  0  0  0  0  0  0  0  0  0  0  0
  192.3090  176.6570  142.5980 F   0  0  0  0  0  0  0  0  0  0  0  0
  190.1210  177.1970  141.8240 C   0  0  0  0  0  3  0  0  0  0  0  0
  186.5690  177.9660  145.0700 C   0  0  0  0  0  0  0  0  0  0  0  0
  182.6310  178.9440  142.2770 N   0  0  0  0  0  0  0  0  0  0  0  0
  184.7990  178.4320  143.0170 C   0  0  0  0  0  0  0  0  0  0  0  0
  184.3170  178.5810  140.6070 C   0  0  0  0  0  2  0  0  0  0  0  0
  183.2320  177.9750  139.7810 C   0  0  0  0  0  0  0  0  0  0  0  0
  181.2360  176.8300  138.1930 C   0  0  0  0  0  0  0  0  0  0  0  0
  182.9260  176.6170  139.9140 C   0  0  0  0  0  3  0  0  0  0  0  0
  182.5460  178.7580  138.8470 C   0  0  0  0  0  3  0  0  0  0  0  0
  181.5460  178.1860  138.0540 C   0  0  0  0  0  3  0  0  0  0  0  0
  179.9840  176.1140  137.2000 Cl  0  0  0  0  0  0  0  0  0  0  0  0
  181.9250  176.0440  139.1210 C   0  0  0  0  0  3  0  0  0  0  0  0
  1 19  1  0  0  0  0
  1 20  1  0  0  0  0
  2  7  1  0  0  0  0
  4 12  1  0  0  0  0
  5 18  2  0  0  0  0
  6  9  2  0  0  0  0
  7  5  1  0  0  0  0
  7  4  2  0  0  0  0
  9  4  1  0  0  0  0
 10 15  2  0  0  0  0
 10 14  1  0  0  0  0
 11 20  2  0  0  0  0
 11  5  1  0  0  0  0
 12  8  2  0  0  0  0
 13 15  1  0  0  0  0
 14  3  1  0  0  0  0
 16  6  1  0  0  0  0
 17  2  2  0  0  0  0
 17  6  1  0  0  0  0
 18 14  1  0  0  0  0
 18  8  1  0  0  0  0
 19 13  2  0  0  0  0
 20 10  1  0  0  0  0
 21  1  1  0  0  0  0
 22 24  1  0  0  0  0
 22 21  1  0  0  0  0
 23 28  1  0  0  0  0
 25 22  2  0  0  0  0
 26 23  2  0  0  0  0
 26 25  1  0  0  0  0
 27 23  1  0  0  0  0
 28 24  2  0  0  0  0
M  END
>  <MODEL>
9

>  <REMARK>
 VINA RESULT:      -9.2      3.268      4.460
  Name = 
  2 active torsions:
  status: ('A' for Active; 'I' for Inactive)
    1  A    between atoms: N_1  and  C_2
    2  A    between atoms: C_2  and  C_3
                            x       y       z     vdW  Elec       q    Type
                         _______ _______ _______ _____ _____    ______ ____

>  <TORSDO>
F 2

$$$$
