=
 OpenBabel10272401013D

 27 32  0  0  1  0  0  0  0  0999 V2000
  188.5840  177.9910  137.2690 C   0  0  2  0  0  0  0  0  0  0  0  0
  186.7790  178.5030  138.9970 C   0  0  1  0  0  3  0  0  0  0  0  0
  189.0190  177.6600  139.7650 C   0  0  0  0  0  2  0  0  0  0  0  0
  185.4390  178.7730  143.1180 C   0  0  0  0  0  2  0  0  0  0  0  0
  185.8320  178.4180  145.5430 C   0  0  0  0  0  1  0  0  0  0  0  0
  185.2810  178.6040  139.2870 C   0  0  0  0  0  2  0  0  0  0  0  0
  187.8560  177.2270  142.5090 C   0  0  0  0  0  2  0  0  0  0  0  0
  191.1080  175.5240  137.8170 C   0  0  0  0  0  2  0  0  0  0  0  0
  187.5860  177.7570  143.9140 C   0  0  0  0  0  2  0  0  0  0  0  0
  191.0680  176.4930  136.6520 C   0  0  2  0  0  3  0  0  0  0  0  0
  187.5140  177.6420  140.0470 C   0  0  1  0  0  3  0  0  0  0  0  0
  187.0640  178.0270  137.5550 C   0  0  2  0  0  3  0  0  0  0  0  0
  186.0820  177.8610  144.1580 C   0  0  2  0  0  3  0  0  0  0  0  0
  185.7110  178.2420  141.7140 C   0  0  2  0  0  3  0  0  0  0  0  0
  189.1120  179.4230  137.2960 C   0  0  0  0  0  1  0  0  0  0  0  0
  187.2260  178.1520  141.4650 C   0  0  1  0  0  3  0  0  0  0  0  0
  190.7850  176.9800  138.0830 C   0  0  1  0  0  3  0  0  0  0  0  0
  185.0540  179.1560  140.6870 C   0  0  0  0  0  2  0  0  0  0  0  0
  189.8010  176.2360  135.8300 C   0  0  0  0  0  2  0  0  0  0  0  0
  188.8680  177.4500  135.8520 C   0  0  0  0  0  2  0  0  0  0  0  0
  189.2880  177.1390  138.3550 C   0  0  2  0  0  3  0  0  0  0  0  0
  184.9410  174.4290  136.4750 C   0  0  0  0  0  3  0  0  0  0  0  0
  186.3360  176.7520  137.1900 C   0  0  0  0  0  0  0  0  0  0  0  0
  186.8390  175.4890  137.5380 C   0  0  0  0  0  3  0  0  0  0  0  0
  186.1420  174.3320  137.1820 C   0  0  0  0  0  3  0  0  0  0  0  0
  184.4360  175.6850  136.1240 C   0  0  0  0  0  3  0  0  0  0  0  0
  185.1320  176.8430  136.4810 C   0  0  0  0  0  3  0  0  0  0  0  0
  1 15  1  1  0  0  0
  1 12  1  0  0  0  0
  1 21  1  0  0  0  0
  2  6  1  1  0  0  0
  2 11  1  0  0  0  0
  4 13  1  0  0  0  0
  6 18  1  0  0  0  0
  7  9  1  0  0  0  0
  9 13  1  0  0  0  0
 10 19  1  6  0  0  0
 10  8  1  0  0  0  0
 10 17  1  0  0  0  0
 11  3  1  6  0  0  0
 11 16  1  0  0  0  0
 12 23  1  1  0  0  0
 12  2  1  0  0  0  0
 13  5  1  1  0  0  0
 14 18  1  6  0  0  0
 14  4  1  0  0  0  0
 16 14  1  0  0  0  0
 16  7  1  1  0  0  0
 17  8  1  1  0  0  0
 17 21  1  0  0  0  0
 19 20  1  0  0  0  0
 20  1  1  0  0  0  0
 21  3  1  1  0  0  0
 22 25  1  0  0  0  0
 23 24  1  0  0  0  0
 25 24  2  0  0  0  0
 26 22  2  0  0  0  0
 26 27  1  0  0  0  0
 27 23  2  0  0  0  0
M  END
>  <MODEL>
1

>  <REMARK>
 VINA RESULT:      -6.9      0.000      0.000
  Name = 
  1 active torsions:
  status: ('A' for Active; 'I' for Inactive)
    1  A    between atoms: C_9  and  C_15
                            x       y       z     vdW  Elec       q    Type
                         _______ _______ _______ _____ _____    ______ ____

>  <TORSDO>
F 1

$$$$
=
 OpenBabel10272401013D

 27 32  0  0  1  0  0  0  0  0999 V2000
  183.6300  178.9630  138.9210 C   0  0  2  0  0  0  0  0  0  0  0  0
  183.2900  179.0250  141.4480 C   0  0  1  0  0  3  0  0  0  0  0  0
  185.5660  178.4970  140.5210 C   0  0  0  0  0  2  0  0  0  0  0  0
  184.8390  178.7200  145.4930 C   0  0  0  0  0  2  0  0  0  0  0  0
  186.7000  178.2290  147.0600 C   0  0  0  0  0  1  0  0  0  0  0  0
  182.3090  178.8540  142.6090 C   0  0  0  0  0  2  0  0  0  0  0  0
  186.4340  177.6470  143.2770 C   0  0  0  0  0  2  0  0  0  0  0  0
  186.1060  176.9050  137.3750 C   0  0  0  0  0  2  0  0  0  0  0  0
  187.0740  178.0050  144.6150 C   0  0  0  0  0  2  0  0  0  0  0  0
  185.2680  177.9500  136.6660 C   0  0  2  0  0  3  0  0  0  0  0  0
  184.5840  178.2090  141.6600 C   0  0  1  0  0  3  0  0  0  0  0  0
  182.6350  178.7250  140.0810 C   0  0  2  0  0  3  0  0  0  0  0  0
  186.0590  177.8410  145.7440 C   0  0  2  0  0  3  0  0  0  0  0  0
  184.2010  178.3620  144.1540 C   0  0  2  0  0  3  0  0  0  0  0  0
  183.9490  180.4540  138.8580 C   0  0  0  0  0  1  0  0  0  0  0  0
  185.2200  178.5430  143.0150 C   0  0  1  0  0  3  0  0  0  0  0  0
  185.9170  178.2600  138.0240 C   0  0  1  0  0  3  0  0  0  0  0  0
  182.9780  179.2400  143.9200 C   0  0  0  0  0  2  0  0  0  0  0  0
  183.7890  177.5600  136.7670 C   0  0  0  0  0  2  0  0  0  0  0  0
  182.9940  178.5990  137.5630 C   0  0  0  0  0  2  0  0  0  0  0  0
  184.9220  178.1490  139.1800 C   0  0  2  0  0  3  0  0  0  0  0  0
  180.7040  174.8700  139.9230 C   0  0  0  0  0  3  0  0  0  0  0  0
  181.9360  177.3850  140.0310 C   0  0  0  0  0  0  0  0  0  0  0  0
  180.5950  177.2360  140.4180 C   0  0  0  0  0  3  0  0  0  0  0  0
  179.9820  175.9820  140.3620 C   0  0  0  0  0  3  0  0  0  0  0  0
  182.0400  175.0120  139.5370 C   0  0  0  0  0  3  0  0  0  0  0  0
  182.6540  176.2660  139.5910 C   0  0  0  0  0  3  0  0  0  0  0  0
  1 15  1  6  0  0  0
  1 21  1  0  0  0  0
  1 12  1  0  0  0  0
  2 11  1  0  0  0  0
  2  6  1  1  0  0  0
  4 13  1  0  0  0  0
  6 18  1  0  0  0  0
  7  9  1  0  0  0  0
  9 13  1  0  0  0  0
 10 19  1  1  0  0  0
 10  8  1  0  0  0  0
 10 17  1  0  0  0  0
 11  3  1  6  0  0  0
 11 16  1  0  0  0  0
 12 23  1  1  0  0  0
 12  2  1  0  0  0  0
 13  5  1  1  0  0  0
 14 18  1  6  0  0  0
 14  4  1  0  0  0  0
 16  7  1  1  0  0  0
 16 14  1  0  0  0  0
 17  8  1  1  0  0  0
 17 21  1  0  0  0  0
 19 20  1  0  0  0  0
 20  1  1  0  0  0  0
 21  3  1  1  0  0  0
 22 25  1  0  0  0  0
 23 24  1  0  0  0  0
 25 24  2  0  0  0  0
 26 27  1  0  0  0  0
 26 22  2  0  0  0  0
 27 23  2  0  0  0  0
M  END
>  <MODEL>
2

>  <REMARK>
 VINA RESULT:      -6.8      2.672      4.604
  Name = 
  1 active torsions:
  status: ('A' for Active; 'I' for Inactive)
    1  A    between atoms: C_9  and  C_15
                            x       y       z     vdW  Elec       q    Type
                         _______ _______ _______ _____ _____    ______ ____

>  <TORSDO>
F 1

$$$$
=
 OpenBabel10272401013D

 27 32  0  0  1  0  0  0  0  0999 V2000
  188.8700  177.0350  136.0450 C   0  0  2  0  0  0  0  0  0  0  0  0
  188.0880  177.7590  138.3620 C   0  0  1  0  0  3  0  0  0  0  0  0
  190.3920  176.7940  138.0820 C   0  0  0  0  0  2  0  0  0  0  0  0
  188.8120  178.3230  142.6060 C   0  0  0  0  0  2  0  0  0  0  0  0
  190.2640  178.0570  144.6020 C   0  0  0  0  0  1  0  0  0  0  0  0
  186.8980  177.9810  139.2970 C   0  0  0  0  0  2  0  0  0  0  0  0
  190.6080  176.5780  141.0780 C   0  0  0  0  0  2  0  0  0  0  0  0
  191.2560  174.4210  135.5630 C   0  0  0  0  0  2  0  0  0  0  0  0
  191.0400  177.1930  142.4070 C   0  0  0  0  0  2  0  0  0  0  0  0
  190.7240  175.3330  134.4760 C   0  0  2  0  0  3  0  0  0  0  0  0
  189.1870  176.8980  139.0220 C   0  0  1  0  0  3  0  0  0  0  0  0
  187.6560  177.1940  136.9900 C   0  0  2  0  0  3  0  0  0  0  0  0
  189.8240  177.4170  143.3020 C   0  0  2  0  0  3  0  0  0  0  0  0
  188.3830  177.7070  141.2780 C   0  0  2  0  0  3  0  0  0  0  0  0
  189.4110  178.4240  135.7180 C   0  0  0  0  0  1  0  0  0  0  0  0
  189.6080  177.4950  140.3710 C   0  0  1  0  0  3  0  0  0  0  0  0
  191.1530  175.9080  135.8360 C   0  0  1  0  0  3  0  0  0  0  0  0
  187.3660  178.6150  140.5990 C   0  0  0  0  0  2  0  0  0  0  0  0
  189.2110  175.1290  134.3460 C   0  0  0  0  0  2  0  0  0  0  0  0
  188.4450  176.4070  134.7010 C   0  0  0  0  0  2  0  0  0  0  0  0
  189.9590  176.1880  136.7490 C   0  0  2  0  0  3  0  0  0  0  0  0
  185.1260  173.7110  137.2750 C   0  0  0  0  0  3  0  0  0  0  0  0
  186.7890  175.9590  137.0970 C   0  0  0  0  0  0  0  0  0  0  0  0
  187.3390  174.6870  137.3140 C   0  0  0  0  0  3  0  0  0  0  0  0
  186.5090  173.5670  137.4030 C   0  0  0  0  0  3  0  0  0  0  0  0
  184.5710  174.9760  137.0580 C   0  0  0  0  0  3  0  0  0  0  0  0
  185.4010  176.0970  136.9690 C   0  0  0  0  0  3  0  0  0  0  0  0
  1 15  1  6  0  0  0
  1 21  1  0  0  0  0
  1 12  1  0  0  0  0
  2 11  1  0  0  0  0
  2  6  1  1  0  0  0
  4 13  1  0  0  0  0
  6 18  1  0  0  0  0
  7  9  1  0  0  0  0
  9 13  1  0  0  0  0
 10 19  1  1  0  0  0
 10  8  1  0  0  0  0
 10 17  1  0  0  0  0
 11  3  1  6  0  0  0
 11 16  1  0  0  0  0
 12 23  1  1  0  0  0
 12  2  1  0  0  0  0
 13  5  1  1  0  0  0
 14 18  1  6  0  0  0
 14  4  1  0  0  0  0
 16  7  1  1  0  0  0
 16 14  1  0  0  0  0
 17  8  1  1  0  0  0
 17 21  1  0  0  0  0
 19 20  1  0  0  0  0
 20  1  1  0  0  0  0
 21  3  1  1  0  0  0
 22 25  1  0  0  0  0
 23 24  1  0  0  0  0
 24 25  2  0  0  0  0
 26 22  2  0  0  0  0
 27 26  1  0  0  0  0
 27 23  2  0  0  0  0
M  END
>  <MODEL>
3

>  <REMARK>
 VINA RESULT:      -5.8      1.674      2.363
  Name = 
  1 active torsions:
  status: ('A' for Active; 'I' for Inactive)
    1  A    between atoms: C_9  and  C_15
                            x       y       z     vdW  Elec       q    Type
                         _______ _______ _______ _____ _____    ______ ____

>  <TORSDO>
F 1

$$$$
=
 OpenBabel10272401013D

 27 32  0  0  1  0  0  0  0  0999 V2000
  188.9140  177.6550  137.2630 C   0  0  2  0  0  0  0  0  0  0  0  0
  186.7330  177.3970  135.9670 C   0  0  1  0  0  3  0  0  0  0  0  0
  186.6540  177.9460  138.4180 C   0  0  0  0  0  2  0  0  0  0  0  0
  182.3970  177.5060  135.7760 C   0  0  0  0  0  2  0  0  0  0  0  0
  180.1930  177.7450  136.8930 C   0  0  0  0  0  1  0  0  0  0  0  0
  186.0240  176.7490  134.7760 C   0  0  0  0  0  2  0  0  0  0  0  0
  183.7000  177.3610  138.4000 C   0  0  0  0  0  2  0  0  0  0  0  0
  189.1560  176.9480  140.7550 C   0  0  0  0  0  2  0  0  0  0  0  0
  182.2670  177.8650  138.2530 C   0  0  0  0  0  2  0  0  0  0  0  0
  190.2430  177.5850  139.9130 C   0  0  2  0  0  3  0  0  0  0  0  0
  185.9530  177.1940  137.2830 C   0  0  1  0  0  3  0  0  0  0  0  0
  188.2040  176.9410  136.0890 C   0  0  2  0  0  3  0  0  0  0  0  0
  181.6010  177.2110  137.0440 C   0  0  2  0  0  3  0  0  0  0  0  0
  183.8290  177.0030  135.9260 C   0  0  2  0  0  3  0  0  0  0  0  0
  189.0150  179.1420  136.9320 C   0  0  0  0  0  1  0  0  0  0  0  0
  184.5030  177.6740  137.1360 C   0  0  1  0  0  3  0  0  0  0  0  0
  188.7840  178.0490  139.7840 C   0  0  1  0  0  3  0  0  0  0  0  0
  184.6090  177.2940  134.6510 C   0  0  0  0  0  2  0  0  0  0  0  0
  190.6730  176.5990  138.8210 C   0  0  0  0  0  2  0  0  0  0  0  0
  190.3620  177.1470  137.4250 C   0  0  0  0  0  2  0  0  0  0  0  0
  188.0910  177.4490  138.5590 C   0  0  2  0  0  3  0  0  0  0  0  0
  188.7210  172.6580  136.0420 C   0  0  0  0  0  3  0  0  0  0  0  0
  188.3680  175.4370  136.0900 C   0  0  0  0  0  0  0  0  0  0  0  0
  187.6980  174.6220  137.0160 C   0  0  0  0  0  3  0  0  0  0  0  0
  187.8750  173.2360  136.9900 C   0  0  0  0  0  3  0  0  0  0  0  0
  189.3920  173.4640  135.1180 C   0  0  0  0  0  3  0  0  0  0  0  0
  189.2150  174.8510  135.1420 C   0  0  0  0  0  3  0  0  0  0  0  0
  1 15  1  6  0  0  0
  1 20  1  0  0  0  0
  1 21  1  0  0  0  0
  2  6  1  6  0  0  0
  2 12  1  0  0  0  0
  2 11  1  0  0  0  0
  4 14  1  0  0  0  0
  4 13  1  0  0  0  0
  9  7  1  0  0  0  0
 10 19  1  6  0  0  0
 10  8  1  0  0  0  0
 11  3  1  1  0  0  0
 12 23  1  1  0  0  0
 12  1  1  0  0  0  0
 13  5  1  6  0  0  0
 13  9  1  0  0  0  0
 14 18  1  6  0  0  0
 14 16  1  0  0  0  0
 16 11  1  0  0  0  0
 16  7  1  1  0  0  0
 17 10  1  0  0  0  0
 17  8  1  1  0  0  0
 18  6  1  0  0  0  0
 20 19  1  0  0  0  0
 21  3  1  6  0  0  0
 21 17  1  0  0  0  0
 22 25  1  0  0  0  0
 23 24  1  0  0  0  0
 25 24  2  0  0  0  0
 26 27  1  0  0  0  0
 26 22  2  0  0  0  0
 27 23  2  0  0  0  0
M  END
>  <MODEL>
4

>  <REMARK>
 VINA RESULT:      -5.8      2.418      4.849
  Name = 
  1 active torsions:
  status: ('A' for Active; 'I' for Inactive)
    1  A    between atoms: C_9  and  C_15
                            x       y       z     vdW  Elec       q    Type
                         _______ _______ _______ _____ _____    ______ ____

>  <TORSDO>
F 1

$$$$
=
 OpenBabel10272401013D

 27 32  0  0  1  0  0  0  0  0999 V2000
  187.1280  177.0430  135.8400 C   0  0  2  0  0  0  0  0  0  0  0  0
  184.6210  177.1080  136.3090 C   0  0  1  0  0  3  0  0  0  0  0  0
  186.2240  177.9760  138.0400 C   0  0  0  0  0  2  0  0  0  0  0  0
  181.2640  178.1500  138.8580 C   0  0  0  0  0  2  0  0  0  0  0  0
  180.3730  179.0150  141.0060 C   0  0  0  0  0  1  0  0  0  0  0  0
  183.2530  176.4830  136.0300 C   0  0  0  0  0  2  0  0  0  0  0  0
  183.9560  178.0630  140.0200 C   0  0  0  0  0  2  0  0  0  0  0  0
  189.5520  176.7620  138.4470 C   0  0  0  0  0  2  0  0  0  0  0  0
  182.8290  178.8490  140.6850 C   0  0  0  0  0  2  0  0  0  0  0  0
  189.8620  177.0260  136.9870 C   0  0  2  0  0  3  0  0  0  0  0  0
  184.8900  177.2560  137.8220 C   0  0  1  0  0  3  0  0  0  0  0  0
  185.7640  176.3560  135.5890 C   0  0  2  0  0  3  0  0  0  0  0  0
  181.4810  178.2070  140.3660 C   0  0  2  0  0  3  0  0  0  0  0  0
  182.3920  177.3650  138.1940 C   0  0  2  0  0  3  0  0  0  0  0  0
  187.1070  178.4130  135.1690 C   0  0  0  0  0  1  0  0  0  0  0  0
  183.7480  178.0220  138.5040 C   0  0  1  0  0  3  0  0  0  0  0  0
  188.7240  177.7810  137.6930 C   0  0  1  0  0  3  0  0  0  0  0  0
  182.1580  177.3070  136.6910 C   0  0  0  0  0  2  0  0  0  0  0  0
  189.3820  175.8360  136.1490 C   0  0  0  0  0  2  0  0  0  0  0  0
  188.2740  176.2520  135.1770 C   0  0  0  0  0  2  0  0  0  0  0  0
  187.3500  177.1950  137.3650 C   0  0  2  0  0  3  0  0  0  0  0  0
  185.7560  172.0970  136.2750 C   0  0  0  0  0  3  0  0  0  0  0  0
  185.7630  174.8670  135.8540 C   0  0  0  0  0  0  0  0  0  0  0  0
  185.9880  174.3450  137.1380 C   0  0  0  0  0  3  0  0  0  0  0  0
  185.9830  172.9640  137.3460 C   0  0  0  0  0  3  0  0  0  0  0  0
  185.5320  172.6110  134.9940 C   0  0  0  0  0  3  0  0  0  0  0  0
  185.5360  173.9930  134.7850 C   0  0  0  0  0  3  0  0  0  0  0  0
  1 15  1  6  0  0  0
  1 21  1  0  0  0  0
  2  6  1  1  0  0  0
  2 11  1  0  0  0  0
  4 13  1  0  0  0  0
  6 18  1  0  0  0  0
  7  9  1  0  0  0  0
 10 19  1  6  0  0  0
 10 17  1  0  0  0  0
 10  8  1  0  0  0  0
 11  3  1  6  0  0  0
 11 16  1  0  0  0  0
 12  1  1  0  0  0  0
 12 23  1  1  0  0  0
 12  2  1  0  0  0  0
 13  9  1  0  0  0  0
 13  5  1  1  0  0  0
 14 18  1  6  0  0  0
 14 16  1  0  0  0  0
 14  4  1  0  0  0  0
 16  7  1  1  0  0  0
 17  8  1  1  0  0  0
 20  1  1  0  0  0  0
 20 19  1  0  0  0  0
 21 17  1  0  0  0  0
 21  3  1  6  0  0  0
 22 25  1  0  0  0  0
 23 24  1  0  0  0  0
 24 25  2  0  0  0  0
 26 22  2  0  0  0  0
 27 26  1  0  0  0  0
 27 23  2  0  0  0  0
M  END
>  <MODEL>
5

>  <REMARK>
 VINA RESULT:      -5.6      2.517      3.791
  Name = 
  1 active torsions:
  status: ('A' for Active; 'I' for Inactive)
    1  A    between atoms: C_9  and  C_15
                            x       y       z     vdW  Elec       q    Type
                         _______ _______ _______ _____ _____    ______ ____

>  <TORSDO>
F 1

$$$$
=
 OpenBabel10272401013D

 27 32  0  0  1  0  0  0  0  0999 V2000
  187.6250  177.6980  136.6180 C   0  0  2  0  0  0  0  0  0  0  0  0
  185.0760  177.6100  136.6490 C   0  0  1  0  0  3  0  0  0  0  0  0
  186.3150  178.2340  138.7450 C   0  0  0  0  0  2  0  0  0  0  0  0
  181.2860  178.1220  138.7050 C   0  0  0  0  0  2  0  0  0  0  0  0
  180.0010  178.6000  140.7740 C   0  0  0  0  0  1  0  0  0  0  0  0
  183.8120  176.9980  136.0430 C   0  0  0  0  0  2  0  0  0  0  0  0
  183.7480  177.9300  140.2900 C   0  0  0  0  0  2  0  0  0  0  0  0
  189.5930  177.0730  139.5310 C   0  0  0  0  0  2  0  0  0  0  0  0
  182.4820  178.5630  140.8620 C   0  0  0  0  0  2  0  0  0  0  0  0
  190.1260  177.5790  138.2060 C   0  0  2  0  0  3  0  0  0  0  0  0
  185.0800  177.5190  138.1900 C   0  0  1  0  0  3  0  0  0  0  0  0
  186.3640  177.0210  136.0310 C   0  0  2  0  0  3  0  0  0  0  0  0
  181.2450  177.9400  140.2190 C   0  0  2  0  0  3  0  0  0  0  0  0
  182.5520  177.4900  138.1350 C   0  0  2  0  0  3  0  0  0  0  0  0
  187.6370  179.1590  136.1740 C   0  0  0  0  0  1  0  0  0  0  0  0
  183.7980  178.1290  138.7730 C   0  0  1  0  0  3  0  0  0  0  0  0
  188.8450  178.1750  138.8110 C   0  0  1  0  0  3  0  0  0  0  0  0
  182.5760  177.6690  136.6220 C   0  0  0  0  0  2  0  0  0  0  0  0
  189.8620  176.5270  137.1240 C   0  0  0  0  0  2  0  0  0  0  0  0
  188.9100  177.0610  136.0500 C   0  0  0  0  0  2  0  0  0  0  0  0
  187.5810  177.6080  138.1640 C   0  0  2  0  0  3  0  0  0  0  0  0
  186.4670  172.7100  136.1780 C   0  0  0  0  0  3  0  0  0  0  0  0
  186.4050  175.5090  136.0580 C   0  0  0  0  0  0  0  0  0  0  0  0
  186.5400  174.7530  134.8830 C   0  0  0  0  0  3  0  0  0  0  0  0
  186.5710  173.3570  134.9450 C   0  0  0  0  0  3  0  0  0  0  0  0
  186.3320  173.4580  137.3510 C   0  0  0  0  0  3  0  0  0  0  0  0
  186.3010  174.8540  137.2910 C   0  0  0  0  0  3  0  0  0  0  0  0
  1 15  1  6  0  0  0
  1 21  1  0  0  0  0
  2  6  1  6  0  0  0
  2 11  1  0  0  0  0
  4 13  1  0  0  0  0
  6 18  1  0  0  0  0
  7  9  1  0  0  0  0
 10 19  1  6  0  0  0
 10 17  1  0  0  0  0
 10  8  1  0  0  0  0
 11  3  1  1  0  0  0
 11 16  1  0  0  0  0
 12 23  1  1  0  0  0
 12  1  1  0  0  0  0
 12  2  1  0  0  0  0
 13  5  1  1  0  0  0
 13  9  1  0  0  0  0
 14 18  1  6  0  0  0
 14  4  1  0  0  0  0
 14 16  1  0  0  0  0
 16  7  1  1  0  0  0
 17  8  1  1  0  0  0
 20  1  1  0  0  0  0
 20 19  1  0  0  0  0
 21  3  1  1  0  0  0
 21 17  1  0  0  0  0
 22 26  1  0  0  0  0
 23 27  1  0  0  0  0
 24 25  1  0  0  0  0
 24 23  2  0  0  0  0
 25 22  2  0  0  0  0
 27 26  2  0  0  0  0
M  END
>  <MODEL>
6

>  <REMARK>
 VINA RESULT:      -5.4      2.319      3.705
  Name = 
  1 active torsions:
  status: ('A' for Active; 'I' for Inactive)
    1  A    between atoms: C_9  and  C_15
                            x       y       z     vdW  Elec       q    Type
                         _______ _______ _______ _____ _____    ______ ____

>  <TORSDO>
F 1

$$$$
=
 OpenBabel10272401013D

 27 32  0  0  1  0  0  0  0  0999 V2000
  181.3860  177.6850  139.8060 C   0  0  2  0  0  0  0  0  0  0  0  0
  183.1250  177.5240  137.9470 C   0  0  1  0  0  3  0  0  0  0  0  0
  183.8830  177.8280  140.3240 C   0  0  0  0  0  2  0  0  0  0  0  0
  187.2560  177.4170  136.6160 C   0  0  0  0  0  2  0  0  0  0  0  0
  189.6850  177.5960  137.0990 C   0  0  0  0  0  1  0  0  0  0  0  0
  183.4350  177.7460  136.4660 C   0  0  0  0  0  2  0  0  0  0  0  0
  186.6570  178.4140  139.3090 C   0  0  0  0  0  2  0  0  0  0  0  0
  181.9700  179.5150  142.8160 C   0  0  0  0  0  2  0  0  0  0  0  0
  188.0490  177.9090  138.9410 C   0  0  0  0  0  2  0  0  0  0  0  0
  180.7760  178.6190  142.5530 C   0  0  2  0  0  3  0  0  0  0  0  0
  184.1890  178.1670  138.8630 C   0  0  1  0  0  3  0  0  0  0  0  0
  181.6940  177.9750  138.3180 C   0  0  2  0  0  3  0  0  0  0  0  0
  188.3130  178.1300  137.4540 C   0  0  2  0  0  3  0  0  0  0  0  0
  185.8650  177.9220  136.9860 C   0  0  2  0  0  3  0  0  0  0  0  0
  181.3590  176.1720  140.0060 C   0  0  0  0  0  1  0  0  0  0  0  0
  185.5950  177.6850  138.4820 C   0  0  1  0  0  3  0  0  0  0  0  0
  182.1950  178.1580  142.1820 C   0  0  1  0  0  3  0  0  0  0  0  0
  184.8210  177.2110  136.1360 C   0  0  0  0  0  2  0  0  0  0  0  0
  179.9820  179.1760  141.3680 C   0  0  0  0  0  2  0  0  0  0  0  0
  179.9820  178.1970  140.1890 C   0  0  0  0  0  2  0  0  0  0  0  0
  182.4860  178.3230  140.6900 C   0  0  2  0  0  3  0  0  0  0  0  0
  180.7500  181.9860  137.0400 C   0  0  0  0  0  3  0  0  0  0  0  0
  181.3800  179.3900  137.8860 C   0  0  0  0  0  0  0  0  0  0  0  0
  181.9390  180.5010  138.5350 C   0  0  0  0  0  3  0  0  0  0  0  0
  181.6250  181.7950  138.1120 C   0  0  0  0  0  3  0  0  0  0  0  0
  180.1890  180.8830  136.3900 C   0  0  0  0  0  3  0  0  0  0  0  0
  180.5030  179.5880  136.8120 C   0  0  0  0  0  3  0  0  0  0  0  0
  1 15  1  1  0  0  0
  1 20  1  0  0  0  0
  1 21  1  0  0  0  0
  2  6  1  6  0  0  0
  2 12  1  0  0  0  0
  2 11  1  0  0  0  0
  4 14  1  0  0  0  0
  4 13  1  0  0  0  0
  9  7  1  0  0  0  0
 10 19  1  6  0  0  0
 10  8  1  0  0  0  0
 11  3  1  1  0  0  0
 12 23  1  1  0  0  0
 12  1  1  0  0  0  0
 13  5  1  6  0  0  0
 13  9  1  0  0  0  0
 14 18  1  6  0  0  0
 14 16  1  0  0  0  0
 16 11  1  0  0  0  0
 16  7  1  1  0  0  0
 17 10  1  0  0  0  0
 17  8  1  1  0  0  0
 18  6  1  0  0  0  0
 20 19  1  0  0  0  0
 21  3  1  1  0  0  0
 21 17  1  0  0  0  0
 22 25  1  0  0  0  0
 23 24  1  0  0  0  0
 25 24  2  0  0  0  0
 26 27  1  0  0  0  0
 26 22  2  0  0  0  0
 27 23  2  0  0  0  0
M  END
>  <MODEL>
7

>  <REMARK>
 VINA RESULT:      -5.2      3.578      7.381
  Name = 
  1 active torsions:
  status: ('A' for Active; 'I' for Inactive)
    1  A    between atoms: C_9  and  C_15
                            x       y       z     vdW  Elec       q    Type
                         _______ _______ _______ _____ _____    ______ ____

>  <TORSDO>
F 1

$$$$
=
 OpenBabel10272401013D

 27 32  0  0  1  0  0  0  0  0999 V2000
  189.4670  175.2250  135.8640 C   0  0  2  0  0  0  0  0  0  0  0  0
  191.9550  175.6970  136.1720 C   0  0  1  0  0  3  0  0  0  0  0  0
  191.1270  173.3260  136.2710 C   0  0  0  0  0  2  0  0  0  0  0  0
  196.0290  174.3280  136.7830 C   0  0  0  0  0  2  0  0  0  0  0  0
  197.6480  172.4980  137.2210 C   0  0  0  0  0  1  0  0  0  0  0  0
  193.0180  176.7020  136.6180 C   0  0  0  0  0  2  0  0  0  0  0  0
  193.8130  172.4890  137.3440 C   0  0  0  0  0  2  0  0  0  0  0  0
  187.8570  172.4110  137.3610 C   0  0  0  0  0  2  0  0  0  0  0  0
  195.2250  171.9730  137.0790 C   0  0  0  0  0  2  0  0  0  0  0  0
  187.2230  173.3500  136.3550 C   0  0  2  0  0  3  0  0  0  0  0  0
  192.1540  174.3150  136.8290 C   0  0  1  0  0  3  0  0  0  0  0  0
  190.5210  176.2350  136.3780 C   0  0  2  0  0  3  0  0  0  0  0  0
  196.2550  173.0110  137.5190 C   0  0  2  0  0  3  0  0  0  0  0  0
  194.6170  174.8410  137.0480 C   0  0  2  0  0  3  0  0  0  0  0  0
  189.6060  175.1150  134.3480 C   0  0  0  0  0  1  0  0  0  0  0  0
  193.5800  173.8010  136.5910 C   0  0  1  0  0  3  0  0  0  0  0  0
  188.6490  172.8200  136.1370 C   0  0  1  0  0  3  0  0  0  0  0  0
  194.4080  176.1610  136.3180 C   0  0  0  0  0  2  0  0  0  0  0  0
  187.1770  174.7630  136.9460 C   0  0  0  0  0  2  0  0  0  0  0  0
  188.0360  175.7350  136.1330 C   0  0  0  0  0  2  0  0  0  0  0  0
  189.7140  173.8470  136.5260 C   0  0  2  0  0  3  0  0  0  0  0  0
  189.7460  177.7140  140.3560 C   0  0  0  0  0  3  0  0  0  0  0  0
  190.2640  176.7360  137.7810 C   0  0  0  0  0  0  0  0  0  0  0  0
  190.7390  176.0480  138.9090 C   0  0  0  0  0  3  0  0  0  0  0  0
  190.4800  176.5380  140.1920 C   0  0  0  0  0  3  0  0  0  0  0  0
  189.2690  178.4030  139.2360 C   0  0  0  0  0  3  0  0  0  0  0  0
  189.5280  177.9140  137.9530 C   0  0  0  0  0  3  0  0  0  0  0  0
  1 15  1  6  0  0  0
  1 20  1  0  0  0  0
  1 12  1  0  0  0  0
  1 21  1  0  0  0  0
  2 12  1  0  0  0  0
  2  6  1  1  0  0  0
  2 11  1  0  0  0  0
  4 14  1  0  0  0  0
  4 13  1  0  0  0  0
  9  7  1  0  0  0  0
  9 13  1  0  0  0  0
 10 19  1  1  0  0  0
 10  8  1  0  0  0  0
 11  3  1  6  0  0  0
 12 23  1  1  0  0  0
 13  5  1  6  0  0  0
 14 18  1  6  0  0  0
 16 11  1  0  0  0  0
 16 14  1  0  0  0  0
 16  7  1  1  0  0  0
 17 10  1  0  0  0  0
 17 21  1  0  0  0  0
 17  8  1  1  0  0  0
 18  6  1  0  0  0  0
 20 19  1  0  0  0  0
 21  3  1  6  0  0  0
 23 27  2  0  0  0  0
 23 24  1  0  0  0  0
 24 25  2  0  0  0  0
 25 22  1  0  0  0  0
 26 22  2  0  0  0  0
 27 26  1  0  0  0  0
M  END
>  <MODEL>
8

>  <REMARK>
 VINA RESULT:      -5.0      3.063      7.805
  Name = 
  1 active torsions:
  status: ('A' for Active; 'I' for Inactive)
    1  A    between atoms: C_9  and  C_15
                            x       y       z     vdW  Elec       q    Type
                         _______ _______ _______ _____ _____    ______ ____

>  <TORSDO>
F 1

$$$$
=
 OpenBabel10272401013D

 27 32  0  0  1  0  0  0  0  0999 V2000
  182.5420  178.4250  138.6970 C   0  0  2  0  0  0  0  0  0  0  0  0
  184.6300  177.3350  137.7200 C   0  0  1  0  0  3  0  0  0  0  0  0
  182.5630  175.9490  138.0690 C   0  0  0  0  0  2  0  0  0  0  0  0
  186.6920  173.8900  136.0670 C   0  0  0  0  0  2  0  0  0  0  0  0
  186.7410  171.4760  135.4900 C   0  0  0  0  0  1  0  0  0  0  0  0
  186.1570  177.3560  137.6260 C   0  0  0  0  0  2  0  0  0  0  0  0
  184.1990  173.4740  137.5570 C   0  0  0  0  0  2  0  0  0  0  0  0
  180.1490  176.5930  140.6140 C   0  0  0  0  0  2  0  0  0  0  0  0
  184.7200  172.4300  136.5730 C   0  0  0  0  0  2  0  0  0  0  0  0
  179.9820  178.0230  140.1390 C   0  0  2  0  0  3  0  0  0  0  0  0
  184.0940  175.9350  138.0880 C   0  0  1  0  0  3  0  0  0  0  0  0
  184.0880  178.4300  138.6660 C   0  0  2  0  0  3  0  0  0  0  0  0
  186.2430  172.4950  136.4930 C   0  0  2  0  0  3  0  0  0  0  0  0
  186.1700  174.9320  137.0510 C   0  0  2  0  0  3  0  0  0  0  0  0
  182.0320  178.8420  137.3200 C   0  0  0  0  0  1  0  0  0  0  0  0
  184.6340  174.8740  137.1200 C   0  0  1  0  0  3  0  0  0  0  0  0
  180.5200  176.9420  139.1880 C   0  0  1  0  0  3  0  0  0  0  0  0
  186.6330  176.3180  136.6210 C   0  0  0  0  0  2  0  0  0  0  0  0
  181.0790  178.8910  140.7650 C   0  0  0  0  0  2  0  0  0  0  0  0
  182.0060  179.4740  139.6940 C   0  0  0  0  0  2  0  0  0  0  0  0
  182.0420  177.0010  139.0460 C   0  0  2  0  0  3  0  0  0  0  0  0
  185.9880  178.4130  142.5400 C   0  0  0  0  0  3  0  0  0  0  0  0
  184.7340  178.4140  140.0340 C   0  0  0  0  0  0  0  0  0  0  0  0
  184.0200  178.0390  141.1830 C   0  0  0  0  0  3  0  0  0  0  0  0
  184.6470  178.0390  142.4320 C   0  0  0  0  0  3  0  0  0  0  0  0
  186.7040  178.7880  141.3990 C   0  0  0  0  0  3  0  0  0  0  0  0
  186.0780  178.7880  140.1490 C   0  0  0  0  0  3  0  0  0  0  0  0
  1 15  1  6  0  0  0
  1 21  1  0  0  0  0
  1 20  1  0  0  0  0
  2  6  1  1  0  0  0
  2 11  1  0  0  0  0
  2 12  1  0  0  0  0
  4 13  1  0  0  0  0
  9  7  1  0  0  0  0
 10  8  1  1  0  0  0
 10 19  1  0  0  0  0
 11  3  1  6  0  0  0
 12  1  1  0  0  0  0
 12 23  1  1  0  0  0
 13  5  1  6  0  0  0
 13  9  1  0  0  0  0
 14  4  1  6  0  0  0
 14 16  1  0  0  0  0
 16  7  1  1  0  0  0
 16 11  1  0  0  0  0
 17 10  1  0  0  0  0
 17  8  1  1  0  0  0
 18 14  1  0  0  0  0
 18  6  1  0  0  0  0
 20 19  1  0  0  0  0
 21  3  1  6  0  0  0
 21 17  1  0  0  0  0
 23 27  2  0  0  0  0
 23 24  1  0  0  0  0
 24 25  2  0  0  0  0
 25 22  1  0  0  0  0
 26 22  2  0  0  0  0
 27 26  1  0  0  0  0
M  END
>  <MODEL>
9

>  <REMARK>
 VINA RESULT:      -4.9      2.681      7.524
  Name = 
  1 active torsions:
  status: ('A' for Active; 'I' for Inactive)
    1  A    between atoms: C_9  and  C_15
                            x       y       z     vdW  Elec       q    Type
                         _______ _______ _______ _____ _____    ______ ____

>  <TORSDO>
F 1

$$$$
