=
 OpenBabel10272400263D

 31 34  0  0  1  0  0  0  0  0999 V2000
  185.2860  178.3630  146.1410 C   0  0  0  0  0  0  0  0  0  0  0  0
  188.5490  177.7760  144.2220 C   0  0  0  0  0  0  0  0  0  0  0  0
  189.5050  177.3190  145.1770 C   0  0  0  0  0  0  0  0  0  0  0  0
  190.1330  176.6240  147.4310 C   0  0  0  0  0  3  0  0  0  0  0  0
  187.1140  178.0680  144.5520 C   0  0  0  0  0  0  0  0  0  0  0  0
  184.3840  178.5270  145.0890 C   0  0  0  0  0  3  0  0  0  0  0  0
  189.1750  177.0750  146.5210 C   0  0  0  0  0  3  0  0  0  0  0  0
  188.0440  178.4510  141.8020 C   0  0  1  0  0  3  0  0  0  0  0  0
  184.8490  178.4140  147.4230 F   0  0  0  0  0  0  0  0  0  0  0  0
  191.2060  177.3010  143.4500 C   0  0  0  0  0  3  0  0  0  0  0  0
  191.4450  176.4050  147.0120 C   0  0  0  0  0  0  0  0  0  0  0  0
  186.6450  178.2510  142.1530 N   0  0  0  0  0  2  0  0  0  0  0  0
  188.9800  177.9320  142.8770 C   0  0  0  0  0  0  0  0  0  0  0  0
  186.6370  178.1320  145.8730 C   0  0  0  0  0  3  0  0  0  0  0  0
  192.6470  175.8410  148.1520 Cl  0  0  0  0  0  0  0  0  0  0  0  0
  186.1960  178.2710  143.5040 C   0  0  0  0  0  0  0  0  0  0  0  0
  184.8400  178.4800  143.7720 C   0  0  0  0  0  3  0  0  0  0  0  0
  190.2840  177.7170  142.5500 N   0  0  0  0  0  0  0  0  0  0  0  0
  190.8410  177.0850  144.7700 C   0  0  0  0  0  0  0  0  0  0  0  0
  191.7980  176.6350  145.6820 C   0  0  0  0  0  3  0  0  0  0  0  0
  187.7810  178.2870  139.4080 N   0  0  0  0  0  0  0  0  0  0  0  0
  188.3050  177.8090  140.4770 C   0  0  0  0  0  3  0  0  0  0  0  0
  186.7860  178.1970  136.9260 S   0  0  0  0  0  1  0  0  0  0  0  0
  188.0650  177.7050  138.1200 C   0  0  1  0  0  3  0  0  0  0  0  0
  189.4550  178.1140  137.6250 C   0  0  0  0  0  2  0  0  0  0  0  0
  190.3270  176.9040  137.3130 C   0  0  0  0  0  2  0  0  0  0  0  0
  190.7790  175.8070  139.3870 O   0  0  0  0  0  1  0  0  0  0  0  0
  191.3230  176.6690  138.4340 C   0  0  1  0  0  3  0  0  0  0  0  0
  192.5830  176.0940  137.8830 C   0  0  0  0  0  0  0  0  0  0  0  0
  193.5960  176.8220  137.7050 O   0  0  0  0  0  1  0  0  0  0  0  0
  192.6500  174.7390  137.5910 O   0  0  0  0  0  0  0  0  0  0  0  0
  1  9  1  0  0  0  0
  2  5  1  0  0  0  0
  2  3  1  0  0  0  0
  3  7  1  0  0  0  0
  5 14  2  0  0  0  0
  6  1  2  0  0  0  0
  7  4  2  0  0  0  0
  8 22  1  6  0  0  0
  8 12  1  0  0  0  0
  8 13  1  0  0  0  0
 10 19  1  0  0  0  0
 11  4  1  0  0  0  0
 11 15  1  0  0  0  0
 12 16  1  0  0  0  0
 13  2  2  0  0  0  0
 14  1  1  0  0  0  0
 16 17  2  0  0  0  0
 16  5  1  0  0  0  0
 17  6  1  0  0  0  0
 18 13  1  0  0  0  0
 18 10  2  0  0  0  0
 19  3  2  0  0  0  0
 19 20  1  0  0  0  0
 20 11  2  0  0  0  0
 21 22  2  0  0  0  0
 24 23  1  6  0  0  0
 24 21  1  0  0  0  0
 25 24  1  0  0  0  0
 26 25  1  0  0  0  0
 26 28  1  0  0  0  0
 28 27  1  1  0  0  0
 29 28  1  0  0  0  0
 30 29  1  0  0  0  0
 31 29  2  0  0  0  0
M  END
>  <MODEL>
1

>  <REMARK>
 VINA RESULT:     -10.6      0.000      0.000
  Name = 
  6 active torsions:
  status: ('A' for Active; 'I' for Inactive)
    1  A    between atoms: C_1  and  C_24
    2  A    between atoms: C_3  and  C_19
    3  A    between atoms: C_3  and  C_22
    4  A    between atoms: N_9  and  C_22
    5  A    between atoms: C_15  and  C_23
    6  A    between atoms: C_19  and  C_24
                            x       y       z     vdW  Elec       q    Type
                         _______ _______ _______ _____ _____    ______ ____

>  <TORSDO>
F 6

$$$$
=
 OpenBabel10272400263D

 31 34  0  0  1  0  0  0  0  0999 V2000
  185.1320  178.3970  146.0900 C   0  0  0  0  0  0  0  0  0  0  0  0
  188.3670  177.8360  144.1170 C   0  0  0  0  0  0  0  0  0  0  0  0
  189.3370  177.3690  145.0520 C   0  0  0  0  0  0  0  0  0  0  0  0
  189.9980  176.6470  147.2890 C   0  0  0  0  0  3  0  0  0  0  0  0
  186.9360  178.1230  144.4710 C   0  0  0  0  0  0  0  0  0  0  0  0
  184.2140  178.5730  145.0530 C   0  0  0  0  0  3  0  0  0  0  0  0
  189.0260  177.1080  146.3980 C   0  0  0  0  0  3  0  0  0  0  0  0
  187.8260  178.5390  141.7130 C   0  0  1  0  0  3  0  0  0  0  0  0
  184.7130  178.4330  147.3780 F   0  0  0  0  0  0  0  0  0  0  0  0
  191.0120  177.3720  143.3000 C   0  0  0  0  0  3  0  0  0  0  0  0
  191.3040  176.4350  146.8480 C   0  0  0  0  0  0  0  0  0  0  0  0
  186.4330  178.3340  142.0810 N   0  0  0  0  0  2  0  0  0  0  0  0
  188.7780  178.0080  142.7680 C   0  0  0  0  0  0  0  0  0  0  0  0
  186.4780  178.1710  145.7990 C   0  0  0  0  0  3  0  0  0  0  0  0
  192.5230  175.8590  147.9640 Cl  0  0  0  0  0  0  0  0  0  0  0  0
  186.0030  178.3370  143.4380 C   0  0  0  0  0  0  0  0  0  0  0  0
  184.6510  178.5420  143.7290 C   0  0  0  0  0  3  0  0  0  0  0  0
  190.0780  177.7980  142.4190 N   0  0  0  0  0  0  0  0  0  0  0  0
  190.6670  177.1400  144.6230 C   0  0  0  0  0  0  0  0  0  0  0  0
  191.6380  176.6810  145.5160 C   0  0  0  0  0  3  0  0  0  0  0  0
  187.4170  178.3100  139.3440 N   0  0  0  0  0  0  0  0  0  0  0  0
  188.0680  177.9120  140.3770 C   0  0  0  0  0  3  0  0  0  0  0  0
  186.1670  177.8060  137.0330 S   0  0  0  0  0  1  0  0  0  0  0  0
  187.6780  177.7460  138.0440 C   0  0  1  0  0  3  0  0  0  0  0  0
  188.8260  178.4790  137.3450 C   0  0  0  0  0  2  0  0  0  0  0  0
  189.9540  177.5310  136.9560 C   0  0  0  0  0  2  0  0  0  0  0  0
  189.5020  175.3220  136.1610 O   0  0  0  0  0  1  0  0  0  0  0  0
  189.5880  176.1020  137.3160 C   0  0  1  0  0  3  0  0  0  0  0  0
  190.6080  175.5340  138.2430 C   0  0  0  0  0  0  0  0  0  0  0  0
  190.7880  176.0370  139.3840 O   0  0  0  0  0  1  0  0  0  0  0  0
  191.3450  174.4230  137.8570 O   0  0  0  0  0  0  0  0  0  0  0  0
  1  9  1  0  0  0  0
  2  5  1  0  0  0  0
  2  3  1  0  0  0  0
  3  7  1  0  0  0  0
  5 14  2  0  0  0  0
  6  1  2  0  0  0  0
  7  4  2  0  0  0  0
  8 22  1  6  0  0  0
  8 12  1  0  0  0  0
  8 13  1  0  0  0  0
 10 19  1  0  0  0  0
 11  4  1  0  0  0  0
 11 15  1  0  0  0  0
 12 16  1  0  0  0  0
 13  2  2  0  0  0  0
 14  1  1  0  0  0  0
 16 17  2  0  0  0  0
 16  5  1  0  0  0  0
 17  6  1  0  0  0  0
 18 13  1  0  0  0  0
 18 10  2  0  0  0  0
 19  3  2  0  0  0  0
 19 20  1  0  0  0  0
 20 11  2  0  0  0  0
 21 22  2  0  0  0  0
 24 23  1  6  0  0  0
 24 21  1  0  0  0  0
 25 24  1  0  0  0  0
 26 28  1  0  0  0  0
 26 25  1  0  0  0  0
 28 27  1  6  0  0  0
 28 29  1  0  0  0  0
 29 30  1  0  0  0  0
 31 29  2  0  0  0  0
M  END
>  <MODEL>
2

>  <REMARK>
 VINA RESULT:     -10.4      0.844      1.100
  Name = 
  6 active torsions:
  status: ('A' for Active; 'I' for Inactive)
    1  A    between atoms: C_1  and  C_24
    2  A    between atoms: C_3  and  C_19
    3  A    between atoms: C_3  and  C_22
    4  A    between atoms: N_9  and  C_22
    5  A    between atoms: C_15  and  C_23
    6  A    between atoms: C_19  and  C_24
                            x       y       z     vdW  Elec       q    Type
                         _______ _______ _______ _____ _____    ______ ____

>  <TORSDO>
F 6

$$$$
=
 OpenBabel10272400263D

 31 34  0  0  1  0  0  0  0  0999 V2000
  185.2150  178.3570  146.0980 C   0  0  0  0  0  0  0  0  0  0  0  0
  188.4820  177.8050  144.1760 C   0  0  0  0  0  0  0  0  0  0  0  0
  189.4390  177.3410  145.1260 C   0  0  0  0  0  0  0  0  0  0  0  0
  190.0670  176.6210  147.3720 C   0  0  0  0  0  3  0  0  0  0  0  0
  187.0450  178.0890  144.5080 C   0  0  0  0  0  0  0  0  0  0  0  0
  184.3140  178.5300  145.0470 C   0  0  0  0  0  3  0  0  0  0  0  0
  189.1080  177.0790  146.4660 C   0  0  0  0  0  3  0  0  0  0  0  0
  187.9780  178.5080  141.7640 C   0  0  1  0  0  3  0  0  0  0  0  0
  184.7770  178.3910  147.3790 F   0  0  0  0  0  0  0  0  0  0  0  0
  191.1420  177.3500  143.4010 C   0  0  0  0  0  3  0  0  0  0  0  0
  191.3800  176.4120  146.9520 C   0  0  0  0  0  0  0  0  0  0  0  0
  186.5790  178.2980  142.1100 N   0  0  0  0  0  2  0  0  0  0  0  0
  188.9140  177.9800  142.8330 C   0  0  0  0  0  0  0  0  0  0  0  0
  186.5670  178.1340  145.8280 C   0  0  0  0  0  3  0  0  0  0  0  0
  192.5830  175.8390  148.0870 Cl  0  0  0  0  0  0  0  0  0  0  0  0
  186.1280  178.3000  143.4600 C   0  0  0  0  0  0  0  0  0  0  0  0
  184.7710  178.5010  143.7300 C   0  0  0  0  0  3  0  0  0  0  0  0
  190.2200  177.7730  142.5050 N   0  0  0  0  0  0  0  0  0  0  0  0
  190.7760  177.1170  144.7180 C   0  0  0  0  0  0  0  0  0  0  0  0
  191.7340  176.6600  145.6250 C   0  0  0  0  0  3  0  0  0  0  0  0
  188.6050  178.6050  139.4340 N   0  0  0  0  0  0  0  0  0  0  0  0
  188.2420  177.8830  140.4310 C   0  0  0  0  0  3  0  0  0  0  0  0
  190.3630  176.9250  138.3190 S   0  0  0  0  0  1  0  0  0  0  0  0
  188.9100  178.0050  138.1590 C   0  0  1  0  0  3  0  0  0  0  0  0
  187.7100  177.2220  137.6180 C   0  0  0  0  0  2  0  0  0  0  0  0
  186.6590  178.1410  137.0070 C   0  0  0  0  0  2  0  0  0  0  0  0
  185.3080  176.1960  137.3260 O   0  0  0  0  0  1  0  0  0  0  0  0
  185.2680  177.5910  137.2610 C   0  0  1  0  0  3  0  0  0  0  0  0
  184.7240  178.1470  138.5340 C   0  0  0  0  0  0  0  0  0  0  0  0
  183.8310  177.5310  139.1720 O   0  0  0  0  0  1  0  0  0  0  0  0
  185.2290  179.3400  139.0330 O   0  0  0  0  0  0  0  0  0  0  0  0
  1  9  1  0  0  0  0
  2  5  1  0  0  0  0
  2  3  1  0  0  0  0
  3  7  1  0  0  0  0
  5 14  2  0  0  0  0
  6  1  2  0  0  0  0
  7  4  2  0  0  0  0
  8 22  1  6  0  0  0
  8 12  1  0  0  0  0
  8 13  1  0  0  0  0
 10 19  1  0  0  0  0
 11  4  1  0  0  0  0
 11 15  1  0  0  0  0
 12 16  1  0  0  0  0
 13  2  2  0  0  0  0
 14  1  1  0  0  0  0
 16 17  2  0  0  0  0
 16  5  1  0  0  0  0
 17  6  1  0  0  0  0
 18 13  1  0  0  0  0
 18 10  2  0  0  0  0
 19  3  2  0  0  0  0
 19 20  1  0  0  0  0
 20 11  2  0  0  0  0
 21 22  2  0  0  0  0
 24 23  1  1  0  0  0
 24 21  1  0  0  0  0
 25 24  1  0  0  0  0
 26 28  1  0  0  0  0
 26 25  1  0  0  0  0
 28 27  1  1  0  0  0
 28 29  1  0  0  0  0
 29 31  2  0  0  0  0
 29 30  1  0  0  0  0
M  END
>  <MODEL>
3

>  <REMARK>
 VINA RESULT:     -10.3      2.584      3.374
  Name = 
  6 active torsions:
  status: ('A' for Active; 'I' for Inactive)
    1  A    between atoms: C_1  and  C_24
    2  A    between atoms: C_3  and  C_19
    3  A    between atoms: C_3  and  C_22
    4  A    between atoms: N_9  and  C_22
    5  A    between atoms: C_15  and  C_23
    6  A    between atoms: C_19  and  C_24
                            x       y       z     vdW  Elec       q    Type
                         _______ _______ _______ _____ _____    ______ ____

>  <TORSDO>
F 6

$$$$
=
 OpenBabel10272400263D

 31 34  0  0  1  0  0  0  0  0999 V2000
  188.2280  177.4670  147.9680 C   0  0  0  0  0  0  0  0  0  0  0  0
  187.3070  177.7230  144.2580 C   0  0  0  0  0  0  0  0  0  0  0  0
  185.9470  178.1490  144.2060 C   0  0  0  0  0  0  0  0  0  0  0  0
  183.8830  178.8950  145.2750 C   0  0  0  0  0  3  0  0  0  0  0  0
  188.0810  177.5530  145.5340 C   0  0  0  0  0  0  0  0  0  0  0  0
  189.6140  177.3240  147.8890 C   0  0  0  0  0  3  0  0  0  0  0  0
  185.2120  178.4770  145.3590 C   0  0  0  0  0  3  0  0  0  0  0  0
  189.4030  176.9810  142.9850 C   0  0  1  0  0  3  0  0  0  0  0  0
  187.6190  177.5050  149.1770 F   0  0  0  0  0  0  0  0  0  0  0  0
  185.9920  177.9640  141.7900 C   0  0  0  0  0  3  0  0  0  0  0  0
  183.2610  178.9960  144.0310 C   0  0  0  0  0  0  0  0  0  0  0  0
  190.1270  177.3000  144.2080 N   0  0  0  0  0  2  0  0  0  0  0  0
  187.9700  177.4760  143.0260 C   0  0  0  0  0  0  0  0  0  0  0  0
  187.4710  177.5840  146.8000 C   0  0  0  0  0  3  0  0  0  0  0  0
  181.5940  179.5200  143.9240 Cl  0  0  0  0  0  0  0  0  0  0  0  0
  189.4750  177.3730  145.4720 C   0  0  0  0  0  0  0  0  0  0  0  0
  190.2360  177.2780  146.6420 C   0  0  0  0  0  3  0  0  0  0  0  0
  187.2880  177.5780  141.8520 N   0  0  0  0  0  0  0  0  0  0  0  0
  185.2990  178.2650  142.9530 C   0  0  0  0  0  0  0  0  0  0  0  0
  183.9690  178.6820  142.8700 C   0  0  0  0  0  3  0  0  0  0  0  0
  190.4210  176.8080  140.8030 N   0  0  0  0  0  0  0  0  0  0  0  0
  190.1550  177.5430  141.8210 C   0  0  0  0  0  3  0  0  0  0  0  0
  192.8990  177.3140  139.9300 S   0  0  0  0  0  1  0  0  0  0  0  0
  191.1020  177.3540  139.6550 C   0  0  1  0  0  3  0  0  0  0  0  0
  190.7320  176.5910  138.3800 C   0  0  0  0  0  2  0  0  0  0  0  0
  189.9440  177.4590  137.4070 C   0  0  0  0  0  2  0  0  0  0  0  0
  189.0160  179.6470  137.6640 O   0  0  0  0  0  1  0  0  0  0  0  0
  188.9670  178.3430  138.1610 C   0  0  1  0  0  3  0  0  0  0  0  0
  187.5840  177.7980  138.0340 C   0  0  0  0  0  0  0  0  0  0  0  0
  187.3960  176.6050  137.6760 O   0  0  0  0  0  0  0  0  0  0  0  0
  186.4970  178.6050  138.3390 O   0  0  0  0  0  1  0  0  0  0  0  0
  1  9  1  0  0  0  0
  2  5  1  0  0  0  0
  3  2  1  0  0  0  0
  3  7  1  0  0  0  0
  4  7  2  0  0  0  0
  5 14  1  0  0  0  0
  6  1  1  0  0  0  0
  8 22  1  6  0  0  0
  8 13  1  0  0  0  0
  8 12  1  0  0  0  0
 10 18  2  0  0  0  0
 10 19  1  0  0  0  0
 11  4  1  0  0  0  0
 12 16  1  0  0  0  0
 13  2  2  0  0  0  0
 14  1  2  0  0  0  0
 15 11  1  0  0  0  0
 16  5  2  0  0  0  0
 16 17  1  0  0  0  0
 17  6  2  0  0  0  0
 18 13  1  0  0  0  0
 19  3  2  0  0  0  0
 20 19  1  0  0  0  0
 20 11  2  0  0  0  0
 21 22  2  0  0  0  0
 24 23  1  1  0  0  0
 24 21  1  0  0  0  0
 25 24  1  0  0  0  0
 26 28  1  0  0  0  0
 26 25  1  0  0  0  0
 28 27  1  6  0  0  0
 29 28  1  0  0  0  0
 29 31  1  0  0  0  0
 30 29  2  0  0  0  0
M  END
>  <MODEL>
4

>  <REMARK>
 VINA RESULT:      -9.7      3.278      5.209
  Name = 
  6 active torsions:
  status: ('A' for Active; 'I' for Inactive)
    1  A    between atoms: C_1  and  C_24
    2  A    between atoms: C_3  and  C_19
    3  A    between atoms: C_3  and  C_22
    4  A    between atoms: N_9  and  C_22
    5  A    between atoms: C_15  and  C_23
    6  A    between atoms: C_19  and  C_24
                            x       y       z     vdW  Elec       q    Type
                         _______ _______ _______ _____ _____    ______ ____

>  <TORSDO>
F 6

$$$$
=
 OpenBabel10272400263D

 31 34  0  0  1  0  0  0  0  0999 V2000
  185.0950  178.3860  145.8860 C   0  0  0  0  0  0  0  0  0  0  0  0
  188.3500  177.8100  143.9490 C   0  0  0  0  0  0  0  0  0  0  0  0
  189.3060  177.3320  144.8950 C   0  0  0  0  0  0  0  0  0  0  0  0
  189.9340  176.5960  147.1360 C   0  0  0  0  0  3  0  0  0  0  0  0
  186.9170  178.1060  144.2880 C   0  0  0  0  0  0  0  0  0  0  0  0
  184.1920  178.5730  144.8390 C   0  0  0  0  0  3  0  0  0  0  0  0
  188.9770  177.0680  146.2350 C   0  0  0  0  0  3  0  0  0  0  0  0
  187.8440  178.5270  141.5420 C   0  0  1  0  0  3  0  0  0  0  0  0
  184.6620  178.4210  147.1690 F   0  0  0  0  0  0  0  0  0  0  0  0
  191.0020  177.3300  143.1640 C   0  0  0  0  0  3  0  0  0  0  0  0
  191.2440  176.3770  146.7100 C   0  0  0  0  0  0  0  0  0  0  0  0
  186.4450  178.3300  141.8920 N   0  0  0  0  0  2  0  0  0  0  0  0
  188.7790  177.9850  142.6060 C   0  0  0  0  0  0  0  0  0  0  0  0
  186.4440  178.1520  145.6100 C   0  0  0  0  0  3  0  0  0  0  0  0
  192.4440  175.7870  147.8380 Cl  0  0  0  0  0  0  0  0  0  0  0  0
  185.9990  178.3310  143.2450 C   0  0  0  0  0  0  0  0  0  0  0  0
  184.6450  178.5450  143.5200 C   0  0  0  0  0  3  0  0  0  0  0  0
  190.0810  177.7660  142.2730 N   0  0  0  0  0  0  0  0  0  0  0  0
  190.6390  177.0960  144.4810 C   0  0  0  0  0  0  0  0  0  0  0  0
  191.5950  176.6250  145.3830 C   0  0  0  0  0  3  0  0  0  0  0  0
  187.6050  178.4250  139.1410 N   0  0  0  0  0  0  0  0  0  0  0  0
  188.0980  177.9040  140.2060 C   0  0  0  0  0  3  0  0  0  0  0  0
  189.4290  176.9040  137.9100 S   0  0  0  0  0  1  0  0  0  0  0  0
  187.8840  177.8600  137.8450 C   0  0  1  0  0  3  0  0  0  0  0  0
  186.7250  176.9830  137.3650 C   0  0  0  0  0  2  0  0  0  0  0  0
  185.3710  177.5730  137.7410 C   0  0  0  0  0  2  0  0  0  0  0  0
  184.7760  176.4110  135.7390 O   0  0  0  0  0  1  0  0  0  0  0  0
  184.2660  176.9070  136.9410 C   0  0  1  0  0  3  0  0  0  0  0  0
  183.6600  175.7990  137.7350 C   0  0  0  0  0  0  0  0  0  0  0  0
  182.6510  176.0090  138.4590 O   0  0  0  0  0  1  0  0  0  0  0  0
  184.1950  174.5210  137.6520 O   0  0  0  0  0  0  0  0  0  0  0  0
  1  9  1  0  0  0  0
  2  5  1  0  0  0  0
  2  3  1  0  0  0  0
  3  7  1  0  0  0  0
  5 14  2  0  0  0  0
  6  1  2  0  0  0  0
  7  4  2  0  0  0  0
  8 22  1  6  0  0  0
  8 12  1  0  0  0  0
  8 13  1  0  0  0  0
 10 19  1  0  0  0  0
 11  4  1  0  0  0  0
 11 15  1  0  0  0  0
 12 16  1  0  0  0  0
 13  2  2  0  0  0  0
 14  1  1  0  0  0  0
 16 17  2  0  0  0  0
 16  5  1  0  0  0  0
 17  6  1  0  0  0  0
 18 13  1  0  0  0  0
 18 10  2  0  0  0  0
 19  3  2  0  0  0  0
 19 20  1  0  0  0  0
 20 11  2  0  0  0  0
 21 22  2  0  0  0  0
 24 23  1  1  0  0  0
 24 21  1  0  0  0  0
 25 26  1  0  0  0  0
 25 24  1  0  0  0  0
 28 27  1  6  0  0  0
 28 29  1  0  0  0  0
 28 26  1  0  0  0  0
 29 30  1  0  0  0  0
 31 29  2  0  0  0  0
M  END
>  <MODEL>
5

>  <REMARK>
 VINA RESULT:      -9.5      2.890      3.683
  Name = 
  6 active torsions:
  status: ('A' for Active; 'I' for Inactive)
    1  A    between atoms: C_1  and  C_24
    2  A    between atoms: C_3  and  C_19
    3  A    between atoms: C_3  and  C_22
    4  A    between atoms: N_9  and  C_22
    5  A    between atoms: C_15  and  C_23
    6  A    between atoms: C_19  and  C_24
                            x       y       z     vdW  Elec       q    Type
                         _______ _______ _______ _____ _____    ______ ____

>  <TORSDO>
F 6

$$$$
=
 OpenBabel10272400263D

 31 34  0  0  1  0  0  0  0  0999 V2000
  185.2070  178.5140  145.3120 C   0  0  0  0  0  0  0  0  0  0  0  0
  188.6290  177.7500  143.7680 C   0  0  0  0  0  0  0  0  0  0  0  0
  189.4760  177.3410  144.8400 C   0  0  0  0  0  0  0  0  0  0  0  0
  189.8630  176.7830  147.1850 C   0  0  0  0  0  3  0  0  0  0  0  0
  187.1750  178.0870  143.9340 C   0  0  0  0  0  0  0  0  0  0  0  0
  184.4170  178.6240  144.1670 C   0  0  0  0  0  3  0  0  0  0  0  0
  189.0100  177.1900  146.1570 C   0  0  0  0  0  3  0  0  0  0  0  0
  188.3800  178.2740  141.2720 C   0  0  1  0  0  3  0  0  0  0  0  0
  184.6480  178.6560  146.5380 F   0  0  0  0  0  0  0  0  0  0  0  0
  191.3370  177.1820  143.2950 C   0  0  0  0  0  3  0  0  0  0  0  0
  191.2050  176.5170  146.9130 C   0  0  0  0  0  0  0  0  0  0  0  0
  186.9490  178.1200  141.4930 N   0  0  0  0  0  2  0  0  0  0  0  0
  189.1940  177.8110  142.4650 C   0  0  0  0  0  0  0  0  0  0  0  0
  186.5730  178.2440  145.1940 C   0  0  0  0  0  3  0  0  0  0  0  0
  192.2760  176.0080  148.2000 Cl  0  0  0  0  0  0  0  0  0  0  0  0
  186.3700  178.2350  142.7890 C   0  0  0  0  0  0  0  0  0  0  0  0
  184.9990  178.4840  142.9080 C   0  0  0  0  0  3  0  0  0  0  0  0
  190.5180  177.5540  142.2840 N   0  0  0  0  0  0  0  0  0  0  0  0
  190.8390  177.0590  144.5840 C   0  0  0  0  0  0  0  0  0  0  0  0
  191.6920  176.6540  145.6130 C   0  0  0  0  0  3  0  0  0  0  0  0
  189.4790  178.1110  139.1280 N   0  0  0  0  0  0  0  0  0  0  0  0
  188.7540  177.5420  140.0230 C   0  0  0  0  0  3  0  0  0  0  0  0
  191.4360  176.5040  138.2660 S   0  0  0  0  0  1  0  0  0  0  0  0
  189.8860  177.3970  137.9440 C   0  0  1  0  0  3  0  0  0  0  0  0
  188.7920  176.4330  137.4780 C   0  0  0  0  0  2  0  0  0  0  0  0
  187.6730  177.1560  136.7380 C   0  0  0  0  0  2  0  0  0  0  0  0
  188.2460  177.5900  134.4590 O   0  0  0  0  0  1  0  0  0  0  0  0
  187.6000  176.6800  135.2990 C   0  0  1  0  0  3  0  0  0  0  0  0
  188.2290  175.3340  135.1760 C   0  0  0  0  0  0  0  0  0  0  0  0
  189.4120  175.2150  134.7610 O   0  0  0  0  0  0  0  0  0  0  0  0
  187.5130  174.2040  135.5480 O   0  0  0  0  0  1  0  0  0  0  0  0
  1  9  1  0  0  0  0
  2  5  1  0  0  0  0
  2  3  1  0  0  0  0
  3  7  1  0  0  0  0
  5 14  2  0  0  0  0
  6  1  2  0  0  0  0
  7  4  2  0  0  0  0
  8 22  1  6  0  0  0
  8 12  1  0  0  0  0
  8 13  1  0  0  0  0
 10 19  1  0  0  0  0
 11  4  1  0  0  0  0
 11 15  1  0  0  0  0
 12 16  1  0  0  0  0
 13  2  2  0  0  0  0
 14  1  1  0  0  0  0
 16 17  2  0  0  0  0
 16  5  1  0  0  0  0
 17  6  1  0  0  0  0
 18 13  1  0  0  0  0
 18 10  2  0  0  0  0
 19  3  2  0  0  0  0
 19 20  1  0  0  0  0
 20 11  2  0  0  0  0
 21 22  2  0  0  0  0
 24 23  1  1  0  0  0
 24 21  1  0  0  0  0
 25 24  1  0  0  0  0
 26 25  1  0  0  0  0
 28 27  1  6  0  0  0
 28 26  1  0  0  0  0
 29 28  1  0  0  0  0
 29 31  1  0  0  0  0
 30 29  2  0  0  0  0
M  END
>  <MODEL>
6

>  <REMARK>
 VINA RESULT:      -8.7      2.149      2.508
  Name = 
  6 active torsions:
  status: ('A' for Active; 'I' for Inactive)
    1  A    between atoms: C_1  and  C_24
    2  A    between atoms: C_3  and  C_19
    3  A    between atoms: C_3  and  C_22
    4  A    between atoms: N_9  and  C_22
    5  A    between atoms: C_15  and  C_23
    6  A    between atoms: C_19  and  C_24
                            x       y       z     vdW  Elec       q    Type
                         _______ _______ _______ _____ _____    ______ ____

>  <TORSDO>
F 6

$$$$
=
 OpenBabel10272400263D

 31 34  0  0  1  0  0  0  0  0999 V2000
  189.2690  177.4520  146.5750 C   0  0  0  0  0  0  0  0  0  0  0  0
  188.1600  177.9460  142.9420 C   0  0  0  0  0  0  0  0  0  0  0  0
  189.3130  177.7240  142.1320 C   0  0  0  0  0  0  0  0  0  0  0  0
  191.6550  177.0960  141.8470 C   0  0  0  0  0  3  0  0  0  0  0  0
  188.1480  177.7940  144.4350 C   0  0  0  0  0  0  0  0  0  0  0  0
  188.0350  177.4170  147.2270 C   0  0  0  0  0  3  0  0  0  0  0  0
  190.5450  177.3110  142.6670 C   0  0  0  0  0  3  0  0  0  0  0  0
  185.6860  178.6000  143.0690 C   0  0  1  0  0  3  0  0  0  0  0  0
  190.4130  177.2960  147.2820 F   0  0  0  0  0  0  0  0  0  0  0  0
  188.0270  178.3020  140.1600 C   0  0  0  0  0  3  0  0  0  0  0  0
  191.5530  177.2900  140.4700 C   0  0  0  0  0  0  0  0  0  0  0  0
  185.7040  177.9860  144.3890 N   0  0  0  0  0  2  0  0  0  0  0  0
  186.9510  178.3040  142.2870 C   0  0  0  0  0  0  0  0  0  0  0  0
  189.3210  177.6350  145.1920 C   0  0  0  0  0  3  0  0  0  0  0  0
  192.9430  177.0230  139.4410 Cl  0  0  0  0  0  0  0  0  0  0  0  0
  186.9140  177.7910  145.1140 C   0  0  0  0  0  0  0  0  0  0  0  0
  186.8600  177.5860  146.4960 C   0  0  0  0  0  3  0  0  0  0  0  0
  186.9360  178.4920  140.9380 N   0  0  0  0  0  0  0  0  0  0  0  0
  189.2280  177.9070  140.7310 C   0  0  0  0  0  0  0  0  0  0  0  0
  190.3390  177.6940  139.9120 C   0  0  0  0  0  3  0  0  0  0  0  0
  183.3840  178.8410  142.3820 N   0  0  0  0  0  0  0  0  0  0  0  0
  184.4610  178.1440  142.3430 C   0  0  0  0  0  3  0  0  0  0  0  0
  180.7160  178.9020  142.5650 S   0  0  0  0  0  1  0  0  0  0  0  0
  182.2130  178.4340  141.6460 C   0  0  1  0  0  3  0  0  0  0  0  0
  182.2030  179.0490  140.2440 C   0  0  0  0  0  2  0  0  0  0  0  0
  182.8270  178.1200  139.2100 C   0  0  0  0  0  2  0  0  0  0  0  0
  184.5290  179.7990  139.2010 O   0  0  0  0  0  1  0  0  0  0  0  0
  183.8720  178.8640  138.3980 C   0  0  1  0  0  3  0  0  0  0  0  0
  184.8550  177.8990  137.8270 C   0  0  0  0  0  0  0  0  0  0  0  0
  185.9810  178.2940  137.4260 O   0  0  0  0  0  0  0  0  0  0  0  0
  184.5360  176.5500  137.7630 O   0  0  0  0  0  1  0  0  0  0  0  0
  1  6  1  0  0  0  0
  1  9  1  0  0  0  0
  2  5  1  0  0  0  0
  3  7  1  0  0  0  0
  3  2  2  0  0  0  0
  4  7  2  0  0  0  0
  5 16  2  0  0  0  0
  5 14  1  0  0  0  0
  8 22  1  6  0  0  0
  8 12  1  0  0  0  0
 10 19  2  0  0  0  0
 10 18  1  0  0  0  0
 11  4  1  0  0  0  0
 12 16  1  0  0  0  0
 13  2  1  0  0  0  0
 13  8  1  0  0  0  0
 14  1  2  0  0  0  0
 15 11  1  0  0  0  0
 16 17  1  0  0  0  0
 17  6  2  0  0  0  0
 18 13  2  0  0  0  0
 19  3  1  0  0  0  0
 20 11  2  0  0  0  0
 20 19  1  0  0  0  0
 22 21  2  0  0  0  0
 24 21  1  0  0  0  0
 24 23  1  1  0  0  0
 25 24  1  0  0  0  0
 26 25  1  0  0  0  0
 28 27  1  1  0  0  0
 28 26  1  0  0  0  0
 29 28  1  0  0  0  0
 30 29  2  0  0  0  0
 31 29  1  0  0  0  0
M  END
>  <MODEL>
7

>  <REMARK>
 VINA RESULT:      -8.7      3.752      5.618
  Name = 
  6 active torsions:
  status: ('A' for Active; 'I' for Inactive)
    1  A    between atoms: C_1  and  C_24
    2  A    between atoms: C_3  and  C_19
    3  A    between atoms: C_3  and  C_22
    4  A    between atoms: N_9  and  C_22
    5  A    between atoms: C_15  and  C_23
    6  A    between atoms: C_19  and  C_24
                            x       y       z     vdW  Elec       q    Type
                         _______ _______ _______ _____ _____    ______ ____

>  <TORSDO>
F 6

$$$$
=
 OpenBabel10272400263D

 31 34  0  0  1  0  0  0  0  0999 V2000
  189.0960  177.3830  146.2760 C   0  0  0  0  0  0  0  0  0  0  0  0
  187.6830  178.0040  142.7710 C   0  0  0  0  0  0  0  0  0  0  0  0
  188.7390  177.7270  141.8520 C   0  0  0  0  0  0  0  0  0  0  0  0
  191.0010  176.9670  141.3390 C   0  0  0  0  0  3  0  0  0  0  0  0
  187.8010  177.8270  144.2570 C   0  0  0  0  0  0  0  0  0  0  0  0
  187.9300  177.4100  147.0420 C   0  0  0  0  0  3  0  0  0  0  0  0
  189.9880  177.2320  142.2640 C   0  0  0  0  0  3  0  0  0  0  0  0
  185.2760  178.8010  143.1400 C   0  0  1  0  0  3  0  0  0  0  0  0
  190.2910  177.1470  146.8700 F   0  0  0  0  0  0  0  0  0  0  0  0
  187.3100  178.4130  140.0180 C   0  0  0  0  0  3  0  0  0  0  0  0
  190.7810  177.1890  139.9800 C   0  0  0  0  0  0  0  0  0  0  0  0
  185.3800  178.1640  144.4460 N   0  0  0  0  0  2  0  0  0  0  0  0
  186.4410  178.4430  142.2380 C   0  0  0  0  0  0  0  0  0  0  0  0
  189.0290  177.5860  144.8970 C   0  0  0  0  0  3  0  0  0  0  0  0
  192.0500  176.8570  138.8210 Cl  0  0  0  0  0  0  0  0  0  0  0  0
  186.6390  177.8860  145.0500 C   0  0  0  0  0  0  0  0  0  0  0  0
  186.7030  177.6610  146.4280 C   0  0  0  0  0  3  0  0  0  0  0  0
  186.3110  178.6550  140.8990 N   0  0  0  0  0  0  0  0  0  0  0  0
  188.5330  177.9390  140.4680 C   0  0  0  0  0  0  0  0  0  0  0  0
  189.5470  177.6740  139.5450 C   0  0  0  0  0  3  0  0  0  0  0  0
  182.8710  178.9400  142.9730 N   0  0  0  0  0  0  0  0  0  0  0  0
  183.9620  178.4300  142.5290 C   0  0  0  0  0  3  0  0  0  0  0  0
  180.2700  178.7890  143.5830 S   0  0  0  0  0  1  0  0  0  0  0  0
  181.6050  178.6260  142.3590 C   0  0  1  0  0  3  0  0  0  0  0  0
  181.3420  179.5260  141.1480 C   0  0  0  0  0  2  0  0  0  0  0  0
  181.2640  178.7290  139.8520 C   0  0  0  0  0  2  0  0  0  0  0  0
  181.6720  180.8440  138.8180 O   0  0  0  0  0  1  0  0  0  0  0  0
  181.9560  179.4800  138.7300 C   0  0  1  0  0  3  0  0  0  0  0  0
  183.4290  179.2580  138.8020 C   0  0  0  0  0  0  0  0  0  0  0  0
  183.9280  178.1530  138.4610 O   0  0  0  0  0  0  0  0  0  0  0  0
  184.2600  180.2880  139.2210 O   0  0  0  0  0  1  0  0  0  0  0  0
  1  9  1  0  0  0  0
  1  6  1  0  0  0  0
  2  5  1  0  0  0  0
  3  7  1  0  0  0  0
  3  2  2  0  0  0  0
  4  7  2  0  0  0  0
  5 14  1  0  0  0  0
  5 16  2  0  0  0  0
  8 22  1  6  0  0  0
  8 12  1  0  0  0  0
 10 19  2  0  0  0  0
 10 18  1  0  0  0  0
 11  4  1  0  0  0  0
 12 16  1  0  0  0  0
 13  2  1  0  0  0  0
 13  8  1  0  0  0  0
 14  1  2  0  0  0  0
 15 11  1  0  0  0  0
 16 17  1  0  0  0  0
 17  6  2  0  0  0  0
 18 13  2  0  0  0  0
 19  3  1  0  0  0  0
 20 11  2  0  0  0  0
 20 19  1  0  0  0  0
 22 21  2  0  0  0  0
 24 21  1  0  0  0  0
 24 23  1  1  0  0  0
 25 24  1  0  0  0  0
 26 25  1  0  0  0  0
 28 29  1  0  0  0  0
 28 27  1  1  0  0  0
 28 26  1  0  0  0  0
 29 31  1  0  0  0  0
 30 29  2  0  0  0  0
M  END
>  <MODEL>
8

>  <REMARK>
 VINA RESULT:      -8.6      4.401      6.514
  Name = 
  6 active torsions:
  status: ('A' for Active; 'I' for Inactive)
    1  A    between atoms: C_1  and  C_24
    2  A    between atoms: C_3  and  C_19
    3  A    between atoms: C_3  and  C_22
    4  A    between atoms: N_9  and  C_22
    5  A    between atoms: C_15  and  C_23
    6  A    between atoms: C_19  and  C_24
                            x       y       z     vdW  Elec       q    Type
                         _______ _______ _______ _____ _____    ______ ____

>  <TORSDO>
F 6

$$$$
=
 OpenBabel10272400263D

 31 34  0  0  1  0  0  0  0  0999 V2000
  188.2000  177.3620  147.9800 C   0  0  0  0  0  0  0  0  0  0  0  0
  187.4060  177.7280  144.2500 C   0  0  0  0  0  0  0  0  0  0  0  0
  186.0460  178.1500  144.1640 C   0  0  0  0  0  0  0  0  0  0  0  0
  183.9430  178.8560  145.1830 C   0  0  0  0  0  3  0  0  0  0  0  0
  188.1360  177.5220  145.5470 C   0  0  0  0  0  0  0  0  0  0  0  0
  189.5880  177.2260  147.9450 C   0  0  0  0  0  3  0  0  0  0  0  0
  185.2710  178.4400  145.3000 C   0  0  0  0  0  3  0  0  0  0  0  0
  189.5480  177.0310  143.0290 C   0  0  1  0  0  3  0  0  0  0  0  0
  187.5490  177.3610  149.1680 F   0  0  0  0  0  0  0  0  0  0  0  0
  186.1750  178.0390  141.7460 C   0  0  0  0  0  3  0  0  0  0  0  0
  183.3640  178.9930  143.9220 C   0  0  0  0  0  0  0  0  0  0  0  0
  190.2280  177.3160  144.2850 N   0  0  0  0  0  2  0  0  0  0  0  0
  188.1120  177.5200  143.0350 C   0  0  0  0  0  0  0  0  0  0  0  0
  187.4830  177.5120  146.7910 C   0  0  0  0  0  3  0  0  0  0  0  0
  181.6990  179.5130  143.7730 Cl  0  0  0  0  0  0  0  0  0  0  0  0
  189.5330  177.3490  145.5270 C   0  0  0  0  0  0  0  0  0  0  0  0
  190.2530  177.2200  146.7190 C   0  0  0  0  0  3  0  0  0  0  0  0
  187.4700  177.6560  141.8420 N   0  0  0  0  0  0  0  0  0  0  0  0
  185.4420  178.3020  142.8930 C   0  0  0  0  0  0  0  0  0  0  0  0
  184.1130  178.7170  142.7780 C   0  0  0  0  0  3  0  0  0  0  0  0
  190.6020  176.9430  140.8580 N   0  0  0  0  0  0  0  0  0  0  0  0
  190.3370  177.6310  141.9090 C   0  0  0  0  0  3  0  0  0  0  0  0
  193.1070  177.2890  139.9850 S   0  0  0  0  0  1  0  0  0  0  0  0
  191.3190  177.5280  139.7530 C   0  0  1  0  0  3  0  0  0  0  0  0
  190.8610  176.9300  138.4200 C   0  0  0  0  0  2  0  0  0  0  0  0
  191.1950  175.4460  138.3170 C   0  0  0  0  0  2  0  0  0  0  0  0
  191.4730  176.1110  136.0380 O   0  0  0  0  0  1  0  0  0  0  0  0
  191.8420  175.1450  136.9770 C   0  0  1  0  0  3  0  0  0  0  0  0
  193.3250  175.1130  137.1240 C   0  0  0  0  0  0  0  0  0  0  0  0
  194.0290  176.0810  136.7300 O   0  0  0  0  0  0  0  0  0  0  0  0
  193.9330  174.0200  137.7250 O   0  0  0  0  0  1  0  0  0  0  0  0
  1  9  1  0  0  0  0
  2  5  1  0  0  0  0
  3  2  1  0  0  0  0
  3  7  1  0  0  0  0
  4  7  2  0  0  0  0
  5 14  1  0  0  0  0
  6  1  1  0  0  0  0
  8 22  1  6  0  0  0
  8 13  1  0  0  0  0
  8 12  1  0  0  0  0
 10 18  2  0  0  0  0
 10 19  1  0  0  0  0
 11  4  1  0  0  0  0
 12 16  1  0  0  0  0
 13  2  2  0  0  0  0
 14  1  2  0  0  0  0
 15 11  1  0  0  0  0
 16  5  2  0  0  0  0
 16 17  1  0  0  0  0
 17  6  2  0  0  0  0
 18 13  1  0  0  0  0
 19  3  2  0  0  0  0
 20 19  1  0  0  0  0
 20 11  2  0  0  0  0
 21 22  2  0  0  0  0
 24 23  1  1  0  0  0
 24 21  1  0  0  0  0
 25 24  1  0  0  0  0
 26 25  1  0  0  0  0
 28 27  1  6  0  0  0
 28 29  1  0  0  0  0
 28 26  1  0  0  0  0
 29 31  1  0  0  0  0
 30 29  2  0  0  0  0
M  END
>  <MODEL>
9

>  <REMARK>
 VINA RESULT:      -8.6      3.038      4.810
  Name = 
  6 active torsions:
  status: ('A' for Active; 'I' for Inactive)
    1  A    between atoms: C_1  and  C_24
    2  A    between atoms: C_3  and  C_19
    3  A    between atoms: C_3  and  C_22
    4  A    between atoms: N_9  and  C_22
    5  A    between atoms: C_15  and  C_23
    6  A    between atoms: C_19  and  C_24
                            x       y       z     vdW  Elec       q    Type
                         _______ _______ _______ _____ _____    ______ ____

>  <TORSDO>
F 6

$$$$
