=
 OpenBabel10262423493D

 34 39  0  0  1  0  0  0  0  0999 V2000
  189.6080  177.2190  146.3620 C   0  0  0  0  0  0  0  0  0  0  0  0
  191.1380  176.1580  144.7990 C   0  0  0  0  0  0  0  0  0  0  0  0
  189.0680  177.3430  143.9910 C   0  0  0  0  0  0  0  0  0  0  0  0
  188.5180  178.1010  141.6580 C   0  0  1  0  0  3  0  0  0  0  0  0
  191.7110  176.3200  147.1510 C   0  0  0  0  0  3  0  0  0  0  0  0
  192.0170  175.9050  145.8570 C   0  0  0  0  0  3  0  0  0  0  0  0
  190.8270  177.7230  142.1580 C   0  0  0  0  0  2  0  0  0  0  0  0
  189.9620  176.9200  145.0190 C   0  0  0  0  0  0  0  0  0  0  0  0
  189.1010  177.6770  140.0040 S   0  0  0  0  0  0  0  0  0  0  0  0
  190.4970  176.9520  147.4060 C   0  0  0  0  0  3  0  0  0  0  0  0
  187.7520  177.7180  144.3480 C   0  0  0  0  0  0  0  0  0  0  0  0
  188.3890  177.7320  146.6550 N   0  0  0  0  0  0  0  0  0  0  0  0
  191.4100  175.5580  143.5790 O   0  0  0  0  0  1  0  0  0  0  0  0
  187.1140  177.6040  141.9280 C   0  0  0  0  0  2  0  0  0  0  0  0
  186.7550  177.9180  143.3120 N   0  0  0  0  0  0  0  0  0  0  0  0
  190.8180  177.7770  140.6300 C   0  0  2  0  0  3  0  0  0  0  0  0
  189.4590  177.5300  142.6060 N   0  0  0  0  0  0  0  0  0  0  0  0
  187.4580  177.9520  145.6950 C   0  0  0  0  0  3  0  0  0  0  0  0
  183.1170  178.7180  142.8190 C   0  0  0  0  0  0  0  0  0  0  0  0
  182.7340  179.0360  144.1230 C   0  0  0  0  0  3  0  0  0  0  0  0
  185.3840  178.2720  143.5820 C   0  0  0  0  0  0  0  0  0  0  0  0
  183.6710  178.9810  145.1580 C   0  0  0  0  0  3  0  0  0  0  0  0
  184.4350  178.3430  142.5490 C   0  0  0  0  0  3  0  0  0  0  0  0
  184.9890  178.6060  144.8870 C   0  0  0  0  0  3  0  0  0  0  0  0
  181.9470  178.7950  141.5200 Cl  0  0  0  0  0  0  0  0  0  0  0  0
  191.6630  176.7360  140.0460 N   0  0  0  0  0  2  0  0  0  0  0  0
  190.9590  176.1090  139.0040 N   0  0  0  0  0  2  0  0  0  0  0  0
  189.8950  174.2800  137.1450 C   0  0  0  0  0  1  0  0  0  0  0  0
  191.9420  175.4450  138.1580 C   0  0  1  0  0  3  0  0  0  0  0  0
  191.2820  174.8490  136.8980 C   0  0  2  0  0  3  0  0  0  0  0  0
  192.5650  175.8490  135.3370 C   0  0  0  0  0  2  0  0  0  0  0  0
  193.6400  176.1600  136.4000 C   0  0  0  0  0  2  0  0  0  0  0  0
  193.0210  176.4640  137.7650 C   0  0  0  0  0  2  0  0  0  0  0  0
  191.2570  175.8010  135.8690 O   0  0  0  0  0  0  0  0  0  0  0  0
  1 12  1  0  0  0  0
  1 10  2  0  0  0  0
  2  8  2  0  0  0  0
  2  6  1  0  0  0  0
  3 11  2  0  0  0  0
  3  8  1  0  0  0  0
  4 14  1  1  0  0  0
  4 17  1  0  0  0  0
  5 10  1  0  0  0  0
  6  5  2  0  0  0  0
  7 17  1  0  0  0  0
  8  1  1  0  0  0  0
  9 16  1  0  0  0  0
  9  4  1  0  0  0  0
 11 18  1  0  0  0  0
 13  2  1  0  0  0  0
 14 15  1  0  0  0  0
 15 21  1  0  0  0  0
 15 11  1  0  0  0  0
 16 26  1  6  0  0  0
 16  7  1  0  0  0  0
 17  3  1  0  0  0  0
 18 12  2  0  0  0  0
 19 20  1  0  0  0  0
 20 22  2  0  0  0  0
 21 24  2  0  0  0  0
 23 19  2  0  0  0  0
 23 21  1  0  0  0  0
 24 22  1  0  0  0  0
 25 19  1  0  0  0  0
 27 26  1  0  0  0  0
 29 27  1  1  0  0  0
 30 28  1  1  0  0  0
 30 29  1  0  0  0  0
 31 34  1  0  0  0  0
 31 32  1  0  0  0  0
 32 33  1  0  0  0  0
 33 29  1  0  0  0  0
 34 30  1  0  0  0  0
M  END
>  <MODEL>
1

>  <REMARK>
 VINA RESULT:     -10.2      0.000      0.000
  Name = 
  4 active torsions:
  status: ('A' for Active; 'I' for Inactive)
    1  A    between atoms: N_3  and  C_13
    2  A    between atoms: N_3  and  N_17
    3  A    between atoms: C_12  and  N_28
    4  A    between atoms: N_17  and  C_29
                            x       y       z     vdW  Elec       q    Type
                         _______ _______ _______ _____ _____    ______ ____

>  <TORSDO>
F 4

$$$$
=
 OpenBabel10262423493D

 34 39  0  0  1  0  0  0  0  0999 V2000
  187.7800  177.8280  138.7230 C   0  0  0  0  0  0  0  0  0  0  0  0
  188.7930  178.2970  140.8830 C   0  0  0  0  0  0  0  0  0  0  0  0
  186.2940  178.3720  140.5750 C   0  0  0  0  0  0  0  0  0  0  0  0
  184.5070  178.3650  142.3420 C   0  0  1  0  0  3  0  0  0  0  0  0
  190.1540  177.4920  139.0420 C   0  0  0  0  0  3  0  0  0  0  0  0
  190.0370  177.9270  140.3610 C   0  0  0  0  0  3  0  0  0  0  0  0
  186.6580  177.5290  142.9740 C   0  0  0  0  0  2  0  0  0  0  0  0
  187.6200  178.1480  140.0980 C   0  0  0  0  0  0  0  0  0  0  0  0
  184.4500  178.7390  144.1060 S   0  0  0  0  0  0  0  0  0  0  0  0
  189.0320  177.4690  138.2180 C   0  0  0  0  0  3  0  0  0  0  0  0
  185.2640  178.6010  139.6320 C   0  0  0  0  0  0  0  0  0  0  0  0
  186.7280  177.9020  137.8730 N   0  0  0  0  0  0  0  0  0  0  0  0
  188.7720  178.8960  142.1330 O   0  0  0  0  0  1  0  0  0  0  0  0
  183.8020  179.4070  141.5000 C   0  0  0  0  0  2  0  0  0  0  0  0
  183.9670  179.0680  140.0850 N   0  0  0  0  0  0  0  0  0  0  0  0
  185.9710  177.7430  144.3230 C   0  0  2  0  0  3  0  0  0  0  0  0
  185.9070  178.2600  141.9680 N   0  0  0  0  0  0  0  0  0  0  0  0
  185.5030  178.3080  138.2860 C   0  0  0  0  0  3  0  0  0  0  0  0
  181.4910  180.9430  137.9700 C   0  0  0  0  0  0  0  0  0  0  0  0
  180.6760  179.9000  137.5250 C   0  0  0  0  0  3  0  0  0  0  0  0
  182.8680  179.3560  139.1980 C   0  0  0  0  0  0  0  0  0  0  0  0
  180.9460  178.5870  137.9190 C   0  0  0  0  0  3  0  0  0  0  0  0
  182.5780  180.6730  138.8050 C   0  0  0  0  0  3  0  0  0  0  0  0
  182.0340  178.3180  138.7540 C   0  0  0  0  0  3  0  0  0  0  0  0
  181.1480  182.5890  137.4860 Cl  0  0  0  0  0  0  0  0  0  0  0  0
  186.8740  178.3500  145.3000 N   0  0  0  0  0  2  0  0  0  0  0  0
  187.6790  177.3450  145.8620 N   0  0  0  0  0  2  0  0  0  0  0  0
  188.6380  177.9260  148.4460 C   0  0  0  0  0  1  0  0  0  0  0  0
  189.0400  177.8620  145.9150 C   0  0  1  0  0  3  0  0  0  0  0  0
  189.6420  177.7080  147.3270 C   0  0  2  0  0  3  0  0  0  0  0  0
  191.5050  176.5640  146.7790 C   0  0  0  0  0  2  0  0  0  0  0  0
  191.3600  177.0030  145.3070 C   0  0  0  0  0  2  0  0  0  0  0  0
  189.8930  177.1060  144.8850 C   0  0  0  0  0  2  0  0  0  0  0  0
  190.2680  176.4580  147.4520 O   0  0  0  0  0  0  0  0  0  0  0  0
  1  8  1  0  0  0  0
  2 13  1  0  0  0  0
  3 17  1  0  0  0  0
  4 14  1  6  0  0  0
  4  9  1  0  0  0  0
  5  6  2  0  0  0  0
  6  2  1  0  0  0  0
  7 16  1  0  0  0  0
  8  3  1  0  0  0  0
  8  2  2  0  0  0  0
  9 16  1  0  0  0  0
 10  1  2  0  0  0  0
 10  5  1  0  0  0  0
 11 15  1  0  0  0  0
 11  3  2  0  0  0  0
 12 18  2  0  0  0  0
 12  1  1  0  0  0  0
 15 14  1  0  0  0  0
 16 26  1  1  0  0  0
 17  4  1  0  0  0  0
 17  7  1  0  0  0  0
 18 11  1  0  0  0  0
 19 23  1  0  0  0  0
 20 22  1  0  0  0  0
 20 19  2  0  0  0  0
 21 15  1  0  0  0  0
 22 24  2  0  0  0  0
 23 21  2  0  0  0  0
 24 21  1  0  0  0  0
 25 19  1  0  0  0  0
 26 27  1  0  0  0  0
 29 27  1  1  0  0  0
 29 30  1  0  0  0  0
 30 34  1  0  0  0  0
 30 28  1  1  0  0  0
 31 34  1  0  0  0  0
 32 31  1  0  0  0  0
 33 32  1  0  0  0  0
 33 29  1  0  0  0  0
M  END
>  <MODEL>
2

>  <REMARK>
 VINA RESULT:      -9.4      3.316      7.299
  Name = 
  4 active torsions:
  status: ('A' for Active; 'I' for Inactive)
    1  A    between atoms: N_3  and  C_13
    2  A    between atoms: N_3  and  N_17
    3  A    between atoms: C_12  and  N_28
    4  A    between atoms: N_17  and  C_29
                            x       y       z     vdW  Elec       q    Type
                         _______ _______ _______ _____ _____    ______ ____

>  <TORSDO>
F 4

$$$$
=
 OpenBabel10262423493D

 34 39  0  0  1  0  0  0  0  0999 V2000
  184.0740  178.7950  144.4390 C   0  0  0  0  0  0  0  0  0  0  0  0
  186.2600  177.7320  144.4220 C   0  0  0  0  0  0  0  0  0  0  0  0
  185.1320  178.4200  142.2780 C   0  0  0  0  0  0  0  0  0  0  0  0
  186.1490  178.6650  139.9920 C   0  0  1  0  0  3  0  0  0  0  0  0
  185.2350  178.3880  146.5220 C   0  0  0  0  0  3  0  0  0  0  0  0
  186.2890  177.8070  145.8180 C   0  0  0  0  0  3  0  0  0  0  0  0
  187.6450  178.7460  141.8580 C   0  0  0  0  0  2  0  0  0  0  0  0
  185.1930  178.3270  143.7000 C   0  0  0  0  0  0  0  0  0  0  0  0
  187.6430  178.0570  139.1850 S   0  0  0  0  0  0  0  0  0  0  0  0
  184.1190  178.8560  145.8340 C   0  0  0  0  0  3  0  0  0  0  0  0
  183.8750  178.6410  141.6660 C   0  0  0  0  0  0  0  0  0  0  0  0
  182.9320  179.1550  143.8040 N   0  0  0  0  0  0  0  0  0  0  0  0
  187.2430  176.9790  143.7970 O   0  0  0  0  0  1  0  0  0  0  0  0
  184.8910  178.0100  139.4640 C   0  0  0  0  0  2  0  0  0  0  0  0
  183.7420  178.5000  140.2270 N   0  0  0  0  0  0  0  0  0  0  0  0
  188.5920  178.5320  140.6760 C   0  0  2  0  0  3  0  0  0  0  0  0
  186.2990  178.4230  141.4170 N   0  0  0  0  0  0  0  0  0  0  0  0
  182.8020  179.0570  142.4600 C   0  0  0  0  0  3  0  0  0  0  0  0
  180.9840  180.0470  138.1970 C   0  0  0  0  0  0  0  0  0  0  0  0
  180.0340  179.0230  138.2130 C   0  0  0  0  0  3  0  0  0  0  0  0
  182.4980  178.6770  139.5210 C   0  0  0  0  0  0  0  0  0  0  0  0
  180.3060  177.8300  138.8870 C   0  0  0  0  0  3  0  0  0  0  0  0
  182.2070  179.8760  138.8500 C   0  0  0  0  0  3  0  0  0  0  0  0
  181.5300  177.6600  139.5410 C   0  0  0  0  0  3  0  0  0  0  0  0
  180.6410  181.5450  137.3610 Cl  0  0  0  0  0  0  0  0  0  0  0  0
  189.6300  177.5510  140.9860 N   0  0  0  0  0  2  0  0  0  0  0  0
  189.5430  177.2100  142.3470 N   0  0  0  0  0  2  0  0  0  0  0  0
  190.8370  179.2230  143.8330 C   0  0  0  0  0  1  0  0  0  0  0  0
  190.8890  176.8790  142.7960 C   0  0  1  0  0  3  0  0  0  0  0  0
  191.3310  177.7910  143.9580 C   0  0  2  0  0  3  0  0  0  0  0  0
  191.8620  176.1960  145.4600 C   0  0  0  0  0  2  0  0  0  0  0  0
  191.9420  175.1440  144.3340 C   0  0  0  0  0  2  0  0  0  0  0  0
  190.9140  175.4070  143.2330 C   0  0  0  0  0  2  0  0  0  0  0  0
  190.9430  177.2330  145.1860 O   0  0  0  0  0  0  0  0  0  0  0  0
  1 10  2  0  0  0  0
  2  6  1  0  0  0  0
  3  8  1  0  0  0  0
  4 14  1  6  0  0  0
  4 17  1  0  0  0  0
  6  5  2  0  0  0  0
  8  2  2  0  0  0  0
  8  1  1  0  0  0  0
  9  4  1  0  0  0  0
  9 16  1  0  0  0  0
 10  5  1  0  0  0  0
 11  3  2  0  0  0  0
 11 18  1  0  0  0  0
 12  1  1  0  0  0  0
 13  2  1  0  0  0  0
 14 15  1  0  0  0  0
 15 11  1  0  0  0  0
 16 26  1  1  0  0  0
 16  7  1  0  0  0  0
 17  7  1  0  0  0  0
 17  3  1  0  0  0  0
 18 12  2  0  0  0  0
 19 20  2  0  0  0  0
 19 23  1  0  0  0  0
 20 22  1  0  0  0  0
 21 24  1  0  0  0  0
 21 15  1  0  0  0  0
 22 24  2  0  0  0  0
 23 21  2  0  0  0  0
 25 19  1  0  0  0  0
 26 27  1  0  0  0  0
 29 27  1  1  0  0  0
 29 33  1  0  0  0  0
 29 30  1  0  0  0  0
 30 28  1  6  0  0  0
 30 34  1  0  0  0  0
 32 31  1  0  0  0  0
 33 32  1  0  0  0  0
 34 31  1  0  0  0  0
M  END
>  <MODEL>
3

>  <REMARK>
 VINA RESULT:      -9.4      3.513      5.763
  Name = 
  4 active torsions:
  status: ('A' for Active; 'I' for Inactive)
    1  A    between atoms: N_3  and  C_13
    2  A    between atoms: N_3  and  N_17
    3  A    between atoms: C_12  and  N_28
    4  A    between atoms: N_17  and  C_29
                            x       y       z     vdW  Elec       q    Type
                         _______ _______ _______ _____ _____    ______ ____

>  <TORSDO>
F 4

$$$$
=
 OpenBabel10262423493D

 34 39  0  0  1  0  0  0  0  0999 V2000
  185.7770  177.9450  142.8070 C   0  0  0  0  0  0  0  0  0  0  0  0
  186.3630  178.6650  140.5600 C   0  0  0  0  0  0  0  0  0  0  0  0
  188.0840  177.6410  142.0880 C   0  0  0  0  0  0  0  0  0  0  0  0
  190.3430  176.7170  141.4900 C   0  0  1  0  0  3  0  0  0  0  0  0
  184.0470  178.6800  141.2850 C   0  0  0  0  0  3  0  0  0  0  0  0
  185.0120  178.9250  140.3090 C   0  0  0  0  0  3  0  0  0  0  0  0
  188.7390  176.8840  139.7230 C   0  0  0  0  0  2  0  0  0  0  0  0
  186.7560  178.0650  141.7850 C   0  0  0  0  0  0  0  0  0  0  0  0
  191.4740  176.9030  140.0970 S   0  0  0  0  0  0  0  0  0  0  0  0
  184.4330  178.2160  142.5400 C   0  0  0  0  0  3  0  0  0  0  0  0
  188.4430  177.4530  143.4440 C   0  0  0  0  0  0  0  0  0  0  0  0
  186.1370  177.6030  144.0680 N   0  0  0  0  0  0  0  0  0  0  0  0
  187.2870  179.1040  139.6250 O   0  0  0  0  0  1  0  0  0  0  0  0
  190.8490  177.3920  142.7470 C   0  0  0  0  0  2  0  0  0  0  0  0
  189.8370  177.2610  143.7980 N   0  0  0  0  0  0  0  0  0  0  0  0
  190.0520  176.6760  138.9670 C   0  0  2  0  0  3  0  0  0  0  0  0
  189.0640  177.2720  141.0840 N   0  0  0  0  0  0  0  0  0  0  0  0
  187.4320  177.3920  144.4080 C   0  0  0  0  0  3  0  0  0  0  0  0
  190.0690  177.4930  147.5410 C   0  0  0  0  0  0  0  0  0  0  0  0
  191.2630  176.8100  147.7780 C   0  0  0  0  0  3  0  0  0  0  0  0
  190.3000  177.0910  145.1520 C   0  0  0  0  0  0  0  0  0  0  0  0
  191.9840  176.2730  146.7080 C   0  0  0  0  0  3  0  0  0  0  0  0
  189.5920  177.6370  146.2360 C   0  0  0  0  0  3  0  0  0  0  0  0
  191.5060  176.4170  145.4020 C   0  0  0  0  0  3  0  0  0  0  0  0
  189.1700  178.1740  148.8790 Cl  0  0  0  0  0  0  0  0  0  0  0  0
  190.1490  177.5520  137.8000 N   0  0  0  0  0  2  0  0  0  0  0  0
  190.2720  176.7600  136.6450 N   0  0  0  0  0  2  0  0  0  0  0  0
  188.7610  174.5220  135.8430 C   0  0  0  0  0  1  0  0  0  0  0  0
  189.1280  177.0590  135.7940 C   0  0  1  0  0  3  0  0  0  0  0  0
  188.1150  175.8960  135.7910 C   0  0  2  0  0  3  0  0  0  0  0  0
  186.2770  177.0450  136.4120 C   0  0  0  0  0  2  0  0  0  0  0  0
  186.9580  178.3730  136.0210 C   0  0  0  0  0  2  0  0  0  0  0  0
  188.4620  178.3470  136.3000 C   0  0  0  0  0  2  0  0  0  0  0  0
  187.1930  176.0560  136.8360 O   0  0  0  0  0  0  0  0  0  0  0  0
  1 12  1  0  0  0  0
  2  8  1  0  0  0  0
  3 11  2  0  0  0  0
  4 14  1  1  0  0  0
  5 10  2  0  0  0  0
  6  2  2  0  0  0  0
  6  5  1  0  0  0  0
  7 17  1  0  0  0  0
  8  3  1  0  0  0  0
  8  1  2  0  0  0  0
  9  4  1  0  0  0  0
 10  1  1  0  0  0  0
 11 15  1  0  0  0  0
 11 18  1  0  0  0  0
 12 18  2  0  0  0  0
 13  2  1  0  0  0  0
 14 15  1  0  0  0  0
 15 21  1  0  0  0  0
 16 26  1  6  0  0  0
 16  7  1  0  0  0  0
 16  9  1  0  0  0  0
 17  4  1  0  0  0  0
 17  3  1  0  0  0  0
 19 20  1  0  0  0  0
 19 25  1  0  0  0  0
 21 24  2  0  0  0  0
 21 23  1  0  0  0  0
 22 20  2  0  0  0  0
 23 19  2  0  0  0  0
 24 22  1  0  0  0  0
 27 26  1  0  0  0  0
 29 33  1  0  0  0  0
 29 27  1  1  0  0  0
 30 29  1  0  0  0  0
 30 28  1  1  0  0  0
 30 34  1  0  0  0  0
 31 34  1  0  0  0  0
 32 33  1  0  0  0  0
 32 31  1  0  0  0  0
M  END
>  <MODEL>
4

>  <REMARK>
 VINA RESULT:      -9.4      2.987      5.721
  Name = 
  4 active torsions:
  status: ('A' for Active; 'I' for Inactive)
    1  A    between atoms: N_3  and  C_13
    2  A    between atoms: N_3  and  N_17
    3  A    between atoms: C_12  and  N_28
    4  A    between atoms: N_17  and  C_29
                            x       y       z     vdW  Elec       q    Type
                         _______ _______ _______ _____ _____    ______ ____

>  <TORSDO>
F 4

$$$$
=
 OpenBabel10262423493D

 34 39  0  0  1  0  0  0  0  0999 V2000
  185.1000  178.9980  142.2350 C   0  0  0  0  0  0  0  0  0  0  0  0
  186.4880  177.8210  143.8460 C   0  0  0  0  0  0  0  0  0  0  0  0
  187.2090  178.0720  141.4460 C   0  0  0  0  0  0  0  0  0  0  0  0
  189.4950  177.7230  140.4620 C   0  0  1  0  0  3  0  0  0  0  0  0
  184.5000  179.0030  144.5790 C   0  0  0  0  0  3  0  0  0  0  0  0
  185.6110  178.2110  144.8630 C   0  0  0  0  0  3  0  0  0  0  0  0
  189.3810  178.1320  142.8160 C   0  0  0  0  0  2  0  0  0  0  0  0
  186.3040  178.3020  142.5240 C   0  0  0  0  0  0  0  0  0  0  0  0
  190.9900  176.8520  140.9740 S   0  0  0  0  0  0  0  0  0  0  0  0
  184.2310  179.3730  143.2630 C   0  0  0  0  0  3  0  0  0  0  0  0
  186.7380  178.2280  140.1200 C   0  0  0  0  0  0  0  0  0  0  0  0
  184.7550  179.2760  140.9540 N   0  0  0  0  0  0  0  0  0  0  0  0
  187.4610  176.8840  144.1600 O   0  0  0  0  0  1  0  0  0  0  0  0
  188.7920  177.0460  139.3050 C   0  0  0  0  0  2  0  0  0  0  0  0
  187.5540  177.7710  139.0100 N   0  0  0  0  0  0  0  0  0  0  0  0
  190.8000  177.5940  142.6370 C   0  0  2  0  0  3  0  0  0  0  0  0
  188.6240  177.8040  141.6210 N   0  0  0  0  0  0  0  0  0  0  0  0
  185.5200  178.8810  139.9080 C   0  0  0  0  0  3  0  0  0  0  0  0
  185.7000  177.1770  135.7950 C   0  0  0  0  0  0  0  0  0  0  0  0
  186.4150  177.9970  134.9190 C   0  0  0  0  0  3  0  0  0  0  0  0
  187.1450  177.8600  137.6300 C   0  0  0  0  0  0  0  0  0  0  0  0
  187.4990  178.7430  135.3900 C   0  0  0  0  0  3  0  0  0  0  0  0
  186.0660  177.1060  137.1420 C   0  0  0  0  0  3  0  0  0  0  0  0
  187.8640  178.6710  136.7370 C   0  0  0  0  0  3  0  0  0  0  0  0
  184.3490  176.2360  135.2060 Cl  0  0  0  0  0  0  0  0  0  0  0  0
  191.1560  176.6450  143.6900 N   0  0  0  0  0  2  0  0  0  0  0  0
  191.4030  177.3540  144.8790 N   0  0  0  0  0  2  0  0  0  0  0  0
  192.3690  175.7030  146.9470 C   0  0  0  0  0  1  0  0  0  0  0  0
  190.4030  176.9300  145.8490 C   0  0  1  0  0  3  0  0  0  0  0  0
  191.0630  176.4510  147.1580 C   0  0  2  0  0  3  0  0  0  0  0  0
  189.9760  177.7990  148.6010 C   0  0  0  0  0  2  0  0  0  0  0  0
  188.8840  178.0720  147.5450 C   0  0  0  0  0  2  0  0  0  0  0  0
  189.4570  178.1080  146.1280 C   0  0  0  0  0  2  0  0  0  0  0  0
  191.2420  177.5320  148.0340 O   0  0  0  0  0  0  0  0  0  0  0  0
  1  8  1  0  0  0  0
  1 10  2  0  0  0  0
  2 13  1  0  0  0  0
  2  6  1  0  0  0  0
  3 17  1  0  0  0  0
  3  8  1  0  0  0  0
  4 14  1  6  0  0  0
  4  9  1  0  0  0  0
  4 17  1  0  0  0  0
  5  6  2  0  0  0  0
  8  2  2  0  0  0  0
  9 16  1  0  0  0  0
 10  5  1  0  0  0  0
 11  3  2  0  0  0  0
 12  1  1  0  0  0  0
 15 14  1  0  0  0  0
 15 11  1  0  0  0  0
 16  7  1  0  0  0  0
 16 26  1  1  0  0  0
 17  7  1  0  0  0  0
 18 11  1  0  0  0  0
 18 12  2  0  0  0  0
 19 23  1  0  0  0  0
 20 22  1  0  0  0  0
 20 19  2  0  0  0  0
 21 15  1  0  0  0  0
 22 24  2  0  0  0  0
 23 21  2  0  0  0  0
 24 21  1  0  0  0  0
 25 19  1  0  0  0  0
 26 27  1  0  0  0  0
 29 27  1  6  0  0  0
 29 33  1  0  0  0  0
 29 30  1  0  0  0  0
 30 28  1  6  0  0  0
 30 34  1  0  0  0  0
 32 31  1  0  0  0  0
 33 32  1  0  0  0  0
 34 31  1  0  0  0  0
M  END
>  <MODEL>
5

>  <REMARK>
 VINA RESULT:      -9.4      3.271      7.291
  Name = 
  4 active torsions:
  status: ('A' for Active; 'I' for Inactive)
    1  A    between atoms: N_3  and  C_13
    2  A    between atoms: N_3  and  N_17
    3  A    between atoms: C_12  and  N_28
    4  A    between atoms: N_17  and  C_29
                            x       y       z     vdW  Elec       q    Type
                         _______ _______ _______ _____ _____    ______ ____

>  <TORSDO>
F 4

$$$$
=
 OpenBabel10262423493D

 34 39  0  0  1  0  0  0  0  0999 V2000
  191.3620  177.3760  140.9550 C   0  0  0  0  0  0  0  0  0  0  0  0
  189.7840  176.8880  139.1720 C   0  0  0  0  0  0  0  0  0  0  0  0
  188.9890  177.5930  141.4560 C   0  0  0  0  0  0  0  0  0  0  0  0
  186.7100  178.4140  142.1260 C   0  0  1  0  0  3  0  0  0  0  0  0
  192.1650  176.9570  138.7120 C   0  0  0  0  0  3  0  0  0  0  0  0
  190.8540  176.7600  138.2820 C   0  0  0  0  0  3  0  0  0  0  0  0
  187.2800  178.5770  139.8090 C   0  0  0  0  0  2  0  0  0  0  0  0
  190.0160  177.3070  140.5080 C   0  0  0  0  0  0  0  0  0  0  0  0
  185.0530  178.3120  141.4180 S   0  0  0  0  0  0  0  0  0  0  0  0
  192.4190  177.2380  140.0520 C   0  0  0  0  0  3  0  0  0  0  0  0
  189.3170  177.5920  142.8320 C   0  0  0  0  0  0  0  0  0  0  0  0
  191.6430  177.5390  142.2710 N   0  0  0  0  0  0  0  0  0  0  0  0
  188.5290  176.4960  138.7300 O   0  0  0  0  0  1  0  0  0  0  0  0
  186.8690  177.5590  143.3650 C   0  0  0  0  0  2  0  0  0  0  0  0
  188.2580  177.6380  143.8230 N   0  0  0  0  0  0  0  0  0  0  0  0
  185.7650  178.7760  139.7970 C   0  0  2  0  0  3  0  0  0  0  0  0
  187.6460  178.0060  141.0940 N   0  0  0  0  0  0  0  0  0  0  0  0
  190.6650  177.6130  143.2050 C   0  0  0  0  0  3  0  0  0  0  0  0
  189.9460  177.1720  147.1480 C   0  0  0  0  0  0  0  0  0  0  0  0
  188.9070  177.4950  148.0230 C   0  0  0  0  0  3  0  0  0  0  0  0
  188.4940  177.6110  145.2450 C   0  0  0  0  0  0  0  0  0  0  0  0
  187.6590  177.8680  147.5160 C   0  0  0  0  0  3  0  0  0  0  0  0
  189.7400  177.2250  145.7670 C   0  0  0  0  0  3  0  0  0  0  0  0
  187.4540  177.9210  146.1350 C   0  0  0  0  0  3  0  0  0  0  0  0
  191.5070  176.6960  147.7800 Cl  0  0  0  0  0  0  0  0  0  0  0  0
  185.1310  178.0400  138.7030 N   0  0  0  0  0  2  0  0  0  0  0  0
  185.9210  178.1700  137.5480 N   0  0  0  0  0  2  0  0  0  0  0  0
  187.6200  177.5150  135.3980 C   0  0  0  0  0  1  0  0  0  0  0  0
  185.3200  177.3340  136.5180 C   0  0  1  0  0  3  0  0  0  0  0  0
  186.3990  176.6470  135.6560 C   0  0  2  0  0  3  0  0  0  0  0  0
  185.7350  174.5090  135.9190 C   0  0  0  0  0  2  0  0  0  0  0  0
  184.3450  174.9840  136.3920 C   0  0  0  0  0  2  0  0  0  0  0  0
  184.4290  176.2820  137.1960 C   0  0  0  0  0  2  0  0  0  0  0  0
  186.7690  175.4210  136.2280 O   0  0  0  0  0  0  0  0  0  0  0  0
  1 12  1  0  0  0  0
  2  8  1  0  0  0  0
  3 11  2  0  0  0  0
  4 14  1  1  0  0  0
  5 10  2  0  0  0  0
  6  5  1  0  0  0  0
  6  2  2  0  0  0  0
  7 17  1  0  0  0  0
  8  1  2  0  0  0  0
  8  3  1  0  0  0  0
  9  4  1  0  0  0  0
 10  1  1  0  0  0  0
 11 18  1  0  0  0  0
 11 15  1  0  0  0  0
 12 18  2  0  0  0  0
 13  2  1  0  0  0  0
 14 15  1  0  0  0  0
 15 21  1  0  0  0  0
 16 26  1  6  0  0  0
 16  7  1  0  0  0  0
 16  9  1  0  0  0  0
 17  3  1  0  0  0  0
 17  4  1  0  0  0  0
 19 25  1  0  0  0  0
 19 20  1  0  0  0  0
 21 23  1  0  0  0  0
 21 24  2  0  0  0  0
 22 20  2  0  0  0  0
 23 19  2  0  0  0  0
 24 22  1  0  0  0  0
 27 26  1  0  0  0  0
 29 33  1  0  0  0  0
 29 27  1  1  0  0  0
 30 28  1  1  0  0  0
 30 34  1  0  0  0  0
 30 29  1  0  0  0  0
 31 34  1  0  0  0  0
 31 32  1  0  0  0  0
 32 33  1  0  0  0  0
M  END
>  <MODEL>
6

>  <REMARK>
 VINA RESULT:      -9.2      3.644      5.925
  Name = 
  4 active torsions:
  status: ('A' for Active; 'I' for Inactive)
    1  A    between atoms: N_3  and  C_13
    2  A    between atoms: N_3  and  N_17
    3  A    between atoms: C_12  and  N_28
    4  A    between atoms: N_17  and  C_29
                            x       y       z     vdW  Elec       q    Type
                         _______ _______ _______ _____ _____    ______ ____

>  <TORSDO>
F 4

$$$$
=
 OpenBabel10262423493D

 34 39  0  0  1  0  0  0  0  0999 V2000
  185.9400  178.6760  140.3710 C   0  0  0  0  0  0  0  0  0  0  0  0
  186.6670  177.9420  142.5710 C   0  0  0  0  0  0  0  0  0  0  0  0
  188.2130  177.8290  140.5860 C   0  0  0  0  0  0  0  0  0  0  0  0
  190.7080  177.5300  140.5700 C   0  0  1  0  0  3  0  0  0  0  0  0
  184.5210  179.0410  142.2970 C   0  0  0  0  0  3  0  0  0  0  0  0
  185.4690  178.4210  143.1090 C   0  0  0  0  0  3  0  0  0  0  0  0
  189.7280  178.3380  142.5970 C   0  0  0  0  0  2  0  0  0  0  0  0
  186.9700  178.1600  141.2020 C   0  0  0  0  0  0  0  0  0  0  0  0
  191.9300  176.9100  141.7430 S   0  0  0  0  0  0  0  0  0  0  0  0
  184.7460  179.1430  140.9260 C   0  0  0  0  0  3  0  0  0  0  0  0
  188.2580  177.7010  139.1770 C   0  0  0  0  0  0  0  0  0  0  0  0
  186.0830  178.6870  139.0240 N   0  0  0  0  0  0  0  0  0  0  0  0
  187.4790  177.1720  143.3910 O   0  0  0  0  0  1  0  0  0  0  0  0
  190.4950  176.5940  139.3990 C   0  0  0  0  0  2  0  0  0  0  0  0
  189.4350  177.1340  138.5450 N   0  0  0  0  0  0  0  0  0  0  0  0
  191.1260  177.9140  143.0460 C   0  0  2  0  0  3  0  0  0  0  0  0
  189.4700  177.7320  141.3020 N   0  0  0  0  0  0  0  0  0  0  0  0
  187.1880  178.1880  138.4200 C   0  0  0  0  0  3  0  0  0  0  0  0
  190.3540  175.6450  135.2190 C   0  0  0  0  0  0  0  0  0  0  0  0
  189.8550  176.6140  134.3460 C   0  0  0  0  0  3  0  0  0  0  0  0
  189.5600  176.9370  137.1220 C   0  0  0  0  0  0  0  0  0  0  0  0
  189.2170  177.7480  134.8540 C   0  0  0  0  0  3  0  0  0  0  0  0
  190.2110  175.8080  136.5990 C   0  0  0  0  0  3  0  0  0  0  0  0
  189.0750  177.9100  136.2350 C   0  0  0  0  0  3  0  0  0  0  0  0
  191.1610  174.2280  134.5850 Cl  0  0  0  0  0  0  0  0  0  0  0  0
  191.0920  177.2060  144.3240 N   0  0  0  0  0  2  0  0  0  0  0  0
  190.5190  178.0460  145.2950 N   0  0  0  0  0  2  0  0  0  0  0  0
  191.5120  176.6630  147.5400 C   0  0  0  0  0  1  0  0  0  0  0  0
  189.5330  177.2550  146.0210 C   0  0  1  0  0  3  0  0  0  0  0  0
  190.0190  176.9300  147.4480 C   0  0  2  0  0  3  0  0  0  0  0  0
  188.2640  177.7510  148.6000 C   0  0  0  0  0  2  0  0  0  0  0  0
  187.3960  177.7240  147.3240 C   0  0  0  0  0  2  0  0  0  0  0  0
  188.2140  178.0400  146.0710 C   0  0  0  0  0  2  0  0  0  0  0  0
  189.6370  177.9490  148.3330 O   0  0  0  0  0  0  0  0  0  0  0  0
  1 10  2  0  0  0  0
  1  8  1  0  0  0  0
  2  6  1  0  0  0  0
  2 13  1  0  0  0  0
  3  8  1  0  0  0  0
  3 17  1  0  0  0  0
  4 14  1  6  0  0  0
  4 17  1  0  0  0  0
  4  9  1  0  0  0  0
  5  6  2  0  0  0  0
  7 16  1  0  0  0  0
  8  2  2  0  0  0  0
  9 16  1  0  0  0  0
 10  5  1  0  0  0  0
 11  3  2  0  0  0  0
 12  1  1  0  0  0  0
 15 11  1  0  0  0  0
 15 14  1  0  0  0  0
 16 26  1  1  0  0  0
 17  7  1  0  0  0  0
 18 12  2  0  0  0  0
 18 11  1  0  0  0  0
 19 23  1  0  0  0  0
 20 22  1  0  0  0  0
 20 19  2  0  0  0  0
 21 15  1  0  0  0  0
 22 24  2  0  0  0  0
 23 21  2  0  0  0  0
 24 21  1  0  0  0  0
 25 19  1  0  0  0  0
 26 27  1  0  0  0  0
 29 27  1  1  0  0  0
 29 33  1  0  0  0  0
 29 30  1  0  0  0  0
 30 28  1  6  0  0  0
 30 34  1  0  0  0  0
 32 31  1  0  0  0  0
 33 32  1  0  0  0  0
 34 31  1  0  0  0  0
M  END
>  <MODEL>
7

>  <REMARK>
 VINA RESULT:      -9.2      3.276      8.315
  Name = 
  4 active torsions:
  status: ('A' for Active; 'I' for Inactive)
    1  A    between atoms: N_3  and  C_13
    2  A    between atoms: N_3  and  N_17
    3  A    between atoms: C_12  and  N_28
    4  A    between atoms: N_17  and  C_29
                            x       y       z     vdW  Elec       q    Type
                         _______ _______ _______ _____ _____    ______ ____

>  <TORSDO>
F 4

$$$$
=
 OpenBabel10262423493D

 34 39  0  0  1  0  0  0  0  0999 V2000
  190.9470  177.2000  140.0450 C   0  0  0  0  0  0  0  0  0  0  0  0
  188.9480  176.9120  138.6910 C   0  0  0  0  0  0  0  0  0  0  0  0
  188.7900  177.4980  141.1350 C   0  0  0  0  0  0  0  0  0  0  0  0
  186.8050  178.3810  142.3990 C   0  0  1  0  0  3  0  0  0  0  0  0
  191.1420  176.8970  137.6520 C   0  0  0  0  0  3  0  0  0  0  0  0
  189.7550  176.7930  137.5550 C   0  0  0  0  0  3  0  0  0  0  0  0
  186.7940  178.6730  140.0250 C   0  0  0  0  0  2  0  0  0  0  0  0
  189.5300  177.2280  139.9460 C   0  0  0  0  0  0  0  0  0  0  0  0
  185.0220  178.4080  142.1250 S   0  0  0  0  0  0  0  0  0  0  0  0
  191.7360  177.0730  138.8990 C   0  0  0  0  0  3  0  0  0  0  0  0
  189.4480  177.3860  142.3830 C   0  0  0  0  0  0  0  0  0  0  0  0
  191.5540  177.2590  141.2540 N   0  0  0  0  0  0  0  0  0  0  0  0
  187.6010  176.6130  138.5570 O   0  0  0  0  0  1  0  0  0  0  0  0
  187.2110  177.4360  143.5110 C   0  0  0  0  0  2  0  0  0  0  0  0
  188.6720  177.4160  143.6100 N   0  0  0  0  0  0  0  0  0  0  0  0
  185.3380  178.9460  140.4040 C   0  0  2  0  0  3  0  0  0  0  0  0
  187.4290  177.9990  141.1440 N   0  0  0  0  0  0  0  0  0  0  0  0
  190.8440  177.3160  142.4070 C   0  0  0  0  0  3  0  0  0  0  0  0
  189.1120  177.5290  147.3400 C   0  0  0  0  0  0  0  0  0  0  0  0
  190.4260  177.0770  147.4670 C   0  0  0  0  0  3  0  0  0  0  0  0
  189.2500  177.2800  144.9230 C   0  0  0  0  0  0  0  0  0  0  0  0
  191.1600  176.7340  146.3280 C   0  0  0  0  0  3  0  0  0  0  0  0
  188.5280  177.6340  146.0750 C   0  0  0  0  0  3  0  0  0  0  0  0
  190.5760  176.8390  145.0630 C   0  0  0  0  0  3  0  0  0  0  0  0
  188.1950  177.9670  148.7640 Cl  0  0  0  0  0  0  0  0  0  0  0  0
  184.4080  178.3190  139.4670 N   0  0  0  0  0  2  0  0  0  0  0  0
  183.4030  177.6580  140.1960 N   0  0  0  0  0  2  0  0  0  0  0  0
  181.2050  178.7630  141.5680 C   0  0  0  0  0  1  0  0  0  0  0  0
  182.1740  177.7540  139.4190 C   0  0  1  0  0  3  0  0  0  0  0  0
  181.1930  178.7640  140.0490 C   0  0  2  0  0  3  0  0  0  0  0  0
  180.8710  180.0890  138.2530 C   0  0  0  0  0  2  0  0  0  0  0  0
  181.4130  178.9840  137.3230 C   0  0  0  0  0  2  0  0  0  0  0  0
  182.5300  178.1760  137.9860 C   0  0  0  0  0  2  0  0  0  0  0  0
  181.4370  180.0520  139.5480 O   0  0  0  0  0  0  0  0  0  0  0  0
  1 12  1  0  0  0  0
  2  8  1  0  0  0  0
  3 17  1  0  0  0  0
  3 11  2  0  0  0  0
  4 14  1  1  0  0  0
  5 10  2  0  0  0  0
  6  5  1  0  0  0  0
  6  2  2  0  0  0  0
  7 16  1  0  0  0  0
  7 17  1  0  0  0  0
  8  1  2  0  0  0  0
  8  3  1  0  0  0  0
  9  4  1  0  0  0  0
 10  1  1  0  0  0  0
 11 18  1  0  0  0  0
 11 15  1  0  0  0  0
 12 18  2  0  0  0  0
 13  2  1  0  0  0  0
 14 15  1  0  0  0  0
 15 21  1  0  0  0  0
 16 26  1  6  0  0  0
 16  9  1  0  0  0  0
 17  4  1  0  0  0  0
 19 20  1  0  0  0  0
 19 25  1  0  0  0  0
 21 24  2  0  0  0  0
 21 23  1  0  0  0  0
 22 20  2  0  0  0  0
 23 19  2  0  0  0  0
 24 22  1  0  0  0  0
 26 27  1  0  0  0  0
 29 30  1  0  0  0  0
 29 27  1  1  0  0  0
 30 28  1  1  0  0  0
 31 34  1  0  0  0  0
 32 33  1  0  0  0  0
 32 31  1  0  0  0  0
 33 29  1  0  0  0  0
 34 30  1  0  0  0  0
M  END
>  <MODEL>
8

>  <REMARK>
 VINA RESULT:      -9.0      3.727      7.576
  Name = 
  4 active torsions:
  status: ('A' for Active; 'I' for Inactive)
    1  A    between atoms: N_3  and  C_13
    2  A    between atoms: N_3  and  N_17
    3  A    between atoms: C_12  and  N_28
    4  A    between atoms: N_17  and  C_29
                            x       y       z     vdW  Elec       q    Type
                         _______ _______ _______ _____ _____    ______ ____

>  <TORSDO>
F 4

$$$$
=
 OpenBabel10262423493D

 34 39  0  0  1  0  0  0  0  0999 V2000
  187.1890  177.9410  146.0350 C   0  0  0  0  0  0  0  0  0  0  0  0
  188.9440  176.9560  144.6730 C   0  0  0  0  0  0  0  0  0  0  0  0
  186.8970  177.9760  143.6180 C   0  0  0  0  0  0  0  0  0  0  0  0
  186.5500  178.6420  141.2190 C   0  0  1  0  0  3  0  0  0  0  0  0
  189.2510  177.2090  147.0670 C   0  0  0  0  0  3  0  0  0  0  0  0
  189.7210  176.7880  145.8240 C   0  0  0  0  0  3  0  0  0  0  0  0
  188.8120  178.4380  141.9690 C   0  0  0  0  0  2  0  0  0  0  0  0
  187.7020  177.6380  144.7460 C   0  0  0  0  0  0  0  0  0  0  0  0
  187.3320  178.2240  139.6490 S   0  0  0  0  0  0  0  0  0  0  0  0
  187.9760  177.7590  147.1740 C   0  0  0  0  0  3  0  0  0  0  0  0
  185.5280  178.2660  143.8240 C   0  0  0  0  0  0  0  0  0  0  0  0
  185.9130  178.3750  146.1840 N   0  0  0  0  0  0  0  0  0  0  0  0
  189.3840  176.3500  143.5060 O   0  0  0  0  0  1  0  0  0  0  0  0
  185.1610  178.0540  141.3550 C   0  0  0  0  0  2  0  0  0  0  0  0
  184.6360  178.3740  142.6840 N   0  0  0  0  0  0  0  0  0  0  0  0
  188.9630  178.4580  140.4480 C   0  0  2  0  0  3  0  0  0  0  0  0
  187.4200  178.1600  142.2770 N   0  0  0  0  0  0  0  0  0  0  0  0
  185.0780  178.5080  145.1260 C   0  0  0  0  0  3  0  0  0  0  0  0
  181.0590  179.0890  141.7820 C   0  0  0  0  0  0  0  0  0  0  0  0
  180.4860  179.2220  143.0480 C   0  0  0  0  0  3  0  0  0  0  0  0
  183.2240  178.6360  142.7980 C   0  0  0  0  0  0  0  0  0  0  0  0
  181.2760  179.0710  144.1910 C   0  0  0  0  0  3  0  0  0  0  0  0
  182.4210  178.8020  141.6580 C   0  0  0  0  0  3  0  0  0  0  0  0
  182.6380  178.7850  144.0660 C   0  0  0  0  0  3  0  0  0  0  0  0
  180.0730  179.2860  140.3500 Cl  0  0  0  0  0  0  0  0  0  0  0  0
  189.9330  177.4660  139.9870 N   0  0  0  0  0  2  0  0  0  0  0  0
  190.0680  177.5750  138.5920 N   0  0  0  0  0  2  0  0  0  0  0  0
  188.5840  177.0890  136.2470 C   0  0  0  0  0  1  0  0  0  0  0  0
  190.1750  176.2220  138.0620 C   0  0  1  0  0  3  0  0  0  0  0  0
  189.7450  176.1670  136.5820 C   0  0  2  0  0  3  0  0  0  0  0  0
  191.6080  175.2350  135.7200 C   0  0  0  0  0  2  0  0  0  0  0  0
  192.0340  174.7550  137.1240 C   0  0  0  0  0  2  0  0  0  0  0  0
  191.6280  175.7480  138.2140 C   0  0  0  0  0  2  0  0  0  0  0  0
  190.8440  176.4230  135.7480 O   0  0  0  0  0  0  0  0  0  0  0  0
  1 12  1  0  0  0  0
  1 10  2  0  0  0  0
  2  8  2  0  0  0  0
  2  6  1  0  0  0  0
  3 11  2  0  0  0  0
  3  8  1  0  0  0  0
  4 14  1  6  0  0  0
  4 17  1  0  0  0  0
  5 10  1  0  0  0  0
  6  5  2  0  0  0  0
  7 17  1  0  0  0  0
  8  1  1  0  0  0  0
  9 16  1  0  0  0  0
  9  4  1  0  0  0  0
 11 18  1  0  0  0  0
 13  2  1  0  0  0  0
 14 15  1  0  0  0  0
 15 21  1  0  0  0  0
 15 11  1  0  0  0  0
 16 26  1  1  0  0  0
 16  7  1  0  0  0  0
 17  3  1  0  0  0  0
 18 12  2  0  0  0  0
 19 20  1  0  0  0  0
 20 22  2  0  0  0  0
 21 24  2  0  0  0  0
 23 19  2  0  0  0  0
 23 21  1  0  0  0  0
 24 22  1  0  0  0  0
 25 19  1  0  0  0  0
 27 26  1  0  0  0  0
 29 33  1  0  0  0  0
 29 27  1  6  0  0  0
 30 28  1  1  0  0  0
 30 29  1  0  0  0  0
 31 34  1  0  0  0  0
 31 32  1  0  0  0  0
 32 33  1  0  0  0  0
 34 30  1  0  0  0  0
M  END
>  <MODEL>
9

>  <REMARK>
 VINA RESULT:      -9.0      1.555      2.247
  Name = 
  4 active torsions:
  status: ('A' for Active; 'I' for Inactive)
    1  A    between atoms: N_3  and  C_13
    2  A    between atoms: N_3  and  N_17
    3  A    between atoms: C_12  and  N_28
    4  A    between atoms: N_17  and  C_29
                            x       y       z     vdW  Elec       q    Type
                         _______ _______ _______ _____ _____    ______ ____

>  <TORSDO>
F 4

$$$$
