=
 OpenBabel10272400313D

 31 35  0  0  1  0  0  0  0  0999 V2000
  186.8510  178.0280  147.4030 C   0  0  0  0  0  0  0  0  0  0  0  0
  187.4800  178.2950  143.6360 C   0  0  2  0  0  3  0  0  0  0  0  0
  188.9110  177.7150  143.5820 C   0  0  2  0  0  3  0  0  0  0  0  0
  182.4510  179.3340  142.4430 O   0  0  0  0  0  0  0  0  0  0  0  0
  183.0290  178.9160  141.4020 C   0  0  0  0  0  0  0  0  0  0  0  0
  191.3210  178.6950  143.6350 C   0  0  0  0  0  2  0  0  0  0  0  0
  186.8000  178.1750  144.9800 C   0  0  0  0  0  0  0  0  0  0  0  0
  185.4620  178.1820  147.4440 C   0  0  0  0  0  3  0  0  0  0  0  0
  189.8880  178.7510  144.1710 C   0  0  0  0  0  2  0  0  0  0  0  0
  185.1740  178.2910  142.6360 C   0  0  0  0  0  0  0  0  0  0  0  0
  187.5850  177.8780  148.6120 N   0  0  0  0  0  1  0  0  0  0  0  0
  188.5490  177.3320  141.1230 C   0  0  0  0  0  3  0  0  0  0  0  0
  192.0280  177.3680  143.9210 C   0  0  0  0  0  2  0  0  0  0  0  0
  184.6530  178.4950  143.8140 N   0  0  0  0  0  0  0  0  0  0  0  0
  186.5770  177.7400  142.5250 C   0  0  1  0  0  3  0  0  0  0  0  0
  184.3720  178.4230  141.4540 N   0  0  0  0  0  2  0  0  0  0  0  0
  187.5190  178.0380  146.1760 C   0  0  0  0  0  3  0  0  0  0  0  0
  191.3020  176.1360  143.3730 C   0  0  0  0  0  2  0  0  0  0  0  0
  185.4020  178.3350  145.0280 C   0  0  0  0  0  0  0  0  0  0  0  0
  184.7380  178.3390  146.2590 C   0  0  0  0  0  3  0  0  0  0  0  0
  187.2320  178.0460  141.1880 C   0  0  0  0  0  2  0  0  0  0  0  0
  189.3340  177.1930  142.2030 C   0  0  0  0  0  0  0  0  0  0  0  0
  190.6030  176.3930  142.0380 C   0  0  0  0  0  2  0  0  0  0  0  0
  182.9220  176.7390  138.3870 C   0  0  1  0  0  3  0  0  0  0  0  0
  181.4150  177.8900  139.8950 O   0  0  0  0  0  0  0  0  0  0  0  0
  184.1710  180.1740  139.0770 O   0  0  0  0  0  1  0  0  0  0  0  0
  183.6420  175.4240  138.1780 C   0  0  0  0  0  1  0  0  0  0  0  0
  182.1310  176.6880  139.6910 C   0  0  0  0  0  2  0  0  0  0  0  0
  183.2360  179.1640  138.8470 C   0  0  2  0  0  3  0  0  0  0  0  0
  182.3240  178.9620  140.0730 C   0  0  2  0  0  3  0  0  0  0  0  0
  183.9420  177.8660  138.4740 C   0  0  0  0  0  2  0  0  0  0  0  0
  1  8  1  0  0  0  0
  1 11  1  0  0  0  0
  2  7  1  1  0  0  0
  3  2  1  0  0  0  0
  3  9  1  6  0  0  0
  5 16  1  0  0  0  0
  5  4  2  0  0  0  0
  6 13  1  0  0  0  0
  6  9  1  0  0  0  0
  7 19  2  0  0  0  0
  7 17  1  0  0  0  0
 10 14  2  0  0  0  0
 12 21  1  0  0  0  0
 12 22  2  0  0  0  0
 14 19  1  0  0  0  0
 15 21  1  6  0  0  0
 15 10  1  0  0  0  0
 15  2  1  0  0  0  0
 16 10  1  0  0  0  0
 17  1  2  0  0  0  0
 18 13  1  0  0  0  0
 19 20  1  0  0  0  0
 20  8  2  0  0  0  0
 22  3  1  0  0  0  0
 23 22  1  0  0  0  0
 23 18  1  0  0  0  0
 24 27  1  1  0  0  0
 24 31  1  0  0  0  0
 24 28  1  0  0  0  0
 25 30  1  0  0  0  0
 28 25  1  0  0  0  0
 29 26  1  1  0  0  0
 29 30  1  0  0  0  0
 30  5  1  1  0  0  0
 31 29  1  0  0  0  0
M  END
>  <MODEL>
1

>  <REMARK>
 VINA RESULT:      -9.5      0.000      0.000
  Name = 
  1 active torsions:
  status: ('A' for Active; 'I' for Inactive)
    1  A    between atoms: C_9  and  C_22
                            x       y       z     vdW  Elec       q    Type
                         _______ _______ _______ _____ _____    ______ ____

>  <TORSDO>
F 1

$$$$
=
 OpenBabel10272400313D

 31 35  0  0  1  0  0  0  0  0999 V2000
  185.5660  178.3990  145.5320 C   0  0  0  0  0  0  0  0  0  0  0  0
  188.3980  178.0550  142.9790 C   0  0  2  0  0  3  0  0  0  0  0  0
  189.4620  177.3870  143.8780 C   0  0  2  0  0  3  0  0  0  0  0  0
  185.3620  179.2060  138.8260 O   0  0  0  0  0  0  0  0  0  0  0  0
  186.3890  178.6010  138.4120 C   0  0  0  0  0  0  0  0  0  0  0  0
  191.4440  178.2150  145.3460 C   0  0  0  0  0  2  0  0  0  0  0  0
  187.0290  178.1810  143.6070 C   0  0  0  0  0  0  0  0  0  0  0  0
  184.4820  178.6420  144.6830 C   0  0  0  0  0  3  0  0  0  0  0  0
  190.0090  178.4390  144.8620 C   0  0  0  0  0  2  0  0  0  0  0  0
  187.2140  178.0400  140.7620 C   0  0  0  0  0  0  0  0  0  0  0  0
  185.3770  178.3880  146.9410 N   0  0  0  0  0  1  0  0  0  0  0  0
  190.6300  176.6600  141.7730 C   0  0  0  0  0  3  0  0  0  0  0  0
  191.6320  176.9060  146.1170 C   0  0  0  0  0  2  0  0  0  0  0  0
  186.1170  178.4510  141.3340 N   0  0  0  0  0  0  0  0  0  0  0  0
  188.2960  177.3940  141.5960 C   0  0  1  0  0  3  0  0  0  0  0  0
  187.3320  178.0410  139.3320 N   0  0  0  0  0  2  0  0  0  0  0  0
  186.8380  178.1820  144.9960 C   0  0  0  0  0  3  0  0  0  0  0  0
  191.2270  175.6520  145.3370 C   0  0  0  0  0  2  0  0  0  0  0  0
  185.9350  178.4320  142.7580 C   0  0  0  0  0  0  0  0  0  0  0  0
  184.6650  178.6610  143.2980 C   0  0  0  0  0  3  0  0  0  0  0  0
  189.6670  177.4540  140.9420 C   0  0  0  0  0  2  0  0  0  0  0  0
  190.5610  176.6380  143.1130 C   0  0  0  0  0  0  0  0  0  0  0  0
  191.5360  175.7470  143.8430 C   0  0  0  0  0  2  0  0  0  0  0  0
  188.0450  176.1030  136.2090 C   0  0  1  0  0  3  0  0  0  0  0  0
  185.9960  177.3890  136.3360 O   0  0  0  0  0  0  0  0  0  0  0  0
  188.7920  179.6120  137.1900 O   0  0  0  0  0  1  0  0  0  0  0  0
  188.6640  174.7830  136.6200 C   0  0  0  0  0  1  0  0  0  0  0  0
  186.6160  176.1840  136.7380 C   0  0  0  0  0  2  0  0  0  0  0  0
  188.1440  178.5680  136.5280 C   0  0  2  0  0  3  0  0  0  0  0  0
  186.6600  178.4890  136.9350 C   0  0  2  0  0  3  0  0  0  0  0  0
  188.8540  177.2480  136.8010 C   0  0  0  0  0  2  0  0  0  0  0  0
  1 11  1  0  0  0  0
  2  7  1  1  0  0  0
  2  3  1  0  0  0  0
  3  9  1  6  0  0  0
  5  4  2  0  0  0  0
  5 16  1  0  0  0  0
  6 13  1  0  0  0  0
  7 17  2  0  0  0  0
  8  1  2  0  0  0  0
  9  6  1  0  0  0  0
 10 14  2  0  0  0  0
 10 15  1  0  0  0  0
 12 22  2  0  0  0  0
 14 19  1  0  0  0  0
 15 21  1  6  0  0  0
 15  2  1  0  0  0  0
 16 10  1  0  0  0  0
 17  1  1  0  0  0  0
 18 13  1  0  0  0  0
 19 20  2  0  0  0  0
 19  7  1  0  0  0  0
 20  8  1  0  0  0  0
 21 12  1  0  0  0  0
 22 23  1  0  0  0  0
 22  3  1  0  0  0  0
 23 18  1  0  0  0  0
 24 27  1  1  0  0  0
 24 28  1  0  0  0  0
 24 31  1  0  0  0  0
 25 28  1  0  0  0  0
 25 30  1  0  0  0  0
 29 31  1  0  0  0  0
 29 30  1  0  0  0  0
 29 26  1  1  0  0  0
 30  5  1  1  0  0  0
M  END
>  <MODEL>
2

>  <REMARK>
 VINA RESULT:      -9.5      2.606      3.514
  Name = 
  1 active torsions:
  status: ('A' for Active; 'I' for Inactive)
    1  A    between atoms: C_9  and  C_22
                            x       y       z     vdW  Elec       q    Type
                         _______ _______ _______ _____ _____    ______ ____

>  <TORSDO>
F 1

$$$$
=
 OpenBabel10272400313D

 31 35  0  0  1  0  0  0  0  0999 V2000
  191.0600  177.3740  144.3660 C   0  0  0  0  0  0  0  0  0  0  0  0
  187.5780  177.7660  142.8220 C   0  0  2  0  0  3  0  0  0  0  0  0
  186.8060  178.2470  144.0710 C   0  0  2  0  0  3  0  0  0  0  0  0
  189.2700  177.3130  137.8500 O   0  0  0  0  0  0  0  0  0  0  0  0
  188.1410  177.8760  137.8360 C   0  0  0  0  0  0  0  0  0  0  0  0
  185.3950  177.1120  145.9400 C   0  0  0  0  0  2  0  0  0  0  0  0
  189.0760  177.6820  142.9990 C   0  0  0  0  0  0  0  0  0  0  0  0
  191.8470  177.3100  143.2130 C   0  0  0  0  0  3  0  0  0  0  0  0
  186.6270  177.0550  145.0310 C   0  0  0  0  0  2  0  0  0  0  0  0
  188.0380  178.1130  140.3760 C   0  0  0  0  0  0  0  0  0  0  0  0
  191.6630  177.2470  145.6470 N   0  0  0  0  0  1  0  0  0  0  0  0
  185.0280  179.1020  142.5110 C   0  0  0  0  0  3  0  0  0  0  0  0
  185.3920  178.3110  146.8910 C   0  0  0  0  0  2  0  0  0  0  0  0
  189.2730  177.7310  140.5430 N   0  0  0  0  0  0  0  0  0  0  0  0
  187.2310  178.5780  141.5660 C   0  0  1  0  0  3  0  0  0  0  0  0
  187.4950  178.2570  139.0550 N   0  0  0  0  0  2  0  0  0  0  0  0
  189.6770  177.5460  144.2590 C   0  0  0  0  0  3  0  0  0  0  0  0
  185.4890  179.6700  146.1910 C   0  0  0  0  0  2  0  0  0  0  0  0
  189.8750  177.6110  141.8410 C   0  0  0  0  0  0  0  0  0  0  0  0
  191.2560  177.4260  141.9520 C   0  0  0  0  0  3  0  0  0  0  0  0
  185.7300  178.4810  141.3410 C   0  0  0  0  0  2  0  0  0  0  0  0
  185.4970  178.9850  143.7640 C   0  0  0  0  0  0  0  0  0  0  0  0
  184.7490  179.7130  144.8540 C   0  0  0  0  0  2  0  0  0  0  0  0
  186.2480  175.7830  135.4120 C   0  0  1  0  0  3  0  0  0  0  0  0
  186.0400  177.8810  136.6060 O   0  0  0  0  0  0  0  0  0  0  0  0
  189.4590  177.6560  135.2840 O   0  0  0  0  0  1  0  0  0  0  0  0
  185.9420  174.3040  135.5190 C   0  0  0  0  0  1  0  0  0  0  0  0
  185.8040  176.4900  136.6900 C   0  0  0  0  0  2  0  0  0  0  0  0
  188.0760  177.4660  135.2940 C   0  0  2  0  0  3  0  0  0  0  0  0
  187.4340  178.1250  136.5300 C   0  0  2  0  0  3  0  0  0  0  0  0
  187.7470  175.9790  135.2370 C   0  0  0  0  0  2  0  0  0  0  0  0
  1 11  1  0  0  0  0
  2  7  1  1  0  0  0
  2  3  1  0  0  0  0
  3  9  1  1  0  0  0
  5  4  2  0  0  0  0
  5 16  1  0  0  0  0
  6 13  1  0  0  0  0
  7 17  2  0  0  0  0
  8  1  2  0  0  0  0
  9  6  1  0  0  0  0
 10 14  2  0  0  0  0
 10 15  1  0  0  0  0
 12 22  2  0  0  0  0
 14 19  1  0  0  0  0
 15 21  1  6  0  0  0
 15  2  1  0  0  0  0
 16 10  1  0  0  0  0
 17  1  1  0  0  0  0
 18 13  1  0  0  0  0
 19 20  2  0  0  0  0
 19  7  1  0  0  0  0
 20  8  1  0  0  0  0
 21 12  1  0  0  0  0
 22  3  1  0  0  0  0
 22 23  1  0  0  0  0
 23 18  1  0  0  0  0
 24 27  1  1  0  0  0
 24 28  1  0  0  0  0
 25 28  1  0  0  0  0
 29 26  1  1  0  0  0
 29 30  1  0  0  0  0
 30 25  1  0  0  0  0
 30  5  1  1  0  0  0
 31 29  1  0  0  0  0
 31 24  1  0  0  0  0
M  END
>  <MODEL>
3

>  <REMARK>
 VINA RESULT:      -9.2      3.132      5.411
  Name = 
  1 active torsions:
  status: ('A' for Active; 'I' for Inactive)
    1  A    between atoms: C_9  and  C_22
                            x       y       z     vdW  Elec       q    Type
                         _______ _______ _______ _____ _____    ______ ____

>  <TORSDO>
F 1

$$$$
=
 OpenBabel10272400313D

 31 35  0  0  1  0  0  0  0  0999 V2000
  190.2880  177.6960  142.3530 C   0  0  0  0  0  0  0  0  0  0  0  0
  186.9100  177.7940  144.1530 C   0  0  2  0  0  3  0  0  0  0  0  0
  187.4060  178.0380  145.5960 C   0  0  2  0  0  3  0  0  0  0  0  0
  184.0780  178.0830  139.7160 O   0  0  0  0  0  0  0  0  0  0  0  0
  183.3630  178.4930  140.6710 C   0  0  0  0  0  0  0  0  0  0  0  0
  187.9860  176.5420  147.6440 C   0  0  0  0  0  2  0  0  0  0  0  0
  187.9830  177.8850  143.0930 C   0  0  0  0  0  0  0  0  0  0  0  0
  189.8780  177.8550  141.0260 C   0  0  0  0  0  3  0  0  0  0  0  0
  188.0440  176.7390  146.1270 C   0  0  0  0  0  2  0  0  0  0  0  0
  185.2840  178.4500  142.3520 C   0  0  0  0  0  0  0  0  0  0  0  0
  191.6660  177.5150  142.6540 N   0  0  0  0  0  1  0  0  0  0  0  0
  185.0790  178.8140  146.1500 C   0  0  0  0  0  3  0  0  0  0  0  0
  188.7290  177.6250  148.4300 C   0  0  0  0  0  2  0  0  0  0  0  0
  186.1850  178.2150  141.4400 N   0  0  0  0  0  0  0  0  0  0  0  0
  185.7120  178.6800  143.7830 C   0  0  1  0  0  3  0  0  0  0  0  0
  183.9140  178.6590  141.9830 N   0  0  0  0  0  2  0  0  0  0  0  0
  189.3420  177.6980  143.3820 C   0  0  0  0  0  3  0  0  0  0  0  0
  188.2430  179.0510  148.1500 C   0  0  0  0  0  2  0  0  0  0  0  0
  187.5750  178.0390  141.7540 C   0  0  0  0  0  0  0  0  0  0  0  0
  188.5230  178.0230  140.7260 C   0  0  0  0  0  3  0  0  0  0  0  0
  184.6010  178.4130  144.7860 C   0  0  0  0  0  2  0  0  0  0  0  0
  186.3500  178.6290  146.5390 C   0  0  0  0  0  0  0  0  0  0  0  0
  186.7360  179.1360  147.9060 C   0  0  0  0  0  2  0  0  0  0  0  0
  180.7310  177.2410  138.3610 C   0  0  1  0  0  3  0  0  0  0  0  0
  181.0740  177.6630  140.7210 O   0  0  0  0  0  0  0  0  0  0  0  0
  182.4300  180.5140  138.8440 O   0  0  0  0  0  1  0  0  0  0  0  0
  180.8750  176.1730  137.2970 C   0  0  0  0  0  1  0  0  0  0  0  0
  181.2330  176.7020  139.6970 C   0  0  0  0  0  2  0  0  0  0  0  0
  181.5530  179.4640  139.1180 C   0  0  2  0  0  3  0  0  0  0  0  0
  181.9020  178.7830  140.4560 C   0  0  2  0  0  3  0  0  0  0  0  0
  181.5640  178.4550  137.9760 C   0  0  0  0  0  2  0  0  0  0  0  0
  1 11  1  0  0  0  0
  1 17  1  0  0  0  0
  2  7  1  6  0  0  0
  2  3  1  0  0  0  0
  3  9  1  1  0  0  0
  3 22  1  0  0  0  0
  4  5  2  0  0  0  0
  5 16  1  0  0  0  0
  6 13  1  0  0  0  0
  7 17  2  0  0  0  0
  8  1  2  0  0  0  0
  9  6  1  0  0  0  0
 10 15  1  0  0  0  0
 12 22  2  0  0  0  0
 14 19  1  0  0  0  0
 14 10  2  0  0  0  0
 15  2  1  0  0  0  0
 15 21  1  1  0  0  0
 16 10  1  0  0  0  0
 18 13  1  0  0  0  0
 19  7  1  0  0  0  0
 20  8  1  0  0  0  0
 20 19  2  0  0  0  0
 21 12  1  0  0  0  0
 22 23  1  0  0  0  0
 23 18  1  0  0  0  0
 24 27  1  6  0  0  0
 24 28  1  0  0  0  0
 28 25  1  0  0  0  0
 29 26  1  6  0  0  0
 29 30  1  0  0  0  0
 30  5  1  6  0  0  0
 30 25  1  0  0  0  0
 31 24  1  0  0  0  0
 31 29  1  0  0  0  0
M  END
>  <MODEL>
4

>  <REMARK>
 VINA RESULT:      -9.0      1.973      4.208
  Name = 
  1 active torsions:
  status: ('A' for Active; 'I' for Inactive)
    1  A    between atoms: C_9  and  C_22
                            x       y       z     vdW  Elec       q    Type
                         _______ _______ _______ _____ _____    ______ ____

>  <TORSDO>
F 1

$$$$
=
 OpenBabel10272400313D

 31 35  0  0  1  0  0  0  0  0999 V2000
  183.8190  178.6910  144.5160 C   0  0  0  0  0  0  0  0  0  0  0  0
  187.6180  178.2710  144.2880 C   0  0  2  0  0  3  0  0  0  0  0  0
  187.8990  177.7690  145.7230 C   0  0  2  0  0  3  0  0  0  0  0  0
  187.7840  178.7880  139.0440 O   0  0  0  0  0  0  0  0  0  0  0  0
  188.8410  178.2120  139.4200 C   0  0  0  0  0  0  0  0  0  0  0  0
  188.5720  178.8710  147.9810 C   0  0  0  0  0  2  0  0  0  0  0  0
  186.1540  178.3710  143.9290 C   0  0  0  0  0  0  0  0  0  0  0  0
  183.4870  178.7750  143.1610 C   0  0  0  0  0  3  0  0  0  0  0  0
  187.7390  178.9510  146.7000 C   0  0  0  0  0  2  0  0  0  0  0  0
  188.0440  177.9510  141.8320 C   0  0  0  0  0  0  0  0  0  0  0  0
  182.8050  178.8140  145.5060 N   0  0  0  0  0  1  0  0  0  0  0  0
  190.1040  176.9070  144.8760 C   0  0  0  0  0  3  0  0  0  0  0  0
  188.2310  177.6630  148.8580 C   0  0  0  0  0  2  0  0  0  0  0  0
  186.8320  178.3470  141.5600 N   0  0  0  0  0  0  0  0  0  0  0  0
  188.3780  177.4660  143.2240 C   0  0  1  0  0  3  0  0  0  0  0  0
  189.0150  177.8120  140.7840 N   0  0  0  0  0  2  0  0  0  0  0  0
  185.1510  178.5040  144.9000 C   0  0  0  0  0  3  0  0  0  0  0  0
  188.3750  176.3120  148.1510 C   0  0  0  0  0  2  0  0  0  0  0  0
  185.8140  178.4620  142.5660 C   0  0  0  0  0  0  0  0  0  0  0  0
  184.4830  178.6630  142.1870 C   0  0  0  0  0  3  0  0  0  0  0  0
  189.8630  177.5470  143.5410 C   0  0  0  0  0  2  0  0  0  0  0  0
  189.2260  177.0180  145.8860 C   0  0  0  0  0  0  0  0  0  0  0  0
  189.5380  176.2720  147.1590 C   0  0  0  0  0  2  0  0  0  0  0  0
  189.2730  176.1430  136.3590 C   0  0  1  0  0  3  0  0  0  0  0  0
  189.6520  178.4080  137.1330 O   0  0  0  0  0  0  0  0  0  0  0  0
  190.7710  176.1030  139.7630 O   0  0  0  0  0  1  0  0  0  0  0  0
  188.2410  175.2560  135.6970 C   0  0  0  0  0  1  0  0  0  0  0  0
  188.6970  177.5430  136.5520 C   0  0  0  0  0  2  0  0  0  0  0  0
  190.5490  176.5430  138.4580 C   0  0  2  0  0  3  0  0  0  0  0  0
  189.9600  177.9660  138.4440 C   0  0  2  0  0  3  0  0  0  0  0  0
  189.6370  175.5690  137.7210 C   0  0  0  0  0  2  0  0  0  0  0  0
  1 17  1  0  0  0  0
  1 11  1  0  0  0  0
  2  7  1  6  0  0  0
  2  3  1  0  0  0  0
  3 22  1  0  0  0  0
  3  9  1  1  0  0  0
  4  5  2  0  0  0  0
  5 16  1  0  0  0  0
  6 13  1  0  0  0  0
  7 17  2  0  0  0  0
  8  1  2  0  0  0  0
  9  6  1  0  0  0  0
 10 15  1  0  0  0  0
 12 22  2  0  0  0  0
 14 10  2  0  0  0  0
 14 19  1  0  0  0  0
 15 21  1  1  0  0  0
 15  2  1  0  0  0  0
 16 10  1  0  0  0  0
 18 13  1  0  0  0  0
 19  7  1  0  0  0  0
 20 19  2  0  0  0  0
 20  8  1  0  0  0  0
 21 12  1  0  0  0  0
 22 23  1  0  0  0  0
 23 18  1  0  0  0  0
 24 27  1  1  0  0  0
 24 28  1  0  0  0  0
 24 31  1  0  0  0  0
 25 30  1  0  0  0  0
 28 25  1  0  0  0  0
 29 26  1  1  0  0  0
 30 29  1  0  0  0  0
 30  5  1  1  0  0  0
 31 29  1  0  0  0  0
M  END
>  <MODEL>
5

>  <REMARK>
 VINA RESULT:      -9.0      3.136      5.195
  Name = 
  1 active torsions:
  status: ('A' for Active; 'I' for Inactive)
    1  A    between atoms: C_9  and  C_22
                            x       y       z     vdW  Elec       q    Type
                         _______ _______ _______ _____ _____    ______ ____

>  <TORSDO>
F 1

$$$$
=
 OpenBabel10272400313D

 31 35  0  0  1  0  0  0  0  0999 V2000
  190.0340  177.7710  142.1580 C   0  0  0  0  0  0  0  0  0  0  0  0
  186.6550  177.8280  143.9580 C   0  0  2  0  0  3  0  0  0  0  0  0
  187.1480  178.0700  145.4020 C   0  0  2  0  0  3  0  0  0  0  0  0
  183.8210  178.1120  139.5210 O   0  0  0  0  0  0  0  0  0  0  0  0
  183.1030  178.5110  140.4780 C   0  0  0  0  0  0  0  0  0  0  0  0
  187.7420  176.5690  147.4430 C   0  0  0  0  0  2  0  0  0  0  0  0
  187.7270  177.9350  142.8990 C   0  0  0  0  0  0  0  0  0  0  0  0
  189.6230  177.9330  140.8320 C   0  0  0  0  0  3  0  0  0  0  0  0
  187.7980  176.7750  145.9270 C   0  0  0  0  0  2  0  0  0  0  0  0
  185.0240  178.4780  142.1600 C   0  0  0  0  0  0  0  0  0  0  0  0
  191.4140  177.6030  142.4590 N   0  0  0  0  0  1  0  0  0  0  0  0
  184.8130  178.8200  145.9590 C   0  0  0  0  0  3  0  0  0  0  0  0
  188.4740  177.6550  148.2350 C   0  0  0  0  0  2  0  0  0  0  0  0
  185.9270  178.2560  141.2460 N   0  0  0  0  0  0  0  0  0  0  0  0
  185.4490  178.7050  143.5920 C   0  0  1  0  0  3  0  0  0  0  0  0
  183.6510  178.6750  141.7910 N   0  0  0  0  0  2  0  0  0  0  0  0
  189.0880  177.7590  143.1870 C   0  0  0  0  0  3  0  0  0  0  0  0
  187.9740  179.0770  147.9620 C   0  0  0  0  0  2  0  0  0  0  0  0
  187.3190  178.0920  141.5600 C   0  0  0  0  0  0  0  0  0  0  0  0
  188.2670  178.0900  140.5320 C   0  0  0  0  0  3  0  0  0  0  0  0
  184.3390  178.4220  144.5930 C   0  0  0  0  0  2  0  0  0  0  0  0
  186.0860  178.6460  146.3480 C   0  0  0  0  0  0  0  0  0  0  0  0
  186.4670  179.1500  147.7180 C   0  0  0  0  0  2  0  0  0  0  0  0
  180.0600  178.4610  142.6180 C   0  0  1  0  0  3  0  0  0  0  0  0
  181.1730  179.8960  141.0140 O   0  0  0  0  0  0  0  0  0  0  0  0
  181.2290  176.4660  139.7050 O   0  0  0  0  0  1  0  0  0  0  0  0
  179.9820  178.1440  144.0960 C   0  0  0  0  0  1  0  0  0  0  0  0
  181.1050  179.5490  142.3820 C   0  0  0  0  0  2  0  0  0  0  0  0
  180.7090  177.5660  140.3890 C   0  0  2  0  0  3  0  0  0  0  0  0
  181.6390  178.7880  140.2640 C   0  0  2  0  0  3  0  0  0  0  0  0
  180.4700  177.2120  141.8520 C   0  0  0  0  0  2  0  0  0  0  0  0
  1 11  1  0  0  0  0
  1 17  1  0  0  0  0
  2  7  1  6  0  0  0
  2  3  1  0  0  0  0
  3  9  1  1  0  0  0
  3 22  1  0  0  0  0
  4  5  2  0  0  0  0
  5 16  1  0  0  0  0
  6 13  1  0  0  0  0
  7 17  2  0  0  0  0
  8  1  2  0  0  0  0
  9  6  1  0  0  0  0
 10 15  1  0  0  0  0
 12 22  2  0  0  0  0
 14 19  1  0  0  0  0
 14 10  2  0  0  0  0
 15  2  1  0  0  0  0
 15 21  1  1  0  0  0
 16 10  1  0  0  0  0
 18 13  1  0  0  0  0
 19  7  1  0  0  0  0
 20  8  1  0  0  0  0
 20 19  2  0  0  0  0
 21 12  1  0  0  0  0
 22 23  1  0  0  0  0
 23 18  1  0  0  0  0
 24 27  1  1  0  0  0
 25 28  1  0  0  0  0
 28 24  1  0  0  0  0
 29 26  1  6  0  0  0
 29 31  1  0  0  0  0
 30 29  1  0  0  0  0
 30  5  1  1  0  0  0
 30 25  1  0  0  0  0
 31 24  1  0  0  0  0
M  END
>  <MODEL>
6

>  <REMARK>
 VINA RESULT:      -8.7      2.110      4.715
  Name = 
  1 active torsions:
  status: ('A' for Active; 'I' for Inactive)
    1  A    between atoms: C_9  and  C_22
                            x       y       z     vdW  Elec       q    Type
                         _______ _______ _______ _____ _____    ______ ____

>  <TORSDO>
F 1

$$$$
=
 OpenBabel10272400313D

 31 35  0  0  1  0  0  0  0  0999 V2000
  181.9510  178.8320  141.7990 C   0  0  0  0  0  0  0  0  0  0  0  0
  185.7220  178.7610  142.4550 C   0  0  2  0  0  3  0  0  0  0  0  0
  185.7070  178.3510  143.9450 C   0  0  2  0  0  3  0  0  0  0  0  0
  187.0410  179.0630  137.3600 O   0  0  0  0  0  0  0  0  0  0  0  0
  188.0280  178.6060  137.9990 C   0  0  0  0  0  0  0  0  0  0  0  0
  185.7530  179.6090  146.2220 C   0  0  0  0  0  2  0  0  0  0  0  0
  184.3760  178.7080  141.7710 C   0  0  0  0  0  0  0  0  0  0  0  0
  181.9320  178.8250  140.4010 C   0  0  0  0  0  3  0  0  0  0  0  0
  185.2320  179.5540  144.7840 C   0  0  0  0  0  2  0  0  0  0  0  0
  186.7240  178.3760  140.1820 C   0  0  0  0  0  0  0  0  0  0  0  0
  180.7310  178.9020  142.5260 N   0  0  0  0  0  1  0  0  0  0  0  0
  188.1100  177.6640  143.6710 C   0  0  0  0  0  3  0  0  0  0  0  0
  185.3200  178.4130  147.0750 C   0  0  0  0  0  2  0  0  0  0  0  0
  185.5780  178.6440  139.6210 N   0  0  0  0  0  0  0  0  0  0  0  0
  186.7690  177.9850  141.6410 C   0  0  1  0  0  3  0  0  0  0  0  0
  187.9170  178.2840  139.3900 N   0  0  0  0  0  2  0  0  0  0  0  0
  183.1700  178.7880  142.4820 C   0  0  0  0  0  3  0  0  0  0  0  0
  185.7320  177.0520  146.5070 C   0  0  0  0  0  2  0  0  0  0  0  0
  184.3510  178.7070  140.3630 C   0  0  0  0  0  0  0  0  0  0  0  0
  183.1300  178.7650  139.6830 C   0  0  0  0  0  3  0  0  0  0  0  0
  188.1290  178.2200  142.2780 C   0  0  0  0  0  2  0  0  0  0  0  0
  187.0180  177.7360  144.4490 C   0  0  0  0  0  0  0  0  0  0  0  0
  187.0900  177.0790  145.8050 C   0  0  0  0  0  2  0  0  0  0  0  0
  189.7260  175.8160  136.2180 C   0  0  1  0  0  3  0  0  0  0  0  0
  189.2310  178.1700  135.9270 O   0  0  0  0  0  0  0  0  0  0  0  0
  190.3720  177.6630  139.3810 O   0  0  0  0  0  1  0  0  0  0  0  0
  189.1790  174.4310  135.9490 C   0  0  0  0  0  1  0  0  0  0  0  0
  188.7310  176.8640  135.7270 C   0  0  0  0  0  2  0  0  0  0  0  0
  190.3250  177.4420  138.0040 C   0  0  2  0  0  3  0  0  0  0  0  0
  189.3570  178.4240  137.3160 C   0  0  2  0  0  3  0  0  0  0  0  0
  189.9320  175.9980  137.7150 C   0  0  0  0  0  2  0  0  0  0  0  0
  1 17  1  0  0  0  0
  1 11  1  0  0  0  0
  2  7  1  6  0  0  0
  2  3  1  0  0  0  0
  3 22  1  0  0  0  0
  3  9  1  1  0  0  0
  4  5  2  0  0  0  0
  5 16  1  0  0  0  0
  6 13  1  0  0  0  0
  7 17  2  0  0  0  0
  8  1  2  0  0  0  0
  9  6  1  0  0  0  0
 10 15  1  0  0  0  0
 12 22  2  0  0  0  0
 14 10  2  0  0  0  0
 14 19  1  0  0  0  0
 15 21  1  1  0  0  0
 15  2  1  0  0  0  0
 16 10  1  0  0  0  0
 18 13  1  0  0  0  0
 19  7  1  0  0  0  0
 20 19  2  0  0  0  0
 20  8  1  0  0  0  0
 21 12  1  0  0  0  0
 22 23  1  0  0  0  0
 23 18  1  0  0  0  0
 24 27  1  1  0  0  0
 24 31  1  0  0  0  0
 25 30  1  0  0  0  0
 28 25  1  0  0  0  0
 28 24  1  0  0  0  0
 29 26  1  1  0  0  0
 30  5  1  1  0  0  0
 30 29  1  0  0  0  0
 31 29  1  0  0  0  0
M  END
>  <MODEL>
7

>  <REMARK>
 VINA RESULT:      -8.4      3.134      5.936
  Name = 
  1 active torsions:
  status: ('A' for Active; 'I' for Inactive)
    1  A    between atoms: C_9  and  C_22
                            x       y       z     vdW  Elec       q    Type
                         _______ _______ _______ _____ _____    ______ ____

>  <TORSDO>
F 1

$$$$
=
 OpenBabel10272400313D

 31 35  0  0  1  0  0  0  0  0999 V2000
  190.3100  177.5910  142.5090 C   0  0  0  0  0  0  0  0  0  0  0  0
  186.7040  177.9050  143.7540 C   0  0  2  0  0  3  0  0  0  0  0  0
  186.9790  178.1210  145.2590 C   0  0  2  0  0  3  0  0  0  0  0  0
  184.6310  178.3610  138.9280 O   0  0  0  0  0  0  0  0  0  0  0  0
  183.8020  178.8180  139.7610 C   0  0  0  0  0  0  0  0  0  0  0  0
  187.1340  176.5960  147.3610 C   0  0  0  0  0  2  0  0  0  0  0  0
  187.9340  177.9270  142.8770 C   0  0  0  0  0  0  0  0  0  0  0  0
  190.1260  177.7720  141.1350 C   0  0  0  0  0  3  0  0  0  0  0  0
  187.4420  176.7860  145.8740 C   0  0  0  0  0  2  0  0  0  0  0  0
  185.4270  178.6580  141.7240 C   0  0  0  0  0  0  0  0  0  0  0  0
  191.6090  177.3250  143.0220 N   0  0  0  0  0  1  0  0  0  0  0  0
  184.6460  179.0420  145.4440 C   0  0  0  0  0  3  0  0  0  0  0  0
  187.8090  177.6320  148.2630 C   0  0  0  0  0  2  0  0  0  0  0  0
  186.4440  178.3650  140.9630 N   0  0  0  0  0  0  0  0  0  0  0  0
  185.6360  178.8640  143.2060 C   0  0  1  0  0  3  0  0  0  0  0  0
  184.1480  178.9520  141.1440 N   0  0  0  0  0  2  0  0  0  0  0  0
  189.2160  177.6550  143.3750 C   0  0  0  0  0  3  0  0  0  0  0  0
  187.4630  179.0850  147.9210 C   0  0  0  0  0  2  0  0  0  0  0  0
  187.7530  178.1030  141.4920 C   0  0  0  0  0  0  0  0  0  0  0  0
  188.8490  178.0250  140.6260 C   0  0  0  0  0  3  0  0  0  0  0  0
  184.3660  178.6700  144.0190 C   0  0  0  0  0  2  0  0  0  0  0  0
  185.8260  178.7790  146.0280 C   0  0  0  0  0  0  0  0  0  0  0  0
  186.0220  179.2640  147.4430 C   0  0  0  0  0  2  0  0  0  0  0  0
  180.4670  177.1700  139.8060 C   0  0  1  0  0  3  0  0  0  0  0  0
  181.4970  179.2810  140.3980 O   0  0  0  0  0  0  0  0  0  0  0  0
  182.8000  178.2570  137.1200 O   0  0  0  0  0  1  0  0  0  0  0  0
  180.1260  175.8020  140.3580 C   0  0  0  0  0  1  0  0  0  0  0  0
  181.2000  177.9820  140.8690 C   0  0  0  0  0  2  0  0  0  0  0  0
  181.8510  178.3890  138.1360 C   0  0  2  0  0  3  0  0  0  0  0  0
  182.4140  179.1980  139.3200 C   0  0  2  0  0  3  0  0  0  0  0  0
  181.3740  177.0150  138.5930 C   0  0  0  0  0  2  0  0  0  0  0  0
  1 11  1  0  0  0  0
  1 17  1  0  0  0  0
  2  7  1  6  0  0  0
  2  3  1  0  0  0  0
  3  9  1  1  0  0  0
  3 22  1  0  0  0  0
  4  5  2  0  0  0  0
  5 16  1  0  0  0  0
  6 13  1  0  0  0  0
  7 17  2  0  0  0  0
  8  1  2  0  0  0  0
  9  6  1  0  0  0  0
 10 15  1  0  0  0  0
 12 22  2  0  0  0  0
 14 19  1  0  0  0  0
 14 10  2  0  0  0  0
 15  2  1  0  0  0  0
 15 21  1  1  0  0  0
 16 10  1  0  0  0  0
 18 13  1  0  0  0  0
 19  7  1  0  0  0  0
 20  8  1  0  0  0  0
 20 19  2  0  0  0  0
 21 12  1  0  0  0  0
 22 23  1  0  0  0  0
 23 18  1  0  0  0  0
 24 27  1  1  0  0  0
 24 28  1  0  0  0  0
 25 28  1  0  0  0  0
 29 26  1  6  0  0  0
 29 31  1  0  0  0  0
 29 30  1  0  0  0  0
 30  5  1  1  0  0  0
 30 25  1  0  0  0  0
 31 24  1  0  0  0  0
M  END
>  <MODEL>
8

>  <REMARK>
 VINA RESULT:      -8.3      1.928      4.385
  Name = 
  1 active torsions:
  status: ('A' for Active; 'I' for Inactive)
    1  A    between atoms: C_9  and  C_22
                            x       y       z     vdW  Elec       q    Type
                         _______ _______ _______ _____ _____    ______ ____

>  <TORSDO>
F 1

$$$$
=
 OpenBabel10272400313D

 31 35  0  0  1  0  0  0  0  0999 V2000
  189.0760  178.1070  141.3990 C   0  0  0  0  0  0  0  0  0  0  0  0
  185.6710  178.0650  143.1500 C   0  0  2  0  0  3  0  0  0  0  0  0
  186.1380  178.2950  144.6050 C   0  0  2  0  0  3  0  0  0  0  0  0
  182.8950  178.3600  138.6780 O   0  0  0  0  0  0  0  0  0  0  0  0
  182.1550  178.7290  139.6300 C   0  0  0  0  0  0  0  0  0  0  0  0
  186.7340  176.7750  146.6310 C   0  0  0  0  0  2  0  0  0  0  0  0
  186.7560  178.2120  142.1080 C   0  0  0  0  0  0  0  0  0  0  0  0
  188.6800  178.2810  140.0700 C   0  0  0  0  0  3  0  0  0  0  0  0
  186.8070  177.0050  145.1190 C   0  0  0  0  0  2  0  0  0  0  0  0
  184.0520  178.7090  141.3380 C   0  0  0  0  0  0  0  0  0  0  0  0
  190.4540  177.9630  141.7180 N   0  0  0  0  0  1  0  0  0  0  0  0
  183.7800  178.9880  145.1390 C   0  0  0  0  0  3  0  0  0  0  0  0
  187.4320  177.8640  147.4490 C   0  0  0  0  0  2  0  0  0  0  0  0
  184.9730  178.5200  140.4350 N   0  0  0  0  0  0  0  0  0  0  0  0
  184.4520  178.9220  142.7800 C   0  0  1  0  0  3  0  0  0  0  0  0
  182.6810  178.8840  140.9520 N   0  0  0  0  0  2  0  0  0  0  0  0
  188.1160  178.0590  142.4140 C   0  0  0  0  0  3  0  0  0  0  0  0
  186.9070  179.2790  147.1920 C   0  0  0  0  0  2  0  0  0  0  0  0
  186.3630  178.3810  140.7660 C   0  0  0  0  0  0  0  0  0  0  0  0
  187.3260  178.4150  139.7520 C   0  0  0  0  0  3  0  0  0  0  0  0
  183.3350  178.6020  143.7600 C   0  0  0  0  0  2  0  0  0  0  0  0
  185.0510  178.8340  145.5440 C   0  0  0  0  0  0  0  0  0  0  0  0
  185.4020  179.3240  146.9260 C   0  0  0  0  0  2  0  0  0  0  0  0
  180.1660  181.2270  137.7210 C   0  0  1  0  0  3  0  0  0  0  0  0
  180.3130  178.8300  138.0400 O   0  0  0  0  0  0  0  0  0  0  0  0
  180.5790  180.4360  141.3320 O   0  0  0  0  0  1  0  0  0  0  0  0
  180.6930  182.3600  136.8660 C   0  0  0  0  0  1  0  0  0  0  0  0
  180.8150  179.9150  137.2870 C   0  0  0  0  0  2  0  0  0  0  0  0
  180.1320  180.2750  140.0190 C   0  0  2  0  0  3  0  0  0  0  0  0
  180.6890  178.9790  139.3980 C   0  0  2  0  0  3  0  0  0  0  0  0
  180.5140  181.4880  139.1790 C   0  0  0  0  0  2  0  0  0  0  0  0
  1 11  1  0  0  0  0
  1 17  1  0  0  0  0
  2  7  1  6  0  0  0
  2  3  1  0  0  0  0
  3  9  1  1  0  0  0
  3 22  1  0  0  0  0
  4  5  2  0  0  0  0
  5 16  1  0  0  0  0
  6 13  1  0  0  0  0
  7 17  2  0  0  0  0
  8  1  2  0  0  0  0
  9  6  1  0  0  0  0
 10 15  1  0  0  0  0
 12 22  2  0  0  0  0
 14 19  1  0  0  0  0
 14 10  2  0  0  0  0
 15  2  1  0  0  0  0
 15 21  1  1  0  0  0
 16 10  1  0  0  0  0
 18 13  1  0  0  0  0
 19  7  1  0  0  0  0
 20  8  1  0  0  0  0
 20 19  2  0  0  0  0
 21 12  1  0  0  0  0
 22 23  1  0  0  0  0
 23 18  1  0  0  0  0
 24 27  1  6  0  0  0
 24 31  1  0  0  0  0
 25 30  1  0  0  0  0
 28 24  1  0  0  0  0
 28 25  1  0  0  0  0
 29 26  1  1  0  0  0
 30  5  1  6  0  0  0
 30 29  1  0  0  0  0
 31 29  1  0  0  0  0
M  END
>  <MODEL>
9

>  <REMARK>
 VINA RESULT:      -8.3      2.431      4.943
  Name = 
  1 active torsions:
  status: ('A' for Active; 'I' for Inactive)
    1  A    between atoms: C_9  and  C_22
                            x       y       z     vdW  Elec       q    Type
                         _______ _______ _______ _____ _____    ______ ____

>  <TORSDO>
F 1

$$$$
