=
 OpenBabel10272414533D

 37 40  0  0  1  0  0  0  0  0999 V2000
  188.7730  177.0380  138.2380 C   0  0  2  0  0  3  0  0  0  0  0  0
  187.1020  178.6270  140.9430 C   0  0  0  0  0  2  0  0  0  0  0  0
  190.2430  176.7140  138.1430 C   0  0  1  0  0  3  0  0  0  0  0  0
  188.3140  177.1610  139.5370 O   0  0  0  0  0  0  0  0  0  0  0  0
  191.0990  177.1360  139.2750 N   0  0  0  0  0  0  0  0  0  0  0  0
  187.2920  178.1150  139.5100 C   0  0  1  0  0  3  0  0  0  0  0  0
  190.2400  175.2280  137.8540 C   0  0  0  0  0  2  0  0  0  0  0  0
  192.5310  177.0120  139.1330 C   0  0  0  0  0  0  0  0  0  0  0  0
  186.8750  176.0800  136.8990 C   0  0  0  0  0  2  0  0  0  0  0  0
  189.0720  174.9740  137.1120 O   0  0  0  0  0  0  0  0  0  0  0  0
  193.2980  177.6960  139.8610 O   0  0  0  0  0  0  0  0  0  0  0  0
  188.4330  178.9350  141.6520 C   0  0  0  0  0  2  0  0  0  0  0  0
  188.1150  175.7830  137.7380 C   0  0  1  0  0  3  0  0  0  0  0  0
  190.6240  178.0330  140.1920 O   0  0  0  0  0  0  0  0  0  0  0  0
  185.9860  177.4980  138.9190 C   0  0  2  0  0  3  0  0  0  0  0  0
  189.1960  177.6880  142.1690 C   0  0  2  0  0  3  0  0  0  0  0  0
  190.5090  177.3490  141.4190 C   0  0  2  0  0  3  0  0  0  0  0  0
  186.0790  177.3130  137.3860 C   0  0  0  0  0  2  0  0  0  0  0  0
  184.5080  179.4710  138.4940 C   0  0  0  0  0  3  0  0  0  0  0  0
  184.7660  178.3140  139.2370 C   0  0  0  0  0  0  0  0  0  0  0  0
  183.8840  177.9350  140.2610 C   0  0  0  0  0  3  0  0  0  0  0  0
  181.9040  178.3420  141.5250 F   0  0  0  0  0  0  0  0  0  0  0  0
  182.5010  179.8660  139.7900 C   0  0  0  0  0  3  0  0  0  0  0  0
  182.7540  178.7110  140.5360 C   0  0  0  0  0  0  0  0  0  0  0  0
  183.3780  180.2470  138.7700 C   0  0  0  0  0  3  0  0  0  0  0  0
  189.0930  175.3750  142.8780 O   0  0  0  0  0  1  0  0  0  0  0  0
  188.3180  176.4580  142.4570 C   0  0  1  0  0  3  0  0  0  0  0  0
  187.2900  176.7860  143.5290 C   0  0  0  0  0  2  0  0  0  0  0  0
  187.9870  177.1470  144.8250 C   0  0  0  0  0  1  0  0  0  0  0  0
  191.6910  177.7220  142.3080 C   0  0  0  0  0  2  0  0  0  0  0  0
  191.2350  178.2090  143.6720 C   0  0  2  0  0  3  0  0  0  0  0  0
  191.8360  179.4190  143.9670 F   0  0  0  0  0  0  0  0  0  0  0  0
  191.6310  177.1910  144.7210 C   0  0  0  0  0  1  0  0  0  0  0  0
  193.1450  176.1310  138.0940 C   0  0  0  0  0  2  0  0  0  0  0  0
  193.8950  176.9030  137.2070 O   0  0  0  0  0  0  0  0  0  0  0  0
  195.6380  175.9930  136.0570 O   0  0  0  0  0  1  0  0  0  0  0  0
  194.2500  176.0200  136.1880 C   0  0  0  0  0  2  0  0  0  0  0  0
  1  4  1  1  0  0  0
  2 12  1  0  0  0  0
  3  7  1  1  0  0  0
  3  1  1  0  0  0  0
  3  5  1  0  0  0  0
  5 14  1  0  0  0  0
  6  4  1  0  0  0  0
  6  2  1  1  0  0  0
  8  5  1  0  0  0  0
  8 11  2  0  0  0  0
  9 18  1  0  0  0  0
 10 13  1  0  0  0  0
 10  7  1  0  0  0  0
 12 16  1  0  0  0  0
 13  9  1  6  0  0  0
 13  1  1  0  0  0  0
 14 17  1  0  0  0  0
 15 20  1  6  0  0  0
 15  6  1  0  0  0  0
 16 27  1  6  0  0  0
 17 16  1  0  0  0  0
 17 30  1  1  0  0  0
 18 15  1  0  0  0  0
 19 25  2  0  0  0  0
 19 20  1  0  0  0  0
 20 21  2  0  0  0  0
 21 24  1  0  0  0  0
 23 24  2  0  0  0  0
 24 22  1  0  0  0  0
 25 23  1  0  0  0  0
 27 26  1  1  0  0  0
 27 28  1  0  0  0  0
 28 29  1  0  0  0  0
 30 31  1  0  0  0  0
 31 32  1  0  0  0  0
 31 33  1  1  0  0  0
 34  8  1  0  0  0  0
 35 34  1  0  0  0  0
 36 37  1  0  0  0  0
 37 35  1  0  0  0  0
M  END
>  <MODEL>
1

>  <REMARK>
 VINA RESULT:      -6.4      0.000      0.000
  Name = 
  8 active torsions:
  status: ('A' for Active; 'I' for Inactive)
    1  A    between atoms: C_1  and  C_5
    2  A    between atoms: C_1  and  C_36
    3  A    between atoms: O_3  and  C_30
    4  A    between atoms: O_3  and  C_32
    5  A    between atoms: C_6  and  C_31
    6  A    between atoms: C_11  and  C_26
    7  A    between atoms: C_20  and  C_30
    8  A    between atoms: C_26  and  C_33
                            x       y       z     vdW  Elec       q    Type
                         _______ _______ _______ _____ _____    ______ ____

>  <TORSDO>
F 8

$$$$
=
 OpenBabel10272414533D

 37 40  0  0  1  0  0  0  0  0999 V2000
  188.5090  177.0420  138.1990 C   0  0  2  0  0  3  0  0  0  0  0  0
  186.9400  178.6490  140.9540 C   0  0  0  0  0  2  0  0  0  0  0  0
  189.9730  176.7110  138.0550 C   0  0  1  0  0  3  0  0  0  0  0  0
  188.0960  177.1710  139.5140 O   0  0  0  0  0  0  0  0  0  0  0  0
  190.8700  177.1330  139.1550 N   0  0  0  0  0  0  0  0  0  0  0  0
  187.0780  178.1300  139.5180 C   0  0  1  0  0  3  0  0  0  0  0  0
  189.9540  175.2230  137.7730 C   0  0  0  0  0  2  0  0  0  0  0  0
  192.2960  177.0030  138.9640 C   0  0  0  0  0  0  0  0  0  0  0  0
  186.5620  176.0860  136.9310 C   0  0  0  0  0  2  0  0  0  0  0  0
  188.7600  174.9710  137.0720 O   0  0  0  0  0  0  0  0  0  0  0  0
  193.0900  177.6860  139.6630 O   0  0  0  0  0  0  0  0  0  0  0  0
  188.2950  178.9530  141.6160 C   0  0  0  0  0  2  0  0  0  0  0  0
  187.8290  175.7870  137.7270 C   0  0  1  0  0  3  0  0  0  0  0  0
  190.4310  178.0360  140.0850 O   0  0  0  0  0  0  0  0  0  0  0  0
  185.7500  177.5170  138.9740 C   0  0  2  0  0  3  0  0  0  0  0  0
  189.0710  177.7060  142.1110 C   0  0  2  0  0  3  0  0  0  0  0  0
  190.3560  177.3580  141.3180 C   0  0  2  0  0  3  0  0  0  0  0  0
  185.7890  177.3250  137.4400 C   0  0  0  0  0  2  0  0  0  0  0  0
  183.6810  177.8820  140.3320 C   0  0  0  0  0  3  0  0  0  0  0  0
  184.5450  178.3390  139.3310 C   0  0  0  0  0  0  0  0  0  0  0  0
  184.2740  179.5530  138.6800 C   0  0  0  0  0  3  0  0  0  0  0  0
  182.8870  181.4720  138.4030 F   0  0  0  0  0  0  0  0  0  0  0  0
  182.2860  179.8400  140.0340 C   0  0  0  0  0  3  0  0  0  0  0  0
  183.1460  180.3010  139.0320 C   0  0  0  0  0  0  0  0  0  0  0  0
  182.5530  178.6300  140.6830 C   0  0  0  0  0  3  0  0  0  0  0  0
  188.9810  175.3980  142.8400 O   0  0  0  0  0  1  0  0  0  0  0  0
  188.1970  176.4800  142.4340 C   0  0  1  0  0  3  0  0  0  0  0  0
  187.2030  176.8190  143.5330 C   0  0  0  0  0  2  0  0  0  0  0  0
  187.9390  177.2070  144.8000 C   0  0  0  0  0  1  0  0  0  0  0  0
  191.5690  177.7290  142.1640 C   0  0  0  0  0  2  0  0  0  0  0  0
  191.1660  178.1700  143.5590 C   0  0  2  0  0  3  0  0  0  0  0  0
  191.7820  179.3680  143.8720 F   0  0  0  0  0  0  0  0  0  0  0  0
  191.5970  177.1170  144.5580 C   0  0  0  0  0  1  0  0  0  0  0  0
  192.8700  176.1140  137.9080 C   0  0  0  0  0  2  0  0  0  0  0  0
  194.2620  176.1180  137.9990 O   0  0  0  0  0  0  0  0  0  0  0  0
  195.7640  174.7780  139.0660 O   0  0  0  0  0  1  0  0  0  0  0  0
  194.5960  174.7990  138.3050 C   0  0  0  0  0  2  0  0  0  0  0  0
  1  4  1  1  0  0  0
  2 12  1  0  0  0  0
  3  7  1  1  0  0  0
  3  1  1  0  0  0  0
  3  5  1  0  0  0  0
  4  6  1  0  0  0  0
  5 14  1  0  0  0  0
  6  2  1  1  0  0  0
  8  5  1  0  0  0  0
  8 11  2  0  0  0  0
  9 18  1  0  0  0  0
 10 13  1  0  0  0  0
 10  7  1  0  0  0  0
 12 16  1  0  0  0  0
 13  9  1  6  0  0  0
 13  1  1  0  0  0  0
 14 17  1  0  0  0  0
 15 20  1  6  0  0  0
 15  6  1  0  0  0  0
 16 27  1  6  0  0  0
 17 16  1  0  0  0  0
 17 30  1  1  0  0  0
 18 15  1  0  0  0  0
 19 25  1  0  0  0  0
 20 19  2  0  0  0  0
 21 24  2  0  0  0  0
 21 20  1  0  0  0  0
 22 24  1  0  0  0  0
 23 25  2  0  0  0  0
 24 23  1  0  0  0  0
 27 26  1  1  0  0  0
 27 28  1  0  0  0  0
 28 29  1  0  0  0  0
 30 31  1  0  0  0  0
 31 32  1  0  0  0  0
 31 33  1  1  0  0  0
 34 35  1  0  0  0  0
 34  8  1  0  0  0  0
 35 37  1  0  0  0  0
 37 36  1  0  0  0  0
M  END
>  <MODEL>
2

>  <REMARK>
 VINA RESULT:      -6.1      1.017      1.314
  Name = 
  8 active torsions:
  status: ('A' for Active; 'I' for Inactive)
    1  A    between atoms: C_1  and  C_5
    2  A    between atoms: C_1  and  C_36
    3  A    between atoms: O_3  and  C_30
    4  A    between atoms: O_3  and  C_32
    5  A    between atoms: C_6  and  C_31
    6  A    between atoms: C_11  and  C_26
    7  A    between atoms: C_20  and  C_30
    8  A    between atoms: C_26  and  C_33
                            x       y       z     vdW  Elec       q    Type
                         _______ _______ _______ _____ _____    ______ ____

>  <TORSDO>
F 8

$$$$
=
 OpenBabel10272414533D

 37 40  0  0  1  0  0  0  0  0999 V2000
  186.7760  177.6800  139.2670 C   0  0  2  0  0  3  0  0  0  0  0  0
  183.8730  178.1010  141.2740 C   0  0  0  0  0  2  0  0  0  0  0  0
  186.8230  177.3410  137.7990 C   0  0  1  0  0  3  0  0  0  0  0  0
  185.5930  178.2810  139.6610 O   0  0  0  0  0  0  0  0  0  0  0  0
  185.5280  177.1150  137.1190 N   0  0  0  0  0  0  0  0  0  0  0  0
  185.3600  177.8750  140.9790 C   0  0  1  0  0  3  0  0  0  0  0  0
  187.6680  178.4580  137.2240 C   0  0  0  0  0  2  0  0  0  0  0  0
  185.5440  176.6050  135.7670 C   0  0  0  0  0  0  0  0  0  0  0  0
  188.5880  178.6710  140.6970 C   0  0  0  0  0  2  0  0  0  0  0  0
  188.5780  178.8220  138.2330 O   0  0  0  0  0  0  0  0  0  0  0  0
  184.5240  176.0350  135.2970 O   0  0  0  0  0  0  0  0  0  0  0  0
  182.9540  177.6160  140.1390 C   0  0  0  0  0  2  0  0  0  0  0  0
  187.7990  178.7750  139.3960 C   0  0  1  0  0  3  0  0  0  0  0  0
  184.3930  176.9250  137.8580 O   0  0  0  0  0  0  0  0  0  0  0  0
  186.2900  178.6540  141.9610 C   0  0  2  0  0  3  0  0  0  0  0  0
  182.8830  178.5610  138.9120 C   0  0  2  0  0  3  0  0  0  0  0  0
  183.5520  178.0320  137.6190 C   0  0  2  0  0  3  0  0  0  0  0  0
  187.7520  178.1540  141.8900 C   0  0  0  0  0  2  0  0  0  0  0  0
  184.6470  179.2510  143.7500 C   0  0  0  0  0  3  0  0  0  0  0  0
  185.8190  178.5790  143.3840 C   0  0  0  0  0  0  0  0  0  0  0  0
  186.5300  177.8490  144.3490 C   0  0  0  0  0  3  0  0  0  0  0  0
  186.7570  177.0880  146.5970 F   0  0  0  0  0  0  0  0  0  0  0  0
  184.8970  178.4660  146.0280 C   0  0  0  0  0  3  0  0  0  0  0  0
  186.0690  177.7930  145.6680 C   0  0  0  0  0  0  0  0  0  0  0  0
  184.1860  179.1950  145.0690 C   0  0  0  0  0  3  0  0  0  0  0  0
  184.4510  180.3950  138.6970 O   0  0  0  0  0  1  0  0  0  0  0  0
  183.2010  180.0380  139.2080 C   0  0  1  0  0  3  0  0  0  0  0  0
  182.1360  180.9360  138.5990 C   0  0  0  0  0  2  0  0  0  0  0  0
  180.7590  180.3570  138.8520 C   0  0  0  0  0  1  0  0  0  0  0  0
  182.4610  177.6220  136.6360 C   0  0  0  0  0  2  0  0  0  0  0  0
  181.5190  176.5950  137.2390 C   0  0  2  0  0  3  0  0  0  0  0  0
  181.7890  175.3440  136.7170 F   0  0  0  0  0  0  0  0  0  0  0  0
  180.0910  176.9720  136.9050 C   0  0  0  0  0  1  0  0  0  0  0  0
  186.7680  176.6790  134.9130 C   0  0  0  0  0  2  0  0  0  0  0  0
  187.3010  175.4010  134.7450 O   0  0  0  0  0  0  0  0  0  0  0  0
  188.9550  174.9850  136.2550 O   0  0  0  0  0  1  0  0  0  0  0  0
  188.6600  175.5510  135.0150 C   0  0  0  0  0  2  0  0  0  0  0  0
  1 13  1  0  0  0  0
  1  4  1  6  0  0  0
  3  7  1  6  0  0  0
  3  1  1  0  0  0  0
  4  6  1  0  0  0  0
  5  3  1  0  0  0  0
  5 14  1  0  0  0  0
  6  2  1  1  0  0  0
  6 15  1  0  0  0  0
  7 10  1  0  0  0  0
  8  5  1  0  0  0  0
  9 18  1  0  0  0  0
 10 13  1  0  0  0  0
 11  8  2  0  0  0  0
 12  2  1  0  0  0  0
 13  9  1  1  0  0  0
 15 20  1  1  0  0  0
 16 27  1  1  0  0  0
 16 12  1  0  0  0  0
 17 30  1  6  0  0  0
 17 14  1  0  0  0  0
 17 16  1  0  0  0  0
 18 15  1  0  0  0  0
 19 25  1  0  0  0  0
 20 19  2  0  0  0  0
 20 21  1  0  0  0  0
 21 24  2  0  0  0  0
 24 23  1  0  0  0  0
 24 22  1  0  0  0  0
 25 23  2  0  0  0  0
 27 26  1  6  0  0  0
 28 29  1  0  0  0  0
 28 27  1  0  0  0  0
 30 31  1  0  0  0  0
 31 33  1  6  0  0  0
 32 31  1  0  0  0  0
 34  8  1  0  0  0  0
 35 34  1  0  0  0  0
 35 37  1  0  0  0  0
 37 36  1  0  0  0  0
M  END
>  <MODEL>
3

>  <REMARK>
 VINA RESULT:      -5.7      3.490      7.102
  Name = 
  8 active torsions:
  status: ('A' for Active; 'I' for Inactive)
    1  A    between atoms: C_1  and  C_5
    2  A    between atoms: C_1  and  C_36
    3  A    between atoms: O_3  and  C_30
    4  A    between atoms: O_3  and  C_32
    5  A    between atoms: C_6  and  C_31
    6  A    between atoms: C_11  and  C_26
    7  A    between atoms: C_20  and  C_30
    8  A    between atoms: C_26  and  C_33
                            x       y       z     vdW  Elec       q    Type
                         _______ _______ _______ _____ _____    ______ ____

>  <TORSDO>
F 8

$$$$
=
 OpenBabel10272414533D

 37 40  0  0  1  0  0  0  0  0999 V2000
  190.3700  177.0640  137.9120 C   0  0  2  0  0  3  0  0  0  0  0  0
  191.3660  175.1650  135.0780 C   0  0  0  0  0  2  0  0  0  0  0  0
  188.9730  177.5220  138.2520 C   0  0  1  0  0  3  0  0  0  0  0  0
  190.4040  175.9510  137.0900 O   0  0  0  0  0  0  0  0  0  0  0  0
  187.9010  177.1850  137.2890 N   0  0  0  0  0  0  0  0  0  0  0  0
  191.5480  176.0790  136.2950 C   0  0  1  0  0  3  0  0  0  0  0  0
  188.7760  176.9810  139.6530 C   0  0  0  0  0  2  0  0  0  0  0  0
  186.5940  177.7680  137.4880 C   0  0  0  0  0  0  0  0  0  0  0  0
  192.3680  176.8950  139.4250 C   0  0  0  0  0  2  0  0  0  0  0  0
  190.0460  176.9860  140.2590 O   0  0  0  0  0  0  0  0  0  0  0  0
  185.7850  177.8430  136.5260 O   0  0  0  0  0  0  0  0  0  0  0  0
  189.9670  175.2730  134.4470 C   0  0  0  0  0  2  0  0  0  0  0  0
  190.8930  176.5600  139.2280 C   0  0  1  0  0  3  0  0  0  0  0  0
  188.2240  176.7590  136.0300 O   0  0  0  0  0  0  0  0  0  0  0  0
  192.8260  175.7300  137.1190 C   0  0  2  0  0  3  0  0  0  0  0  0
  188.8490  174.5210  135.2150 C   0  0  2  0  0  3  0  0  0  0  0  0
  187.8050  175.4170  135.9260 C   0  0  2  0  0  3  0  0  0  0  0  0
  193.1920  176.8540  138.1170 C   0  0  0  0  0  2  0  0  0  0  0  0
  194.5540  176.4790  135.4740 C   0  0  0  0  0  3  0  0  0  0  0  0
  194.0150  175.4460  136.2490 C   0  0  0  0  0  0  0  0  0  0  0  0
  194.5930  174.1670  136.2000 C   0  0  0  0  0  3  0  0  0  0  0  0
  196.2580  172.6950  135.3380 F   0  0  0  0  0  0  0  0  0  0  0  0
  196.2370  174.9660  134.6110 C   0  0  0  0  0  3  0  0  0  0  0  0
  195.7020  173.9300  135.3820 C   0  0  0  0  0  0  0  0  0  0  0  0
  195.6630  176.2400  134.6560 C   0  0  0  0  0  3  0  0  0  0  0  0
  188.6030  173.2530  137.2640 O   0  0  0  0  0  1  0  0  0  0  0  0
  189.3300  173.3380  136.0740 C   0  0  1  0  0  3  0  0  0  0  0  0
  189.1840  172.0350  135.3030 C   0  0  0  0  0  2  0  0  0  0  0  0
  187.9430  171.2960  135.7620 C   0  0  0  0  0  1  0  0  0  0  0  0
  186.4990  175.3650  135.1400 C   0  0  0  0  0  2  0  0  0  0  0  0
  185.6380  174.1880  135.5610 C   0  0  2  0  0  3  0  0  0  0  0  0
  184.4530  174.1910  134.8480 F   0  0  0  0  0  0  0  0  0  0  0  0
  185.3260  174.3020  137.0380 C   0  0  0  0  0  1  0  0  0  0  0  0
  186.1840  178.3480  138.8030 C   0  0  0  0  0  2  0  0  0  0  0  0
  185.0230  179.1040  138.6400 O   0  0  0  0  0  0  0  0  0  0  0  0
  185.4660  179.5230  140.8340 O   0  0  0  0  0  1  0  0  0  0  0  0
  184.4720  179.1790  139.9190 C   0  0  0  0  0  2  0  0  0  0  0  0
  1  4  1  6  0  0  0
  1  3  1  0  0  0  0
  1 13  1  0  0  0  0
  3  7  1  1  0  0  0
  5  8  1  0  0  0  0
  5  3  1  0  0  0  0
  6  2  1  6  0  0  0
  6  4  1  0  0  0  0
  6 15  1  0  0  0  0
  7 10  1  0  0  0  0
  8 34  1  0  0  0  0
 11  8  2  0  0  0  0
 12  2  1  0  0  0  0
 12 16  1  0  0  0  0
 13  9  1  1  0  0  0
 13 10  1  0  0  0  0
 14  5  1  0  0  0  0
 15 20  1  6  0  0  0
 15 18  1  0  0  0  0
 16 17  1  0  0  0  0
 16 27  1  1  0  0  0
 17 30  1  6  0  0  0
 17 14  1  0  0  0  0
 18  9  1  0  0  0  0
 19 20  1  0  0  0  0
 21 20  2  0  0  0  0
 22 24  1  0  0  0  0
 23 25  1  0  0  0  0
 23 24  2  0  0  0  0
 24 21  1  0  0  0  0
 25 19  2  0  0  0  0
 27 26  1  1  0  0  0
 28 29  1  0  0  0  0
 28 27  1  0  0  0  0
 30 31  1  0  0  0  0
 31 33  1  1  0  0  0
 32 31  1  0  0  0  0
 35 34  1  0  0  0  0
 35 37  1  0  0  0  0
 37 36  1  0  0  0  0
M  END
>  <MODEL>
4

>  <REMARK>
 VINA RESULT:      -5.5      3.532      9.080
  Name = 
  8 active torsions:
  status: ('A' for Active; 'I' for Inactive)
    1  A    between atoms: C_1  and  C_5
    2  A    between atoms: C_1  and  C_36
    3  A    between atoms: O_3  and  C_30
    4  A    between atoms: O_3  and  C_32
    5  A    between atoms: C_6  and  C_31
    6  A    between atoms: C_11  and  C_26
    7  A    between atoms: C_20  and  C_30
    8  A    between atoms: C_26  and  C_33
                            x       y       z     vdW  Elec       q    Type
                         _______ _______ _______ _____ _____    ______ ____

>  <TORSDO>
F 8

$$$$
=
 OpenBabel10272414533D

 37 40  0  0  1  0  0  0  0  0999 V2000
  191.8140  175.7240  138.3900 C   0  0  2  0  0  3  0  0  0  0  0  0
  188.2810  176.0970  138.4950 C   0  0  0  0  0  2  0  0  0  0  0  0
  192.6150  174.9460  137.3770 C   0  0  1  0  0  3  0  0  0  0  0  0
  190.5760  176.1320  137.9250 O   0  0  0  0  0  0  0  0  0  0  0  0
  191.8560  174.2210  136.3330 N   0  0  0  0  0  0  0  0  0  0  0  0
  189.7180  176.1350  139.0290 C   0  0  1  0  0  3  0  0  0  0  0  0
  193.5970  175.9770  136.8620 C   0  0  0  0  0  2  0  0  0  0  0  0
  192.5770  173.3170  135.4660 C   0  0  0  0  0  0  0  0  0  0  0  0
  192.6090  177.5150  139.9630 C   0  0  0  0  0  2  0  0  0  0  0  0
  193.8520  176.8490  137.9370 O   0  0  0  0  0  0  0  0  0  0  0  0
  191.9600  172.4060  134.8520 O   0  0  0  0  0  0  0  0  0  0  0  0
  188.0870  175.0720  137.3640 C   0  0  0  0  0  2  0  0  0  0  0  0
  192.5900  177.0050  138.5250 C   0  0  1  0  0  3  0  0  0  0  0  0
  190.5100  174.0260  136.4790 O   0  0  0  0  0  0  0  0  0  0  0  0
  189.9890  177.3820  139.9260 C   0  0  2  0  0  3  0  0  0  0  0  0
  188.6200  175.5240  135.9790 C   0  0  2  0  0  3  0  0  0  0  0  0
  189.8720  174.7700  135.4650 C   0  0  2  0  0  3  0  0  0  0  0  0
  191.2990  177.2360  140.7360 C   0  0  0  0  0  2  0  0  0  0  0  0
  187.8490  178.5520  140.4820 C   0  0  0  0  0  3  0  0  0  0  0  0
  188.8610  177.6690  140.8740 C   0  0  0  0  0  0  0  0  0  0  0  0
  188.8040  177.0660  142.1410 C   0  0  0  0  0  3  0  0  0  0  0  0
  187.6880  176.7660  144.2260 F   0  0  0  0  0  0  0  0  0  0  0  0
  186.7330  178.2320  142.6060 C   0  0  0  0  0  3  0  0  0  0  0  0
  187.7400  177.3480  143.0040 C   0  0  0  0  0  0  0  0  0  0  0  0
  186.7870  178.8340  141.3460 C   0  0  0  0  0  3  0  0  0  0  0  0
  189.5320  177.3710  134.7060 O   0  0  0  0  0  1  0  0  0  0  0  0
  188.6920  177.0480  135.7740 C   0  0  1  0  0  3  0  0  0  0  0  0
  187.3040  177.6070  135.5070 C   0  0  0  0  0  2  0  0  0  0  0  0
  187.0240  178.7710  136.4370 C   0  0  0  0  0  1  0  0  0  0  0  0
  189.4490  173.8240  134.3470 C   0  0  0  0  0  2  0  0  0  0  0  0
  188.6550  172.6460  134.8790 C   0  0  2  0  0  3  0  0  0  0  0  0
  189.1950  171.4620  134.4110 F   0  0  0  0  0  0  0  0  0  0  0  0
  187.2210  172.7560  134.4030 C   0  0  0  0  0  1  0  0  0  0  0  0
  194.0620  173.3870  135.3160 C   0  0  0  0  0  2  0  0  0  0  0  0
  194.6610  172.4030  136.1030 O   0  0  0  0  0  0  0  0  0  0  0  0
  196.6180  173.1950  136.9580 O   0  0  0  0  0  1  0  0  0  0  0  0
  196.0270  172.5530  135.8700 C   0  0  0  0  0  2  0  0  0  0  0  0
  1  4  1  6  0  0  0
  1 13  1  0  0  0  0
  3  7  1  6  0  0  0
  3  1  1  0  0  0  0
  4  6  1  0  0  0  0
  5 14  1  0  0  0  0
  5  3  1  0  0  0  0
  6  2  1  6  0  0  0
  6 15  1  0  0  0  0
  7 10  1  0  0  0  0
  8  5  1  0  0  0  0
  9 18  1  0  0  0  0
 10 13  1  0  0  0  0
 11  8  2  0  0  0  0
 12  2  1  0  0  0  0
 13  9  1  1  0  0  0
 15 18  1  0  0  0  0
 15 20  1  1  0  0  0
 16 27  1  1  0  0  0
 16 12  1  0  0  0  0
 17 30  1  6  0  0  0
 17 16  1  0  0  0  0
 17 14  1  0  0  0  0
 19 20  2  0  0  0  0
 19 25  1  0  0  0  0
 20 21  1  0  0  0  0
 21 24  2  0  0  0  0
 23 24  1  0  0  0  0
 24 22  1  0  0  0  0
 25 23  2  0  0  0  0
 27 26  1  6  0  0  0
 28 27  1  0  0  0  0
 28 29  1  0  0  0  0
 30 31  1  0  0  0  0
 31 33  1  6  0  0  0
 32 31  1  0  0  0  0
 34  8  1  0  0  0  0
 34 35  1  0  0  0  0
 37 35  1  0  0  0  0
 37 36  1  0  0  0  0
M  END
>  <MODEL>
5

>  <REMARK>
 VINA RESULT:      -5.1      3.221      6.317
  Name = 
  8 active torsions:
  status: ('A' for Active; 'I' for Inactive)
    1  A    between atoms: C_1  and  C_5
    2  A    between atoms: C_1  and  C_36
    3  A    between atoms: O_3  and  C_30
    4  A    between atoms: O_3  and  C_32
    5  A    between atoms: C_6  and  C_31
    6  A    between atoms: C_11  and  C_26
    7  A    between atoms: C_20  and  C_30
    8  A    between atoms: C_26  and  C_33
                            x       y       z     vdW  Elec       q    Type
                         _______ _______ _______ _____ _____    ______ ____

>  <TORSDO>
F 8

$$$$
=
 OpenBabel10272414533D

 37 40  0  0  1  0  0  0  0  0999 V2000
  186.4580  174.6170  136.4080 C   0  0  2  0  0  3  0  0  0  0  0  0
  186.5520  178.0510  137.3200 C   0  0  0  0  0  2  0  0  0  0  0  0
  187.5950  173.7920  135.8590 C   0  0  1  0  0  3  0  0  0  0  0  0
  186.8720  175.7150  137.1430 O   0  0  0  0  0  0  0  0  0  0  0  0
  188.8820  174.4880  135.6320 N   0  0  0  0  0  0  0  0  0  0  0  0
  185.9090  176.7100  136.9470 C   0  0  1  0  0  3  0  0  0  0  0  0
  187.6530  172.6230  136.8180 C   0  0  0  0  0  2  0  0  0  0  0  0
  189.9290  173.7790  134.9340 C   0  0  0  0  0  0  0  0  0  0  0  0
  184.3200  173.8210  137.4610 C   0  0  0  0  0  2  0  0  0  0  0  0
  186.3340  172.4070  137.2570 O   0  0  0  0  0  0  0  0  0  0  0  0
  190.8600  174.4180  134.3770 O   0  0  0  0  0  0  0  0  0  0  0  0
  187.9690  178.2190  136.7450 C   0  0  0  0  0  2  0  0  0  0  0  0
  185.8420  173.7070  137.4330 C   0  0  1  0  0  3  0  0  0  0  0  0
  188.9280  175.8550  135.6320 O   0  0  0  0  0  0  0  0  0  0  0  0
  184.6320  176.4050  137.7910 C   0  0  2  0  0  3  0  0  0  0  0  0
  189.0760  177.4450  137.5070 C   0  0  2  0  0  3  0  0  0  0  0  0
  189.6940  176.2430  136.7500 C   0  0  2  0  0  3  0  0  0  0  0  0
  183.8020  175.2510  137.1820 C   0  0  0  0  0  2  0  0  0  0  0  0
  183.9610  178.4670  139.0380 C   0  0  0  0  0  3  0  0  0  0  0  0
  183.7470  177.6060  137.9550 C   0  0  0  0  0  0  0  0  0  0  0  0
  182.7150  177.8800  137.0440 C   0  0  0  0  0  3  0  0  0  0  0  0
  180.9110  179.2700  136.3370 F   0  0  0  0  0  0  0  0  0  0  0  0
  182.1250  179.8640  138.3020 C   0  0  0  0  0  3  0  0  0  0  0  0
  181.9060  179.0080  137.2180 C   0  0  0  0  0  0  0  0  0  0  0  0
  183.1510  179.5940  139.2120 C   0  0  0  0  0  3  0  0  0  0  0  0
  189.6470  176.1980  139.5030 O   0  0  0  0  0  1  0  0  0  0  0  0
  188.7630  177.1470  138.9840 C   0  0  1  0  0  3  0  0  0  0  0  0
  188.8550  178.4210  139.8090 C   0  0  0  0  0  2  0  0  0  0  0  0
  187.8170  178.4020  140.9130 C   0  0  0  0  0  1  0  0  0  0  0  0
  191.0940  176.6270  136.2840 C   0  0  0  0  0  2  0  0  0  0  0  0
  192.1640  176.0850  137.2150 C   0  0  2  0  0  3  0  0  0  0  0  0
  192.3360  176.9430  138.2860 F   0  0  0  0  0  0  0  0  0  0  0  0
  193.4710  175.9710  136.4580 C   0  0  0  0  0  1  0  0  0  0  0  0
  189.9150  172.2900  134.7960 C   0  0  0  0  0  2  0  0  0  0  0  0
  191.1800  171.7800  135.0880 O   0  0  0  0  0  0  0  0  0  0  0  0
  192.4430  169.9340  134.6610 O   0  0  0  0  0  1  0  0  0  0  0  0
  191.1720  170.4960  134.5460 C   0  0  0  0  0  2  0  0  0  0  0  0
  1  4  1  1  0  0  0
  1 13  1  0  0  0  0
  3  1  1  0  0  0  0
  3  7  1  1  0  0  0
  5 14  1  0  0  0  0
  5  3  1  0  0  0  0
  6  4  1  0  0  0  0
  6  2  1  1  0  0  0
  6 15  1  0  0  0  0
  7 10  1  0  0  0  0
  8  5  1  0  0  0  0
 10 13  1  0  0  0  0
 11  8  2  0  0  0  0
 12  2  1  0  0  0  0
 12 16  1  0  0  0  0
 13  9  1  6  0  0  0
 14 17  1  0  0  0  0
 15 20  1  6  0  0  0
 16 27  1  1  0  0  0
 17 30  1  6  0  0  0
 17 16  1  0  0  0  0
 18  9  1  0  0  0  0
 18 15  1  0  0  0  0
 19 25  1  0  0  0  0
 20 19  2  0  0  0  0
 21 24  2  0  0  0  0
 21 20  1  0  0  0  0
 22 24  1  0  0  0  0
 23 25  2  0  0  0  0
 24 23  1  0  0  0  0
 27 26  1  1  0  0  0
 27 28  1  0  0  0  0
 28 29  1  0  0  0  0
 30 31  1  0  0  0  0
 31 33  1  6  0  0  0
 31 32  1  0  0  0  0
 34  8  1  0  0  0  0
 34 35  1  0  0  0  0
 37 36  1  0  0  0  0
 37 35  1  0  0  0  0
M  END
>  <MODEL>
6

>  <REMARK>
 VINA RESULT:      -5.1      3.053      4.715
  Name = 
  8 active torsions:
  status: ('A' for Active; 'I' for Inactive)
    1  A    between atoms: C_1  and  C_5
    2  A    between atoms: C_1  and  C_36
    3  A    between atoms: O_3  and  C_30
    4  A    between atoms: O_3  and  C_32
    5  A    between atoms: C_6  and  C_31
    6  A    between atoms: C_11  and  C_26
    7  A    between atoms: C_20  and  C_30
    8  A    between atoms: C_26  and  C_33
                            x       y       z     vdW  Elec       q    Type
                         _______ _______ _______ _____ _____    ______ ____

>  <TORSDO>
F 8

$$$$
=
 OpenBabel10272414533D

 37 40  0  0  1  0  0  0  0  0999 V2000
  185.4790  178.4950  138.4650 C   0  0  2  0  0  3  0  0  0  0  0  0
  186.0730  176.0280  135.9760 C   0  0  0  0  0  2  0  0  0  0  0  0
  184.1600  179.1460  138.8010 C   0  0  1  0  0  3  0  0  0  0  0  0
  185.3480  177.2550  137.8640 O   0  0  0  0  0  0  0  0  0  0  0  0
  182.9890  178.7540  137.9850 N   0  0  0  0  0  0  0  0  0  0  0  0
  186.4320  177.1220  136.9890 C   0  0  1  0  0  3  0  0  0  0  0  0
  184.0270  178.8860  140.2870 C   0  0  0  0  0  2  0  0  0  0  0  0
  181.7600  179.4940  138.1520 C   0  0  0  0  0  0  0  0  0  0  0  0
  187.5670  178.3940  139.8570 C   0  0  0  0  0  2  0  0  0  0  0  0
  185.3370  178.8700  140.8020 O   0  0  0  0  0  0  0  0  0  0  0  0
  180.8870  179.4790  137.2450 O   0  0  0  0  0  0  0  0  0  0  0  0
  184.6430  176.1650  135.4240 C   0  0  0  0  0  2  0  0  0  0  0  0
  186.0570  178.1820  139.8170 C   0  0  1  0  0  3  0  0  0  0  0  0
  183.1720  178.0800  136.8080 O   0  0  0  0  0  0  0  0  0  0  0  0
  187.7350  176.7960  137.7840 C   0  0  2  0  0  3  0  0  0  0  0  0
  183.5270  175.6800  136.3850 C   0  0  2  0  0  3  0  0  0  0  0  0
  182.6270  176.7910  136.9810 C   0  0  2  0  0  3  0  0  0  0  0  0
  188.2780  178.0360  138.5320 C   0  0  0  0  0  2  0  0  0  0  0  0
  189.2920  177.0080  135.8380 C   0  0  0  0  0  3  0  0  0  0  0  0
  188.8210  176.2410  136.9090 C   0  0  0  0  0  0  0  0  0  0  0  0
  189.3700  174.9710  137.1480 C   0  0  0  0  0  3  0  0  0  0  0  0
  190.9110  173.2520  136.5520 F   0  0  0  0  0  0  0  0  0  0  0  0
  190.8500  175.2490  135.2510 C   0  0  0  0  0  3  0  0  0  0  0  0
  190.3830  174.4780  136.3190 C   0  0  0  0  0  0  0  0  0  0  0  0
  190.3050  176.5140  135.0100 C   0  0  0  0  0  3  0  0  0  0  0  0
  183.2680  174.7760  138.6170 O   0  0  0  0  0  1  0  0  0  0  0  0
  183.9670  174.6260  137.4170 C   0  0  1  0  0  3  0  0  0  0  0  0
  183.7330  173.2270  136.8710 C   0  0  0  0  0  2  0  0  0  0  0  0
  185.0150  172.4220  136.9330 C   0  0  0  0  0  1  0  0  0  0  0  0
  181.2640  176.7340  136.3000 C   0  0  0  0  0  2  0  0  0  0  0  0
  180.1980  176.1770  137.2270 C   0  0  2  0  0  3  0  0  0  0  0  0
  180.6030  176.3050  138.5430 F   0  0  0  0  0  0  0  0  0  0  0  0
  179.9850  174.7110  136.9150 C   0  0  0  0  0  1  0  0  0  0  0  0
  181.5080  180.3380  139.3600 C   0  0  0  0  0  2  0  0  0  0  0  0
  180.2670  180.0140  139.9080 O   0  0  0  0  0  0  0  0  0  0  0  0
  180.4880  178.1250  141.1620 O   0  0  0  0  0  1  0  0  0  0  0  0
  180.5650  179.5170  141.1760 C   0  0  0  0  0  2  0  0  0  0  0  0
  1  4  1  6  0  0  0
  1  3  1  0  0  0  0
  1 13  1  0  0  0  0
  3  7  1  1  0  0  0
  5  8  1  0  0  0  0
  5  3  1  0  0  0  0
  6  2  1  6  0  0  0
  6 15  1  0  0  0  0
  6  4  1  0  0  0  0
  7 10  1  0  0  0  0
  8 34  1  0  0  0  0
 11  8  2  0  0  0  0
 12  2  1  0  0  0  0
 12 16  1  0  0  0  0
 13  9  1  6  0  0  0
 13 10  1  0  0  0  0
 14 17  1  0  0  0  0
 14  5  1  0  0  0  0
 15 20  1  6  0  0  0
 15 18  1  0  0  0  0
 16 17  1  0  0  0  0
 16 27  1  1  0  0  0
 17 30  1  6  0  0  0
 18  9  1  0  0  0  0
 19 20  1  0  0  0  0
 20 21  2  0  0  0  0
 23 24  2  0  0  0  0
 24 22  1  0  0  0  0
 24 21  1  0  0  0  0
 25 23  1  0  0  0  0
 25 19  2  0  0  0  0
 27 26  1  1  0  0  0
 28 29  1  0  0  0  0
 28 27  1  0  0  0  0
 30 31  1  0  0  0  0
 31 33  1  6  0  0  0
 31 32  1  0  0  0  0
 34 35  1  0  0  0  0
 35 37  1  0  0  0  0
 36 37  1  0  0  0  0
M  END
>  <MODEL>
7

>  <REMARK>
 VINA RESULT:      -5.0      4.518      9.295
  Name = 
  8 active torsions:
  status: ('A' for Active; 'I' for Inactive)
    1  A    between atoms: C_1  and  C_5
    2  A    between atoms: C_1  and  C_36
    3  A    between atoms: O_3  and  C_30
    4  A    between atoms: O_3  and  C_32
    5  A    between atoms: C_6  and  C_31
    6  A    between atoms: C_11  and  C_26
    7  A    between atoms: C_20  and  C_30
    8  A    between atoms: C_26  and  C_33
                            x       y       z     vdW  Elec       q    Type
                         _______ _______ _______ _____ _____    ______ ____

>  <TORSDO>
F 8

$$$$
=
 OpenBabel10272414533D

 37 40  0  0  1  0  0  0  0  0999 V2000
  189.6500  177.5330  139.0140 C   0  0  2  0  0  3  0  0  0  0  0  0
  189.9540  176.0310  135.8070 C   0  0  0  0  0  2  0  0  0  0  0  0
  188.3980  178.1030  139.6340 C   0  0  1  0  0  3  0  0  0  0  0  0
  189.4030  176.5810  138.0400 O   0  0  0  0  0  0  0  0  0  0  0  0
  187.1680  178.0770  138.8120 N   0  0  0  0  0  0  0  0  0  0  0  0
  190.4350  176.6940  137.1030 C   0  0  1  0  0  3  0  0  0  0  0  0
  188.3110  177.3620  140.9510 C   0  0  0  0  0  2  0  0  0  0  0  0
  186.0040  178.7810  139.2980 C   0  0  0  0  0  0  0  0  0  0  0  0
  191.7830  176.8520  140.1510 C   0  0  0  0  0  2  0  0  0  0  0  0
  189.6360  177.1000  141.3450 O   0  0  0  0  0  0  0  0  0  0  0  0
  185.0940  179.1230  138.4970 O   0  0  0  0  0  0  0  0  0  0  0  0
  188.5160  176.4250  135.4280 C   0  0  0  0  0  2  0  0  0  0  0  0
  190.2610  176.7490  140.1410 C   0  0  1  0  0  3  0  0  0  0  0  0
  187.2500  177.8330  137.4680 O   0  0  0  0  0  0  0  0  0  0  0  0
  191.7440  176.0470  137.6550 C   0  0  2  0  0  3  0  0  0  0  0  0
  187.4090  175.7040  136.2400 C   0  0  2  0  0  3  0  0  0  0  0  0
  186.6200  176.5940  137.2320 C   0  0  2  0  0  3  0  0  0  0  0  0
  192.4080  176.9280  138.7390 C   0  0  0  0  0  2  0  0  0  0  0  0
  193.6000  176.7890  136.1520 C   0  0  0  0  0  3  0  0  0  0  0  0
  192.7480  175.7640  136.5760 C   0  0  0  0  0  0  0  0  0  0  0  0
  192.8460  174.4920  135.9880 C   0  0  0  0  0  3  0  0  0  0  0  0
  193.8840  173.0260  134.4210 F   0  0  0  0  0  0  0  0  0  0  0  0
  194.6410  175.2820  134.5670 C   0  0  0  0  0  3  0  0  0  0  0  0
  193.7920  174.2540  134.9860 C   0  0  0  0  0  0  0  0  0  0  0  0
  194.5450  176.5500  135.1500 C   0  0  0  0  0  3  0  0  0  0  0  0
  186.7790  173.7930  137.5870 O   0  0  0  0  0  1  0  0  0  0  0  0
  187.8150  174.3400  136.8270 C   0  0  1  0  0  3  0  0  0  0  0  0
  188.1800  173.3760  135.7100 C   0  0  0  0  0  2  0  0  0  0  0  0
  189.3640  172.5240  136.1230 C   0  0  0  0  0  1  0  0  0  0  0  0
  185.2280  176.8460  136.6630 C   0  0  0  0  0  2  0  0  0  0  0  0
  184.2090  175.8690  137.2210 C   0  0  2  0  0  3  0  0  0  0  0  0
  184.0880  174.7800  136.3770 F   0  0  0  0  0  0  0  0  0  0  0  0
  182.8660  176.5600  137.3310 C   0  0  0  0  0  1  0  0  0  0  0  0
  185.8670  179.1770  140.7330 C   0  0  0  0  0  2  0  0  0  0  0  0
  184.8160  178.4700  141.3160 O   0  0  0  0  0  0  0  0  0  0  0  0
  183.9730  178.3820  143.4310 O   0  0  0  0  0  1  0  0  0  0  0  0
  185.1420  178.4150  142.6710 C   0  0  0  0  0  2  0  0  0  0  0  0
  1  4  1  6  0  0  0
  1  3  1  0  0  0  0
  1 13  1  0  0  0  0
  3  7  1  1  0  0  0
  5  8  1  0  0  0  0
  5  3  1  0  0  0  0
  6  2  1  6  0  0  0
  6 15  1  0  0  0  0
  6  4  1  0  0  0  0
  7 10  1  0  0  0  0
  8 34  1  0  0  0  0
 11  8  2  0  0  0  0
 12  2  1  0  0  0  0
 12 16  1  0  0  0  0
 13  9  1  1  0  0  0
 13 10  1  0  0  0  0
 14  5  1  0  0  0  0
 15 20  1  6  0  0  0
 15 18  1  0  0  0  0
 16 27  1  1  0  0  0
 16 17  1  0  0  0  0
 17 30  1  6  0  0  0
 17 14  1  0  0  0  0
 18  9  1  0  0  0  0
 19 20  1  0  0  0  0
 21 20  2  0  0  0  0
 22 24  1  0  0  0  0
 23 24  2  0  0  0  0
 23 25  1  0  0  0  0
 24 21  1  0  0  0  0
 25 19  2  0  0  0  0
 27 26  1  6  0  0  0
 28 29  1  0  0  0  0
 28 27  1  0  0  0  0
 30 31  1  0  0  0  0
 31 33  1  6  0  0  0
 32 31  1  0  0  0  0
 34 35  1  0  0  0  0
 35 37  1  0  0  0  0
 37 36  1  0  0  0  0
M  END
>  <MODEL>
8

>  <REMARK>
 VINA RESULT:      -4.9      3.396      8.575
  Name = 
  8 active torsions:
  status: ('A' for Active; 'I' for Inactive)
    1  A    between atoms: C_1  and  C_5
    2  A    between atoms: C_1  and  C_36
    3  A    between atoms: O_3  and  C_30
    4  A    between atoms: O_3  and  C_32
    5  A    between atoms: C_6  and  C_31
    6  A    between atoms: C_11  and  C_26
    7  A    between atoms: C_20  and  C_30
    8  A    between atoms: C_26  and  C_33
                            x       y       z     vdW  Elec       q    Type
                         _______ _______ _______ _____ _____    ______ ____

>  <TORSDO>
F 8

$$$$
=
 OpenBabel10272414533D

 37 40  0  0  1  0  0  0  0  0999 V2000
  187.0270  177.6880  141.2630 C   0  0  2  0  0  3  0  0  0  0  0  0
  190.2160  176.1440  141.5520 C   0  0  0  0  0  2  0  0  0  0  0  0
  186.1010  178.0760  142.3880 C   0  0  1  0  0  3  0  0  0  0  0  0
  188.3550  177.6020  141.6410 O   0  0  0  0  0  0  0  0  0  0  0  0
  186.5380  177.7450  143.7630 N   0  0  0  0  0  0  0  0  0  0  0  0
  188.9300  176.6010  140.8520 C   0  0  1  0  0  3  0  0  0  0  0  0
  185.8530  179.5460  142.1250 C   0  0  0  0  0  2  0  0  0  0  0  0
  185.5970  177.9290  144.8440 C   0  0  0  0  0  0  0  0  0  0  0  0
  187.0150  178.4970  138.8840 C   0  0  0  0  0  2  0  0  0  0  0  0
  185.9150  179.7130  140.7290 O   0  0  0  0  0  0  0  0  0  0  0  0
  185.7580  177.3150  145.9310 O   0  0  0  0  0  0  0  0  0  0  0  0
  190.0340  175.9310  143.0650 C   0  0  0  0  0  2  0  0  0  0  0  0
  186.9850  178.8880  140.3580 C   0  0  1  0  0  3  0  0  0  0  0  0
  187.5700  176.8690  143.9590 O   0  0  0  0  0  0  0  0  0  0  0  0
  189.1920  177.1290  139.4070 C   0  0  2  0  0  3  0  0  0  0  0  0
  190.0050  177.2340  143.9050 C   0  0  2  0  0  3  0  0  0  0  0  0
  188.6340  177.6000  144.5260 C   0  0  2  0  0  3  0  0  0  0  0  0
  187.8830  177.2500  138.5920 C   0  0  0  0  0  2  0  0  0  0  0  0
  189.6740  175.2060  137.8820 C   0  0  0  0  0  3  0  0  0  0  0  0
  190.1610  176.2730  138.6450 C   0  0  0  0  0  0  0  0  0  0  0  0
  191.5420  176.5240  138.6860 C   0  0  0  0  0  3  0  0  0  0  0  0
  193.7550  175.9570  138.0060 F   0  0  0  0  0  0  0  0  0  0  0  0
  191.9310  174.6490  137.2040 C   0  0  0  0  0  3  0  0  0  0  0  0
  192.4240  175.7120  137.9650 C   0  0  0  0  0  0  0  0  0  0  0  0
  190.5560  174.3950  137.1620 C   0  0  0  0  0  3  0  0  0  0  0  0
  189.8760  179.5270  143.1360 O   0  0  0  0  0  1  0  0  0  0  0  0
  190.7350  178.4330  143.2740 C   0  0  1  0  0  3  0  0  0  0  0  0
  191.9240  178.8350  144.1320 C   0  0  0  0  0  2  0  0  0  0  0  0
  191.6850  180.1980  144.7490 C   0  0  0  0  0  1  0  0  0  0  0  0
  188.6840  177.3220  146.0240 C   0  0  0  0  0  2  0  0  0  0  0  0
  190.1080  177.3450  146.5510 C   0  0  2  0  0  3  0  0  0  0  0  0
  190.6400  176.0690  146.5270 F   0  0  0  0  0  0  0  0  0  0  0  0
  190.1020  177.8520  147.9780 C   0  0  0  0  0  1  0  0  0  0  0  0
  184.3850  178.7920  144.6930 C   0  0  0  0  0  2  0  0  0  0  0  0
  183.3690  178.0680  144.0700 O   0  0  0  0  0  0  0  0  0  0  0  0
  182.2120  178.8330  142.2630 O   0  0  0  0  0  1  0  0  0  0  0  0
  182.4760  179.0380  143.6170 C   0  0  0  0  0  2  0  0  0  0  0  0
  1  4  1  1  0  0  0
  1  3  1  0  0  0  0
  2 12  1  0  0  0  0
  3  7  1  1  0  0  0
  3  5  1  0  0  0  0
  5 14  1  0  0  0  0
  5  8  1  0  0  0  0
  6  2  1  1  0  0  0
  6  4  1  0  0  0  0
  8 11  2  0  0  0  0
 10  7  1  0  0  0  0
 12 16  1  0  0  0  0
 13  9  1  6  0  0  0
 13 10  1  0  0  0  0
 13  1  1  0  0  0  0
 14 17  1  0  0  0  0
 15 20  1  6  0  0  0
 15  6  1  0  0  0  0
 16 27  1  6  0  0  0
 16 17  1  0  0  0  0
 17 30  1  1  0  0  0
 18  9  1  0  0  0  0
 18 15  1  0  0  0  0
 19 20  1  0  0  0  0
 20 21  2  0  0  0  0
 23 24  2  0  0  0  0
 24 22  1  0  0  0  0
 24 21  1  0  0  0  0
 25 23  1  0  0  0  0
 25 19  2  0  0  0  0
 27 26  1  1  0  0  0
 27 28  1  0  0  0  0
 28 29  1  0  0  0  0
 30 31  1  0  0  0  0
 31 33  1  1  0  0  0
 32 31  1  0  0  0  0
 34  8  1  0  0  0  0
 35 34  1  0  0  0  0
 36 37  1  0  0  0  0
 37 35  1  0  0  0  0
M  END
>  <MODEL>
9

>  <REMARK>
 VINA RESULT:      -4.8      3.628      7.305
  Name = 
  8 active torsions:
  status: ('A' for Active; 'I' for Inactive)
    1  A    between atoms: C_1  and  C_5
    2  A    between atoms: C_1  and  C_36
    3  A    between atoms: O_3  and  C_30
    4  A    between atoms: O_3  and  C_32
    5  A    between atoms: C_6  and  C_31
    6  A    between atoms: C_11  and  C_26
    7  A    between atoms: C_20  and  C_30
    8  A    between atoms: C_26  and  C_33
                            x       y       z     vdW  Elec       q    Type
                         _______ _______ _______ _____ _____    ______ ____

>  <TORSDO>
F 8

$$$$
