=
 OpenBabel10272414593D

 37 45  0  0  1  0  0  0  0  0999 V2000
  184.7480  174.6030  136.1230 O   0  0  0  0  0  0  0  0  0  0  0  0
  181.3340  175.2270  134.3460 C   0  0  0  0  0  2  0  0  0  0  0  0
  181.9170  176.6330  139.3640 C   0  0  2  0  0  3  0  0  0  0  0  0
  185.9490  173.8650  136.0880 C   0  0  0  0  0  0  0  0  0  0  0  0
  185.2630  178.3460  138.1170 C   0  0  0  0  0  2  0  0  0  0  0  0
  180.3240  177.2380  135.5890 C   0  0  0  0  0  2  0  0  0  0  0  0
  183.3320  176.8220  138.8120 C   0  0  2  0  0  3  0  0  0  0  0  0
  186.0380  172.8500  134.9770 C   0  0  0  0  0  2  0  0  0  0  0  0
  181.5230  175.2310  138.9290 C   0  0  0  0  0  2  0  0  0  0  0  0
  183.8110  178.2760  138.6130 C   0  0  1  0  0  3  0  0  0  0  0  0
  180.6100  178.1030  136.6550 O   0  0  0  0  0  0  0  0  0  0  0  0
  187.1790  174.4860  136.4340 O   0  0  0  0  0  0  0  0  0  0  0  0
  182.2700  174.9440  137.6270 C   0  0  1  0  0  3  0  0  0  0  0  0
  181.2870  175.1430  136.4780 C   0  0  1  0  0  0  0  0  0  0  0  0
  181.1970  179.1770  139.3070 C   0  0  0  0  0  2  0  0  0  0  0  0
  185.8350  172.3980  136.4210 C   0  0  0  0  0  2  0  0  0  0  0  0
  179.9830  177.5440  137.7770 C   0  0  0  0  0  2  0  0  0  0  0  0
  180.1730  174.1320  136.2710 C   0  0  0  0  0  2  0  0  0  0  0  0
  187.0480  175.8940  136.3890 C   0  0  2  0  0  3  0  0  0  0  0  0
  185.4300  177.6540  136.9130 O   0  0  0  0  0  0  0  0  0  0  0  0
  180.8330  177.7120  139.0440 C   0  0  1  0  0  3  0  0  0  0  0  0
  183.3890  175.9850  137.5430 C   0  0  2  0  0  3  0  0  0  0  0  0
  181.4630  176.2460  135.4580 C   0  0  1  0  0  3  0  0  0  0  0  0
  183.6640  179.1490  139.8820 C   0  0  1  0  0  3  0  0  0  0  0  0
  181.3880  174.1020  135.3760 C   0  0  1  0  0  3  0  0  0  0  0  0
  185.8950  176.3840  137.2900 C   0  0  1  0  0  3  0  0  0  0  0  0
  184.7570  175.3420  137.3180 C   0  0  2  0  0  3  0  0  0  0  0  0
  182.2340  179.3110  140.4110 C   0  0  0  0  0  2  0  0  0  0  0  0
  184.1280  178.3230  142.2320 C   0  0  0  0  0  3  0  0  0  0  0  0
  184.6060  178.7830  140.9950 C   0  0  0  0  0  0  0  0  0  0  0  0
  185.9850  178.8990  140.7880 C   0  0  0  0  0  3  0  0  0  0  0  0
  188.2140  178.6710  141.6010 F   0  0  0  0  0  0  0  0  0  0  0  0
  186.3990  178.0990  143.0360 C   0  0  0  0  0  3  0  0  0  0  0  0
  186.8810  178.5570  141.8060 C   0  0  0  0  0  0  0  0  0  0  0  0
  185.0230  177.9810  143.2490 C   0  0  0  0  0  3  0  0  0  0  0  0
  186.9830  176.3940  134.9430 C   0  0  0  0  0  2  0  0  0  0  0  0
  188.1600  177.3040  134.6490 C   0  0  0  0  0  1  0  0  0  0  0  0
  1 27  1  0  0  0  0
  2 25  1  0  0  0  0
  2 23  1  0  0  0  0
  3  9  1  6  0  0  0
  4  1  1  0  0  0  0
  4 16  1  0  0  0  0
  4 12  1  0  0  0  0
  5 10  1  0  0  0  0
  6 11  1  0  0  0  0
  7  3  1  0  0  0  0
  8  4  1  0  0  0  0
  8 16  1  0  0  0  0
 10  7  1  0  0  0  0
 10 24  1  0  0  0  0
 11 17  1  0  0  0  0
 13  9  1  0  0  0  0
 14 13  1  0  0  0  0
 15 28  1  0  0  0  0
 17 21  1  0  0  0  0
 18 14  1  0  0  0  0
 19 12  1  0  0  0  0
 19 26  1  0  0  0  0
 20 26  1  0  0  0  0
 20  5  1  0  0  0  0
 21 15  1  0  0  0  0
 21  3  1  0  0  0  0
 22 13  1  0  0  0  0
 22  7  1  0  0  0  0
 23  6  1  0  0  0  0
 23 14  1  0  0  0  0
 24 28  1  0  0  0  0
 24 30  1  0  0  0  0
 25 18  1  0  0  0  0
 25 14  1  0  0  0  0
 26 27  1  0  0  0  0
 27 22  1  0  0  0  0
 29 35  1  0  0  0  0
 30 29  2  0  0  0  0
 31 30  1  0  0  0  0
 31 34  2  0  0  0  0
 32 34  1  0  0  0  0
 33 35  2  0  0  0  0
 34 33  1  0  0  0  0
 36 19  1  0  0  0  0
 37 36  1  0  0  0  0
M  END
>  <MODEL>
1

>  <REMARK>
 VINA RESULT:      -6.6      0.000      0.000
  Name = 
  2 active torsions:
  status: ('A' for Active; 'I' for Inactive)
    1  A    between atoms: C_6  and  C_31
    2  A    between atoms: C_11  and  C_26
                            x       y       z     vdW  Elec       q    Type
                         _______ _______ _______ _____ _____    ______ ____

>  <TORSDO>
F 2

$$$$
=
 OpenBabel10272414593D

 37 45  0  0  1  0  0  0  0  0999 V2000
  185.3690  176.0320  136.7800 O   0  0  0  0  0  0  0  0  0  0  0  0
  182.0730  176.4510  134.7400 C   0  0  0  0  0  2  0  0  0  0  0  0
  181.9090  176.7140  139.9740 C   0  0  2  0  0  3  0  0  0  0  0  0
  186.6920  175.5450  136.7480 C   0  0  0  0  0  0  0  0  0  0  0  0
  184.9420  179.2300  139.5800 C   0  0  0  0  0  2  0  0  0  0  0  0
  180.5730  177.9040  136.2380 C   0  0  0  0  0  2  0  0  0  0  0  0
  183.3000  177.2720  139.6690 C   0  0  2  0  0  3  0  0  0  0  0  0
  187.0820  174.8530  135.4670 C   0  0  0  0  0  2  0  0  0  0  0  0
  181.8450  175.4070  139.2000 C   0  0  0  0  0  2  0  0  0  0  0  0
  183.4950  178.7920  139.8520 C   0  0  1  0  0  3  0  0  0  0  0  0
  180.5820  178.5290  137.4940 O   0  0  0  0  0  0  0  0  0  0  0  0
  187.7360  176.2710  137.3800 O   0  0  0  0  0  0  0  0  0  0  0  0
  182.7480  175.5710  137.9790 C   0  0  1  0  0  3  0  0  0  0  0  0
  181.8520  175.8600  136.7780 C   0  0  1  0  0  0  0  0  0  0  0  0
  180.7020  179.0330  140.3690 C   0  0  0  0  0  2  0  0  0  0  0  0
  186.8440  174.0440  136.7400 C   0  0  0  0  0  2  0  0  0  0  0  0
  179.9820  177.6210  138.3760 C   0  0  0  0  0  2  0  0  0  0  0  0
  180.9870  174.7480  136.2120 C   0  0  0  0  0  2  0  0  0  0  0  0
  187.3300  177.6060  137.6200 C   0  0  2  0  0  3  0  0  0  0  0  0
  185.3520  178.8810  138.2890 O   0  0  0  0  0  0  0  0  0  0  0  0
  180.6630  177.6310  139.7510 C   0  0  1  0  0  3  0  0  0  0  0  0
  183.6380  176.7810  138.2690 C   0  0  2  0  0  3  0  0  0  0  0  0
  181.8950  177.1860  136.0510 C   0  0  1  0  0  3  0  0  0  0  0  0
  183.0620  179.3020  141.2480 C   0  0  1  0  0  3  0  0  0  0  0  0
  182.2590  175.1430  135.5020 C   0  0  1  0  0  3  0  0  0  0  0  0
  186.0250  177.6600  138.4440 C   0  0  1  0  0  3  0  0  0  0  0  0
  185.1230  176.4590  138.0960 C   0  0  2  0  0  3  0  0  0  0  0  0
  181.5870  179.0810  141.6040 C   0  0  0  0  0  2  0  0  0  0  0  0
  185.2500  178.3740  142.1240 C   0  0  0  0  0  3  0  0  0  0  0  0
  183.9540  178.8530  142.3710 C   0  0  0  0  0  0  0  0  0  0  0  0
  183.4830  178.9210  143.6870 C   0  0  0  0  0  3  0  0  0  0  0  0
  183.8370  178.5840  146.0200 F   0  0  0  0  0  0  0  0  0  0  0  0
  185.5880  178.0400  144.4970 C   0  0  0  0  0  3  0  0  0  0  0  0
  184.2970  178.5160  144.7480 C   0  0  0  0  0  0  0  0  0  0  0  0
  186.0640  177.9690  143.1850 C   0  0  0  0  0  3  0  0  0  0  0  0
  187.2970  178.4130  136.3200 C   0  0  0  0  0  2  0  0  0  0  0  0
  188.6140  178.2750  135.5820 C   0  0  0  0  0  1  0  0  0  0  0  0
  1 27  1  0  0  0  0
  2 25  1  0  0  0  0
  2 23  1  0  0  0  0
  3  9  1  6  0  0  0
  4  1  1  0  0  0  0
  4 12  1  0  0  0  0
  5 10  1  0  0  0  0
  6 11  1  0  0  0  0
  7 10  1  0  0  0  0
  7  3  1  0  0  0  0
  8 16  1  0  0  0  0
  8  4  1  0  0  0  0
 10 24  1  0  0  0  0
 11 17  1  0  0  0  0
 12 19  1  0  0  0  0
 13 22  1  0  0  0  0
 13  9  1  0  0  0  0
 14 13  1  0  0  0  0
 15 28  1  0  0  0  0
 16  4  1  0  0  0  0
 17 21  1  0  0  0  0
 18 14  1  0  0  0  0
 19 26  1  0  0  0  0
 20 26  1  0  0  0  0
 20  5  1  0  0  0  0
 21  3  1  0  0  0  0
 21 15  1  0  0  0  0
 22  7  1  0  0  0  0
 23  6  1  0  0  0  0
 23 14  1  0  0  0  0
 24 28  1  0  0  0  0
 24 30  1  0  0  0  0
 25 18  1  0  0  0  0
 25 14  1  0  0  0  0
 27 22  1  0  0  0  0
 27 26  1  0  0  0  0
 29 30  2  0  0  0  0
 29 35  1  0  0  0  0
 30 31  1  0  0  0  0
 31 34  2  0  0  0  0
 33 34  1  0  0  0  0
 34 32  1  0  0  0  0
 35 33  2  0  0  0  0
 36 19  1  0  0  0  0
 37 36  1  0  0  0  0
M  END
>  <MODEL>
2

>  <REMARK>
 VINA RESULT:      -6.5      1.585      1.956
  Name = 
  2 active torsions:
  status: ('A' for Active; 'I' for Inactive)
    1  A    between atoms: C_6  and  C_31
    2  A    between atoms: C_11  and  C_26
                            x       y       z     vdW  Elec       q    Type
                         _______ _______ _______ _____ _____    ______ ____

>  <TORSDO>
F 2

$$$$
=
 OpenBabel10272414593D

 37 45  0  0  1  0  0  0  0  0999 V2000
  188.0940  176.5710  138.1230 O   0  0  0  0  0  0  0  0  0  0  0  0
  185.8240  173.4250  137.7370 C   0  0  0  0  0  2  0  0  0  0  0  0
  190.0460  173.9430  134.6710 C   0  0  2  0  0  3  0  0  0  0  0  0
  188.1590  177.8960  138.6030 C   0  0  0  0  0  0  0  0  0  0  0  0
  191.9530  174.7400  138.0490 C   0  0  0  0  0  2  0  0  0  0  0  0
  187.4010  171.6050  136.8370 C   0  0  0  0  0  2  0  0  0  0  0  0
  190.4930  174.6490  135.9520 C   0  0  2  0  0  3  0  0  0  0  0  0
  186.8730  178.4220  139.1890 C   0  0  0  0  0  2  0  0  0  0  0  0
  188.6970  174.5620  134.3460 C   0  0  0  0  0  2  0  0  0  0  0  0
  191.5310  173.9130  136.8260 C   0  0  1  0  0  3  0  0  0  0  0  0
  188.7380  171.4290  136.4520 O   0  0  0  0  0  0  0  0  0  0  0  0
  189.3420  178.3730  139.2280 O   0  0  0  0  0  0  0  0  0  0  0  0
  188.0700  174.9820  135.6750 C   0  0  1  0  0  3  0  0  0  0  0  0
  187.0420  173.9220  136.0560 C   0  0  1  0  0  0  0  0  0  0  0  0
  191.3130  171.6610  135.0910 C   0  0  0  0  0  2  0  0  0  0  0  0
  187.3640  178.9190  137.8310 C   0  0  0  0  0  2  0  0  0  0  0  0
  188.7670  171.6420  135.0670 C   0  0  0  0  0  2  0  0  0  0  0  0
  185.7460  173.8280  135.2700 C   0  0  0  0  0  2  0  0  0  0  0  0
  190.1600  177.2870  139.6240 C   0  0  2  0  0  3  0  0  0  0  0  0
  190.8540  175.0720  138.8500 O   0  0  0  0  0  0  0  0  0  0  0  0
  190.0400  172.3810  134.6330 C   0  0  1  0  0  3  0  0  0  0  0  0
  189.2110  174.9940  136.6950 C   0  0  2  0  0  3  0  0  0  0  0  0
  187.2150  173.0450  137.2760 C   0  0  1  0  0  3  0  0  0  0  0  0
  192.7950  173.4810  136.0430 C   0  0  1  0  0  3  0  0  0  0  0  0
  185.7510  174.4760  136.6340 C   0  0  1  0  0  3  0  0  0  0  0  0
  190.4830  176.3600  138.4330 C   0  0  1  0  0  3  0  0  0  0  0  0
  189.2990  176.3240  137.4450 C   0  0  2  0  0  3  0  0  0  0  0  0
  192.5530  172.5140  134.8780 C   0  0  0  0  0  2  0  0  0  0  0  0
  193.2060  175.6100  134.7330 C   0  0  0  0  0  3  0  0  0  0  0  0
  193.6730  174.6230  135.6140 C   0  0  0  0  0  0  0  0  0  0  0  0
  194.9800  174.7020  136.1080 C   0  0  0  0  0  3  0  0  0  0  0  0
  197.0770  175.8310  136.2110 F   0  0  0  0  0  0  0  0  0  0  0  0
  195.3430  176.7400  134.8530 C   0  0  0  0  0  3  0  0  0  0  0  0
  195.8140  175.7580  135.7290 C   0  0  0  0  0  0  0  0  0  0  0  0
  194.0390  176.6660  134.3550 C   0  0  0  0  0  3  0  0  0  0  0  0
  189.5740  176.5740  140.8450 C   0  0  0  0  0  2  0  0  0  0  0  0
  189.8400  177.3800  142.1020 C   0  0  0  0  0  1  0  0  0  0  0  0
  1  4  1  0  0  0  0
  3  9  1  1  0  0  0
  3  7  1  0  0  0  0
  4  8  1  0  0  0  0
  4 12  1  0  0  0  0
  5 20  1  0  0  0  0
  6 23  1  0  0  0  0
  7 22  1  0  0  0  0
  7 10  1  0  0  0  0
  9 13  1  0  0  0  0
 10  5  1  0  0  0  0
 11  6  1  0  0  0  0
 12 19  1  0  0  0  0
 13 14  1  0  0  0  0
 13 22  1  0  0  0  0
 14 25  1  0  0  0  0
 14 23  1  0  0  0  0
 16  4  1  0  0  0  0
 16  8  1  0  0  0  0
 17 11  1  0  0  0  0
 18 14  1  0  0  0  0
 18 25  1  0  0  0  0
 19 36  1  0  0  0  0
 21  3  1  0  0  0  0
 21 17  1  0  0  0  0
 21 15  1  0  0  0  0
 22 27  1  0  0  0  0
 23  2  1  0  0  0  0
 24 10  1  0  0  0  0
 25  2  1  0  0  0  0
 26 20  1  0  0  0  0
 26 19  1  0  0  0  0
 27  1  1  0  0  0  0
 27 26  1  0  0  0  0
 28 15  1  0  0  0  0
 28 24  1  0  0  0  0
 29 30  1  0  0  0  0
 30 24  1  0  0  0  0
 30 31  2  0  0  0  0
 33 34  2  0  0  0  0
 34 31  1  0  0  0  0
 34 32  1  0  0  0  0
 35 29  2  0  0  0  0
 35 33  1  0  0  0  0
 36 37  1  0  0  0  0
M  END
>  <MODEL>
3

>  <REMARK>
 VINA RESULT:      -4.9      4.559      8.811
  Name = 
  2 active torsions:
  status: ('A' for Active; 'I' for Inactive)
    1  A    between atoms: C_6  and  C_31
    2  A    between atoms: C_11  and  C_26
                            x       y       z     vdW  Elec       q    Type
                         _______ _______ _______ _____ _____    ______ ____

>  <TORSDO>
F 2

$$$$
=
 OpenBabel10272414593D

 37 45  0  0  1  0  0  0  0  0999 V2000
  184.8880  177.4810  137.4920 O   0  0  0  0  0  0  0  0  0  0  0  0
  188.3090  179.1090  136.5760 C   0  0  0  0  0  2  0  0  0  0  0  0
  187.9080  173.8840  136.7330 C   0  0  2  0  0  3  0  0  0  0  0  0
  183.6360  177.6930  138.1060 C   0  0  0  0  0  0  0  0  0  0  0  0
  184.6750  174.4280  134.5120 C   0  0  0  0  0  2  0  0  0  0  0  0
  189.4820  177.3540  135.1090 C   0  0  0  0  0  2  0  0  0  0  0  0
  186.5020  174.2990  136.2950 C   0  0  2  0  0  3  0  0  0  0  0  0
  183.4560  179.0560  138.7250 C   0  0  0  0  0  2  0  0  0  0  0  0
  188.1930  174.7370  137.9580 C   0  0  0  0  0  2  0  0  0  0  0  0
  186.1260  174.0300  134.8230 C   0  0  1  0  0  3  0  0  0  0  0  0
  189.2760  176.0650  134.5940 O   0  0  0  0  0  0  0  0  0  0  0  0
  182.4590  177.1300  137.5430 O   0  0  0  0  0  0  0  0  0  0  0  0
  187.4070  176.0360  137.7860 C   0  0  1  0  0  3  0  0  0  0  0  0
  188.3840  177.1070  137.3100 C   0  0  1  0  0  0  0  0  0  0  0  0
  188.8090  173.1930  134.3460 C   0  0  0  0  0  2  0  0  0  0  0  0
  183.6490  177.8250  139.6090 C   0  0  0  0  0  2  0  0  0  0  0  0
  189.8780  175.1900  135.5080 C   0  0  0  0  0  2  0  0  0  0  0  0
  189.4180  177.6520  138.2780 C   0  0  0  0  0  2  0  0  0  0  0  0
  182.6910  176.7510  136.1990 C   0  0  2  0  0  3  0  0  0  0  0  0
  184.4400  175.7780  134.7910 O   0  0  0  0  0  0  0  0  0  0  0  0
  189.0620  173.9010  135.6810 C   0  0  1  0  0  3  0  0  0  0  0  0
  186.3650  175.7600  136.7000 C   0  0  2  0  0  3  0  0  0  0  0  0
  188.2710  177.7370  135.9390 C   0  0  1  0  0  3  0  0  0  0  0  0
  186.3560  172.5620  134.3900 C   0  0  1  0  0  3  0  0  0  0  0  0
  188.1900  178.4680  137.9550 C   0  0  1  0  0  3  0  0  0  0  0  0
  183.8910  175.7870  136.0830 C   0  0  1  0  0  3  0  0  0  0  0  0
  184.9500  176.1180  137.1540 C   0  0  2  0  0  3  0  0  0  0  0  0
  187.8020  172.0620  134.4890 C   0  0  0  0  0  2  0  0  0  0  0  0
  185.4480  170.2160  134.6860 C   0  0  0  0  0  3  0  0  0  0  0  0
  185.4080  171.5800  135.0170 C   0  0  0  0  0  0  0  0  0  0  0  0
  184.4710  172.0350  135.9510 C   0  0  0  0  0  3  0  0  0  0  0  0
  182.6780  171.5850  137.4570 F   0  0  0  0  0  0  0  0  0  0  0  0
  183.6280  169.7820  136.2210 C   0  0  0  0  0  3  0  0  0  0  0  0
  183.5820  171.1390  136.5530 C   0  0  0  0  0  0  0  0  0  0  0  0
  184.5610  169.3200  135.2880 C   0  0  0  0  0  3  0  0  0  0  0  0
  182.7690  177.9780  135.2870 C   0  0  0  0  0  2  0  0  0  0  0  0
  181.3760  178.4810  134.9620 C   0  0  0  0  0  1  0  0  0  0  0  0
  1  4  1  0  0  0  0
  2 25  1  0  0  0  0
  3  9  1  1  0  0  0
  4  8  1  0  0  0  0
  4 16  1  0  0  0  0
  5 20  1  0  0  0  0
  5 10  1  0  0  0  0
  6 23  1  0  0  0  0
  7 22  1  0  0  0  0
  7  3  1  0  0  0  0
  8 16  1  0  0  0  0
 10  7  1  0  0  0  0
 11  6  1  0  0  0  0
 11 17  1  0  0  0  0
 12  4  1  0  0  0  0
 13  9  1  0  0  0  0
 14 13  1  0  0  0  0
 14 25  1  0  0  0  0
 14 18  1  0  0  0  0
 15 28  1  0  0  0  0
 15 21  1  0  0  0  0
 17 21  1  0  0  0  0
 19 12  1  0  0  0  0
 20 26  1  0  0  0  0
 21  3  1  0  0  0  0
 22 27  1  0  0  0  0
 22 13  1  0  0  0  0
 23  2  1  0  0  0  0
 23 14  1  0  0  0  0
 24 28  1  0  0  0  0
 24 10  1  0  0  0  0
 24 30  1  0  0  0  0
 25 18  1  0  0  0  0
 26 19  1  0  0  0  0
 26 27  1  0  0  0  0
 27  1  1  0  0  0  0
 29 30  2  0  0  0  0
 29 35  1  0  0  0  0
 30 31  1  0  0  0  0
 31 34  2  0  0  0  0
 33 34  1  0  0  0  0
 34 32  1  0  0  0  0
 35 33  2  0  0  0  0
 36 19  1  0  0  0  0
 37 36  1  0  0  0  0
M  END
>  <MODEL>
4

>  <REMARK>
 VINA RESULT:      -4.2      2.832      7.827
  Name = 
  2 active torsions:
  status: ('A' for Active; 'I' for Inactive)
    1  A    between atoms: C_6  and  C_31
    2  A    between atoms: C_11  and  C_26
                            x       y       z     vdW  Elec       q    Type
                         _______ _______ _______ _____ _____    ______ ____

>  <TORSDO>
F 2

$$$$
=
 OpenBabel10272414593D

 37 45  0  0  1  0  0  0  0  0999 V2000
  188.6430  175.3050  136.4630 O   0  0  0  0  0  0  0  0  0  0  0  0
  188.2290  171.9300  134.5560 C   0  0  0  0  0  2  0  0  0  0  0  0
  184.4360  173.5310  137.8020 C   0  0  2  0  0  3  0  0  0  0  0  0
  189.5660  176.2750  136.9060 C   0  0  0  0  0  0  0  0  0  0  0  0
  184.7580  176.9850  135.8900 C   0  0  0  0  0  2  0  0  0  0  0  0
  185.6860  171.6210  134.3460 C   0  0  0  0  0  2  0  0  0  0  0  0
  184.9990  174.8580  137.2880 C   0  0  2  0  0  3  0  0  0  0  0  0
  191.0100  175.9600  136.6070 C   0  0  0  0  0  2  0  0  0  0  0  0
  185.6570  172.7530  138.2630 C   0  0  0  0  0  2  0  0  0  0  0  0
  184.1240  175.6430  136.2870 C   0  0  1  0  0  3  0  0  0  0  0  0
  184.4880  172.2540  134.7090 O   0  0  0  0  0  0  0  0  0  0  0  0
  189.2310  177.6550  136.8580 O   0  0  0  0  0  0  0  0  0  0  0  0
  186.8310  173.2190  137.4030 C   0  0  1  0  0  3  0  0  0  0  0  0
  187.0620  172.1620  136.3270 C   0  0  1  0  0  0  0  0  0  0  0  0
  182.3050  173.4480  136.2390 C   0  0  0  0  0  2  0  0  0  0  0  0
  190.4760  175.8560  138.0340 C   0  0  0  0  0  2  0  0  0  0  0  0
  184.1030  171.6730  135.9240 C   0  0  0  0  0  2  0  0  0  0  0  0
  187.6510  170.8190  136.7200 C   0  0  0  0  0  2  0  0  0  0  0  0
  188.1340  177.8640  135.9890 C   0  0  2  0  0  3  0  0  0  0  0  0
  186.0270  176.8090  135.3280 O   0  0  0  0  0  0  0  0  0  0  0  0
  183.4850  172.7070  136.8760 C   0  0  1  0  0  3  0  0  0  0  0  0
  186.3870  174.5330  136.7570 C   0  0  2  0  0  3  0  0  0  0  0  0
  186.8440  172.4560  134.8590 C   0  0  1  0  0  3  0  0  0  0  0  0
  182.6830  175.8900  136.7950 C   0  0  1  0  0  3  0  0  0  0  0  0
  188.5240  171.8540  136.0510 C   0  0  1  0  0  3  0  0  0  0  0  0
  186.9200  177.0000  136.3940 C   0  0  1  0  0  3  0  0  0  0  0  0
  187.3920  175.6600  136.9950 C   0  0  2  0  0  3  0  0  0  0  0  0
  181.8590  174.6300  137.0840 C   0  0  0  0  0  2  0  0  0  0  0  0
  182.4000  176.4180  139.2570 C   0  0  0  0  0  3  0  0  0  0  0  0
  182.5920  176.8610  137.9390 C   0  0  0  0  0  0  0  0  0  0  0  0
  182.7040  178.2320  137.6820 C   0  0  0  0  0  3  0  0  0  0  0  0
  182.7390  180.4790  138.4760 F   0  0  0  0  0  0  0  0  0  0  0  0
  182.4390  178.7070  140.0410 C   0  0  0  0  0  3  0  0  0  0  0  0
  182.6280  179.1540  138.7300 C   0  0  0  0  0  0  0  0  0  0  0  0
  182.3250  177.3390  140.3050 C   0  0  0  0  0  3  0  0  0  0  0  0
  188.5570  177.7200  134.5250 C   0  0  0  0  0  2  0  0  0  0  0  0
  190.0290  178.0500  134.3690 C   0  0  0  0  0  1  0  0  0  0  0  0
  1  4  1  0  0  0  0
  1 27  1  0  0  0  0
  2 23  1  0  0  0  0
  2 25  1  0  0  0  0
  3  9  1  6  0  0  0
  4 16  1  0  0  0  0
  5 10  1  0  0  0  0
  6 11  1  0  0  0  0
  6 23  1  0  0  0  0
  7  3  1  0  0  0  0
  8  4  1  0  0  0  0
  8 16  1  0  0  0  0
 10 24  1  0  0  0  0
 10  7  1  0  0  0  0
 11 17  1  0  0  0  0
 12  4  1  0  0  0  0
 13  9  1  0  0  0  0
 14 18  1  0  0  0  0
 14 13  1  0  0  0  0
 15 21  1  0  0  0  0
 15 28  1  0  0  0  0
 17 21  1  0  0  0  0
 19 26  1  0  0  0  0
 19 12  1  0  0  0  0
 20  5  1  0  0  0  0
 20 26  1  0  0  0  0
 21  3  1  0  0  0  0
 22 27  1  0  0  0  0
 22  7  1  0  0  0  0
 22 13  1  0  0  0  0
 23 14  1  0  0  0  0
 24 28  1  0  0  0  0
 24 30  1  0  0  0  0
 25 14  1  0  0  0  0
 25 18  1  0  0  0  0
 26 27  1  0  0  0  0
 29 35  1  0  0  0  0
 30 29  2  0  0  0  0
 31 30  1  0  0  0  0
 31 34  2  0  0  0  0
 32 34  1  0  0  0  0
 33 35  2  0  0  0  0
 34 33  1  0  0  0  0
 36 19  1  0  0  0  0
 37 36  1  0  0  0  0
M  END
>  <MODEL>
5

>  <REMARK>
 VINA RESULT:      -3.9      2.578      5.182
  Name = 
  2 active torsions:
  status: ('A' for Active; 'I' for Inactive)
    1  A    between atoms: C_6  and  C_31
    2  A    between atoms: C_11  and  C_26
                            x       y       z     vdW  Elec       q    Type
                         _______ _______ _______ _____ _____    ______ ____

>  <TORSDO>
F 2

$$$$
=
 OpenBabel10272414593D

 37 45  0  0  1  0  0  0  0  0999 V2000
  189.1260  176.8920  138.3180 O   0  0  0  0  0  0  0  0  0  0  0  0
  186.5530  174.0810  137.4940 C   0  0  0  0  0  2  0  0  0  0  0  0
  190.9380  174.4700  134.6450 C   0  0  2  0  0  3  0  0  0  0  0  0
  189.3110  178.1380  138.9510 C   0  0  0  0  0  0  0  0  0  0  0  0
  192.7670  174.6630  138.1520 C   0  0  0  0  0  2  0  0  0  0  0  0
  187.9650  172.2100  136.4380 C   0  0  0  0  0  2  0  0  0  0  0  0
  191.4000  174.9730  136.0140 C   0  0  2  0  0  3  0  0  0  0  0  0
  188.0640  178.7340  139.5540 C   0  0  0  0  0  2  0  0  0  0  0  0
  189.6780  175.2670  134.3530 C   0  0  0  0  0  2  0  0  0  0  0  0
  192.3140  174.0320  136.8270 C   0  0  1  0  0  3  0  0  0  0  0  0
  189.2920  171.9310  136.0770 O   0  0  0  0  0  0  0  0  0  0  0  0
  190.5100  178.4070  139.6650 O   0  0  0  0  0  0  0  0  0  0  0  0
  189.0420  175.6020  135.7010 C   0  0  1  0  0  3  0  0  0  0  0  0
  187.8900  174.6270  135.9230 C   0  0  1  0  0  0  0  0  0  0  0  0
  191.9340  172.0280  134.8350 C   0  0  0  0  0  2  0  0  0  0  0  0
  188.6640  179.3240  138.2800 C   0  0  0  0  0  2  0  0  0  0  0  0
  189.4040  172.2950  134.7290 C   0  0  0  0  0  2  0  0  0  0  0  0
  186.6280  174.7670  135.0910 C   0  0  0  0  0  2  0  0  0  0  0  0
  191.1880  177.2000  139.9570 C   0  0  2  0  0  3  0  0  0  0  0  0
  191.6760  175.0230  138.9510 O   0  0  0  0  0  0  0  0  0  0  0  0
  190.7670  172.9330  134.4250 C   0  0  1  0  0  3  0  0  0  0  0  0
  190.1310  175.3720  136.7510 C   0  0  2  0  0  3  0  0  0  0  0  0
  187.9140  173.6030  137.0370 C   0  0  1  0  0  3  0  0  0  0  0  0
  193.5580  173.5540  136.0390 C   0  0  1  0  0  3  0  0  0  0  0  0
  186.6410  175.2520  136.5210 C   0  0  1  0  0  3  0  0  0  0  0  0
  191.4630  176.3830  138.6760 C   0  0  1  0  0  3  0  0  0  0  0  0
  190.3270  176.5900  137.6540 C   0  0  2  0  0  3  0  0  0  0  0  0
  193.2660  172.7580  134.7620 C   0  0  0  0  0  2  0  0  0  0  0  0
  195.9240  174.4570  136.1090 C   0  0  0  0  0  3  0  0  0  0  0  0
  194.5710  174.6320  135.7760 C   0  0  0  0  0  0  0  0  0  0  0  0
  194.1570  175.8290  135.1820 C   0  0  0  0  0  3  0  0  0  0  0  0
  194.6760  178.0000  134.3460 F   0  0  0  0  0  0  0  0  0  0  0  0
  196.4280  176.6640  135.2540 C   0  0  0  0  0  3  0  0  0  0  0  0
  195.0830  176.8440  134.9210 C   0  0  0  0  0  0  0  0  0  0  0  0
  196.8490  175.4710  135.8480 C   0  0  0  0  0  3  0  0  0  0  0  0
  190.4760  176.4230  141.0670 C   0  0  0  0  0  2  0  0  0  0  0  0
  190.7520  177.0610  142.4150 C   0  0  0  0  0  1  0  0  0  0  0  0
  1  4  1  0  0  0  0
  3  9  1  1  0  0  0
  3  7  1  0  0  0  0
  4  8  1  0  0  0  0
  4 12  1  0  0  0  0
  5 20  1  0  0  0  0
  6 23  1  0  0  0  0
  7 22  1  0  0  0  0
  7 10  1  0  0  0  0
  9 13  1  0  0  0  0
 10  5  1  0  0  0  0
 11  6  1  0  0  0  0
 12 19  1  0  0  0  0
 13 14  1  0  0  0  0
 13 22  1  0  0  0  0
 14 25  1  0  0  0  0
 14 23  1  0  0  0  0
 16  4  1  0  0  0  0
 16  8  1  0  0  0  0
 17 11  1  0  0  0  0
 18 14  1  0  0  0  0
 18 25  1  0  0  0  0
 19 36  1  0  0  0  0
 21  3  1  0  0  0  0
 21 17  1  0  0  0  0
 21 15  1  0  0  0  0
 22 27  1  0  0  0  0
 23  2  1  0  0  0  0
 24 10  1  0  0  0  0
 25  2  1  0  0  0  0
 26 20  1  0  0  0  0
 26 19  1  0  0  0  0
 27  1  1  0  0  0  0
 27 26  1  0  0  0  0
 28 15  1  0  0  0  0
 28 24  1  0  0  0  0
 30 24  1  0  0  0  0
 30 29  2  0  0  0  0
 31 30  1  0  0  0  0
 32 34  1  0  0  0  0
 33 35  2  0  0  0  0
 34 31  2  0  0  0  0
 34 33  1  0  0  0  0
 35 29  1  0  0  0  0
 36 37  1  0  0  0  0
M  END
>  <MODEL>
6

>  <REMARK>
 VINA RESULT:      -3.6      5.115      9.357
  Name = 
  2 active torsions:
  status: ('A' for Active; 'I' for Inactive)
    1  A    between atoms: C_6  and  C_31
    2  A    between atoms: C_11  and  C_26
                            x       y       z     vdW  Elec       q    Type
                         _______ _______ _______ _____ _____    ______ ____

>  <TORSDO>
F 2

$$$$
