=
 OpenBabel10272400363D

 31 34  0  0  1  0  0  0  0  0999 V2000
  184.9280  178.6260  143.9730 C   0  0  0  0  0  0  0  0  0  0  0  0
  188.4510  177.1420  143.6450 C   0  0  1  0  0  3  0  0  0  0  0  0
  189.0120  177.2390  145.0600 C   0  0  0  0  0  0  0  0  0  0  0  0
  188.5290  177.3070  147.5490 C   0  0  0  0  0  2  0  0  0  0  0  0
  187.1570  177.8800  143.3420 C   0  0  0  0  0  0  0  0  0  0  0  0
  184.7150  179.1070  142.6800 C   0  0  0  0  0  3  0  0  0  0  0  0
  188.1900  177.6400  146.1680 N   0  0  0  0  0  2  0  0  0  0  0  0
  189.0290  177.3310  141.2030 C   0  0  2  0  0  3  0  0  0  0  0  0
  183.8700  178.7730  145.0050 C   0  0  0  0  0  1  0  0  0  0  0  0
  191.1460  176.4250  144.1560 C   0  0  0  0  0  3  0  0  0  0  0  0
  189.9760  177.2920  147.7300 N   0  0  0  0  0  2  0  0  0  0  0  0
  187.8670  178.1390  141.0170 O   0  0  0  0  0  0  0  0  0  0  0  0
  189.5520  177.5000  142.6280 C   0  0  2  0  0  3  0  0  0  0  0  0
  186.1370  178.0040  144.2970 C   0  0  0  0  0  3  0  0  0  0  0  0
  192.0460  176.6650  146.8740 O   0  0  0  0  0  0  0  0  0  0  0  0
  186.9100  178.3190  142.0230 C   0  0  0  0  0  0  0  0  0  0  0  0
  185.7030  178.9490  141.7050 C   0  0  0  0  0  3  0  0  0  0  0  0
  190.7870  176.6820  142.8970 C   0  0  0  0  0  3  0  0  0  0  0  0
  190.2870  176.8510  145.2850 C   0  0  0  0  0  0  0  0  0  0  0  0
  190.8310  176.9090  146.6520 C   0  0  0  0  0  0  0  0  0  0  0  0
  190.0830  177.7260  140.1760 C   0  0  0  0  0  2  0  0  0  0  0  0
  188.3750  177.2030  136.8680 F   0  0  0  0  0  0  0  0  0  0  0  0
  190.9240  175.5160  138.6410 O   0  0  0  0  0  0  0  0  0  0  0  0
  189.0010  179.1590  138.6290 O   0  0  0  0  0  0  0  0  0  0  0  0
  189.4400  178.0010  138.8550 C   0  0  0  0  0  0  0  0  0  0  0  0
  189.9030  175.6920  137.9250 C   0  0  0  0  0  0  0  0  0  0  0  0
  189.2410  176.9660  137.8780 N   0  0  0  0  0  0  0  0  0  0  0  0
  189.3770  174.5500  137.1230 C   0  0  0  0  0  2  0  0  0  0  0  0
  190.3230  174.2200  136.0200 C   0  0  0  0  0  0  0  0  0  0  0  0
  190.8410  173.0740  135.9570 O   0  0  0  0  0  0  0  0  0  0  0  0
  190.6120  175.1860  135.0170 N   0  0  0  0  0  1  0  0  0  0  0  0
  1 14  1  0  0  0  0
  1  9  1  0  0  0  0
  2  5  1  1  0  0  0
  2  3  1  0  0  0  0
  3 19  2  0  0  0  0
  3  7  1  0  0  0  0
  4 11  1  0  0  0  0
  5 14  2  0  0  0  0
  6  1  2  0  0  0  0
  7  4  1  0  0  0  0
  8 21  1  6  0  0  0
  8 13  1  0  0  0  0
 10 19  1  0  0  0  0
 12  8  1  0  0  0  0
 12 16  1  0  0  0  0
 13 18  1  6  0  0  0
 13  2  1  0  0  0  0
 16  5  1  0  0  0  0
 17 16  2  0  0  0  0
 17  6  1  0  0  0  0
 18 10  2  0  0  0  0
 19 20  1  0  0  0  0
 20 15  2  0  0  0  0
 20 11  1  0  0  0  0
 22 27  1  0  0  0  0
 24 25  2  0  0  0  0
 25 21  1  0  0  0  0
 26 23  2  0  0  0  0
 27 26  1  0  0  0  0
 27 25  1  0  0  0  0
 28 26  1  0  0  0  0
 29 28  1  0  0  0  0
 30 29  2  0  0  0  0
 31 29  1  0  0  0  0
M  END
>  <MODEL>
1

>  <REMARK>
 VINA RESULT:     -10.5      0.000      0.000
  Name = 
  4 active torsions:
  status: ('A' for Active; 'I' for Inactive)
    1  A    between atoms: C_1  and  C_24
    2  A    between atoms: C_9  and  C_23
    3  A    between atoms: C_15  and  C_23
    4  A    between atoms: C_19  and  C_24
                            x       y       z     vdW  Elec       q    Type
                         _______ _______ _______ _____ _____    ______ ____

>  <TORSDO>
F 4

$$$$
=
 OpenBabel10272400363D

 31 34  0  0  1  0  0  0  0  0999 V2000
  184.7560  178.6560  144.1540 C   0  0  0  0  0  0  0  0  0  0  0  0
  188.2850  177.2290  143.6800 C   0  0  1  0  0  3  0  0  0  0  0  0
  188.8880  177.2950  145.0800 C   0  0  0  0  0  0  0  0  0  0  0  0
  188.4790  177.2890  147.5840 C   0  0  0  0  0  2  0  0  0  0  0  0
  186.9740  177.9570  143.4370 C   0  0  0  0  0  0  0  0  0  0  0  0
  184.4970  179.1690  142.8820 C   0  0  0  0  0  3  0  0  0  0  0  0
  188.0940  177.6550  146.2220 N   0  0  0  0  0  2  0  0  0  0  0  0
  188.7880  177.4920  141.2280 C   0  0  2  0  0  3  0  0  0  0  0  0
  183.7270  178.7600  145.2210 C   0  0  0  0  0  1  0  0  0  0  0  0
  191.0040  176.5350  144.0910 C   0  0  0  0  0  3  0  0  0  0  0  0
  189.9310  177.2880  147.7200 N   0  0  0  0  0  2  0  0  0  0  0  0
  187.6100  178.2890  141.0990 O   0  0  0  0  0  0  0  0  0  0  0  0
  189.3510  177.6300  142.6410 C   0  0  2  0  0  3  0  0  0  0  0  0
  185.9810  178.0420  144.4240 C   0  0  0  0  0  3  0  0  0  0  0  0
  191.9820  176.7130  146.7860 O   0  0  0  0  0  0  0  0  0  0  0  0
  186.6810  178.4290  142.1380 C   0  0  0  0  0  0  0  0  0  0  0  0
  185.4570  179.0510  141.8740 C   0  0  0  0  0  3  0  0  0  0  0  0
  190.6030  176.8220  142.8500 C   0  0  0  0  0  3  0  0  0  0  0  0
  190.1740  176.9190  145.2560 C   0  0  0  0  0  0  0  0  0  0  0  0
  190.7580  176.9470  146.6080 C   0  0  0  0  0  0  0  0  0  0  0  0
  189.8050  177.9290  140.1810 C   0  0  0  0  0  2  0  0  0  0  0  0
  190.2250  176.0730  136.9390 F   0  0  0  0  0  0  0  0  0  0  0  0
  188.0510  178.6140  138.0830 O   0  0  0  0  0  0  0  0  0  0  0  0
  190.6390  175.7880  139.5980 O   0  0  0  0  0  0  0  0  0  0  0  0
  190.0460  176.8260  139.2020 C   0  0  0  0  0  0  0  0  0  0  0  0
  188.8080  177.9670  137.3100 C   0  0  0  0  0  0  0  0  0  0  0  0
  189.6890  176.9520  137.8150 N   0  0  0  0  0  0  0  0  0  0  0  0
  188.7850  178.2750  135.8520 C   0  0  0  0  0  2  0  0  0  0  0  0
  187.5830  177.6630  135.2180 C   0  0  0  0  0  0  0  0  0  0  0  0
  186.7320  178.3930  134.6470 O   0  0  0  0  0  0  0  0  0  0  0  0
  187.4170  176.2500  135.2240 N   0  0  0  0  0  1  0  0  0  0  0  0
  1 14  1  0  0  0  0
  1  9  1  0  0  0  0
  2  5  1  1  0  0  0
  2  3  1  0  0  0  0
  3 19  2  0  0  0  0
  3  7  1  0  0  0  0
  4 11  1  0  0  0  0
  5 14  2  0  0  0  0
  6  1  2  0  0  0  0
  7  4  1  0  0  0  0
  8 21  1  6  0  0  0
  8 13  1  0  0  0  0
 10 19  1  0  0  0  0
 12  8  1  0  0  0  0
 12 16  1  0  0  0  0
 13 18  1  6  0  0  0
 13  2  1  0  0  0  0
 16  5  1  0  0  0  0
 17 16  2  0  0  0  0
 17  6  1  0  0  0  0
 18 10  2  0  0  0  0
 19 20  1  0  0  0  0
 20 15  2  0  0  0  0
 20 11  1  0  0  0  0
 22 27  1  0  0  0  0
 25 24  2  0  0  0  0
 25 21  1  0  0  0  0
 26 27  1  0  0  0  0
 26 23  2  0  0  0  0
 27 25  1  0  0  0  0
 28 26  1  0  0  0  0
 29 31  1  0  0  0  0
 29 28  1  0  0  0  0
 30 29  2  0  0  0  0
M  END
>  <MODEL>
2

>  <REMARK>
 VINA RESULT:     -10.4      1.528      2.139
  Name = 
  4 active torsions:
  status: ('A' for Active; 'I' for Inactive)
    1  A    between atoms: C_1  and  C_24
    2  A    between atoms: C_9  and  C_23
    3  A    between atoms: C_15  and  C_23
    4  A    between atoms: C_19  and  C_24
                            x       y       z     vdW  Elec       q    Type
                         _______ _______ _______ _____ _____    ______ ____

>  <TORSDO>
F 4

$$$$
=
 OpenBabel10272400363D

 31 34  0  0  1  0  0  0  0  0999 V2000
  190.8340  176.9230  146.2870 C   0  0  0  0  0  0  0  0  0  0  0  0
  188.0570  178.1620  143.9480 C   0  0  1  0  0  3  0  0  0  0  0  0
  186.8280  178.2140  144.8490 C   0  0  0  0  0  0  0  0  0  0  0  0
  185.9130  178.4850  147.2000 C   0  0  0  0  0  2  0  0  0  0  0  0
  189.2980  177.4630  144.4780 C   0  0  0  0  0  0  0  0  0  0  0  0
  191.6920  176.2960  145.3820 C   0  0  0  0  0  3  0  0  0  0  0  0
  186.9270  178.0000  146.2670 N   0  0  0  0  0  2  0  0  0  0  0  0
  188.8610  177.6380  141.6210 C   0  0  2  0  0  3  0  0  0  0  0  0
  191.1790  176.9650  147.7320 C   0  0  0  0  0  1  0  0  0  0  0  0
  185.5180  178.7910  142.8530 C   0  0  0  0  0  3  0  0  0  0  0  0
  184.5920  178.4440  146.5830 N   0  0  0  0  0  2  0  0  0  0  0  0
  189.9280  176.8770  142.1900 O   0  0  0  0  0  0  0  0  0  0  0  0
  187.6580  177.6200  142.5620 C   0  0  2  0  0  3  0  0  0  0  0  0
  189.6520  177.5150  145.8350 C   0  0  0  0  0  3  0  0  0  0  0  0
  183.3070  178.8460  144.6860 O   0  0  0  0  0  0  0  0  0  0  0  0
  190.2000  176.8760  143.5630 C   0  0  0  0  0  0  0  0  0  0  0  0
  191.3770  176.2770  144.0210 C   0  0  0  0  0  3  0  0  0  0  0  0
  186.4860  178.3970  142.0230 C   0  0  0  0  0  3  0  0  0  0  0  0
  185.6370  178.5570  144.3110 C   0  0  0  0  0  0  0  0  0  0  0  0
  184.4480  178.6420  145.1760 C   0  0  0  0  0  0  0  0  0  0  0  0
  188.5060  177.0600  140.2570 C   0  0  0  0  0  2  0  0  0  0  0  0
  189.9560  178.3380  137.0320 F   0  0  0  0  0  0  0  0  0  0  0  0
  190.8540  175.8060  139.3280 O   0  0  0  0  0  0  0  0  0  0  0  0
  188.4470  179.1440  139.1280 O   0  0  0  0  0  0  0  0  0  0  0  0
  188.9470  177.9890  139.1720 C   0  0  0  0  0  0  0  0  0  0  0  0
  190.6650  176.3870  138.2260 C   0  0  0  0  0  0  0  0  0  0  0  0
  189.8610  177.5740  138.1430 N   0  0  0  0  0  0  0  0  0  0  0  0
  191.2870  175.8210  136.9950 C   0  0  0  0  0  2  0  0  0  0  0  0
  192.7240  175.5170  137.2400 C   0  0  0  0  0  0  0  0  0  0  0  0
  193.1000  174.3250  137.3900 O   0  0  0  0  0  0  0  0  0  0  0  0
  193.6800  176.5700  137.2650 N   0  0  0  0  0  1  0  0  0  0  0  0
  1  9  1  0  0  0  0
  2  5  1  1  0  0  0
  2  3  1  0  0  0  0
  3  7  1  0  0  0  0
  5 14  2  0  0  0  0
  6  1  2  0  0  0  0
  7  4  1  0  0  0  0
  8 21  1  6  0  0  0
  8 12  1  0  0  0  0
  8 13  1  0  0  0  0
 10 19  1  0  0  0  0
 11  4  1  0  0  0  0
 12 16  1  0  0  0  0
 13 18  1  6  0  0  0
 13  2  1  0  0  0  0
 14  1  1  0  0  0  0
 15 20  2  0  0  0  0
 16 17  2  0  0  0  0
 16  5  1  0  0  0  0
 17  6  1  0  0  0  0
 18 10  2  0  0  0  0
 19  3  2  0  0  0  0
 19 20  1  0  0  0  0
 20 11  1  0  0  0  0
 22 27  1  0  0  0  0
 24 25  2  0  0  0  0
 25 21  1  0  0  0  0
 26 23  2  0  0  0  0
 27 26  1  0  0  0  0
 27 25  1  0  0  0  0
 28 29  1  0  0  0  0
 28 26  1  0  0  0  0
 29 31  1  0  0  0  0
 29 30  2  0  0  0  0
M  END
>  <MODEL>
3

>  <REMARK>
 VINA RESULT:     -10.1      1.972      4.325
  Name = 
  4 active torsions:
  status: ('A' for Active; 'I' for Inactive)
    1  A    between atoms: C_1  and  C_24
    2  A    between atoms: C_9  and  C_23
    3  A    between atoms: C_15  and  C_23
    4  A    between atoms: C_19  and  C_24
                            x       y       z     vdW  Elec       q    Type
                         _______ _______ _______ _____ _____    ______ ____

>  <TORSDO>
F 4

$$$$
=
 OpenBabel10272400363D

 31 34  0  0  1  0  0  0  0  0999 V2000
  187.1070  177.9790  147.1310 C   0  0  0  0  0  0  0  0  0  0  0  0
  187.6660  177.6100  143.3540 C   0  0  1  0  0  3  0  0  0  0  0  0
  189.1840  177.6390  143.2130 C   0  0  0  0  0  0  0  0  0  0  0  0
  191.4380  177.1810  144.2840 C   0  0  0  0  0  2  0  0  0  0  0  0
  187.0700  177.9940  144.6980 C   0  0  0  0  0  0  0  0  0  0  0  0
  185.8460  178.5750  147.1620 C   0  0  0  0  0  3  0  0  0  0  0  0
  190.0460  177.6170  144.3630 N   0  0  0  0  0  2  0  0  0  0  0  0
  185.5030  178.3310  142.2860 C   0  0  2  0  0  3  0  0  0  0  0  0
  187.8110  177.6600  148.4000 C   0  0  0  0  0  1  0  0  0  0  0  0
  188.8540  177.6060  140.7790 C   0  0  0  0  0  3  0  0  0  0  0  0
  192.0140  177.5440  142.9940 N   0  0  0  0  0  2  0  0  0  0  0  0
  185.0610  178.7990  143.5600 O   0  0  0  0  0  0  0  0  0  0  0  0
  187.0260  178.4160  142.2060 C   0  0  2  0  0  3  0  0  0  0  0  0
  187.7080  177.6770  145.9060 C   0  0  0  0  0  3  0  0  0  0  0  0
  191.7250  177.6630  140.6890 O   0  0  0  0  0  0  0  0  0  0  0  0
  185.7710  178.5450  144.7400 C   0  0  0  0  0  0  0  0  0  0  0  0
  185.1770  178.8540  145.9680 C   0  0  0  0  0  3  0  0  0  0  0  0
  187.5680  177.9450  140.8830 C   0  0  0  0  0  3  0  0  0  0  0  0
  189.7270  177.5940  141.9760 C   0  0  0  0  0  0  0  0  0  0  0  0
  191.1920  177.5890  141.8270 C   0  0  0  0  0  0  0  0  0  0  0  0
  184.8440  179.1600  141.1910 C   0  0  0  0  0  2  0  0  0  0  0  0
  182.9630  176.8420  138.9060 F   0  0  0  0  0  0  0  0  0  0  0  0
  185.5920  179.1640  138.4730 O   0  0  0  0  0  0  0  0  0  0  0  0
  182.6700  178.2150  141.2180 O   0  0  0  0  0  0  0  0  0  0  0  0
  183.7290  178.3900  140.5610 C   0  0  0  0  0  0  0  0  0  0  0  0
  184.9140  178.1100  138.3400 C   0  0  0  0  0  0  0  0  0  0  0  0
  183.8650  177.7820  139.2650 N   0  0  0  0  0  0  0  0  0  0  0  0
  185.2180  177.1940  137.2030 C   0  0  0  0  0  2  0  0  0  0  0  0
  186.6790  177.2080  136.9110 C   0  0  0  0  0  0  0  0  0  0  0  0
  187.4710  176.5410  137.6270 O   0  0  0  0  0  0  0  0  0  0  0  0
  187.1750  177.9430  135.7980 N   0  0  0  0  0  1  0  0  0  0  0  0
  1  6  1  0  0  0  0
  1  9  1  0  0  0  0
  2  3  1  1  0  0  0
  2  5  1  0  0  0  0
  3  7  1  0  0  0  0
  4  7  1  0  0  0  0
  5 16  2  0  0  0  0
  5 14  1  0  0  0  0
  8 21  1  6  0  0  0
  8 12  1  0  0  0  0
 10 18  2  0  0  0  0
 10 19  1  0  0  0  0
 11  4  1  0  0  0  0
 12 16  1  0  0  0  0
 13 18  1  6  0  0  0
 13  8  1  0  0  0  0
 13  2  1  0  0  0  0
 14  1  2  0  0  0  0
 15 20  2  0  0  0  0
 16 17  1  0  0  0  0
 17  6  2  0  0  0  0
 19  3  2  0  0  0  0
 20 19  1  0  0  0  0
 20 11  1  0  0  0  0
 22 27  1  0  0  0  0
 25 21  1  0  0  0  0
 25 24  2  0  0  0  0
 26 23  2  0  0  0  0
 26 27  1  0  0  0  0
 27 25  1  0  0  0  0
 28 26  1  0  0  0  0
 29 28  1  0  0  0  0
 29 30  2  0  0  0  0
 31 29  1  0  0  0  0
M  END
>  <MODEL>
4

>  <REMARK>
 VINA RESULT:     -10.0      2.894      4.569
  Name = 
  4 active torsions:
  status: ('A' for Active; 'I' for Inactive)
    1  A    between atoms: C_1  and  C_24
    2  A    between atoms: C_9  and  C_23
    3  A    between atoms: C_15  and  C_23
    4  A    between atoms: C_19  and  C_24
                            x       y       z     vdW  Elec       q    Type
                         _______ _______ _______ _____ _____    ______ ____

>  <TORSDO>
F 4

$$$$
=
 OpenBabel10272400363D

 31 34  0  0  1  0  0  0  0  0999 V2000
  188.5020  177.5260  147.3540 C   0  0  0  0  0  0  0  0  0  0  0  0
  187.4870  178.3990  143.7600 C   0  0  1  0  0  3  0  0  0  0  0  0
  185.9630  178.4240  143.8150 C   0  0  0  0  0  0  0  0  0  0  0  0
  183.8820  178.7880  145.2190 C   0  0  0  0  0  2  0  0  0  0  0  0
  188.2310  177.8290  144.9550 C   0  0  0  0  0  0  0  0  0  0  0  0
  189.7330  176.9020  147.1450 C   0  0  0  0  0  3  0  0  0  0  0  0
  185.2550  178.3140  145.0600 N   0  0  0  0  0  2  0  0  0  0  0  0
  189.4680  177.7770  142.3370 C   0  0  2  0  0  3  0  0  0  0  0  0
  187.9770  177.6910  148.7350 C   0  0  0  0  0  1  0  0  0  0  0  0
  185.9850  178.7680  141.3830 C   0  0  0  0  0  3  0  0  0  0  0  0
  183.1350  178.6100  143.9790 N   0  0  0  0  0  2  0  0  0  0  0  0
  190.0480  177.1350  143.4730 O   0  0  0  0  0  0  0  0  0  0  0  0
  187.9450  177.7370  142.4450 C   0  0  2  0  0  3  0  0  0  0  0  0
  187.7640  177.9990  146.2670 C   0  0  0  0  0  3  0  0  0  0  0  0
  183.1250  178.7880  141.6600 O   0  0  0  0  0  0  0  0  0  0  0  0
  189.5040  177.2480  144.7580 C   0  0  0  0  0  0  0  0  0  0  0  0
  190.2350  176.7680  145.8490 C   0  0  0  0  0  3  0  0  0  0  0  0
  187.2600  178.3900  141.2740 C   0  0  0  0  0  3  0  0  0  0  0  0
  185.2710  178.6430  142.6740 C   0  0  0  0  0  0  0  0  0  0  0  0
  183.8000  178.7010  142.7190 C   0  0  0  0  0  0  0  0  0  0  0  0
  189.9510  177.0840  141.0690 C   0  0  0  0  0  2  0  0  0  0  0  0
  193.3220  177.5170  139.4630 F   0  0  0  0  0  0  0  0  0  0  0  0
  190.5070  175.4790  138.8200 O   0  0  0  0  0  0  0  0  0  0  0  0
  192.0760  177.7900  141.8480 O   0  0  0  0  0  0  0  0  0  0  0  0
  191.4210  177.2900  140.8960 C   0  0  0  0  0  0  0  0  0  0  0  0
  191.5010  176.2220  138.6010 C   0  0  0  0  0  0  0  0  0  0  0  0
  192.0860  177.0060  139.6530 N   0  0  0  0  0  0  0  0  0  0  0  0
  192.0670  176.2860  137.2230 C   0  0  0  0  0  2  0  0  0  0  0  0
  193.2470  175.3840  137.1110 C   0  0  0  0  0  0  0  0  0  0  0  0
  194.4070  175.8690  137.0550 O   0  0  0  0  0  0  0  0  0  0  0  0
  193.0660  173.9730  137.1060 N   0  0  0  0  0  1  0  0  0  0  0  0
  1  9  1  0  0  0  0
  2  3  1  1  0  0  0
  2  5  1  0  0  0  0
  3  7  1  0  0  0  0
  5 14  1  0  0  0  0
  6  1  1  0  0  0  0
  7  4  1  0  0  0  0
  8 21  1  6  0  0  0
  8 13  1  0  0  0  0
  8 12  1  0  0  0  0
 10 19  1  0  0  0  0
 11  4  1  0  0  0  0
 12 16  1  0  0  0  0
 13 18  1  6  0  0  0
 13  2  1  0  0  0  0
 14  1  2  0  0  0  0
 15 20  2  0  0  0  0
 16  5  2  0  0  0  0
 16 17  1  0  0  0  0
 17  6  2  0  0  0  0
 18 10  2  0  0  0  0
 19 20  1  0  0  0  0
 19  3  2  0  0  0  0
 20 11  1  0  0  0  0
 22 27  1  0  0  0  0
 25 21  1  0  0  0  0
 25 24  2  0  0  0  0
 26 23  2  0  0  0  0
 26 27  1  0  0  0  0
 27 25  1  0  0  0  0
 28 26  1  0  0  0  0
 29 28  1  0  0  0  0
 30 29  2  0  0  0  0
 31 29  1  0  0  0  0
M  END
>  <MODEL>
5

>  <REMARK>
 VINA RESULT:      -9.6      2.534      4.797
  Name = 
  4 active torsions:
  status: ('A' for Active; 'I' for Inactive)
    1  A    between atoms: C_1  and  C_24
    2  A    between atoms: C_9  and  C_23
    3  A    between atoms: C_15  and  C_23
    4  A    between atoms: C_19  and  C_24
                            x       y       z     vdW  Elec       q    Type
                         _______ _______ _______ _____ _____    ______ ____

>  <TORSDO>
F 4

$$$$
=
 OpenBabel10272400363D

 31 34  0  0  1  0  0  0  0  0999 V2000
  184.6460  178.6280  139.2830 C   0  0  0  0  0  0  0  0  0  0  0  0
  186.2820  177.7860  142.6490 C   0  0  1  0  0  3  0  0  0  0  0  0
  185.2820  178.3130  143.6730 C   0  0  0  0  0  0  0  0  0  0  0  0
  182.8660  178.8710  144.2090 C   0  0  0  0  0  2  0  0  0  0  0  0
  186.0830  178.1800  141.1950 C   0  0  0  0  0  0  0  0  0  0  0  0
  185.7660  178.7450  138.4580 C   0  0  0  0  0  3  0  0  0  0  0  0
  183.9900  178.8030  143.2780 N   0  0  0  0  0  2  0  0  0  0  0  0
  188.7320  177.5010  142.1480 C   0  0  2  0  0  3  0  0  0  0  0  0
  183.2840  178.8140  138.7180 C   0  0  0  0  0  1  0  0  0  0  0  0
  186.9110  177.7190  145.4130 C   0  0  0  0  0  3  0  0  0  0  0  0
  183.3370  179.1670  145.5570 N   0  0  0  0  0  2  0  0  0  0  0  0
  188.4960  178.0140  140.8360 O   0  0  0  0  0  0  0  0  0  0  0  0
  187.7160  178.0930  143.1220 C   0  0  2  0  0  3  0  0  0  0  0  0
  184.8040  178.3330  140.6390 C   0  0  0  0  0  3  0  0  0  0  0  0
  184.9200  178.7500  147.2090 O   0  0  0  0  0  0  0  0  0  0  0  0
  187.2060  178.2440  140.3410 C   0  0  0  0  0  0  0  0  0  0  0  0
  187.0440  178.5480  138.9860 C   0  0  0  0  0  3  0  0  0  0  0  0
  187.9080  177.6030  144.5330 C   0  0  0  0  0  3  0  0  0  0  0  0
  185.5890  178.2310  144.9870 C   0  0  0  0  0  0  0  0  0  0  0  0
  184.6180  178.7070  145.9880 C   0  0  0  0  0  0  0  0  0  0  0  0
  190.1590  177.8320  142.5660 C   0  0  0  0  0  2  0  0  0  0  0  0
  192.0040  174.7690  143.7240 F   0  0  0  0  0  0  0  0  0  0  0  0
  191.4880  178.0050  145.0450 O   0  0  0  0  0  0  0  0  0  0  0  0
  191.1770  175.9990  141.4610 O   0  0  0  0  0  0  0  0  0  0  0  0
  191.0000  176.5980  142.5540 C   0  0  0  0  0  0  0  0  0  0  0  0
  191.6110  176.7520  145.0070 C   0  0  0  0  0  0  0  0  0  0  0  0
  191.5440  176.0390  143.7620 N   0  0  0  0  0  0  0  0  0  0  0  0
  191.8230  176.0070  146.2810 C   0  0  0  0  0  2  0  0  0  0  0  0
  191.2230  176.7580  147.4190 C   0  0  0  0  0  0  0  0  0  0  0  0
  191.9670  177.2890  148.2850 O   0  0  0  0  0  0  0  0  0  0  0  0
  189.8120  176.9100  147.5070 N   0  0  0  0  0  1  0  0  0  0  0  0
  1 14  1  0  0  0  0
  2  5  1  6  0  0  0
  2 13  1  0  0  0  0
  2  3  1  0  0  0  0
  3 19  2  0  0  0  0
  4 11  1  0  0  0  0
  6 17  1  0  0  0  0
  6  1  2  0  0  0  0
  7  3  1  0  0  0  0
  7  4  1  0  0  0  0
  8 21  1  1  0  0  0
  8 13  1  0  0  0  0
  9  1  1  0  0  0  0
 11 20  1  0  0  0  0
 12  8  1  0  0  0  0
 13 18  1  1  0  0  0
 14  5  2  0  0  0  0
 16 12  1  0  0  0  0
 16  5  1  0  0  0  0
 17 16  2  0  0  0  0
 18 10  2  0  0  0  0
 19 10  1  0  0  0  0
 19 20  1  0  0  0  0
 20 15  2  0  0  0  0
 22 27  1  0  0  0  0
 24 25  2  0  0  0  0
 25 21  1  0  0  0  0
 25 27  1  0  0  0  0
 26 23  2  0  0  0  0
 26 28  1  0  0  0  0
 27 26  1  0  0  0  0
 28 29  1  0  0  0  0
 29 31  1  0  0  0  0
 29 30  2  0  0  0  0
M  END
>  <MODEL>
6

>  <REMARK>
 VINA RESULT:      -9.5      3.416      6.319
  Name = 
  4 active torsions:
  status: ('A' for Active; 'I' for Inactive)
    1  A    between atoms: C_1  and  C_24
    2  A    between atoms: C_9  and  C_23
    3  A    between atoms: C_15  and  C_23
    4  A    between atoms: C_19  and  C_24
                            x       y       z     vdW  Elec       q    Type
                         _______ _______ _______ _____ _____    ______ ____

>  <TORSDO>
F 4

$$$$
=
 OpenBabel10272400363D

 31 34  0  0  1  0  0  0  0  0999 V2000
  190.7500  176.8360  145.9530 C   0  0  0  0  0  0  0  0  0  0  0  0
  187.9510  178.1790  143.7000 C   0  0  1  0  0  3  0  0  0  0  0  0
  186.7430  178.2390  144.6290 C   0  0  0  0  0  0  0  0  0  0  0  0
  185.8830  178.4810  147.0040 C   0  0  0  0  0  2  0  0  0  0  0  0
  189.1870  177.4440  144.1900 C   0  0  0  0  0  0  0  0  0  0  0  0
  191.5750  176.2100  145.0170 C   0  0  0  0  0  3  0  0  0  0  0  0
  186.8670  177.9940  146.0390 N   0  0  0  0  0  2  0  0  0  0  0  0
  188.6940  177.6860  141.3460 C   0  0  2  0  0  3  0  0  0  0  0  0
  191.1270  176.8410  147.3910 C   0  0  0  0  0  1  0  0  0  0  0  0
  185.4030  178.8840  142.6730 C   0  0  0  0  0  3  0  0  0  0  0  0
  184.5490  178.4800  146.4150 N   0  0  0  0  0  2  0  0  0  0  0  0
  189.7560  176.8910  141.8770 O   0  0  0  0  0  0  0  0  0  0  0  0
  187.5110  177.6740  142.3120 C   0  0  2  0  0  3  0  0  0  0  0  0
  189.5720  177.4610  145.5390 C   0  0  0  0  0  3  0  0  0  0  0  0
  183.2330  178.9470  144.5550 O   0  0  0  0  0  0  0  0  0  0  0  0
  190.0570  176.8570  143.2430 C   0  0  0  0  0  0  0  0  0  0  0  0
  191.2310  176.2250  143.6640 C   0  0  0  0  0  3  0  0  0  0  0  0
  186.3450  178.4870  141.8150 C   0  0  0  0  0  3  0  0  0  0  0  0
  185.5480  178.6170  144.1230 C   0  0  0  0  0  0  0  0  0  0  0  0
  184.3800  178.7100  145.0160 C   0  0  0  0  0  0  0  0  0  0  0  0
  188.2980  177.1440  139.9790 C   0  0  0  0  0  2  0  0  0  0  0  0
  187.7510  179.2100  136.8870 F   0  0  0  0  0  0  0  0  0  0  0  0
  187.6160  175.7560  137.6220 O   0  0  0  0  0  0  0  0  0  0  0  0
  189.0980  179.2470  139.2330 O   0  0  0  0  0  0  0  0  0  0  0  0
  188.4590  178.2030  138.9370 C   0  0  0  0  0  0  0  0  0  0  0  0
  187.3050  176.8690  137.1200 C   0  0  0  0  0  0  0  0  0  0  0  0
  187.8410  178.0940  137.6430 N   0  0  0  0  0  0  0  0  0  0  0  0
  186.3580  176.9020  135.9680 C   0  0  0  0  0  2  0  0  0  0  0  0
  184.9610  176.7040  136.4470 C   0  0  0  0  0  0  0  0  0  0  0  0
  184.3730  177.6250  137.0720 O   0  0  0  0  0  0  0  0  0  0  0  0
  184.2770  175.4890  136.1650 N   0  0  0  0  0  1  0  0  0  0  0  0
  1  9  1  0  0  0  0
  2  5  1  1  0  0  0
  2  3  1  0  0  0  0
  3  7  1  0  0  0  0
  5 14  2  0  0  0  0
  6  1  2  0  0  0  0
  7  4  1  0  0  0  0
  8 21  1  6  0  0  0
  8 12  1  0  0  0  0
  8 13  1  0  0  0  0
 10 19  1  0  0  0  0
 11  4  1  0  0  0  0
 12 16  1  0  0  0  0
 13 18  1  6  0  0  0
 13  2  1  0  0  0  0
 14  1  1  0  0  0  0
 15 20  2  0  0  0  0
 16 17  2  0  0  0  0
 16  5  1  0  0  0  0
 17  6  1  0  0  0  0
 18 10  2  0  0  0  0
 19  3  2  0  0  0  0
 19 20  1  0  0  0  0
 20 11  1  0  0  0  0
 22 27  1  0  0  0  0
 25 24  2  0  0  0  0
 25 21  1  0  0  0  0
 26 23  2  0  0  0  0
 26 27  1  0  0  0  0
 27 25  1  0  0  0  0
 28 29  1  0  0  0  0
 28 26  1  0  0  0  0
 29 30  2  0  0  0  0
 31 29  1  0  0  0  0
M  END
>  <MODEL>
7

>  <REMARK>
 VINA RESULT:      -9.4      2.547      4.810
  Name = 
  4 active torsions:
  status: ('A' for Active; 'I' for Inactive)
    1  A    between atoms: C_1  and  C_24
    2  A    between atoms: C_9  and  C_23
    3  A    between atoms: C_15  and  C_23
    4  A    between atoms: C_19  and  C_24
                            x       y       z     vdW  Elec       q    Type
                         _______ _______ _______ _____ _____    ______ ____

>  <TORSDO>
F 4

$$$$
=
 OpenBabel10272400363D

 31 34  0  0  1  0  0  0  0  0999 V2000
  187.1800  178.0070  147.3230 C   0  0  0  0  0  0  0  0  0  0  0  0
  187.6500  177.5690  143.5410 C   0  0  1  0  0  3  0  0  0  0  0  0
  189.1650  177.5540  143.3690 C   0  0  0  0  0  0  0  0  0  0  0  0
  191.4270  177.0510  144.4010 C   0  0  0  0  0  2  0  0  0  0  0  0
  187.0930  177.9880  144.8910 C   0  0  0  0  0  0  0  0  0  0  0  0
  185.9360  178.6380  147.3710 C   0  0  0  0  0  3  0  0  0  0  0  0
  190.0490  177.5250  144.5020 N   0  0  0  0  0  2  0  0  0  0  0  0
  185.4850  178.3320  142.5070 C   0  0  2  0  0  3  0  0  0  0  0  0
  187.9010  177.6880  148.5830 C   0  0  0  0  0  1  0  0  0  0  0  0
  188.7840  177.4950  140.9430 C   0  0  0  0  0  3  0  0  0  0  0  0
  191.9850  177.3790  143.0950 N   0  0  0  0  0  2  0  0  0  0  0  0
  185.0830  178.8310  143.7830 O   0  0  0  0  0  0  0  0  0  0  0  0
  187.0080  178.3750  142.3950 C   0  0  2  0  0  3  0  0  0  0  0  0
  187.7470  177.6720  146.0910 C   0  0  0  0  0  3  0  0  0  0  0  0
  191.6530  177.4730  140.7940 O   0  0  0  0  0  0  0  0  0  0  0  0
  185.8090  178.5750  144.9520 C   0  0  0  0  0  0  0  0  0  0  0  0
  185.2500  178.9170  146.1870 C   0  0  0  0  0  3  0  0  0  0  0  0
  187.5090  177.8710  141.0680 C   0  0  0  0  0  3  0  0  0  0  0  0
  189.6800  177.4770  142.1220 C   0  0  0  0  0  0  0  0  0  0  0  0
  191.1420  177.4290  141.9440 C   0  0  0  0  0  0  0  0  0  0  0  0
  184.8260  179.1630  141.4140 C   0  0  0  0  0  2  0  0  0  0  0  0
  181.3010  178.4960  140.2900 F   0  0  0  0  0  0  0  0  0  0  0  0
  184.0460  180.2650  138.9400 O   0  0  0  0  0  0  0  0  0  0  0  0
  182.7910  178.7030  142.5390 O   0  0  0  0  0  0  0  0  0  0  0  0
  183.3450  178.9690  141.4400 C   0  0  0  0  0  0  0  0  0  0  0  0
  183.0300  179.5220  138.9890 C   0  0  0  0  0  0  0  0  0  0  0  0
  182.5550  178.9990  140.2390 N   0  0  0  0  0  0  0  0  0  0  0  0
  182.3220  179.1820  137.7210 C   0  0  0  0  0  2  0  0  0  0  0  0
  182.6190  177.7760  137.3300 C   0  0  0  0  0  0  0  0  0  0  0  0
  183.8010  177.4330  137.0630 O   0  0  0  0  0  0  0  0  0  0  0  0
  181.5750  176.8100  137.2970 N   0  0  0  0  0  1  0  0  0  0  0  0
  1  6  1  0  0  0  0
  1  9  1  0  0  0  0
  2  3  1  1  0  0  0
  2  5  1  0  0  0  0
  3  7  1  0  0  0  0
  4  7  1  0  0  0  0
  5 16  2  0  0  0  0
  5 14  1  0  0  0  0
  8 21  1  6  0  0  0
  8 12  1  0  0  0  0
 10 18  2  0  0  0  0
 10 19  1  0  0  0  0
 11  4  1  0  0  0  0
 12 16  1  0  0  0  0
 13 18  1  6  0  0  0
 13  8  1  0  0  0  0
 13  2  1  0  0  0  0
 14  1  2  0  0  0  0
 15 20  2  0  0  0  0
 16 17  1  0  0  0  0
 17  6  2  0  0  0  0
 19  3  2  0  0  0  0
 20 19  1  0  0  0  0
 20 11  1  0  0  0  0
 21 25  1  0  0  0  0
 23 26  2  0  0  0  0
 25 24  2  0  0  0  0
 26 27  1  0  0  0  0
 27 22  1  0  0  0  0
 27 25  1  0  0  0  0
 28 26  1  0  0  0  0
 29 28  1  0  0  0  0
 30 29  2  0  0  0  0
 31 29  1  0  0  0  0
M  END
>  <MODEL>
8

>  <REMARK>
 VINA RESULT:      -9.2      3.681      5.653
  Name = 
  4 active torsions:
  status: ('A' for Active; 'I' for Inactive)
    1  A    between atoms: C_1  and  C_24
    2  A    between atoms: C_9  and  C_23
    3  A    between atoms: C_15  and  C_23
    4  A    between atoms: C_19  and  C_24
                            x       y       z     vdW  Elec       q    Type
                         _______ _______ _______ _____ _____    ______ ____

>  <TORSDO>
F 4

$$$$
=
 OpenBabel10272400363D

 31 34  0  0  1  0  0  0  0  0999 V2000
  188.1220  177.4260  146.4740 C   0  0  0  0  0  0  0  0  0  0  0  0
  186.5590  177.8310  142.9940 C   0  0  1  0  0  3  0  0  0  0  0  0
  187.7660  178.0060  142.0780 C   0  0  0  0  0  0  0  0  0  0  0  0
  190.2250  177.5320  141.6710 C   0  0  0  0  0  2  0  0  0  0  0  0
  186.7890  177.9030  144.4940 C   0  0  0  0  0  0  0  0  0  0  0  0
  187.0950  177.9040  147.2900 C   0  0  0  0  0  3  0  0  0  0  0  0
  189.1080  177.8330  142.5630 N   0  0  0  0  0  2  0  0  0  0  0  0
  184.1880  178.5690  143.4090 C   0  0  2  0  0  3  0  0  0  0  0  0
  189.3830  176.9280  147.0800 C   0  0  0  0  0  1  0  0  0  0  0  0
  186.1840  178.4130  140.2440 C   0  0  0  0  0  3  0  0  0  0  0  0
  190.0340  178.1790  140.3790 N   0  0  0  0  0  2  0  0  0  0  0  0
  184.5140  178.7490  144.7870 O   0  0  0  0  0  0  0  0  0  0  0  0
  185.4340  178.7880  142.5530 C   0  0  2  0  0  3  0  0  0  0  0  0
  187.9630  177.4130  145.0860 C   0  0  0  0  0  3  0  0  0  0  0  0
  188.5620  178.7130  138.6590 O   0  0  0  0  0  0  0  0  0  0  0  0
  185.7350  178.3320  145.3310 C   0  0  0  0  0  0  0  0  0  0  0  0
  185.9020  178.3520  146.7190 C   0  0  0  0  0  3  0  0  0  0  0  0
  185.1660  178.6230  141.0800 C   0  0  0  0  0  3  0  0  0  0  0  0
  187.5600  178.2420  140.7630 C   0  0  0  0  0  0  0  0  0  0  0  0
  188.7180  178.3800  139.8630 C   0  0  0  0  0  0  0  0  0  0  0  0
  183.0760  179.5370  143.0260 C   0  0  0  0  0  2  0  0  0  0  0  0
  179.9820  177.4900  142.4220 F   0  0  0  0  0  0  0  0  0  0  0  0
  182.0070  179.5810  140.4180 O   0  0  0  0  0  0  0  0  0  0  0  0
  181.2930  178.7920  144.3980 O   0  0  0  0  0  0  0  0  0  0  0  0
  181.7410  178.8960  143.2270 C   0  0  0  0  0  0  0  0  0  0  0  0
  181.2920  178.5990  140.7520 C   0  0  0  0  0  0  0  0  0  0  0  0
  181.0000  178.3300  142.1330 N   0  0  0  0  0  0  0  0  0  0  0  0
  180.7510  177.7040  139.6890 C   0  0  0  0  0  2  0  0  0  0  0  0
  181.7040  176.5910  139.4220 C   0  0  0  0  0  0  0  0  0  0  0  0
  182.8020  176.5410  140.0350 O   0  0  0  0  0  0  0  0  0  0  0  0
  181.3560  175.5610  138.5050 N   0  0  0  0  0  1  0  0  0  0  0  0
  1  9  1  0  0  0  0
  1  6  1  0  0  0  0
  2  3  1  6  0  0  0
  2  5  1  0  0  0  0
  3  7  1  0  0  0  0
  4  7  1  0  0  0  0
  5 14  1  0  0  0  0
  5 16  2  0  0  0  0
  8 21  1  6  0  0  0
  8 12  1  0  0  0  0
 10 19  1  0  0  0  0
 10 18  2  0  0  0  0
 11  4  1  0  0  0  0
 12 16  1  0  0  0  0
 13 18  1  6  0  0  0
 13  2  1  0  0  0  0
 13  8  1  0  0  0  0
 14  1  2  0  0  0  0
 15 20  2  0  0  0  0
 16 17  1  0  0  0  0
 17  6  2  0  0  0  0
 19  3  2  0  0  0  0
 20 11  1  0  0  0  0
 20 19  1  0  0  0  0
 21 25  1  0  0  0  0
 23 26  2  0  0  0  0
 25 24  2  0  0  0  0
 26 27  1  0  0  0  0
 27 22  1  0  0  0  0
 27 25  1  0  0  0  0
 28 26  1  0  0  0  0
 29 28  1  0  0  0  0
 29 30  2  0  0  0  0
 31 29  1  0  0  0  0
M  END
>  <MODEL>
9

>  <REMARK>
 VINA RESULT:      -9.1      4.048      7.089
  Name = 
  4 active torsions:
  status: ('A' for Active; 'I' for Inactive)
    1  A    between atoms: C_1  and  C_24
    2  A    between atoms: C_9  and  C_23
    3  A    between atoms: C_15  and  C_23
    4  A    between atoms: C_19  and  C_24
                            x       y       z     vdW  Elec       q    Type
                         _______ _______ _______ _____ _____    ______ ____

>  <TORSDO>
F 4

$$$$
