=
 OpenBabel10272413573D

 30 36  0  0  1  0  0  0  0  0999 V2000
  187.8500  178.5490  141.8570 C   0  0  2  0  0  3  0  0  0  0  0  0
  189.2980  177.0320  140.3230 C   0  0  2  0  0  3  0  0  0  0  0  0
  190.8080  177.1170  144.3650 N   0  0  0  0  0  2  0  0  0  0  0  0
  187.1250  177.3810  142.5690 C   0  0  2  0  0  3  0  0  0  0  0  0
  186.9670  179.0610  140.8140 N   0  0  0  0  0  0  0  0  0  0  0  0
  183.3860  178.3180  141.9370 S   0  0  0  0  0  0  0  0  0  0  0  0
  184.8860  178.8790  145.4110 C   0  0  0  0  0  0  0  0  0  0  0  0
  185.0630  178.8840  142.3570 C   0  0  2  0  0  3  0  0  0  0  0  0
  184.7810  179.4550  139.9950 N   0  0  0  0  0  2  0  0  0  0  0  0
  187.2150  177.8810  145.4300 C   0  0  0  0  0  0  0  0  0  0  0  0
  189.6760  177.2910  145.2350 C   0  0  0  0  0  0  0  0  0  0  0  0
  185.6990  179.2100  141.0430 C   0  0  0  0  0  0  0  0  0  0  0  0
  185.8420  177.9010  143.2630 C   0  0  2  0  0  3  0  0  0  0  0  0
  190.6820  176.3880  140.1790 C   0  0  0  0  0  2  0  0  0  0  0  0
  187.1130  177.7600  146.7630 C   0  0  0  0  0  3  0  0  0  0  0  0
  184.6860  178.2350  146.7460 C   0  0  0  0  0  2  0  0  0  0  0  0
  182.4350  179.3170  139.4130 C   0  0  0  0  0  1  0  0  0  0  0  0
  188.7880  177.4190  138.9480 C   0  0  0  0  0  1  0  0  0  0  0  0
  190.6600  176.9790  142.9290 C   0  0  2  0  0  3  0  0  0  0  0  0
  191.8230  177.2880  140.6620 C   0  0  0  0  0  2  0  0  0  0  0  0
  183.5850  179.1060  140.3310 C   0  0  1  0  0  3  0  0  0  0  0  0
  189.2440  178.2510  141.2740 C   0  0  2  0  0  3  0  0  0  0  0  0
  187.9700  176.5340  143.5210 C   0  0  0  0  0  2  0  0  0  0  0  0
  189.8930  177.5050  146.4570 O   0  0  0  0  0  0  0  0  0  0  0  0
  188.3140  177.2740  144.7310 N   0  0  0  0  0  0  0  0  0  0  0  0
  185.9790  178.3610  147.5360 C   0  0  0  0  0  2  0  0  0  0  0  0
  184.0460  179.6580  144.9920 O   0  0  0  0  0  0  0  0  0  0  0  0
  191.6830  177.7670  142.1190 C   0  0  1  0  0  3  0  0  0  0  0  0
  190.3010  178.3520  142.3890 C   0  0  2  0  0  3  0  0  0  0  0  0
  186.1460  178.6010  144.6120 C   0  0  1  0  0  3  0  0  0  0  0  0
  1  5  1  6  0  0  0
  1  4  1  0  0  0  0
  2 18  1  6  0  0  0
  2 22  1  0  0  0  0
  3 11  1  0  0  0  0
  4 13  1  0  0  0  0
  4 23  1  1  0  0  0
  5 12  2  0  0  0  0
  6  8  1  0  0  0  0
  7 16  1  0  0  0  0
  8 12  1  6  0  0  0
  8 13  1  0  0  0  0
  9 21  1  0  0  0  0
  9 12  1  0  0  0  0
 10 15  2  0  0  0  0
 11 24  2  0  0  0  0
 13 30  1  0  0  0  0
 14  2  1  0  0  0  0
 14 20  1  0  0  0  0
 15 26  1  0  0  0  0
 16 26  1  0  0  0  0
 17 21  1  0  0  0  0
 19  3  1  0  0  0  0
 20 28  1  0  0  0  0
 21  6  1  0  0  0  0
 22  1  1  0  0  0  0
 22 29  1  0  0  0  0
 23 25  1  0  0  0  0
 25 11  1  0  0  0  0
 25 10  1  0  0  0  0
 27  7  2  0  0  0  0
 28 29  1  0  0  0  0
 28 19  1  0  0  0  0
 29 19  1  0  0  0  0
 30  7  1  0  0  0  0
 30 10  1  0  0  0  0
M  END
>  <MODEL>
1

>  <REMARK>
 VINA RESULT:     -10.9      0.000      0.000
  Name = 
  0 active torsions:
  status: ('A' for Active; 'I' for Inactive)
                            x       y       z     vdW  Elec       q    Type
                         _______ _______ _______ _____ _____    ______ ____

>  <TORSDO>
F 0

$$$$
=
 OpenBabel10272413573D

 30 36  0  0  1  0  0  0  0  0999 V2000
  188.9610  178.1670  143.9900 C   0  0  2  0  0  3  0  0  0  0  0  0
  190.3720  176.5110  145.4100 C   0  0  2  0  0  3  0  0  0  0  0  0
  186.9450  177.9640  147.5940 N   0  0  0  0  0  2  0  0  0  0  0  0
  187.8350  177.1540  143.6680 C   0  0  2  0  0  3  0  0  0  0  0  0
  189.8600  178.2240  142.8430 N   0  0  0  0  0  0  0  0  0  0  0  0
  187.7810  177.3040  139.7650 S   0  0  0  0  0  0  0  0  0  0  0  0
  185.0020  179.0450  141.7340 C   0  0  0  0  0  0  0  0  0  0  0  0
  187.9190  178.2100  141.3360 C   0  0  2  0  0  3  0  0  0  0  0  0
  190.2140  178.0380  140.5080 N   0  0  0  0  0  2  0  0  0  0  0  0
  185.2870  178.4530  144.1810 C   0  0  0  0  0  0  0  0  0  0  0  0
  185.9030  178.2070  146.6310 C   0  0  0  0  0  0  0  0  0  0  0  0
  189.3840  178.2410  141.6360 C   0  0  0  0  0  0  0  0  0  0  0  0
  187.0090  177.6520  142.4560 C   0  0  2  0  0  3  0  0  0  0  0  0
  190.6750  176.0670  146.8460 C   0  0  0  0  0  2  0  0  0  0  0  0
  183.9790  178.7020  144.3560 C   0  0  0  0  0  3  0  0  0  0  0  0
  183.5420  178.7840  141.9240 C   0  0  0  0  0  2  0  0  0  0  0  0
  190.1770  177.3920  138.1760 C   0  0  0  0  0  1  0  0  0  0  0  0
  191.6410  176.4110  144.5850 C   0  0  0  0  0  1  0  0  0  0  0  0
  188.2270  177.4040  147.2130 C   0  0  2  0  0  3  0  0  0  0  0  0
  190.7080  177.2280  147.8460 C   0  0  0  0  0  2  0  0  0  0  0  0
  189.5320  177.6240  139.4950 C   0  0  1  0  0  3  0  0  0  0  0  0
  189.7630  177.9280  145.2820 C   0  0  2  0  0  3  0  0  0  0  0  0
  186.9300  176.7480  144.8320 C   0  0  0  0  0  2  0  0  0  0  0  0
  184.8570  178.7880  147.0220 O   0  0  0  0  0  0  0  0  0  0  0  0
  186.0540  177.8450  145.2330 N   0  0  0  0  0  0  0  0  0  0  0  0
  183.1330  179.3210  143.2860 C   0  0  0  0  0  2  0  0  0  0  0  0
  185.3900  179.5380  140.6880 O   0  0  0  0  0  0  0  0  0  0  0  0
  189.4220  178.0740  147.8820 C   0  0  1  0  0  3  0  0  0  0  0  0
  188.9870  178.4970  146.4840 C   0  0  2  0  0  3  0  0  0  0  0  0
  185.9820  178.7430  142.8540 C   0  0  1  0  0  3  0  0  0  0  0  0
  1  5  1  6  0  0  0
  1 22  1  0  0  0  0
  2 18  1  6  0  0  0
  2 14  1  0  0  0  0
  4  1  1  0  0  0  0
  4 23  1  1  0  0  0
  7 16  1  0  0  0  0
  7 30  1  0  0  0  0
  8  6  1  6  0  0  0
  8 12  1  0  0  0  0
  8 13  1  0  0  0  0
  9 12  1  0  0  0  0
 10 15  2  0  0  0  0
 10 25  1  0  0  0  0
 11 24  2  0  0  0  0
 11  3  1  0  0  0  0
 12  5  2  0  0  0  0
 13 30  1  0  0  0  0
 13  4  1  0  0  0  0
 14 20  1  0  0  0  0
 16 26  1  0  0  0  0
 17 21  1  0  0  0  0
 19  3  1  0  0  0  0
 19 28  1  0  0  0  0
 20 28  1  0  0  0  0
 21  6  1  0  0  0  0
 21  9  1  0  0  0  0
 22  2  1  0  0  0  0
 22 29  1  0  0  0  0
 23 25  1  0  0  0  0
 25 11  1  0  0  0  0
 26 15  1  0  0  0  0
 27  7  2  0  0  0  0
 29 19  1  0  0  0  0
 29 28  1  0  0  0  0
 30 10  1  0  0  0  0
M  END
>  <MODEL>
2

>  <REMARK>
 VINA RESULT:     -10.3      2.290      4.695
  Name = 
  0 active torsions:
  status: ('A' for Active; 'I' for Inactive)
                            x       y       z     vdW  Elec       q    Type
                         _______ _______ _______ _____ _____    ______ ____

>  <TORSDO>
F 0

$$$$
=
 OpenBabel10272413573D

 30 36  0  0  1  0  0  0  0  0999 V2000
  189.1490  178.1330  142.8670 C   0  0  2  0  0  3  0  0  0  0  0  0
  190.8380  176.4030  143.8160 C   0  0  2  0  0  3  0  0  0  0  0  0
  187.8470  177.4780  146.7350 N   0  0  0  0  0  2  0  0  0  0  0  0
  188.0060  177.1110  142.6480 C   0  0  2  0  0  3  0  0  0  0  0  0
  189.8160  178.3450  141.5870 N   0  0  0  0  0  0  0  0  0  0  0  0
  187.2210  177.6550  138.8610 S   0  0  0  0  0  0  0  0  0  0  0  0
  184.8190  179.0660  141.4830 C   0  0  0  0  0  0  0  0  0  0  0  0
  187.6290  178.4010  140.4690 C   0  0  2  0  0  3  0  0  0  0  0  0
  189.7320  178.4140  139.2210 N   0  0  0  0  0  2  0  0  0  0  0  0
  185.5700  178.2400  143.7580 C   0  0  0  0  0  0  0  0  0  0  0  0
  186.6380  177.7720  146.0120 C   0  0  0  0  0  0  0  0  0  0  0  0
  189.1230  178.4640  140.4970 C   0  0  0  0  0  0  0  0  0  0  0  0
  186.9570  177.6940  141.6700 C   0  0  2  0  0  3  0  0  0  0  0  0
  191.4140  175.8280  145.1160 C   0  0  0  0  0  2  0  0  0  0  0  0
  184.3120  178.4140  144.1950 C   0  0  0  0  0  3  0  0  0  0  0  0
  183.4260  178.7240  141.9070 C   0  0  0  0  0  2  0  0  0  0  0  0
  189.2750  178.0070  136.8790 C   0  0  0  0  0  1  0  0  0  0  0  0
  191.9330  176.4420  142.7670 C   0  0  0  0  0  1  0  0  0  0  0  0
  189.0480  177.0150  146.0670 C   0  0  2  0  0  3  0  0  0  0  0  0
  191.6070  176.8810  146.2120 C   0  0  0  0  0  2  0  0  0  0  0  0
  188.8830  178.0760  138.3100 C   0  0  1  0  0  3  0  0  0  0  0  0
  190.1830  177.7980  143.9560 C   0  0  2  0  0  3  0  0  0  0  0  0
  187.3440  176.5500  143.9080 C   0  0  0  0  0  2  0  0  0  0  0  0
  185.6700  178.2650  146.6490 O   0  0  0  0  0  0  0  0  0  0  0  0
  186.5330  177.5610  144.5790 N   0  0  0  0  0  0  0  0  0  0  0  0
  183.2670  179.1010  143.3720 C   0  0  0  0  0  2  0  0  0  0  0  0
  184.9930  179.6790  140.4430 O   0  0  0  0  0  0  0  0  0  0  0  0
  190.3310  177.6630  146.5740 C   0  0  1  0  0  3  0  0  0  0  0  0
  189.6330  178.2080  145.3340 C   0  0  2  0  0  3  0  0  0  0  0  0
  185.9970  178.6930  142.3650 C   0  0  1  0  0  3  0  0  0  0  0  0
  1  5  1  6  0  0  0
  1 22  1  0  0  0  0
  2 18  1  6  0  0  0
  2 22  1  0  0  0  0
  2 14  1  0  0  0  0
  4  1  1  0  0  0  0
  4 23  1  1  0  0  0
  7 16  1  0  0  0  0
  7 30  1  0  0  0  0
  8  6  1  6  0  0  0
  8 12  1  0  0  0  0
  8 13  1  0  0  0  0
  9 12  1  0  0  0  0
 10 15  2  0  0  0  0
 10 25  1  0  0  0  0
 11 24  2  0  0  0  0
 11  3  1  0  0  0  0
 12  5  2  0  0  0  0
 13 30  1  0  0  0  0
 13  4  1  0  0  0  0
 14 20  1  0  0  0  0
 16 26  1  0  0  0  0
 17 21  1  0  0  0  0
 19 28  1  0  0  0  0
 19  3  1  0  0  0  0
 20 28  1  0  0  0  0
 21  6  1  0  0  0  0
 21  9  1  0  0  0  0
 22 29  1  0  0  0  0
 23 25  1  0  0  0  0
 25 11  1  0  0  0  0
 26 15  1  0  0  0  0
 27  7  2  0  0  0  0
 29 19  1  0  0  0  0
 29 28  1  0  0  0  0
 30 10  1  0  0  0  0
M  END
>  <MODEL>
3

>  <REMARK>
 VINA RESULT:     -10.2      2.225      4.028
  Name = 
  0 active torsions:
  status: ('A' for Active; 'I' for Inactive)
                            x       y       z     vdW  Elec       q    Type
                         _______ _______ _______ _____ _____    ______ ____

>  <TORSDO>
F 0

$$$$
=
 OpenBabel10272413573D

 30 36  0  0  1  0  0  0  0  0999 V2000
  185.0900  177.9180  142.2940 C   0  0  2  0  0  3  0  0  0  0  0  0
  185.1230  179.0060  144.6520 C   0  0  2  0  0  3  0  0  0  0  0  0
  189.0620  177.7380  143.4260 N   0  0  0  0  0  2  0  0  0  0  0  0
  185.6840  179.1450  141.5620 C   0  0  2  0  0  3  0  0  0  0  0  0
  183.6420  177.9390  142.1120 N   0  0  0  0  0  0  0  0  0  0  0  0
  182.9720  179.7760  138.8220 S   0  0  0  0  0  0  0  0  0  0  0  0
  186.2930  178.1640  137.8200 C   0  0  0  0  0  0  0  0  0  0  0  0
  183.9600  178.5690  139.7580 C   0  0  2  0  0  3  0  0  0  0  0  0
  181.7520  178.5190  140.8080 N   0  0  0  0  0  2  0  0  0  0  0  0
  187.8260  178.2080  139.8360 C   0  0  0  0  0  0  0  0  0  0  0  0
  189.1190  177.8640  141.9930 C   0  0  0  0  0  0  0  0  0  0  0  0
  183.1300  178.2380  140.9580 C   0  0  0  0  0  0  0  0  0  0  0  0
  185.4070  179.0380  140.0420 C   0  0  2  0  0  3  0  0  0  0  0  0
  185.9290  179.1040  145.9540 C   0  0  0  0  0  2  0  0  0  0  0  0
  188.8720  178.1490  138.9960 C   0  0  0  0  0  3  0  0  0  0  0  0
  187.4690  178.6200  137.0150 C   0  0  0  0  0  2  0  0  0  0  0  0
  180.1500  179.6080  139.3560 C   0  0  0  0  0  1  0  0  0  0  0  0
  183.6440  179.0560  144.9840 C   0  0  0  0  0  1  0  0  0  0  0  0
  187.8950  178.1430  144.1870 C   0  0  2  0  0  3  0  0  0  0  0  0
  186.5830  177.7800  146.3620 C   0  0  0  0  0  2  0  0  0  0  0  0
  181.5310  179.2300  139.7550 C   0  0  1  0  0  3  0  0  0  0  0  0
  185.4350  177.7630  143.7860 C   0  0  2  0  0  3  0  0  0  0  0  0
  187.1550  179.4580  141.8400 C   0  0  0  0  0  2  0  0  0  0  0  0
  190.1240  177.3980  141.3950 O   0  0  0  0  0  0  0  0  0  0  0  0
  188.0350  178.4640  141.2350 N   0  0  0  0  0  0  0  0  0  0  0  0
  188.7060  177.9000  137.5290 C   0  0  0  0  0  2  0  0  0  0  0  0
  185.2700  177.8290  137.2450 O   0  0  0  0  0  0  0  0  0  0  0  0
  187.5030  177.1670  145.2900 C   0  0  1  0  0  3  0  0  0  0  0  0
  186.8190  177.1040  143.9300 C   0  0  2  0  0  3  0  0  0  0  0  0
  186.3920  178.0750  139.3320 C   0  0  1  0  0  3  0  0  0  0  0  0
  1  5  1  1  0  0  0
  1 22  1  0  0  0  0
  2 18  1  1  0  0  0
  2 14  1  0  0  0  0
  3 19  1  0  0  0  0
  4 23  1  6  0  0  0
  4  1  1  0  0  0  0
  6 21  1  0  0  0  0
  7 30  1  0  0  0  0
  8  6  1  1  0  0  0
  8 13  1  0  0  0  0
  8 12  1  0  0  0  0
  9 12  1  0  0  0  0
 10 25  1  0  0  0  0
 11  3  1  0  0  0  0
 12  5  2  0  0  0  0
 13  4  1  0  0  0  0
 14 20  1  0  0  0  0
 15 10  2  0  0  0  0
 16 26  1  0  0  0  0
 16  7  1  0  0  0  0
 17 21  1  0  0  0  0
 19 28  1  0  0  0  0
 21  9  1  0  0  0  0
 22 29  1  0  0  0  0
 22  2  1  0  0  0  0
 24 11  2  0  0  0  0
 25 23  1  0  0  0  0
 25 11  1  0  0  0  0
 26 15  1  0  0  0  0
 27  7  2  0  0  0  0
 28 20  1  0  0  0  0
 29 19  1  0  0  0  0
 29 28  1  0  0  0  0
 30 10  1  0  0  0  0
 30 13  1  0  0  0  0
M  END
>  <MODEL>
4

>  <REMARK>
 VINA RESULT:      -9.2      2.396      5.535
  Name = 
  0 active torsions:
  status: ('A' for Active; 'I' for Inactive)
                            x       y       z     vdW  Elec       q    Type
                         _______ _______ _______ _____ _____    ______ ____

>  <TORSDO>
F 0

$$$$
=
 OpenBabel10272413573D

 30 36  0  0  1  0  0  0  0  0999 V2000
  188.8260  176.8580  141.4390 C   0  0  2  0  0  3  0  0  0  0  0  0
  190.3360  177.7010  139.5010 C   0  0  2  0  0  3  0  0  0  0  0  0
  186.1610  178.4670  138.7190 N   0  0  0  0  0  2  0  0  0  0  0  0
  188.5680  178.2610  142.0400 C   0  0  2  0  0  3  0  0  0  0  0  0
  189.8820  176.2190  142.2180 N   0  0  0  0  0  0  0  0  0  0  0  0
  189.7240  177.7250  145.7320 S   0  0  0  0  0  0  0  0  0  0  0  0
  185.9810  177.8890  144.9570 C   0  0  0  0  0  0  0  0  0  0  0  0
  188.8480  177.0590  144.2830 C   0  0  2  0  0  3  0  0  0  0  0  0
  191.0210  175.9350  144.2750 N   0  0  0  0  0  2  0  0  0  0  0  0
  185.7130  178.5200  142.5180 C   0  0  0  0  0  0  0  0  0  0  0  0
  185.5260  178.6870  139.9920 C   0  0  0  0  0  0  0  0  0  0  0  0
  189.8920  176.3140  143.5120 C   0  0  0  0  0  0  0  0  0  0  0  0
  188.0530  178.1260  143.4940 C   0  0  2  0  0  3  0  0  0  0  0  0
  190.3350  178.0850  138.0160 C   0  0  0  0  0  2  0  0  0  0  0  0
  184.4940  178.9990  142.8130 C   0  0  0  0  0  3  0  0  0  0  0  0
  184.9020  178.8820  145.2500 C   0  0  0  0  0  2  0  0  0  0  0  0
  192.0900  176.2430  146.4250 C   0  0  0  0  0  1  0  0  0  0  0  0
  191.6590  177.0430  139.8400 C   0  0  0  0  0  1  0  0  0  0  0  0
  187.5890  178.2430  138.6010 C   0  0  2  0  0  3  0  0  0  0  0  0
  189.4330  177.1910  137.1590 C   0  0  0  0  0  2  0  0  0  0  0  0
  191.0290  176.5240  145.4230 C   0  0  1  0  0  3  0  0  0  0  0  0
  189.1610  176.7940  139.9380 C   0  0  2  0  0  3  0  0  0  0  0  0
  187.6830  179.2010  141.2200 C   0  0  0  0  0  2  0  0  0  0  0  0
  184.2710  178.7730  140.0230 O   0  0  0  0  0  0  0  0  0  0  0  0
  186.2910  178.7620  141.2250 N   0  0  0  0  0  0  0  0  0  0  0  0
  183.8550  178.7860  144.1510 C   0  0  0  0  0  2  0  0  0  0  0  0
  186.3740  177.1530  145.8470 O   0  0  0  0  0  0  0  0  0  0  0  0
  187.9660  177.1350  137.6250 C   0  0  1  0  0  3  0  0  0  0  0  0
  187.8600  176.8410  139.1170 C   0  0  2  0  0  3  0  0  0  0  0  0
  186.5460  177.7690  143.5530 C   0  0  1  0  0  3  0  0  0  0  0  0
  1  4  1  0  0  0  0
  1  5  1  1  0  0  0
  2 18  1  6  0  0  0
  2 22  1  0  0  0  0
  3 11  1  0  0  0  0
  4 23  1  6  0  0  0
  4 13  1  0  0  0  0
  5 12  2  0  0  0  0
  7 16  1  0  0  0  0
  7 27  2  0  0  0  0
  8 12  1  6  0  0  0
  8  6  1  0  0  0  0
  9 21  1  0  0  0  0
 10 15  2  0  0  0  0
 10 30  1  0  0  0  0
 11 24  2  0  0  0  0
 11 25  1  0  0  0  0
 12  9  1  0  0  0  0
 13 30  1  0  0  0  0
 13  8  1  0  0  0  0
 14  2  1  0  0  0  0
 15 26  1  0  0  0  0
 19  3  1  0  0  0  0
 19 29  1  0  0  0  0
 20 28  1  0  0  0  0
 20 14  1  0  0  0  0
 21  6  1  0  0  0  0
 21 17  1  0  0  0  0
 22  1  1  0  0  0  0
 23 25  1  0  0  0  0
 25 10  1  0  0  0  0
 26 16  1  0  0  0  0
 28 19  1  0  0  0  0
 28 29  1  0  0  0  0
 29 22  1  0  0  0  0
 30  7  1  0  0  0  0
M  END
>  <MODEL>
5

>  <REMARK>
 VINA RESULT:      -8.8      2.233      5.326
  Name = 
  0 active torsions:
  status: ('A' for Active; 'I' for Inactive)
                            x       y       z     vdW  Elec       q    Type
                         _______ _______ _______ _____ _____    ______ ____

>  <TORSDO>
F 0

$$$$
=
 OpenBabel10272413573D

 30 36  0  0  1  0  0  0  0  0999 V2000
  187.5720  177.3200  143.5680 C   0  0  2  0  0  3  0  0  0  0  0  0
  185.9230  179.3040  143.2670 C   0  0  2  0  0  3  0  0  0  0  0  0
  186.3170  178.1740  147.4130 N   0  0  0  0  0  2  0  0  0  0  0  0
  188.7410  178.1850  144.0980 C   0  0  2  0  0  3  0  0  0  0  0  0
  187.8030  177.0670  142.1500 N   0  0  0  0  0  0  0  0  0  0  0  0
  191.5880  177.2170  141.6050 S   0  0  0  0  0  0  0  0  0  0  0  0
  191.6570  175.7940  145.1550 C   0  0  0  0  0  0  0  0  0  0  0  0
  190.1820  176.6690  142.6210 C   0  0  2  0  0  3  0  0  0  0  0  0
  189.3040  176.7760  140.3410 N   0  0  0  0  0  2  0  0  0  0  0  0
  189.8000  176.8990  146.4790 C   0  0  0  0  0  0  0  0  0  0  0  0
  187.6580  177.6840  147.5910 C   0  0  0  0  0  0  0  0  0  0  0  0
  188.9920  176.7740  141.7200 C   0  0  0  0  0  0  0  0  0  0  0  0
  190.0730  177.4040  143.9780 C   0  0  2  0  0  3  0  0  0  0  0  0
  184.7620  180.0540  143.9320 C   0  0  0  0  0  2  0  0  0  0  0  0
  190.4880  176.6280  147.6000 C   0  0  0  0  0  3  0  0  0  0  0  0
  192.5310  176.0160  146.3480 C   0  0  0  0  0  2  0  0  0  0  0  0
  191.1470  176.9160  138.7780 C   0  0  0  0  0  1  0  0  0  0  0  0
  185.7050  179.2910  141.7660 C   0  0  0  0  0  1  0  0  0  0  0  0
  185.8550  178.7040  146.1450 C   0  0  2  0  0  3  0  0  0  0  0  0
  183.7930  179.1320  144.6790 C   0  0  0  0  0  2  0  0  0  0  0  0
  190.5690  176.9340  140.1470 C   0  0  1  0  0  3  0  0  0  0  0  0
  186.1490  177.8630  143.7850 C   0  0  2  0  0  3  0  0  0  0  0  0
  188.5680  178.7810  145.4960 C   0  0  0  0  0  2  0  0  0  0  0  0
  187.9530  177.1470  148.6910 O   0  0  0  0  0  0  0  0  0  0  0  0
  188.6450  177.7520  146.5280 N   0  0  0  0  0  0  0  0  0  0  0  0
  191.7070  175.7580  147.5990 C   0  0  0  0  0  2  0  0  0  0  0  0
  192.0680  175.1110  144.2310 O   0  0  0  0  0  0  0  0  0  0  0  0
  184.4540  178.2500  145.7540 C   0  0  1  0  0  3  0  0  0  0  0  0
  185.6780  177.5210  145.2100 C   0  0  2  0  0  3  0  0  0  0  0  0
  190.2530  176.3720  145.1200 C   0  0  1  0  0  3  0  0  0  0  0  0
  1  5  1  6  0  0  0
  1 22  1  0  0  0  0
  1  4  1  0  0  0  0
  2 18  1  6  0  0  0
  2 22  1  0  0  0  0
  2 14  1  0  0  0  0
  3 11  1  0  0  0  0
  4 23  1  1  0  0  0
  7 16  1  0  0  0  0
  8  6  1  6  0  0  0
  8 13  1  0  0  0  0
  9 12  1  0  0  0  0
 10 25  1  0  0  0  0
 10 15  2  0  0  0  0
 11 24  2  0  0  0  0
 12  5  2  0  0  0  0
 12  8  1  0  0  0  0
 13  4  1  0  0  0  0
 13 30  1  0  0  0  0
 14 20  1  0  0  0  0
 16 26  1  0  0  0  0
 17 21  1  0  0  0  0
 19  3  1  0  0  0  0
 20 28  1  0  0  0  0
 21  9  1  0  0  0  0
 21  6  1  0  0  0  0
 22 29  1  0  0  0  0
 23 25  1  0  0  0  0
 25 11  1  0  0  0  0
 26 15  1  0  0  0  0
 27  7  2  0  0  0  0
 28 19  1  0  0  0  0
 29 28  1  0  0  0  0
 29 19  1  0  0  0  0
 30  7  1  0  0  0  0
 30 10  1  0  0  0  0
M  END
>  <MODEL>
6

>  <REMARK>
 VINA RESULT:      -8.7      2.653      5.803
  Name = 
  0 active torsions:
  status: ('A' for Active; 'I' for Inactive)
                            x       y       z     vdW  Elec       q    Type
                         _______ _______ _______ _____ _____    ______ ____

>  <TORSDO>
F 0

$$$$
=
 OpenBabel10272413573D

 30 36  0  0  1  0  0  0  0  0999 V2000
  188.0890  178.1920  144.9160 C   0  0  2  0  0  3  0  0  0  0  0  0
  185.8980  177.5200  146.1390 C   0  0  2  0  0  3  0  0  0  0  0  0
  185.1270  178.8660  142.1110 N   0  0  0  0  0  2  0  0  0  0  0  0
  188.1700  176.9090  144.0540 C   0  0  2  0  0  3  0  0  0  0  0  0
  188.9840  178.0290  146.0570 N   0  0  0  0  0  0  0  0  0  0  0  0
  191.7460  175.6200  144.9550 S   0  0  0  0  0  0  0  0  0  0  0  0
  191.1690  177.2930  141.5640 C   0  0  0  0  0  0  0  0  0  0  0  0
  190.6740  177.0400  144.5730 C   0  0  2  0  0  3  0  0  0  0  0  0
  190.9430  177.0940  147.0030 N   0  0  0  0  0  2  0  0  0  0  0  0
  188.6830  177.7060  141.3070 C   0  0  0  0  0  0  0  0  0  0  0  0
  186.2740  178.5070  141.3190 C   0  0  0  0  0  0  0  0  0  0  0  0
  190.1580  177.5010  145.8990 C   0  0  0  0  0  0  0  0  0  0  0  0
  189.6050  176.7380  143.4960 C   0  0  2  0  0  3  0  0  0  0  0  0
  184.3750  177.7050  146.1310 C   0  0  0  0  0  2  0  0  0  0  0  0
  188.8570  177.7050  139.9750 C   0  0  0  0  0  3  0  0  0  0  0  0
  191.1520  176.8010  140.1520 C   0  0  0  0  0  2  0  0  0  0  0  0
  192.7850  175.6570  147.6380 C   0  0  0  0  0  1  0  0  0  0  0  0
  186.3740  177.4120  147.5750 C   0  0  0  0  0  1  0  0  0  0  0  0
  185.0170  178.5050  143.5120 C   0  0  2  0  0  3  0  0  0  0  0  0
  183.9390  179.1250  145.7570 C   0  0  0  0  0  2  0  0  0  0  0  0
  191.8080  176.2010  146.6590 C   0  0  1  0  0  3  0  0  0  0  0  0
  186.6910  178.6210  145.3950 C   0  0  2  0  0  3  0  0  0  0  0  0
  187.1220  176.7620  142.9500 C   0  0  0  0  0  2  0  0  0  0  0  0
  186.3420  178.9420  140.1400 O   0  0  0  0  0  0  0  0  0  0  0  0
  187.3570  177.7060  141.8620 N   0  0  0  0  0  0  0  0  0  0  0  0
  190.2170  177.6900  139.3470 C   0  0  0  0  0  2  0  0  0  0  0  0
  192.2390  177.4470  142.1300 O   0  0  0  0  0  0  0  0  0  0  0  0
  184.4740  179.6190  144.4000 C   0  0  1  0  0  3  0  0  0  0  0  0
  185.9780  179.4000  144.2750 C   0  0  2  0  0  3  0  0  0  0  0  0
  189.8690  177.6420  142.2650 C   0  0  1  0  0  3  0  0  0  0  0  0
  1 22  1  0  0  0  0
  1  5  1  1  0  0  0
  2 18  1  1  0  0  0
  3 19  1  0  0  0  0
  4 23  1  6  0  0  0
  4  1  1  0  0  0  0
  6 21  1  0  0  0  0
  7 27  2  0  0  0  0
  7 30  1  0  0  0  0
  8  6  1  1  0  0  0
  8 12  1  0  0  0  0
 10 25  1  0  0  0  0
 10 30  1  0  0  0  0
 11 25  1  0  0  0  0
 11  3  1  0  0  0  0
 12  5  2  0  0  0  0
 12  9  1  0  0  0  0
 13  4  1  0  0  0  0
 13  8  1  0  0  0  0
 14  2  1  0  0  0  0
 15 10  2  0  0  0  0
 16  7  1  0  0  0  0
 19 29  1  0  0  0  0
 19 28  1  0  0  0  0
 20 14  1  0  0  0  0
 21  9  1  0  0  0  0
 21 17  1  0  0  0  0
 22  2  1  0  0  0  0
 24 11  2  0  0  0  0
 25 23  1  0  0  0  0
 26 15  1  0  0  0  0
 26 16  1  0  0  0  0
 28 20  1  0  0  0  0
 29 28  1  0  0  0  0
 29 22  1  0  0  0  0
 30 13  1  0  0  0  0
M  END
>  <MODEL>
7

>  <REMARK>
 VINA RESULT:      -8.2      2.614      7.301
  Name = 
  0 active torsions:
  status: ('A' for Active; 'I' for Inactive)
                            x       y       z     vdW  Elec       q    Type
                         _______ _______ _______ _____ _____    ______ ____

>  <TORSDO>
F 0

$$$$
=
 OpenBabel10272413573D

 30 36  0  0  1  0  0  0  0  0999 V2000
  188.1060  177.1210  142.8250 C   0  0  2  0  0  3  0  0  0  0  0  0
  189.5230  177.8120  144.8890 C   0  0  2  0  0  3  0  0  0  0  0  0
  192.0140  176.8060  141.5110 N   0  0  0  0  0  2  0  0  0  0  0  0
  188.2950  178.4580  142.0680 C   0  0  2  0  0  3  0  0  0  0  0  0
  186.8060  177.1550  143.4850 N   0  0  0  0  0  0  0  0  0  0  0  0
  184.5840  179.4930  141.4270 S   0  0  0  0  0  0  0  0  0  0  0  0
  186.6570  178.1050  138.5280 C   0  0  0  0  0  0  0  0  0  0  0  0
  185.8230  178.1620  141.4710 C   0  0  2  0  0  3  0  0  0  0  0  0
  184.5640  177.9160  143.5540 N   0  0  0  0  0  2  0  0  0  0  0  0
  189.0460  177.8390  139.3300 C   0  0  0  0  0  0  0  0  0  0  0  0
  191.2810  177.1640  140.3260 C   0  0  0  0  0  0  0  0  0  0  0  0
  185.7690  177.6310  142.8690 C   0  0  0  0  0  0  0  0  0  0  0  0
  187.2180  178.5960  140.9630 C   0  0  2  0  0  3  0  0  0  0  0  0
  190.9180  177.7070  145.5190 C   0  0  0  0  0  2  0  0  0  0  0  0
  189.4470  177.9300  138.0510 C   0  0  0  0  0  3  0  0  0  0  0  0
  187.2270  178.6990  137.2790 C   0  0  0  0  0  2  0  0  0  0  0  0
  182.5220  179.2080  143.4120 C   0  0  0  0  0  1  0  0  0  0  0  0
  188.4820  177.7900  145.9920 C   0  0  0  0  0  1  0  0  0  0  0  0
  191.4980  177.0680  142.8410 C   0  0  2  0  0  3  0  0  0  0  0  0
  191.5790  176.3420  145.3010 C   0  0  0  0  0  2  0  0  0  0  0  0
  183.8580  178.7870  142.9160 C   0  0  1  0  0  3  0  0  0  0  0  0
  189.2030  176.7290  143.8310 C   0  0  2  0  0  3  0  0  0  0  0  0
  189.6950  178.7390  141.5200 C   0  0  0  0  0  2  0  0  0  0  0  0
  191.7480  176.8130  139.2100 O   0  0  0  0  0  0  0  0  0  0  0  0
  190.0120  177.8660  140.3930 N   0  0  0  0  0  0  0  0  0  0  0  0
  188.4790  177.9210  136.9080 C   0  0  0  0  0  2  0  0  0  0  0  0
  185.4640  177.8550  138.5800 O   0  0  0  0  0  0  0  0  0  0  0  0
  191.7020  175.9220  143.8250 C   0  0  1  0  0  3  0  0  0  0  0  0
  190.3780  176.0730  143.0850 C   0  0  2  0  0  3  0  0  0  0  0  0
  187.5670  177.7720  139.6970 C   0  0  1  0  0  3  0  0  0  0  0  0
  1  5  1  1  0  0  0
  1 22  1  0  0  0  0
  2 14  1  0  0  0  0
  2 18  1  1  0  0  0
  3 19  1  0  0  0  0
  4 23  1  6  0  0  0
  4  1  1  0  0  0  0
  6 21  1  0  0  0  0
  7 27  2  0  0  0  0
  7 30  1  0  0  0  0
  8  6  1  1  0  0  0
  8 12  1  0  0  0  0
 10 30  1  0  0  0  0
 10 25  1  0  0  0  0
 11 25  1  0  0  0  0
 11  3  1  0  0  0  0
 12  5  2  0  0  0  0
 12  9  1  0  0  0  0
 13  8  1  0  0  0  0
 13  4  1  0  0  0  0
 15 10  2  0  0  0  0
 16  7  1  0  0  0  0
 19 29  1  0  0  0  0
 19 28  1  0  0  0  0
 20 14  1  0  0  0  0
 21 17  1  0  0  0  0
 21  9  1  0  0  0  0
 22  2  1  0  0  0  0
 24 11  2  0  0  0  0
 25 23  1  0  0  0  0
 26 16  1  0  0  0  0
 26 15  1  0  0  0  0
 28 20  1  0  0  0  0
 29 28  1  0  0  0  0
 29 22  1  0  0  0  0
 30 13  1  0  0  0  0
M  END
>  <MODEL>
8

>  <REMARK>
 VINA RESULT:      -7.9      2.706      5.188
  Name = 
  0 active torsions:
  status: ('A' for Active; 'I' for Inactive)
                            x       y       z     vdW  Elec       q    Type
                         _______ _______ _______ _____ _____    ______ ____

>  <TORSDO>
F 0

$$$$
