=
 OpenBabel10272400403D

 25 28  0  0  1  0  0  0  0  0999 V2000
  187.1700  177.8660  145.5170 C   0  0  0  0  0  0  0  0  0  0  0  0
  188.4500  177.3970  145.1570 C   0  0  0  0  0  0  0  0  0  0  0  0
  187.8090  177.9160  147.8730 C   0  0  0  0  0  3  0  0  0  0  0  0
  186.0670  178.1410  144.6830 C   0  0  0  0  0  0  0  0  0  0  0  0
  183.6880  178.7890  143.3660 C   0  0  0  0  0  3  0  0  0  0  0  0
  189.0810  177.4510  147.5270 C   0  0  0  0  0  3  0  0  0  0  0  0
  184.9550  178.5930  145.3910 C   0  0  0  0  0  0  0  0  0  0  0  0
  183.7590  178.9220  144.7600 C   0  0  0  0  0  3  0  0  0  0  0  0
  190.7010  176.7160  145.8410 C   0  0  0  0  0  0  0  0  0  0  0  0
  191.7530  176.4740  146.8730 C   0  0  0  0  0  1  0  0  0  0  0  0
  188.7940  177.1330  143.8250 C   0  0  0  0  0  3  0  0  0  0  0  0
  184.8000  178.3340  142.6360 C   0  0  0  0  0  3  0  0  0  0  0  0
  186.8780  178.1150  146.8600 C   0  0  0  0  0  0  0  0  0  0  0  0
  185.2940  178.6650  147.0390 S   0  0  0  0  0  0  0  0  0  0  0  0
  191.0160  176.4600  144.5030 C   0  0  0  0  0  3  0  0  0  0  0  0
  185.9980  178.0070  143.2930 C   0  0  0  0  0  3  0  0  0  0  0  0
  190.0710  176.6710  143.4970 C   0  0  0  0  0  0  0  0  0  0  0  0
  189.4180  177.1870  146.1810 C   0  0  0  0  0  0  0  0  0  0  0  0
  190.4140  176.3760  142.0790 C   0  0  0  0  0  2  0  0  0  0  0  0
  190.1950  177.6110  141.2220 C   0  0  0  0  0  2  0  0  0  0  0  0
  189.4660  177.2450  139.9400 C   0  0  2  0  0  3  0  0  0  0  0  0
  190.3940  176.9310  138.9480 O   0  0  0  0  0  1  0  0  0  0  0  0
  188.5950  178.3690  139.4800 C   0  0  0  0  0  0  0  0  0  0  0  0
  189.0180  179.1850  138.4390 O   0  0  0  0  0  0  0  0  0  0  0  0
  187.4750  178.5730  140.0180 O   0  0  0  0  0  1  0  0  0  0  0  0
  1 13  1  0  0  0  0
  2  1  2  0  0  0  0
  2 18  1  0  0  0  0
  4  7  1  0  0  0  0
  4  1  1  0  0  0  0
  5  8  1  0  0  0  0
  6  3  1  0  0  0  0
  7 14  1  0  0  0  0
  8  7  2  0  0  0  0
  9 18  1  0  0  0  0
  9 10  1  0  0  0  0
 11  2  1  0  0  0  0
 12 16  1  0  0  0  0
 12  5  2  0  0  0  0
 13 14  1  0  0  0  0
 13  3  2  0  0  0  0
 15  9  2  0  0  0  0
 16  4  2  0  0  0  0
 17 11  2  0  0  0  0
 17 15  1  0  0  0  0
 18  6  2  0  0  0  0
 19 17  1  0  0  0  0
 20 19  1  0  0  0  0
 21 22  1  6  0  0  0
 21 20  1  0  0  0  0
 23 21  1  0  0  0  0
 23 25  1  0  0  0  0
 24 23  2  0  0  0  0
M  END
>  <MODEL>
1

>  <REMARK>
 VINA RESULT:     -10.8      0.000      0.000
  Name = 
  4 active torsions:
  status: ('A' for Active; 'I' for Inactive)
    1  A    between atoms: C_2  and  C_21
    2  A    between atoms: C_6  and  C_15
    3  A    between atoms: C_6  and  C_23
    4  A    between atoms: C_15  and  C_21
                            x       y       z     vdW  Elec       q    Type
                         _______ _______ _______ _____ _____    ______ ____

>  <TORSDO>
F 4

$$$$
=
 OpenBabel10272400403D

 25 28  0  0  1  0  0  0  0  0999 V2000
  187.5900  177.8090  145.6810 C   0  0  0  0  0  0  0  0  0  0  0  0
  186.7330  178.1200  144.6040 C   0  0  0  0  0  0  0  0  0  0  0  0
  185.7900  178.2170  147.2800 C   0  0  0  0  0  3  0  0  0  0  0  0
  188.9460  177.4270  145.6450 C   0  0  0  0  0  0  0  0  0  0  0  0
  191.6120  176.6510  145.9720 C   0  0  0  0  0  3  0  0  0  0  0  0
  184.9330  178.5280  146.2190 C   0  0  0  0  0  3  0  0  0  0  0  0
  189.4760  177.1960  146.9130 C   0  0  0  0  0  0  0  0  0  0  0  0
  190.7990  176.8090  147.1040 C   0  0  0  0  0  3  0  0  0  0  0  0
  184.5160  178.8020  143.8200 C   0  0  0  0  0  0  0  0  0  0  0  0
  183.0950  179.1950  144.0540 C   0  0  0  0  0  1  0  0  0  0  0  0
  187.1730  178.0790  143.2740 C   0  0  0  0  0  3  0  0  0  0  0  0
  191.0940  176.8800  144.6850 C   0  0  0  0  0  3  0  0  0  0  0  0
  187.1030  177.8630  146.9880 C   0  0  0  0  0  0  0  0  0  0  0  0
  188.3060  177.4520  148.0960 S   0  0  0  0  0  0  0  0  0  0  0  0
  184.9820  178.7550  142.5030 C   0  0  0  0  0  3  0  0  0  0  0  0
  189.7560  177.2700  144.5150 C   0  0  0  0  0  3  0  0  0  0  0  0
  186.3010  178.3900  142.2280 C   0  0  0  0  0  0  0  0  0  0  0  0
  185.3850  178.4850  144.8830 C   0  0  0  0  0  0  0  0  0  0  0  0
  186.7890  178.3620  140.8220 C   0  0  0  0  0  2  0  0  0  0  0  0
  188.3000  178.5140  140.7900 C   0  0  0  0  0  2  0  0  0  0  0  0
  188.9250  177.4320  139.9250 C   0  0  2  0  0  3  0  0  0  0  0  0
  189.9410  176.7940  140.6350 O   0  0  0  0  0  1  0  0  0  0  0  0
  189.4770  178.0100  138.6620 C   0  0  0  0  0  0  0  0  0  0  0  0
  189.0140  179.2390  138.2080 O   0  0  0  0  0  1  0  0  0  0  0  0
  190.3670  177.3990  138.0140 O   0  0  0  0  0  0  0  0  0  0  0  0
  1 13  2  0  0  0  0
  2 18  1  0  0  0  0
  2  1  1  0  0  0  0
  4  1  1  0  0  0  0
  4  7  1  0  0  0  0
  5  8  1  0  0  0  0
  6  3  2  0  0  0  0
  7  8  2  0  0  0  0
  7 14  1  0  0  0  0
  9 10  1  0  0  0  0
  9 18  2  0  0  0  0
 11  2  2  0  0  0  0
 12  5  2  0  0  0  0
 13  3  1  0  0  0  0
 13 14  1  0  0  0  0
 15  9  1  0  0  0  0
 16 12  1  0  0  0  0
 16  4  2  0  0  0  0
 17 15  2  0  0  0  0
 17 11  1  0  0  0  0
 18  6  1  0  0  0  0
 19 17  1  0  0  0  0
 20 19  1  0  0  0  0
 21 22  1  1  0  0  0
 21 20  1  0  0  0  0
 23 21  1  0  0  0  0
 24 23  1  0  0  0  0
 25 23  2  0  0  0  0
M  END
>  <MODEL>
2

>  <REMARK>
 VINA RESULT:     -10.5      1.317      4.637
  Name = 
  4 active torsions:
  status: ('A' for Active; 'I' for Inactive)
    1  A    between atoms: C_2  and  C_21
    2  A    between atoms: C_6  and  C_15
    3  A    between atoms: C_6  and  C_23
    4  A    between atoms: C_15  and  C_21
                            x       y       z     vdW  Elec       q    Type
                         _______ _______ _______ _____ _____    ______ ____

>  <TORSDO>
F 4

$$$$
=
 OpenBabel10272400403D

 25 28  0  0  1  0  0  0  0  0999 V2000
  187.1640  177.8650  145.3690 C   0  0  0  0  0  0  0  0  0  0  0  0
  188.4700  177.4430  145.0450 C   0  0  0  0  0  0  0  0  0  0  0  0
  187.7020  177.8300  147.7500 C   0  0  0  0  0  3  0  0  0  0  0  0
  186.0900  178.1500  144.5010 C   0  0  0  0  0  0  0  0  0  0  0  0
  183.7520  178.7960  143.1110 C   0  0  0  0  0  3  0  0  0  0  0  0
  188.9990  177.4110  147.4400 C   0  0  0  0  0  3  0  0  0  0  0  0
  184.9380  178.5440  145.1790 C   0  0  0  0  0  0  0  0  0  0  0  0
  183.7610  178.8710  144.5110 C   0  0  0  0  0  3  0  0  0  0  0  0
  190.7070  176.7880  145.7960 C   0  0  0  0  0  0  0  0  0  0  0  0
  191.7200  176.5270  146.8620 C   0  0  0  0  0  1  0  0  0  0  0  0
  188.8760  177.2450  143.7190 C   0  0  0  0  0  3  0  0  0  0  0  0
  184.9060  178.4000  142.4110 C   0  0  0  0  0  3  0  0  0  0  0  0
  186.8100  178.0500  146.7070 C   0  0  0  0  0  0  0  0  0  0  0  0
  185.2060  178.5530  146.8410 S   0  0  0  0  0  0  0  0  0  0  0  0
  191.0830  176.5960  144.4640 C   0  0  0  0  0  3  0  0  0  0  0  0
  186.0830  178.0740  143.1040 C   0  0  0  0  0  3  0  0  0  0  0  0
  190.1770  176.8280  143.4280 C   0  0  0  0  0  0  0  0  0  0  0  0
  189.3990  177.2130  146.1000 C   0  0  0  0  0  0  0  0  0  0  0  0
  190.5860  176.6020  142.0150 C   0  0  0  0  0  2  0  0  0  0  0  0
  189.5130  177.1190  141.0710 C   0  0  0  0  0  2  0  0  0  0  0  0
  190.1400  177.6570  139.7960 C   0  0  2  0  0  3  0  0  0  0  0  0
  189.1360  178.0510  138.9120 O   0  0  0  0  0  1  0  0  0  0  0  0
  191.0080  176.6270  139.1500 C   0  0  0  0  0  0  0  0  0  0  0  0
  192.3780  176.8360  139.0660 O   0  0  0  0  0  1  0  0  0  0  0  0
  190.5080  175.5640  138.6950 O   0  0  0  0  0  0  0  0  0  0  0  0
  1 13  1  0  0  0  0
  2  1  2  0  0  0  0
  2 18  1  0  0  0  0
  4  7  1  0  0  0  0
  4  1  1  0  0  0  0
  5  8  1  0  0  0  0
  6  3  1  0  0  0  0
  7 14  1  0  0  0  0
  8  7  2  0  0  0  0
  9 18  1  0  0  0  0
  9 10  1  0  0  0  0
 11  2  1  0  0  0  0
 12 16  1  0  0  0  0
 12  5  2  0  0  0  0
 13 14  1  0  0  0  0
 13  3  2  0  0  0  0
 15  9  2  0  0  0  0
 16  4  2  0  0  0  0
 17 11  2  0  0  0  0
 17 15  1  0  0  0  0
 18  6  2  0  0  0  0
 19 17  1  0  0  0  0
 20 19  1  0  0  0  0
 21 22  1  6  0  0  0
 21 20  1  0  0  0  0
 23 21  1  0  0  0  0
 24 23  1  0  0  0  0
 25 23  2  0  0  0  0
M  END
>  <MODEL>
3

>  <REMARK>
 VINA RESULT:     -10.4      0.718      1.430
  Name = 
  4 active torsions:
  status: ('A' for Active; 'I' for Inactive)
    1  A    between atoms: C_2  and  C_21
    2  A    between atoms: C_6  and  C_15
    3  A    between atoms: C_6  and  C_23
    4  A    between atoms: C_15  and  C_21
                            x       y       z     vdW  Elec       q    Type
                         _______ _______ _______ _____ _____    ______ ____

>  <TORSDO>
F 4

$$$$
=
 OpenBabel10272400403D

 25 28  0  0  1  0  0  0  0  0999 V2000
  186.8310  177.9250  144.8170 C   0  0  0  0  0  0  0  0  0  0  0  0
  188.0500  177.5690  144.2030 C   0  0  0  0  0  0  0  0  0  0  0  0
  187.8290  177.6760  147.0310 C   0  0  0  0  0  3  0  0  0  0  0  0
  185.6060  178.2630  144.2080 C   0  0  0  0  0  0  0  0  0  0  0  0
  183.0360  178.9810  143.3740 C   0  0  0  0  0  3  0  0  0  0  0  0
  189.0420  177.3210  146.4330 C   0  0  0  0  0  3  0  0  0  0  0  0
  184.6080  178.5620  145.1340 C   0  0  0  0  0  0  0  0  0  0  0  0
  183.3200  178.9220  144.7460 C   0  0  0  0  0  3  0  0  0  0  0  0
  190.3950  176.9010  144.4330 C   0  0  0  0  0  0  0  0  0  0  0  0
  191.6000  176.5660  145.2490 C   0  0  0  0  0  1  0  0  0  0  0  0
  188.1870  177.5080  142.8100 C   0  0  0  0  0  3  0  0  0  0  0  0
  184.0310  178.6820  142.4260 C   0  0  0  0  0  3  0  0  0  0  0  0
  186.7470  177.9710  146.2100 C   0  0  0  0  0  0  0  0  0  0  0  0
  185.1990  178.4190  146.7040 S   0  0  0  0  0  0  0  0  0  0  0  0
  190.5020  176.8480  143.0410 C   0  0  0  0  0  3  0  0  0  0  0  0
  185.3230  178.3220  142.8400 C   0  0  0  0  0  3  0  0  0  0  0  0
  189.4080  177.1540  142.2300 C   0  0  0  0  0  0  0  0  0  0  0  0
  189.1700  177.2620  145.0280 C   0  0  0  0  0  0  0  0  0  0  0  0
  189.5320  177.0750  140.7490 C   0  0  0  0  0  2  0  0  0  0  0  0
  188.6360  178.1130  140.0940 C   0  0  0  0  0  2  0  0  0  0  0  0
  188.2400  177.6680  138.6970 C   0  0  2  0  0  3  0  0  0  0  0  0
  188.5340  176.3140  138.5380 O   0  0  0  0  0  1  0  0  0  0  0  0
  188.9570  178.4670  137.6570 C   0  0  0  0  0  0  0  0  0  0  0  0
  188.9380  179.8540  137.7210 O   0  0  0  0  0  1  0  0  0  0  0  0
  189.5900  177.8920  136.7320 O   0  0  0  0  0  0  0  0  0  0  0  0
  1 13  1  0  0  0  0
  2  1  2  0  0  0  0
  2 18  1  0  0  0  0
  4  1  1  0  0  0  0
  4  7  1  0  0  0  0
  5  8  1  0  0  0  0
  6  3  1  0  0  0  0
  7 14  1  0  0  0  0
  8  7  2  0  0  0  0
  9 18  1  0  0  0  0
  9 10  1  0  0  0  0
 11  2  1  0  0  0  0
 12 16  1  0  0  0  0
 12  5  2  0  0  0  0
 13 14  1  0  0  0  0
 13  3  2  0  0  0  0
 15  9  2  0  0  0  0
 16  4  2  0  0  0  0
 17 11  2  0  0  0  0
 17 15  1  0  0  0  0
 18  6  2  0  0  0  0
 19 17  1  0  0  0  0
 20 19  1  0  0  0  0
 21 22  1  1  0  0  0
 21 20  1  0  0  0  0
 23 24  1  0  0  0  0
 23 21  1  0  0  0  0
 25 23  2  0  0  0  0
M  END
>  <MODEL>
4

>  <REMARK>
 VINA RESULT:     -10.0      1.073      1.471
  Name = 
  4 active torsions:
  status: ('A' for Active; 'I' for Inactive)
    1  A    between atoms: C_2  and  C_21
    2  A    between atoms: C_6  and  C_15
    3  A    between atoms: C_6  and  C_23
    4  A    between atoms: C_15  and  C_21
                            x       y       z     vdW  Elec       q    Type
                         _______ _______ _______ _____ _____    ______ ____

>  <TORSDO>
F 4

$$$$
=
 OpenBabel10272400403D

 25 28  0  0  1  0  0  0  0  0999 V2000
  186.1030  178.3600  144.3620 C   0  0  0  0  0  0  0  0  0  0  0  0
  187.2130  178.1120  145.1960 C   0  0  0  0  0  0  0  0  0  0  0  0
  184.6300  178.5080  146.3040 C   0  0  0  0  0  3  0  0  0  0  0  0
  186.0610  178.4510  142.9560 C   0  0  0  0  0  0  0  0  0  0  0  0
  185.5860  178.6990  140.2130 C   0  0  0  0  0  3  0  0  0  0  0  0
  185.7240  178.2620  147.1390 C   0  0  0  0  0  3  0  0  0  0  0  0
  184.7810  178.7090  142.4700 C   0  0  0  0  0  0  0  0  0  0  0  0
  184.5170  178.8370  141.1090 C   0  0  0  0  0  3  0  0  0  0  0  0
  188.1130  177.8130  147.4540 C   0  0  0  0  0  0  0  0  0  0  0  0
  187.9630  177.7460  148.9380 C   0  0  0  0  0  1  0  0  0  0  0  0
  188.4990  177.9140  144.6760 C   0  0  0  0  0  3  0  0  0  0  0  0
  186.8840  178.4380  140.6860 C   0  0  0  0  0  3  0  0  0  0  0  0
  184.8420  178.5530  144.9310 C   0  0  0  0  0  0  0  0  0  0  0  0
  183.6820  178.8310  143.7400 S   0  0  0  0  0  0  0  0  0  0  0  0
  189.3840  177.6170  146.9070 C   0  0  0  0  0  3  0  0  0  0  0  0
  187.1280  178.3130  142.0630 C   0  0  0  0  0  3  0  0  0  0  0  0
  189.5810  177.6720  145.5260 C   0  0  0  0  0  0  0  0  0  0  0  0
  187.0160  178.0620  146.6060 C   0  0  0  0  0  0  0  0  0  0  0  0
  190.9370  177.4430  144.9570 C   0  0  0  0  0  2  0  0  0  0  0  0
  191.0540  178.1180  143.6000 C   0  0  0  0  0  2  0  0  0  0  0  0
  191.5600  177.1330  142.5590 C   0  0  2  0  0  3  0  0  0  0  0  0
  192.1660  177.8300  141.5130 O   0  0  0  0  0  1  0  0  0  0  0  0
  190.4420  176.2950  142.0280 C   0  0  0  0  0  0  0  0  0  0  0  0
  189.9040  176.5780  140.7790 O   0  0  0  0  0  0  0  0  0  0  0  0
  189.9940  175.3270  142.6970 O   0  0  0  0  0  1  0  0  0  0  0  0
  1 13  1  0  0  0  0
  1  2  2  0  0  0  0
  2 18  1  0  0  0  0
  3  6  1  0  0  0  0
  4  1  1  0  0  0  0
  5 12  2  0  0  0  0
  5  8  1  0  0  0  0
  7  4  1  0  0  0  0
  7 14  1  0  0  0  0
  8  7  2  0  0  0  0
  9 10  1  0  0  0  0
 11  2  1  0  0  0  0
 11 17  2  0  0  0  0
 12 16  1  0  0  0  0
 13  3  2  0  0  0  0
 14 13  1  0  0  0  0
 15  9  2  0  0  0  0
 16  4  2  0  0  0  0
 17 15  1  0  0  0  0
 18  6  2  0  0  0  0
 18  9  1  0  0  0  0
 19 17  1  0  0  0  0
 20 19  1  0  0  0  0
 21 22  1  6  0  0  0
 21 20  1  0  0  0  0
 23 21  1  0  0  0  0
 23 25  1  0  0  0  0
 24 23  2  0  0  0  0
M  END
>  <MODEL>
5

>  <REMARK>
 VINA RESULT:      -9.8      1.722      3.130
  Name = 
  4 active torsions:
  status: ('A' for Active; 'I' for Inactive)
    1  A    between atoms: C_2  and  C_21
    2  A    between atoms: C_6  and  C_15
    3  A    between atoms: C_6  and  C_23
    4  A    between atoms: C_15  and  C_21
                            x       y       z     vdW  Elec       q    Type
                         _______ _______ _______ _____ _____    ______ ____

>  <TORSDO>
F 4

$$$$
=
 OpenBabel10272400403D

 25 28  0  0  1  0  0  0  0  0999 V2000
  188.0370  177.5670  145.3740 C   0  0  0  0  0  0  0  0  0  0  0  0
  187.4580  177.8590  144.1220 C   0  0  0  0  0  0  0  0  0  0  0  0
  185.9300  178.0560  146.5050 C   0  0  0  0  0  3  0  0  0  0  0  0
  189.3560  177.1600  145.6610 C   0  0  0  0  0  0  0  0  0  0  0  0
  191.8560  176.3470  146.6120 C   0  0  0  0  0  3  0  0  0  0  0  0
  185.3470  178.3490  145.2690 C   0  0  0  0  0  3  0  0  0  0  0  0
  189.5750  176.9590  147.0220 C   0  0  0  0  0  0  0  0  0  0  0  0
  190.8100  176.5540  147.5220 C   0  0  0  0  0  3  0  0  0  0  0  0
  185.4970  178.5560  142.8310 C   0  0  0  0  0  0  0  0  0  0  0  0
  184.0700  178.9820  142.7220 C   0  0  0  0  0  1  0  0  0  0  0  0
  188.1900  177.7700  142.9300 C   0  0  0  0  0  3  0  0  0  0  0  0
  191.6530  176.5450  145.2350 C   0  0  0  0  0  3  0  0  0  0  0  0
  187.2650  177.6700  146.5330 C   0  0  0  0  0  0  0  0  0  0  0  0
  188.1710  177.2720  147.8970 S   0  0  0  0  0  0  0  0  0  0  0  0
  186.2510  178.4600  141.6590 C   0  0  0  0  0  3  0  0  0  0  0  0
  190.3990  176.9530  144.7510 C   0  0  0  0  0  3  0  0  0  0  0  0
  187.5890  178.0640  141.7040 C   0  0  0  0  0  0  0  0  0  0  0  0
  186.0920  178.2570  144.0730 C   0  0  0  0  0  0  0  0  0  0  0  0
  188.3850  177.9840  140.4480 C   0  0  0  0  0  2  0  0  0  0  0  0
  187.4960  178.2610  139.2480 C   0  0  0  0  0  2  0  0  0  0  0  0
  188.0190  177.5360  138.0200 C   0  0  2  0  0  3  0  0  0  0  0  0
  188.8620  176.4970  138.4150 O   0  0  0  0  0  1  0  0  0  0  0  0
  188.7590  178.4720  137.1200 C   0  0  0  0  0  0  0  0  0  0  0  0
  189.2470  178.0140  135.9030 O   0  0  0  0  0  0  0  0  0  0  0  0
  188.9300  179.6750  137.4500 O   0  0  0  0  0  1  0  0  0  0  0  0
  1  4  1  0  0  0  0
  1 13  2  0  0  0  0
  2  1  1  0  0  0  0
  3 13  1  0  0  0  0
  4  7  1  0  0  0  0
  5  8  1  0  0  0  0
  6  3  2  0  0  0  0
  7  8  2  0  0  0  0
  7 14  1  0  0  0  0
  9 18  2  0  0  0  0
 10  9  1  0  0  0  0
 11  2  2  0  0  0  0
 12  5  2  0  0  0  0
 13 14  1  0  0  0  0
 15 17  2  0  0  0  0
 15  9  1  0  0  0  0
 16 12  1  0  0  0  0
 16  4  2  0  0  0  0
 17 11  1  0  0  0  0
 18  2  1  0  0  0  0
 18  6  1  0  0  0  0
 19 17  1  0  0  0  0
 20 19  1  0  0  0  0
 21 22  1  1  0  0  0
 21 20  1  0  0  0  0
 23 25  1  0  0  0  0
 23 21  1  0  0  0  0
 24 23  2  0  0  0  0
M  END
>  <MODEL>
6

>  <REMARK>
 VINA RESULT:      -9.7      1.471      4.666
  Name = 
  4 active torsions:
  status: ('A' for Active; 'I' for Inactive)
    1  A    between atoms: C_2  and  C_21
    2  A    between atoms: C_6  and  C_15
    3  A    between atoms: C_6  and  C_23
    4  A    between atoms: C_15  and  C_21
                            x       y       z     vdW  Elec       q    Type
                         _______ _______ _______ _____ _____    ______ ____

>  <TORSDO>
F 4

$$$$
=
 OpenBabel10272400403D

 25 28  0  0  1  0  0  0  0  0999 V2000
  189.4460  177.5160  144.2090 C   0  0  0  0  0  0  0  0  0  0  0  0
  188.8910  177.7850  142.9400 C   0  0  0  0  0  0  0  0  0  0  0  0
  191.5880  176.9350  143.1910 C   0  0  0  0  0  3  0  0  0  0  0  0
  188.8330  177.6070  145.4750 C   0  0  0  0  0  0  0  0  0  0  0  0
  187.9690  177.6670  148.1330 C   0  0  0  0  0  3  0  0  0  0  0  0
  191.0470  177.1980  141.9290 C   0  0  0  0  0  3  0  0  0  0  0  0
  189.6920  177.2620  146.5160 C   0  0  0  0  0  0  0  0  0  0  0  0
  189.2870  177.2840  147.8480 C   0  0  0  0  0  3  0  0  0  0  0  0
  189.1700  177.8820  140.5090 C   0  0  0  0  0  0  0  0  0  0  0  0
  189.9790  177.7230  139.2640 C   0  0  0  0  0  1  0  0  0  0  0  0
  187.5640  178.2060  142.7880 C   0  0  0  0  0  3  0  0  0  0  0  0
  187.0890  178.0180  147.0940 C   0  0  0  0  0  3  0  0  0  0  0  0
  190.7750  177.1000  144.3070 C   0  0  0  0  0  0  0  0  0  0  0  0
  191.2080  176.8420  145.9160 S   0  0  0  0  0  0  0  0  0  0  0  0
  187.8420  178.2990  140.3870 C   0  0  0  0  0  3  0  0  0  0  0  0
  187.5170  177.9900  145.7570 C   0  0  0  0  0  3  0  0  0  0  0  0
  187.0420  178.4670  141.5190 C   0  0  0  0  0  0  0  0  0  0  0  0
  189.7080  177.6210  141.7850 C   0  0  0  0  0  0  0  0  0  0  0  0
  185.6240  178.8940  141.3720 C   0  0  0  0  0  2  0  0  0  0  0  0
  185.0270  179.1990  142.7350 C   0  0  0  0  0  2  0  0  0  0  0  0
  183.7200  178.4470  142.9240 C   0  0  2  0  0  3  0  0  0  0  0  0
  182.8620  178.7270  141.8620 O   0  0  0  0  0  1  0  0  0  0  0  0
  183.0680  178.8230  144.2150 C   0  0  0  0  0  0  0  0  0  0  0  0
  183.8500  179.2220  145.2900 O   0  0  0  0  0  1  0  0  0  0  0  0
  181.8140  178.7940  144.3310 O   0  0  0  0  0  0  0  0  0  0  0  0
  1 13  2  0  0  0  0
  1  4  1  0  0  0  0
  2  1  1  0  0  0  0
  3 13  1  0  0  0  0
  4 16  2  0  0  0  0
  4  7  1  0  0  0  0
  6  3  2  0  0  0  0
  7  8  2  0  0  0  0
  8  5  1  0  0  0  0
  9 18  1  0  0  0  0
 10  9  1  0  0  0  0
 11  2  1  0  0  0  0
 12  5  2  0  0  0  0
 13 14  1  0  0  0  0
 14  7  1  0  0  0  0
 15  9  2  0  0  0  0
 15 17  1  0  0  0  0
 16 12  1  0  0  0  0
 17 11  2  0  0  0  0
 18  6  1  0  0  0  0
 18  2  2  0  0  0  0
 19 17  1  0  0  0  0
 19 20  1  0  0  0  0
 20 21  1  0  0  0  0
 21 22  1  6  0  0  0
 21 23  1  0  0  0  0
 23 25  2  0  0  0  0
 23 24  1  0  0  0  0
M  END
>  <MODEL>
7

>  <REMARK>
 VINA RESULT:      -9.7      2.896      5.710
  Name = 
  4 active torsions:
  status: ('A' for Active; 'I' for Inactive)
    1  A    between atoms: C_2  and  C_21
    2  A    between atoms: C_6  and  C_15
    3  A    between atoms: C_6  and  C_23
    4  A    between atoms: C_15  and  C_21
                            x       y       z     vdW  Elec       q    Type
                         _______ _______ _______ _____ _____    ______ ____

>  <TORSDO>
F 4

$$$$
=
 OpenBabel10272400403D

 25 28  0  0  1  0  0  0  0  0999 V2000
  186.3730  178.2420  144.4700 C   0  0  0  0  0  0  0  0  0  0  0  0
  186.5230  178.2920  143.0680 C   0  0  0  0  0  0  0  0  0  0  0  0
  184.0330  178.9130  144.2820 C   0  0  0  0  0  3  0  0  0  0  0  0
  187.3330  177.9080  145.4460 C   0  0  0  0  0  0  0  0  0  0  0  0
  188.9450  177.3090  147.6500 C   0  0  0  0  0  3  0  0  0  0  0  0
  184.1710  178.9670  142.8910 C   0  0  0  0  0  3  0  0  0  0  0  0
  186.8260  177.9650  146.7430 C   0  0  0  0  0  0  0  0  0  0  0  0
  187.6070  177.6710  147.8580 C   0  0  0  0  0  3  0  0  0  0  0  0
  185.5340  178.7200  140.8690 C   0  0  0  0  0  0  0  0  0  0  0  0
  184.3940  179.1050  139.9850 C   0  0  0  0  0  1  0  0  0  0  0  0
  187.7400  177.9910  142.4440 C   0  0  0  0  0  3  0  0  0  0  0  0
  189.4740  177.2470  146.3480 C   0  0  0  0  0  3  0  0  0  0  0  0
  185.1380  178.5510  145.0430 C   0  0  0  0  0  0  0  0  0  0  0  0
  185.2060  178.4210  146.7230 S   0  0  0  0  0  0  0  0  0  0  0  0
  186.7610  178.4150  140.2730 C   0  0  0  0  0  3  0  0  0  0  0  0
  188.6680  177.5460  145.2380 C   0  0  0  0  0  3  0  0  0  0  0  0
  187.8590  178.0470  141.0530 C   0  0  0  0  0  0  0  0  0  0  0  0
  185.4020  178.6620  142.2710 C   0  0  0  0  0  0  0  0  0  0  0  0
  189.1640  177.7430  140.4060 C   0  0  0  0  0  2  0  0  0  0  0  0
  190.0230  176.8990  141.3330 C   0  0  0  0  0  2  0  0  0  0  0  0
  191.2690  177.6640  141.7460 C   0  0  2  0  0  3  0  0  0  0  0  0
  192.3360  177.2960  140.9270 O   0  0  0  0  0  1  0  0  0  0  0  0
  191.6130  177.3950  143.1750 C   0  0  0  0  0  0  0  0  0  0  0  0
  191.6190  176.0890  143.6470 O   0  0  0  0  0  0  0  0  0  0  0  0
  191.9110  178.3420  143.9510 O   0  0  0  0  0  1  0  0  0  0  0  0
  1 13  2  0  0  0  0
  1  4  1  0  0  0  0
  2  1  1  0  0  0  0
  3 13  1  0  0  0  0
  4  7  1  0  0  0  0
  5  8  1  0  0  0  0
  6  3  2  0  0  0  0
  7  8  2  0  0  0  0
  9 18  1  0  0  0  0
 10  9  1  0  0  0  0
 11  2  1  0  0  0  0
 12  5  2  0  0  0  0
 13 14  1  0  0  0  0
 14  7  1  0  0  0  0
 15  9  2  0  0  0  0
 15 17  1  0  0  0  0
 16  4  2  0  0  0  0
 16 12  1  0  0  0  0
 17 11  2  0  0  0  0
 18  6  1  0  0  0  0
 18  2  2  0  0  0  0
 19 17  1  0  0  0  0
 19 20  1  0  0  0  0
 20 21  1  0  0  0  0
 21 22  1  6  0  0  0
 21 23  1  0  0  0  0
 23 24  2  0  0  0  0
 23 25  1  0  0  0  0
M  END
>  <MODEL>
8

>  <REMARK>
 VINA RESULT:      -9.6      1.919      4.903
  Name = 
  4 active torsions:
  status: ('A' for Active; 'I' for Inactive)
    1  A    between atoms: C_2  and  C_21
    2  A    between atoms: C_6  and  C_15
    3  A    between atoms: C_6  and  C_23
    4  A    between atoms: C_15  and  C_21
                            x       y       z     vdW  Elec       q    Type
                         _______ _______ _______ _____ _____    ______ ____

>  <TORSDO>
F 4

$$$$
=
 OpenBabel10272400403D

 25 28  0  0  1  0  0  0  0  0999 V2000
  188.8200  177.6390  143.9590 C   0  0  0  0  0  0  0  0  0  0  0  0
  187.4400  177.8980  144.1000 C   0  0  0  0  0  0  0  0  0  0  0  0
  189.0770  177.4830  146.3810 C   0  0  0  0  0  3  0  0  0  0  0  0
  189.5810  177.5450  142.7760 C   0  0  0  0  0  0  0  0  0  0  0  0
  191.4030  177.2880  140.6710 C   0  0  0  0  0  3  0  0  0  0  0  0
  187.7110  177.7400  146.5320 C   0  0  0  0  0  3  0  0  0  0  0  0
  190.9260  177.2760  143.0200 C   0  0  0  0  0  0  0  0  0  0  0  0
  191.8540  177.1430  141.9910 C   0  0  0  0  0  3  0  0  0  0  0  0
  185.5060  178.2090  145.5700 C   0  0  0  0  0  0  0  0  0  0  0  0
  184.8690  178.2770  146.9180 C   0  0  0  0  0  1  0  0  0  0  0  0
  186.6100  178.1050  142.9910 C   0  0  0  0  0  3  0  0  0  0  0  0
  190.0490  177.5610  140.4070 C   0  0  0  0  0  3  0  0  0  0  0  0
  189.6040  177.4380  145.0960 C   0  0  0  0  0  0  0  0  0  0  0  0
  191.2110  177.1480  144.6750 S   0  0  0  0  0  0  0  0  0  0  0  0
  184.7020  178.4140  144.4460 C   0  0  0  0  0  3  0  0  0  0  0  0
  189.1290  177.6900  141.4600 C   0  0  0  0  0  3  0  0  0  0  0  0
  185.2460  178.3580  143.1610 C   0  0  0  0  0  0  0  0  0  0  0  0
  186.8820  177.9490  145.4090 C   0  0  0  0  0  0  0  0  0  0  0  0
  184.3810  178.5960  141.9740 C   0  0  0  0  0  2  0  0  0  0  0  0
  185.2080  179.1570  140.8290 C   0  0  0  0  0  2  0  0  0  0  0  0
  184.6430  178.7040  139.4940 C   0  0  2  0  0  3  0  0  0  0  0  0
  185.6330  178.7910  138.5150 O   0  0  0  0  0  1  0  0  0  0  0  0
  183.4670  179.5380  139.0990 C   0  0  0  0  0  0  0  0  0  0  0  0
  182.2070  178.9590  139.0270 O   0  0  0  0  0  1  0  0  0  0  0  0
  183.6070  180.7630  138.8460 O   0  0  0  0  0  0  0  0  0  0  0  0
  1  2  2  0  0  0  0
  1 13  1  0  0  0  0
  2 18  1  0  0  0  0
  3  6  1  0  0  0  0
  4  7  1  0  0  0  0
  4  1  1  0  0  0  0
  5  8  1  0  0  0  0
  7 14  1  0  0  0  0
  8  7  2  0  0  0  0
  9 10  1  0  0  0  0
 11 17  2  0  0  0  0
 11  2  1  0  0  0  0
 12  5  2  0  0  0  0
 12 16  1  0  0  0  0
 13  3  2  0  0  0  0
 14 13  1  0  0  0  0
 15  9  2  0  0  0  0
 16  4  2  0  0  0  0
 17 15  1  0  0  0  0
 18  9  1  0  0  0  0
 18  6  2  0  0  0  0
 19 17  1  0  0  0  0
 20 19  1  0  0  0  0
 21 22  1  6  0  0  0
 21 20  1  0  0  0  0
 23 21  1  0  0  0  0
 24 23  1  0  0  0  0
 25 23  2  0  0  0  0
M  END
>  <MODEL>
9

>  <REMARK>
 VINA RESULT:      -9.5      2.435      5.291
  Name = 
  4 active torsions:
  status: ('A' for Active; 'I' for Inactive)
    1  A    between atoms: C_2  and  C_21
    2  A    between atoms: C_6  and  C_15
    3  A    between atoms: C_6  and  C_23
    4  A    between atoms: C_15  and  C_21
                            x       y       z     vdW  Elec       q    Type
                         _______ _______ _______ _____ _____    ______ ____

>  <TORSDO>
F 4

$$$$
