=
 OpenBabel10272400203D

 31 33  0  0  1  0  0  0  0  0999 V2000
  189.7410  176.8000  139.0080 C   0  0  2  0  0  3  0  0  0  0  0  0
  188.5280  176.8910  142.0180 C   0  0  2  0  0  3  0  0  0  0  0  0
  189.7960  175.1010  142.5530 O   0  0  0  0  0  1  0  0  0  0  0  0
  189.8530  176.4480  142.4330 N   0  0  0  0  0  0  0  0  0  0  0  0
  188.7000  177.9730  140.9610 C   0  0  1  0  0  3  0  0  0  0  0  0
  188.8450  179.3710  141.5500 C   0  0  0  0  0  1  0  0  0  0  0  0
  190.0040  177.6010  140.2930 C   0  0  1  0  0  3  0  0  0  0  0  0
  191.9710  177.4670  141.8140 C   0  0  0  0  0  1  0  0  0  0  0  0
  190.7420  176.7340  141.3120 C   0  0  1  0  0  3  0  0  0  0  0  0
  187.2740  177.5250  145.5640 C   0  0  0  0  0  0  0  0  0  0  0  0
  185.5230  178.0980  143.9940 C   0  0  0  0  0  3  0  0  0  0  0  0
  187.8510  177.3980  147.2100 Cl  0  0  0  0  0  0  0  0  0  0  0  0
  188.1060  177.1580  144.5020 C   0  0  0  0  0  3  0  0  0  0  0  0
  186.3550  177.7310  142.9300 C   0  0  0  0  0  3  0  0  0  0  0  0
  187.6460  177.2540  143.1790 C   0  0  0  0  0  0  0  0  0  0  0  0
  185.9820  177.9940  145.3100 C   0  0  0  0  0  3  0  0  0  0  0  0
  190.9730  176.2210  138.3580 C   0  0  0  0  0  0  0  0  0  0  0  0
  193.3140  176.5320  137.7880 C   0  0  0  0  0  3  0  0  0  0  0  0
  192.1300  177.0070  138.3570 C   0  0  0  0  0  3  0  0  0  0  0  0
  189.8670  174.0890  137.7560 N   0  0  0  0  0  1  0  0  0  0  0  0
  193.3510  175.2600  137.2160 C   0  0  0  0  0  0  0  0  0  0  0  0
  194.8340  174.6630  136.5040 Cl  0  0  0  0  0  0  0  0  0  0  0  0
  191.0160  174.9290  137.7830 C   0  0  0  0  0  0  0  0  0  0  0  0
  192.2060  174.4610  137.2150 C   0  0  0  0  0  3  0  0  0  0  0  0
  188.5310  179.5720  136.9310 O   0  0  0  0  0  0  0  0  0  0  0  0
  188.9030  177.5220  138.0440 N   0  0  0  0  0  0  0  0  0  0  0  0
  187.0710  177.4040  136.5750 O   0  0  0  0  0  0  0  0  0  0  0  0
  189.2250  178.8890  137.7310 C   0  0  0  0  0  3  0  0  0  0  0  0
  187.7740  176.8430  137.4570 C   0  0  0  0  0  0  0  0  0  0  0  0
  186.5590  174.8910  136.9160 O   0  0  0  0  0  1  0  0  0  0  0  0
  187.4270  175.4460  137.8560 C   0  0  0  0  0  2  0  0  0  0  0  0
  1 26  1  6  0  0  0
  2  4  1  0  0  0  0
  2 15  1  1  0  0  0
  4  3  1  0  0  0  0
  5  6  1  1  0  0  0
  5  2  1  0  0  0  0
  7  1  1  6  0  0  0
  7  5  1  0  0  0  0
  7  9  1  0  0  0  0
  9  8  1  1  0  0  0
  9  4  1  0  0  0  0
 10 12  1  0  0  0  0
 11 16  2  0  0  0  0
 13 10  2  0  0  0  0
 14 15  2  0  0  0  0
 14 11  1  0  0  0  0
 15 13  1  0  0  0  0
 16 10  1  0  0  0  0
 17  1  1  0  0  0  0
 18 19  2  0  0  0  0
 19 17  1  0  0  0  0
 20 23  1  0  0  0  0
 21 18  1  0  0  0  0
 22 21  1  0  0  0  0
 23 17  2  0  0  0  0
 24 21  2  0  0  0  0
 24 23  1  0  0  0  0
 25 28  2  0  0  0  0
 27 29  2  0  0  0  0
 28 26  1  0  0  0  0
 29 31  1  0  0  0  0
 29 26  1  0  0  0  0
 30 31  1  0  0  0  0
M  END
>  <MODEL>
1

>  <REMARK>
 VINA RESULT:      -6.9      0.000      0.000
  Name = 
  5 active torsions:
  status: ('A' for Active; 'I' for Inactive)
    1  A    between atoms: C_3  and  C_22
    2  A    between atoms: C_4  and  C_5
    3  A    between atoms: C_4  and  N_12
    4  A    between atoms: C_4  and  C_21
    5  A    between atoms: C_27  and  C_28
                            x       y       z     vdW  Elec       q    Type
                         _______ _______ _______ _____ _____    ______ ____

>  <TORSDO>
F 5

$$$$
=
 OpenBabel10272400203D

 31 33  0  0  1  0  0  0  0  0999 V2000
  189.4430  176.1900  138.7870 C   0  0  2  0  0  3  0  0  0  0  0  0
  188.6610  176.7290  141.8910 C   0  0  2  0  0  3  0  0  0  0  0  0
  190.2570  175.2600  142.5190 O   0  0  0  0  0  1  0  0  0  0  0  0
  190.0830  176.5510  142.1530 N   0  0  0  0  0  0  0  0  0  0  0  0
  188.5110  177.5890  140.6440 C   0  0  1  0  0  3  0  0  0  0  0  0
  188.5150  179.0830  140.9410 C   0  0  0  0  0  1  0  0  0  0  0  0
  189.7520  177.2600  139.8460 C   0  0  1  0  0  3  0  0  0  0  0  0
  191.9080  177.6870  141.0160 C   0  0  0  0  0  1  0  0  0  0  0  0
  190.7520  176.7170  140.8660 C   0  0  1  0  0  3  0  0  0  0  0  0
  185.8690  178.0100  144.1530 C   0  0  0  0  0  0  0  0  0  0  0  0
  187.8520  177.6260  145.4880 C   0  0  0  0  0  3  0  0  0  0  0  0
  184.1960  178.5070  144.0330 Cl  0  0  0  0  0  0  0  0  0  0  0  0
  186.5590  177.5970  143.0090 C   0  0  0  0  0  3  0  0  0  0  0  0
  188.5430  177.2120  144.3440 C   0  0  0  0  0  3  0  0  0  0  0  0
  187.9030  177.2020  143.1000 C   0  0  0  0  0  0  0  0  0  0  0  0
  186.5160  178.0250  145.3920 C   0  0  0  0  0  3  0  0  0  0  0  0
  190.6300  175.7380  137.9740 C   0  0  0  0  0  0  0  0  0  0  0  0
  192.8450  176.2750  137.1320 C   0  0  0  0  0  3  0  0  0  0  0  0
  191.7040  176.6280  137.8550 C   0  0  0  0  0  3  0  0  0  0  0  0
  189.6530  173.5250  137.4490 N   0  0  0  0  0  1  0  0  0  0  0  0
  192.9240  175.0220  136.5230 C   0  0  0  0  0  0  0  0  0  0  0  0
  194.3540  174.5790  135.6170 Cl  0  0  0  0  0  0  0  0  0  0  0  0
  190.7170  174.4670  137.3600 C   0  0  0  0  0  0  0  0  0  0  0  0
  191.8630  174.1210  136.6370 C   0  0  0  0  0  3  0  0  0  0  0  0
  186.2490  175.8040  137.0240 O   0  0  0  0  0  0  0  0  0  0  0  0
  188.3000  176.5390  137.9360 N   0  0  0  0  0  0  0  0  0  0  0  0
  187.2880  178.1930  136.6050 O   0  0  0  0  0  0  0  0  0  0  0  0
  187.2450  175.5770  137.7610 C   0  0  0  0  0  3  0  0  0  0  0  0
  188.2810  177.8280  137.2880 C   0  0  0  0  0  0  0  0  0  0  0  0
  188.9460  180.0850  137.4970 O   0  0  0  0  0  1  0  0  0  0  0  0
  189.4260  178.7770  137.4360 C   0  0  0  0  0  2  0  0  0  0  0  0
  1 26  1  6  0  0  0
  2  4  1  0  0  0  0
  2 15  1  1  0  0  0
  4  3  1  0  0  0  0
  5  6  1  1  0  0  0
  5  2  1  0  0  0  0
  7  1  1  6  0  0  0
  7  5  1  0  0  0  0
  7  9  1  0  0  0  0
  9  8  1  1  0  0  0
  9  4  1  0  0  0  0
 10 16  1  0  0  0  0
 12 10  1  0  0  0  0
 13 15  1  0  0  0  0
 13 10  2  0  0  0  0
 14 11  1  0  0  0  0
 15 14  2  0  0  0  0
 16 11  2  0  0  0  0
 17  1  1  0  0  0  0
 18 19  2  0  0  0  0
 19 17  1  0  0  0  0
 21 24  2  0  0  0  0
 21 18  1  0  0  0  0
 22 21  1  0  0  0  0
 23 20  1  0  0  0  0
 23 17  2  0  0  0  0
 24 23  1  0  0  0  0
 25 28  2  0  0  0  0
 27 29  2  0  0  0  0
 28 26  1  0  0  0  0
 29 31  1  0  0  0  0
 29 26  1  0  0  0  0
 31 30  1  0  0  0  0
M  END
>  <MODEL>
2

>  <REMARK>
 VINA RESULT:      -6.7      1.123      2.147
  Name = 
  5 active torsions:
  status: ('A' for Active; 'I' for Inactive)
    1  A    between atoms: C_3  and  C_22
    2  A    between atoms: C_4  and  C_5
    3  A    between atoms: C_4  and  N_12
    4  A    between atoms: C_4  and  C_21
    5  A    between atoms: C_27  and  C_28
                            x       y       z     vdW  Elec       q    Type
                         _______ _______ _______ _____ _____    ______ ____

>  <TORSDO>
F 5

$$$$
=
 OpenBabel10272400203D

 31 33  0  0  1  0  0  0  0  0999 V2000
  190.3010  176.6740  144.7490 C   0  0  2  0  0  3  0  0  0  0  0  0
  189.8040  177.4640  141.6400 C   0  0  2  0  0  3  0  0  0  0  0  0
  188.1280  178.8340  142.2850 O   0  0  0  0  0  1  0  0  0  0  0  0
  189.4750  178.7860  142.1560 N   0  0  0  0  0  0  0  0  0  0  0  0
  191.0400  176.9620  142.3740 C   0  0  1  0  0  3  0  0  0  0  0  0
  192.3450  177.4030  141.7230 C   0  0  0  0  0  1  0  0  0  0  0  0
  190.9340  177.6300  143.7260 C   0  0  1  0  0  3  0  0  0  0  0  0
  190.8310  180.1170  143.6740 C   0  0  0  0  0  1  0  0  0  0  0  0
  190.0290  178.8400  143.5060 C   0  0  1  0  0  3  0  0  0  0  0  0
  190.5530  176.3510  138.0700 C   0  0  0  0  0  0  0  0  0  0  0  0
  189.3150  178.4300  138.0040 C   0  0  0  0  0  3  0  0  0  0  0  0
  191.3490  175.0350  137.2370 Cl  0  0  0  0  0  0  0  0  0  0  0  0
  190.5150  176.3720  139.4660 C   0  0  0  0  0  3  0  0  0  0  0  0
  189.2770  178.4530  139.4020 C   0  0  0  0  0  3  0  0  0  0  0  0
  189.8820  177.4290  140.1390 C   0  0  0  0  0  0  0  0  0  0  0  0
  189.9530  177.3810  137.3380 C   0  0  0  0  0  3  0  0  0  0  0  0
  188.9130  177.0560  145.2000 C   0  0  0  0  0  0  0  0  0  0  0  0
  187.5550  178.2670  146.8100 C   0  0  0  0  0  3  0  0  0  0  0  0
  188.8050  177.8590  146.3410 C   0  0  0  0  0  3  0  0  0  0  0  0
  187.7890  175.8500  143.3530 N   0  0  0  0  0  1  0  0  0  0  0  0
  186.3960  177.8760  146.1370 C   0  0  0  0  0  0  0  0  0  0  0  0
  184.8290  178.3870  146.7240 Cl  0  0  0  0  0  0  0  0  0  0  0  0
  187.7370  176.6670  144.5170 C   0  0  0  0  0  0  0  0  0  0  0  0
  186.4880  177.0800  144.9940 C   0  0  0  0  0  3  0  0  0  0  0  0
  191.8550  177.0390  148.0520 O   0  0  0  0  0  0  0  0  0  0  0  0
  191.1820  176.3830  145.8860 N   0  0  0  0  0  0  0  0  0  0  0  0
  192.8320  174.9550  146.7630 O   0  0  0  0  0  0  0  0  0  0  0  0
  191.1090  177.2200  147.0540 C   0  0  0  0  0  3  0  0  0  0  0  0
  192.1070  175.2800  145.7850 C   0  0  0  0  0  0  0  0  0  0  0  0
  192.4440  173.1370  144.8510 O   0  0  0  0  0  1  0  0  0  0  0  0
  192.2060  174.4740  144.5320 C   0  0  0  0  0  2  0  0  0  0  0  0
  1 17  1  0  0  0  0
  1 26  1  1  0  0  0
  2 15  1  6  0  0  0
  2  4  1  0  0  0  0
  2  5  1  0  0  0  0
  4  3  1  0  0  0  0
  4  9  1  0  0  0  0
  5  6  1  6  0  0  0
  5  7  1  0  0  0  0
  7  1  1  1  0  0  0
  9  8  1  6  0  0  0
  9  7  1  0  0  0  0
 10 13  1  0  0  0  0
 11 14  2  0  0  0  0
 12 10  1  0  0  0  0
 13 15  2  0  0  0  0
 14 15  1  0  0  0  0
 16 11  1  0  0  0  0
 16 10  2  0  0  0  0
 17 19  1  0  0  0  0
 19 18  2  0  0  0  0
 20 23  1  0  0  0  0
 21 22  1  0  0  0  0
 21 18  1  0  0  0  0
 23 24  1  0  0  0  0
 23 17  2  0  0  0  0
 24 21  2  0  0  0  0
 26 28  1  0  0  0  0
 28 25  2  0  0  0  0
 29 26  1  0  0  0  0
 29 27  2  0  0  0  0
 31 30  1  0  0  0  0
 31 29  1  0  0  0  0
M  END
>  <MODEL>
3

>  <REMARK>
 VINA RESULT:      -5.8      3.024      8.034
  Name = 
  5 active torsions:
  status: ('A' for Active; 'I' for Inactive)
    1  A    between atoms: C_3  and  C_22
    2  A    between atoms: C_4  and  C_5
    3  A    between atoms: C_4  and  N_12
    4  A    between atoms: C_4  and  C_21
    5  A    between atoms: C_27  and  C_28
                            x       y       z     vdW  Elec       q    Type
                         _______ _______ _______ _____ _____    ______ ____

>  <TORSDO>
F 5

$$$$
=
 OpenBabel10272400203D

 31 33  0  0  1  0  0  0  0  0999 V2000
  187.8160  176.1680  137.6710 C   0  0  2  0  0  3  0  0  0  0  0  0
  189.1890  177.0920  140.4630 C   0  0  2  0  0  3  0  0  0  0  0  0
  191.1990  177.1180  139.4340 O   0  0  0  0  0  1  0  0  0  0  0  0
  190.0890  177.8700  139.6220 N   0  0  0  0  0  0  0  0  0  0  0  0
  187.7750  177.2580  139.9250 C   0  0  1  0  0  3  0  0  0  0  0  0
  187.0540  178.4740  140.4950 C   0  0  0  0  0  1  0  0  0  0  0  0
  187.9910  177.4840  138.4460 C   0  0  1  0  0  3  0  0  0  0  0  0
  189.4370  179.4270  137.8720 C   0  0  0  0  0  1  0  0  0  0  0  0
  189.4310  177.9790  138.3230 C   0  0  1  0  0  3  0  0  0  0  0  0
  190.4880  178.5380  143.7450 C   0  0  0  0  0  0  0  0  0  0  0  0
  188.6190  177.0740  144.2140 C   0  0  0  0  0  3  0  0  0  0  0  0
  191.7360  179.6300  144.3050 Cl  0  0  0  0  0  0  0  0  0  0  0  0
  190.3620  178.2640  142.3810 C   0  0  0  0  0  3  0  0  0  0  0  0
  188.4910  176.7980  142.8480 C   0  0  0  0  0  3  0  0  0  0  0  0
  189.3650  177.3860  141.9270 C   0  0  0  0  0  0  0  0  0  0  0  0
  189.6170  177.9430  144.6620 C   0  0  0  0  0  3  0  0  0  0  0  0
  188.9890  175.7800  136.8060 C   0  0  0  0  0  0  0  0  0  0  0  0
  190.9400  174.3560  136.5390 C   0  0  0  0  0  3  0  0  0  0  0  0
  189.8420  174.7820  137.2900 C   0  0  0  0  0  3  0  0  0  0  0  0
  188.4100  177.3690  134.9990 N   0  0  0  0  0  1  0  0  0  0  0  0
  191.1920  174.9260  135.2900 C   0  0  0  0  0  0  0  0  0  0  0  0
  192.5670  174.3940  134.3470 Cl  0  0  0  0  0  0  0  0  0  0  0  0
  189.2450  176.3500  135.5370 C   0  0  0  0  0  0  0  0  0  0  0  0
  190.3470  175.9190  134.7910 C   0  0  0  0  0  3  0  0  0  0  0  0
  184.8040  177.3390  135.9330 O   0  0  0  0  0  0  0  0  0  0  0  0
  186.5490  176.1010  136.9340 N   0  0  0  0  0  0  0  0  0  0  0  0
  184.9300  174.7040  135.9540 O   0  0  0  0  0  0  0  0  0  0  0  0
  185.9060  177.3280  136.5450 C   0  0  0  0  0  3  0  0  0  0  0  0
  185.9800  174.8070  136.6430 C   0  0  0  0  0  0  0  0  0  0  0  0
  185.8360  172.9430  138.0850 O   0  0  0  0  0  1  0  0  0  0  0  0
  186.6380  173.5550  137.1220 C   0  0  0  0  0  2  0  0  0  0  0  0
  1 26  1  6  0  0  0
  2 15  1  1  0  0  0
  3  4  1  0  0  0  0
  4  2  1  0  0  0  0
  5  2  1  0  0  0  0
  5  6  1  1  0  0  0
  7  1  1  6  0  0  0
  7  5  1  0  0  0  0
  9  8  1  1  0  0  0
  9  7  1  0  0  0  0
  9  4  1  0  0  0  0
 10 12  1  0  0  0  0
 10 16  1  0  0  0  0
 11 16  2  0  0  0  0
 13 10  2  0  0  0  0
 14 11  1  0  0  0  0
 15 13  1  0  0  0  0
 15 14  2  0  0  0  0
 17 19  1  0  0  0  0
 17  1  1  0  0  0  0
 18 19  2  0  0  0  0
 20 23  1  0  0  0  0
 21 18  1  0  0  0  0
 22 21  1  0  0  0  0
 23 17  2  0  0  0  0
 24 21  2  0  0  0  0
 24 23  1  0  0  0  0
 25 28  2  0  0  0  0
 27 29  2  0  0  0  0
 28 26  1  0  0  0  0
 29 26  1  0  0  0  0
 29 31  1  0  0  0  0
 31 30  1  0  0  0  0
M  END
>  <MODEL>
4

>  <REMARK>
 VINA RESULT:      -5.4      2.509      3.314
  Name = 
  5 active torsions:
  status: ('A' for Active; 'I' for Inactive)
    1  A    between atoms: C_3  and  C_22
    2  A    between atoms: C_4  and  C_5
    3  A    between atoms: C_4  and  N_12
    4  A    between atoms: C_4  and  C_21
    5  A    between atoms: C_27  and  C_28
                            x       y       z     vdW  Elec       q    Type
                         _______ _______ _______ _____ _____    ______ ____

>  <TORSDO>
F 5

$$$$
=
 OpenBabel10272400203D

 31 33  0  0  1  0  0  0  0  0999 V2000
  185.5040  176.4020  137.1200 C   0  0  2  0  0  3  0  0  0  0  0  0
  186.1600  173.2780  136.5310 C   0  0  2  0  0  3  0  0  0  0  0  0
  185.5610  172.7820  138.6520 O   0  0  0  0  0  1  0  0  0  0  0  0
  185.0400  173.0020  137.4220 N   0  0  0  0  0  0  0  0  0  0  0  0
  185.7620  174.4220  135.6090 C   0  0  1  0  0  3  0  0  0  0  0  0
  185.0390  173.9550  134.3510 C   0  0  0  0  0  1  0  0  0  0  0  0
  184.7890  175.2200  136.4470 C   0  0  1  0  0  3  0  0  0  0  0  0
  182.8080  173.9540  137.2640 C   0  0  0  0  0  1  0  0  0  0  0  0
  184.2770  174.2440  137.5040 C   0  0  1  0  0  3  0  0  0  0  0  0
  186.3520  169.7930  134.9920 C   0  0  0  0  0  0  0  0  0  0  0  0
  188.4850  170.9020  134.7030 C   0  0  0  0  0  3  0  0  0  0  0  0
  185.3270  168.3950  134.7580 Cl  0  0  0  0  0  0  0  0  0  0  0  0
  185.8550  170.9200  135.6530 C   0  0  0  0  0  3  0  0  0  0  0  0
  187.9890  172.0310  135.3640 C   0  0  0  0  0  3  0  0  0  0  0  0
  186.6760  172.0430  135.8470 C   0  0  0  0  0  0  0  0  0  0  0  0
  187.6670  169.7840  134.5180 C   0  0  0  0  0  3  0  0  0  0  0  0
  184.5900  177.4680  137.6690 C   0  0  0  0  0  0  0  0  0  0  0  0
  182.3670  178.4480  137.6590 C   0  0  0  0  0  3  0  0  0  0  0  0
  183.2770  177.5010  137.1860 C   0  0  0  0  0  3  0  0  0  0  0  0
  186.3080  178.4140  139.1790 N   0  0  0  0  0  1  0  0  0  0  0  0
  182.7630  179.3730  138.6270 C   0  0  0  0  0  0  0  0  0  0  0  0
  181.6220  180.5600  139.2210 Cl  0  0  0  0  0  0  0  0  0  0  0  0
  184.9850  178.4030  138.6540 C   0  0  0  0  0  0  0  0  0  0  0  0
  184.0680  179.3490  139.1230 C   0  0  0  0  0  3  0  0  0  0  0  0
  187.0830  178.2120  134.3470 O   0  0  0  0  0  0  0  0  0  0  0  0
  186.5720  176.9730  136.2910 N   0  0  0  0  0  0  0  0  0  0  0  0
  188.8890  177.2830  136.0310 O   0  0  0  0  0  0  0  0  0  0  0  0
  186.2150  177.7180  135.1140 C   0  0  0  0  0  3  0  0  0  0  0  0
  187.9460  176.7530  136.6760 C   0  0  0  0  0  0  0  0  0  0  0  0
  189.3810  176.4670  138.5290 O   0  0  0  0  0  1  0  0  0  0  0  0
  188.2840  175.9170  137.8670 C   0  0  0  0  0  2  0  0  0  0  0  0
  1 26  1  6  0  0  0
  1 17  1  0  0  0  0
  2 15  1  6  0  0  0
  2  4  1  0  0  0  0
  4  9  1  0  0  0  0
  4  3  1  0  0  0  0
  5  6  1  6  0  0  0
  5  7  1  0  0  0  0
  5  2  1  0  0  0  0
  7  1  1  1  0  0  0
  7  9  1  0  0  0  0
  9  8  1  6  0  0  0
 10 13  1  0  0  0  0
 11 14  2  0  0  0  0
 12 10  1  0  0  0  0
 13 15  2  0  0  0  0
 14 15  1  0  0  0  0
 16 11  1  0  0  0  0
 16 10  2  0  0  0  0
 17 23  1  0  0  0  0
 18 21  2  0  0  0  0
 19 18  1  0  0  0  0
 19 17  2  0  0  0  0
 21 24  1  0  0  0  0
 21 22  1  0  0  0  0
 23 24  2  0  0  0  0
 23 20  1  0  0  0  0
 25 28  2  0  0  0  0
 26 29  1  0  0  0  0
 27 29  2  0  0  0  0
 28 26  1  0  0  0  0
 29 31  1  0  0  0  0
 31 30  1  0  0  0  0
M  END
>  <MODEL>
5

>  <REMARK>
 VINA RESULT:      -5.0      5.057      8.821
  Name = 
  5 active torsions:
  status: ('A' for Active; 'I' for Inactive)
    1  A    between atoms: C_3  and  C_22
    2  A    between atoms: C_4  and  C_5
    3  A    between atoms: C_4  and  N_12
    4  A    between atoms: C_4  and  C_21
    5  A    between atoms: C_27  and  C_28
                            x       y       z     vdW  Elec       q    Type
                         _______ _______ _______ _____ _____    ______ ____

>  <TORSDO>
F 5

$$$$
=
 OpenBabel10272400203D

 31 33  0  0  1  0  0  0  0  0999 V2000
  184.5810  176.9820  137.7050 C   0  0  2  0  0  3  0  0  0  0  0  0
  187.7680  176.3740  137.6100 C   0  0  2  0  0  3  0  0  0  0  0  0
  187.3490  174.5160  136.3970 O   0  0  0  0  0  1  0  0  0  0  0  0
  187.5050  175.8550  136.2740 N   0  0  0  0  0  0  0  0  0  0  0  0
  186.9870  177.6700  137.7780 C   0  0  1  0  0  3  0  0  0  0  0  0
  187.7480  178.8970  137.2890 C   0  0  0  0  0  1  0  0  0  0  0  0
  185.7850  177.4680  136.8840 C   0  0  1  0  0  3  0  0  0  0  0  0
  186.3080  177.0010  134.4960 C   0  0  0  0  0  1  0  0  0  0  0  0
  186.2070  176.3950  135.8820 C   0  0  1  0  0  3  0  0  0  0  0  0
  191.0610  176.8530  139.4750 C   0  0  0  0  0  0  0  0  0  0  0  0
  191.5340  176.1830  137.1970 C   0  0  0  0  0  3  0  0  0  0  0  0
  191.6220  177.2980  141.0710 Cl  0  0  0  0  0  0  0  0  0  0  0  0
  189.6910  176.8070  139.2040 C   0  0  0  0  0  3  0  0  0  0  0  0
  190.1630  176.1370  136.9240 C   0  0  0  0  0  3  0  0  0  0  0  0
  189.2360  176.4560  137.9230 C   0  0  0  0  0  0  0  0  0  0  0  0
  191.9830  176.5410  138.4720 C   0  0  0  0  0  3  0  0  0  0  0  0
  183.4870  176.3260  136.9010 C   0  0  0  0  0  0  0  0  0  0  0  0
  181.6130  176.6290  135.3840 C   0  0  0  0  0  3  0  0  0  0  0  0
  182.6380  177.1630  136.1660 C   0  0  0  0  0  3  0  0  0  0  0  0
  184.1330  174.0290  137.5620 N   0  0  0  0  0  1  0  0  0  0  0  0
  181.4270  175.2460  135.3270 C   0  0  0  0  0  0  0  0  0  0  0  0
  180.1420  174.5760  134.3460 Cl  0  0  0  0  0  0  0  0  0  0  0  0
  183.2990  174.9260  136.8350 C   0  0  0  0  0  0  0  0  0  0  0  0
  182.2690  174.3980  136.0490 C   0  0  0  0  0  3  0  0  0  0  0  0
  184.1070  180.2880  139.2220 O   0  0  0  0  0  0  0  0  0  0  0  0
  184.0520  178.0080  138.6110 N   0  0  0  0  0  0  0  0  0  0  0  0
  182.5820  178.4770  140.3860 O   0  0  0  0  0  0  0  0  0  0  0  0
  184.5030  179.3660  138.4610 C   0  0  0  0  0  3  0  0  0  0  0  0
  183.1110  177.6170  139.6330 C   0  0  0  0  0  0  0  0  0  0  0  0
  181.3290  176.0700  139.7240 O   0  0  0  0  0  1  0  0  0  0  0  0
  182.7160  176.1870  139.8050 C   0  0  0  0  0  2  0  0  0  0  0  0
  1 26  1  6  0  0  0
  2  5  1  0  0  0  0
  2 15  1  6  0  0  0
  4  3  1  0  0  0  0
  4  2  1  0  0  0  0
  5  6  1  6  0  0  0
  7  1  1  1  0  0  0
  7  5  1  0  0  0  0
  9  8  1  6  0  0  0
  9  4  1  0  0  0  0
  9  7  1  0  0  0  0
 10 12  1  0  0  0  0
 11 16  1  0  0  0  0
 13 10  1  0  0  0  0
 14 11  2  0  0  0  0
 14 15  1  0  0  0  0
 15 13  2  0  0  0  0
 16 10  2  0  0  0  0
 17  1  1  0  0  0  0
 18 19  1  0  0  0  0
 19 17  2  0  0  0  0
 21 18  2  0  0  0  0
 21 24  1  0  0  0  0
 22 21  1  0  0  0  0
 23 17  1  0  0  0  0
 23 20  1  0  0  0  0
 24 23  2  0  0  0  0
 26 29  1  0  0  0  0
 28 26  1  0  0  0  0
 28 25  2  0  0  0  0
 29 31  1  0  0  0  0
 29 27  2  0  0  0  0
 30 31  1  0  0  0  0
M  END
>  <MODEL>
6

>  <REMARK>
 VINA RESULT:      -5.0      4.777      7.574
  Name = 
  5 active torsions:
  status: ('A' for Active; 'I' for Inactive)
    1  A    between atoms: C_3  and  C_22
    2  A    between atoms: C_4  and  C_5
    3  A    between atoms: C_4  and  N_12
    4  A    between atoms: C_4  and  C_21
    5  A    between atoms: C_27  and  C_28
                            x       y       z     vdW  Elec       q    Type
                         _______ _______ _______ _____ _____    ______ ____

>  <TORSDO>
F 5

$$$$
=
 OpenBabel10272400203D

 31 33  0  0  1  0  0  0  0  0999 V2000
  184.7510  175.4870  136.6780 C   0  0  2  0  0  3  0  0  0  0  0  0
  187.7890  175.8240  137.7700 C   0  0  2  0  0  3  0  0  0  0  0  0
  188.1970  173.6740  137.2140 O   0  0  0  0  0  1  0  0  0  0  0  0
  188.1480  174.9200  136.6850 N   0  0  0  0  0  0  0  0  0  0  0  0
  186.7870  176.8360  137.2310 C   0  0  1  0  0  3  0  0  0  0  0  0
  187.4460  178.0560  136.5990 C   0  0  0  0  0  1  0  0  0  0  0  0
  186.0690  176.0680  136.1450 C   0  0  1  0  0  3  0  0  0  0  0  0
  187.5320  175.1620  134.3460 C   0  0  0  0  0  1  0  0  0  0  0  0
  187.0220  174.9390  135.7570 C   0  0  1  0  0  3  0  0  0  0  0  0
  190.0470  177.4010  140.4090 C   0  0  0  0  0  0  0  0  0  0  0  0
  191.3530  176.9480  138.4220 C   0  0  0  0  0  3  0  0  0  0  0  0
  189.9410  178.0030  142.0480 Cl  0  0  0  0  0  0  0  0  0  0  0  0
  188.9100  176.8870  139.7790 C   0  0  0  0  0  3  0  0  0  0  0  0
  190.2160  176.4330  137.7900 C   0  0  0  0  0  3  0  0  0  0  0  0
  188.9890  176.4070  138.4620 C   0  0  0  0  0  0  0  0  0  0  0  0
  191.2690  177.4320  139.7300 C   0  0  0  0  0  3  0  0  0  0  0  0
  184.4190  174.1020  136.1820 C   0  0  0  0  0  0  0  0  0  0  0  0
  183.5500  172.7430  134.3650 C   0  0  0  0  0  3  0  0  0  0  0  0
  183.8670  173.9930  134.9000 C   0  0  0  0  0  3  0  0  0  0  0  0
  185.2200  172.9810  138.2390 N   0  0  0  0  0  1  0  0  0  0  0  0
  183.7850  171.5860  135.1100 C   0  0  0  0  0  0  0  0  0  0  0  0
  183.3870  170.0190  134.4400 Cl  0  0  0  0  0  0  0  0  0  0  0  0
  184.6620  172.9270  136.9300 C   0  0  0  0  0  0  0  0  0  0  0  0
  184.3400  171.6780  136.3880 C   0  0  0  0  0  3  0  0  0  0  0  0
  182.5980  178.0430  135.1640 O   0  0  0  0  0  0  0  0  0  0  0  0
  183.6160  176.4060  136.5280 N   0  0  0  0  0  0  0  0  0  0  0  0
  181.6120  177.2050  137.4630 O   0  0  0  0  0  0  0  0  0  0  0  0
  183.5320  177.2160  135.3420 C   0  0  0  0  0  3  0  0  0  0  0  0
  182.6350  176.4810  137.5830 C   0  0  0  0  0  0  0  0  0  0  0  0
  182.8910  176.5300  139.9310 O   0  0  0  0  0  1  0  0  0  0  0  0
  182.7900  175.6760  138.8320 C   0  0  0  0  0  2  0  0  0  0  0  0
  1 26  1  6  0  0  0
  2 15  1  6  0  0  0
  4  3  1  0  0  0  0
  4  2  1  0  0  0  0
  5  6  1  6  0  0  0
  5  2  1  0  0  0  0
  7  1  1  1  0  0  0
  7  5  1  0  0  0  0
  9  8  1  6  0  0  0
  9  7  1  0  0  0  0
  9  4  1  0  0  0  0
 10 12  1  0  0  0  0
 11 16  1  0  0  0  0
 13 10  1  0  0  0  0
 14 11  2  0  0  0  0
 14 15  1  0  0  0  0
 15 13  2  0  0  0  0
 16 10  2  0  0  0  0
 17  1  1  0  0  0  0
 17 23  1  0  0  0  0
 18 19  1  0  0  0  0
 18 21  2  0  0  0  0
 19 17  2  0  0  0  0
 21 24  1  0  0  0  0
 22 21  1  0  0  0  0
 23 20  1  0  0  0  0
 24 23  2  0  0  0  0
 25 28  2  0  0  0  0
 26 29  1  0  0  0  0
 27 29  2  0  0  0  0
 28 26  1  0  0  0  0
 29 31  1  0  0  0  0
 31 30  1  0  0  0  0
M  END
>  <MODEL>
7

>  <REMARK>
 VINA RESULT:      -5.0      4.353      6.960
  Name = 
  5 active torsions:
  status: ('A' for Active; 'I' for Inactive)
    1  A    between atoms: C_3  and  C_22
    2  A    between atoms: C_4  and  C_5
    3  A    between atoms: C_4  and  N_12
    4  A    between atoms: C_4  and  C_21
    5  A    between atoms: C_27  and  C_28
                            x       y       z     vdW  Elec       q    Type
                         _______ _______ _______ _____ _____    ______ ____

>  <TORSDO>
F 5

$$$$
=
 OpenBabel10272400203D

 31 33  0  0  1  0  0  0  0  0999 V2000
  181.2330  178.9960  138.3530 C   0  0  2  0  0  3  0  0  0  0  0  0
  183.3180  176.5470  137.9180 C   0  0  2  0  0  3  0  0  0  0  0  0
  182.2660  175.3970  139.5520 O   0  0  0  0  0  1  0  0  0  0  0  0
  182.1850  175.6870  138.2320 N   0  0  0  0  0  0  0  0  0  0  0  0
  182.8360  177.6460  136.9820 C   0  0  1  0  0  3  0  0  0  0  0  0
  182.8900  177.2490  135.5110 C   0  0  0  0  0  1  0  0  0  0  0  0
  181.3860  177.8220  137.3730 C   0  0  1  0  0  3  0  0  0  0  0  0
  179.9850  175.7720  137.1980 C   0  0  0  0  0  1  0  0  0  0  0  0
  180.9940  176.5130  138.0550 C   0  0  1  0  0  3  0  0  0  0  0  0
  186.8880  175.6330  136.9310 C   0  0  0  0  0  0  0  0  0  0  0  0
  185.4850  173.6720  136.7190 C   0  0  0  0  0  3  0  0  0  0  0  0
  188.4590  176.3930  136.8060 Cl  0  0  0  0  0  0  0  0  0  0  0  0
  185.7830  176.3790  137.3490 C   0  0  0  0  0  3  0  0  0  0  0  0
  184.3770  174.4180  137.1370 C   0  0  0  0  0  3  0  0  0  0  0  0
  184.5190  175.7750  137.4470 C   0  0  0  0  0  0  0  0  0  0  0  0
  186.7390  174.2790  136.6160 C   0  0  0  0  0  3  0  0  0  0  0  0
  180.9210  180.3240  137.7100 C   0  0  0  0  0  0  0  0  0  0  0  0
  180.7750  181.6060  135.6510 C   0  0  0  0  0  3  0  0  0  0  0  0
  181.0620  180.4140  136.3200 C   0  0  0  0  0  3  0  0  0  0  0  0
  180.3170  181.4180  139.8470 N   0  0  0  0  0  1  0  0  0  0  0  0
  180.3410  182.7210  136.3690 C   0  0  0  0  0  0  0  0  0  0  0  0
  179.9820  184.2150  135.5310 Cl  0  0  0  0  0  0  0  0  0  0  0  0
  180.4750  181.4550  138.4330 C   0  0  0  0  0  0  0  0  0  0  0  0
  180.1910  182.6450  137.7550 C   0  0  0  0  0  3  0  0  0  0  0  0
  184.6080  179.7070  139.6030 O   0  0  0  0  0  0  0  0  0  0  0  0
  182.3460  179.0980  139.3040 N   0  0  0  0  0  0  0  0  0  0  0  0
  183.0510  178.7910  141.5260 O   0  0  0  0  0  0  0  0  0  0  0  0
  183.6070  179.6170  138.8450 C   0  0  0  0  0  3  0  0  0  0  0  0
  182.1440  178.6570  140.6630 C   0  0  0  0  0  0  0  0  0  0  0  0
  180.3550  178.7430  142.2020 O   0  0  0  0  0  1  0  0  0  0  0  0
  180.8440  178.0590  141.0900 C   0  0  0  0  0  2  0  0  0  0  0  0
  1 26  1  6  0  0  0
  2 15  1  6  0  0  0
  2  4  1  0  0  0  0
  4  3  1  0  0  0  0
  5  6  1  6  0  0  0
  5  7  1  0  0  0  0
  5  2  1  0  0  0  0
  7  9  1  0  0  0  0
  7  1  1  1  0  0  0
  9  8  1  6  0  0  0
  9  4  1  0  0  0  0
 10 13  1  0  0  0  0
 11 14  2  0  0  0  0
 12 10  1  0  0  0  0
 13 15  2  0  0  0  0
 14 15  1  0  0  0  0
 16 11  1  0  0  0  0
 16 10  2  0  0  0  0
 17  1  1  0  0  0  0
 17 23  1  0  0  0  0
 18 19  1  0  0  0  0
 18 21  2  0  0  0  0
 19 17  2  0  0  0  0
 21 24  1  0  0  0  0
 22 21  1  0  0  0  0
 23 20  1  0  0  0  0
 24 23  2  0  0  0  0
 26 29  1  0  0  0  0
 28 26  1  0  0  0  0
 28 25  2  0  0  0  0
 29 31  1  0  0  0  0
 29 27  2  0  0  0  0
 31 30  1  0  0  0  0
M  END
>  <MODEL>
8

>  <REMARK>
 VINA RESULT:      -4.8      6.862      9.966
  Name = 
  5 active torsions:
  status: ('A' for Active; 'I' for Inactive)
    1  A    between atoms: C_3  and  C_22
    2  A    between atoms: C_4  and  C_5
    3  A    between atoms: C_4  and  N_12
    4  A    between atoms: C_4  and  C_21
    5  A    between atoms: C_27  and  C_28
                            x       y       z     vdW  Elec       q    Type
                         _______ _______ _______ _____ _____    ______ ____

>  <TORSDO>
F 5

$$$$
=
 OpenBabel10272400203D

 31 33  0  0  1  0  0  0  0  0999 V2000
  189.7520  176.4770  137.0900 C   0  0  2  0  0  3  0  0  0  0  0  0
  186.6060  176.9350  136.4400 C   0  0  2  0  0  3  0  0  0  0  0  0
  187.1710  177.7400  134.4070 O   0  0  0  0  0  1  0  0  0  0  0  0
  186.9620  176.5800  135.0730 N   0  0  0  0  0  0  0  0  0  0  0  0
  187.3170  175.9730  137.3810 C   0  0  1  0  0  3  0  0  0  0  0  0
  186.5290  174.6940  137.6410 C   0  0  0  0  0  1  0  0  0  0  0  0
  188.5730  175.6110  136.6210 C   0  0  1  0  0  3  0  0  0  0  0  0
  188.1990  174.6060  134.3750 C   0  0  0  0  0  1  0  0  0  0  0  0
  188.2530  175.9040  135.1570 C   0  0  1  0  0  3  0  0  0  0  0  0
  183.2030  177.9340  137.8430 C   0  0  0  0  0  0  0  0  0  0  0  0
  182.8720  176.5550  135.8820 C   0  0  0  0  0  3  0  0  0  0  0  0
  182.5430  178.8750  139.1630 Cl  0  0  0  0  0  0  0  0  0  0  0  0
  184.5870  177.8160  137.6940 C   0  0  0  0  0  3  0  0  0  0  0  0
  184.2580  176.4350  135.7310 C   0  0  0  0  0  3  0  0  0  0  0  0
  185.1210  177.0580  136.6400 C   0  0  0  0  0  0  0  0  0  0  0  0
  182.3450  177.3030  136.9370 C   0  0  0  0  0  3  0  0  0  0  0  0
  191.0890  175.7770  137.1030 C   0  0  0  0  0  0  0  0  0  0  0  0
  193.5070  176.0030  137.0280 C   0  0  0  0  0  3  0  0  0  0  0  0
  192.2340  176.5760  137.0060 C   0  0  0  0  0  3  0  0  0  0  0  0
  190.1030  173.5180  137.3350 N   0  0  0  0  0  1  0  0  0  0  0  0
  193.6460  174.6190  137.1510 C   0  0  0  0  0  0  0  0  0  0  0  0
  195.2410  173.9000  137.1790 Cl  0  0  0  0  0  0  0  0  0  0  0  0
  191.2340  174.3770  137.2340 C   0  0  0  0  0  0  0  0  0  0  0  0
  192.5130  173.8100  137.2550 C   0  0  0  0  0  3  0  0  0  0  0  0
  189.3700  176.9680  140.7050 O   0  0  0  0  0  0  0  0  0  0  0  0
  189.4880  177.1710  138.3550 N   0  0  0  0  0  0  0  0  0  0  0  0
  188.9280  179.2100  139.3850 O   0  0  0  0  0  0  0  0  0  0  0  0
  189.6080  176.4380  139.5880 C   0  0  0  0  0  3  0  0  0  0  0  0
  189.0970  178.5600  138.3200 C   0  0  0  0  0  0  0  0  0  0  0  0
  187.6320  179.8150  136.9580 O   0  0  0  0  0  1  0  0  0  0  0  0
  188.9150  179.2720  137.0200 C   0  0  0  0  0  2  0  0  0  0  0  0
  1 17  1  0  0  0  0
  1 26  1  1  0  0  0
  2 15  1  6  0  0  0
  2  5  1  0  0  0  0
  3  4  1  0  0  0  0
  4  9  1  0  0  0  0
  4  2  1  0  0  0  0
  5  6  1  6  0  0  0
  7  1  1  1  0  0  0
  7  5  1  0  0  0  0
  9  8  1  6  0  0  0
  9  7  1  0  0  0  0
 10 12  1  0  0  0  0
 11 16  1  0  0  0  0
 13 10  1  0  0  0  0
 14 11  2  0  0  0  0
 14 15  1  0  0  0  0
 15 13  2  0  0  0  0
 16 10  2  0  0  0  0
 17 23  1  0  0  0  0
 18 21  2  0  0  0  0
 19 18  1  0  0  0  0
 19 17  2  0  0  0  0
 21 22  1  0  0  0  0
 21 24  1  0  0  0  0
 23 24  2  0  0  0  0
 23 20  1  0  0  0  0
 26 28  1  0  0  0  0
 28 25  2  0  0  0  0
 29 26  1  0  0  0  0
 29 27  2  0  0  0  0
 30 31  1  0  0  0  0
 31 29  1  0  0  0  0
M  END
>  <MODEL>
9

>  <REMARK>
 VINA RESULT:      -4.7      3.546      5.635
  Name = 
  5 active torsions:
  status: ('A' for Active; 'I' for Inactive)
    1  A    between atoms: C_3  and  C_22
    2  A    between atoms: C_4  and  C_5
    3  A    between atoms: C_4  and  N_12
    4  A    between atoms: C_4  and  C_21
    5  A    between atoms: C_27  and  C_28
                            x       y       z     vdW  Elec       q    Type
                         _______ _______ _______ _____ _____    ______ ____

>  <TORSDO>
F 5

$$$$
