=
 OpenBabel10272413293D

 32 36  0  0  1  0  0  0  0  0999 V2000
  187.4100  178.0240  142.2110 C   0  0  0  0  0  0  0  0  0  0  0  0
  183.6470  179.1480  145.1060 C   0  0  0  0  0  3  0  0  0  0  0  0
  184.3740  178.8460  146.1900 C   0  0  0  0  0  3  0  0  0  0  0  0
  189.6860  177.4890  143.1980 C   0  0  2  0  0  3  0  0  0  0  0  0
  190.2130  176.7570  144.4210 C   0  0  1  0  0  3  0  0  0  0  0  0
  187.1540  177.9970  139.6850 C   0  0  2  0  0  3  0  0  0  0  0  0
  185.1520  178.5460  141.1400 C   0  0  0  0  0  2  0  0  0  0  0  0
  190.7690  176.9110  146.6110 C   0  0  0  0  0  0  0  0  0  0  0  0
  183.9450  178.4960  143.7830 C   0  0  0  0  0  2  0  0  0  0  0  0
  186.0280  178.3040  142.3460 C   0  0  0  0  0  0  0  0  0  0  0  0
  185.4290  178.2590  143.6170 C   0  0  0  0  0  0  0  0  0  0  0  0
  187.5650  177.6690  144.6360 C   0  0  0  0  0  0  0  0  0  0  0  0
  191.9160  176.2940  145.8920 C   0  0  0  0  0  2  0  0  0  0  0  0
  185.9310  178.9050  139.8710 C   0  0  2  0  0  3  0  0  0  0  0  0
  191.6550  176.5330  144.4680 N   0  0  0  0  0  2  0  0  0  0  0  0
  185.5000  177.8500  146.0980 C   0  0  0  0  0  2  0  0  0  0  0  0
  186.1930  177.9410  144.7570 C   0  0  0  0  0  0  0  0  0  0  0  0
  188.3480  177.2460  145.8730 C   0  0  0  0  0  2  0  0  0  0  0  0
  188.0970  178.1550  140.8720 C   0  0  0  0  0  2  0  0  0  0  0  0
  190.3390  178.7160  143.0450 O   0  0  0  0  0  1  0  0  0  0  0  0
  190.6680  176.9740  147.8260 O   0  0  0  0  0  0  0  0  0  0  0  0
  188.1840  177.7170  143.3490 C   0  0  0  0  0  0  0  0  0  0  0  0
  189.8260  177.5100  145.6580 C   0  0  2  0  0  3  0  0  0  0  0  0
  189.3610  178.6110  138.5890 C   0  0  0  0  0  1  0  0  0  0  0  0
  187.8940  178.2660  138.3730 C   0  0  0  0  0  2  0  0  0  0  0  0
  185.1000  178.9850  138.7300 O   0  0  0  0  0  0  0  0  0  0  0  0
  183.8680  179.5570  139.0940 C   0  0  0  0  0  2  0  0  0  0  0  0
  182.7440  178.8160  138.4020 C   0  0  0  0  0  2  0  0  0  0  0  0
  181.5070  179.0220  139.1330 N   0  0  0  0  0  2  0  0  0  0  0  0
  181.5740  178.2020  140.3310 C   0  0  1  0  0  3  0  0  0  0  0  0
  181.0580  178.9950  141.5130 C   0  0  0  0  0  1  0  0  0  0  0  0
  180.7900  177.0600  140.1650 O   0  0  0  0  0  1  0  0  0  0  0  0
  1 10  2  0  0  0  0
  1 22  1  0  0  0  0
  2  3  2  0  0  0  0
  4 20  1  1  0  0  0
  4 22  1  0  0  0  0
  4  5  1  0  0  0  0
  5 15  1  6  0  0  0
  5 23  1  0  0  0  0
  6 25  1  6  0  0  0
  6 14  1  0  0  0  0
  6 19  1  0  0  0  0
  7 10  1  0  0  0  0
  8 21  2  0  0  0  0
  9  2  1  0  0  0  0
 10 11  1  0  0  0  0
 11  9  1  0  0  0  0
 11 17  2  0  0  0  0
 12 17  1  0  0  0  0
 12 18  1  0  0  0  0
 13  8  1  0  0  0  0
 14 26  1  6  0  0  0
 14  7  1  0  0  0  0
 15 13  1  0  0  0  0
 16  3  1  0  0  0  0
 17 16  1  0  0  0  0
 19  1  1  0  0  0  0
 22 12  2  0  0  0  0
 23 18  1  1  0  0  0
 23  8  1  0  0  0  0
 25 24  1  0  0  0  0
 26 27  1  0  0  0  0
 28 27  1  0  0  0  0
 28 29  1  0  0  0  0
 29 30  1  0  0  0  0
 30 31  1  1  0  0  0
 32 30  1  0  0  0  0
M  END
>  <MODEL>
1

>  <REMARK>
 VINA RESULT:      -9.4      0.000      0.000
  Name = 
  6 active torsions:
  status: ('A' for Active; 'I' for Inactive)
    1  A    between atoms: C_1  and  N_10
    2  A    between atoms: C_2  and  O_12
    3  A    between atoms: C_2  and  C_24
    4  A    between atoms: C_8  and  C_23
    5  A    between atoms: N_10  and  C_24
    6  A    between atoms: O_12  and  C_21
                            x       y       z     vdW  Elec       q    Type
                         _______ _______ _______ _____ _____    ______ ____

>  <TORSDO>
F 6

$$$$
=
 OpenBabel10272413293D

 32 36  0  0  1  0  0  0  0  0999 V2000
  187.9070  177.9980  142.0060 C   0  0  0  0  0  0  0  0  0  0  0  0
  183.6410  179.2440  144.0220 C   0  0  0  0  0  3  0  0  0  0  0  0
  184.1400  179.0210  145.2460 C   0  0  0  0  0  3  0  0  0  0  0  0
  189.9430  177.5580  143.4560 C   0  0  2  0  0  3  0  0  0  0  0  0
  190.2180  176.9110  144.8040 C   0  0  1  0  0  3  0  0  0  0  0  0
  188.1580  177.8110  139.4870 C   0  0  2  0  0  3  0  0  0  0  0  0
  185.9060  178.4210  140.4790 C   0  0  0  0  0  2  0  0  0  0  0  0
  190.3270  177.2080  147.0470 C   0  0  0  0  0  0  0  0  0  0  0  0
  184.1980  178.5160  142.8280 C   0  0  0  0  0  2  0  0  0  0  0  0
  186.5250  178.2660  141.8480 C   0  0  0  0  0  0  0  0  0  0  0  0
  185.6860  178.2910  142.9750 C   0  0  0  0  0  0  0  0  0  0  0  0
  187.5780  177.7960  144.4320 C   0  0  0  0  0  0  0  0  0  0  0  0
  191.5950  176.5640  146.6090 C   0  0  0  0  0  2  0  0  0  0  0  0
  186.9210  178.7120  139.3690 C   0  0  2  0  0  3  0  0  0  0  0  0
  191.6220  176.7120  145.1500 N   0  0  0  0  0  2  0  0  0  0  0  0
  185.2640  178.0370  145.4410 C   0  0  0  0  0  2  0  0  0  0  0  0
  186.2090  178.0550  144.2610 C   0  0  0  0  0  0  0  0  0  0  0  0
  188.1000  177.4620  145.8240 C   0  0  0  0  0  2  0  0  0  0  0  0
  188.8460  178.0560  140.8250 C   0  0  0  0  0  2  0  0  0  0  0  0
  190.6100  178.7830  143.3580 O   0  0  0  0  0  1  0  0  0  0  0  0
  189.9870  177.3440  148.2110 O   0  0  0  0  0  0  0  0  0  0  0  0
  188.4400  177.7730  143.2930 C   0  0  0  0  0  0  0  0  0  0  0  0
  189.5910  177.7330  145.8890 C   0  0  2  0  0  3  0  0  0  0  0  0
  190.1550  176.8790  138.2270 C   0  0  0  0  0  1  0  0  0  0  0  0
  189.1430  178.0100  138.3330 C   0  0  0  0  0  2  0  0  0  0  0  0
  186.3320  178.7090  138.0830 O   0  0  0  0  0  0  0  0  0  0  0  0
  185.1130  178.0110  138.1340 C   0  0  0  0  0  2  0  0  0  0  0  0
  185.0680  176.9930  137.0140 C   0  0  0  0  0  2  0  0  0  0  0  0
  186.2370  177.1530  136.1690 N   0  0  0  0  0  2  0  0  0  0  0  0
  186.8320  175.8370  136.0040 C   0  0  1  0  0  3  0  0  0  0  0  0
  188.1310  175.9650  135.2390 C   0  0  0  0  0  1  0  0  0  0  0  0
  187.0870  175.2760  137.2560 O   0  0  0  0  0  1  0  0  0  0  0  0
  1 22  1  0  0  0  0
  2  3  2  0  0  0  0
  3 16  1  0  0  0  0
  4 20  1  1  0  0  0
  4  5  1  0  0  0  0
  5 15  1  1  0  0  0
  5 23  1  0  0  0  0
  6 25  1  6  0  0  0
  6 19  1  0  0  0  0
  7 10  1  0  0  0  0
  8 21  2  0  0  0  0
  9 11  1  0  0  0  0
  9  2  1  0  0  0  0
 10  1  2  0  0  0  0
 10 11  1  0  0  0  0
 11 17  2  0  0  0  0
 12 18  1  0  0  0  0
 13  8  1  0  0  0  0
 14 26  1  6  0  0  0
 14  6  1  0  0  0  0
 14  7  1  0  0  0  0
 15 13  1  0  0  0  0
 17 12  1  0  0  0  0
 17 16  1  0  0  0  0
 19  1  1  0  0  0  0
 22  4  1  0  0  0  0
 22 12  2  0  0  0  0
 23 18  1  1  0  0  0
 23  8  1  0  0  0  0
 24 25  1  0  0  0  0
 26 27  1  0  0  0  0
 28 27  1  0  0  0  0
 29 28  1  0  0  0  0
 30 31  1  6  0  0  0
 30 29  1  0  0  0  0
 30 32  1  0  0  0  0
M  END
>  <MODEL>
2

>  <REMARK>
 VINA RESULT:      -9.2      1.959      2.915
  Name = 
  6 active torsions:
  status: ('A' for Active; 'I' for Inactive)
    1  A    between atoms: C_1  and  N_10
    2  A    between atoms: C_2  and  O_12
    3  A    between atoms: C_2  and  C_24
    4  A    between atoms: C_8  and  C_23
    5  A    between atoms: N_10  and  C_24
    6  A    between atoms: O_12  and  C_21
                            x       y       z     vdW  Elec       q    Type
                         _______ _______ _______ _____ _____    ______ ____

>  <TORSDO>
F 6

$$$$
=
 OpenBabel10272413293D

 32 36  0  0  1  0  0  0  0  0999 V2000
  189.5710  177.5170  141.9390 C   0  0  0  0  0  0  0  0  0  0  0  0
  185.0120  179.2430  142.1480 C   0  0  0  0  0  3  0  0  0  0  0  0
  185.0410  179.1940  143.4870 C   0  0  0  0  0  3  0  0  0  0  0  0
  190.9420  177.2280  144.0560 C   0  0  2  0  0  3  0  0  0  0  0  0
  190.6810  176.7900  145.4880 C   0  0  1  0  0  3  0  0  0  0  0  0
  190.6450  176.9250  139.7170 C   0  0  2  0  0  3  0  0  0  0  0  0
  188.2580  177.7760  139.7660 C   0  0  0  0  0  2  0  0  0  0  0  0
  190.0490  177.4330  147.5650 C   0  0  0  0  0  0  0  0  0  0  0  0
  185.8700  178.3120  141.3330 C   0  0  0  0  0  2  0  0  0  0  0  0
  188.3580  177.8140  141.2730 C   0  0  0  0  0  0  0  0  0  0  0  0
  187.1910  178.0510  142.0210 C   0  0  0  0  0  0  0  0  0  0  0  0
  188.4200  177.7150  144.1000 C   0  0  0  0  0  0  0  0  0  0  0  0
  191.3240  176.6770  147.6900 C   0  0  0  0  0  2  0  0  0  0  0  0
  189.6120  177.8450  139.0540 C   0  0  2  0  0  3  0  0  0  0  0  0
  191.8590  176.5900  146.3270 N   0  0  0  0  0  2  0  0  0  0  0  0
  185.9340  178.2080  144.1930 C   0  0  0  0  0  2  0  0  0  0  0  0
  187.2220  178.0000  143.4280 C   0  0  0  0  0  0  0  0  0  0  0  0
  188.4040  177.5830  145.6180 C   0  0  0  0  0  2  0  0  0  0  0  0
  190.8570  177.3490  141.1660 C   0  0  0  0  0  2  0  0  0  0  0  0
  191.7150  178.3920  144.0350 O   0  0  0  0  0  1  0  0  0  0  0  0
  189.3470  177.7660  148.5070 O   0  0  0  0  0  0  0  0  0  0  0  0
  189.6120  177.4760  143.3490 C   0  0  0  0  0  0  0  0  0  0  0  0
  189.8030  177.7990  146.1640 C   0  0  2  0  0  3  0  0  0  0  0  0
  193.1530  177.3040  139.8440 C   0  0  0  0  0  1  0  0  0  0  0  0
  191.9780  176.8970  138.9660 C   0  0  0  0  0  2  0  0  0  0  0  0
  189.4980  177.6640  137.6560 O   0  0  0  0  0  0  0  0  0  0  0  0
  188.2940  176.9960  137.3730 C   0  0  0  0  0  2  0  0  0  0  0  0
  188.5830  175.5390  137.0780 C   0  0  0  0  0  2  0  0  0  0  0  0
  189.4820  175.4450  135.9420 N   0  0  0  0  0  2  0  0  0  0  0  0
  190.4260  174.3780  136.2270 C   0  0  1  0  0  3  0  0  0  0  0  0
  191.8320  174.8620  135.9450 C   0  0  0  0  0  1  0  0  0  0  0  0
  190.3260  174.0070  137.5690 O   0  0  0  0  0  1  0  0  0  0  0  0
  1 22  1  0  0  0  0
  2  3  2  0  0  0  0
  3 16  1  0  0  0  0
  4 20  1  1  0  0  0
  4  5  1  0  0  0  0
  5 23  1  0  0  0  0
  5 15  1  1  0  0  0
  6 25  1  6  0  0  0
  6 19  1  0  0  0  0
  7 10  1  0  0  0  0
  8 13  1  0  0  0  0
  8 21  2  0  0  0  0
  9 11  1  0  0  0  0
  9  2  1  0  0  0  0
 10  1  2  0  0  0  0
 10 11  1  0  0  0  0
 11 17  2  0  0  0  0
 12 18  1  0  0  0  0
 14 26  1  6  0  0  0
 14  6  1  0  0  0  0
 14  7  1  0  0  0  0
 15 13  1  0  0  0  0
 17 12  1  0  0  0  0
 17 16  1  0  0  0  0
 19  1  1  0  0  0  0
 22  4  1  0  0  0  0
 22 12  2  0  0  0  0
 23 18  1  6  0  0  0
 23  8  1  0  0  0  0
 25 24  1  0  0  0  0
 27 26  1  0  0  0  0
 28 27  1  0  0  0  0
 29 30  1  0  0  0  0
 29 28  1  0  0  0  0
 30 31  1  1  0  0  0
 30 32  1  0  0  0  0
M  END
>  <MODEL>
3

>  <REMARK>
 VINA RESULT:      -8.9      3.039      4.763
  Name = 
  6 active torsions:
  status: ('A' for Active; 'I' for Inactive)
    1  A    between atoms: C_1  and  N_10
    2  A    between atoms: C_2  and  O_12
    3  A    between atoms: C_2  and  C_24
    4  A    between atoms: C_8  and  C_23
    5  A    between atoms: N_10  and  C_24
    6  A    between atoms: O_12  and  C_21
                            x       y       z     vdW  Elec       q    Type
                         _______ _______ _______ _____ _____    ______ ____

>  <TORSDO>
F 6

$$$$
=
 OpenBabel10272413293D

 32 36  0  0  1  0  0  0  0  0999 V2000
  186.3590  178.3300  143.1970 C   0  0  0  0  0  0  0  0  0  0  0  0
  189.7680  177.3220  139.8540 C   0  0  0  0  0  3  0  0  0  0  0  0
  190.6710  177.1110  140.8210 C   0  0  0  0  0  3  0  0  0  0  0  0
  186.8340  177.9970  145.6680 C   0  0  2  0  0  3  0  0  0  0  0  0
  188.0190  178.1900  146.5990 C   0  0  1  0  0  3  0  0  0  0  0  0
  184.0600  179.1600  142.5110 C   0  0  2  0  0  3  0  0  0  0  0  0
  185.8050  178.6940  140.7320 C   0  0  0  0  0  2  0  0  0  0  0  0
  189.8980  177.2710  147.4680 C   0  0  0  0  0  0  0  0  0  0  0  0
  188.6030  178.2460  140.0900 C   0  0  0  0  0  2  0  0  0  0  0  0
  186.7710  178.3560  141.8430 C   0  0  0  0  0  0  0  0  0  0  0  0
  188.1270  178.1640  141.5220 C   0  0  0  0  0  0  0  0  0  0  0  0
  188.6800  177.9060  143.8830 C   0  0  0  0  0  0  0  0  0  0  0  0
  189.0770  177.7840  148.5980 C   0  0  0  0  0  2  0  0  0  0  0  0
  184.3320  178.5520  141.1290 C   0  0  2  0  0  3  0  0  0  0  0  0
  187.7500  178.0430  148.0270 N   0  0  0  0  0  2  0  0  0  0  0  0
  190.5320  177.7950  142.1560 C   0  0  0  0  0  2  0  0  0  0  0  0
  189.0770  177.9430  142.5380 C   0  0  0  0  0  0  0  0  0  0  0  0
  189.7410  177.7490  144.9650 C   0  0  0  0  0  2  0  0  0  0  0  0
  184.8980  178.4410  143.5630 C   0  0  0  0  0  2  0  0  0  0  0  0
  186.2370  176.7520  145.8900 O   0  0  0  0  0  1  0  0  0  0  0  0
  191.0490  176.8780  147.5730 O   0  0  0  0  0  0  0  0  0  0  0  0
  187.3040  178.0960  144.2190 C   0  0  0  0  0  0  0  0  0  0  0  0
  189.1020  177.2190  146.2350 C   0  0  2  0  0  3  0  0  0  0  0  0
  182.3580  178.7910  144.3600 C   0  0  0  0  0  1  0  0  0  0  0  0
  182.5780  179.1220  142.8910 C   0  0  0  0  0  2  0  0  0  0  0  0
  183.4530  179.0110  140.1200 O   0  0  0  0  0  0  0  0  0  0  0  0
  184.0960  178.9260  138.8730 C   0  0  0  0  0  2  0  0  0  0  0  0
  183.4300  177.8560  138.0350 C   0  0  0  0  0  2  0  0  0  0  0  0
  184.3890  176.8070  137.7380 N   0  0  0  0  0  2  0  0  0  0  0  0
  185.4760  177.4180  136.9900 C   0  0  1  0  0  3  0  0  0  0  0  0
  186.7770  176.7300  137.3430 C   0  0  0  0  0  1  0  0  0  0  0  0
  185.2390  177.2830  135.6210 O   0  0  0  0  0  1  0  0  0  0  0  0
  1 19  1  0  0  0  0
  1 22  1  0  0  0  0
  2  9  1  0  0  0  0
  2  3  2  0  0  0  0
  3 16  1  0  0  0  0
  4 20  1  6  0  0  0
  4  5  1  0  0  0  0
  5 15  1  1  0  0  0
  6 25  1  1  0  0  0
  6 19  1  0  0  0  0
  7 14  1  0  0  0  0
  7 10  1  0  0  0  0
  8 21  2  0  0  0  0
  8 13  1  0  0  0  0
  9 11  1  0  0  0  0
 10  1  2  0  0  0  0
 11 10  1  0  0  0  0
 11 17  2  0  0  0  0
 12 22  2  0  0  0  0
 12 18  1  0  0  0  0
 14 26  1  6  0  0  0
 14  6  1  0  0  0  0
 15 13  1  0  0  0  0
 16 17  1  0  0  0  0
 17 12  1  0  0  0  0
 22  4  1  0  0  0  0
 23 18  1  6  0  0  0
 23  5  1  0  0  0  0
 23  8  1  0  0  0  0
 25 24  1  0  0  0  0
 27 26  1  0  0  0  0
 28 27  1  0  0  0  0
 29 28  1  0  0  0  0
 30 31  1  1  0  0  0
 30 29  1  0  0  0  0
 32 30  1  0  0  0  0
M  END
>  <MODEL>
4

>  <REMARK>
 VINA RESULT:      -8.6      2.096      4.588
  Name = 
  6 active torsions:
  status: ('A' for Active; 'I' for Inactive)
    1  A    between atoms: C_1  and  N_10
    2  A    between atoms: C_2  and  O_12
    3  A    between atoms: C_2  and  C_24
    4  A    between atoms: C_8  and  C_23
    5  A    between atoms: N_10  and  C_24
    6  A    between atoms: O_12  and  C_21
                            x       y       z     vdW  Elec       q    Type
                         _______ _______ _______ _____ _____    ______ ____

>  <TORSDO>
F 6

$$$$
=
 OpenBabel10272413293D

 32 36  0  0  1  0  0  0  0  0999 V2000
  186.3600  178.2900  143.1900 C   0  0  0  0  0  0  0  0  0  0  0  0
  189.8080  177.2350  139.9030 C   0  0  0  0  0  3  0  0  0  0  0  0
  190.6990  177.0340  140.8830 C   0  0  0  0  0  3  0  0  0  0  0  0
  186.8030  177.9880  145.6710 C   0  0  2  0  0  3  0  0  0  0  0  0
  187.9780  178.1910  146.6140 C   0  0  1  0  0  3  0  0  0  0  0  0
  184.0710  179.1150  142.4650 C   0  0  2  0  0  3  0  0  0  0  0  0
  185.8370  178.6240  140.7140 C   0  0  0  0  0  2  0  0  0  0  0  0
  189.8440  177.2800  147.5180 C   0  0  0  0  0  0  0  0  0  0  0  0
  188.6420  178.1630  140.1120 C   0  0  0  0  0  2  0  0  0  0  0  0
  186.7890  178.2990  141.8400 C   0  0  0  0  0  0  0  0  0  0  0  0
  188.1480  178.1010  141.5390 C   0  0  0  0  0  0  0  0  0  0  0  0
  188.6710  177.8720  143.9100 C   0  0  0  0  0  0  0  0  0  0  0  0
  189.0100  177.8090  148.6310 C   0  0  0  0  0  2  0  0  0  0  0  0
  184.3590  178.4890  141.0940 C   0  0  2  0  0  3  0  0  0  0  0  0
  187.6910  178.0630  148.0400 N   0  0  0  0  0  2  0  0  0  0  0  0
  190.5450  177.7360  142.2070 C   0  0  0  0  0  2  0  0  0  0  0  0
  189.0850  177.8910  142.5700 C   0  0  0  0  0  0  0  0  0  0  0  0
  189.7190  177.7270  145.0070 C   0  0  0  0  0  2  0  0  0  0  0  0
  184.8950  178.4080  143.5360 C   0  0  0  0  0  2  0  0  0  0  0  0
  186.2020  176.7470  145.9010 O   0  0  0  0  0  1  0  0  0  0  0  0
  190.9930  176.8870  147.6420 O   0  0  0  0  0  0  0  0  0  0  0  0
  187.2910  178.0680  144.2260 C   0  0  0  0  0  0  0  0  0  0  0  0
  189.0630  177.2140  146.2750 C   0  0  2  0  0  3  0  0  0  0  0  0
  182.3450  178.7490  144.2920 C   0  0  0  0  0  1  0  0  0  0  0  0
  182.5840  179.0840  142.8270 C   0  0  0  0  0  2  0  0  0  0  0  0
  183.4930  178.9360  140.0690 O   0  0  0  0  0  0  0  0  0  0  0  0
  184.1640  178.8700  138.8360 C   0  0  0  0  0  2  0  0  0  0  0  0
  183.4250  177.9290  137.9090 C   0  0  0  0  0  2  0  0  0  0  0  0
  184.0400  176.6150  137.9650 N   0  0  0  0  0  2  0  0  0  0  0  0
  182.9660  175.6400  138.0620 C   0  0  1  0  0  3  0  0  0  0  0  0
  182.3080  175.7510  139.4200 C   0  0  0  0  0  1  0  0  0  0  0  0
  182.0180  175.8850  137.0680 O   0  0  0  0  0  1  0  0  0  0  0  0
  1 19  1  0  0  0  0
  1 22  1  0  0  0  0
  2  9  1  0  0  0  0
  2  3  2  0  0  0  0
  3 16  1  0  0  0  0
  4 20  1  1  0  0  0
  4  5  1  0  0  0  0
  5 15  1  1  0  0  0
  6 25  1  1  0  0  0
  6 19  1  0  0  0  0
  7 14  1  0  0  0  0
  7 10  1  0  0  0  0
  8 21  2  0  0  0  0
  8 13  1  0  0  0  0
  9 11  1  0  0  0  0
 10  1  2  0  0  0  0
 11 10  1  0  0  0  0
 11 17  2  0  0  0  0
 12 22  2  0  0  0  0
 12 18  1  0  0  0  0
 14 26  1  6  0  0  0
 14  6  1  0  0  0  0
 15 13  1  0  0  0  0
 16 17  1  0  0  0  0
 17 12  1  0  0  0  0
 22  4  1  0  0  0  0
 23 18  1  6  0  0  0
 23  5  1  0  0  0  0
 23  8  1  0  0  0  0
 25 24  1  0  0  0  0
 27 26  1  0  0  0  0
 28 29  1  0  0  0  0
 28 27  1  0  0  0  0
 29 30  1  0  0  0  0
 30 31  1  1  0  0  0
 32 30  1  0  0  0  0
M  END
>  <MODEL>
5

>  <REMARK>
 VINA RESULT:      -8.5      2.127      4.302
  Name = 
  6 active torsions:
  status: ('A' for Active; 'I' for Inactive)
    1  A    between atoms: C_1  and  N_10
    2  A    between atoms: C_2  and  O_12
    3  A    between atoms: C_2  and  C_24
    4  A    between atoms: C_8  and  C_23
    5  A    between atoms: N_10  and  C_24
    6  A    between atoms: O_12  and  C_21
                            x       y       z     vdW  Elec       q    Type
                         _______ _______ _______ _____ _____    ______ ____

>  <TORSDO>
F 6

$$$$
=
 OpenBabel10272413293D

 32 36  0  0  1  0  0  0  0  0999 V2000
  187.0320  178.2210  143.3280 C   0  0  0  0  0  0  0  0  0  0  0  0
  189.7200  177.2020  139.3850 C   0  0  0  0  0  3  0  0  0  0  0  0
  190.7720  176.9100  140.1610 C   0  0  0  0  0  3  0  0  0  0  0  0
  187.9300  177.7620  145.6570 C   0  0  2  0  0  3  0  0  0  0  0  0
  189.2730  177.8620  146.3610 C   0  0  1  0  0  3  0  0  0  0  0  0
  184.6930  179.1810  143.1040 C   0  0  2  0  0  3  0  0  0  0  0  0
  186.0590  178.7130  141.0200 C   0  0  0  0  0  2  0  0  0  0  0  0
  191.2280  176.8230  146.8400 C   0  0  0  0  0  0  0  0  0  0  0  0
  188.6670  178.1670  139.8600 C   0  0  0  0  0  2  0  0  0  0  0  0
  187.1920  178.2860  141.9220 C   0  0  0  0  0  0  0  0  0  0  0  0
  188.4550  178.0470  141.3530 C   0  0  0  0  0  0  0  0  0  0  0  0
  189.4140  177.6640  143.5620 C   0  0  0  0  0  0  0  0  0  0  0  0
  190.6530  177.3240  148.1170 C   0  0  0  0  0  2  0  0  0  0  0  0
  184.6780  178.6210  141.6760 C   0  0  2  0  0  3  0  0  0  0  0  0
  189.2610  177.6670  147.8080 N   0  0  0  0  0  2  0  0  0  0  0  0
  190.9130  177.5420  141.5210 C   0  0  0  0  0  2  0  0  0  0  0  0
  189.5610  177.7390  142.1690 C   0  0  0  0  0  0  0  0  0  0  0  0
  190.6440  177.4130  144.4250 C   0  0  0  0  0  2  0  0  0  0  0  0
  185.6700  178.3820  143.9590 C   0  0  0  0  0  2  0  0  0  0  0  0
  187.3190  176.5380  145.9430 O   0  0  0  0  0  1  0  0  0  0  0  0
  192.3570  176.3750  146.7180 O   0  0  0  0  0  0  0  0  0  0  0  0
  188.1330  177.9010  144.1510 C   0  0  0  0  0  0  0  0  0  0  0  0
  190.2200  176.8600  145.7720 C   0  0  2  0  0  3  0  0  0  0  0  0
  183.3350  178.7880  145.2140 C   0  0  0  0  0  1  0  0  0  0  0  0
  183.3050  179.1950  143.7470 C   0  0  0  0  0  2  0  0  0  0  0  0
  183.6550  179.1610  140.8610 O   0  0  0  0  0  0  0  0  0  0  0  0
  183.3430  178.2450  139.8420 C   0  0  0  0  0  2  0  0  0  0  0  0
  182.8530  178.9950  138.6220 C   0  0  0  0  0  2  0  0  0  0  0  0
  182.9890  180.4230  138.8460 N   0  0  0  0  0  2  0  0  0  0  0  0
  181.7680  181.0510  138.3690 C   0  0  1  0  0  3  0  0  0  0  0  0
  180.6100  180.6350  139.2500 C   0  0  0  0  0  1  0  0  0  0  0  0
  181.9050  182.4400  138.4120 O   0  0  0  0  0  1  0  0  0  0  0  0
  1 19  1  0  0  0  0
  1 22  1  0  0  0  0
  2  9  1  0  0  0  0
  2  3  2  0  0  0  0
  3 16  1  0  0  0  0
  4 20  1  6  0  0  0
  4  5  1  0  0  0  0
  5 15  1  1  0  0  0
  6 25  1  1  0  0  0
  6 19  1  0  0  0  0
  7 14  1  0  0  0  0
  7 10  1  0  0  0  0
  8 13  1  0  0  0  0
  9 11  1  0  0  0  0
 10  1  2  0  0  0  0
 11 10  1  0  0  0  0
 11 17  2  0  0  0  0
 12 22  2  0  0  0  0
 12 18  1  0  0  0  0
 14 26  1  6  0  0  0
 14  6  1  0  0  0  0
 15 13  1  0  0  0  0
 16 17  1  0  0  0  0
 17 12  1  0  0  0  0
 21  8  2  0  0  0  0
 22  4  1  0  0  0  0
 23 18  1  6  0  0  0
 23  5  1  0  0  0  0
 23  8  1  0  0  0  0
 25 24  1  0  0  0  0
 27 26  1  0  0  0  0
 28 29  1  0  0  0  0
 28 27  1  0  0  0  0
 30 32  1  0  0  0  0
 30 29  1  0  0  0  0
 30 31  1  1  0  0  0
M  END
>  <MODEL>
6

>  <REMARK>
 VINA RESULT:      -8.4      1.909      4.320
  Name = 
  6 active torsions:
  status: ('A' for Active; 'I' for Inactive)
    1  A    between atoms: C_1  and  N_10
    2  A    between atoms: C_2  and  O_12
    3  A    between atoms: C_2  and  C_24
    4  A    between atoms: C_8  and  C_23
    5  A    between atoms: N_10  and  C_24
    6  A    between atoms: O_12  and  C_21
                            x       y       z     vdW  Elec       q    Type
                         _______ _______ _______ _____ _____    ______ ____

>  <TORSDO>
F 6

$$$$
=
 OpenBabel10272413293D

 32 36  0  0  1  0  0  0  0  0999 V2000
  187.8640  178.0060  140.8290 C   0  0  0  0  0  0  0  0  0  0  0  0
  190.2190  177.8770  145.1010 C   0  0  0  0  0  3  0  0  0  0  0  0
  191.3330  177.4550  144.4890 C   0  0  0  0  0  3  0  0  0  0  0  0
  189.1100  177.6140  138.6540 C   0  0  2  0  0  3  0  0  0  0  0  0
  190.2400  176.7160  138.1760 C   0  0  1  0  0  3  0  0  0  0  0  0
  185.3770  178.5030  140.7220 C   0  0  2  0  0  3  0  0  0  0  0  0
  186.5370  178.4070  142.9730 C   0  0  0  0  0  2  0  0  0  0  0  0
  192.4810  176.4610  137.9690 C   0  0  0  0  0  0  0  0  0  0  0  0
  188.8660  177.5880  144.5060 C   0  0  0  0  0  2  0  0  0  0  0  0
  187.8070  178.0370  142.2440 C   0  0  0  0  0  0  0  0  0  0  0  0
  188.9200  177.6200  142.9960 C   0  0  0  0  0  0  0  0  0  0  0  0
  190.1620  177.1480  140.9510 C   0  0  0  0  0  0  0  0  0  0  0  0
  191.8670  176.2000  136.6390 C   0  0  0  0  0  2  0  0  0  0  0  0
  185.5200  179.1520  142.1050 C   0  0  2  0  0  3  0  0  0  0  0  0
  190.4940  176.7080  136.7380 N   0  0  0  0  0  2  0  0  0  0  0  0
  191.2460  176.6860  143.1960 C   0  0  0  0  0  2  0  0  0  0  0  0
  190.0910  177.1760  142.3520 C   0  0  0  0  0  0  0  0  0  0  0  0
  191.4100  176.5830  140.2830 C   0  0  0  0  0  2  0  0  0  0  0  0
  186.7180  178.5330  139.9980 C   0  0  0  0  0  2  0  0  0  0  0  0
  189.3170  178.9280  138.2240 O   0  0  0  0  0  1  0  0  0  0  0  0
  193.6480  176.2360  138.2480 O   0  0  0  0  0  0  0  0  0  0  0  0
  189.0380  177.5730  140.1780 C   0  0  0  0  0  0  0  0  0  0  0  0
  191.5130  177.1080  138.8640 C   0  0  2  0  0  3  0  0  0  0  0  0
  184.3010  178.6760  138.4270 C   0  0  0  0  0  1  0  0  0  0  0  0
  184.2930  179.1660  139.8680 C   0  0  0  0  0  2  0  0  0  0  0  0
  184.2880  179.3580  142.7700 O   0  0  0  0  0  0  0  0  0  0  0  0
  184.5370  179.6860  144.1130 C   0  0  0  0  0  2  0  0  0  0  0  0
  183.6330  178.8670  145.0090 C   0  0  0  0  0  2  0  0  0  0  0  0
  184.1830  178.8350  146.3520 N   0  0  0  0  0  2  0  0  0  0  0  0
  185.6180  178.6450  146.2250 C   0  0  1  0  0  3  0  0  0  0  0  0
  186.3180  179.3000  147.3970 C   0  0  0  0  0  1  0  0  0  0  0  0
  185.9140  177.2810  146.2140 O   0  0  0  0  0  1  0  0  0  0  0  0
  1 10  1  0  0  0  0
  3  2  2  0  0  0  0
  4 20  1  1  0  0  0
  4 22  1  0  0  0  0
  5 15  1  6  0  0  0
  5  4  1  0  0  0  0
  5 23  1  0  0  0  0
  6 25  1  6  0  0  0
  6 14  1  0  0  0  0
  8 21  2  0  0  0  0
  8 23  1  0  0  0  0
  9  2  1  0  0  0  0
 10  7  1  0  0  0  0
 10 11  2  0  0  0  0
 11  9  1  0  0  0  0
 12 17  2  0  0  0  0
 13 15  1  0  0  0  0
 13  8  1  0  0  0  0
 14 26  1  1  0  0  0
 14  7  1  0  0  0  0
 16  3  1  0  0  0  0
 17 11  1  0  0  0  0
 17 16  1  0  0  0  0
 18 12  1  0  0  0  0
 19  6  1  0  0  0  0
 19  1  1  0  0  0  0
 22  1  2  0  0  0  0
 22 12  1  0  0  0  0
 23 18  1  1  0  0  0
 24 25  1  0  0  0  0
 26 27  1  0  0  0  0
 27 28  1  0  0  0  0
 28 29  1  0  0  0  0
 30 29  1  0  0  0  0
 30 31  1  1  0  0  0
 32 30  1  0  0  0  0
M  END
>  <MODEL>
7

>  <REMARK>
 VINA RESULT:      -8.3      3.076      5.918
  Name = 
  6 active torsions:
  status: ('A' for Active; 'I' for Inactive)
    1  A    between atoms: C_1  and  N_10
    2  A    between atoms: C_2  and  O_12
    3  A    between atoms: C_2  and  C_24
    4  A    between atoms: C_8  and  C_23
    5  A    between atoms: N_10  and  C_24
    6  A    between atoms: O_12  and  C_21
                            x       y       z     vdW  Elec       q    Type
                         _______ _______ _______ _____ _____    ______ ____

>  <TORSDO>
F 6

$$$$
=
 OpenBabel10272413293D

 32 36  0  0  1  0  0  0  0  0999 V2000
  188.8640  177.7460  140.9040 C   0  0  0  0  0  0  0  0  0  0  0  0
  184.0740  178.6210  141.2210 C   0  0  0  0  0  3  0  0  0  0  0  0
  183.9530  178.5130  139.8910 C   0  0  0  0  0  3  0  0  0  0  0  0
  189.9110  177.0700  138.6930 C   0  0  2  0  0  3  0  0  0  0  0  0
  189.7270  177.4330  137.2290 C   0  0  1  0  0  3  0  0  0  0  0  0
  190.3620  177.9160  142.9460 C   0  0  2  0  0  3  0  0  0  0  0  0
  187.8880  178.4250  143.1630 C   0  0  0  0  0  2  0  0  0  0  0  0
  188.5980  177.0060  135.3120 C   0  0  0  0  0  0  0  0  0  0  0  0
  185.3800  179.0490  141.8340 C   0  0  0  0  0  2  0  0  0  0  0  0
  187.7630  178.1900  141.6760 C   0  0  0  0  0  0  0  0  0  0  0  0
  186.5520  178.5170  141.0410 C   0  0  0  0  0  0  0  0  0  0  0  0
  187.5060  177.9580  138.8670 C   0  0  0  0  0  0  0  0  0  0  0  0
  190.0530  176.9760  135.0010 C   0  0  0  0  0  2  0  0  0  0  0  0
  189.0990  177.7350  143.7990 C   0  0  2  0  0  3  0  0  0  0  0  0
  190.7270  176.9090  136.3030 N   0  0  0  0  0  2  0  0  0  0  0  0
  185.1240  178.8170  138.9930 C   0  0  0  0  0  2  0  0  0  0  0  0
  186.4250  178.4040  139.6430 C   0  0  0  0  0  0  0  0  0  0  0  0
  187.3670  177.9260  137.3510 C   0  0  0  0  0  2  0  0  0  0  0  0
  190.1450  177.3010  141.5680 C   0  0  0  0  0  2  0  0  0  0  0  0
  189.9850  175.6820  138.8460 O   0  0  0  0  0  1  0  0  0  0  0  0
  187.7120  176.9930  134.4730 O   0  0  0  0  0  0  0  0  0  0  0  0
  188.7400  177.6190  139.5040 C   0  0  0  0  0  0  0  0  0  0  0  0
  188.3810  176.9630  136.7640 C   0  0  2  0  0  3  0  0  0  0  0  0
  191.5480  175.8070  143.7180 C   0  0  0  0  0  1  0  0  0  0  0  0
  191.6090  177.3240  143.6060 C   0  0  0  0  0  2  0  0  0  0  0  0
  189.2710  178.0890  145.1570 O   0  0  0  0  0  0  0  0  0  0  0  0
  188.6300  177.1370  145.9680 C   0  0  0  0  0  2  0  0  0  0  0  0
  187.5220  177.8070  146.7530 C   0  0  0  0  0  2  0  0  0  0  0  0
  186.2620  177.6360  146.0530 N   0  0  0  0  0  2  0  0  0  0  0  0
  185.6320  178.9430  145.9750 C   0  0  1  0  0  3  0  0  0  0  0  0
  184.2130  178.7890  145.4720 C   0  0  0  0  0  1  0  0  0  0  0  0
  185.6110  179.5310  147.2410 O   0  0  0  0  0  1  0  0  0  0  0  0
  1 19  1  0  0  0  0
  1 10  1  0  0  0  0
  2  9  1  0  0  0  0
  3  2  2  0  0  0  0
  4 20  1  6  0  0  0
  4 22  1  0  0  0  0
  5 15  1  6  0  0  0
  5  4  1  0  0  0  0
  6 25  1  1  0  0  0
  6 14  1  0  0  0  0
  7 14  1  0  0  0  0
  8 23  1  0  0  0  0
 10  7  1  0  0  0  0
 11 10  2  0  0  0  0
 11  9  1  0  0  0  0
 12 22  1  0  0  0  0
 12 17  2  0  0  0  0
 13  8  1  0  0  0  0
 13 15  1  0  0  0  0
 14 26  1  1  0  0  0
 16 17  1  0  0  0  0
 16  3  1  0  0  0  0
 17 11  1  0  0  0  0
 18 12  1  0  0  0  0
 19  6  1  0  0  0  0
 21  8  2  0  0  0  0
 22  1  2  0  0  0  0
 23  5  1  0  0  0  0
 23 18  1  6  0  0  0
 25 24  1  0  0  0  0
 26 27  1  0  0  0  0
 27 28  1  0  0  0  0
 29 28  1  0  0  0  0
 30 31  1  1  0  0  0
 30 29  1  0  0  0  0
 30 32  1  0  0  0  0
M  END
>  <MODEL>
8

>  <REMARK>
 VINA RESULT:      -8.1      3.002      7.004
  Name = 
  6 active torsions:
  status: ('A' for Active; 'I' for Inactive)
    1  A    between atoms: C_1  and  N_10
    2  A    between atoms: C_2  and  O_12
    3  A    between atoms: C_2  and  C_24
    4  A    between atoms: C_8  and  C_23
    5  A    between atoms: N_10  and  C_24
    6  A    between atoms: O_12  and  C_21
                            x       y       z     vdW  Elec       q    Type
                         _______ _______ _______ _____ _____    ______ ____

>  <TORSDO>
F 6

$$$$
=
 OpenBabel10272413293D

 32 36  0  0  1  0  0  0  0  0999 V2000
  188.3020  177.9670  141.4840 C   0  0  0  0  0  0  0  0  0  0  0  0
  191.6090  176.1760  144.5940 C   0  0  0  0  0  3  0  0  0  0  0  0
  190.7750  176.3870  145.6210 C   0  0  0  0  0  3  0  0  0  0  0  0
  185.9610  178.5420  142.2760 C   0  0  2  0  0  3  0  0  0  0  0  0
  185.3350  179.1440  143.5240 C   0  0  1  0  0  3  0  0  0  0  0  0
  188.8640  178.3100  139.0320 C   0  0  2  0  0  3  0  0  0  0  0  0
  190.6370  177.4170  140.6090 C   0  0  0  0  0  2  0  0  0  0  0  0
  184.5090  178.7430  145.5950 C   0  0  0  0  0  0  0  0  0  0  0  0
  191.5140  177.0200  143.3510 C   0  0  0  0  0  2  0  0  0  0  0  0
  189.6370  177.5650  141.7320 C   0  0  0  0  0  0  0  0  0  0  0  0
  190.0790  177.3930  143.0560 C   0  0  0  0  0  0  0  0  0  0  0  0
  187.8760  178.0060  143.9030 C   0  0  0  0  0  0  0  0  0  0  0  0
  183.4980  179.5380  144.8460 C   0  0  0  0  0  2  0  0  0  0  0  0
  189.9970  177.2930  139.2240 C   0  0  2  0  0  3  0  0  0  0  0  0
  183.9150  179.4710  143.4410 N   0  0  0  0  0  2  0  0  0  0  0  0
  189.7320  177.4720  145.5450 C   0  0  0  0  0  2  0  0  0  0  0  0
  189.2030  177.6150  144.1360 C   0  0  0  0  0  0  0  0  0  0  0  0
  186.9770  178.3210  145.0920 C   0  0  0  0  0  2  0  0  0  0  0  0
  187.7760  178.0700  140.0720 C   0  0  0  0  0  2  0  0  0  0  0  0
  185.2570  177.4010  141.8790 O   0  0  0  0  0  1  0  0  0  0  0  0
  184.4580  178.5110  146.7920 O   0  0  0  0  0  0  0  0  0  0  0  0
  187.4160  178.1790  142.5610 C   0  0  0  0  0  0  0  0  0  0  0  0
  185.5220  178.2040  144.6770 C   0  0  2  0  0  3  0  0  0  0  0  0
  186.7730  178.0190  137.6210 C   0  0  0  0  0  1  0  0  0  0  0  0
  188.2730  178.2770  137.6210 C   0  0  0  0  0  2  0  0  0  0  0  0
  190.9540  177.3010  138.1820 O   0  0  0  0  0  0  0  0  0  0  0  0
  191.9730  176.3800  138.4830 C   0  0  0  0  0  2  0  0  0  0  0  0
  192.0130  175.3060  137.4180 C   0  0  0  0  0  2  0  0  0  0  0  0
  191.0200  174.2900  137.7180 N   0  0  0  0  0  2  0  0  0  0  0  0
  190.1390  174.1960  136.5660 C   0  0  1  0  0  3  0  0  0  0  0  0
  188.7360  174.5920  136.9730 C   0  0  0  0  0  1  0  0  0  0  0  0
  190.5870  175.0520  135.5600 O   0  0  0  0  0  1  0  0  0  0  0  0
  1 10  2  0  0  0  0
  1 22  1  0  0  0  0
  2  3  2  0  0  0  0
  4 20  1  1  0  0  0
  4 22  1  0  0  0  0
  4  5  1  0  0  0  0
  5 15  1  6  0  0  0
  5 23  1  0  0  0  0
  6 25  1  6  0  0  0
  6 14  1  0  0  0  0
  6 19  1  0  0  0  0
  7 10  1  0  0  0  0
  8 21  2  0  0  0  0
  9  2  1  0  0  0  0
 10 11  1  0  0  0  0
 11  9  1  0  0  0  0
 11 17  2  0  0  0  0
 12 17  1  0  0  0  0
 12 18  1  0  0  0  0
 13  8  1  0  0  0  0
 14 26  1  6  0  0  0
 14  7  1  0  0  0  0
 15 13  1  0  0  0  0
 16  3  1  0  0  0  0
 17 16  1  0  0  0  0
 19  1  1  0  0  0  0
 22 12  2  0  0  0  0
 23 18  1  1  0  0  0
 23  8  1  0  0  0  0
 24 25  1  0  0  0  0
 26 27  1  0  0  0  0
 28 29  1  0  0  0  0
 28 27  1  0  0  0  0
 30 31  1  1  0  0  0
 30 29  1  0  0  0  0
 32 30  1  0  0  0  0
M  END
>  <MODEL>
9

>  <REMARK>
 VINA RESULT:      -8.0      3.112      6.372
  Name = 
  6 active torsions:
  status: ('A' for Active; 'I' for Inactive)
    1  A    between atoms: C_1  and  N_10
    2  A    between atoms: C_2  and  O_12
    3  A    between atoms: C_2  and  C_24
    4  A    between atoms: C_8  and  C_23
    5  A    between atoms: N_10  and  C_24
    6  A    between atoms: O_12  and  C_21
                            x       y       z     vdW  Elec       q    Type
                         _______ _______ _______ _____ _____    ______ ____

>  <TORSDO>
F 6

$$$$
