=
 OpenBabel10272400153D

 31 35  0  0  1  0  0  0  0  0999 V2000
  190.5920  177.2140  145.3880 C   0  0  0  0  0  0  0  0  0  0  0  0
  187.6610  177.4960  142.9240 C   0  0  2  0  0  3  0  0  0  0  0  0
  186.5020  177.8350  143.8550 C   0  0  0  0  0  0  0  0  0  0  0  0
  186.2650  177.8870  146.3170 C   0  0  0  0  0  3  0  0  0  0  0  0
  189.0560  177.4900  143.5230 C   0  0  0  0  0  0  0  0  0  0  0  0
  191.6790  177.3340  144.5200 C   0  0  0  0  0  3  0  0  0  0  0  0
  186.3470  177.0230  145.1040 C   0  0  0  0  0  2  0  0  0  0  0  0
  188.6690  177.8160  140.6740 C   0  0  1  0  0  3  0  0  0  0  0  0
  190.8060  177.0210  146.7460 O   0  0  0  0  0  1  0  0  0  0  0  0
  185.4910  179.1850  142.0230 C   0  0  0  0  0  2  0  0  0  0  0  0
  185.2690  178.7460  146.5170 C   0  0  0  0  0  3  0  0  0  0  0  0
  189.9680  177.8010  141.2750 O   0  0  0  0  0  0  0  0  0  0  0  0
  187.6490  178.3710  141.6660 C   0  0  1  0  0  3  0  0  0  0  0  0
  189.2880  177.2830  144.8900 C   0  0  0  0  0  3  0  0  0  0  0  0
  184.1870  179.0110  145.5540 C   0  0  0  0  0  3  0  0  0  0  0  0
  190.1610  177.5940  142.6490 C   0  0  0  0  0  0  0  0  0  0  0  0
  191.4640  177.5230  143.1530 C   0  0  0  0  0  3  0  0  0  0  0  0
  186.3050  178.3890  141.1090 N   0  0  0  0  0  2  0  0  0  0  0  0
  185.4680  178.5930  143.4110 C   0  0  0  0  0  0  0  0  0  0  0  0
  184.2750  178.9340  144.2200 C   0  0  0  0  0  3  0  0  0  0  0  0
  188.7070  178.6650  139.4110 C   0  0  0  0  0  2  0  0  0  0  0  0
  186.8470  178.4540  137.9330 O   0  0  0  0  0  1  0  0  0  0  0  0
  188.0970  177.9140  138.2410 C   0  0  1  0  0  3  0  0  0  0  0  0
  189.1930  178.0590  136.7990 S   0  0  0  0  0  0  0  0  0  0  0  0
  191.6820  174.7850  137.5170 C   0  0  0  0  0  0  0  0  0  0  0  0
  189.5010  173.9830  136.9740 C   0  0  0  0  0  3  0  0  0  0  0  0
  192.8700  174.4960  137.8160 O   0  0  0  0  0  0  0  0  0  0  0  0
  191.2780  176.2280  137.4050 C   0  0  0  0  0  2  0  0  0  0  0  0
  189.0210  175.3630  136.8150 C   0  0  0  0  0  3  0  0  0  0  0  0
  189.8370  176.4030  137.0020 C   0  0  0  0  0  0  0  0  0  0  0  0
  190.7320  173.7350  137.2980 N   0  0  0  0  0  0  0  0  0  0  0  0
  1  9  1  0  0  0  0
  2  5  1  1  0  0  0
  2  3  1  0  0  0  0
  3  7  1  0  0  0  0
  4 11  2  0  0  0  0
  5 14  2  0  0  0  0
  6  1  2  0  0  0  0
  7  4  1  0  0  0  0
  8 21  1  6  0  0  0
  8 12  1  0  0  0  0
  8 13  1  0  0  0  0
 10 19  1  0  0  0  0
 12 16  1  0  0  0  0
 13 18  1  6  0  0  0
 13  2  1  0  0  0  0
 14  1  1  0  0  0  0
 15 11  1  0  0  0  0
 16 17  2  0  0  0  0
 16  5  1  0  0  0  0
 17  6  1  0  0  0  0
 18 10  1  0  0  0  0
 19  3  2  0  0  0  0
 19 20  1  0  0  0  0
 20 15  2  0  0  0  0
 23 22  1  6  0  0  0
 23 21  1  0  0  0  0
 24 30  1  0  0  0  0
 24 23  1  0  0  0  0
 25 27  2  0  0  0  0
 26 31  2  0  0  0  0
 28 25  1  0  0  0  0
 29 26  1  0  0  0  0
 29 30  2  0  0  0  0
 30 28  1  0  0  0  0
 31 25  1  0  0  0  0
M  END
>  <MODEL>
1

>  <REMARK>
 VINA RESULT:     -10.4      0.000      0.000
  Name = 
  4 active torsions:
  status: ('A' for Active; 'I' for Inactive)
    1  A    between atoms: S_3  and  C_9
    2  A    between atoms: S_3  and  C_22
    3  A    between atoms: C_9  and  C_23
    4  A    between atoms: C_15  and  C_23
                            x       y       z     vdW  Elec       q    Type
                         _______ _______ _______ _____ _____    ______ ____

>  <TORSDO>
F 4

$$$$
=
 OpenBabel10272400153D

 31 35  0  0  1  0  0  0  0  0999 V2000
  190.4680  177.1420  145.5600 C   0  0  0  0  0  0  0  0  0  0  0  0
  187.7150  177.4790  142.9050 C   0  0  2  0  0  3  0  0  0  0  0  0
  186.5030  177.8400  143.7560 C   0  0  0  0  0  0  0  0  0  0  0  0
  186.1020  177.8980  146.1970 C   0  0  0  0  0  3  0  0  0  0  0  0
  189.0660  177.4470  143.5960 C   0  0  0  0  0  0  0  0  0  0  0  0
  191.6130  177.2410  144.7680 C   0  0  0  0  0  3  0  0  0  0  0  0
  186.2490  177.0310  144.9910 C   0  0  0  0  0  2  0  0  0  0  0  0
  188.8790  177.7790  140.7280 C   0  0  1  0  0  3  0  0  0  0  0  0
  190.5860  176.9450  146.9290 O   0  0  0  0  0  1  0  0  0  0  0  0
  185.6440  179.2080  141.8620 C   0  0  0  0  0  2  0  0  0  0  0  0
  185.1120  178.7760  146.3310 C   0  0  0  0  0  3  0  0  0  0  0  0
  190.1330  177.7390  141.4150 O   0  0  0  0  0  0  0  0  0  0  0  0
  187.8050  178.3530  141.6500 C   0  0  1  0  0  3  0  0  0  0  0  0
  189.2020  177.2350  144.9760 C   0  0  0  0  0  3  0  0  0  0  0  0
  184.1020  179.0600  145.2970 C   0  0  0  0  0  3  0  0  0  0  0  0
  190.2300  177.5290  142.7990 C   0  0  0  0  0  0  0  0  0  0  0  0
  191.4940  177.4340  143.3890 C   0  0  0  0  0  3  0  0  0  0  0  0
  186.5020  178.3960  141.0040 N   0  0  0  0  0  2  0  0  0  0  0  0
  185.5160  178.6170  143.2440 C   0  0  0  0  0  0  0  0  0  0  0  0
  184.2780  178.9810  143.9710 C   0  0  0  0  0  3  0  0  0  0  0  0
  189.0180  178.6260  139.4720 C   0  0  0  0  0  2  0  0  0  0  0  0
  187.5240  178.8600  137.6270 O   0  0  0  0  0  1  0  0  0  0  0  0
  188.3470  177.9480  138.2890 C   0  0  1  0  0  3  0  0  0  0  0  0
  189.6220  177.3390  137.1470 S   0  0  0  0  0  0  0  0  0  0  0  0
  186.9740  174.1110  137.1200 C   0  0  0  0  0  0  0  0  0  0  0  0
  189.1980  173.2790  136.8750 C   0  0  0  0  0  3  0  0  0  0  0  0
  185.7490  173.8390  137.2140 O   0  0  0  0  0  0  0  0  0  0  0  0
  187.4190  175.5450  137.1680 C   0  0  0  0  0  2  0  0  0  0  0  0
  189.7290  174.6480  136.9380 C   0  0  0  0  0  3  0  0  0  0  0  0
  188.9160  175.6970  137.0830 C   0  0  0  0  0  0  0  0  0  0  0  0
  187.9240  173.0500  136.9620 N   0  0  0  0  0  0  0  0  0  0  0  0
  1  9  1  0  0  0  0
  2  5  1  1  0  0  0
  2  3  1  0  0  0  0
  3  7  1  0  0  0  0
  4 11  2  0  0  0  0
  5 14  2  0  0  0  0
  6  1  2  0  0  0  0
  7  4  1  0  0  0  0
  8 21  1  6  0  0  0
  8 12  1  0  0  0  0
  8 13  1  0  0  0  0
 10 19  1  0  0  0  0
 12 16  1  0  0  0  0
 13 18  1  6  0  0  0
 13  2  1  0  0  0  0
 14  1  1  0  0  0  0
 15 11  1  0  0  0  0
 16 17  2  0  0  0  0
 16  5  1  0  0  0  0
 17  6  1  0  0  0  0
 18 10  1  0  0  0  0
 19  3  2  0  0  0  0
 19 20  1  0  0  0  0
 20 15  2  0  0  0  0
 23 22  1  6  0  0  0
 23 21  1  0  0  0  0
 24 23  1  0  0  0  0
 25 28  1  0  0  0  0
 25 27  2  0  0  0  0
 26 29  1  0  0  0  0
 26 31  2  0  0  0  0
 29 30  2  0  0  0  0
 30 24  1  0  0  0  0
 30 28  1  0  0  0  0
 31 25  1  0  0  0  0
M  END
>  <MODEL>
2

>  <REMARK>
 VINA RESULT:     -10.0      1.312      1.829
  Name = 
  4 active torsions:
  status: ('A' for Active; 'I' for Inactive)
    1  A    between atoms: S_3  and  C_9
    2  A    between atoms: S_3  and  C_22
    3  A    between atoms: C_9  and  C_23
    4  A    between atoms: C_15  and  C_23
                            x       y       z     vdW  Elec       q    Type
                         _______ _______ _______ _____ _____    ______ ____

>  <TORSDO>
F 4

$$$$
=
 OpenBabel10272400153D

 31 35  0  0  1  0  0  0  0  0999 V2000
  185.3040  178.3180  145.2280 C   0  0  0  0  0  0  0  0  0  0  0  0
  188.8010  178.1400  143.6540 C   0  0  2  0  0  3  0  0  0  0  0  0
  189.6420  177.6260  144.8190 C   0  0  0  0  0  0  0  0  0  0  0  0
  189.1740  177.2780  147.2230 C   0  0  0  0  0  3  0  0  0  0  0  0
  187.2950  178.1630  143.8400 C   0  0  0  0  0  0  0  0  0  0  0  0
  184.5020  178.3650  144.0860 C   0  0  0  0  0  3  0  0  0  0  0  0
  189.4600  178.2790  146.1550 C   0  0  0  0  0  2  0  0  0  0  0  0
  188.4590  178.1420  141.1920 C   0  0  1  0  0  3  0  0  0  0  0  0
  184.7210  178.3690  146.4870 O   0  0  0  0  0  1  0  0  0  0  0  0
  191.0900  176.4350  143.1810 C   0  0  0  0  0  2  0  0  0  0  0  0
  190.0490  176.3420  147.5800 C   0  0  0  0  0  3  0  0  0  0  0  0
  187.0450  178.1680  141.4080 O   0  0  0  0  0  0  0  0  0  0  0  0
  189.1430  177.4160  142.3480 C   0  0  1  0  0  3  0  0  0  0  0  0
  186.6920  178.2270  145.1050 C   0  0  0  0  0  3  0  0  0  0  0  0
  191.3510  176.1230  146.9270 C   0  0  0  0  0  3  0  0  0  0  0  0
  186.4780  178.2290  142.6900 C   0  0  0  0  0  0  0  0  0  0  0  0
  185.0890  178.3210  142.8190 C   0  0  0  0  0  3  0  0  0  0  0  0
  190.5890  177.3790  142.1870 N   0  0  0  0  0  2  0  0  0  0  0  0
  190.7380  176.8620  144.5850 C   0  0  0  0  0  0  0  0  0  0  0  0
  191.6450  176.3570  145.6420 C   0  0  0  0  0  3  0  0  0  0  0  0
  188.7560  177.4470  139.8710 C   0  0  0  0  0  2  0  0  0  0  0  0
  188.8940  179.1600  138.2170 O   0  0  0  0  0  1  0  0  0  0  0  0
  188.0630  178.1590  138.7220 C   0  0  1  0  0  3  0  0  0  0  0  0
  187.6920  176.9590  137.4100 S   0  0  0  0  0  0  0  0  0  0  0  0
  183.9320  178.4930  138.3800 C   0  0  0  0  0  0  0  0  0  0  0  0
  183.6690  176.8470  136.6720 C   0  0  0  0  0  3  0  0  0  0  0  0
  183.3710  179.3180  139.1480 O   0  0  0  0  0  0  0  0  0  0  0  0
  185.4260  178.3410  138.4230 C   0  0  0  0  0  2  0  0  0  0  0  0
  185.1190  176.6100  136.6620 C   0  0  0  0  0  3  0  0  0  0  0  0
  185.9350  177.2880  137.4740 C   0  0  0  0  0  0  0  0  0  0  0  0
  183.1380  177.7190  137.4730 N   0  0  0  0  0  0  0  0  0  0  0  0
  1  9  1  0  0  0  0
  2  5  1  1  0  0  0
  2  3  1  0  0  0  0
  3  7  1  0  0  0  0
  4 11  2  0  0  0  0
  5 14  2  0  0  0  0
  6  1  2  0  0  0  0
  7  4  1  0  0  0  0
  8 21  1  6  0  0  0
  8 12  1  0  0  0  0
  8 13  1  0  0  0  0
 10 19  1  0  0  0  0
 12 16  1  0  0  0  0
 13 18  1  6  0  0  0
 13  2  1  0  0  0  0
 14  1  1  0  0  0  0
 15 11  1  0  0  0  0
 16 17  2  0  0  0  0
 16  5  1  0  0  0  0
 17  6  1  0  0  0  0
 18 10  1  0  0  0  0
 19  3  2  0  0  0  0
 19 20  1  0  0  0  0
 20 15  2  0  0  0  0
 23 22  1  6  0  0  0
 23 21  1  0  0  0  0
 24 30  1  0  0  0  0
 24 23  1  0  0  0  0
 25 28  1  0  0  0  0
 25 27  2  0  0  0  0
 26 31  2  0  0  0  0
 29 26  1  0  0  0  0
 29 30  2  0  0  0  0
 30 28  1  0  0  0  0
 31 25  1  0  0  0  0
M  END
>  <MODEL>
3

>  <REMARK>
 VINA RESULT:      -9.8      2.834      5.303
  Name = 
  4 active torsions:
  status: ('A' for Active; 'I' for Inactive)
    1  A    between atoms: S_3  and  C_9
    2  A    between atoms: S_3  and  C_22
    3  A    between atoms: C_9  and  C_23
    4  A    between atoms: C_15  and  C_23
                            x       y       z     vdW  Elec       q    Type
                         _______ _______ _______ _____ _____    ______ ____

>  <TORSDO>
F 4

$$$$
=
 OpenBabel10272400153D

 31 35  0  0  1  0  0  0  0  0999 V2000
  185.2580  178.3840  145.0480 C   0  0  0  0  0  0  0  0  0  0  0  0
  188.7860  178.1610  143.5490 C   0  0  2  0  0  3  0  0  0  0  0  0
  189.6000  177.6660  144.7400 C   0  0  0  0  0  0  0  0  0  0  0  0
  189.0820  177.3640  147.1400 C   0  0  0  0  0  3  0  0  0  0  0  0
  187.2770  178.1950  143.7040 C   0  0  0  0  0  0  0  0  0  0  0  0
  184.4800  178.4130  143.8900 C   0  0  0  0  0  3  0  0  0  0  0  0
  189.3950  178.3440  146.0600 C   0  0  0  0  0  2  0  0  0  0  0  0
  188.4940  178.1190  141.0810 C   0  0  1  0  0  3  0  0  0  0  0  0
  184.6510  178.4600  146.2940 O   0  0  0  0  0  1  0  0  0  0  0  0
  191.0760  176.4380  143.1540 C   0  0  0  0  0  2  0  0  0  0  0  0
  189.9460  176.4310  147.5320 C   0  0  0  0  0  3  0  0  0  0  0  0
  187.0750  178.1560  141.2680 O   0  0  0  0  0  0  0  0  0  0  0  0
  189.1510  177.4120  142.2640 C   0  0  1  0  0  3  0  0  0  0  0  0
  186.6490  178.2850  144.9550 C   0  0  0  0  0  3  0  0  0  0  0  0
  191.2600  176.1950  146.9100 C   0  0  0  0  0  3  0  0  0  0  0  0
  186.4830  178.2420  142.5360 C   0  0  0  0  0  0  0  0  0  0  0  0
  185.0920  178.3430  142.6350 C   0  0  0  0  0  3  0  0  0  0  0  0
  190.6000  177.3660  142.1320 N   0  0  0  0  0  2  0  0  0  0  0  0
  190.6980  176.8930  144.5420 C   0  0  0  0  0  0  0  0  0  0  0  0
  191.5810  176.4040  145.6260 C   0  0  0  0  0  3  0  0  0  0  0  0
  188.8130  177.3990  139.7790 C   0  0  0  0  0  2  0  0  0  0  0  0
  188.9780  179.1870  138.2080 O   0  0  0  0  0  1  0  0  0  0  0  0
  188.1760  178.1130  138.5990 C   0  0  1  0  0  3  0  0  0  0  0  0
  188.0040  176.9480  137.2160 S   0  0  0  0  0  0  0  0  0  0  0  0
  183.9970  175.7850  137.0550 C   0  0  0  0  0  0  0  0  0  0  0  0
  184.1210  177.9790  137.9880 C   0  0  0  0  0  3  0  0  0  0  0  0
  183.2610  174.8320  136.6920 O   0  0  0  0  0  0  0  0  0  0  0  0
  185.4880  175.6670  136.9050 C   0  0  0  0  0  2  0  0  0  0  0  0
  185.5840  177.9650  137.8550 C   0  0  0  0  0  3  0  0  0  0  0  0
  186.2210  176.9060  137.3470 C   0  0  0  0  0  0  0  0  0  0  0  0
  183.4050  176.9640  137.6120 N   0  0  0  0  0  0  0  0  0  0  0  0
  1  9  1  0  0  0  0
  2  5  1  1  0  0  0
  2  3  1  0  0  0  0
  3  7  1  0  0  0  0
  4 11  2  0  0  0  0
  5 14  2  0  0  0  0
  6  1  2  0  0  0  0
  7  4  1  0  0  0  0
  8 21  1  6  0  0  0
  8 12  1  0  0  0  0
  8 13  1  0  0  0  0
 10 19  1  0  0  0  0
 12 16  1  0  0  0  0
 13 18  1  6  0  0  0
 13  2  1  0  0  0  0
 14  1  1  0  0  0  0
 15 11  1  0  0  0  0
 16 17  2  0  0  0  0
 16  5  1  0  0  0  0
 17  6  1  0  0  0  0
 18 10  1  0  0  0  0
 19  3  2  0  0  0  0
 19 20  1  0  0  0  0
 20 15  2  0  0  0  0
 23 22  1  6  0  0  0
 23 21  1  0  0  0  0
 24 30  1  0  0  0  0
 24 23  1  0  0  0  0
 25 31  1  0  0  0  0
 27 25  2  0  0  0  0
 28 25  1  0  0  0  0
 28 30  1  0  0  0  0
 29 26  1  0  0  0  0
 30 29  2  0  0  0  0
 31 26  2  0  0  0  0
M  END
>  <MODEL>
4

>  <REMARK>
 VINA RESULT:      -9.5      2.797      5.141
  Name = 
  4 active torsions:
  status: ('A' for Active; 'I' for Inactive)
    1  A    between atoms: S_3  and  C_9
    2  A    between atoms: S_3  and  C_22
    3  A    between atoms: C_9  and  C_23
    4  A    between atoms: C_15  and  C_23
                            x       y       z     vdW  Elec       q    Type
                         _______ _______ _______ _____ _____    ______ ____

>  <TORSDO>
F 4

$$$$
=
 OpenBabel10272400153D

 31 35  0  0  1  0  0  0  0  0999 V2000
  190.6950  177.0830  142.6240 C   0  0  0  0  0  0  0  0  0  0  0  0
  187.2030  177.4300  144.1820 C   0  0  2  0  0  3  0  0  0  0  0  0
  187.5350  177.5600  145.6650 C   0  0  0  0  0  0  0  0  0  0  0  0
  189.6220  177.2920  146.9650 C   0  0  0  0  0  3  0  0  0  0  0  0
  188.3640  177.4620  143.2040 C   0  0  0  0  0  0  0  0  0  0  0  0
  190.4220  177.3940  141.2910 C   0  0  0  0  0  3  0  0  0  0  0  0
  188.5160  176.5910  146.2500 C   0  0  0  0  0  2  0  0  0  0  0  0
  185.6800  178.1010  142.3350 C   0  0  1  0  0  3  0  0  0  0  0  0
  191.9860  176.7420  143.0070 O   0  0  0  0  0  1  0  0  0  0  0  0
  185.5480  179.0380  145.9260 C   0  0  0  0  0  2  0  0  0  0  0  0
  189.4150  178.0390  148.0460 C   0  0  0  0  0  3  0  0  0  0  0  0
  186.7980  178.1150  141.4430 O   0  0  0  0  0  0  0  0  0  0  0  0
  186.1430  178.4480  143.7480 C   0  0  1  0  0  3  0  0  0  0  0  0
  189.6700  177.1080  143.5730 C   0  0  0  0  0  3  0  0  0  0  0  0
  188.0900  178.3320  148.6180 C   0  0  0  0  0  3  0  0  0  0  0  0
  188.0930  177.7580  141.8500 C   0  0  0  0  0  0  0  0  0  0  0  0
  189.1220  177.7300  140.9040 C   0  0  0  0  0  3  0  0  0  0  0  0
  185.0430  178.4270  144.7010 N   0  0  0  0  0  2  0  0  0  0  0  0
  186.7290  178.2810  146.4840 C   0  0  0  0  0  0  0  0  0  0  0  0
  186.9360  178.4260  147.9430 C   0  0  0  0  0  3  0  0  0  0  0  0
  184.6360  179.0980  141.8530 C   0  0  0  0  0  2  0  0  0  0  0  0
  182.4380  178.5170  141.1300 O   0  0  0  0  0  1  0  0  0  0  0  0
  183.7810  178.4910  140.7530 C   0  0  1  0  0  3  0  0  0  0  0  0
  184.0020  179.4490  139.2260 S   0  0  0  0  0  0  0  0  0  0  0  0
  186.6860  176.8710  137.3320 C   0  0  0  0  0  0  0  0  0  0  0  0
  184.5080  175.8960  137.2610 C   0  0  0  0  0  3  0  0  0  0  0  0
  187.9000  176.7690  137.0170 O   0  0  0  0  0  0  0  0  0  0  0  0
  186.2170  178.0820  138.0890 C   0  0  0  0  0  2  0  0  0  0  0  0
  183.9540  177.0540  137.9760 C   0  0  0  0  0  3  0  0  0  0  0  0
  184.7350  178.0710  138.3530 C   0  0  0  0  0  0  0  0  0  0  0  0
  185.7710  175.8300  136.9710 N   0  0  0  0  0  0  0  0  0  0  0  0
  1  9  1  0  0  0  0
  1 14  1  0  0  0  0
  2  5  1  6  0  0  0
  2  3  1  0  0  0  0
  3  7  1  0  0  0  0
  3 19  2  0  0  0  0
  4 11  2  0  0  0  0
  5 14  2  0  0  0  0
  6  1  2  0  0  0  0
  7  4  1  0  0  0  0
  8 21  1  6  0  0  0
  8 13  1  0  0  0  0
 10 19  1  0  0  0  0
 11 15  1  0  0  0  0
 12 16  1  0  0  0  0
 12  8  1  0  0  0  0
 13  2  1  0  0  0  0
 13 18  1  1  0  0  0
 16  5  1  0  0  0  0
 17  6  1  0  0  0  0
 17 16  2  0  0  0  0
 18 10  1  0  0  0  0
 19 20  1  0  0  0  0
 20 15  2  0  0  0  0
 23 22  1  1  0  0  0
 23 21  1  0  0  0  0
 24 23  1  0  0  0  0
 25 28  1  0  0  0  0
 26 29  1  0  0  0  0
 27 25  2  0  0  0  0
 28 30  1  0  0  0  0
 29 30  2  0  0  0  0
 30 24  1  0  0  0  0
 31 26  2  0  0  0  0
 31 25  1  0  0  0  0
M  END
>  <MODEL>
5

>  <REMARK>
 VINA RESULT:      -9.5      2.798      4.148
  Name = 
  4 active torsions:
  status: ('A' for Active; 'I' for Inactive)
    1  A    between atoms: S_3  and  C_9
    2  A    between atoms: S_3  and  C_22
    3  A    between atoms: C_9  and  C_23
    4  A    between atoms: C_15  and  C_23
                            x       y       z     vdW  Elec       q    Type
                         _______ _______ _______ _____ _____    ______ ____

>  <TORSDO>
F 4

$$$$
=
 OpenBabel10272400153D

 31 35  0  0  1  0  0  0  0  0999 V2000
  190.3980  177.1200  146.1000 C   0  0  0  0  0  0  0  0  0  0  0  0
  188.0210  177.1620  143.0850 C   0  0  2  0  0  3  0  0  0  0  0  0
  186.7270  177.6670  143.7150 C   0  0  0  0  0  0  0  0  0  0  0  0
  186.0230  178.0680  146.0520 C   0  0  0  0  0  3  0  0  0  0  0  0
  189.2710  177.1900  143.9460 C   0  0  0  0  0  0  0  0  0  0  0  0
  191.6370  177.0800  145.4590 C   0  0  0  0  0  3  0  0  0  0  0  0
  186.2840  177.0410  145.0020 C   0  0  0  0  0  2  0  0  0  0  0  0
  189.4630  177.1320  141.0600 C   0  0  1  0  0  3  0  0  0  0  0  0
  190.3330  177.1090  147.4870 O   0  0  0  0  0  1  0  0  0  0  0  0
  186.1750  178.7850  141.5590 C   0  0  0  0  0  2  0  0  0  0  0  0
  185.0620  178.9810  145.9370 C   0  0  0  0  0  3  0  0  0  0  0  0
  190.6170  177.1540  141.9050 O   0  0  0  0  0  0  0  0  0  0  0  0
  188.3070  177.8540  141.7480 C   0  0  1  0  0  3  0  0  0  0  0  0
  189.2220  177.1650  145.3470 C   0  0  0  0  0  3  0  0  0  0  0  0
  184.2050  179.1480  144.7510 C   0  0  0  0  0  3  0  0  0  0  0  0
  190.5280  177.1320  143.3050 C   0  0  0  0  0  0  0  0  0  0  0  0
  191.7020  177.0860  144.0630 C   0  0  0  0  0  3  0  0  0  0  0  0
  187.0990  177.8420  140.9370 N   0  0  0  0  0  2  0  0  0  0  0  0
  185.8470  178.3920  142.9790 C   0  0  0  0  0  0  0  0  0  0  0  0
  184.5440  178.8840  143.4830 C   0  0  0  0  0  3  0  0  0  0  0  0
  189.7960  177.7960  139.7320 C   0  0  0  0  0  2  0  0  0  0  0  0
  190.4860  175.5730  139.2080 O   0  0  0  0  0  1  0  0  0  0  0  0
  190.7210  176.9160  138.9080 C   0  0  1  0  0  3  0  0  0  0  0  0
  190.4100  177.2070  137.1430 S   0  0  0  0  0  0  0  0  0  0  0  0
  192.7870  174.3030  135.3140 C   0  0  0  0  0  0  0  0  0  0  0  0
  194.1630  175.6290  136.7450 C   0  0  0  0  0  3  0  0  0  0  0  0
  192.7210  173.3340  134.5140 O   0  0  0  0  0  0  0  0  0  0  0  0
  191.5460  175.0880  135.6310 C   0  0  0  0  0  2  0  0  0  0  0  0
  192.9990  176.4360  137.1350 C   0  0  0  0  0  3  0  0  0  0  0  0
  191.7870  176.1860  136.6330 C   0  0  0  0  0  0  0  0  0  0  0  0
  194.0470  174.6480  135.9040 N   0  0  0  0  0  0  0  0  0  0  0  0
  1  9  1  0  0  0  0
  2  3  1  1  0  0  0
  2  5  1  0  0  0  0
  3  7  1  0  0  0  0
  5 14  1  0  0  0  0
  6  1  1  0  0  0  0
  7  4  1  0  0  0  0
  8 21  1  6  0  0  0
  8 13  1  0  0  0  0
  8 12  1  0  0  0  0
 10 19  1  0  0  0  0
 11  4  2  0  0  0  0
 12 16  1  0  0  0  0
 13 18  1  6  0  0  0
 13  2  1  0  0  0  0
 14  1  2  0  0  0  0
 15 11  1  0  0  0  0
 16  5  2  0  0  0  0
 16 17  1  0  0  0  0
 17  6  2  0  0  0  0
 18 10  1  0  0  0  0
 19 20  1  0  0  0  0
 19  3  2  0  0  0  0
 20 15  2  0  0  0  0
 23 22  1  1  0  0  0
 23 21  1  0  0  0  0
 24 23  1  0  0  0  0
 25 28  1  0  0  0  0
 25 31  1  0  0  0  0
 26 29  1  0  0  0  0
 27 25  2  0  0  0  0
 28 30  1  0  0  0  0
 30 29  2  0  0  0  0
 30 24  1  0  0  0  0
 31 26  2  0  0  0  0
M  END
>  <MODEL>
6

>  <REMARK>
 VINA RESULT:      -9.1      1.696      2.052
  Name = 
  4 active torsions:
  status: ('A' for Active; 'I' for Inactive)
    1  A    between atoms: S_3  and  C_9
    2  A    between atoms: S_3  and  C_22
    3  A    between atoms: C_9  and  C_23
    4  A    between atoms: C_15  and  C_23
                            x       y       z     vdW  Elec       q    Type
                         _______ _______ _______ _____ _____    ______ ____

>  <TORSDO>
F 4

$$$$
=
 OpenBabel10272400153D

 31 35  0  0  1  0  0  0  0  0999 V2000
  190.7580  177.4720  139.9520 C   0  0  0  0  0  0  0  0  0  0  0  0
  188.0710  177.1430  142.6750 C   0  0  2  0  0  3  0  0  0  0  0  0
  188.9170  176.9170  143.9230 C   0  0  0  0  0  0  0  0  0  0  0  0
  191.3270  176.4900  144.2820 C   0  0  0  0  0  3  0  0  0  0  0  0
  188.8010  177.5110  141.3960 C   0  0  0  0  0  0  0  0  0  0  0  0
  190.0290  178.0890  138.9340 C   0  0  0  0  0  3  0  0  0  0  0  0
  190.0240  175.9100  143.8460 C   0  0  0  0  0  2  0  0  0  0  0  0
  185.9980  178.1420  141.7330 C   0  0  1  0  0  3  0  0  0  0  0  0
  192.0920  177.1460  139.7500 O   0  0  0  0  0  1  0  0  0  0  0  0
  187.1900  178.1240  145.2500 C   0  0  0  0  0  2  0  0  0  0  0  0
  191.5390  176.9190  145.5230 C   0  0  0  0  0  3  0  0  0  0  0  0
  186.7200  178.4680  140.5410 O   0  0  0  0  0  0  0  0  0  0  0  0
  186.9470  178.1530  142.9290 C   0  0  1  0  0  3  0  0  0  0  0  0
  190.1440  177.1770  141.1720 C   0  0  0  0  0  3  0  0  0  0  0  0
  190.5160  176.9550  146.5820 C   0  0  0  0  0  3  0  0  0  0  0  0
  188.0660  178.1200  140.3550 C   0  0  0  0  0  0  0  0  0  0  0  0
  188.6840  178.4120  139.1350 C   0  0  0  0  0  3  0  0  0  0  0  0
  186.2650  177.8070  144.1670 N   0  0  0  0  0  2  0  0  0  0  0  0
  188.4760  177.3430  145.1330 C   0  0  0  0  0  0  0  0  0  0  0  0
  189.1990  177.1280  146.4080 C   0  0  0  0  0  3  0  0  0  0  0  0
  184.8710  179.1450  141.9320 C   0  0  0  0  0  2  0  0  0  0  0  0
  182.6690  178.7420  142.7540 O   0  0  0  0  0  1  0  0  0  0  0  0
  183.5220  178.4960  141.6770 C   0  0  1  0  0  3  0  0  0  0  0  0
  182.8000  179.1880  140.1610 S   0  0  0  0  0  0  0  0  0  0  0  0
  184.6700  176.7150  137.3640 C   0  0  0  0  0  0  0  0  0  0  0  0
  183.0980  175.4160  138.6040 C   0  0  0  0  0  3  0  0  0  0  0  0
  185.5270  176.7390  136.4430 O   0  0  0  0  0  0  0  0  0  0  0  0
  184.3720  177.9730  138.1310 C   0  0  0  0  0  2  0  0  0  0  0  0
  182.7210  176.6000  139.3890 C   0  0  0  0  0  3  0  0  0  0  0  0
  183.2980  177.7850  139.1690 C   0  0  0  0  0  0  0  0  0  0  0  0
  183.9980  175.4880  137.6730 N   0  0  0  0  0  0  0  0  0  0  0  0
  1 14  1  0  0  0  0
  2  5  1  6  0  0  0
  2 13  1  0  0  0  0
  2  3  1  0  0  0  0
  3 19  2  0  0  0  0
  4 11  2  0  0  0  0
  6 17  1  0  0  0  0
  6  1  2  0  0  0  0
  7  3  1  0  0  0  0
  7  4  1  0  0  0  0
  8 21  1  1  0  0  0
  8 13  1  0  0  0  0
  9  1  1  0  0  0  0
 11 15  1  0  0  0  0
 12  8  1  0  0  0  0
 13 18  1  1  0  0  0
 14  5  2  0  0  0  0
 16 12  1  0  0  0  0
 16  5  1  0  0  0  0
 17 16  2  0  0  0  0
 18 10  1  0  0  0  0
 19 10  1  0  0  0  0
 19 20  1  0  0  0  0
 20 15  2  0  0  0  0
 23 21  1  0  0  0  0
 23 22  1  1  0  0  0
 24 23  1  0  0  0  0
 25 31  1  0  0  0  0
 25 28  1  0  0  0  0
 26 29  1  0  0  0  0
 27 25  2  0  0  0  0
 28 30  1  0  0  0  0
 30 29  2  0  0  0  0
 30 24  1  0  0  0  0
 31 26  2  0  0  0  0
M  END
>  <MODEL>
7

>  <REMARK>
 VINA RESULT:      -9.0      3.065      5.417
  Name = 
  4 active torsions:
  status: ('A' for Active; 'I' for Inactive)
    1  A    between atoms: S_3  and  C_9
    2  A    between atoms: S_3  and  C_22
    3  A    between atoms: C_9  and  C_23
    4  A    between atoms: C_15  and  C_23
                            x       y       z     vdW  Elec       q    Type
                         _______ _______ _______ _____ _____    ______ ____

>  <TORSDO>
F 4

$$$$
=
 OpenBabel10272400153D

 31 35  0  0  1  0  0  0  0  0999 V2000
  185.6980  178.3390  145.6570 C   0  0  0  0  0  0  0  0  0  0  0  0
  189.0760  177.9070  143.8840 C   0  0  2  0  0  3  0  0  0  0  0  0
  189.9690  177.4330  145.0250 C   0  0  0  0  0  0  0  0  0  0  0  0
  189.6450  177.2600  147.4720 C   0  0  0  0  0  3  0  0  0  0  0  0
  187.5870  178.0080  144.1610 C   0  0  0  0  0  0  0  0  0  0  0  0
  184.8260  178.3480  144.5670 C   0  0  0  0  0  3  0  0  0  0  0  0
  189.9010  178.1770  146.3230 C   0  0  0  0  0  2  0  0  0  0  0  0
  188.5750  177.7660  141.4530 C   0  0  1  0  0  3  0  0  0  0  0  0
  185.2010  178.4950  146.9440 O   0  0  0  0  0  1  0  0  0  0  0  0
  191.2600  176.0770  143.3830 C   0  0  0  0  0  2  0  0  0  0  0  0
  190.5040  176.3120  147.8350 C   0  0  0  0  0  3  0  0  0  0  0  0
  187.1800  177.8690  141.7540 O   0  0  0  0  0  0  0  0  0  0  0  0
  189.3030  177.0860  142.6100 C   0  0  1  0  0  3  0  0  0  0  0  0
  187.0710  178.1800  145.4540 C   0  0  0  0  0  3  0  0  0  0  0  0
  191.7510  175.9940  147.1180 C   0  0  0  0  0  3  0  0  0  0  0  0
  186.7000  178.0360  143.0620 C   0  0  0  0  0  0  0  0  0  0  0  0
  185.3270  178.1970  143.2710 C   0  0  0  0  0  3  0  0  0  0  0  0
  190.7330  176.9760  142.3620 N   0  0  0  0  0  2  0  0  0  0  0  0
  191.0170  176.6080  144.7750 C   0  0  0  0  0  0  0  0  0  0  0  0
  191.9700  176.1330  145.8040 C   0  0  0  0  0  3  0  0  0  0  0  0
  188.7570  176.9760  140.1650 C   0  0  0  0  0  2  0  0  0  0  0  0
  188.9810  179.1780  139.2770 O   0  0  0  0  0  1  0  0  0  0  0  0
  188.5920  177.8770  138.9540 C   0  0  1  0  0  3  0  0  0  0  0  0
  189.6280  177.2530  137.5980 S   0  0  0  0  0  0  0  0  0  0  0  0
  185.9020  176.2120  136.0280 C   0  0  0  0  0  0  0  0  0  0  0  0
  187.3790  174.3520  135.7900 C   0  0  0  0  0  3  0  0  0  0  0  0
  184.7430  176.6700  135.8500 O   0  0  0  0  0  0  0  0  0  0  0  0
  186.9520  177.0810  136.6610 C   0  0  0  0  0  2  0  0  0  0  0  0
  188.4620  175.1170  136.4250 C   0  0  0  0  0  3  0  0  0  0  0  0
  188.2690  176.3730  136.8380 C   0  0  0  0  0  0  0  0  0  0  0  0
  186.2040  174.8730  135.6160 N   0  0  0  0  0  0  0  0  0  0  0  0
  1  9  1  0  0  0  0
  2  5  1  1  0  0  0
  2  3  1  0  0  0  0
  3  7  1  0  0  0  0
  4 11  2  0  0  0  0
  5 14  2  0  0  0  0
  6  1  2  0  0  0  0
  7  4  1  0  0  0  0
  8 21  1  6  0  0  0
  8 12  1  0  0  0  0
  8 13  1  0  0  0  0
 10 19  1  0  0  0  0
 12 16  1  0  0  0  0
 13 18  1  6  0  0  0
 13  2  1  0  0  0  0
 14  1  1  0  0  0  0
 15 11  1  0  0  0  0
 16 17  2  0  0  0  0
 16  5  1  0  0  0  0
 17  6  1  0  0  0  0
 18 10  1  0  0  0  0
 19  3  2  0  0  0  0
 19 20  1  0  0  0  0
 20 15  2  0  0  0  0
 23 22  1  1  0  0  0
 23 21  1  0  0  0  0
 24 23  1  0  0  0  0
 25 28  1  0  0  0  0
 26 29  1  0  0  0  0
 27 25  2  0  0  0  0
 28 30  1  0  0  0  0
 29 30  2  0  0  0  0
 30 24  1  0  0  0  0
 31 26  2  0  0  0  0
 31 25  1  0  0  0  0
M  END
>  <MODEL>
8

>  <REMARK>
 VINA RESULT:      -8.8      2.430      4.690
  Name = 
  4 active torsions:
  status: ('A' for Active; 'I' for Inactive)
    1  A    between atoms: S_3  and  C_9
    2  A    between atoms: S_3  and  C_22
    3  A    between atoms: C_9  and  C_23
    4  A    between atoms: C_15  and  C_23
                            x       y       z     vdW  Elec       q    Type
                         _______ _______ _______ _____ _____    ______ ____

>  <TORSDO>
F 4

$$$$
=
 OpenBabel10272400153D

 31 35  0  0  1  0  0  0  0  0999 V2000
  183.7030  179.1130  139.6780 C   0  0  0  0  0  0  0  0  0  0  0  0
  186.6690  178.7970  142.0950 C   0  0  2  0  0  3  0  0  0  0  0  0
  185.9690  178.8000  143.4500 C   0  0  0  0  0  0  0  0  0  0  0  0
  183.6370  179.2340  144.1520 C   0  0  0  0  0  3  0  0  0  0  0  0
  185.7920  178.7170  140.8590 C   0  0  0  0  0  0  0  0  0  0  0  0
  184.2870  178.6860  138.4840 C   0  0  0  0  0  3  0  0  0  0  0  0
  184.9200  179.8410  143.6940 C   0  0  0  0  0  2  0  0  0  0  0  0
  188.5740  177.9310  140.7520 C   0  0  1  0  0  3  0  0  0  0  0  0
  182.3760  179.5210  139.6930 O   0  0  0  0  0  1  0  0  0  0  0  0
  187.7510  177.2910  144.3160 C   0  0  0  0  0  2  0  0  0  0  0  0
  183.5290  178.5740  145.3020 C   0  0  0  0  0  3  0  0  0  0  0  0
  187.7160  177.8750  139.6080 O   0  0  0  0  0  0  0  0  0  0  0  0
  187.7530  177.7160  142.0210 C   0  0  1  0  0  3  0  0  0  0  0  0
  184.4540  179.1380  140.8550 C   0  0  0  0  0  3  0  0  0  0  0  0
  184.6510  178.2910  146.2120 C   0  0  0  0  0  3  0  0  0  0  0  0
  186.3800  178.3020  139.6440 C   0  0  0  0  0  0  0  0  0  0  0  0
  185.6250  178.2810  138.4670 C   0  0  0  0  0  3  0  0  0  0  0  0
  188.5770  177.7850  143.2190 N   0  0  0  0  0  2  0  0  0  0  0  0
  186.5060  178.1260  144.4970 C   0  0  0  0  0  0  0  0  0  0  0  0
  185.9310  178.1080  145.8620 C   0  0  0  0  0  3  0  0  0  0  0  0
  189.6560  176.8690  140.6250 C   0  0  0  0  0  2  0  0  0  0  0  0
  191.9010  177.6560  140.4600 O   0  0  0  0  0  1  0  0  0  0  0  0
  190.7690  177.3420  139.7070 C   0  0  1  0  0  3  0  0  0  0  0  0
  191.1730  176.0220  138.5260 S   0  0  0  0  0  0  0  0  0  0  0  0
  187.6480  175.8760  136.2920 C   0  0  0  0  0  0  0  0  0  0  0  0
  188.6420  178.0290  136.0140 C   0  0  0  0  0  3  0  0  0  0  0  0
  186.7020  175.1030  135.9920 O   0  0  0  0  0  0  0  0  0  0  0  0
  188.7240  175.4010  137.2280 C   0  0  0  0  0  2  0  0  0  0  0  0
  189.7510  177.6430  136.8980 C   0  0  0  0  0  3  0  0  0  0  0  0
  189.8000  176.4300  137.4540 C   0  0  0  0  0  0  0  0  0  0  0  0
  187.6810  177.2000  135.7450 N   0  0  0  0  0  0  0  0  0  0  0  0
  1  9  1  0  0  0  0
  1 14  1  0  0  0  0
  2  5  1  6  0  0  0
  2  3  1  0  0  0  0
  3  7  1  0  0  0  0
  3 19  2  0  0  0  0
  4 11  2  0  0  0  0
  6  1  2  0  0  0  0
  7  4  1  0  0  0  0
  8 21  1  6  0  0  0
  8 13  1  0  0  0  0
 10 19  1  0  0  0  0
 11 15  1  0  0  0  0
 12 16  1  0  0  0  0
 12  8  1  0  0  0  0
 13  2  1  0  0  0  0
 13 18  1  1  0  0  0
 14  5  2  0  0  0  0
 16  5  1  0  0  0  0
 17  6  1  0  0  0  0
 17 16  2  0  0  0  0
 18 10  1  0  0  0  0
 19 20  1  0  0  0  0
 20 15  2  0  0  0  0
 23 22  1  1  0  0  0
 23 21  1  0  0  0  0
 24 23  1  0  0  0  0
 25 28  1  0  0  0  0
 26 29  1  0  0  0  0
 27 25  2  0  0  0  0
 28 30  1  0  0  0  0
 29 30  2  0  0  0  0
 30 24  1  0  0  0  0
 31 26  2  0  0  0  0
 31 25  1  0  0  0  0
M  END
>  <MODEL>
9

>  <REMARK>
 VINA RESULT:      -8.5      2.430      4.744
  Name = 
  4 active torsions:
  status: ('A' for Active; 'I' for Inactive)
    1  A    between atoms: S_3  and  C_9
    2  A    between atoms: S_3  and  C_22
    3  A    between atoms: C_9  and  C_23
    4  A    between atoms: C_15  and  C_23
                            x       y       z     vdW  Elec       q    Type
                         _______ _______ _______ _____ _____    ______ ____

>  <TORSDO>
F 4

$$$$
