=
 OpenBabel10272400493D

 25 27  0  0  1  0  0  0  0  0999 V2000
  188.3610  176.9750  142.5950 C   0  0  2  0  0  3  0  0  0  0  0  0
  186.7730  178.5620  141.4520 C   0  0  0  0  0  0  0  0  0  0  0  0
  185.4940  179.3180  141.4730 C   0  0  0  0  0  1  0  0  0  0  0  0
  189.2000  177.1500  141.3600 C   0  0  0  0  0  3  0  0  0  0  0  0
  187.4860  178.5260  140.3680 N   0  0  0  0  0  0  0  0  0  0  0  0
  188.7530  177.8540  140.3150 C   0  0  0  0  0  0  0  0  0  0  0  0
  187.2400  177.9150  142.6380 N   0  0  0  0  0  2  0  0  0  0  0  0
  189.1790  177.0930  143.8010 N   0  0  0  0  0  0  0  0  0  0  0  0
  188.6250  177.3100  145.0890 C   0  0  0  0  0  0  0  0  0  0  0  0
  187.7800  177.7260  147.6790 C   0  0  0  0  0  3  0  0  0  0  0  0
  189.5520  177.4610  146.0870 C   0  0  0  0  0  0  0  0  0  0  0  0
  189.1540  177.6710  147.4070 C   0  0  0  0  0  3  0  0  0  0  0  0
  186.8710  177.5760  146.6720 N   0  0  0  0  0  0  0  0  0  0  0  0
  190.6430  177.0150  143.8120 C   0  0  1  0  0  3  0  0  0  0  0  0
  191.2380  177.3670  145.5250 S   0  0  0  0  0  0  0  0  0  0  0  0
  187.2610  177.3690  145.3830 C   0  0  0  0  0  3  0  0  0  0  0  0
  191.1040  175.6300  143.3840 C   0  0  0  0  0  2  0  0  0  0  0  0
  192.0200  175.0340  144.4330 C   0  0  0  0  0  1  0  0  0  0  0  0
  189.5880  177.9540  139.0890 C   0  0  0  0  0  2  0  0  0  0  0  0
  190.9540  177.3250  139.3360 C   0  0  0  0  0  2  0  0  0  0  0  0
  191.3950  176.4300  138.1790 C   0  0  2  0  0  3  0  0  0  0  0  0
  190.6420  175.1860  138.1930 N   0  0  0  0  0  1  0  0  0  0  0  0
  192.9000  176.1530  138.2060 C   0  0  2  0  0  3  0  0  0  0  0  0
  193.5430  177.0670  139.0420 O   0  0  0  0  0  1  0  0  0  0  0  0
  193.4880  176.2680  136.8110 C   0  0  0  0  0  1  0  0  0  0  0  0
  1  4  1  6  0  0  0
  1  7  1  0  0  0  0
  1  8  1  0  0  0  0
  2  3  1  0  0  0  0
  2  7  1  0  0  0  0
  5  2  2  0  0  0  0
  6  5  1  0  0  0  0
  6  4  2  0  0  0  0
  8 14  1  0  0  0  0
  8  9  1  0  0  0  0
  9 16  2  0  0  0  0
  9 11  1  0  0  0  0
 11 12  2  0  0  0  0
 12 10  1  0  0  0  0
 13 10  2  0  0  0  0
 14 17  1  1  0  0  0
 14 15  1  0  0  0  0
 15 11  1  0  0  0  0
 16 13  1  0  0  0  0
 17 18  1  0  0  0  0
 19 20  1  0  0  0  0
 19  6  1  0  0  0  0
 21 22  1  1  0  0  0
 21 23  1  0  0  0  0
 21 20  1  0  0  0  0
 23 25  1  6  0  0  0
 23 24  1  0  0  0  0
M  END
>  <MODEL>
1

>  <REMARK>
 VINA RESULT:      -7.6      0.000      0.000
  Name = 
  6 active torsions:
  status: ('A' for Active; 'I' for Inactive)
    1  A    between atoms: N_1  and  C_3
    2  A    between atoms: C_2  and  C_21
    3  A    between atoms: C_4  and  C_18
    4  A    between atoms: C_6  and  C_15
    5  A    between atoms: C_6  and  C_23
    6  A    between atoms: C_15  and  C_21
                            x       y       z     vdW  Elec       q    Type
                         _______ _______ _______ _____ _____    ______ ____

>  <TORSDO>
F 6

$$$$
=
 OpenBabel10272400493D

 25 27  0  0  1  0  0  0  0  0999 V2000
  188.3410  176.9770  142.7460 C   0  0  2  0  0  3  0  0  0  0  0  0
  186.7100  178.5820  141.6920 C   0  0  0  0  0  0  0  0  0  0  0  0
  185.4220  179.3190  141.7660 C   0  0  0  0  0  1  0  0  0  0  0  0
  189.1530  177.2080  141.5020 C   0  0  0  0  0  3  0  0  0  0  0  0
  187.4020  178.5960  140.5940 N   0  0  0  0  0  0  0  0  0  0  0  0
  188.6770  177.9440  140.4930 C   0  0  0  0  0  0  0  0  0  0  0  0
  187.2090  177.8980  142.8450 N   0  0  0  0  0  2  0  0  0  0  0  0
  189.1810  177.0610  143.9390 N   0  0  0  0  0  0  0  0  0  0  0  0
  188.6550  177.3040  145.2340 C   0  0  0  0  0  0  0  0  0  0  0  0
  187.8670  177.7620  147.8360 C   0  0  0  0  0  3  0  0  0  0  0  0
  189.6020  177.4170  146.2190 C   0  0  0  0  0  0  0  0  0  0  0  0
  189.2340  177.6470  147.5440 C   0  0  0  0  0  3  0  0  0  0  0  0
  186.9380  177.6490  146.8420 N   0  0  0  0  0  0  0  0  0  0  0  0
  190.6390  176.9200  143.9290 C   0  0  1  0  0  3  0  0  0  0  0  0
  191.2740  177.2490  145.6320 S   0  0  0  0  0  0  0  0  0  0  0  0
  187.3000  177.4220  145.5480 C   0  0  0  0  0  3  0  0  0  0  0  0
  191.0340  175.5160  143.4970 C   0  0  0  0  0  2  0  0  0  0  0  0
  192.0680  174.9460  144.4470 C   0  0  0  0  0  1  0  0  0  0  0  0
  189.4860  178.1000  139.2550 C   0  0  0  0  0  2  0  0  0  0  0  0
  188.8740  177.2800  138.1260 C   0  0  0  0  0  2  0  0  0  0  0  0
  188.3360  178.1610  136.9990 C   0  0  2  0  0  3  0  0  0  0  0  0
  188.7120  179.5480  137.2260 N   0  0  0  0  0  1  0  0  0  0  0  0
  186.8200  178.0300  136.8380 C   0  0  2  0  0  3  0  0  0  0  0  0
  186.1660  178.8680  137.7430 O   0  0  0  0  0  1  0  0  0  0  0  0
  186.3800  176.5990  137.0890 C   0  0  0  0  0  1  0  0  0  0  0  0
  1  4  1  6  0  0  0
  1  7  1  0  0  0  0
  1  8  1  0  0  0  0
  2  3  1  0  0  0  0
  2  7  1  0  0  0  0
  5  2  2  0  0  0  0
  6  5  1  0  0  0  0
  6  4  2  0  0  0  0
  8  9  1  0  0  0  0
  9 16  2  0  0  0  0
  9 11  1  0  0  0  0
 11 12  2  0  0  0  0
 12 10  1  0  0  0  0
 13 10  2  0  0  0  0
 14 17  1  1  0  0  0
 14  8  1  0  0  0  0
 14 15  1  0  0  0  0
 15 11  1  0  0  0  0
 16 13  1  0  0  0  0
 17 18  1  0  0  0  0
 19  6  1  0  0  0  0
 20 19  1  0  0  0  0
 21 22  1  1  0  0  0
 21 20  1  0  0  0  0
 23 21  1  0  0  0  0
 23 25  1  1  0  0  0
 23 24  1  0  0  0  0
M  END
>  <MODEL>
2

>  <REMARK>
 VINA RESULT:      -7.5      2.316      2.802
  Name = 
  6 active torsions:
  status: ('A' for Active; 'I' for Inactive)
    1  A    between atoms: N_1  and  C_3
    2  A    between atoms: C_2  and  C_21
    3  A    between atoms: C_4  and  C_18
    4  A    between atoms: C_6  and  C_15
    5  A    between atoms: C_6  and  C_23
    6  A    between atoms: C_15  and  C_21
                            x       y       z     vdW  Elec       q    Type
                         _______ _______ _______ _____ _____    ______ ____

>  <TORSDO>
F 6

$$$$
=
 OpenBabel10272400493D

 25 27  0  0  1  0  0  0  0  0999 V2000
  187.2690  178.8890  141.0830 C   0  0  2  0  0  3  0  0  0  0  0  0
  185.0540  178.6670  139.9040 C   0  0  0  0  0  0  0  0  0  0  0  0
  184.2830  178.6630  138.6340 C   0  0  0  0  0  1  0  0  0  0  0  0
  186.4640  178.6700  142.3340 C   0  0  0  0  0  3  0  0  0  0  0  0
  184.4280  178.6430  141.0410 N   0  0  0  0  0  0  0  0  0  0  0  0
  185.1300  178.5920  142.2920 C   0  0  0  0  0  0  0  0  0  0  0  0
  186.4830  178.6490  139.8720 N   0  0  0  0  0  2  0  0  0  0  0  0
  188.4740  178.0610  141.0880 N   0  0  0  0  0  0  0  0  0  0  0  0
  189.1830  177.7270  139.9060 C   0  0  0  0  0  0  0  0  0  0  0  0
  190.7200  176.9530  137.7520 C   0  0  0  0  0  3  0  0  0  0  0  0
  190.2480  176.8870  140.1010 C   0  0  0  0  0  0  0  0  0  0  0  0
  191.0440  176.4790  139.0310 C   0  0  0  0  0  3  0  0  0  0  0  0
  189.6540  177.7870  137.5760 N   0  0  0  0  0  0  0  0  0  0  0  0
  189.0670  177.4810  142.2960 C   0  0  1  0  0  3  0  0  0  0  0  0
  190.4780  176.3980  141.7970 S   0  0  0  0  0  0  0  0  0  0  0  0
  188.8780  178.1860  138.6230 C   0  0  0  0  0  3  0  0  0  0  0  0
  189.5670  178.5790  143.2220 C   0  0  0  0  0  2  0  0  0  0  0  0
  190.4300  177.9890  144.3190 C   0  0  0  0  0  1  0  0  0  0  0  0
  184.3660  178.4350  143.5580 C   0  0  0  0  0  2  0  0  0  0  0  0
  185.0380  179.2260  144.6730 C   0  0  0  0  0  2  0  0  0  0  0  0
  185.4510  178.3370  145.8450 C   0  0  2  0  0  3  0  0  0  0  0  0
  185.0750  178.9620  147.1040 N   0  0  0  0  0  1  0  0  0  0  0  0
  186.9470  178.0140  145.8260 C   0  0  2  0  0  3  0  0  0  0  0  0
  187.1710  176.8130  145.1500 O   0  0  0  0  0  1  0  0  0  0  0  0
  187.4820  177.8860  147.2410 C   0  0  0  0  0  1  0  0  0  0  0  0
  1  8  1  1  0  0  0
  1  4  1  0  0  0  0
  2  5  2  0  0  0  0
  3  2  1  0  0  0  0
  5  6  1  0  0  0  0
  6  4  2  0  0  0  0
  6 19  1  0  0  0  0
  7  2  1  0  0  0  0
  7  1  1  0  0  0  0
  8 14  1  0  0  0  0
  9 11  1  0  0  0  0
  9  8  1  0  0  0  0
 10 12  1  0  0  0  0
 11 15  1  0  0  0  0
 12 11  2  0  0  0  0
 13 10  2  0  0  0  0
 13 16  1  0  0  0  0
 14 17  1  1  0  0  0
 15 14  1  0  0  0  0
 16  9  2  0  0  0  0
 17 18  1  0  0  0  0
 19 20  1  0  0  0  0
 20 21  1  0  0  0  0
 21 22  1  1  0  0  0
 23 21  1  0  0  0  0
 23 25  1  1  0  0  0
 24 23  1  0  0  0  0
M  END
>  <MODEL>
3

>  <REMARK>
 VINA RESULT:      -7.4      2.622      6.831
  Name = 
  6 active torsions:
  status: ('A' for Active; 'I' for Inactive)
    1  A    between atoms: N_1  and  C_3
    2  A    between atoms: C_2  and  C_21
    3  A    between atoms: C_4  and  C_18
    4  A    between atoms: C_6  and  C_15
    5  A    between atoms: C_6  and  C_23
    6  A    between atoms: C_15  and  C_21
                            x       y       z     vdW  Elec       q    Type
                         _______ _______ _______ _____ _____    ______ ____

>  <TORSDO>
F 6

$$$$
=
 OpenBabel10272400493D

 25 27  0  0  1  0  0  0  0  0999 V2000
  188.2500  176.8370  144.5430 C   0  0  2  0  0  3  0  0  0  0  0  0
  187.9540  177.6200  146.9190 C   0  0  0  0  0  0  0  0  0  0  0  0
  188.3920  177.5760  148.3370 C   0  0  0  0  0  1  0  0  0  0  0  0
  187.0810  177.7360  144.2510 C   0  0  0  0  0  3  0  0  0  0  0  0
  186.8600  178.2420  146.5990 N   0  0  0  0  0  0  0  0  0  0  0  0
  186.4240  178.3570  145.2360 C   0  0  0  0  0  0  0  0  0  0  0  0
  188.7590  177.0180  145.9020 N   0  0  0  0  0  2  0  0  0  0  0  0
  189.3170  177.0340  143.5620 N   0  0  0  0  0  0  0  0  0  0  0  0
  189.0670  177.4190  142.2200 C   0  0  0  0  0  0  0  0  0  0  0  0
  188.8260  178.1630  139.5770 C   0  0  0  0  0  3  0  0  0  0  0  0
  190.1860  177.4880  141.4320 C   0  0  0  0  0  0  0  0  0  0  0  0
  190.0950  177.8620  140.0920 C   0  0  0  0  0  3  0  0  0  0  0  0
  187.7220  178.0860  140.3760 N   0  0  0  0  0  0  0  0  0  0  0  0
  190.7410  176.8440  143.8490 C   0  0  1  0  0  3  0  0  0  0  0  0
  191.6910  177.0580  142.2790 S   0  0  0  0  0  0  0  0  0  0  0  0
  187.8130  177.7220  141.6870 C   0  0  0  0  0  3  0  0  0  0  0  0
  191.2160  177.8590  144.8770 C   0  0  0  0  0  2  0  0  0  0  0  0
  191.5750  179.1660  144.1980 C   0  0  0  0  0  1  0  0  0  0  0  0
  185.2360  179.1900  144.9110 C   0  0  0  0  0  2  0  0  0  0  0  0
  184.1750  178.3390  144.2260 C   0  0  0  0  0  2  0  0  0  0  0  0
  183.5500  179.0490  143.0270 C   0  0  2  0  0  3  0  0  0  0  0  0
  182.1000  178.9410  143.0800 N   0  0  0  0  0  1  0  0  0  0  0  0
  184.0840  178.5140  141.6960 C   0  0  2  0  0  3  0  0  0  0  0  0
  184.8590  179.4870  141.0630 O   0  0  0  0  0  1  0  0  0  0  0  0
  182.9370  178.1280  140.7790 C   0  0  0  0  0  1  0  0  0  0  0  0
  1  8  1  6  0  0  0
  1  7  1  0  0  0  0
  2  3  1  0  0  0  0
  4  1  1  0  0  0  0
  4  6  2  0  0  0  0
  5  2  2  0  0  0  0
  6  5  1  0  0  0  0
  7  2  1  0  0  0  0
  8 14  1  0  0  0  0
  9  8  1  0  0  0  0
 10 12  2  0  0  0  0
 10 13  1  0  0  0  0
 11  9  2  0  0  0  0
 11 15  1  0  0  0  0
 12 11  1  0  0  0  0
 13 16  2  0  0  0  0
 14 17  1  1  0  0  0
 15 14  1  0  0  0  0
 16  9  1  0  0  0  0
 18 17  1  0  0  0  0
 19  6  1  0  0  0  0
 20 19  1  0  0  0  0
 21 22  1  6  0  0  0
 21 20  1  0  0  0  0
 23 25  1  6  0  0  0
 23 21  1  0  0  0  0
 24 23  1  0  0  0  0
M  END
>  <MODEL>
4

>  <REMARK>
 VINA RESULT:      -7.2      2.789      6.549
  Name = 
  6 active torsions:
  status: ('A' for Active; 'I' for Inactive)
    1  A    between atoms: N_1  and  C_3
    2  A    between atoms: C_2  and  C_21
    3  A    between atoms: C_4  and  C_18
    4  A    between atoms: C_6  and  C_15
    5  A    between atoms: C_6  and  C_23
    6  A    between atoms: C_15  and  C_21
                            x       y       z     vdW  Elec       q    Type
                         _______ _______ _______ _____ _____    ______ ____

>  <TORSDO>
F 6

$$$$
=
 OpenBabel10272400493D

 25 27  0  0  1  0  0  0  0  0999 V2000
  188.6400  178.4180  140.7580 C   0  0  2  0  0  3  0  0  0  0  0  0
  186.1830  178.5870  141.2860 C   0  0  0  0  0  0  0  0  0  0  0  0
  184.8210  179.0220  140.8810 C   0  0  0  0  0  1  0  0  0  0  0  0
  188.7370  177.7480  142.1010 C   0  0  0  0  0  3  0  0  0  0  0  0
  186.3890  178.1440  142.4890 N   0  0  0  0  0  0  0  0  0  0  0  0
  187.6750  177.6620  142.9080 C   0  0  0  0  0  0  0  0  0  0  0  0
  187.2520  178.6120  140.3380 N   0  0  0  0  0  2  0  0  0  0  0  0
  189.3860  177.6690  139.7480 N   0  0  0  0  0  0  0  0  0  0  0  0
  189.0820  177.7320  138.3640 C   0  0  0  0  0  0  0  0  0  0  0  0
  188.6810  177.6980  135.6370 C   0  0  0  0  0  3  0  0  0  0  0  0
  189.8450  176.9090  137.5770 C   0  0  0  0  0  0  0  0  0  0  0  0
  189.6660  176.8710  136.1950 C   0  0  0  0  0  3  0  0  0  0  0  0
  187.9280  178.5100  136.4360 N   0  0  0  0  0  0  0  0  0  0  0  0
  190.5040  176.7710  140.0500 C   0  0  1  0  0  3  0  0  0  0  0  0
  191.0280  175.9380  138.4870 S   0  0  0  0  0  0  0  0  0  0  0  0
  188.1060  178.5470  137.7870 C   0  0  0  0  0  3  0  0  0  0  0  0
  191.6720  177.5540  140.6300 C   0  0  0  0  0  2  0  0  0  0  0  0
  192.9420  177.2480  139.8620 C   0  0  0  0  0  1  0  0  0  0  0  0
  187.8260  177.0450  144.2530 C   0  0  0  0  0  2  0  0  0  0  0  0
  188.7800  177.8760  145.1030 C   0  0  0  0  0  2  0  0  0  0  0  0
  189.6310  177.0090  146.0300 C   0  0  2  0  0  3  0  0  0  0  0  0
  189.6130  177.5540  147.3790 N   0  0  0  0  0  1  0  0  0  0  0  0
  191.0680  176.8620  145.5240 C   0  0  2  0  0  3  0  0  0  0  0  0
  191.9570  176.8460  146.6000 O   0  0  0  0  0  1  0  0  0  0  0  0
  191.4300  178.0160  144.6070 C   0  0  0  0  0  1  0  0  0  0  0  0
  1  8  1  6  0  0  0
  1  4  1  0  0  0  0
  2  5  2  0  0  0  0
  3  2  1  0  0  0  0
  4  6  2  0  0  0  0
  5  6  1  0  0  0  0
  6 19  1  0  0  0  0
  7  1  1  0  0  0  0
  7  2  1  0  0  0  0
  8 14  1  0  0  0  0
  9  8  1  0  0  0  0
 10 12  2  0  0  0  0
 10 13  1  0  0  0  0
 11  9  2  0  0  0  0
 11 15  1  0  0  0  0
 12 11  1  0  0  0  0
 13 16  2  0  0  0  0
 14 17  1  6  0  0  0
 15 14  1  0  0  0  0
 16  9  1  0  0  0  0
 18 17  1  0  0  0  0
 19 20  1  0  0  0  0
 20 21  1  0  0  0  0
 21 22  1  1  0  0  0
 23 25  1  6  0  0  0
 23 21  1  0  0  0  0
 23 24  1  0  0  0  0
M  END
>  <MODEL>
5

>  <REMARK>
 VINA RESULT:      -7.2      2.753      6.681
  Name = 
  6 active torsions:
  status: ('A' for Active; 'I' for Inactive)
    1  A    between atoms: N_1  and  C_3
    2  A    between atoms: C_2  and  C_21
    3  A    between atoms: C_4  and  C_18
    4  A    between atoms: C_6  and  C_15
    5  A    between atoms: C_6  and  C_23
    6  A    between atoms: C_15  and  C_21
                            x       y       z     vdW  Elec       q    Type
                         _______ _______ _______ _____ _____    ______ ____

>  <TORSDO>
F 6

$$$$
=
 OpenBabel10272400493D

 25 27  0  0  1  0  0  0  0  0999 V2000
  187.3490  176.9030  144.2600 C   0  0  2  0  0  3  0  0  0  0  0  0
  185.6160  178.1080  145.6340 C   0  0  0  0  0  0  0  0  0  0  0  0
  184.9860  178.3540  146.9560 C   0  0  0  0  0  1  0  0  0  0  0  0
  186.7690  177.6760  143.1090 C   0  0  0  0  0  3  0  0  0  0  0  0
  185.0830  178.6080  144.5600 N   0  0  0  0  0  0  0  0  0  0  0  0
  185.6850  178.4420  143.2680 C   0  0  0  0  0  0  0  0  0  0  0  0
  186.8320  177.3620  145.5490 N   0  0  0  0  0  2  0  0  0  0  0  0
  188.8100  176.9580  144.2410 N   0  0  0  0  0  0  0  0  0  0  0  0
  189.5590  177.1100  143.0460 C   0  0  0  0  0  0  0  0  0  0  0  0
  191.2190  177.3990  140.8650 C   0  0  0  0  0  3  0  0  0  0  0  0
  190.9180  177.0720  143.2200 C   0  0  0  0  0  0  0  0  0  0  0  0
  191.7820  177.2170  142.1350 C   0  0  0  0  0  3  0  0  0  0  0  0
  189.8630  177.4320  140.7100 N   0  0  0  0  0  0  0  0  0  0  0  0
  189.6520  176.8500  145.4360 C   0  0  1  0  0  3  0  0  0  0  0  0
  191.4220  176.8220  144.9090 S   0  0  0  0  0  0  0  0  0  0  0  0
  189.0190  177.2920  141.7720 C   0  0  0  0  0  3  0  0  0  0  0  0
  189.4130  178.0320  146.3630 C   0  0  0  0  0  2  0  0  0  0  0  0
  189.4770  177.5870  147.8100 C   0  0  0  0  0  1  0  0  0  0  0  0
  185.1070  179.1440  142.0920 C   0  0  0  0  0  2  0  0  0  0  0  0
  183.7010  178.6250  141.8150 C   0  0  0  0  0  2  0  0  0  0  0  0
  183.4040  178.5300  140.3200 C   0  0  2  0  0  3  0  0  0  0  0  0
  183.0850  177.1570  139.9600 N   0  0  0  0  0  1  0  0  0  0  0  0
  184.5600  179.0590  139.4670 C   0  0  2  0  0  3  0  0  0  0  0  0
  184.2570  180.3330  138.9840 O   0  0  0  0  0  1  0  0  0  0  0  0
  184.8170  178.1370  138.2880 C   0  0  0  0  0  1  0  0  0  0  0  0
  1  4  1  6  0  0  0
  1  7  1  0  0  0  0
  2  3  1  0  0  0  0
  4  6  2  0  0  0  0
  5  2  2  0  0  0  0
  6  5  1  0  0  0  0
  7  2  1  0  0  0  0
  8  1  1  0  0  0  0
  8 14  1  0  0  0  0
  9 11  1  0  0  0  0
  9  8  1  0  0  0  0
 10 12  1  0  0  0  0
 11 15  1  0  0  0  0
 12 11  2  0  0  0  0
 13 10  2  0  0  0  0
 13 16  1  0  0  0  0
 14 17  1  1  0  0  0
 15 14  1  0  0  0  0
 16  9  2  0  0  0  0
 17 18  1  0  0  0  0
 19  6  1  0  0  0  0
 20 19  1  0  0  0  0
 21 22  1  6  0  0  0
 21 20  1  0  0  0  0
 23 25  1  6  0  0  0
 23 21  1  0  0  0  0
 24 23  1  0  0  0  0
M  END
>  <MODEL>
6

>  <REMARK>
 VINA RESULT:      -7.2      2.822      5.710
  Name = 
  6 active torsions:
  status: ('A' for Active; 'I' for Inactive)
    1  A    between atoms: N_1  and  C_3
    2  A    between atoms: C_2  and  C_21
    3  A    between atoms: C_4  and  C_18
    4  A    between atoms: C_6  and  C_15
    5  A    between atoms: C_6  and  C_23
    6  A    between atoms: C_15  and  C_21
                            x       y       z     vdW  Elec       q    Type
                         _______ _______ _______ _____ _____    ______ ____

>  <TORSDO>
F 6

$$$$
=
 OpenBabel10272400493D

 25 27  0  0  1  0  0  0  0  0999 V2000
  189.9200  176.7970  141.8370 C   0  0  2  0  0  3  0  0  0  0  0  0
  190.3930  178.5180  143.6150 C   0  0  0  0  0  0  0  0  0  0  0  0
  191.3020  179.5500  144.1780 C   0  0  0  0  0  1  0  0  0  0  0  0
  188.6410  176.5730  142.5950 C   0  0  0  0  0  3  0  0  0  0  0  0
  189.3440  178.1450  144.2840 N   0  0  0  0  0  0  0  0  0  0  0  0
  188.4090  177.1910  143.7570 C   0  0  0  0  0  0  0  0  0  0  0  0
  190.6480  177.9710  142.3190 N   0  0  0  0  0  2  0  0  0  0  0  0
  189.6630  176.9020  140.4020 N   0  0  0  0  0  0  0  0  0  0  0  0
  188.5140  177.5420  139.8710 C   0  0  0  0  0  0  0  0  0  0  0  0
  186.3680  178.7300  138.6130 C   0  0  0  0  0  3  0  0  0  0  0  0
  188.4110  177.4820  138.5050 C   0  0  0  0  0  0  0  0  0  0  0  0
  187.3380  178.0740  137.8410 C   0  0  0  0  0  3  0  0  0  0  0  0
  186.4850  178.7780  139.9720 N   0  0  0  0  0  0  0  0  0  0  0  0
  190.5450  176.3540  139.3670 C   0  0  1  0  0  3  0  0  0  0  0  0
  189.7410  176.5950  137.7220 S   0  0  0  0  0  0  0  0  0  0  0  0
  187.5360  178.1990  140.6190 C   0  0  0  0  0  3  0  0  0  0  0  0
  191.8910  177.0600  139.3880 C   0  0  0  0  0  2  0  0  0  0  0  0
  192.7780  176.5340  138.2770 C   0  0  0  0  0  1  0  0  0  0  0  0
  187.1590  176.8980  144.5060 C   0  0  0  0  0  2  0  0  0  0  0  0
  187.0650  177.7940  145.7340 C   0  0  0  0  0  2  0  0  0  0  0  0
  185.9550  178.8360  145.6050 C   0  0  2  0  0  3  0  0  0  0  0  0
  185.2370  178.9610  146.8640 N   0  0  0  0  0  1  0  0  0  0  0  0
  184.9910  178.5140  144.4610 C   0  0  2  0  0  3  0  0  0  0  0  0
  185.2910  179.2960  143.3440 O   0  0  0  0  0  1  0  0  0  0  0  0
  183.5580  178.7880  144.8800 C   0  0  0  0  0  1  0  0  0  0  0  0
  1  8  1  6  0  0  0
  1  7  1  0  0  0  0
  1  4  1  0  0  0  0
  2  3  1  0  0  0  0
  2  5  2  0  0  0  0
  4  6  2  0  0  0  0
  6  5  1  0  0  0  0
  6 19  1  0  0  0  0
  7  2  1  0  0  0  0
  9  8  1  0  0  0  0
  9 16  1  0  0  0  0
 10 13  1  0  0  0  0
 11  9  2  0  0  0  0
 12 11  1  0  0  0  0
 12 10  2  0  0  0  0
 13 16  2  0  0  0  0
 14 17  1  6  0  0  0
 14  8  1  0  0  0  0
 15 11  1  0  0  0  0
 15 14  1  0  0  0  0
 18 17  1  0  0  0  0
 19 20  1  0  0  0  0
 21 20  1  0  0  0  0
 21 22  1  1  0  0  0
 23 25  1  1  0  0  0
 23 21  1  0  0  0  0
 24 23  1  0  0  0  0
M  END
>  <MODEL>
7

>  <REMARK>
 VINA RESULT:      -7.1      3.079      7.125
  Name = 
  6 active torsions:
  status: ('A' for Active; 'I' for Inactive)
    1  A    between atoms: N_1  and  C_3
    2  A    between atoms: C_2  and  C_21
    3  A    between atoms: C_4  and  C_18
    4  A    between atoms: C_6  and  C_15
    5  A    between atoms: C_6  and  C_23
    6  A    between atoms: C_15  and  C_21
                            x       y       z     vdW  Elec       q    Type
                         _______ _______ _______ _____ _____    ______ ____

>  <TORSDO>
F 6

$$$$
=
 OpenBabel10272400493D

 25 27  0  0  1  0  0  0  0  0999 V2000
  187.8530  176.9420  143.5200 C   0  0  2  0  0  3  0  0  0  0  0  0
  186.6690  177.9280  145.5130 C   0  0  0  0  0  0  0  0  0  0  0  0
  186.5380  178.0400  146.9890 C   0  0  0  0  0  1  0  0  0  0  0  0
  186.8720  177.7490  142.7170 C   0  0  0  0  0  3  0  0  0  0  0  0
  185.7710  178.4610  144.7410 N   0  0  0  0  0  0  0  0  0  0  0  0
  185.8840  178.4250  143.3110 C   0  0  0  0  0  0  0  0  0  0  0  0
  187.8070  177.2750  144.9440 N   0  0  0  0  0  2  0  0  0  0  0  0
  189.2090  177.1000  142.9970 N   0  0  0  0  0  0  0  0  0  0  0  0
  189.4940  177.1890  141.6110 C   0  0  0  0  0  0  0  0  0  0  0  0
  190.2860  177.3870  138.9780 C   0  0  0  0  0  3  0  0  0  0  0  0
  190.8290  177.2660  141.3090 C   0  0  0  0  0  0  0  0  0  0  0  0
  191.2590  177.3680  139.9870 C   0  0  0  0  0  3  0  0  0  0  0  0
  188.9610  177.3070  139.2970 N   0  0  0  0  0  0  0  0  0  0  0  0
  190.4100  177.1670  143.8360 C   0  0  1  0  0  3  0  0  0  0  0  0
  191.8930  177.2150  142.7350 S   0  0  0  0  0  0  0  0  0  0  0  0
  188.5420  177.2090  140.5900 C   0  0  0  0  0  3  0  0  0  0  0  0
  190.3790  178.4120  144.7080 C   0  0  0  0  0  2  0  0  0  0  0  0
  191.2340  179.5040  144.0960 C   0  0  0  0  0  1  0  0  0  0  0  0
  184.8980  179.1630  142.4770 C   0  0  0  0  0  2  0  0  0  0  0  0
  183.8520  178.1990  141.9320 C   0  0  0  0  0  2  0  0  0  0  0  0
  183.5120  178.4820  140.4690 C   0  0  2  0  0  3  0  0  0  0  0  0
  182.9600  177.2900  139.8450 N   0  0  0  0  0  1  0  0  0  0  0  0
  184.7220  178.9940  139.6840 C   0  0  2  0  0  3  0  0  0  0  0  0
  184.4810  180.2880  139.2200 O   0  0  0  0  0  1  0  0  0  0  0  0
  185.0060  178.0930  138.4960 C   0  0  0  0  0  1  0  0  0  0  0  0
  1  4  1  6  0  0  0
  1  7  1  0  0  0  0
  2  3  1  0  0  0  0
  4  6  2  0  0  0  0
  5  2  2  0  0  0  0
  6  5  1  0  0  0  0
  7  2  1  0  0  0  0
  8  1  1  0  0  0  0
  8 14  1  0  0  0  0
  9  8  1  0  0  0  0
 10 13  2  0  0  0  0
 10 12  1  0  0  0  0
 11  9  1  0  0  0  0
 11 15  1  0  0  0  0
 12 11  2  0  0  0  0
 13 16  1  0  0  0  0
 14 17  1  6  0  0  0
 15 14  1  0  0  0  0
 16  9  2  0  0  0  0
 18 17  1  0  0  0  0
 19  6  1  0  0  0  0
 20 19  1  0  0  0  0
 21 22  1  6  0  0  0
 21 20  1  0  0  0  0
 23 25  1  6  0  0  0
 23 21  1  0  0  0  0
 24 23  1  0  0  0  0
M  END
>  <MODEL>
8

>  <REMARK>
 VINA RESULT:      -7.0      2.739      5.950
  Name = 
  6 active torsions:
  status: ('A' for Active; 'I' for Inactive)
    1  A    between atoms: N_1  and  C_3
    2  A    between atoms: C_2  and  C_21
    3  A    between atoms: C_4  and  C_18
    4  A    between atoms: C_6  and  C_15
    5  A    between atoms: C_6  and  C_23
    6  A    between atoms: C_15  and  C_21
                            x       y       z     vdW  Elec       q    Type
                         _______ _______ _______ _____ _____    ______ ____

>  <TORSDO>
F 6

$$$$
=
 OpenBabel10272400493D

 25 27  0  0  1  0  0  0  0  0999 V2000
  187.2100  177.2960  143.6830 C   0  0  2  0  0  3  0  0  0  0  0  0
  185.1910  178.7820  143.4420 C   0  0  0  0  0  0  0  0  0  0  0  0
  183.9730  179.3820  144.0450 C   0  0  0  0  0  1  0  0  0  0  0  0
  187.4800  177.6690  142.2520 C   0  0  0  0  0  3  0  0  0  0  0  0
  185.4190  178.9200  142.1710 N   0  0  0  0  0  0  0  0  0  0  0  0
  186.6080  178.4030  141.5540 C   0  0  0  0  0  0  0  0  0  0  0  0
  186.1330  178.0940  144.2690 N   0  0  0  0  0  2  0  0  0  0  0  0
  188.4270  177.4020  144.4880 N   0  0  0  0  0  0  0  0  0  0  0  0
  188.4060  177.6070  145.8910 C   0  0  0  0  0  0  0  0  0  0  0  0
  188.6140  177.9990  148.6110 C   0  0  0  0  0  3  0  0  0  0  0  0
  189.6440  177.7500  146.4620 C   0  0  0  0  0  0  0  0  0  0  0  0
  189.7800  177.9480  147.8350 C   0  0  0  0  0  3  0  0  0  0  0  0
  187.3890  177.8570  148.0250 N   0  0  0  0  0  0  0  0  0  0  0  0
  189.7830  177.3260  143.9380 C   0  0  1  0  0  3  0  0  0  0  0  0
  190.9880  177.6630  145.2980 S   0  0  0  0  0  0  0  0  0  0  0  0
  187.2580  177.6620  146.6830 C   0  0  0  0  0  3  0  0  0  0  0  0
  190.0430  175.9460  143.3550 C   0  0  0  0  0  2  0  0  0  0  0  0
  191.4360  175.4740  143.7210 C   0  0  0  0  0  1  0  0  0  0  0  0
  186.8830  178.7020  140.1240 C   0  0  0  0  0  2  0  0  0  0  0  0
  188.3450  178.4150  139.8030 C   0  0  0  0  0  2  0  0  0  0  0  0
  188.5010  177.5170  138.5770 C   0  0  2  0  0  3  0  0  0  0  0  0
  189.6670  176.6600  138.7310 N   0  0  0  0  0  1  0  0  0  0  0  0
  188.5890  178.3220  137.2790 C   0  0  2  0  0  3  0  0  0  0  0  0
  188.9820  179.6330  137.5530 O   0  0  0  0  0  1  0  0  0  0  0  0
  187.2430  178.3510  136.5780 C   0  0  0  0  0  1  0  0  0  0  0  0
  1  4  1  6  0  0  0
  1  7  1  0  0  0  0
  1  8  1  0  0  0  0
  2  3  1  0  0  0  0
  2  7  1  0  0  0  0
  5  2  2  0  0  0  0
  6  5  1  0  0  0  0
  6  4  2  0  0  0  0
  8  9  1  0  0  0  0
  9 11  2  0  0  0  0
  9 16  1  0  0  0  0
 11 12  1  0  0  0  0
 12 10  2  0  0  0  0
 13 10  1  0  0  0  0
 14 17  1  1  0  0  0
 14  8  1  0  0  0  0
 14 15  1  0  0  0  0
 15 11  1  0  0  0  0
 16 13  2  0  0  0  0
 17 18  1  0  0  0  0
 19  6  1  0  0  0  0
 20 19  1  0  0  0  0
 21 22  1  1  0  0  0
 21 20  1  0  0  0  0
 23 25  1  1  0  0  0
 23 24  1  0  0  0  0
 23 21  1  0  0  0  0
M  END
>  <MODEL>
9

>  <REMARK>
 VINA RESULT:      -7.0      2.288      2.678
  Name = 
  6 active torsions:
  status: ('A' for Active; 'I' for Inactive)
    1  A    between atoms: N_1  and  C_3
    2  A    between atoms: C_2  and  C_21
    3  A    between atoms: C_4  and  C_18
    4  A    between atoms: C_6  and  C_15
    5  A    between atoms: C_6  and  C_23
    6  A    between atoms: C_15  and  C_21
                            x       y       z     vdW  Elec       q    Type
                         _______ _______ _______ _____ _____    ______ ____

>  <TORSDO>
F 6

$$$$
