=
 OpenBabel10272413103D

 32 36  0  0  1  0  0  0  0  0999 V2000
  190.4160  175.6780  142.3610 O   0  0  0  0  0  0  0  0  0  0  0  0
  188.4880  178.4250  144.7510 C   0  0  2  0  0  3  0  0  0  0  0  0
  191.6470  176.1420  142.8430 C   0  0  0  0  0  2  0  0  0  0  0  0
  190.0140  178.2800  144.7770 C   0  0  0  0  0  2  0  0  0  0  0  0
  187.7650  177.6560  145.8700 C   0  0  2  0  0  3  0  0  0  0  0  0
  184.3210  179.2570  142.3780 C   0  0  0  0  0  2  0  0  0  0  0  0
  187.8490  178.0730  143.3930 C   0  0  1  0  0  3  0  0  0  0  0  0
  184.2110  178.6560  144.8240 C   0  0  0  0  0  2  0  0  0  0  0  0
  185.7420  178.7490  144.7480 C   0  0  1  0  0  3  0  0  0  0  0  0
  190.3860  176.9630  145.4410 C   0  0  2  0  0  3  0  0  0  0  0  0
  186.3570  178.2280  146.0620 C   0  0  0  0  0  2  0  0  0  0  0  0
  190.0170  177.0120  146.9250 C   0  0  0  0  0  2  0  0  0  0  0  0
  191.7970  176.6750  145.2420 N   0  0  0  0  0  2  0  0  0  0  0  0
  188.3120  176.7100  142.8740 C   0  0  0  0  0  2  0  0  0  0  0  0
  189.6450  176.8260  142.1430 C   0  0  2  0  0  3  0  0  0  0  0  0
  186.3100  178.0630  143.4800 C   0  0  1  0  0  3  0  0  0  0  0  0
  188.5980  177.5780  147.1650 C   0  0  2  0  0  3  0  0  0  0  0  0
  191.8910  175.6070  144.2520 C   0  0  0  0  0  2  0  0  0  0  0  0
  183.5380  178.5140  143.4540 C   0  0  0  0  0  2  0  0  0  0  0  0
  185.7160  178.6490  142.1910 C   0  0  0  0  0  2  0  0  0  0  0  0
  190.3070  177.2220  138.4220 C   0  0  0  0  0  0  0  0  0  0  0  0
  191.3470  177.1450  137.5560 F   0  0  0  0  0  0  0  0  0  0  0  0
  189.4260  177.0600  140.6790 C   0  0  0  0  0  0  0  0  0  0  0  0
  189.0350  177.5570  137.9480 C   0  0  0  0  0  3  0  0  0  0  0  0
  188.1540  177.4020  140.1970 C   0  0  0  0  0  3  0  0  0  0  0  0
  190.5050  176.9740  139.7860 C   0  0  0  0  0  0  0  0  0  0  0  0
  191.7460  176.6590  140.2380 F   0  0  0  0  0  0  0  0  0  0  0  0
  187.9570  177.6400  138.8340 C   0  0  0  0  0  0  0  0  0  0  0  0
  186.7390  178.9130  137.2660 O   0  0  0  0  0  1  0  0  0  0  0  0
  186.6100  178.0230  138.3330 C   0  0  0  0  0  2  0  0  0  0  0  0
  187.8930  176.7710  148.2510 C   0  0  0  0  0  2  0  0  0  0  0  0
  187.6510  177.5620  149.3770 O   0  0  0  0  0  1  0  0  0  0  0  0
  1  3  1  0  0  0  0
  2  4  1  6  0  0  0
  2  5  1  0  0  0  0
  3 18  1  0  0  0  0
  5 11  1  1  0  0  0
  5 17  1  0  0  0  0
  6 19  1  0  0  0  0
  7 14  1  1  0  0  0
  7 16  1  0  0  0  0
  7  2  1  0  0  0  0
  9  8  1  1  0  0  0
  9 11  1  0  0  0  0
 10  4  1  1  0  0  0
 10 12  1  0  0  0  0
 12 17  1  0  0  0  0
 13 10  1  0  0  0  0
 15 23  1  6  0  0  0
 15  1  1  0  0  0  0
 15 14  1  0  0  0  0
 16 20  1  6  0  0  0
 16  9  1  0  0  0  0
 17 31  1  1  0  0  0
 18 13  1  0  0  0  0
 19  8  1  0  0  0  0
 20  6  1  0  0  0  0
 21 26  1  0  0  0  0
 22 21  1  0  0  0  0
 24 21  2  0  0  0  0
 24 28  1  0  0  0  0
 25 23  1  0  0  0  0
 26 27  1  0  0  0  0
 26 23  2  0  0  0  0
 28 25  2  0  0  0  0
 29 30  1  0  0  0  0
 30 28  1  0  0  0  0
 31 32  1  0  0  0  0
M  END
>  <MODEL>
1

>  <REMARK>
 VINA RESULT:     -10.0      0.000      0.000
  Name = 
  3 active torsions:
  status: ('A' for Active; 'I' for Inactive)
    1  A    between atoms: C_13  and  C_29
    2  A    between atoms: C_15  and  C_26
    3  A    between atoms: C_16  and  C_27
                            x       y       z     vdW  Elec       q    Type
                         _______ _______ _______ _____ _____    ______ ____

>  <TORSDO>
F 3

$$$$
=
 OpenBabel10272413103D

 32 36  0  0  1  0  0  0  0  0999 V2000
  184.9820  179.5370  144.7250 O   0  0  0  0  0  0  0  0  0  0  0  0
  187.8480  176.9290  143.3250 C   0  0  2  0  0  3  0  0  0  0  0  0
  184.7450  178.6760  145.8050 C   0  0  0  0  0  2  0  0  0  0  0  0
  187.1060  176.6640  144.6400 C   0  0  0  0  0  2  0  0  0  0  0  0
  189.2230  177.5940  143.5030 C   0  0  2  0  0  3  0  0  0  0  0  0
  187.8690  177.7460  138.5270 C   0  0  0  0  0  2  0  0  0  0  0  0
  187.0260  177.7230  142.2910 C   0  0  1  0  0  3  0  0  0  0  0  0
  190.0650  177.8040  139.7650 C   0  0  0  0  0  2  0  0  0  0  0  0
  189.2190  177.3370  140.9580 C   0  0  1  0  0  3  0  0  0  0  0  0
  187.5680  177.6620  145.6920 C   0  0  2  0  0  3  0  0  0  0  0  0
  190.0680  177.3790  142.2430 C   0  0  0  0  0  2  0  0  0  0  0  0
  189.0290  177.3850  146.0560 C   0  0  0  0  0  2  0  0  0  0  0  0
  186.7000  177.6100  146.8560 N   0  0  0  0  0  2  0  0  0  0  0  0
  186.4280  178.9990  142.8870 C   0  0  0  0  0  2  0  0  0  0  0  0
  185.1170  178.7040  143.6080 C   0  0  2  0  0  3  0  0  0  0  0  0
  187.8820  178.1130  141.0690 C   0  0  1  0  0  3  0  0  0  0  0  0
  189.9200  177.1680  144.8110 C   0  0  2  0  0  3  0  0  0  0  0  0
  185.8650  178.8070  146.8340 C   0  0  0  0  0  2  0  0  0  0  0  0
  189.2370  178.4110  138.6280 C   0  0  0  0  0  2  0  0  0  0  0  0
  187.0380  177.9980  139.7910 C   0  0  0  0  0  2  0  0  0  0  0  0
  181.5600  178.8130  142.2730 C   0  0  0  0  0  0  0  0  0  0  0  0
  180.2940  178.6490  142.7270 F   0  0  0  0  0  0  0  0  0  0  0  0
  183.9540  178.8620  142.6740 C   0  0  0  0  0  0  0  0  0  0  0  0
  181.7800  179.0940  140.9210 C   0  0  0  0  0  3  0  0  0  0  0  0
  184.1670  179.1390  141.3160 C   0  0  0  0  0  3  0  0  0  0  0  0
  182.6450  178.6950  143.1510 C   0  0  0  0  0  0  0  0  0  0  0  0
  182.4220  178.4130  144.4600 F   0  0  0  0  0  0  0  0  0  0  0  0
  183.0820  179.2650  140.4430 C   0  0  0  0  0  0  0  0  0  0  0  0
  184.4820  180.2880  138.8460 O   0  0  0  0  0  1  0  0  0  0  0  0
  183.3170  179.5360  139.0000 C   0  0  0  0  0  2  0  0  0  0  0  0
  191.2600  177.8720  145.0020 C   0  0  0  0  0  2  0  0  0  0  0  0
  191.9820  177.2880  146.0450 O   0  0  0  0  0  1  0  0  0  0  0  0
  1  3  1  0  0  0  0
  2  5  1  0  0  0  0
  2  4  1  1  0  0  0
  3 18  1  0  0  0  0
  5 11  1  6  0  0  0
  5 17  1  0  0  0  0
  6 19  1  0  0  0  0
  6 20  1  0  0  0  0
  7 14  1  1  0  0  0
  7  2  1  0  0  0  0
  9  8  1  6  0  0  0
  9 16  1  0  0  0  0
  9 11  1  0  0  0  0
 10  4  1  6  0  0  0
 10 12  1  0  0  0  0
 10 13  1  0  0  0  0
 14 15  1  0  0  0  0
 15 23  1  6  0  0  0
 15  1  1  0  0  0  0
 16 20  1  6  0  0  0
 16  7  1  0  0  0  0
 17 31  1  1  0  0  0
 17 12  1  0  0  0  0
 18 13  1  0  0  0  0
 19  8  1  0  0  0  0
 21 22  1  0  0  0  0
 21 26  1  0  0  0  0
 23 26  2  0  0  0  0
 24 21  2  0  0  0  0
 25 23  1  0  0  0  0
 26 27  1  0  0  0  0
 28 24  1  0  0  0  0
 28 25  2  0  0  0  0
 29 30  1  0  0  0  0
 30 28  1  0  0  0  0
 31 32  1  0  0  0  0
M  END
>  <MODEL>
2

>  <REMARK>
 VINA RESULT:     -10.0      3.519      5.992
  Name = 
  3 active torsions:
  status: ('A' for Active; 'I' for Inactive)
    1  A    between atoms: C_13  and  C_29
    2  A    between atoms: C_15  and  C_26
    3  A    between atoms: C_16  and  C_27
                            x       y       z     vdW  Elec       q    Type
                         _______ _______ _______ _____ _____    ______ ____

>  <TORSDO>
F 3

$$$$
=
 OpenBabel10272413103D

 32 36  0  0  1  0  0  0  0  0999 V2000
  187.5720  179.1920  141.0180 O   0  0  0  0  0  0  0  0  0  0  0  0
  187.3420  176.8310  144.3860 C   0  0  2  0  0  3  0  0  0  0  0  0
  186.2780  178.7890  140.6620 C   0  0  0  0  0  2  0  0  0  0  0  0
  186.1560  176.9620  143.4240 C   0  0  0  0  0  2  0  0  0  0  0  0
  187.2630  177.7570  145.6110 C   0  0  2  0  0  3  0  0  0  0  0  0
  191.9900  175.7150  145.3000 C   0  0  0  0  0  2  0  0  0  0  0  0
  188.7170  176.9950  143.7090 C   0  0  1  0  0  3  0  0  0  0  0  0
  190.5900  176.6560  147.1730 C   0  0  0  0  0  2  0  0  0  0  0  0
  189.4450  176.5380  146.1580 C   0  0  1  0  0  3  0  0  0  0  0  0
  185.5580  178.3560  143.5440 C   0  0  2  0  0  3  0  0  0  0  0  0
  188.1860  177.2320  146.7150 C   0  0  0  0  0  2  0  0  0  0  0  0
  184.9090  178.5200  144.9210 C   0  0  0  0  0  2  0  0  0  0  0  0
  184.6140  178.5980  142.4670 N   0  0  0  0  0  2  0  0  0  0  0  0
  188.7960  178.2650  142.8610 C   0  0  0  0  0  2  0  0  0  0  0  0
  188.2120  178.0330  141.4720 C   0  0  2  0  0  3  0  0  0  0  0  0
  189.8560  177.0330  144.7480 C   0  0  1  0  0  3  0  0  0  0  0  0
  185.8110  178.0090  146.0670 C   0  0  2  0  0  3  0  0  0  0  0  0
  185.2490  179.5150  141.5250 C   0  0  0  0  0  2  0  0  0  0  0  0
  191.9820  176.6100  146.5340 C   0  0  0  0  0  2  0  0  0  0  0  0
  191.0770  176.2770  144.2040 C   0  0  0  0  0  2  0  0  0  0  0  0
  189.9270  176.6500  138.3760 C   0  0  0  0  0  0  0  0  0  0  0  0
  189.5940  176.1500  137.1610 F   0  0  0  0  0  0  0  0  0  0  0  0
  189.2810  177.5980  140.5160 C   0  0  0  0  0  0  0  0  0  0  0  0
  191.2730  176.7230  138.7490 C   0  0  0  0  0  3  0  0  0  0  0  0
  190.6330  177.6630  140.8850 C   0  0  0  0  0  3  0  0  0  0  0  0
  188.9300  177.0850  139.2580 C   0  0  0  0  0  0  0  0  0  0  0  0
  187.6260  177.0010  138.8900 F   0  0  0  0  0  0  0  0  0  0  0  0
  191.6270  177.2360  139.9990 C   0  0  0  0  0  0  0  0  0  0  0  0
  193.8570  176.7850  139.3790 O   0  0  0  0  0  1  0  0  0  0  0  0
  193.0560  177.2890  140.4060 C   0  0  0  0  0  2  0  0  0  0  0  0
  185.7420  178.9680  147.2520 C   0  0  0  0  0  2  0  0  0  0  0  0
  185.7220  180.2940  146.8150 O   0  0  0  0  0  1  0  0  0  0  0  0
  1 15  1  0  0  0  0
  2  4  1  6  0  0  0
  2  5  1  0  0  0  0
  3  1  1  0  0  0  0
  3 18  1  0  0  0  0
  5 17  1  0  0  0  0
  5 11  1  1  0  0  0
  6 19  1  0  0  0  0
  7 14  1  1  0  0  0
  7  2  1  0  0  0  0
  7 16  1  0  0  0  0
  9 11  1  1  0  0  0
  9  8  1  0  0  0  0
 10  4  1  6  0  0  0
 10 12  1  0  0  0  0
 12 17  1  0  0  0  0
 13 10  1  0  0  0  0
 15 23  1  6  0  0  0
 15 14  1  0  0  0  0
 16 20  1  6  0  0  0
 16  9  1  0  0  0  0
 17 31  1  1  0  0  0
 18 13  1  0  0  0  0
 19  8  1  0  0  0  0
 20  6  1  0  0  0  0
 21 24  2  0  0  0  0
 21 26  1  0  0  0  0
 22 21  1  0  0  0  0
 23 25  1  0  0  0  0
 24 28  1  0  0  0  0
 26 23  2  0  0  0  0
 27 26  1  0  0  0  0
 28 30  1  0  0  0  0
 28 25  2  0  0  0  0
 29 30  1  0  0  0  0
 32 31  1  0  0  0  0
M  END
>  <MODEL>
3

>  <REMARK>
 VINA RESULT:      -9.7      2.349      4.927
  Name = 
  3 active torsions:
  status: ('A' for Active; 'I' for Inactive)
    1  A    between atoms: C_13  and  C_29
    2  A    between atoms: C_15  and  C_26
    3  A    between atoms: C_16  and  C_27
                            x       y       z     vdW  Elec       q    Type
                         _______ _______ _______ _____ _____    ______ ____

>  <TORSDO>
F 3

$$$$
=
 OpenBabel10272413103D

 32 36  0  0  1  0  0  0  0  0999 V2000
  185.6450  177.3590  145.2170 O   0  0  0  0  0  0  0  0  0  0  0  0
  186.8030  179.1590  141.6960 C   0  0  2  0  0  3  0  0  0  0  0  0
  184.8320  178.4650  145.4990 C   0  0  0  0  0  2  0  0  0  0  0  0
  185.7710  179.8120  142.6210 C   0  0  0  0  0  2  0  0  0  0  0  0
  186.1880  178.3640  140.5320 C   0  0  2  0  0  3  0  0  0  0  0  0
  191.2240  177.2950  140.8760 C   0  0  0  0  0  2  0  0  0  0  0  0
  187.8320  178.2770  142.4300 C   0  0  1  0  0  3  0  0  0  0  0  0
  189.5200  177.2080  139.0200 C   0  0  0  0  0  2  0  0  0  0  0  0
  188.6670  178.0430  139.9840 C   0  0  1  0  0  3  0  0  0  0  0  0
  184.4720  179.0210  142.5710 C   0  0  2  0  0  3  0  0  0  0  0  0
  187.2350  178.1710  139.4290 C   0  0  0  0  0  2  0  0  0  0  0  0
  183.8370  179.1640  141.1860 C   0  0  0  0  0  2  0  0  0  0  0  0
  183.5730  179.4530  143.6280 N   0  0  0  0  0  2  0  0  0  0  0  0
  187.1640  177.2640  143.3610 C   0  0  0  0  0  2  0  0  0  0  0  0
  186.8370  177.8930  144.7110 C   0  0  2  0  0  3  0  0  0  0  0  0
  188.7260  177.5080  141.4370 C   0  0  1  0  0  3  0  0  0  0  0  0
  184.8580  178.9700  140.0420 C   0  0  2  0  0  3  0  0  0  0  0  0
  183.5650  178.4110  144.6490 C   0  0  0  0  0  2  0  0  0  0  0  0
  190.6840  176.4830  139.7040 C   0  0  0  0  0  2  0  0  0  0  0  0
  190.1640  177.4510  141.9740 C   0  0  0  0  0  2  0  0  0  0  0  0
  188.8740  177.8820  147.9190 C   0  0  0  0  0  0  0  0  0  0  0  0
  188.7250  178.2160  149.2240 F   0  0  0  0  0  0  0  0  0  0  0  0
  187.9680  177.6950  145.6740 C   0  0  0  0  0  0  0  0  0  0  0  0
  190.1000  177.3860  147.4670 C   0  0  0  0  0  3  0  0  0  0  0  0
  189.2030  177.2030  145.2270 C   0  0  0  0  0  3  0  0  0  0  0  0
  187.8070  178.0380  147.0250 C   0  0  0  0  0  0  0  0  0  0  0  0
  186.6230  178.5290  147.4720 F   0  0  0  0  0  0  0  0  0  0  0  0
  190.2640  177.0400  146.1230 C   0  0  0  0  0  0  0  0  0  0  0  0
  192.3570  176.1340  146.7210 O   0  0  0  0  0  1  0  0  0  0  0  0
  191.5770  176.5380  145.6370 C   0  0  0  0  0  2  0  0  0  0  0  0
  184.2320  178.1460  138.9200 C   0  0  0  0  0  2  0  0  0  0  0  0
  183.3550  177.1900  139.4380 O   0  0  0  0  0  1  0  0  0  0  0  0
  1  3  1  0  0  0  0
  2  7  1  0  0  0  0
  2  4  1  1  0  0  0
  5 11  1  6  0  0  0
  5  2  1  0  0  0  0
  6 20  1  0  0  0  0
  7 14  1  1  0  0  0
  8 19  1  0  0  0  0
  9  8  1  6  0  0  0
  9 16  1  0  0  0  0
 10 12  1  6  0  0  0
 10  4  1  0  0  0  0
 10 13  1  0  0  0  0
 11  9  1  0  0  0  0
 13 18  1  0  0  0  0
 14 15  1  0  0  0  0
 15  1  1  0  0  0  0
 15 23  1  1  0  0  0
 16 20  1  1  0  0  0
 16  7  1  0  0  0  0
 17 31  1  6  0  0  0
 17  5  1  0  0  0  0
 17 12  1  0  0  0  0
 18  3  1  0  0  0  0
 19  6  1  0  0  0  0
 21 22  1  0  0  0  0
 23 26  1  0  0  0  0
 24 21  1  0  0  0  0
 25 23  2  0  0  0  0
 25 28  1  0  0  0  0
 26 27  1  0  0  0  0
 26 21  2  0  0  0  0
 28 24  2  0  0  0  0
 30 28  1  0  0  0  0
 30 29  1  0  0  0  0
 31 32  1  0  0  0  0
M  END
>  <MODEL>
4

>  <REMARK>
 VINA RESULT:      -9.7      3.451      7.569
  Name = 
  3 active torsions:
  status: ('A' for Active; 'I' for Inactive)
    1  A    between atoms: C_13  and  C_29
    2  A    between atoms: C_15  and  C_26
    3  A    between atoms: C_16  and  C_27
                            x       y       z     vdW  Elec       q    Type
                         _______ _______ _______ _____ _____    ______ ____

>  <TORSDO>
F 3

$$$$
=
 OpenBabel10272413103D

 32 36  0  0  1  0  0  0  0  0999 V2000
  190.6180  175.7940  142.1180 O   0  0  0  0  0  0  0  0  0  0  0  0
  188.3450  178.5390  144.1840 C   0  0  2  0  0  3  0  0  0  0  0  0
  191.7730  176.3290  142.7030 C   0  0  0  0  0  2  0  0  0  0  0  0
  189.8640  178.4620  144.3710 C   0  0  0  0  0  2  0  0  0  0  0  0
  187.5420  177.7810  145.2550 C   0  0  2  0  0  3  0  0  0  0  0  0
  184.4150  179.0980  141.3680 C   0  0  0  0  0  2  0  0  0  0  0  0
  187.8640  178.1090  142.7850 C   0  0  1  0  0  3  0  0  0  0  0  0
  184.0780  178.5830  143.8130 C   0  0  0  0  0  2  0  0  0  0  0  0
  185.6020  178.7400  143.8890 C   0  0  1  0  0  3  0  0  0  0  0  0
  190.2190  177.1880  145.1230 C   0  0  2  0  0  3  0  0  0  0  0  0
  186.0990  178.2970  145.2790 C   0  0  0  0  0  2  0  0  0  0  0  0
  189.6960  177.2760  146.5590 C   0  0  0  0  0  2  0  0  0  0  0  0
  191.6530  176.9560  145.0810 N   0  0  0  0  0  2  0  0  0  0  0  0
  188.4320  176.7500  142.3710 C   0  0  0  0  0  2  0  0  0  0  0  0
  189.8280  176.8980  141.7760 C   0  0  2  0  0  3  0  0  0  0  0  0
  186.3250  178.0340  142.7150 C   0  0  1  0  0  3  0  0  0  0  0  0
  188.2390  177.7870  146.6300 C   0  0  2  0  0  3  0  0  0  0  0  0
  191.8920  175.8580  144.1500 C   0  0  0  0  0  2  0  0  0  0  0  0
  183.5550  178.3610  142.3890 C   0  0  0  0  0  2  0  0  0  0  0  0
  185.8450  178.5450  141.3490 C   0  0  0  0  0  2  0  0  0  0  0  0
  189.1790  178.4190  138.3550 C   0  0  0  0  0  0  0  0  0  0  0  0
  188.7180  179.5780  137.8230 F   0  0  0  0  0  0  0  0  0  0  0  0
  189.7520  177.0670  140.2880 C   0  0  0  0  0  0  0  0  0  0  0  0
  189.5480  177.3680  137.5090 C   0  0  0  0  0  3  0  0  0  0  0  0
  190.1160  176.0160  139.4340 C   0  0  0  0  0  3  0  0  0  0  0  0
  189.2780  178.2710  139.7430 C   0  0  0  0  0  0  0  0  0  0  0  0
  188.9080  179.2930  140.5560 F   0  0  0  0  0  0  0  0  0  0  0  0
  190.0240  176.1700  138.0480 C   0  0  0  0  0  0  0  0  0  0  0  0
  191.3030  174.2060  137.7920 O   0  0  0  0  0  1  0  0  0  0  0  0
  190.3900  175.0430  137.1490 C   0  0  0  0  0  2  0  0  0  0  0  0
  187.4580  176.9910  147.6710 C   0  0  0  0  0  2  0  0  0  0  0  0
  187.7590  177.4340  148.9610 O   0  0  0  0  0  1  0  0  0  0  0  0
  1  3  1  0  0  0  0
  2  4  1  6  0  0  0
  2  5  1  0  0  0  0
  3 18  1  0  0  0  0
  5 11  1  1  0  0  0
  5 17  1  0  0  0  0
  6 19  1  0  0  0  0
  7 14  1  1  0  0  0
  7  2  1  0  0  0  0
  9  8  1  1  0  0  0
  9 11  1  0  0  0  0
 10  4  1  6  0  0  0
 10 12  1  0  0  0  0
 12 17  1  0  0  0  0
 13 10  1  0  0  0  0
 15 23  1  6  0  0  0
 15  1  1  0  0  0  0
 15 14  1  0  0  0  0
 16 20  1  6  0  0  0
 16  7  1  0  0  0  0
 16  9  1  0  0  0  0
 17 31  1  1  0  0  0
 18 13  1  0  0  0  0
 19  8  1  0  0  0  0
 20  6  1  0  0  0  0
 21 26  1  0  0  0  0
 22 21  1  0  0  0  0
 24 28  1  0  0  0  0
 24 21  2  0  0  0  0
 25 23  1  0  0  0  0
 26 23  2  0  0  0  0
 26 27  1  0  0  0  0
 28 25  2  0  0  0  0
 30 29  1  0  0  0  0
 30 28  1  0  0  0  0
 31 32  1  0  0  0  0
M  END
>  <MODEL>
5

>  <REMARK>
 VINA RESULT:      -9.6      1.719      1.983
  Name = 
  3 active torsions:
  status: ('A' for Active; 'I' for Inactive)
    1  A    between atoms: C_13  and  C_29
    2  A    between atoms: C_15  and  C_26
    3  A    between atoms: C_16  and  C_27
                            x       y       z     vdW  Elec       q    Type
                         _______ _______ _______ _____ _____    ______ ____

>  <TORSDO>
F 3

$$$$
=
 OpenBabel10272413103D

 32 36  0  0  1  0  0  0  0  0999 V2000
  187.8670  179.0800  141.2890 O   0  0  0  0  0  0  0  0  0  0  0  0
  187.5350  176.7820  144.6920 C   0  0  2  0  0  3  0  0  0  0  0  0
  186.5820  178.6750  140.9060 C   0  0  0  0  0  2  0  0  0  0  0  0
  186.3760  176.9000  143.6960 C   0  0  0  0  0  2  0  0  0  0  0  0
  187.4270  177.7310  145.8970 C   0  0  2  0  0  3  0  0  0  0  0  0
  192.1520  175.6640  145.7530 C   0  0  0  0  0  2  0  0  0  0  0  0
  188.9290  176.9280  144.0510 C   0  0  1  0  0  3  0  0  0  0  0  0
  190.7050  176.6460  147.5700 C   0  0  0  0  0  2  0  0  0  0  0  0
  189.5880  176.5140  146.5270 C   0  0  1  0  0  3  0  0  0  0  0  0
  185.7820  178.2990  143.7740 C   0  0  2  0  0  3  0  0  0  0  0  0
  188.3180  177.2230  147.0360 C   0  0  0  0  0  2  0  0  0  0  0  0
  185.0970  178.4910  145.1300 C   0  0  0  0  0  2  0  0  0  0  0  0
  184.8680  178.5250  142.6670 N   0  0  0  0  0  2  0  0  0  0  0  0
  189.0370  178.1820  143.1820 C   0  0  0  0  0  2  0  0  0  0  0  0
  188.4900  177.9270  141.7810 C   0  0  2  0  0  3  0  0  0  0  0  0
  190.0400  176.9800  145.1190 C   0  0  1  0  0  3  0  0  0  0  0  0
  185.9650  177.9970  146.3090 C   0  0  2  0  0  3  0  0  0  0  0  0
  185.5330  179.4210  141.7270 C   0  0  0  0  0  2  0  0  0  0  0  0
  192.1140  176.5820  146.9700 C   0  0  0  0  0  2  0  0  0  0  0  0
  191.2710  176.2090  144.6230 C   0  0  0  0  0  2  0  0  0  0  0  0
  191.9430  177.3260  140.3160 C   0  0  0  0  0  0  0  0  0  0  0  0
  193.2400  177.5750  140.6220 F   0  0  0  0  0  0  0  0  0  0  0  0
  189.5830  177.4690  140.8630 C   0  0  0  0  0  0  0  0  0  0  0  0
  191.6280  176.6720  139.1210 C   0  0  0  0  0  3  0  0  0  0  0  0
  189.2730  176.8180  139.6610 C   0  0  0  0  0  3  0  0  0  0  0  0
  190.9230  177.7260  141.1870 C   0  0  0  0  0  0  0  0  0  0  0  0
  191.2400  178.3680  142.3410 F   0  0  0  0  0  0  0  0  0  0  0  0
  190.2940  176.4110  138.7960 C   0  0  0  0  0  0  0  0  0  0  0  0
  188.6040  175.4000  137.5000 O   0  0  0  0  0  1  0  0  0  0  0  0
  189.9570  175.7410  137.5120 C   0  0  0  0  0  2  0  0  0  0  0  0
  185.8670  178.9780  147.4740 C   0  0  0  0  0  2  0  0  0  0  0  0
  185.9240  180.2960  147.0170 O   0  0  0  0  0  1  0  0  0  0  0  0
  1 15  1  0  0  0  0
  2  4  1  6  0  0  0
  2  5  1  0  0  0  0
  3  1  1  0  0  0  0
  3 18  1  0  0  0  0
  5 17  1  0  0  0  0
  5 11  1  1  0  0  0
  6 19  1  0  0  0  0
  7 14  1  1  0  0  0
  7  2  1  0  0  0  0
  7 16  1  0  0  0  0
  9 11  1  1  0  0  0
  9  8  1  0  0  0  0
 10  4  1  1  0  0  0
 10 12  1  0  0  0  0
 12 17  1  0  0  0  0
 13 10  1  0  0  0  0
 15 23  1  6  0  0  0
 15 14  1  0  0  0  0
 16 20  1  6  0  0  0
 16  9  1  0  0  0  0
 17 31  1  1  0  0  0
 18 13  1  0  0  0  0
 19  8  1  0  0  0  0
 20  6  1  0  0  0  0
 21 22  1  0  0  0  0
 21 26  1  0  0  0  0
 23 26  2  0  0  0  0
 24 21  2  0  0  0  0
 25 23  1  0  0  0  0
 26 27  1  0  0  0  0
 28 24  1  0  0  0  0
 28 25  2  0  0  0  0
 29 30  1  0  0  0  0
 30 28  1  0  0  0  0
 32 31  1  0  0  0  0
M  END
>  <MODEL>
6

>  <REMARK>
 VINA RESULT:      -9.5      2.311      4.646
  Name = 
  3 active torsions:
  status: ('A' for Active; 'I' for Inactive)
    1  A    between atoms: C_13  and  C_29
    2  A    between atoms: C_15  and  C_26
    3  A    between atoms: C_16  and  C_27
                            x       y       z     vdW  Elec       q    Type
                         _______ _______ _______ _____ _____    ______ ____

>  <TORSDO>
F 3

$$$$
=
 OpenBabel10272413103D

 32 36  0  0  1  0  0  0  0  0999 V2000
  187.3480  177.1100  144.9960 O   0  0  0  0  0  0  0  0  0  0  0  0
  184.9690  179.5030  142.6320 C   0  0  2  0  0  3  0  0  0  0  0  0
  187.1730  178.0080  146.0580 C   0  0  0  0  0  2  0  0  0  0  0  0
  185.2250  179.8420  144.1050 C   0  0  0  0  0  2  0  0  0  0  0  0
  183.6480  178.7580  142.3800 C   0  0  2  0  0  3  0  0  0  0  0  0
  186.5650  178.5810  138.1280 C   0  0  0  0  0  2  0  0  0  0  0  0
  186.1250  178.7390  141.9570 C   0  0  1  0  0  3  0  0  0  0  0  0
  184.0910  178.4140  138.5840 C   0  0  0  0  0  2  0  0  0  0  0  0
  184.4740  178.9590  139.9660 C   0  0  1  0  0  3  0  0  0  0  0  0
  184.4950  178.8420  144.9890 C   0  0  2  0  0  3  0  0  0  0  0  0
  183.2540  178.8930  140.9050 C   0  0  0  0  0  2  0  0  0  0  0  0
  182.9840  179.0350  144.8450 C   0  0  0  0  0  2  0  0  0  0  0  0
  184.9300  178.9720  146.3700 N   0  0  0  0  0  2  0  0  0  0  0  0
  186.5600  177.5160  142.7670 C   0  0  0  0  0  2  0  0  0  0  0  0
  187.5450  177.9070  143.8630 C   0  0  2  0  0  3  0  0  0  0  0  0
  185.7390  178.2700  140.5390 C   0  0  1  0  0  3  0  0  0  0  0  0
  182.5400  179.1690  143.3700 C   0  0  2  0  0  3  0  0  0  0  0  0
  185.7860  177.8300  146.6700 C   0  0  0  0  0  2  0  0  0  0  0  0
  185.2760  177.8340  137.8040 C   0  0  0  0  0  2  0  0  0  0  0  0
  186.9470  178.4090  139.6020 C   0  0  0  0  0  2  0  0  0  0  0  0
  191.3300  178.1930  143.6870 C   0  0  0  0  0  0  0  0  0  0  0  0
  192.3570  178.6420  144.4500 F   0  0  0  0  0  0  0  0  0  0  0  0
  188.9560  177.8010  143.3670 C   0  0  0  0  0  0  0  0  0  0  0  0
  191.5890  177.6640  142.4190 C   0  0  0  0  0  3  0  0  0  0  0  0
  189.2230  177.2760  142.0940 C   0  0  0  0  0  3  0  0  0  0  0  0
  190.0150  178.2640  144.1620 C   0  0  0  0  0  0  0  0  0  0  0  0
  189.7720  178.7880  145.3910 F   0  0  0  0  0  0  0  0  0  0  0  0
  190.5380  177.1980  141.6250 C   0  0  0  0  0  0  0  0  0  0  0  0
  190.4820  177.6190  139.3060 O   0  0  0  0  0  1  0  0  0  0  0  0
  190.8110  176.6610  140.2660 C   0  0  0  0  0  2  0  0  0  0  0  0
  181.2490  178.3880  143.1420 C   0  0  0  0  0  2  0  0  0  0  0  0
  180.3310  178.6400  144.1630 O   0  0  0  0  0  1  0  0  0  0  0  0
  1  3  1  0  0  0  0
  2  4  1  1  0  0  0
  3 18  1  0  0  0  0
  5 11  1  6  0  0  0
  5  2  1  0  0  0  0
  5 17  1  0  0  0  0
  6 20  1  0  0  0  0
  7  2  1  0  0  0  0
  7 14  1  1  0  0  0
  9  8  1  6  0  0  0
  9 16  1  0  0  0  0
  9 11  1  0  0  0  0
 10  4  1  6  0  0  0
 10 13  1  0  0  0  0
 12 10  1  0  0  0  0
 13 18  1  0  0  0  0
 14 15  1  0  0  0  0
 15 23  1  6  0  0  0
 15  1  1  0  0  0  0
 16 20  1  6  0  0  0
 16  7  1  0  0  0  0
 17 31  1  1  0  0  0
 17 12  1  0  0  0  0
 19  6  1  0  0  0  0
 19  8  1  0  0  0  0
 21 26  1  0  0  0  0
 21 22  1  0  0  0  0
 23 26  2  0  0  0  0
 24 21  2  0  0  0  0
 25 23  1  0  0  0  0
 26 27  1  0  0  0  0
 28 25  2  0  0  0  0
 28 24  1  0  0  0  0
 29 30  1  0  0  0  0
 30 28  1  0  0  0  0
 31 32  1  0  0  0  0
M  END
>  <MODEL>
7

>  <REMARK>
 VINA RESULT:      -9.4      2.910      5.479
  Name = 
  3 active torsions:
  status: ('A' for Active; 'I' for Inactive)
    1  A    between atoms: C_13  and  C_29
    2  A    between atoms: C_15  and  C_26
    3  A    between atoms: C_16  and  C_27
                            x       y       z     vdW  Elec       q    Type
                         _______ _______ _______ _____ _____    ______ ____

>  <TORSDO>
F 3

$$$$
=
 OpenBabel10272413103D

 32 36  0  0  1  0  0  0  0  0999 V2000
  186.6150  177.1400  145.8280 O   0  0  0  0  0  0  0  0  0  0  0  0
  185.6030  179.4080  142.5410 C   0  0  2  0  0  3  0  0  0  0  0  0
  186.0570  178.1200  146.6600 C   0  0  0  0  0  2  0  0  0  0  0  0
  185.2270  179.8510  143.9590 C   0  0  0  0  0  2  0  0  0  0  0  0
  184.4740  178.6800  141.7910 C   0  0  2  0  0  3  0  0  0  0  0  0
  188.9060  178.1060  139.2120 C   0  0  0  0  0  2  0  0  0  0  0  0
  186.8910  178.5650  142.4690 C   0  0  1  0  0  3  0  0  0  0  0  0
  186.4670  178.0380  138.5750 C   0  0  0  0  0  2  0  0  0  0  0  0
  186.2570  178.6760  139.9550 C   0  0  1  0  0  3  0  0  0  0  0  0
  184.1370  178.9390  144.5030 C   0  0  2  0  0  3  0  0  0  0  0  0
  184.7520  178.7130  140.2850 C   0  0  0  0  0  2  0  0  0  0  0  0
  182.8430  179.1600  143.7160 C   0  0  0  0  0  2  0  0  0  0  0  0
  183.9510  179.1630  145.9270 N   0  0  0  0  0  2  0  0  0  0  0  0
  186.8720  177.3960  143.4570 C   0  0  0  0  0  2  0  0  0  0  0  0
  187.3190  177.8440  144.8440 C   0  0  2  0  0  3  0  0  0  0  0  0
  187.1180  178.0000  141.0520 C   0  0  1  0  0  3  0  0  0  0  0  0
  183.0750  179.1930  142.1880 C   0  0  2  0  0  3  0  0  0  0  0  0
  184.5340  178.0250  146.6290 C   0  0  0  0  0  2  0  0  0  0  0  0
  187.8360  177.3700  138.4120 C   0  0  0  0  0  2  0  0  0  0  0  0
  188.6160  178.0370  140.7160 C   0  0  0  0  0  2  0  0  0  0  0  0
  190.7040  177.0670  146.3860 C   0  0  0  0  0  0  0  0  0  0  0  0
  191.2130  176.6280  147.5630 F   0  0  0  0  0  0  0  0  0  0  0  0
  188.7980  177.6650  145.0050 C   0  0  0  0  0  0  0  0  0  0  0  0
  191.5680  177.3860  145.3340 C   0  0  0  0  0  3  0  0  0  0  0  0
  189.6710  177.9880  143.9560 C   0  0  0  0  0  3  0  0  0  0  0  0
  189.3200  177.2060  146.2250 C   0  0  0  0  0  0  0  0  0  0  0  0
  188.4900  176.9030  147.2550 F   0  0  0  0  0  0  0  0  0  0  0  0
  191.0520  177.8390  144.1170 C   0  0  0  0  0  0  0  0  0  0  0  0
  191.8400  177.2880  141.9640 O   0  0  0  0  0  1  0  0  0  0  0  0
  191.9730  178.2050  143.0080 C   0  0  0  0  0  2  0  0  0  0  0  0
  181.9620  178.4310  141.4750 C   0  0  0  0  0  2  0  0  0  0  0  0
  181.1710  179.3000  140.7210 O   0  0  0  0  0  1  0  0  0  0  0  0
  1  3  1  0  0  0  0
  2  4  1  1  0  0  0
  4 10  1  0  0  0  0
  5 11  1  6  0  0  0
  5 17  1  0  0  0  0
  5  2  1  0  0  0  0
  6 20  1  0  0  0  0
  7  2  1  0  0  0  0
  7 14  1  1  0  0  0
  9  8  1  6  0  0  0
  9 11  1  0  0  0  0
  9 16  1  0  0  0  0
 10 12  1  6  0  0  0
 10 13  1  0  0  0  0
 13 18  1  0  0  0  0
 14 15  1  0  0  0  0
 15 23  1  1  0  0  0
 15  1  1  0  0  0  0
 16 20  1  6  0  0  0
 16  7  1  0  0  0  0
 17 31  1  6  0  0  0
 17 12  1  0  0  0  0
 18  3  1  0  0  0  0
 19  8  1  0  0  0  0
 19  6  1  0  0  0  0
 21 22  1  0  0  0  0
 23 26  2  0  0  0  0
 24 21  2  0  0  0  0
 25 28  2  0  0  0  0
 25 23  1  0  0  0  0
 26 21  1  0  0  0  0
 26 27  1  0  0  0  0
 28 24  1  0  0  0  0
 29 30  1  0  0  0  0
 30 28  1  0  0  0  0
 32 31  1  0  0  0  0
M  END
>  <MODEL>
8

>  <REMARK>
 VINA RESULT:      -9.4      3.223      6.551
  Name = 
  3 active torsions:
  status: ('A' for Active; 'I' for Inactive)
    1  A    between atoms: C_13  and  C_29
    2  A    between atoms: C_15  and  C_26
    3  A    between atoms: C_16  and  C_27
                            x       y       z     vdW  Elec       q    Type
                         _______ _______ _______ _____ _____    ______ ____

>  <TORSDO>
F 3

$$$$
=
 OpenBabel10272413103D

 32 36  0  0  1  0  0  0  0  0999 V2000
  184.7640  179.4760  143.3080 O   0  0  0  0  0  0  0  0  0  0  0  0
  187.7450  176.7760  144.2000 C   0  0  2  0  0  3  0  0  0  0  0  0
  183.9130  178.8110  144.2010 C   0  0  0  0  0  2  0  0  0  0  0  0
  186.3850  176.7190  144.9030 C   0  0  0  0  0  2  0  0  0  0  0  0
  188.8340  177.5160  144.9950 C   0  0  2  0  0  3  0  0  0  0  0  0
  190.4680  176.7280  140.1650 C   0  0  0  0  0  2  0  0  0  0  0  0
  187.6860  177.3410  142.7670 C   0  0  1  0  0  3  0  0  0  0  0  0
  191.6120  177.0910  142.3820 C   0  0  0  0  0  2  0  0  0  0  0  0
  190.2190  176.8110  142.9630 C   0  0  1  0  0  3  0  0  0  0  0  0
  186.2540  177.9050  145.8480 C   0  0  2  0  0  3  0  0  0  0  0  0
  190.2170  177.1140  144.4740 C   0  0  0  0  0  2  0  0  0  0  0  0
  187.2490  177.7550  147.0020 C   0  0  0  0  0  2  0  0  0  0  0  0
  184.8860  178.0270  146.3230 N   0  0  0  0  0  2  0  0  0  0  0  0
  186.9440  178.6780  142.7040 C   0  0  0  0  0  2  0  0  0  0  0  0
  185.4380  178.4640  142.6130 C   0  0  2  0  0  3  0  0  0  0  0  0
  189.0980  177.5410  142.1800 C   0  0  1  0  0  3  0  0  0  0  0  0
  188.6620  177.3560  146.5190 C   0  0  2  0  0  3  0  0  0  0  0  0
  184.2840  179.1670  145.6390 C   0  0  0  0  0  2  0  0  0  0  0  0
  191.5930  177.4550  140.8930 C   0  0  0  0  0  2  0  0  0  0  0  0
  189.0960  177.1680  140.6900 C   0  0  0  0  0  2  0  0  0  0  0  0
  183.2320  178.1550  139.5340 C   0  0  0  0  0  0  0  0  0  0  0  0
  181.9220  177.9860  139.2290 F   0  0  0  0  0  0  0  0  0  0  0  0
  184.9980  178.4080  141.1810 C   0  0  0  0  0  0  0  0  0  0  0  0
  184.1770  178.2400  138.5070 C   0  0  0  0  0  3  0  0  0  0  0  0
  185.9400  178.4870  140.1460 C   0  0  0  0  0  3  0  0  0  0  0  0
  183.6400  178.2370  140.8710 C   0  0  0  0  0  0  0  0  0  0  0  0
  182.7160  178.1450  141.8620 F   0  0  0  0  0  0  0  0  0  0  0  0
  185.5290  178.4130  138.8110 C   0  0  0  0  0  0  0  0  0  0  0  0
  187.7890  178.7880  138.2510 O   0  0  0  0  0  1  0  0  0  0  0  0
  186.5370  178.4760  137.7190 C   0  0  0  0  0  2  0  0  0  0  0  0
  189.7170  178.1340  147.2990 C   0  0  0  0  0  2  0  0  0  0  0  0
  189.2740  178.4080  148.5950 O   0  0  0  0  0  1  0  0  0  0  0  0
  1  3  1  0  0  0  0
  2  4  1  1  0  0  0
  2  5  1  0  0  0  0
  3 18  1  0  0  0  0
  5 11  1  6  0  0  0
  5 17  1  0  0  0  0
  6 20  1  0  0  0  0
  6 19  1  0  0  0  0
  7 14  1  1  0  0  0
  7  2  1  0  0  0  0
  9  8  1  6  0  0  0
  9 11  1  0  0  0  0
 10  4  1  6  0  0  0
 10 13  1  0  0  0  0
 10 12  1  0  0  0  0
 15 23  1  6  0  0  0
 15 14  1  0  0  0  0
 15  1  1  0  0  0  0
 16 20  1  6  0  0  0
 16  7  1  0  0  0  0
 16  9  1  0  0  0  0
 17 12  1  0  0  0  0
 17 31  1  1  0  0  0
 18 13  1  0  0  0  0
 19  8  1  0  0  0  0
 21 26  1  0  0  0  0
 22 21  1  0  0  0  0
 24 28  1  0  0  0  0
 24 21  2  0  0  0  0
 25 23  1  0  0  0  0
 26 23  2  0  0  0  0
 26 27  1  0  0  0  0
 28 25  2  0  0  0  0
 30 29  1  0  0  0  0
 30 28  1  0  0  0  0
 31 32  1  0  0  0  0
M  END
>  <MODEL>
9

>  <REMARK>
 VINA RESULT:      -9.2      3.189      5.370
  Name = 
  3 active torsions:
  status: ('A' for Active; 'I' for Inactive)
    1  A    between atoms: C_13  and  C_29
    2  A    between atoms: C_15  and  C_26
    3  A    between atoms: C_16  and  C_27
                            x       y       z     vdW  Elec       q    Type
                         _______ _______ _______ _____ _____    ______ ____

>  <TORSDO>
F 3

$$$$
