=
 OpenBabel10272415263D

 34 39  0  0  1  0  0  0  0  0999 V2000
  187.1690  178.3260  143.5660 C   0  0  2  0  0  3  0  0  0  0  0  0
  183.6980  178.6830  145.0790 C   0  0  0  0  0  3  0  0  0  0  0  0
  185.8820  178.4370  146.2620 C   0  0  0  0  0  2  0  0  0  0  0  0
  189.5880  176.7950  143.2210 C   0  0  0  0  0  2  0  0  0  0  0  0
  187.5900  177.6610  142.2500 C   0  0  0  0  0  2  0  0  0  0  0  0
  189.2650  177.4330  144.5660 C   0  0  2  0  0  3  0  0  0  0  0  0
  189.5440  177.4070  147.0260 C   0  0  0  0  0  2  0  0  0  0  0  0
  189.8270  176.6380  145.7330 C   0  0  0  0  0  2  0  0  0  0  0  0
  189.0590  177.6360  142.1350 N   0  0  2  0  0  0  0  0  0  0  0  0
  187.3070  177.9990  146.0570 C   0  0  0  0  0  0  0  0  0  0  0  0
  187.7480  177.4950  144.7040 C   0  0  1  0  0  3  0  0  0  0  0  0
  188.1060  177.8650  147.1300 C   0  0  0  0  0  3  0  0  0  0  0  0
  182.9150  178.7840  143.9290 C   0  0  0  0  0  0  0  0  0  0  0  0
  183.5460  178.7350  142.6810 C   0  0  0  0  0  3  0  0  0  0  0  0
  185.0800  178.5130  144.9860 C   0  0  0  0  0  0  0  0  0  0  0  0
  184.8930  178.5740  142.5980 N   0  0  0  0  0  0  0  0  0  0  0  0
  185.6740  178.4420  143.7050 C   0  0  0  0  0  0  0  0  0  0  0  0
  189.3480  177.7000  138.4620 C   0  0  0  0  0  3  0  0  0  0  0  0
  190.9500  176.9380  140.6750 C   0  0  0  0  0  2  0  0  0  0  0  0
  192.3330  176.0140  136.6960 C   0  0  0  0  0  0  0  0  0  0  0  0
  192.8020  175.8410  135.4880 C   0  0  0  0  0  0  0  0  0  0  0  0
  190.9510  176.5790  136.8160 C   0  0  0  0  0  2  0  0  0  0  0  0
  193.2470  175.6770  134.3460 O   0  0  0  0  0  0  0  0  0  0  0  0
  190.5760  176.9170  138.2320 C   0  0  0  0  0  0  0  0  0  0  0  0
  194.6650  174.9920  137.7970 S   0  0  0  0  0  1  0  0  0  0  0  0
  192.4820  175.7540  139.0920 O   0  0  0  0  0  0  0  0  0  0  0  0
  191.3170  176.5070  139.2800 C   0  0  0  0  0  0  0  0  0  0  0  0
  192.8520  175.1810  137.8390 C   0  0  1  0  0  3  0  0  0  0  0  0
  189.4210  177.0270  140.8460 C   0  0  2  0  0  3  0  0  0  0  0  0
  188.8240  177.7970  139.6870 C   0  0  0  0  0  3  0  0  0  0  0  0
  181.4980  178.9660  144.0700 N   0  0  0  0  0  2  0  0  0  0  0  0
  179.9980  180.2400  142.7390 C   0  0  0  0  0  2  0  0  0  0  0  0
  180.5130  179.0560  143.0310 C   0  0  0  0  0  0  0  0  0  0  0  0
  179.9820  177.8590  142.3200 C   0  0  0  0  0  1  0  0  0  0  0  0
  1  5  1  6  0  0  0
  1 17  1  0  0  0  0
  1 11  1  0  0  0  0
  6  4  1  6  0  0  0
  6 11  1  0  0  0  0
  6  8  1  0  0  0  0
  7 12  1  0  0  0  0
  8  7  1  0  0  0  0
  9  5  1  1  0  0  0
  9  4  1  0  0  0  0
 10  3  1  0  0  0  0
 10 12  2  0  0  0  0
 11 10  1  1  0  0  0
 13 31  1  0  0  0  0
 13  2  2  0  0  0  0
 14 13  1  0  0  0  0
 15  2  1  0  0  0  0
 15  3  1  0  0  0  0
 16 14  2  0  0  0  0
 16 17  1  0  0  0  0
 17 15  2  0  0  0  0
 18 30  2  0  0  0  0
 19 29  1  0  0  0  0
 20 22  1  0  0  0  0
 20 28  1  0  0  0  0
 21 20  2  0  0  0  0
 22 24  1  0  0  0  0
 23 21  2  0  0  0  0
 24 18  1  0  0  0  0
 24 27  2  0  0  0  0
 26 27  1  0  0  0  0
 27 19  1  0  0  0  0
 28 25  1  1  0  0  0
 28 26  1  0  0  0  0
 29 30  1  6  0  0  0
 29  9  1  0  0  0  0
 32 33  2  0  0  0  0
 33 31  1  0  0  0  0
 34 33  1  0  0  0  0
M  END
>  <MODEL>
1

>  <REMARK>
 VINA RESULT:     -10.0      0.000      0.000
  Name = 
  3 active torsions:
  status: ('A' for Active; 'I' for Inactive)
    1  A    between atoms: C_13  and  N_25
    2  A    between atoms: N_18  and  C_30
    3  A    between atoms: C_23  and  N_25
                            x       y       z     vdW  Elec       q    Type
                         _______ _______ _______ _____ _____    ______ ____

>  <TORSDO>
F 3

$$$$
=
 OpenBabel10272415263D

 34 39  0  0  1  0  0  0  0  0999 V2000
  187.1230  178.5710  142.3360 C   0  0  2  0  0  3  0  0  0  0  0  0
  183.4140  178.4610  143.1680 C   0  0  0  0  0  3  0  0  0  0  0  0
  185.3540  178.2220  144.7200 C   0  0  0  0  0  2  0  0  0  0  0  0
  189.7050  177.2850  142.2960 C   0  0  0  0  0  2  0  0  0  0  0  0
  187.8450  178.1220  141.0600 C   0  0  0  0  0  2  0  0  0  0  0  0
  189.0750  177.7120  143.6180 C   0  0  2  0  0  3  0  0  0  0  0  0
  188.8950  177.3760  146.0630 C   0  0  0  0  0  2  0  0  0  0  0  0
  189.4870  176.8110  144.7700 C   0  0  0  0  0  2  0  0  0  0  0  0
  189.3050  178.2230  141.2340 N   0  0  2  0  0  0  0  0  0  0  0  0
  186.8290  177.9240  144.7490 C   0  0  0  0  0  0  0  0  0  0  0  0
  187.5610  177.6410  143.4610 C   0  0  1  0  0  3  0  0  0  0  0  0
  187.4240  177.7070  145.9360 C   0  0  0  0  0  3  0  0  0  0  0  0
  182.8520  178.6570  141.9070 C   0  0  0  0  0  0  0  0  0  0  0  0
  183.7050  178.8230  140.8100 C   0  0  0  0  0  3  0  0  0  0  0  0
  184.8000  178.4090  143.3290 C   0  0  0  0  0  0  0  0  0  0  0  0
  185.0540  178.7760  140.9750 N   0  0  0  0  0  0  0  0  0  0  0  0
  185.6250  178.5550  142.1920 C   0  0  0  0  0  0  0  0  0  0  0  0
  192.0550  176.6660  139.3390 C   0  0  0  0  0  3  0  0  0  0  0  0
  189.2190  176.6450  139.3100 C   0  0  0  0  0  2  0  0  0  0  0  0
  191.3420  174.6850  136.1080 C   0  0  0  0  0  0  0  0  0  0  0  0
  191.9860  173.9940  135.2060 C   0  0  0  0  0  0  0  0  0  0  0  0
  192.1650  175.4720  137.0820 C   0  0  0  0  0  2  0  0  0  0  0  0
  192.5960  173.3400  134.3510 O   0  0  0  0  0  0  0  0  0  0  0  0
  191.3470  176.0750  138.1890 C   0  0  0  0  0  0  0  0  0  0  0  0
  188.9070  173.8560  135.0690 S   0  0  0  0  0  1  0  0  0  0  0  0
  189.3020  175.5610  137.0580 O   0  0  0  0  0  0  0  0  0  0  0  0
  190.0010  176.1060  138.1420 C   0  0  0  0  0  0  0  0  0  0  0  0
  189.9320  175.1470  135.8470 C   0  0  1  0  0  3  0  0  0  0  0  0
  189.9580  177.8210  139.9790 C   0  0  2  0  0  3  0  0  0  0  0  0
  191.4070  177.4460  140.2090 C   0  0  0  0  0  3  0  0  0  0  0  0
  181.4230  178.7120  141.7860 N   0  0  0  0  0  2  0  0  0  0  0  0
  179.9820  180.3420  142.7420 C   0  0  0  0  0  2  0  0  0  0  0  0
  180.4690  179.1120  142.7800 C   0  0  0  0  0  0  0  0  0  0  0  0
  180.0610  178.2250  143.9070 C   0  0  0  0  0  1  0  0  0  0  0  0
  1  5  1  6  0  0  0
  1 11  1  0  0  0  0
  2 15  1  0  0  0  0
  3 10  1  0  0  0  0
  6  4  1  6  0  0  0
  6  8  1  0  0  0  0
  8  7  1  0  0  0  0
  9  5  1  6  0  0  0
  9  4  1  0  0  0  0
 10 12  2  0  0  0  0
 11  6  1  0  0  0  0
 11 10  1  1  0  0  0
 12  7  1  0  0  0  0
 13  2  2  0  0  0  0
 14 16  2  0  0  0  0
 14 13  1  0  0  0  0
 15  3  1  0  0  0  0
 16 17  1  0  0  0  0
 17  1  1  0  0  0  0
 17 15  2  0  0  0  0
 18 30  2  0  0  0  0
 20 22  1  0  0  0  0
 21 20  2  0  0  0  0
 22 24  1  0  0  0  0
 23 21  2  0  0  0  0
 24 18  1  0  0  0  0
 26 27  1  0  0  0  0
 27 24  2  0  0  0  0
 27 19  1  0  0  0  0
 28 25  1  1  0  0  0
 28 20  1  0  0  0  0
 28 26  1  0  0  0  0
 29 19  1  1  0  0  0
 29 30  1  0  0  0  0
 29  9  1  0  0  0  0
 31 13  1  0  0  0  0
 31 33  1  0  0  0  0
 32 33  2  0  0  0  0
 33 34  1  0  0  0  0
M  END
>  <MODEL>
2

>  <REMARK>
 VINA RESULT:      -9.7      1.784      2.145
  Name = 
  3 active torsions:
  status: ('A' for Active; 'I' for Inactive)
    1  A    between atoms: C_13  and  N_25
    2  A    between atoms: N_18  and  C_30
    3  A    between atoms: C_23  and  N_25
                            x       y       z     vdW  Elec       q    Type
                         _______ _______ _______ _____ _____    ______ ____

>  <TORSDO>
F 3

$$$$
=
 OpenBabel10272415263D

 34 39  0  0  1  0  0  0  0  0999 V2000
  183.8620  179.1030  141.4320 C   0  0  2  0  0  3  0  0  0  0  0  0
  183.1970  177.7510  137.9400 C   0  0  0  0  0  3  0  0  0  0  0  0
  181.5450  178.2810  139.7340 C   0  0  0  0  0  2  0  0  0  0  0  0
  183.6920  178.7960  144.2950 C   0  0  0  0  0  2  0  0  0  0  0  0
  185.0690  178.8690  142.3500 C   0  0  0  0  0  2  0  0  0  0  0  0
  182.4340  179.0420  143.4690 C   0  0  2  0  0  3  0  0  0  0  0  0
  179.9820  178.7880  143.2480 C   0  0  0  0  0  2  0  0  0  0  0  0
  181.2030  178.4010  144.0860 C   0  0  0  0  0  2  0  0  0  0  0  0
  184.8350  179.4800  143.6700 N   0  0  2  0  0  0  0  0  0  0  0  0
  181.4260  178.5160  141.2150 C   0  0  0  0  0  0  0  0  0  0  0  0
  182.6560  178.4410  142.0860 C   0  0  1  0  0  3  0  0  0  0  0  0
  180.2010  178.5800  141.7660 C   0  0  0  0  0  3  0  0  0  0  0  0
  184.4950  177.6750  137.4320 C   0  0  0  0  0  0  0  0  0  0  0  0
  185.5600  178.0720  138.2490 C   0  0  0  0  0  3  0  0  0  0  0  0
  182.9690  178.1920  139.2450 C   0  0  0  0  0  0  0  0  0  0  0  0
  185.3290  178.5050  139.5170 N   0  0  0  0  0  0  0  0  0  0  0  0
  184.0750  178.5590  140.0440 C   0  0  0  0  0  0  0  0  0  0  0  0
  186.5330  178.1440  146.6540 C   0  0  0  0  0  3  0  0  0  0  0  0
  186.9960  178.2590  143.8590 C   0  0  0  0  0  2  0  0  0  0  0  0
  190.1320  176.7770  146.4220 C   0  0  0  0  0  0  0  0  0  0  0  0
  191.0320  176.2210  147.1880 C   0  0  0  0  0  0  0  0  0  0  0  0
  188.9220  177.3480  147.0960 C   0  0  0  0  0  2  0  0  0  0  0  0
  191.8860  175.6940  147.9120 O   0  0  0  0  0  0  0  0  0  0  0  0
  187.8630  177.7910  146.1250 C   0  0  0  0  0  0  0  0  0  0  0  0
  191.6580  176.2510  144.1660 S   0  0  0  0  0  1  0  0  0  0  0  0
  189.3640  177.5720  144.2750 O   0  0  0  0  0  0  0  0  0  0  0  0
  188.1080  177.8910  144.8040 C   0  0  0  0  0  0  0  0  0  0  0  0
  190.5190  177.3420  145.0800 C   0  0  1  0  0  3  0  0  0  0  0  0
  186.0270  179.2690  144.5050 C   0  0  2  0  0  3  0  0  0  0  0  0
  185.6490  178.7930  145.8920 C   0  0  0  0  0  3  0  0  0  0  0  0
  184.6850  177.2230  136.0840 N   0  0  0  0  0  2  0  0  0  0  0  0
  186.4230  175.7310  135.4540 C   0  0  0  0  0  2  0  0  0  0  0  0
  185.9220  176.9550  135.4090 C   0  0  0  0  0  0  0  0  0  0  0  0
  186.7120  178.0190  134.7250 C   0  0  0  0  0  1  0  0  0  0  0  0
  1 11  1  0  0  0  0
  1  5  1  1  0  0  0
  2 15  1  0  0  0  0
  3 10  1  0  0  0  0
  6  8  1  1  0  0  0
  6  4  1  0  0  0  0
  7  8  1  0  0  0  0
  9  5  1  6  0  0  0
  9  4  1  0  0  0  0
  9 29  1  0  0  0  0
 10 12  2  0  0  0  0
 11 10  1  6  0  0  0
 11  6  1  0  0  0  0
 12  7  1  0  0  0  0
 13  2  2  0  0  0  0
 13 14  1  0  0  0  0
 14 16  2  0  0  0  0
 15  3  1  0  0  0  0
 15 17  2  0  0  0  0
 16 17  1  0  0  0  0
 17  1  1  0  0  0  0
 19 27  1  0  0  0  0
 20 22  1  0  0  0  0
 20 21  2  0  0  0  0
 21 23  2  0  0  0  0
 24 18  1  0  0  0  0
 24 22  1  0  0  0  0
 26 27  1  0  0  0  0
 26 28  1  0  0  0  0
 27 24  2  0  0  0  0
 28 25  1  6  0  0  0
 28 20  1  0  0  0  0
 29 19  1  6  0  0  0
 29 30  1  0  0  0  0
 30 18  2  0  0  0  0
 31 13  1  0  0  0  0
 33 32  2  0  0  0  0
 33 31  1  0  0  0  0
 34 33  1  0  0  0  0
M  END
>  <MODEL>
3

>  <REMARK>
 VINA RESULT:      -9.6      3.975      7.912
  Name = 
  3 active torsions:
  status: ('A' for Active; 'I' for Inactive)
    1  A    between atoms: C_13  and  N_25
    2  A    between atoms: N_18  and  C_30
    3  A    between atoms: C_23  and  N_25
                            x       y       z     vdW  Elec       q    Type
                         _______ _______ _______ _____ _____    ______ ____

>  <TORSDO>
F 3

$$$$
=
 OpenBabel10272415263D

 34 39  0  0  1  0  0  0  0  0999 V2000
  189.7220  177.6290  137.9130 C   0  0  2  0  0  3  0  0  0  0  0  0
  192.0960  175.3780  135.9750 C   0  0  0  0  0  3  0  0  0  0  0  0
  189.8370  176.1930  135.2950 C   0  0  0  0  0  2  0  0  0  0  0  0
  187.1650  178.0460  139.1810 C   0  0  0  0  0  2  0  0  0  0  0  0
  189.5170  177.7480  139.4280 C   0  0  0  0  0  2  0  0  0  0  0  0
  187.2680  177.9570  137.6620 C   0  0  2  0  0  3  0  0  0  0  0  0
  186.1670  177.4320  135.5090 C   0  0  0  0  0  2  0  0  0  0  0  0
  186.0110  177.3840  137.0300 C   0  0  0  0  0  2  0  0  0  0  0  0
  188.3910  178.6510  139.7250 N   0  0  2  0  0  0  0  0  0  0  0  0
  188.5680  176.7850  135.8430 C   0  0  0  0  0  0  0  0  0  0  0  0
  188.4430  177.0470  137.3240 C   0  0  1  0  0  3  0  0  0  0  0  0
  187.4930  176.8740  135.0400 C   0  0  0  0  0  3  0  0  0  0  0  0
  193.1690  175.2950  136.8630 C   0  0  0  0  0  0  0  0  0  0  0  0
  193.0890  175.9830  138.0790 C   0  0  0  0  0  3  0  0  0  0  0  0
  190.9560  176.1140  136.3040 C   0  0  0  0  0  0  0  0  0  0  0  0
  191.9770  176.7010  138.3900 N   0  0  0  0  0  0  0  0  0  0  0  0
  190.9060  176.7720  137.5530 C   0  0  0  0  0  0  0  0  0  0  0  0
  186.6040  178.0590  142.8920 C   0  0  0  0  0  3  0  0  0  0  0  0
  189.2610  177.8650  141.9210 C   0  0  0  0  0  2  0  0  0  0  0  0
  188.5490  177.3240  146.1400 C   0  0  0  0  0  0  0  0  0  0  0  0
  188.3150  177.0460  147.3950 C   0  0  0  0  0  0  0  0  0  0  0  0
  187.3820  177.7630  145.3090 C   0  0  0  0  0  2  0  0  0  0  0  0
  188.0940  176.7830  148.5830 O   0  0  0  0  0  0  0  0  0  0  0  0
  187.7120  177.8750  143.8470 C   0  0  0  0  0  0  0  0  0  0  0  0
  191.2460  176.7660  146.4730 S   0  0  0  0  0  1  0  0  0  0  0  0
  190.0550  177.6680  144.2840 O   0  0  0  0  0  0  0  0  0  0  0  0
  188.9830  177.8320  143.4000 C   0  0  0  0  0  0  0  0  0  0  0  0
  189.9240  177.7570  145.7020 C   0  0  1  0  0  3  0  0  0  0  0  0
  188.2530  178.7690  141.1840 C   0  0  2  0  0  3  0  0  0  0  0  0
  186.8460  178.4320  141.6320 C   0  0  0  0  0  3  0  0  0  0  0  0
  194.3250  174.5340  136.4830 N   0  0  0  0  0  2  0  0  0  0  0  0
  196.6410  174.5640  137.0120 C   0  0  0  0  0  2  0  0  0  0  0  0
  195.4260  174.1300  137.3090 C   0  0  0  0  0  0  0  0  0  0  0  0
  195.2740  173.1740  138.4420 C   0  0  0  0  0  1  0  0  0  0  0  0
  1  5  1  1  0  0  0
  2 15  2  0  0  0  0
  2 13  1  0  0  0  0
  3 10  1  0  0  0  0
  3 15  1  0  0  0  0
  5  9  1  0  0  0  0
  6  8  1  1  0  0  0
  6  4  1  0  0  0  0
  7  8  1  0  0  0  0
  9  4  1  1  0  0  0
  9 29  1  0  0  0  0
 11 10  1  6  0  0  0
 11  6  1  0  0  0  0
 11  1  1  0  0  0  0
 12  7  1  0  0  0  0
 12 10  2  0  0  0  0
 13 14  2  0  0  0  0
 14 16  1  0  0  0  0
 15 17  1  0  0  0  0
 17  1  1  0  0  0  0
 17 16  2  0  0  0  0
 18 24  1  0  0  0  0
 19 27  1  0  0  0  0
 20 21  2  0  0  0  0
 21 23  2  0  0  0  0
 22 20  1  0  0  0  0
 24 22  1  0  0  0  0
 26 28  1  0  0  0  0
 27 24  2  0  0  0  0
 27 26  1  0  0  0  0
 28 20  1  0  0  0  0
 28 25  1  1  0  0  0
 29 30  1  6  0  0  0
 29 19  1  0  0  0  0
 30 18  2  0  0  0  0
 31 13  1  0  0  0  0
 31 33  1  0  0  0  0
 32 33  2  0  0  0  0
 33 34  1  0  0  0  0
M  END
>  <MODEL>
4

>  <REMARK>
 VINA RESULT:      -9.5      3.981     10.231
  Name = 
  3 active torsions:
  status: ('A' for Active; 'I' for Inactive)
    1  A    between atoms: C_13  and  N_25
    2  A    between atoms: N_18  and  C_30
    3  A    between atoms: C_23  and  N_25
                            x       y       z     vdW  Elec       q    Type
                         _______ _______ _______ _____ _____    ______ ____

>  <TORSDO>
F 3

$$$$
=
 OpenBabel10272415263D

 34 39  0  0  1  0  0  0  0  0999 V2000
  185.0650  178.4160  138.6940 C   0  0  2  0  0  3  0  0  0  0  0  0
  186.8790  177.0360  135.6500 C   0  0  0  0  0  3  0  0  0  0  0  0
  184.4440  176.9160  136.1850 C   0  0  0  0  0  2  0  0  0  0  0  0
  183.4460  177.9730  141.0390 C   0  0  0  0  0  2  0  0  0  0  0  0
  185.5690  178.5730  140.1350 C   0  0  0  0  0  2  0  0  0  0  0  0
  182.8490  177.8070  139.6460 C   0  0  2  0  0  3  0  0  0  0  0  0
  181.1370  176.7470  138.2070 C   0  0  0  0  0  2  0  0  0  0  0  0
  181.7410  176.7670  139.6130 C   0  0  0  0  0  2  0  0  0  0  0  0
  184.4750  179.0240  141.0140 N   0  0  2  0  0  0  0  0  0  0  0  0
  183.4640  177.0470  137.3190 C   0  0  0  0  0  0  0  0  0  0  0  0
  183.9640  177.3630  138.7080 C   0  0  1  0  0  3  0  0  0  0  0  0
  182.1870  176.6750  137.1200 C   0  0  0  0  0  3  0  0  0  0  0  0
  188.1920  177.4200  135.9240 C   0  0  0  0  0  0  0  0  0  0  0  0
  188.4510  178.1260  137.1040 C   0  0  0  0  0  3  0  0  0  0  0  0
  185.8490  177.3300  136.5450 C   0  0  0  0  0  0  0  0  0  0  0  0
  187.4430  178.4140  137.9700 N   0  0  0  0  0  0  0  0  0  0  0  0
  186.1590  178.0220  137.7380 C   0  0  0  0  0  0  0  0  0  0  0  0
  184.1970  178.7900  144.6800 C   0  0  0  0  0  3  0  0  0  0  0  0
  186.1150  178.1750  142.6830 C   0  0  0  0  0  2  0  0  0  0  0  0
  187.2610  177.8580  146.8280 C   0  0  0  0  0  0  0  0  0  0  0  0
  187.5680  177.6510  148.0820 C   0  0  0  0  0  0  0  0  0  0  0  0
  185.9120  178.4440  146.5440 C   0  0  0  0  0  2  0  0  0  0  0  0
  187.8590  177.4550  149.2680 O   0  0  0  0  0  0  0  0  0  0  0  0
  185.5800  178.4670  145.0780 C   0  0  0  0  0  0  0  0  0  0  0  0
  189.7400  176.9110  146.0190 S   0  0  0  0  0  1  0  0  0  0  0  0
  187.8320  177.9230  144.4830 O   0  0  0  0  0  0  0  0  0  0  0  0
  186.5100  178.2230  144.1350 C   0  0  0  0  0  0  0  0  0  0  0  0
  188.3480  178.0680  145.8060 C   0  0  1  0  0  3  0  0  0  0  0  0
  185.0050  179.2000  142.3740 C   0  0  2  0  0  3  0  0  0  0  0  0
  183.9080  179.0890  143.4110 C   0  0  0  0  0  3  0  0  0  0  0  0
  189.2190  177.1040  134.9730 N   0  0  0  0  0  2  0  0  0  0  0  0
  191.3500  176.1740  134.4860 C   0  0  0  0  0  2  0  0  0  0  0  0
  190.1440  176.0080  135.0050 C   0  0  0  0  0  0  0  0  0  0  0  0
  189.7770  174.6600  135.5240 C   0  0  0  0  0  1  0  0  0  0  0  0
  1 11  1  0  0  0  0
  1  5  1  1  0  0  0
  2 13  2  0  0  0  0
  2 15  1  0  0  0  0
  3 15  1  0  0  0  0
  3 10  1  0  0  0  0
  6  8  1  1  0  0  0
  6  4  1  0  0  0  0
  7  8  1  0  0  0  0
  9  5  1  6  0  0  0
  9  4  1  0  0  0  0
  9 29  1  0  0  0  0
 11 10  1  6  0  0  0
 11  6  1  0  0  0  0
 12 10  2  0  0  0  0
 12  7  1  0  0  0  0
 13 14  1  0  0  0  0
 14 16  2  0  0  0  0
 15 17  2  0  0  0  0
 17 16  1  0  0  0  0
 17  1  1  0  0  0  0
 18 24  1  0  0  0  0
 19 27  1  0  0  0  0
 20 21  2  0  0  0  0
 21 23  2  0  0  0  0
 22 20  1  0  0  0  0
 24 22  1  0  0  0  0
 26 28  1  0  0  0  0
 27 26  1  0  0  0  0
 27 24  2  0  0  0  0
 28 25  1  1  0  0  0
 28 20  1  0  0  0  0
 29 19  1  1  0  0  0
 29 30  1  0  0  0  0
 30 18  2  0  0  0  0
 31 33  1  0  0  0  0
 31 13  1  0  0  0  0
 32 33  2  0  0  0  0
 33 34  1  0  0  0  0
M  END
>  <MODEL>
5

>  <REMARK>
 VINA RESULT:      -9.2      4.241      9.552
  Name = 
  3 active torsions:
  status: ('A' for Active; 'I' for Inactive)
    1  A    between atoms: C_13  and  N_25
    2  A    between atoms: N_18  and  C_30
    3  A    between atoms: C_23  and  N_25
                            x       y       z     vdW  Elec       q    Type
                         _______ _______ _______ _____ _____    ______ ____

>  <TORSDO>
F 3

$$$$
=
 OpenBabel10272415263D

 34 39  0  0  1  0  0  0  0  0999 V2000
  190.9460  176.9170  138.0260 C   0  0  2  0  0  3  0  0  0  0  0  0
  192.9990  175.0680  135.4120 C   0  0  0  0  0  3  0  0  0  0  0  0
  190.9080  176.3900  135.0840 C   0  0  0  0  0  2  0  0  0  0  0  0
  188.4520  177.2900  139.4240 C   0  0  0  0  0  2  0  0  0  0  0  0
  190.7250  176.5760  139.5050 C   0  0  0  0  0  2  0  0  0  0  0  0
  188.5780  177.6760  137.9550 C   0  0  2  0  0  3  0  0  0  0  0  0
  187.4640  178.0380  135.7740 C   0  0  0  0  0  2  0  0  0  0  0  0
  187.2640  177.5320  137.2050 C   0  0  0  0  0  2  0  0  0  0  0  0
  189.7420  177.4970  140.1020 N   0  0  2  0  0  0  0  0  0  0  0  0
  189.7300  176.9620  135.8250 C   0  0  0  0  0  0  0  0  0  0  0  0
  189.6090  176.7540  137.3140 C   0  0  1  0  0  3  0  0  0  0  0  0
  188.7010  177.4650  135.1190 C   0  0  0  0  0  3  0  0  0  0  0  0
  194.0240  174.5440  136.2000 C   0  0  0  0  0  0  0  0  0  0  0  0
  194.0200  174.8130  137.5730 C   0  0  0  0  0  3  0  0  0  0  0  0
  191.9760  175.8250  135.9870 C   0  0  0  0  0  0  0  0  0  0  0  0
  193.0230  175.5540  138.1250 N   0  0  0  0  0  0  0  0  0  0  0  0
  191.9950  176.0500  137.3820 C   0  0  0  0  0  0  0  0  0  0  0  0
  190.8500  177.5890  143.6150 C   0  0  0  0  0  3  0  0  0  0  0  0
  188.4380  177.9650  142.1700 C   0  0  0  0  0  2  0  0  0  0  0  0
  188.2830  177.8690  146.4790 C   0  0  0  0  0  0  0  0  0  0  0  0
  188.2570  177.9550  147.7820 C   0  0  0  0  0  0  0  0  0  0  0  0
  189.5990  177.5390  145.8430 C   0  0  0  0  0  2  0  0  0  0  0  0
  188.2320  178.0380  149.0160 O   0  0  0  0  0  0  0  0  0  0  0  0
  189.5700  177.6480  144.3440 C   0  0  0  0  0  0  0  0  0  0  0  0
  185.5660  178.4140  146.3430 S   0  0  0  0  0  1  0  0  0  0  0  0
  187.1840  177.8250  144.3290 O   0  0  0  0  0  0  0  0  0  0  0  0
  188.4140  177.7760  143.6640 C   0  0  0  0  0  0  0  0  0  0  0  0
  187.0300  177.5270  145.7160 C   0  0  1  0  0  3  0  0  0  0  0  0
  189.5870  177.1640  141.5250 C   0  0  2  0  0  3  0  0  0  0  0  0
  190.8700  177.4090  142.2910 C   0  0  0  0  0  3  0  0  0  0  0  0
  195.0610  173.7780  135.5680 N   0  0  0  0  0  2  0  0  0  0  0  0
  197.0490  172.7200  136.3230 C   0  0  0  0  0  2  0  0  0  0  0  0
  196.4690  173.8070  135.8390 C   0  0  0  0  0  0  0  0  0  0  0  0
  197.2950  175.0370  135.6770 C   0  0  0  0  0  1  0  0  0  0  0  0
  1  5  1  1  0  0  0
  2 15  2  0  0  0  0
  2 13  1  0  0  0  0
  3 10  1  0  0  0  0
  3 15  1  0  0  0  0
  5  9  1  0  0  0  0
  6  8  1  6  0  0  0
  6  4  1  0  0  0  0
  7  8  1  0  0  0  0
  9  4  1  6  0  0  0
  9 29  1  0  0  0  0
 11 10  1  6  0  0  0
 11  6  1  0  0  0  0
 11  1  1  0  0  0  0
 12  7  1  0  0  0  0
 12 10  2  0  0  0  0
 13 14  2  0  0  0  0
 14 16  1  0  0  0  0
 15 17  1  0  0  0  0
 17  1  1  0  0  0  0
 17 16  2  0  0  0  0
 18 24  1  0  0  0  0
 19 27  1  0  0  0  0
 20 21  2  0  0  0  0
 21 23  2  0  0  0  0
 22 20  1  0  0  0  0
 24 22  1  0  0  0  0
 26 28  1  0  0  0  0
 27 26  1  0  0  0  0
 27 24  2  0  0  0  0
 28 25  1  1  0  0  0
 28 20  1  0  0  0  0
 29 19  1  1  0  0  0
 29 30  1  0  0  0  0
 30 18  2  0  0  0  0
 31 33  1  0  0  0  0
 31 13  1  0  0  0  0
 33 32  2  0  0  0  0
 34 33  1  0  0  0  0
M  END
>  <MODEL>
6

>  <REMARK>
 VINA RESULT:      -9.2      4.723     10.981
  Name = 
  3 active torsions:
  status: ('A' for Active; 'I' for Inactive)
    1  A    between atoms: C_13  and  N_25
    2  A    between atoms: N_18  and  C_30
    3  A    between atoms: C_23  and  N_25
                            x       y       z     vdW  Elec       q    Type
                         _______ _______ _______ _____ _____    ______ ____

>  <TORSDO>
F 3

$$$$
=
 OpenBabel10272415263D

 34 39  0  0  1  0  0  0  0  0999 V2000
  189.3020  176.1900  137.8180 C   0  0  2  0  0  3  0  0  0  0  0  0
  187.2380  176.7620  134.6760 C   0  0  0  0  0  3  0  0  0  0  0  0
  189.6330  176.0830  134.8490 C   0  0  0  0  0  2  0  0  0  0  0  0
  191.5690  176.8730  139.4650 C   0  0  0  0  0  2  0  0  0  0  0  0
  189.2020  176.8800  139.1840 C   0  0  0  0  0  2  0  0  0  0  0  0
  191.7710  176.1710  138.1270 C   0  0  2  0  0  3  0  0  0  0  0  0
  193.2520  175.7120  136.1970 C   0  0  0  0  0  2  0  0  0  0  0  0
  193.0930  176.5390  137.4750 C   0  0  0  0  0  2  0  0  0  0  0  0
  190.2980  176.4380  140.0640 N   0  0  2  0  0  0  0  0  0  0  0  0
  190.7980  176.0530  135.8000 C   0  0  0  0  0  0  0  0  0  0  0  0
  190.6370  176.5910  137.2010 C   0  0  1  0  0  3  0  0  0  0  0  0
  192.0170  175.7430  135.3240 C   0  0  0  0  0  3  0  0  0  0  0  0
  186.0040  177.1090  135.2270 C   0  0  0  0  0  0  0  0  0  0  0  0
  185.8780  177.1460  136.6200 C   0  0  0  0  0  3  0  0  0  0  0  0
  188.3300  176.4800  135.4980 C   0  0  0  0  0  0  0  0  0  0  0  0
  186.9450  176.8650  137.4150 N   0  0  0  0  0  0  0  0  0  0  0  0
  188.1660  176.5540  136.9000 C   0  0  0  0  0  0  0  0  0  0  0  0
  188.2630  177.6630  142.8810 C   0  0  0  0  0  3  0  0  0  0  0  0
  190.6590  176.1910  142.5150 C   0  0  0  0  0  2  0  0  0  0  0  0
  189.5720  177.4270  146.5010 C   0  0  0  0  0  0  0  0  0  0  0  0
  189.1810  177.7020  147.7170 C   0  0  0  0  0  0  0  0  0  0  0  0
  188.7290  177.9490  145.3780 C   0  0  0  0  0  2  0  0  0  0  0  0
  188.8110  177.9610  148.8680 O   0  0  0  0  0  0  0  0  0  0  0  0
  189.1500  177.4250  144.0340 C   0  0  0  0  0  0  0  0  0  0  0  0
  191.7890  176.0710  147.4720 S   0  0  0  0  0  1  0  0  0  0  0  0
  191.1820  176.5380  144.9360 O   0  0  0  0  0  0  0  0  0  0  0  0
  190.3150  176.7700  143.8610 C   0  0  0  0  0  0  0  0  0  0  0  0
  191.0250  177.1490  146.2160 C   0  0  1  0  0  3  0  0  0  0  0  0
  190.1440  177.0900  141.3730 C   0  0  2  0  0  3  0  0  0  0  0  0
  188.7010  177.4660  141.6340 C   0  0  0  0  0  3  0  0  0  0  0  0
  184.9050  177.3850  134.3460 N   0  0  0  0  0  2  0  0  0  0  0  0
  182.5610  177.7400  134.5080 C   0  0  0  0  0  2  0  0  0  0  0  0
  183.5640  176.8800  134.4230 C   0  0  0  0  0  0  0  0  0  0  0  0
  183.2560  175.4240  134.4960 C   0  0  0  0  0  1  0  0  0  0  0  0
  1  5  1  1  0  0  0
  2 13  2  0  0  0  0
  2 15  1  0  0  0  0
  3 15  1  0  0  0  0
  3 10  1  0  0  0  0
  4  9  1  0  0  0  0
  6  8  1  6  0  0  0
  6  4  1  0  0  0  0
  7  8  1  0  0  0  0
  9  5  1  6  0  0  0
  9 29  1  0  0  0  0
 11 10  1  6  0  0  0
 11  1  1  0  0  0  0
 11  6  1  0  0  0  0
 12 10  2  0  0  0  0
 12  7  1  0  0  0  0
 13 14  1  0  0  0  0
 14 16  2  0  0  0  0
 15 17  2  0  0  0  0
 17 16  1  0  0  0  0
 17  1  1  0  0  0  0
 18 24  1  0  0  0  0
 19 27  1  0  0  0  0
 20 21  2  0  0  0  0
 21 23  2  0  0  0  0
 22 20  1  0  0  0  0
 24 22  1  0  0  0  0
 26 28  1  0  0  0  0
 27 24  2  0  0  0  0
 27 26  1  0  0  0  0
 28 20  1  0  0  0  0
 28 25  1  1  0  0  0
 29 30  1  1  0  0  0
 29 19  1  0  0  0  0
 30 18  2  0  0  0  0
 31 33  1  0  0  0  0
 31 13  1  0  0  0  0
 33 34  1  0  0  0  0
 33 32  2  0  0  0  0
M  END
>  <MODEL>
7

>  <REMARK>
 VINA RESULT:      -9.2      4.581      8.639
  Name = 
  3 active torsions:
  status: ('A' for Active; 'I' for Inactive)
    1  A    between atoms: C_13  and  N_25
    2  A    between atoms: N_18  and  C_30
    3  A    between atoms: C_23  and  N_25
                            x       y       z     vdW  Elec       q    Type
                         _______ _______ _______ _____ _____    ______ ____

>  <TORSDO>
F 3

$$$$
=
 OpenBabel10272415263D

 34 39  0  0  1  0  0  0  0  0999 V2000
  186.3560  178.2360  137.9090 C   0  0  2  0  0  3  0  0  0  0  0  0
  188.2650  176.3990  135.1810 C   0  0  0  0  0  3  0  0  0  0  0  0
  185.8170  176.8640  135.3090 C   0  0  0  0  0  2  0  0  0  0  0  0
  184.3190  178.2400  139.9500 C   0  0  0  0  0  2  0  0  0  0  0  0
  186.6410  178.3050  139.4140 C   0  0  0  0  0  2  0  0  0  0  0  0
  183.9340  178.1860  138.4760 C   0  0  2  0  0  3  0  0  0  0  0  0
  182.2790  177.5220  136.7600 C   0  0  0  0  0  2  0  0  0  0  0  0
  182.6340  177.4330  138.2450 C   0  0  0  0  0  2  0  0  0  0  0  0
  185.5560  179.0200  140.1090 N   0  0  2  0  0  0  0  0  0  0  0  0
  184.7240  177.2480  136.2690 C   0  0  0  0  0  0  0  0  0  0  0  0
  185.0510  177.4710  137.7250 C   0  0  1  0  0  3  0  0  0  0  0  0
  183.4450  177.1800  135.8590 C   0  0  0  0  0  3  0  0  0  0  0  0
  189.5690  176.4720  135.6720 C   0  0  0  0  0  0  0  0  0  0  0  0
  189.7920  177.1250  136.8900 C   0  0  0  0  0  3  0  0  0  0  0  0
  187.2020  176.9470  135.9000 C   0  0  0  0  0  0  0  0  0  0  0  0
  188.7520  177.6610  137.5830 N   0  0  0  0  0  0  0  0  0  0  0  0
  187.4680  177.5750  137.1380 C   0  0  0  0  0  0  0  0  0  0  0  0
  184.8800  178.2920  143.6580 C   0  0  0  0  0  3  0  0  0  0  0  0
  187.0970  178.2130  141.8900 C   0  0  0  0  0  2  0  0  0  0  0  0
  187.7730  177.5490  146.0980 C   0  0  0  0  0  0  0  0  0  0  0  0
  187.9550  177.2330  147.3520 C   0  0  0  0  0  0  0  0  0  0  0  0
  186.3920  177.9660  145.6930 C   0  0  0  0  0  2  0  0  0  0  0  0
  188.1290  176.9340  148.5400 O   0  0  0  0  0  0  0  0  0  0  0  0
  186.2390  178.1240  144.2060 C   0  0  0  0  0  0  0  0  0  0  0  0
  190.4490  177.0760  145.5420 S   0  0  0  0  0  1  0  0  0  0  0  0
  188.6040  177.9880  143.8730 O   0  0  0  0  0  0  0  0  0  0  0  0
  187.3030  178.1360  143.3800 C   0  0  0  0  0  0  0  0  0  0  0  0
  188.9270  178.0390  145.2620 C   0  0  1  0  0  3  0  0  0  0  0  0
  185.8850  179.0990  141.5410 C   0  0  2  0  0  3  0  0  0  0  0  0
  184.7020  178.7030  142.3990 C   0  0  0  0  0  3  0  0  0  0  0  0
  190.6340  175.9020  134.8970 N   0  0  0  0  0  2  0  0  0  0  0  0
  190.9840  173.6980  135.7140 C   0  0  0  0  0  2  0  0  0  0  0  0
  191.5100  174.8250  135.2590 C   0  0  0  0  0  0  0  0  0  0  0  0
  192.9950  174.9480  135.2210 C   0  0  0  0  0  1  0  0  0  0  0  0
  1  5  1  1  0  0  0
  2 13  2  0  0  0  0
  2 15  1  0  0  0  0
  3 15  1  0  0  0  0
  3 10  1  0  0  0  0
  4  9  1  0  0  0  0
  6  8  1  1  0  0  0
  6  4  1  0  0  0  0
  7  8  1  0  0  0  0
  9  5  1  6  0  0  0
  9 29  1  0  0  0  0
 11 10  1  6  0  0  0
 11  1  1  0  0  0  0
 11  6  1  0  0  0  0
 12 10  2  0  0  0  0
 12  7  1  0  0  0  0
 13 14  1  0  0  0  0
 14 16  2  0  0  0  0
 15 17  2  0  0  0  0
 17 16  1  0  0  0  0
 17  1  1  0  0  0  0
 18 24  1  0  0  0  0
 19 27  1  0  0  0  0
 20 21  2  0  0  0  0
 21 23  2  0  0  0  0
 22 20  1  0  0  0  0
 24 22  1  0  0  0  0
 26 28  1  0  0  0  0
 27 26  1  0  0  0  0
 27 24  2  0  0  0  0
 28 25  1  6  0  0  0
 28 20  1  0  0  0  0
 29 19  1  6  0  0  0
 29 30  1  0  0  0  0
 30 18  2  0  0  0  0
 31 33  1  0  0  0  0
 31 13  1  0  0  0  0
 33 32  2  0  0  0  0
 34 33  1  0  0  0  0
M  END
>  <MODEL>
8

>  <REMARK>
 VINA RESULT:      -8.9      4.144      9.682
  Name = 
  3 active torsions:
  status: ('A' for Active; 'I' for Inactive)
    1  A    between atoms: C_13  and  N_25
    2  A    between atoms: N_18  and  C_30
    3  A    between atoms: C_23  and  N_25
                            x       y       z     vdW  Elec       q    Type
                         _______ _______ _______ _____ _____    ______ ____

>  <TORSDO>
F 3

$$$$
=
 OpenBabel10272415263D

 34 39  0  0  1  0  0  0  0  0999 V2000
  188.8750  177.0140  143.5980 C   0  0  2  0  0  3  0  0  0  0  0  0
  189.6030  177.5520  147.2910 C   0  0  0  0  0  3  0  0  0  0  0  0
  187.4350  177.8300  146.0860 C   0  0  0  0  0  2  0  0  0  0  0  0
  187.9990  178.0580  141.0560 C   0  0  0  0  0  2  0  0  0  0  0  0
  189.7920  177.2240  142.3870 C   0  0  0  0  0  2  0  0  0  0  0  0
  187.0050  177.8680  142.1960 C   0  0  2  0  0  3  0  0  0  0  0  0
  184.8740  178.5440  143.2600 C   0  0  0  0  0  2  0  0  0  0  0  0
  185.8700  178.8770  142.1460 C   0  0  0  0  0  2  0  0  0  0  0  0
  189.0430  177.0240  141.1340 N   0  0  2  0  0  0  0  0  0  0  0  0
  186.8480  178.0030  144.7120 C   0  0  0  0  0  0  0  0  0  0  0  0
  187.7580  178.0470  143.5090 C   0  0  1  0  0  3  0  0  0  0  0  0
  185.5470  178.3260  144.5970 C   0  0  0  0  0  3  0  0  0  0  0  0
  190.9610  177.2370  147.3440 C   0  0  0  0  0  0  0  0  0  0  0  0
  191.6070  176.8520  146.1640 C   0  0  0  0  0  3  0  0  0  0  0  0
  188.9080  177.5070  146.0810 C   0  0  0  0  0  0  0  0  0  0  0  0
  190.9230  176.8060  144.9890 N   0  0  0  0  0  0  0  0  0  0  0  0
  189.6050  177.1390  144.9080 C   0  0  0  0  0  0  0  0  0  0  0  0
  192.4100  177.0250  139.6360 C   0  0  0  0  0  3  0  0  0  0  0  0
  189.8300  176.0420  138.9860 C   0  0  0  0  0  2  0  0  0  0  0  0
  192.9550  175.7870  136.0250 C   0  0  0  0  0  0  0  0  0  0  0  0
  193.9310  175.6060  135.1750 C   0  0  0  0  0  0  0  0  0  0  0  0
  193.2730  176.5410  137.2800 C   0  0  0  0  0  2  0  0  0  0  0  0
  194.8550  175.4340  134.3710 O   0  0  0  0  0  0  0  0  0  0  0  0
  192.1450  176.5330  138.2720 C   0  0  0  0  0  0  0  0  0  0  0  0
  191.1890  174.4600  134.3470 S   0  0  0  0  0  1  0  0  0  0  0  0
  190.6260  175.6480  136.6480 O   0  0  0  0  0  0  0  0  0  0  0  0
  190.9090  176.1110  137.9380 C   0  0  0  0  0  0  0  0  0  0  0  0
  191.5250  175.7880  135.5500 C   0  0  1  0  0  3  0  0  0  0  0  0
  189.9640  177.1950  140.0010 C   0  0  2  0  0  3  0  0  0  0  0  0
  191.4000  177.2940  140.4690 C   0  0  0  0  0  3  0  0  0  0  0  0
  191.6350  177.2880  148.6100 N   0  0  0  0  0  2  0  0  0  0  0  0
  193.0950  175.4200  148.4650 C   0  0  0  0  0  2  0  0  0  0  0  0
  192.8320  176.6010  149.0010 C   0  0  0  0  0  0  0  0  0  0  0  0
  193.7540  177.1230  150.0490 C   0  0  0  0  0  1  0  0  0  0  0  0
  1  5  1  6  0  0  0
  1 17  1  0  0  0  0
  2 13  1  0  0  0  0
  6  4  1  6  0  0  0
  6 11  1  0  0  0  0
  7 12  1  0  0  0  0
  8  6  1  0  0  0  0
  8  7  1  0  0  0  0
  9  4  1  6  0  0  0
  9  5  1  0  0  0  0
 10  3  1  0  0  0  0
 11  1  1  0  0  0  0
 11 10  1  1  0  0  0
 12 10  2  0  0  0  0
 13 31  1  0  0  0  0
 14 13  2  0  0  0  0
 15  3  1  0  0  0  0
 15  2  2  0  0  0  0
 16 14  1  0  0  0  0
 17 16  2  0  0  0  0
 17 15  1  0  0  0  0
 18 30  2  0  0  0  0
 20 22  1  0  0  0  0
 21 20  2  0  0  0  0
 22 24  1  0  0  0  0
 23 21  2  0  0  0  0
 24 18  1  0  0  0  0
 26 27  1  0  0  0  0
 27 24  2  0  0  0  0
 27 19  1  0  0  0  0
 28 25  1  6  0  0  0
 28 20  1  0  0  0  0
 28 26  1  0  0  0  0
 29 19  1  6  0  0  0
 29 30  1  0  0  0  0
 29  9  1  0  0  0  0
 31 33  1  0  0  0  0
 32 33  2  0  0  0  0
 33 34  1  0  0  0  0
M  END
>  <MODEL>
9

>  <REMARK>
 VINA RESULT:      -8.8      2.623      6.137
  Name = 
  3 active torsions:
  status: ('A' for Active; 'I' for Inactive)
    1  A    between atoms: C_13  and  N_25
    2  A    between atoms: N_18  and  C_30
    3  A    between atoms: C_23  and  N_25
                            x       y       z     vdW  Elec       q    Type
                         _______ _______ _______ _____ _____    ______ ____

>  <TORSDO>
F 3

$$$$
