=
 OpenBabel10272414043D

 43 49  0  0  1  0  0  0  0  0999 V2000
  186.2200  178.0330  146.5040 C   0  0  0  0  0  0  0  0  0  0  0  0
  185.1840  178.7020  142.1580 C   0  0  0  0  0  0  0  0  0  0  0  0
  187.4490  178.1020  140.6430 C   0  0  0  0  0  0  0  0  0  0  0  0
  184.7560  178.6730  144.2270 C   0  0  0  0  0  0  0  0  0  0  0  0
  188.2630  177.5070  145.1180 C   0  0  0  0  0  1  0  0  0  0  0  0
  186.9080  177.7260  147.6310 F   0  0  0  0  0  0  0  0  0  0  0  0
  186.0740  178.2730  144.1200 C   0  0  0  0  0  0  0  0  0  0  0  0
  184.8730  178.4440  146.6090 C   0  0  0  0  0  3  0  0  0  0  0  0
  186.8420  177.9440  145.2420 C   0  0  0  0  0  0  0  0  0  0  0  0
  187.4980  177.9880  142.0490 C   0  0  0  0  0  3  0  0  0  0  0  0
  186.3480  178.2950  142.7710 C   0  0  0  0  0  0  0  0  0  0  0  0
  184.2340  178.9270  143.0440 O   0  0  0  0  0  0  0  0  0  0  0  0
  185.1050  178.8360  140.7710 C   0  0  0  0  0  0  0  0  0  0  0  0
  186.2500  178.5240  140.0160 C   0  0  0  0  0  3  0  0  0  0  0  0
  184.1240  178.7710  145.4620 C   0  0  0  0  0  3  0  0  0  0  0  0
  188.6040  177.7780  139.8540 N   0  0  0  0  0  0  0  0  0  0  0  0
  188.7990  178.2490  138.4980 C   0  0  0  0  0  2  0  0  0  0  0  0
  189.7160  176.9880  140.3480 C   0  0  0  0  0  2  0  0  0  0  0  0
  190.2010  177.8170  138.1050 C   0  0  1  0  0  3  0  0  0  0  0  0
  190.6760  176.8480  139.1800 C   0  0  0  0  0  2  0  0  0  0  0  0
  190.1930  177.1150  136.7570 C   0  0  0  0  0  2  0  0  0  0  0  0
  190.9980  175.8260  136.8090 C   0  0  2  0  0  3  0  0  0  0  0  0
  191.7760  173.7760  135.1800 S   0  0  0  0  0  0  0  0  0  0  0  0
  192.4290  176.0870  136.3990 C   0  0  0  0  0  2  0  0  0  0  0  0
  190.4280  174.8190  135.8270 C   0  0  1  0  0  3  0  0  0  0  0  0
  193.0330  174.7430  136.0670 C   0  0  0  0  0  2  0  0  0  0  0  0
  187.9880  174.1300  136.0900 N   0  0  0  0  0  0  0  0  0  0  0  0
  189.3620  173.9930  136.4840 C   0  0  0  0  0  0  0  0  0  0  0  0
  185.8400  174.2890  137.2380 C   0  0  0  0  0  2  0  0  0  0  0  0
  186.5000  175.9690  135.4980 C   0  0  0  0  0  2  0  0  0  0  0  0
  185.3450  175.1600  136.0850 C   0  0  0  0  0  2  0  0  0  0  0  0
  187.5950  175.0280  135.0070 C   0  0  0  0  0  2  0  0  0  0  0  0
  186.9440  173.3530  136.7520 C   0  0  0  0  0  2  0  0  0  0  0  0
  189.6700  173.2160  137.4290 O   0  0  0  0  0  0  0  0  0  0  0  0
  183.8350  179.2490  140.1020 C   0  0  0  0  0  2  0  0  0  0  0  0
  182.3670  175.8640  139.2280 C   0  0  0  0  0  3  0  0  0  0  0  0
  182.2070  175.9770  137.8420 C   0  0  0  0  0  0  0  0  0  0  0  0
  183.1030  178.2320  137.9360 C   0  0  0  0  0  3  0  0  0  0  0  0
  182.8910  176.9310  139.9660 C   0  0  0  0  0  3  0  0  0  0  0  0
  183.2570  178.1180  139.3220 C   0  0  0  0  0  0  0  0  0  0  0  0
  182.5770  177.1690  137.1980 C   0  0  0  0  0  3  0  0  0  0  0  0
  182.1550  173.6170  137.1590 C   0  0  0  0  0  2  0  0  0  0  0  0
  181.6440  174.8420  137.0980 C   0  0  0  0  0  3  0  0  0  0  0  0
  1  8  1  0  0  0  0
  1  6  1  0  0  0  0
  2 11  1  0  0  0  0
  2 12  1  0  0  0  0
  3 10  1  0  0  0  0
  4 15  1  0  0  0  0
  5  9  1  0  0  0  0
  7  4  2  0  0  0  0
  7  9  1  0  0  0  0
  9  1  2  0  0  0  0
 10 11  2  0  0  0  0
 11  7  1  0  0  0  0
 12  4  1  0  0  0  0
 13  2  2  0  0  0  0
 14  3  2  0  0  0  0
 14 13  1  0  0  0  0
 15  8  2  0  0  0  0
 16 18  1  0  0  0  0
 16  3  1  0  0  0  0
 17 16  1  0  0  0  0
 19 21  1  6  0  0  0
 19 17  1  0  0  0  0
 19 20  1  0  0  0  0
 20 18  1  0  0  0  0
 22 21  1  6  0  0  0
 23 25  1  0  0  0  0
 23 26  1  0  0  0  0
 24 22  1  0  0  0  0
 25 28  1  1  0  0  0
 25 22  1  0  0  0  0
 26 24  1  0  0  0  0
 27 28  1  0  0  0  0
 27 33  1  0  0  0  0
 28 34  2  0  0  0  0
 30 31  1  0  0  0  0
 31 29  1  0  0  0  0
 32 30  1  0  0  0  0
 32 27  1  0  0  0  0
 33 29  1  0  0  0  0
 35 13  1  0  0  0  0
 36 39  1  0  0  0  0
 37 36  2  0  0  0  0
 38 40  1  0  0  0  0
 40 39  2  0  0  0  0
 40 35  1  0  0  0  0
 41 37  1  0  0  0  0
 41 38  2  0  0  0  0
 43 42  2  0  0  0  0
 43 37  1  0  0  0  0
M  END
>  <MODEL>
1

>  <REMARK>
 VINA RESULT:      -9.1      0.000      0.000
  Name = 
  7 active torsions:
  status: ('A' for Active; 'I' for Inactive)
    1  A    between atoms: C_1  and  C_34
    2  A    between atoms: C_1  and  C_35
    3  A    between atoms: N_2  and  C_13
    4  A    between atoms: C_3  and  C_4
    5  A    between atoms: C_3  and  C_12
    6  A    between atoms: C_14  and  C_22
    7  A    between atoms: C_19  and  C_37
                            x       y       z     vdW  Elec       q    Type
                         _______ _______ _______ _____ _____    ______ ____

>  <TORSDO>
F 7

$$$$
=
 OpenBabel10272414043D

 43 49  0  0  1  0  0  0  0  0999 V2000
  189.4400  177.3090  147.3410 C   0  0  0  0  0  0  0  0  0  0  0  0
  186.7720  178.1090  143.7840 C   0  0  0  0  0  0  0  0  0  0  0  0
  188.2860  177.6950  141.4770 C   0  0  0  0  0  0  0  0  0  0  0  0
  187.1850  177.9680  145.8520 C   0  0  0  0  0  0  0  0  0  0  0  0
  190.7970  176.9510  145.2440 C   0  0  0  0  0  1  0  0  0  0  0  0
  190.5230  176.9890  148.0930 F   0  0  0  0  0  0  0  0  0  0  0  0
  188.3690  177.6430  145.2190 C   0  0  0  0  0  0  0  0  0  0  0  0
  188.2270  177.6430  147.9840 C   0  0  0  0  0  3  0  0  0  0  0  0
  189.5230  177.3070  145.9340 C   0  0  0  0  0  0  0  0  0  0  0  0
  188.8820  177.5230  142.7450 C   0  0  0  0  0  3  0  0  0  0  0  0
  188.0950  177.7380  143.8730 C   0  0  0  0  0  0  0  0  0  0  0  0
  186.2360  178.2440  144.9810 O   0  0  0  0  0  0  0  0  0  0  0  0
  186.1550  178.2980  142.5480 C   0  0  0  0  0  0  0  0  0  0  0  0
  186.9240  178.0800  141.3900 C   0  0  0  0  0  3  0  0  0  0  0  0
  187.0820  177.9790  147.2390 C   0  0  0  0  0  3  0  0  0  0  0  0
  189.0520  177.4670  140.2850 N   0  0  0  0  0  0  0  0  0  0  0  0
  188.6900  178.0100  138.9910 C   0  0  0  0  0  2  0  0  0  0  0  0
  190.2910  176.7130  140.2600 C   0  0  0  0  0  2  0  0  0  0  0  0
  189.8410  177.6680  138.0600 C   0  0  1  0  0  3  0  0  0  0  0  0
  190.7250  176.6760  138.8050 C   0  0  0  0  0  2  0  0  0  0  0  0
  189.3300  177.0290  136.7790 C   0  0  0  0  0  2  0  0  0  0  0  0
  190.1590  175.8090  136.4110 C   0  0  2  0  0  3  0  0  0  0  0  0
  190.4330  173.9970  134.3840 S   0  0  0  0  0  0  0  0  0  0  0  0
  191.3590  176.2210  135.5900 C   0  0  0  0  0  2  0  0  0  0  0  0
  189.3350  174.8630  135.5560 C   0  0  1  0  0  3  0  0  0  0  0  0
  191.8730  174.9680  134.9210 C   0  0  0  0  0  2  0  0  0  0  0  0
  187.1680  173.7220  136.2620 N   0  0  0  0  0  0  0  0  0  0  0  0
  188.5850  173.8940  136.4210 C   0  0  0  0  0  0  0  0  0  0  0  0
  185.2440  173.5380  137.7520 C   0  0  0  0  0  2  0  0  0  0  0  0
  185.2520  175.1740  135.8530 C   0  0  0  0  0  2  0  0  0  0  0  0
  184.4010  174.1990  136.6640 C   0  0  0  0  0  2  0  0  0  0  0  0
  186.4290  174.4350  135.2240 C   0  0  0  0  0  2  0  0  0  0  0  0
  186.4290  172.8070  137.1270 C   0  0  0  0  0  2  0  0  0  0  0  0
  189.1950  173.2710  137.3330 O   0  0  0  0  0  0  0  0  0  0  0  0
  184.7120  178.6720  142.4480 C   0  0  0  0  0  2  0  0  0  0  0  0
  182.9480  177.0760  139.4960 C   0  0  0  0  0  3  0  0  0  0  0  0
  183.2670  177.9660  138.4630 C   0  0  0  0  0  0  0  0  0  0  0  0
  184.5230  179.3220  140.0390 C   0  0  0  0  0  3  0  0  0  0  0  0
  183.4130  177.3070  140.7950 C   0  0  0  0  0  3  0  0  0  0  0  0
  184.1980  178.4330  141.0690 C   0  0  0  0  0  0  0  0  0  0  0  0
  184.0570  179.0930  138.7430 C   0  0  0  0  0  3  0  0  0  0  0  0
  181.7380  176.8750  136.8790 C   0  0  0  0  0  2  0  0  0  0  0  0
  182.7540  177.6980  137.1130 C   0  0  0  0  0  3  0  0  0  0  0  0
  1  8  1  0  0  0  0
  1  6  1  0  0  0  0
  2 11  1  0  0  0  0
  2 12  1  0  0  0  0
  3 10  1  0  0  0  0
  4 15  1  0  0  0  0
  5  9  1  0  0  0  0
  7  4  2  0  0  0  0
  7  9  1  0  0  0  0
  9  1  2  0  0  0  0
 10 11  2  0  0  0  0
 11  7  1  0  0  0  0
 12  4  1  0  0  0  0
 13  2  2  0  0  0  0
 14  3  2  0  0  0  0
 14 13  1  0  0  0  0
 15  8  2  0  0  0  0
 16  3  1  0  0  0  0
 17 16  1  0  0  0  0
 18 16  1  0  0  0  0
 19 21  1  6  0  0  0
 19 20  1  0  0  0  0
 19 17  1  0  0  0  0
 20 18  1  0  0  0  0
 22 21  1  6  0  0  0
 23 26  1  0  0  0  0
 23 25  1  0  0  0  0
 24 22  1  0  0  0  0
 25 22  1  0  0  0  0
 25 28  1  1  0  0  0
 26 24  1  0  0  0  0
 27 28  1  0  0  0  0
 27 33  1  0  0  0  0
 28 34  2  0  0  0  0
 30 31  1  0  0  0  0
 31 29  1  0  0  0  0
 32 30  1  0  0  0  0
 32 27  1  0  0  0  0
 33 29  1  0  0  0  0
 35 13  1  0  0  0  0
 36 39  1  0  0  0  0
 37 41  1  0  0  0  0
 37 36  2  0  0  0  0
 38 40  1  0  0  0  0
 39 40  2  0  0  0  0
 40 35  1  0  0  0  0
 41 38  2  0  0  0  0
 42 43  2  0  0  0  0
 43 37  1  0  0  0  0
M  END
>  <MODEL>
2

>  <REMARK>
 VINA RESULT:      -9.0      1.391      2.094
  Name = 
  7 active torsions:
  status: ('A' for Active; 'I' for Inactive)
    1  A    between atoms: C_1  and  C_34
    2  A    between atoms: C_1  and  C_35
    3  A    between atoms: N_2  and  C_13
    4  A    between atoms: C_3  and  C_4
    5  A    between atoms: C_3  and  C_12
    6  A    between atoms: C_14  and  C_22
    7  A    between atoms: C_19  and  C_37
                            x       y       z     vdW  Elec       q    Type
                         _______ _______ _______ _____ _____    ______ ____

>  <TORSDO>
F 7

$$$$
=
 OpenBabel10272414043D

 43 49  0  0  1  0  0  0  0  0999 V2000
  190.1080  177.2210  147.4310 C   0  0  0  0  0  0  0  0  0  0  0  0
  187.1250  177.9880  144.1260 C   0  0  0  0  0  0  0  0  0  0  0  0
  188.4630  177.7080  141.6930 C   0  0  0  0  0  0  0  0  0  0  0  0
  187.7120  177.8120  146.1480 C   0  0  0  0  0  0  0  0  0  0  0  0
  191.3040  176.9850  145.2210 C   0  0  0  0  0  1  0  0  0  0  0  0
  191.2630  176.9330  148.0830 F   0  0  0  0  0  0  0  0  0  0  0  0
  188.8540  177.5600  145.4120 C   0  0  0  0  0  0  0  0  0  0  0  0
  188.9390  177.4800  148.1790 C   0  0  0  0  0  3  0  0  0  0  0  0
  190.0770  177.2610  146.0210 C   0  0  0  0  0  0  0  0  0  0  0  0
  189.1680  177.5310  142.9030 C   0  0  0  0  0  3  0  0  0  0  0  0
  188.4670  177.6790  144.0960 C   0  0  0  0  0  0  0  0  0  0  0  0
  186.6830  178.0660  145.3650 O   0  0  0  0  0  0  0  0  0  0  0  0
  186.4010  178.1810  142.9490 C   0  0  0  0  0  0  0  0  0  0  0  0
  187.0820  178.0300  141.7280 C   0  0  0  0  0  3  0  0  0  0  0  0
  187.7220  177.7810  147.5390 C   0  0  0  0  0  3  0  0  0  0  0  0
  189.1380  177.5480  140.4360 N   0  0  0  0  0  0  0  0  0  0  0  0
  190.0900  176.4880  140.1740 C   0  0  0  0  0  2  0  0  0  0  0  0
  188.9000  178.3980  139.2850 C   0  0  0  0  0  2  0  0  0  0  0  0
  190.4290  176.5910  138.6960 C   0  0  1  0  0  3  0  0  0  0  0  0
  189.8530  177.9130  138.2070 C   0  0  0  0  0  2  0  0  0  0  0  0
  191.9340  176.5850  138.4860 C   0  0  0  0  0  2  0  0  0  0  0  0
  192.3970  175.2620  137.8950 C   0  0  2  0  0  3  0  0  0  0  0  0
  193.0940  174.1720  135.4890 S   0  0  0  0  0  0  0  0  0  0  0  0
  193.9050  175.2140  137.8360 C   0  0  0  0  0  2  0  0  0  0  0  0
  191.8880  175.1250  136.4710 C   0  0  1  0  0  3  0  0  0  0  0  0
  194.2640  174.1030  136.8780 C   0  0  0  0  0  2  0  0  0  0  0  0
  189.4980  174.9740  135.5990 N   0  0  0  0  0  0  0  0  0  0  0  0
  190.5350  174.4760  136.4580 C   0  0  0  0  0  0  0  0  0  0  0  0
  187.1150  175.4500  135.8190 C   0  0  0  0  0  2  0  0  0  0  0  0
  188.6930  177.1650  134.8940 C   0  0  0  0  0  2  0  0  0  0  0  0
  187.2930  176.5630  134.7880 C   0  0  0  0  0  2  0  0  0  0  0  0
  189.7420  176.0790  134.6760 C   0  0  0  0  0  2  0  0  0  0  0  0
  188.1700  174.3680  135.6100 C   0  0  0  0  0  2  0  0  0  0  0  0
  190.2930  173.5250  137.2510 O   0  0  0  0  0  0  0  0  0  0  0  0
  184.9400  178.4890  142.9780 C   0  0  0  0  0  2  0  0  0  0  0  0
  184.3640  179.1130  139.2820 C   0  0  0  0  0  3  0  0  0  0  0  0
  183.2350  178.3230  139.0370 C   0  0  0  0  0  0  0  0  0  0  0  0
  183.2280  177.6340  141.3660 C   0  0  0  0  0  3  0  0  0  0  0  0
  184.9240  179.1640  140.5640 C   0  0  0  0  0  3  0  0  0  0  0  0
  184.3590  178.4210  141.6070 C   0  0  0  0  0  0  0  0  0  0  0  0
  182.6700  177.5800  140.0860 C   0  0  0  0  0  3  0  0  0  0  0  0
  183.1790  177.5160  136.7160 C   0  0  0  0  0  2  0  0  0  0  0  0
  182.6780  178.2850  137.6770 C   0  0  0  0  0  3  0  0  0  0  0  0
  1  6  1  0  0  0  0
  1  8  1  0  0  0  0
  2 12  1  0  0  0  0
  3 14  2  0  0  0  0
  3 10  1  0  0  0  0
  4 15  1  0  0  0  0
  5  9  1  0  0  0  0
  7  9  1  0  0  0  0
  7  4  2  0  0  0  0
  9  1  2  0  0  0  0
 10 11  2  0  0  0  0
 11  2  1  0  0  0  0
 11  7  1  0  0  0  0
 12  4  1  0  0  0  0
 13 35  1  0  0  0  0
 13  2  2  0  0  0  0
 14 13  1  0  0  0  0
 15  8  2  0  0  0  0
 16  3  1  0  0  0  0
 17 16  1  0  0  0  0
 18 16  1  0  0  0  0
 19 21  1  1  0  0  0
 19 17  1  0  0  0  0
 20 19  1  0  0  0  0
 20 18  1  0  0  0  0
 22 21  1  6  0  0  0
 23 25  1  0  0  0  0
 23 26  1  0  0  0  0
 24 22  1  0  0  0  0
 25 28  1  1  0  0  0
 25 22  1  0  0  0  0
 26 24  1  0  0  0  0
 27 33  1  0  0  0  0
 27 28  1  0  0  0  0
 28 34  2  0  0  0  0
 31 30  1  0  0  0  0
 31 29  1  0  0  0  0
 32 30  1  0  0  0  0
 32 27  1  0  0  0  0
 33 29  1  0  0  0  0
 36 39  1  0  0  0  0
 37 36  2  0  0  0  0
 37 41  1  0  0  0  0
 38 40  1  0  0  0  0
 39 40  2  0  0  0  0
 40 35  1  0  0  0  0
 41 38  2  0  0  0  0
 42 43  2  0  0  0  0
 43 37  1  0  0  0  0
M  END
>  <MODEL>
3

>  <REMARK>
 VINA RESULT:      -8.9      1.724      2.788
  Name = 
  7 active torsions:
  status: ('A' for Active; 'I' for Inactive)
    1  A    between atoms: C_1  and  C_34
    2  A    between atoms: C_1  and  C_35
    3  A    between atoms: N_2  and  C_13
    4  A    between atoms: C_3  and  C_4
    5  A    between atoms: C_3  and  C_12
    6  A    between atoms: C_14  and  C_22
    7  A    between atoms: C_19  and  C_37
                            x       y       z     vdW  Elec       q    Type
                         _______ _______ _______ _____ _____    ______ ____

>  <TORSDO>
F 7

$$$$
=
 OpenBabel10272414043D

 43 49  0  0  1  0  0  0  0  0999 V2000
  188.0880  177.5310  147.3030 C   0  0  0  0  0  0  0  0  0  0  0  0
  188.7320  177.6690  142.8330 C   0  0  0  0  0  0  0  0  0  0  0  0
  186.2620  178.1630  141.6340 C   0  0  0  0  0  0  0  0  0  0  0  0
  189.3700  177.4500  144.8360 C   0  0  0  0  0  0  0  0  0  0  0  0
  185.8600  177.9660  146.2000 C   0  0  0  0  0  1  0  0  0  0  0  0
  187.4900  177.5680  148.5200 F   0  0  0  0  0  0  0  0  0  0  0  0
  188.0080  177.6720  144.9070 C   0  0  0  0  0  0  0  0  0  0  0  0
  189.4790  177.3030  147.2250 C   0  0  0  0  0  3  0  0  0  0  0  0
  187.3290  177.7190  146.1290 C   0  0  0  0  0  0  0  0  0  0  0  0
  186.3490  178.0590  143.0390 C   0  0  0  0  0  3  0  0  0  0  0  0
  187.5980  177.8120  143.6010 C   0  0  0  0  0  0  0  0  0  0  0  0
  189.7910  177.4500  143.5870 O   0  0  0  0  0  0  0  0  0  0  0  0
  188.6800  177.7550  141.4420 C   0  0  0  0  0  0  0  0  0  0  0  0
  187.4310  178.0120  140.8470 C   0  0  0  0  0  3  0  0  0  0  0  0
  190.1370  177.2580  145.9810 C   0  0  0  0  0  3  0  0  0  0  0  0
  184.9980  178.4360  141.0090 N   0  0  0  0  0  0  0  0  0  0  0  0
  183.8000  177.6630  141.2660 C   0  0  0  0  0  2  0  0  0  0  0  0
  184.7780  179.5410  140.0960 C   0  0  0  0  0  2  0  0  0  0  0  0
  182.6770  178.3830  140.5390 C   0  0  1  0  0  3  0  0  0  0  0  0
  183.3350  179.4210  139.6390 C   0  0  0  0  0  2  0  0  0  0  0  0
  181.8730  177.4120  139.6900 C   0  0  0  0  0  2  0  0  0  0  0  0
  181.8440  177.8560  138.2360 C   0  0  2  0  0  3  0  0  0  0  0  0
  181.1920  176.8900  135.7640 S   0  0  0  0  0  0  0  0  0  0  0  0
  180.4780  178.3950  137.8810 C   0  0  0  0  0  2  0  0  0  0  0  0
  182.1060  176.6680  137.3270 C   0  0  1  0  0  3  0  0  0  0  0  0
  180.3990  178.4080  136.3730 C   0  0  0  0  0  2  0  0  0  0  0  0
  184.1200  175.2340  136.7100 N   0  0  0  0  0  0  0  0  0  0  0  0
  183.5780  176.5090  137.0840 C   0  0  0  0  0  0  0  0  0  0  0  0
  186.0600  173.8970  137.3470 C   0  0  0  0  0  2  0  0  0  0  0  0
  183.7560  172.9080  137.3490 C   0  0  0  0  0  2  0  0  0  0  0  0
  185.2320  172.6470  137.0560 C   0  0  0  0  0  2  0  0  0  0  0  0
  183.2570  174.0740  136.5000 C   0  0  0  0  0  2  0  0  0  0  0  0
  185.5570  175.0670  136.5080 C   0  0  0  0  0  2  0  0  0  0  0  0
  184.3490  177.4910  137.2660 O   0  0  0  0  0  0  0  0  0  0  0  0
  189.9130  177.6280  140.6090 C   0  0  0  0  0  2  0  0  0  0  0  0
  188.9720  178.7540  137.1120 C   0  0  0  0  0  3  0  0  0  0  0  0
  188.8840  177.5310  136.4380 C   0  0  0  0  0  0  0  0  0  0  0  0
  189.4780  176.3730  138.4880 C   0  0  0  0  0  3  0  0  0  0  0  0
  189.3120  178.7880  138.4690 C   0  0  0  0  0  3  0  0  0  0  0  0
  189.5700  177.5980  139.1580 C   0  0  0  0  0  0  0  0  0  0  0  0
  189.1410  176.3380  137.1330 C   0  0  0  0  0  3  0  0  0  0  0  0
  187.2840  177.6600  134.5770 C   0  0  0  0  0  2  0  0  0  0  0  0
  188.5330  177.5320  135.0110 C   0  0  0  0  0  3  0  0  0  0  0  0
  1  6  1  0  0  0  0
  2 12  1  0  0  0  0
  2 11  1  0  0  0  0
  3 10  1  0  0  0  0
  4  7  2  0  0  0  0
  4 15  1  0  0  0  0
  7  9  1  0  0  0  0
  8  1  1  0  0  0  0
  9  5  1  0  0  0  0
  9  1  2  0  0  0  0
 10 11  2  0  0  0  0
 11  7  1  0  0  0  0
 12  4  1  0  0  0  0
 13  2  2  0  0  0  0
 14 13  1  0  0  0  0
 14  3  2  0  0  0  0
 15  8  2  0  0  0  0
 16 17  1  0  0  0  0
 16  3  1  0  0  0  0
 18 16  1  0  0  0  0
 19 21  1  6  0  0  0
 19 17  1  0  0  0  0
 20 18  1  0  0  0  0
 20 19  1  0  0  0  0
 22 21  1  1  0  0  0
 23 26  1  0  0  0  0
 23 25  1  0  0  0  0
 24 22  1  0  0  0  0
 25 28  1  6  0  0  0
 25 22  1  0  0  0  0
 26 24  1  0  0  0  0
 27 28  1  0  0  0  0
 28 34  2  0  0  0  0
 31 29  1  0  0  0  0
 31 30  1  0  0  0  0
 32 27  1  0  0  0  0
 32 30  1  0  0  0  0
 33 27  1  0  0  0  0
 33 29  1  0  0  0  0
 35 13  1  0  0  0  0
 36 39  1  0  0  0  0
 37 36  2  0  0  0  0
 37 41  1  0  0  0  0
 38 40  1  0  0  0  0
 39 40  2  0  0  0  0
 40 35  1  0  0  0  0
 41 38  2  0  0  0  0
 42 43  2  0  0  0  0
 43 37  1  0  0  0  0
M  END
>  <MODEL>
4

>  <REMARK>
 VINA RESULT:      -8.3      2.778      6.199
  Name = 
  7 active torsions:
  status: ('A' for Active; 'I' for Inactive)
    1  A    between atoms: C_1  and  C_34
    2  A    between atoms: C_1  and  C_35
    3  A    between atoms: N_2  and  C_13
    4  A    between atoms: C_3  and  C_4
    5  A    between atoms: C_3  and  C_12
    6  A    between atoms: C_14  and  C_22
    7  A    between atoms: C_19  and  C_37
                            x       y       z     vdW  Elec       q    Type
                         _______ _______ _______ _____ _____    ______ ____

>  <TORSDO>
F 7

$$$$
=
 OpenBabel10272414043D

 43 49  0  0  1  0  0  0  0  0999 V2000
  190.4110  176.9250  146.1510 C   0  0  0  0  0  0  0  0  0  0  0  0
  188.7960  178.1260  142.1060 C   0  0  0  0  0  0  0  0  0  0  0  0
  186.0260  178.3740  142.3380 C   0  0  0  0  0  0  0  0  0  0  0  0
  190.3380  177.6170  143.4580 C   0  0  0  0  0  0  0  0  0  0  0  0
  187.9040  177.1420  146.3380 C   0  0  0  0  0  1  0  0  0  0  0  0
  190.4770  176.5870  147.4630 F   0  0  0  0  0  0  0  0  0  0  0  0
  189.1700  177.5510  144.1930 C   0  0  0  0  0  0  0  0  0  0  0  0
  191.6020  176.9920  145.3950 C   0  0  0  0  0  3  0  0  0  0  0  0
  189.1670  177.2050  145.5480 C   0  0  0  0  0  0  0  0  0  0  0  0
  186.7910  177.9940  143.4620 C   0  0  0  0  0  3  0  0  0  0  0  0
  188.1690  177.8810  143.3080 C   0  0  0  0  0  0  0  0  0  0  0  0
  190.1000  177.9630  142.2090 O   0  0  0  0  0  0  0  0  0  0  0  0
  188.0690  178.4930  140.9730 C   0  0  0  0  0  0  0  0  0  0  0  0
  186.6750  178.6230  141.1020 C   0  0  0  0  0  3  0  0  0  0  0  0
  191.5750  177.3400  144.0310 C   0  0  0  0  0  3  0  0  0  0  0  0
  184.6030  178.5220  142.4520 N   0  0  0  0  0  0  0  0  0  0  0  0
  183.6910  178.3220  141.3440 C   0  0  0  0  0  2  0  0  0  0  0  0
  183.9270  178.8380  143.6960 C   0  0  0  0  0  2  0  0  0  0  0  0
  182.2940  178.4150  141.9330 C   0  0  1  0  0  3  0  0  0  0  0  0
  182.4530  178.9510  143.3500 C   0  0  0  0  0  2  0  0  0  0  0  0
  181.4280  179.3670  141.1250 C   0  0  0  0  0  2  0  0  0  0  0  0
  181.7310  179.2510  139.6390 C   0  0  2  0  0  3  0  0  0  0  0  0
  180.4410  178.8510  137.2640 S   0  0  0  0  0  0  0  0  0  0  0  0
  181.5820  180.5970  138.9690 C   0  0  0  0  0  2  0  0  0  0  0  0
  180.7380  178.3110  138.9810 C   0  0  1  0  0  3  0  0  0  0  0  0
  181.4760  180.3290  137.4860 C   0  0  0  0  0  2  0  0  0  0  0  0
  182.5060  176.5550  138.4460 N   0  0  0  0  0  0  0  0  0  0  0  0
  181.2410  176.8980  139.0310 C   0  0  0  0  0  0  0  0  0  0  0  0
  183.3600  174.7460  137.0470 C   0  0  0  0  0  2  0  0  0  0  0  0
  183.7300  177.1460  136.4220 C   0  0  0  0  0  2  0  0  0  0  0  0
  184.3420  175.7470  136.4410 C   0  0  0  0  0  2  0  0  0  0  0  0
  183.3630  177.5700  137.8400 C   0  0  0  0  0  2  0  0  0  0  0  0
  182.9820  175.1740  138.4620 C   0  0  0  0  0  2  0  0  0  0  0  0
  180.5180  175.9980  139.5400 O   0  0  0  0  0  0  0  0  0  0  0  0
  188.7490  178.7860  139.6760 C   0  0  0  0  0  2  0  0  0  0  0  0
  187.9090  175.9190  137.3410 C   0  0  0  0  0  3  0  0  0  0  0  0
  189.1080  175.1970  137.3410 C   0  0  0  0  0  0  0  0  0  0  0  0
  190.0740  176.8270  138.8600 C   0  0  0  0  0  3  0  0  0  0  0  0
  187.7920  177.0910  138.0960 C   0  0  0  0  0  3  0  0  0  0  0  0
  188.8760  177.5490  138.8540 C   0  0  0  0  0  0  0  0  0  0  0  0
  190.1930  175.6590  138.1040 C   0  0  0  0  0  3  0  0  0  0  0  0
  188.4490  172.9030  136.7550 C   0  0  0  0  0  2  0  0  0  0  0  0
  189.2000  173.9760  136.5290 C   0  0  0  0  0  3  0  0  0  0  0  0
  1  6  1  0  0  0  0
  2 12  1  0  0  0  0
  2 11  1  0  0  0  0
  3 16  1  0  0  0  0
  3 10  1  0  0  0  0
  4 15  2  0  0  0  0
  4  7  1  0  0  0  0
  7  9  2  0  0  0  0
  8  1  2  0  0  0  0
  9  1  1  0  0  0  0
  9  5  1  0  0  0  0
 11 10  2  0  0  0  0
 11  7  1  0  0  0  0
 12  4  1  0  0  0  0
 13 14  1  0  0  0  0
 13  2  2  0  0  0  0
 14  3  2  0  0  0  0
 15  8  1  0  0  0  0
 16 18  1  0  0  0  0
 17 19  1  0  0  0  0
 17 16  1  0  0  0  0
 19 21  1  6  0  0  0
 19 20  1  0  0  0  0
 20 18  1  0  0  0  0
 22 21  1  1  0  0  0
 23 26  1  0  0  0  0
 23 25  1  0  0  0  0
 24 22  1  0  0  0  0
 25 28  1  6  0  0  0
 25 22  1  0  0  0  0
 26 24  1  0  0  0  0
 27 33  1  0  0  0  0
 27 28  1  0  0  0  0
 28 34  2  0  0  0  0
 29 33  1  0  0  0  0
 30 31  1  0  0  0  0
 30 32  1  0  0  0  0
 31 29  1  0  0  0  0
 32 27  1  0  0  0  0
 35 13  1  0  0  0  0
 36 39  1  0  0  0  0
 37 36  2  0  0  0  0
 37 41  1  0  0  0  0
 39 40  2  0  0  0  0
 40 38  1  0  0  0  0
 40 35  1  0  0  0  0
 41 38  2  0  0  0  0
 43 42  2  0  0  0  0
 43 37  1  0  0  0  0
M  END
>  <MODEL>
5

>  <REMARK>
 VINA RESULT:      -8.2      3.168      6.815
  Name = 
  7 active torsions:
  status: ('A' for Active; 'I' for Inactive)
    1  A    between atoms: C_1  and  C_34
    2  A    between atoms: C_1  and  C_35
    3  A    between atoms: N_2  and  C_13
    4  A    between atoms: C_3  and  C_4
    5  A    between atoms: C_3  and  C_12
    6  A    between atoms: C_14  and  C_22
    7  A    between atoms: C_19  and  C_37
                            x       y       z     vdW  Elec       q    Type
                         _______ _______ _______ _____ _____    ______ ____

>  <TORSDO>
F 7

$$$$
=
 OpenBabel10272414043D

 43 49  0  0  1  0  0  0  0  0999 V2000
  190.9860  176.7350  146.0780 C   0  0  0  0  0  0  0  0  0  0  0  0
  187.3290  177.9240  143.7080 C   0  0  0  0  0  0  0  0  0  0  0  0
  188.0280  177.9150  141.0060 C   0  0  0  0  0  0  0  0  0  0  0  0
  188.3780  177.5040  145.4930 C   0  0  0  0  0  0  0  0  0  0  0  0
  191.6030  176.7450  143.6310 C   0  0  0  0  0  1  0  0  0  0  0  0
  192.2500  176.3580  146.3930 F   0  0  0  0  0  0  0  0  0  0  0  0
  189.2970  177.3260  144.4770 C   0  0  0  0  0  0  0  0  0  0  0  0
  190.0430  176.9200  147.1130 C   0  0  0  0  0  3  0  0  0  0  0  0
  190.6170  176.9410  144.7330 C   0  0  0  0  0  0  0  0  0  0  0  0
  188.9960  177.5880  141.9800 C   0  0  0  0  0  3  0  0  0  0  0  0
  188.6100  177.6030  143.3170 C   0  0  0  0  0  0  0  0  0  0  0  0
  187.2020  177.8620  145.0180 O   0  0  0  0  0  0  0  0  0  0  0  0
  186.3510  178.2630  142.7720 C   0  0  0  0  0  0  0  0  0  0  0  0
  186.7110  178.2480  141.4120 C   0  0  0  0  0  3  0  0  0  0  0  0
  188.7210  177.3100  146.8270 C   0  0  0  0  0  3  0  0  0  0  0  0
  188.3730  177.8950  139.6130 N   0  0  0  0  0  0  0  0  0  0  0  0
  187.3960  177.7480  138.5530 C   0  0  0  0  0  2  0  0  0  0  0  0
  189.7260  178.0690  139.1200 C   0  0  0  0  0  2  0  0  0  0  0  0
  188.1590  177.9440  137.2540 C   0  0  1  0  0  3  0  0  0  0  0  0
  189.6390  177.9250  137.6110 C   0  0  0  0  0  2  0  0  0  0  0  0
  187.8580  176.8210  136.2760 C   0  0  0  0  0  2  0  0  0  0  0  0
  188.1540  175.4640  136.8960 C   0  0  2  0  0  3  0  0  0  0  0  0
  188.2970  172.8270  136.1960 S   0  0  0  0  0  0  0  0  0  0  0  0
  189.6140  175.1170  136.7230 C   0  0  0  0  0  2  0  0  0  0  0  0
  187.3510  174.3860  136.1910 C   0  0  1  0  0  3  0  0  0  0  0  0
  189.7350  173.6310  136.9650 C   0  0  0  0  0  2  0  0  0  0  0  0
  184.8500  174.8640  136.3070 N   0  0  0  0  0  0  0  0  0  0  0  0
  186.0120  174.2170  136.8470 C   0  0  0  0  0  0  0  0  0  0  0  0
  182.9580  176.1140  137.2100 C   0  0  0  0  0  2  0  0  0  0  0  0
  184.3370  177.0390  135.3310 C   0  0  0  0  0  2  0  0  0  0  0  0
  182.9290  176.9120  135.9080 C   0  0  0  0  0  2  0  0  0  0  0  0
  184.9220  175.6530  135.0800 C   0  0  0  0  0  2  0  0  0  0  0  0
  183.5520  174.7300  136.9630 C   0  0  0  0  0  2  0  0  0  0  0  0
  185.9210  173.5490  137.9130 O   0  0  0  0  0  0  0  0  0  0  0  0
  184.9540  178.5850  143.1900 C   0  0  0  0  0  2  0  0  0  0  0  0
  181.8880  178.5310  140.9590 C   0  0  0  0  0  3  0  0  0  0  0  0
  182.4150  178.9920  139.7470 C   0  0  0  0  0  0  0  0  0  0  0  0
  184.5990  179.1960  140.7900 C   0  0  0  0  0  3  0  0  0  0  0  0
  182.7120  178.4030  142.0830 C   0  0  0  0  0  3  0  0  0  0  0  0
  184.0680  178.7390  142.0010 C   0  0  0  0  0  0  0  0  0  0  0  0
  183.7770  179.3270  139.6680 C   0  0  0  0  0  3  0  0  0  0  0  0
  181.6190  180.1190  137.7130 C   0  0  0  0  0  2  0  0  0  0  0  0
  181.5200  179.1240  138.5890 C   0  0  0  0  0  3  0  0  0  0  0  0
  1  6  1  0  0  0  0
  1  8  1  0  0  0  0
  2 12  1  0  0  0  0
  3 14  2  0  0  0  0
  3 10  1  0  0  0  0
  4 15  1  0  0  0  0
  5  9  1  0  0  0  0
  7  9  1  0  0  0  0
  7  4  2  0  0  0  0
  9  1  2  0  0  0  0
 10 11  2  0  0  0  0
 11  2  1  0  0  0  0
 11  7  1  0  0  0  0
 12  4  1  0  0  0  0
 13 35  1  0  0  0  0
 13  2  2  0  0  0  0
 14 13  1  0  0  0  0
 15  8  2  0  0  0  0
 16  3  1  0  0  0  0
 17 16  1  0  0  0  0
 18 16  1  0  0  0  0
 19 21  1  6  0  0  0
 19 20  1  0  0  0  0
 19 17  1  0  0  0  0
 20 18  1  0  0  0  0
 22 21  1  6  0  0  0
 23 26  1  0  0  0  0
 24 22  1  0  0  0  0
 24 26  1  0  0  0  0
 25 23  1  0  0  0  0
 25 28  1  1  0  0  0
 25 22  1  0  0  0  0
 27 28  1  0  0  0  0
 27 33  1  0  0  0  0
 28 34  2  0  0  0  0
 30 31  1  0  0  0  0
 31 29  1  0  0  0  0
 32 30  1  0  0  0  0
 32 27  1  0  0  0  0
 33 29  1  0  0  0  0
 36 39  1  0  0  0  0
 37 36  2  0  0  0  0
 38 40  1  0  0  0  0
 40 39  2  0  0  0  0
 40 35  1  0  0  0  0
 41 37  1  0  0  0  0
 41 38  2  0  0  0  0
 42 43  2  0  0  0  0
 43 37  1  0  0  0  0
M  END
>  <MODEL>
6

>  <REMARK>
 VINA RESULT:      -8.1      2.096      3.412
  Name = 
  7 active torsions:
  status: ('A' for Active; 'I' for Inactive)
    1  A    between atoms: C_1  and  C_34
    2  A    between atoms: C_1  and  C_35
    3  A    between atoms: N_2  and  C_13
    4  A    between atoms: C_3  and  C_4
    5  A    between atoms: C_3  and  C_12
    6  A    between atoms: C_14  and  C_22
    7  A    between atoms: C_19  and  C_37
                            x       y       z     vdW  Elec       q    Type
                         _______ _______ _______ _____ _____    ______ ____

>  <TORSDO>
F 7

$$$$
=
 OpenBabel10272414043D

 43 49  0  0  1  0  0  0  0  0999 V2000
  190.1280  176.9350  146.8260 C   0  0  0  0  0  0  0  0  0  0  0  0
  187.1090  177.9550  143.6230 C   0  0  0  0  0  0  0  0  0  0  0  0
  188.3980  177.7760  141.1550 C   0  0  0  0  0  0  0  0  0  0  0  0
  187.7260  177.6540  145.6220 C   0  0  0  0  0  0  0  0  0  0  0  0
  191.2800  176.7910  144.5850 C   0  0  0  0  0  1  0  0  0  0  0  0
  191.2850  176.5840  147.4410 F   0  0  0  0  0  0  0  0  0  0  0  0
  188.8480  177.4150  144.8520 C   0  0  0  0  0  0  0  0  0  0  0  0
  188.9780  177.1810  147.6090 C   0  0  0  0  0  3  0  0  0  0  0  0
  190.0730  177.0530  145.4220 C   0  0  0  0  0  0  0  0  0  0  0  0
  189.1180  177.5160  142.3400 C   0  0  0  0  0  3  0  0  0  0  0  0
  188.4420  177.6150  143.5520 C   0  0  0  0  0  0  0  0  0  0  0  0
  186.6900  177.9760  144.8730 O   0  0  0  0  0  0  0  0  0  0  0  0
  186.3710  178.2290  142.4720 C   0  0  0  0  0  0  0  0  0  0  0  0
  187.0270  178.1290  141.2320 C   0  0  0  0  0  3  0  0  0  0  0  0
  187.7590  177.5470  147.0090 C   0  0  0  0  0  3  0  0  0  0  0  0
  189.0470  177.6690  139.8790 N   0  0  0  0  0  0  0  0  0  0  0  0
  189.7870  176.4960  139.4590 C   0  0  0  0  0  2  0  0  0  0  0  0
  188.9880  178.7000  138.8600 C   0  0  0  0  0  2  0  0  0  0  0  0
  190.1590  176.7380  138.0060 C   0  0  1  0  0  3  0  0  0  0  0  0
  189.8470  178.2000  137.7130 C   0  0  0  0  0  2  0  0  0  0  0  0
  191.6390  176.4800  137.7760 C   0  0  0  0  0  2  0  0  0  0  0  0
  191.8940  176.0000  136.3550 C   0  0  2  0  0  3  0  0  0  0  0  0
  192.5550  173.7210  135.0010 S   0  0  0  0  0  0  0  0  0  0  0  0
  190.6250  175.4420  135.7560 C   0  0  0  0  0  2  0  0  0  0  0  0
  192.9160  174.8780  136.3640 C   0  0  1  0  0  3  0  0  0  0  0  0
  191.0400  174.6220  134.5570 C   0  0  0  0  0  2  0  0  0  0  0  0
  195.4470  174.5820  136.4350 N   0  0  0  0  0  0  0  0  0  0  0  0
  194.3060  175.4340  136.2560 C   0  0  0  0  0  0  0  0  0  0  0  0
  197.5770  174.7250  137.6170 C   0  0  0  0  0  2  0  0  0  0  0  0
  196.0630  172.7500  137.9230 C   0  0  0  0  0  2  0  0  0  0  0  0
  197.5150  173.2110  137.8110 C   0  0  0  0  0  2  0  0  0  0  0  0
  195.2940  173.1480  136.6670 C   0  0  0  0  0  2  0  0  0  0  0  0
  196.8000  175.1260  136.3670 C   0  0  0  0  0  2  0  0  0  0  0  0
  194.4690  176.6710  136.0660 O   0  0  0  0  0  0  0  0  0  0  0  0
  184.9180  178.5700  142.5440 C   0  0  0  0  0  2  0  0  0  0  0  0
  183.9250  179.2920  138.9560 C   0  0  0  0  0  3  0  0  0  0  0  0
  183.0420  178.2380  138.6920 C   0  0  0  0  0  0  0  0  0  0  0  0
  183.3940  177.3980  140.9440 C   0  0  0  0  0  3  0  0  0  0  0  0
  184.5410  179.3980  140.2080 C   0  0  0  0  0  3  0  0  0  0  0  0
  184.2790  178.4490  141.2020 C   0  0  0  0  0  0  0  0  0  0  0  0
  182.7810  177.2880  139.6930 C   0  0  0  0  0  3  0  0  0  0  0  0
  181.4510  178.9680  136.9680 C   0  0  0  0  0  2  0  0  0  0  0  0
  182.4200  178.1500  137.3640 C   0  0  0  0  0  3  0  0  0  0  0  0
  1  6  1  0  0  0  0
  1  8  1  0  0  0  0
  2 12  1  0  0  0  0
  3 14  2  0  0  0  0
  3 10  1  0  0  0  0
  4 15  1  0  0  0  0
  5  9  1  0  0  0  0
  7  9  1  0  0  0  0
  7  4  2  0  0  0  0
  9  1  2  0  0  0  0
 10 11  2  0  0  0  0
 11  2  1  0  0  0  0
 11  7  1  0  0  0  0
 12  4  1  0  0  0  0
 13 35  1  0  0  0  0
 13  2  2  0  0  0  0
 14 13  1  0  0  0  0
 15  8  2  0  0  0  0
 16  3  1  0  0  0  0
 17 16  1  0  0  0  0
 18 16  1  0  0  0  0
 19 21  1  1  0  0  0
 19 17  1  0  0  0  0
 20 19  1  0  0  0  0
 20 18  1  0  0  0  0
 22 25  1  0  0  0  0
 22 21  1  1  0  0  0
 23 25  1  0  0  0  0
 24 22  1  0  0  0  0
 25 28  1  6  0  0  0
 26 23  1  0  0  0  0
 26 24  1  0  0  0  0
 27 32  1  0  0  0  0
 28 27  1  0  0  0  0
 29 31  1  0  0  0  0
 31 30  1  0  0  0  0
 32 30  1  0  0  0  0
 33 27  1  0  0  0  0
 33 29  1  0  0  0  0
 34 28  2  0  0  0  0
 36 39  1  0  0  0  0
 37 36  2  0  0  0  0
 37 41  1  0  0  0  0
 38 40  1  0  0  0  0
 39 40  2  0  0  0  0
 40 35  1  0  0  0  0
 41 38  2  0  0  0  0
 42 43  2  0  0  0  0
 43 37  1  0  0  0  0
M  END
>  <MODEL>
7

>  <REMARK>
 VINA RESULT:      -8.0      2.513      4.756
  Name = 
  7 active torsions:
  status: ('A' for Active; 'I' for Inactive)
    1  A    between atoms: C_1  and  C_34
    2  A    between atoms: C_1  and  C_35
    3  A    between atoms: N_2  and  C_13
    4  A    between atoms: C_3  and  C_4
    5  A    between atoms: C_3  and  C_12
    6  A    between atoms: C_14  and  C_22
    7  A    between atoms: C_19  and  C_37
                            x       y       z     vdW  Elec       q    Type
                         _______ _______ _______ _____ _____    ______ ____

>  <TORSDO>
F 7

$$$$
=
 OpenBabel10272414043D

 43 49  0  0  1  0  0  0  0  0999 V2000
  189.3910  177.0760  147.3970 C   0  0  0  0  0  0  0  0  0  0  0  0
  189.3980  177.5490  142.9050 C   0  0  0  0  0  0  0  0  0  0  0  0
  186.7670  178.0100  142.0950 C   0  0  0  0  0  0  0  0  0  0  0  0
  190.3170  177.2240  144.7790 C   0  0  0  0  0  0  0  0  0  0  0  0
  187.0160  177.4800  146.6450 C   0  0  0  0  0  1  0  0  0  0  0  0
  188.9680  177.0010  148.6840 F   0  0  0  0  0  0  0  0  0  0  0  0
  188.9720  177.3770  145.0530 C   0  0  0  0  0  0  0  0  0  0  0  0
  190.7650  176.9180  147.1120 C   0  0  0  0  0  3  0  0  0  0  0  0
  188.4690  177.3080  146.3560 C   0  0  0  0  0  0  0  0  0  0  0  0
  187.0540  177.8130  143.4630 C   0  0  0  0  0  3  0  0  0  0  0  0
  188.3770  177.5870  143.8290 C   0  0  0  0  0  0  0  0  0  0  0  0
  190.5590  177.3300  143.4880 O   0  0  0  0  0  0  0  0  0  0  0  0
  189.1480  177.7290  141.5440 C   0  0  0  0  0  0  0  0  0  0  0  0
  187.8200  177.9680  141.1470 C   0  0  0  0  0  3  0  0  0  0  0  0
  191.2430  176.9900  145.7910 C   0  0  0  0  0  3  0  0  0  0  0  0
  185.4200  178.2650  141.6710 N   0  0  0  0  0  0  0  0  0  0  0  0
  184.9820  178.1450  140.2950 C   0  0  0  0  0  2  0  0  0  0  0  0
  184.3470  178.6200  142.5810 C   0  0  0  0  0  2  0  0  0  0  0  0
  183.4760  178.3390  140.3190 C   0  0  1  0  0  3  0  0  0  0  0  0
  183.1240  178.8490  141.7110 C   0  0  0  0  0  2  0  0  0  0  0  0
  183.0460  179.3620  139.2800 C   0  0  0  0  0  2  0  0  0  0  0  0
  181.5860  179.1700  138.8990 C   0  0  2  0  0  3  0  0  0  0  0  0
  179.9820  179.1750  136.6870 S   0  0  0  0  0  0  0  0  0  0  0  0
  181.3310  177.7300  138.5180 C   0  0  0  0  0  2  0  0  0  0  0  0
  181.2520  180.0200  137.6860 C   0  0  1  0  0  3  0  0  0  0  0  0
  180.0220  177.7110  137.7640 C   0  0  0  0  0  2  0  0  0  0  0  0
  180.3920  182.3550  137.1350 N   0  0  0  0  0  0  0  0  0  0  0  0
  180.7960  181.3840  138.1120 C   0  0  0  0  0  0  0  0  0  0  0  0
  180.7780  184.7350  136.7600 C   0  0  0  0  0  2  0  0  0  0  0  0
  181.1610  183.0630  134.9320 C   0  0  0  0  0  2  0  0  0  0  0  0
  180.6590  184.4680  135.2610 C   0  0  0  0  0  2  0  0  0  0  0  0
  180.3550  182.0290  135.7120 C   0  0  0  0  0  2  0  0  0  0  0  0
  179.9820  183.6950  137.5440 C   0  0  0  0  0  2  0  0  0  0  0  0
  180.8260  181.6970  139.3340 O   0  0  0  0  0  0  0  0  0  0  0  0
  190.2560  177.7170  140.5420 C   0  0  0  0  0  2  0  0  0  0  0  0
  189.2820  176.4690  137.0970 C   0  0  0  0  0  3  0  0  0  0  0  0
  188.7290  177.6220  136.5270 C   0  0  0  0  0  0  0  0  0  0  0  0
  189.1660  178.8330  138.5860 C   0  0  0  0  0  3  0  0  0  0  0  0
  189.7750  176.4970  138.4060 C   0  0  0  0  0  3  0  0  0  0  0  0
  189.7140  177.6780  139.1540 C   0  0  0  0  0  0  0  0  0  0  0  0
  188.6710  178.8060  137.2800 C   0  0  0  0  0  3  0  0  0  0  0  0
  187.0880  176.9220  134.8370 C   0  0  0  0  0  2  0  0  0  0  0  0
  188.2120  177.5560  135.1530 C   0  0  0  0  0  3  0  0  0  0  0  0
  1  6  1  0  0  0  0
  2 12  1  0  0  0  0
  2 11  1  0  0  0  0
  3 10  1  0  0  0  0
  4  7  2  0  0  0  0
  4 15  1  0  0  0  0
  7  9  1  0  0  0  0
  8  1  1  0  0  0  0
  9  5  1  0  0  0  0
  9  1  2  0  0  0  0
 10 11  2  0  0  0  0
 11  7  1  0  0  0  0
 12  4  1  0  0  0  0
 13  2  2  0  0  0  0
 14 13  1  0  0  0  0
 14  3  2  0  0  0  0
 15  8  2  0  0  0  0
 16  3  1  0  0  0  0
 16 18  1  0  0  0  0
 17 19  1  0  0  0  0
 17 16  1  0  0  0  0
 19 21  1  6  0  0  0
 19 20  1  0  0  0  0
 20 18  1  0  0  0  0
 22 21  1  6  0  0  0
 23 25  1  0  0  0  0
 23 26  1  0  0  0  0
 24 22  1  0  0  0  0
 25 28  1  1  0  0  0
 25 22  1  0  0  0  0
 26 24  1  0  0  0  0
 27 33  1  0  0  0  0
 27 28  1  0  0  0  0
 28 34  2  0  0  0  0
 29 33  1  0  0  0  0
 30 31  1  0  0  0  0
 30 32  1  0  0  0  0
 31 29  1  0  0  0  0
 32 27  1  0  0  0  0
 35 13  1  0  0  0  0
 36 39  1  0  0  0  0
 37 36  2  0  0  0  0
 37 41  1  0  0  0  0
 38 40  1  0  0  0  0
 39 40  2  0  0  0  0
 40 35  1  0  0  0  0
 41 38  2  0  0  0  0
 42 43  2  0  0  0  0
 43 37  1  0  0  0  0
M  END
>  <MODEL>
8

>  <REMARK>
 VINA RESULT:      -8.0      3.952      7.783
  Name = 
  7 active torsions:
  status: ('A' for Active; 'I' for Inactive)
    1  A    between atoms: C_1  and  C_34
    2  A    between atoms: C_1  and  C_35
    3  A    between atoms: N_2  and  C_13
    4  A    between atoms: C_3  and  C_4
    5  A    between atoms: C_3  and  C_12
    6  A    between atoms: C_14  and  C_22
    7  A    between atoms: C_19  and  C_37
                            x       y       z     vdW  Elec       q    Type
                         _______ _______ _______ _____ _____    ______ ____

>  <TORSDO>
F 7

$$$$
=
 OpenBabel10272414043D

 43 49  0  0  1  0  0  0  0  0999 V2000
  184.9070  177.2330  136.1030 C   0  0  0  0  0  0  0  0  0  0  0  0
  189.0690  175.6160  136.7880 C   0  0  0  0  0  0  0  0  0  0  0  0
  189.9400  176.5380  139.2740 C   0  0  0  0  0  0  0  0  0  0  0  0
  187.2890  175.8630  135.6770 C   0  0  0  0  0  0  0  0  0  0  0  0
  185.7170  178.0690  138.3430 C   0  0  0  0  0  1  0  0  0  0  0  0
  183.7340  177.8900  136.2860 F   0  0  0  0  0  0  0  0  0  0  0  0
  187.1000  176.5890  136.8370 C   0  0  0  0  0  0  0  0  0  0  0  0
  185.1050  176.4910  134.9190 C   0  0  0  0  0  3  0  0  0  0  0  0
  185.9170  177.2920  137.0860 C   0  0  0  0  0  0  0  0  0  0  0  0
  188.6620  176.9060  138.8000 C   0  0  0  0  0  3  0  0  0  0  0  0
  188.2630  176.4270  137.5560 C   0  0  0  0  0  0  0  0  0  0  0  0
  188.4730  175.2840  135.6600 O   0  0  0  0  0  0  0  0  0  0  0  0
  190.3410  175.2420  137.2220 C   0  0  0  0  0  0  0  0  0  0  0  0
  190.7680  175.7060  138.4790 C   0  0  0  0  0  3  0  0  0  0  0  0
  186.3080  175.7950  134.6930 C   0  0  0  0  0  3  0  0  0  0  0  0
  190.3900  176.9930  140.5590 N   0  0  0  0  0  0  0  0  0  0  0  0
  189.6020  176.8640  141.7690 C   0  0  0  0  0  2  0  0  0  0  0  0
  191.6960  177.5810  140.7890 C   0  0  0  0  0  2  0  0  0  0  0  0
  190.5080  177.3130  142.9030 C   0  0  1  0  0  3  0  0  0  0  0  0
  191.7270  177.9610  142.2590 C   0  0  0  0  0  2  0  0  0  0  0  0
  189.8030  178.3280  143.7880 C   0  0  0  0  0  2  0  0  0  0  0  0
  190.1240  178.0880  145.2550 C   0  0  2  0  0  3  0  0  0  0  0  0
  190.0330  176.0930  147.1190 S   0  0  0  0  0  0  0  0  0  0  0  0
  191.5230  177.5350  145.4000 C   0  0  0  0  0  2  0  0  0  0  0  0
  189.1730  177.0550  145.8310 C   0  0  1  0  0  3  0  0  0  0  0  0
  191.6080  176.9370  146.7850 C   0  0  0  0  0  2  0  0  0  0  0  0
  186.7270  177.7350  145.6110 N   0  0  0  0  0  0  0  0  0  0  0  0
  187.9430  177.7200  146.3740 C   0  0  0  0  0  0  0  0  0  0  0  0
  185.0140  179.3880  145.0690 C   0  0  0  0  0  2  0  0  0  0  0  0
  186.1190  178.0370  143.2690 C   0  0  0  0  0  2  0  0  0  0  0  0
  184.8080  178.6650  143.7390 C   0  0  0  0  0  2  0  0  0  0  0  0
  186.6320  177.0580  144.3200 C   0  0  0  0  0  2  0  0  0  0  0  0
  185.5380  178.4130  146.1200 C   0  0  0  0  0  2  0  0  0  0  0  0
  187.9970  178.3210  147.4820 O   0  0  0  0  0  0  0  0  0  0  0  0
  191.2070  174.3400  136.4040 C   0  0  0  0  0  2  0  0  0  0  0  0
  193.5880  176.5360  134.4330 C   0  0  0  0  0  3  0  0  0  0  0  0
  194.7870  176.3440  135.1270 C   0  0  0  0  0  0  0  0  0  0  0  0
  193.6430  174.8490  136.6620 C   0  0  0  0  0  3  0  0  0  0  0  0
  192.4190  175.8890  134.8500 C   0  0  0  0  0  3  0  0  0  0  0  0
  192.4450  175.0470  135.9680 C   0  0  0  0  0  0  0  0  0  0  0  0
  194.8090  175.4970  136.2480 C   0  0  0  0  0  3  0  0  0  0  0  0
  196.1180  178.3680  134.7140 C   0  0  0  0  0  2  0  0  0  0  0  0
  195.9930  177.0460  134.6680 C   0  0  0  0  0  3  0  0  0  0  0  0
  1  6  1  0  0  0  0
  1  9  1  0  0  0  0
  2 13  2  0  0  0  0
  2 11  1  0  0  0  0
  3 16  1  0  0  0  0
  4  7  1  0  0  0  0
  7  9  2  0  0  0  0
  7 11  1  0  0  0  0
  8  1  2  0  0  0  0
  9  5  1  0  0  0  0
 10  3  1  0  0  0  0
 11 10  2  0  0  0  0
 12  4  1  0  0  0  0
 12  2  1  0  0  0  0
 13 14  1  0  0  0  0
 14  3  2  0  0  0  0
 15  8  1  0  0  0  0
 15  4  2  0  0  0  0
 16 18  1  0  0  0  0
 16 17  1  0  0  0  0
 17 19  1  0  0  0  0
 18 20  1  0  0  0  0
 19 21  1  1  0  0  0
 20 19  1  0  0  0  0
 22 21  1  6  0  0  0
 22 24  1  0  0  0  0
 22 25  1  0  0  0  0
 24 26  1  0  0  0  0
 25 28  1  1  0  0  0
 25 23  1  0  0  0  0
 26 23  1  0  0  0  0
 27 33  1  0  0  0  0
 27 28  1  0  0  0  0
 28 34  2  0  0  0  0
 29 33  1  0  0  0  0
 30 31  1  0  0  0  0
 30 32  1  0  0  0  0
 31 29  1  0  0  0  0
 32 27  1  0  0  0  0
 35 13  1  0  0  0  0
 36 39  2  0  0  0  0
 36 37  1  0  0  0  0
 37 41  2  0  0  0  0
 39 40  1  0  0  0  0
 40 35  1  0  0  0  0
 40 38  2  0  0  0  0
 41 38  1  0  0  0  0
 43 42  2  0  0  0  0
 43 37  1  0  0  0  0
M  END
>  <MODEL>
9

>  <REMARK>
 VINA RESULT:      -7.9      3.564      9.452
  Name = 
  7 active torsions:
  status: ('A' for Active; 'I' for Inactive)
    1  A    between atoms: C_1  and  C_34
    2  A    between atoms: C_1  and  C_35
    3  A    between atoms: N_2  and  C_13
    4  A    between atoms: C_3  and  C_4
    5  A    between atoms: C_3  and  C_12
    6  A    between atoms: C_14  and  C_22
    7  A    between atoms: C_19  and  C_37
                            x       y       z     vdW  Elec       q    Type
                         _______ _______ _______ _____ _____    ______ ____

>  <TORSDO>
F 7

$$$$
