=
 OpenBabel10272401073D

 27 29  0  0  1  0  0  0  0  0999 V2000
  188.6450  178.0180  143.8380 N   0  0  0  0  0  0  0  0  0  0  0  0
  191.6710  176.4690  146.4750 C   0  0  0  0  0  2  0  0  0  0  0  0
  189.5190  177.2490  144.7430 C   0  0  1  0  0  3  0  0  0  0  0  0
  190.8910  177.2630  144.2580 N   0  0  0  0  0  2  0  0  0  0  0  0
  191.6330  176.2100  144.9600 C   0  0  0  0  0  2  0  0  0  0  0  0
  190.2590  176.7290  147.0320 C   0  0  0  0  0  2  0  0  0  0  0  0
  189.5200  177.7560  146.1900 C   0  0  0  0  0  2  0  0  0  0  0  0
  187.3910  177.2750  143.5500 C   0  0  0  0  0  2  0  0  0  0  0  0
  183.9430  178.8220  144.0880 C   0  0  0  0  0  3  0  0  0  0  0  0
  183.8950  178.9030  145.4840 C   0  0  0  0  0  3  0  0  0  0  0  0
  186.1610  177.8480  144.2110 C   0  0  0  0  0  0  0  0  0  0  0  0
  185.0730  178.2340  141.9560 C   0  0  0  0  0  1  0  0  0  0  0  0
  184.9840  178.4650  146.2460 C   0  0  0  0  0  3  0  0  0  0  0  0
  186.1130  177.9440  145.6070 C   0  0  0  0  0  3  0  0  0  0  0  0
  185.0700  178.3030  143.4490 C   0  0  0  0  0  0  0  0  0  0  0  0
  189.3470  178.1970  142.6280 N   0  0  0  0  0  2  0  0  0  0  0  0
  188.4510  177.8630  141.5320 C   0  0  0  0  0  2  0  0  0  0  0  0
  191.1640  176.4920  139.2840 C   0  0  0  0  0  3  0  0  0  0  0  0
  191.4460  176.4850  136.8990 O   0  0  0  0  0  1  0  0  0  0  0  0
  189.5340  177.6160  137.8820 C   0  0  0  0  0  0  0  0  0  0  0  0
  189.1000  177.9570  136.6040 O   0  0  0  0  0  1  0  0  0  0  0  0
  188.7830  177.9660  139.0330 C   0  0  0  0  0  0  0  0  0  0  0  0
  190.7250  176.8830  138.0220 C   0  0  0  0  0  0  0  0  0  0  0  0
  189.2610  177.5880  140.3000 C   0  0  0  0  0  0  0  0  0  0  0  0
  190.4310  176.8360  140.4160 C   0  0  0  0  0  3  0  0  0  0  0  0
  186.3540  178.1230  138.4150 C   0  0  0  0  0  1  0  0  0  0  0  0
  187.5500  178.6450  138.9760 O   0  0  0  0  0  0  0  0  0  0  0  0
  2  6  1  0  0  0  0
  3  1  1  6  0  0  0
  3  7  1  0  0  0  0
  4  3  1  0  0  0  0
  4  5  1  0  0  0  0
  5  2  1  0  0  0  0
  7  6  1  0  0  0  0
  8  1  1  0  0  0  0
  8 11  1  0  0  0  0
  9 10  1  0  0  0  0
 10 13  2  0  0  0  0
 11 14  2  0  0  0  0
 12 15  1  0  0  0  0
 14 13  1  0  0  0  0
 15  9  2  0  0  0  0
 15 11  1  0  0  0  0
 16  1  1  0  0  0  0
 17 16  1  0  0  0  0
 18 25  1  0  0  0  0
 19 23  1  0  0  0  0
 20 23  1  0  0  0  0
 20 22  2  0  0  0  0
 21 20  1  0  0  0  0
 22 24  1  0  0  0  0
 23 18  2  0  0  0  0
 24 25  2  0  0  0  0
 24 17  1  0  0  0  0
 26 27  1  0  0  0  0
 27 22  1  0  0  0  0
M  END
>  <MODEL>
1

>  <REMARK>
 VINA RESULT:      -8.8      0.000      0.000
  Name = 
  7 active torsions:
  status: ('A' for Active; 'I' for Inactive)
    1  A    between atoms: C_1  and  N_15
    2  A    between atoms: C_1  and  C_18
    3  A    between atoms: N_2  and  C_6
    4  A    between atoms: N_2  and  N_15
    5  A    between atoms: C_6  and  C_17
    6  A    between atoms: C_9  and  N_15
    7  A    between atoms: C_14  and  O_19
                            x       y       z     vdW  Elec       q    Type
                         _______ _______ _______ _____ _____    ______ ____

>  <TORSDO>
F 7

$$$$
=
 OpenBabel10272401073D

 27 29  0  0  1  0  0  0  0  0999 V2000
  188.1830  177.8230  143.8180 N   0  0  0  0  0  0  0  0  0  0  0  0
  191.1450  176.7040  146.7310 C   0  0  0  0  0  2  0  0  0  0  0  0
  189.2710  177.7180  144.8070 C   0  0  1  0  0  3  0  0  0  0  0  0
  188.7970  177.0660  146.0190 N   0  0  0  0  0  2  0  0  0  0  0  0
  189.7770  177.3120  147.0820 C   0  0  0  0  0  2  0  0  0  0  0  0
  191.6070  177.1430  145.3290 C   0  0  0  0  0  2  0  0  0  0  0  0
  190.5010  176.9520  144.3040 C   0  0  0  0  0  2  0  0  0  0  0  0
  186.9680  177.1060  144.2820 C   0  0  0  0  0  2  0  0  0  0  0  0
  183.8780  179.1950  145.0910 C   0  0  0  0  0  3  0  0  0  0  0  0
  183.3100  179.3470  143.8210 C   0  0  0  0  0  3  0  0  0  0  0  0
  185.6880  177.8910  144.1380 C   0  0  0  0  0  0  0  0  0  0  0  0
  185.6270  178.3360  146.6310 C   0  0  0  0  0  1  0  0  0  0  0  0
  183.9260  178.7630  142.7080 C   0  0  0  0  0  3  0  0  0  0  0  0
  185.1080  178.0360  142.8720 C   0  0  0  0  0  3  0  0  0  0  0  0
  185.0580  178.4680  145.2550 C   0  0  0  0  0  0  0  0  0  0  0  0
  188.6360  177.2120  142.6300 N   0  0  0  0  0  2  0  0  0  0  0  0
  188.2820  178.0750  141.5140 C   0  0  0  0  0  2  0  0  0  0  0  0
  191.1530  176.6670  139.4970 C   0  0  0  0  0  3  0  0  0  0  0  0
  191.5700  176.5400  137.1360 O   0  0  0  0  0  1  0  0  0  0  0  0
  189.5760  177.6650  137.9490 C   0  0  0  0  0  0  0  0  0  0  0  0
  189.2060  177.9250  136.6310 O   0  0  0  0  0  1  0  0  0  0  0  0
  188.7530  178.0540  139.0350 C   0  0  0  0  0  0  0  0  0  0  0  0
  190.7760  176.9770  138.1930 C   0  0  0  0  0  0  0  0  0  0  0  0
  189.1670  177.7590  140.3450 C   0  0  0  0  0  0  0  0  0  0  0  0
  190.3490  177.0490  140.5670 C   0  0  0  0  0  3  0  0  0  0  0  0
  186.3450  178.0890  138.3230 C   0  0  0  0  0  1  0  0  0  0  0  0
  187.5070  178.6920  138.8730 O   0  0  0  0  0  0  0  0  0  0  0  0
  1  8  1  0  0  0  0
  2  5  1  0  0  0  0
  3  1  1  6  0  0  0
  3  4  1  0  0  0  0
  4  5  1  0  0  0  0
  6  2  1  0  0  0  0
  7  3  1  0  0  0  0
  7  6  1  0  0  0  0
  9 15  1  0  0  0  0
 10  9  2  0  0  0  0
 11  8  1  0  0  0  0
 11 15  2  0  0  0  0
 13 14  2  0  0  0  0
 13 10  1  0  0  0  0
 14 11  1  0  0  0  0
 15 12  1  0  0  0  0
 16  1  1  0  0  0  0
 17 16  1  0  0  0  0
 18 25  1  0  0  0  0
 19 23  1  0  0  0  0
 20 23  1  0  0  0  0
 20 22  2  0  0  0  0
 21 20  1  0  0  0  0
 22 24  1  0  0  0  0
 23 18  2  0  0  0  0
 24 25  2  0  0  0  0
 24 17  1  0  0  0  0
 26 27  1  0  0  0  0
 27 22  1  0  0  0  0
M  END
>  <MODEL>
2

>  <REMARK>
 VINA RESULT:      -8.7      0.823      1.750
  Name = 
  7 active torsions:
  status: ('A' for Active; 'I' for Inactive)
    1  A    between atoms: C_1  and  N_15
    2  A    between atoms: C_1  and  C_18
    3  A    between atoms: N_2  and  C_6
    4  A    between atoms: N_2  and  N_15
    5  A    between atoms: C_6  and  C_17
    6  A    between atoms: C_9  and  N_15
    7  A    between atoms: C_14  and  O_19
                            x       y       z     vdW  Elec       q    Type
                         _______ _______ _______ _____ _____    ______ ____

>  <TORSDO>
F 7

$$$$
=
 OpenBabel10272401073D

 27 29  0  0  1  0  0  0  0  0999 V2000
  187.9490  177.2620  144.1970 N   0  0  0  0  0  0  0  0  0  0  0  0
  184.1400  178.7330  145.5500 C   0  0  0  0  0  2  0  0  0  0  0  0
  186.7840  178.0150  144.6960 C   0  0  1  0  0  3  0  0  0  0  0  0
  185.6570  177.8700  143.7880 N   0  0  0  0  0  2  0  0  0  0  0  0
  184.6700  178.9050  144.1180 C   0  0  0  0  0  2  0  0  0  0  0  0
  185.2940  178.6130  146.5620 C   0  0  0  0  0  2  0  0  0  0  0  0
  186.3240  177.5960  146.0980 C   0  0  0  0  0  2  0  0  0  0  0  0
  189.2140  177.9900  144.4730 C   0  0  0  0  0  2  0  0  0  0  0  0
  192.0730  175.8850  145.8750 C   0  0  0  0  0  3  0  0  0  0  0  0
  191.8450  175.9950  147.2510 C   0  0  0  0  0  3  0  0  0  0  0  0
  190.1420  177.2850  145.4310 C   0  0  0  0  0  0  0  0  0  0  0  0
  191.5130  176.3750  143.5050 C   0  0  0  0  0  1  0  0  0  0  0  0
  190.7590  176.7430  147.7200 C   0  0  0  0  0  3  0  0  0  0  0  0
  189.9110  177.3810  146.8090 C   0  0  0  0  0  3  0  0  0  0  0  0
  191.2270  176.5200  144.9650 C   0  0  0  0  0  0  0  0  0  0  0  0
  187.8010  177.1370  142.8000 N   0  0  0  0  0  2  0  0  0  0  0  0
  188.6010  178.1720  142.1660 C   0  0  0  0  0  2  0  0  0  0  0  0
  189.7610  176.7350  138.8670 C   0  0  0  0  0  3  0  0  0  0  0  0
  188.8390  176.8080  136.6500 O   0  0  0  0  0  1  0  0  0  0  0  0
  187.7390  178.0090  138.4530 C   0  0  0  0  0  0  0  0  0  0  0  0
  186.7610  178.4270  137.5540 O   0  0  0  0  0  1  0  0  0  0  0  0
  187.6750  178.3560  139.8260 C   0  0  0  0  0  0  0  0  0  0  0  0
  188.7900  177.2020  137.9850 C   0  0  0  0  0  0  0  0  0  0  0  0
  188.6830  177.9000  140.6930 C   0  0  0  0  0  0  0  0  0  0  0  0
  189.7030  177.0750  140.2150 C   0  0  0  0  0  3  0  0  0  0  0  0
  185.2530  178.7370  140.3710 C   0  0  0  0  0  1  0  0  0  0  0  0
  186.6240  179.1090  140.3860 O   0  0  0  0  0  0  0  0  0  0  0  0
  1  8  1  0  0  0  0
  2  6  1  0  0  0  0
  3  1  1  6  0  0  0
  3  7  1  0  0  0  0
  4  5  1  0  0  0  0
  4  3  1  0  0  0  0
  5  2  1  0  0  0  0
  7  6  1  0  0  0  0
  8 11  1  0  0  0  0
  9 10  1  0  0  0  0
 10 13  2  0  0  0  0
 11 14  2  0  0  0  0
 12 15  1  0  0  0  0
 14 13  1  0  0  0  0
 15 11  1  0  0  0  0
 15  9  2  0  0  0  0
 16  1  1  0  0  0  0
 17 16  1  0  0  0  0
 18 25  1  0  0  0  0
 19 23  1  0  0  0  0
 20 22  2  0  0  0  0
 21 20  1  0  0  0  0
 22 27  1  0  0  0  0
 22 24  1  0  0  0  0
 23 20  1  0  0  0  0
 23 18  2  0  0  0  0
 24 17  1  0  0  0  0
 25 24  2  0  0  0  0
 26 27  1  0  0  0  0
M  END
>  <MODEL>
3

>  <REMARK>
 VINA RESULT:      -8.6      1.291      4.532
  Name = 
  7 active torsions:
  status: ('A' for Active; 'I' for Inactive)
    1  A    between atoms: C_1  and  N_15
    2  A    between atoms: C_1  and  C_18
    3  A    between atoms: N_2  and  C_6
    4  A    between atoms: N_2  and  N_15
    5  A    between atoms: C_6  and  C_17
    6  A    between atoms: C_9  and  N_15
    7  A    between atoms: C_14  and  O_19
                            x       y       z     vdW  Elec       q    Type
                         _______ _______ _______ _____ _____    ______ ____

>  <TORSDO>
F 7

$$$$
=
 OpenBabel10272401073D

 27 29  0  0  1  0  0  0  0  0999 V2000
  188.1570  177.9970  142.8400 N   0  0  0  0  0  0  0  0  0  0  0  0
  191.1580  177.0940  139.8930 C   0  0  0  0  0  2  0  0  0  0  0  0
  189.2120  177.9730  141.8110 C   0  0  1  0  0  3  0  0  0  0  0  0
  190.3070  177.1080  142.2230 N   0  0  0  0  0  2  0  0  0  0  0  0
  191.4640  177.3990  141.3690 C   0  0  0  0  0  2  0  0  0  0  0  0
  189.8510  177.7720  139.4420 C   0  0  0  0  0  2  0  0  0  0  0  0
  188.7290  177.5080  140.4320 C   0  0  0  0  0  2  0  0  0  0  0  0
  188.3480  176.9020  143.8260 C   0  0  0  0  0  2  0  0  0  0  0  0
  189.1300  177.7800  147.4570 C   0  0  0  0  0  3  0  0  0  0  0  0
  187.8610  178.1230  147.9350 C   0  0  0  0  0  3  0  0  0  0  0  0
  188.1940  177.3260  145.2660 C   0  0  0  0  0  0  0  0  0  0  0  0
  190.6770  177.0220  145.6670 C   0  0  0  0  0  1  0  0  0  0  0  0
  186.7540  178.0600  147.0810 C   0  0  0  0  0  3  0  0  0  0  0  0
  186.9250  177.6580  145.7530 C   0  0  0  0  0  3  0  0  0  0  0  0
  189.3010  177.3770  146.1320 C   0  0  0  0  0  0  0  0  0  0  0  0
  186.9250  177.7980  142.1830 N   0  0  0  0  0  2  0  0  0  0  0  0
  186.2590  179.0860  142.0700 C   0  0  0  0  0  2  0  0  0  0  0  0
  183.2000  179.1710  144.2900 C   0  0  0  0  0  3  0  0  0  0  0  0
  180.8570  178.8990  143.8370 O   0  0  0  0  0  1  0  0  0  0  0  0
  182.4700  178.6430  142.0380 C   0  0  0  0  0  0  0  0  0  0  0  0
  181.4210  178.3980  141.1550 O   0  0  0  0  0  1  0  0  0  0  0  0
  183.8150  178.6850  141.5900 C   0  0  0  0  0  0  0  0  0  0  0  0
  182.1770  178.8830  143.3910 C   0  0  0  0  0  0  0  0  0  0  0  0
  184.8360  178.9470  142.5210 C   0  0  0  0  0  0  0  0  0  0  0  0
  184.5210  179.2110  143.8550 C   0  0  0  0  0  3  0  0  0  0  0  0
  184.0510  179.5010  139.2270 C   0  0  0  0  0  1  0  0  0  0  0  0
  184.1880  178.5170  140.2420 O   0  0  0  0  0  0  0  0  0  0  0  0
  1  8  1  0  0  0  0
  2  5  1  0  0  0  0
  3  4  1  0  0  0  0
  3  1  1  1  0  0  0
  5  4  1  0  0  0  0
  6  2  1  0  0  0  0
  6  7  1  0  0  0  0
  7  3  1  0  0  0  0
  8 11  1  0  0  0  0
  9 10  1  0  0  0  0
 11 14  2  0  0  0  0
 11 15  1  0  0  0  0
 12 15  1  0  0  0  0
 13 10  2  0  0  0  0
 14 13  1  0  0  0  0
 15  9  2  0  0  0  0
 16  1  1  0  0  0  0
 17 16  1  0  0  0  0
 17 24  1  0  0  0  0
 20 23  1  0  0  0  0
 21 20  1  0  0  0  0
 22 20  2  0  0  0  0
 22 24  1  0  0  0  0
 23 19  1  0  0  0  0
 23 18  2  0  0  0  0
 24 25  2  0  0  0  0
 25 18  1  0  0  0  0
 26 27  1  0  0  0  0
 27 22  1  0  0  0  0
M  END
>  <MODEL>
4

>  <REMARK>
 VINA RESULT:      -8.5      2.572      5.998
  Name = 
  7 active torsions:
  status: ('A' for Active; 'I' for Inactive)
    1  A    between atoms: C_1  and  N_15
    2  A    between atoms: C_1  and  C_18
    3  A    between atoms: N_2  and  C_6
    4  A    between atoms: N_2  and  N_15
    5  A    between atoms: C_6  and  C_17
    6  A    between atoms: C_9  and  N_15
    7  A    between atoms: C_14  and  O_19
                            x       y       z     vdW  Elec       q    Type
                         _______ _______ _______ _____ _____    ______ ____

>  <TORSDO>
F 7

$$$$
=
 OpenBabel10272401073D

 27 29  0  0  1  0  0  0  0  0999 V2000
  187.1090  177.9280  141.6520 N   0  0  0  0  0  0  0  0  0  0  0  0
  189.3020  178.2100  137.9610 C   0  0  0  0  0  2  0  0  0  0  0  0
  187.8420  177.7370  140.3860 C   0  0  1  0  0  3  0  0  0  0  0  0
  187.2690  178.5650  139.3360 N   0  0  0  0  0  2  0  0  0  0  0  0
  187.7730  178.0790  138.0470 C   0  0  0  0  0  2  0  0  0  0  0  0
  189.9860  177.5770  139.1880 C   0  0  0  0  0  2  0  0  0  0  0  0
  189.3390  178.0520  140.4790 C   0  0  0  0  0  2  0  0  0  0  0  0
  186.3010  179.1730  141.6180 C   0  0  0  0  0  2  0  0  0  0  0  0
  182.6150  178.5900  142.4200 C   0  0  0  0  0  3  0  0  0  0  0  0
  182.5720  178.9320  143.7760 C   0  0  0  0  0  3  0  0  0  0  0  0
  184.9890  179.0850  142.3580 C   0  0  0  0  0  0  0  0  0  0  0  0
  183.8080  178.2910  140.2620 C   0  0  0  0  0  1  0  0  0  0  0  0
  183.7370  179.3590  144.4240 C   0  0  0  0  0  3  0  0  0  0  0  0
  184.9370  179.4380  143.7120 C   0  0  0  0  0  3  0  0  0  0  0  0
  183.8130  178.6690  141.7080 C   0  0  0  0  0  0  0  0  0  0  0  0
  188.0690  178.0450  142.6790 N   0  0  0  0  0  2  0  0  0  0  0  0
  188.0040  176.8440  143.4980 C   0  0  0  0  0  2  0  0  0  0  0  0
  187.0260  177.8510  147.0080 C   0  0  0  0  0  3  0  0  0  0  0  0
  188.2680  178.0100  149.0570 O   0  0  0  0  0  1  0  0  0  0  0  0
  189.4090  177.4020  147.0000 C   0  0  0  0  0  0  0  0  0  0  0  0
  190.6010  177.2950  147.7130 O   0  0  0  0  0  1  0  0  0  0  0  0
  189.3520  177.1130  145.6140 C   0  0  0  0  0  0  0  0  0  0  0  0
  188.2400  177.7750  147.6850 C   0  0  0  0  0  0  0  0  0  0  0  0
  188.1220  177.2270  144.9430 C   0  0  0  0  0  0  0  0  0  0  0  0
  186.9650  177.5700  145.6460 C   0  0  0  0  0  3  0  0  0  0  0  0
  191.4560  177.5200  144.3040 C   0  0  0  0  0  1  0  0  0  0  0  0
  190.4640  176.6740  144.8680 O   0  0  0  0  0  0  0  0  0  0  0  0
  1 16  1  0  0  0  0
  2  5  1  0  0  0  0
  2  6  1  0  0  0  0
  3  7  1  0  0  0  0
  3  1  1  1  0  0  0
  4  3  1  0  0  0  0
  5  4  1  0  0  0  0
  6  7  1  0  0  0  0
  8  1  1  0  0  0  0
  8 11  1  0  0  0  0
  9 10  1  0  0  0  0
 10 13  2  0  0  0  0
 11 14  2  0  0  0  0
 12 15  1  0  0  0  0
 14 13  1  0  0  0  0
 15 11  1  0  0  0  0
 15  9  2  0  0  0  0
 16 17  1  0  0  0  0
 17 24  1  0  0  0  0
 18 23  1  0  0  0  0
 20 23  2  0  0  0  0
 20 21  1  0  0  0  0
 22 20  1  0  0  0  0
 23 19  1  0  0  0  0
 24 22  2  0  0  0  0
 24 25  1  0  0  0  0
 25 18  2  0  0  0  0
 26 27  1  0  0  0  0
 27 22  1  0  0  0  0
M  END
>  <MODEL>
5

>  <REMARK>
 VINA RESULT:      -8.5      3.322      6.462
  Name = 
  7 active torsions:
  status: ('A' for Active; 'I' for Inactive)
    1  A    between atoms: C_1  and  N_15
    2  A    between atoms: C_1  and  C_18
    3  A    between atoms: N_2  and  C_6
    4  A    between atoms: N_2  and  N_15
    5  A    between atoms: C_6  and  C_17
    6  A    between atoms: C_9  and  N_15
    7  A    between atoms: C_14  and  O_19
                            x       y       z     vdW  Elec       q    Type
                         _______ _______ _______ _____ _____    ______ ____

>  <TORSDO>
F 7

$$$$
=
 OpenBabel10272401073D

 27 29  0  0  1  0  0  0  0  0999 V2000
  188.2160  177.9190  144.1990 N   0  0  0  0  0  0  0  0  0  0  0  0
  191.0680  176.5720  147.1250 C   0  0  0  0  0  2  0  0  0  0  0  0
  189.2870  177.7300  145.1950 C   0  0  1  0  0  3  0  0  0  0  0  0
  188.7580  177.1120  146.4010 N   0  0  0  0  0  2  0  0  0  0  0  0
  189.7480  177.2800  147.4710 C   0  0  0  0  0  2  0  0  0  0  0  0
  191.5700  176.9800  145.7270 C   0  0  0  0  0  2  0  0  0  0  0  0
  190.4590  176.8760  144.6960 C   0  0  0  0  0  2  0  0  0  0  0  0
  186.9820  177.1940  144.5980 C   0  0  0  0  0  2  0  0  0  0  0  0
  183.7410  179.1720  144.9930 C   0  0  0  0  0  3  0  0  0  0  0  0
  183.3260  179.2850  143.6620 C   0  0  0  0  0  3  0  0  0  0  0  0
  185.7010  177.9280  144.2880 C   0  0  0  0  0  0  0  0  0  0  0  0
  185.3210  178.3990  146.7470 C   0  0  0  0  0  1  0  0  0  0  0  0
  184.0940  178.7130  142.6410 C   0  0  0  0  0  3  0  0  0  0  0  0
  185.2740  178.0340  142.9580 C   0  0  0  0  0  3  0  0  0  0  0  0
  184.9190  178.4930  145.3110 C   0  0  0  0  0  0  0  0  0  0  0  0
  188.6760  177.3810  142.9800 N   0  0  0  0  0  2  0  0  0  0  0  0
  188.6660  178.4420  141.9850 C   0  0  0  0  0  2  0  0  0  0  0  0
  187.6670  177.6370  138.4290 C   0  0  0  0  0  3  0  0  0  0  0  0
  188.7770  176.4520  136.6590 O   0  0  0  0  0  1  0  0  0  0  0  0
  189.8230  176.6080  138.8470 C   0  0  0  0  0  0  0  0  0  0  0  0
  190.9080  175.8820  138.3600 O   0  0  0  0  0  1  0  0  0  0  0  0
  189.8010  177.0970  140.1760 C   0  0  0  0  0  0  0  0  0  0  0  0
  188.7470  176.8790  137.9840 C   0  0  0  0  0  0  0  0  0  0  0  0
  188.6860  177.8330  140.6150 C   0  0  0  0  0  0  0  0  0  0  0  0
  187.6400  178.1180  139.7340 C   0  0  0  0  0  3  0  0  0  0  0  0
  192.0900  177.6380  141.0570 C   0  0  0  0  0  1  0  0  0  0  0  0
  190.8640  176.9220  141.0840 O   0  0  0  0  0  0  0  0  0  0  0  0
  1  8  1  0  0  0  0
  2  5  1  0  0  0  0
  3  1  1  6  0  0  0
  3  4  1  0  0  0  0
  4  5  1  0  0  0  0
  6  2  1  0  0  0  0
  7  3  1  0  0  0  0
  7  6  1  0  0  0  0
  9 15  1  0  0  0  0
 10  9  2  0  0  0  0
 11  8  1  0  0  0  0
 11 15  2  0  0  0  0
 13 14  2  0  0  0  0
 13 10  1  0  0  0  0
 14 11  1  0  0  0  0
 15 12  1  0  0  0  0
 16  1  1  0  0  0  0
 17 16  1  0  0  0  0
 18 25  1  0  0  0  0
 19 23  1  0  0  0  0
 20 22  2  0  0  0  0
 21 20  1  0  0  0  0
 22 24  1  0  0  0  0
 22 27  1  0  0  0  0
 23 18  2  0  0  0  0
 23 20  1  0  0  0  0
 24 17  1  0  0  0  0
 25 24  2  0  0  0  0
 26 27  1  0  0  0  0
M  END
>  <MODEL>
6

>  <REMARK>
 VINA RESULT:      -8.4      1.406      2.690
  Name = 
  7 active torsions:
  status: ('A' for Active; 'I' for Inactive)
    1  A    between atoms: C_1  and  N_15
    2  A    between atoms: C_1  and  C_18
    3  A    between atoms: N_2  and  C_6
    4  A    between atoms: N_2  and  N_15
    5  A    between atoms: C_6  and  C_17
    6  A    between atoms: C_9  and  N_15
    7  A    between atoms: C_14  and  O_19
                            x       y       z     vdW  Elec       q    Type
                         _______ _______ _______ _____ _____    ______ ____

>  <TORSDO>
F 7

$$$$
=
 OpenBabel10272401073D

 27 29  0  0  1  0  0  0  0  0999 V2000
  187.7840  177.2940  144.2870 N   0  0  0  0  0  0  0  0  0  0  0  0
  183.8580  178.7900  145.2130 C   0  0  0  0  0  2  0  0  0  0  0  0
  186.5750  178.0560  144.6520 C   0  0  1  0  0  3  0  0  0  0  0  0
  185.5490  177.9030  143.6310 N   0  0  0  0  0  2  0  0  0  0  0  0
  184.5370  178.9430  143.8420 C   0  0  0  0  0  2  0  0  0  0  0  0
  184.8980  178.6800  146.3420 C   0  0  0  0  0  2  0  0  0  0  0  0
  185.9680  177.6550  146.0010 C   0  0  0  0  0  2  0  0  0  0  0  0
  189.0150  178.0560  144.6190 C   0  0  0  0  0  2  0  0  0  0  0  0
  191.0230  176.5240  147.4810 C   0  0  0  0  0  3  0  0  0  0  0  0
  191.9830  175.7870  146.7780 C   0  0  0  0  0  3  0  0  0  0  0  0
  190.0470  177.2690  145.3890 C   0  0  0  0  0  0  0  0  0  0  0  0
  189.0550  178.0360  147.5900 C   0  0  0  0  0  1  0  0  0  0  0  0
  191.9810  175.7970  145.3780 C   0  0  0  0  0  3  0  0  0  0  0  0
  191.0170  176.5400  144.6910 C   0  0  0  0  0  3  0  0  0  0  0  0
  190.0610  177.2670  146.7950 C   0  0  0  0  0  0  0  0  0  0  0  0
  187.7460  177.0900  142.8920 N   0  0  0  0  0  2  0  0  0  0  0  0
  188.5600  178.1180  142.2620 C   0  0  0  0  0  2  0  0  0  0  0  0
  187.7770  178.0380  138.5650 C   0  0  0  0  0  3  0  0  0  0  0  0
  189.0450  177.3320  136.6520 O   0  0  0  0  0  1  0  0  0  0  0  0
  189.9810  177.0770  138.8790 C   0  0  0  0  0  0  0  0  0  0  0  0
  191.1360  176.5410  138.3140 O   0  0  0  0  0  1  0  0  0  0  0  0
  189.8670  177.2670  140.2790 C   0  0  0  0  0  0  0  0  0  0  0  0
  188.9270  177.4620  138.0330 C   0  0  0  0  0  0  0  0  0  0  0  0
  188.6830  177.8210  140.7980 C   0  0  0  0  0  0  0  0  0  0  0  0
  187.6590  178.2240  139.9390 C   0  0  0  0  0  3  0  0  0  0  0  0
  192.1390  177.6520  141.2760 C   0  0  0  0  0  1  0  0  0  0  0  0
  190.8990  176.9650  141.1890 O   0  0  0  0  0  0  0  0  0  0  0  0
  1  8  1  0  0  0  0
  2  6  1  0  0  0  0
  3  1  1  6  0  0  0
  3  7  1  0  0  0  0
  4  5  1  0  0  0  0
  4  3  1  0  0  0  0
  5  2  1  0  0  0  0
  7  6  1  0  0  0  0
  8 11  1  0  0  0  0
 10  9  2  0  0  0  0
 11 15  2  0  0  0  0
 13 10  1  0  0  0  0
 14 13  2  0  0  0  0
 14 11  1  0  0  0  0
 15  9  1  0  0  0  0
 15 12  1  0  0  0  0
 16  1  1  0  0  0  0
 17 16  1  0  0  0  0
 18 25  1  0  0  0  0
 19 23  1  0  0  0  0
 20 22  2  0  0  0  0
 21 20  1  0  0  0  0
 22 24  1  0  0  0  0
 22 27  1  0  0  0  0
 23 18  2  0  0  0  0
 23 20  1  0  0  0  0
 24 17  1  0  0  0  0
 25 24  2  0  0  0  0
 27 26  1  0  0  0  0
M  END
>  <MODEL>
7

>  <REMARK>
 VINA RESULT:      -8.3      1.417      4.946
  Name = 
  7 active torsions:
  status: ('A' for Active; 'I' for Inactive)
    1  A    between atoms: C_1  and  N_15
    2  A    between atoms: C_1  and  C_18
    3  A    between atoms: N_2  and  C_6
    4  A    between atoms: N_2  and  N_15
    5  A    between atoms: C_6  and  C_17
    6  A    between atoms: C_9  and  N_15
    7  A    between atoms: C_14  and  O_19
                            x       y       z     vdW  Elec       q    Type
                         _______ _______ _______ _____ _____    ______ ____

>  <TORSDO>
F 7

$$$$
=
 OpenBabel10272401073D

 27 29  0  0  1  0  0  0  0  0999 V2000
  188.1680  177.9980  142.5850 N   0  0  0  0  0  0  0  0  0  0  0  0
  191.9590  177.4050  144.5310 C   0  0  0  0  0  2  0  0  0  0  0  0
  189.5740  177.8020  142.9850 C   0  0  1  0  0  3  0  0  0  0  0  0
  189.9520  178.7650  144.0080 N   0  0  0  0  0  2  0  0  0  0  0  0
  191.4160  178.7780  144.1030 C   0  0  0  0  0  2  0  0  0  0  0  0
  191.3920  176.2800  143.6460 C   0  0  0  0  0  2  0  0  0  0  0  0
  189.8820  176.3970  143.5140 C   0  0  0  0  0  2  0  0  0  0  0  0
  187.2720  177.0630  143.3110 C   0  0  0  0  0  2  0  0  0  0  0  0
  184.6800  178.8650  145.4580 C   0  0  0  0  0  3  0  0  0  0  0  0
  185.2730  178.7910  146.7220 C   0  0  0  0  0  3  0  0  0  0  0  0
  186.5600  177.6730  144.4930 C   0  0  0  0  0  0  0  0  0  0  0  0
  184.6430  178.4180  143.0140 C   0  0  0  0  0  1  0  0  0  0  0  0
  186.5160  178.1650  146.8740 C   0  0  0  0  0  3  0  0  0  0  0  0
  187.1550  177.6140  145.7590 C   0  0  0  0  0  3  0  0  0  0  0  0
  185.3180  178.3150  144.3440 C   0  0  0  0  0  0  0  0  0  0  0  0
  188.0820  177.7210  141.2050 N   0  0  0  0  0  2  0  0  0  0  0  0
  188.9030  178.6900  140.4960 C   0  0  0  0  0  2  0  0  0  0  0  0
  191.3570  176.5120  138.6170 C   0  0  0  0  0  3  0  0  0  0  0  0
  191.4670  175.7920  136.3290 O   0  0  0  0  0  1  0  0  0  0  0  0
  189.7040  177.3100  137.0310 C   0  0  0  0  0  0  0  0  0  0  0  0
  189.2020  177.3010  135.7320 O   0  0  0  0  0  1  0  0  0  0  0  0
  189.0620  178.0380  138.0640 C   0  0  0  0  0  0  0  0  0  0  0  0
  190.8540  176.5560  137.3190 C   0  0  0  0  0  0  0  0  0  0  0  0
  189.6040  178.0050  139.3610 C   0  0  0  0  0  0  0  0  0  0  0  0
  190.7300  177.2270  139.6340 C   0  0  0  0  0  3  0  0  0  0  0  0
  186.5850  178.2000  137.6830 C   0  0  0  0  0  1  0  0  0  0  0  0
  187.8730  178.7680  137.8720 O   0  0  0  0  0  0  0  0  0  0  0  0
  1  8  1  0  0  0  0
  3  1  1  1  0  0  0
  3  7  1  0  0  0  0
  3  4  1  0  0  0  0
  4  5  1  0  0  0  0
  5  2  1  0  0  0  0
  6  2  1  0  0  0  0
  7  6  1  0  0  0  0
  8 11  1  0  0  0  0
  9 10  1  0  0  0  0
 10 13  2  0  0  0  0
 11 14  2  0  0  0  0
 12 15  1  0  0  0  0
 14 13  1  0  0  0  0
 15 11  1  0  0  0  0
 15  9  2  0  0  0  0
 16  1  1  0  0  0  0
 17 16  1  0  0  0  0
 18 25  1  0  0  0  0
 19 23  1  0  0  0  0
 20 23  1  0  0  0  0
 20 22  2  0  0  0  0
 21 20  1  0  0  0  0
 22 24  1  0  0  0  0
 23 18  2  0  0  0  0
 24 25  2  0  0  0  0
 24 17  1  0  0  0  0
 26 27  1  0  0  0  0
 27 22  1  0  0  0  0
M  END
>  <MODEL>
8

>  <REMARK>
 VINA RESULT:      -8.2      1.320      1.608
  Name = 
  7 active torsions:
  status: ('A' for Active; 'I' for Inactive)
    1  A    between atoms: C_1  and  N_15
    2  A    between atoms: C_1  and  C_18
    3  A    between atoms: N_2  and  C_6
    4  A    between atoms: N_2  and  N_15
    5  A    between atoms: C_6  and  C_17
    6  A    between atoms: C_9  and  N_15
    7  A    between atoms: C_14  and  O_19
                            x       y       z     vdW  Elec       q    Type
                         _______ _______ _______ _____ _____    ______ ____

>  <TORSDO>
F 7

$$$$
=
 OpenBabel10272401073D

 27 29  0  0  1  0  0  0  0  0999 V2000
  187.8590  177.8960  143.3730 N   0  0  0  0  0  0  0  0  0  0  0  0
  191.6280  177.5450  141.3290 C   0  0  0  0  0  2  0  0  0  0  0  0
  189.1690  177.5230  142.8090 C   0  0  1  0  0  3  0  0  0  0  0  0
  189.1500  177.6340  141.3590 N   0  0  0  0  0  2  0  0  0  0  0  0
  190.3160  176.9170  140.8310 C   0  0  0  0  0  2  0  0  0  0  0  0
  191.6230  177.7070  142.8600 C   0  0  0  0  0  2  0  0  0  0  0  0
  190.3380  178.3640  143.3360 C   0  0  0  0  0  2  0  0  0  0  0  0
  187.4330  176.9310  144.4180 C   0  0  0  0  0  2  0  0  0  0  0  0
  187.3120  178.4060  147.9370 C   0  0  0  0  0  3  0  0  0  0  0  0
  188.5670  178.0340  148.4330 C   0  0  0  0  0  3  0  0  0  0  0  0
  187.8150  177.3250  145.8240 C   0  0  0  0  0  0  0  0  0  0  0  0
  185.5840  178.4800  146.1540 C   0  0  0  0  0  1  0  0  0  0  0  0
  189.4510  177.3130  147.6220 C   0  0  0  0  0  3  0  0  0  0  0  0
  189.0730  176.9670  146.3210 C   0  0  0  0  0  3  0  0  0  0  0  0
  186.9350  178.0610  146.6380 C   0  0  0  0  0  0  0  0  0  0  0  0
  186.9220  177.8570  142.3190 N   0  0  0  0  0  2  0  0  0  0  0  0
  186.0070  178.9760  142.4850 C   0  0  0  0  0  2  0  0  0  0  0  0
  184.2620  178.7860  139.1380 C   0  0  0  0  0  3  0  0  0  0  0  0
  181.9970  178.2890  138.5130 O   0  0  0  0  0  1  0  0  0  0  0  0
  182.6050  178.3880  140.8640 C   0  0  0  0  0  0  0  0  0  0  0  0
  181.2910  178.0690  141.1990 O   0  0  0  0  0  1  0  0  0  0  0  0
  183.5980  178.5610  141.8600 C   0  0  0  0  0  0  0  0  0  0  0  0
  182.9480  178.5090  139.5060 C   0  0  0  0  0  0  0  0  0  0  0  0
  184.9120  178.8730  141.4670 C   0  0  0  0  0  0  0  0  0  0  0  0
  185.2400  178.9590  140.1120 C   0  0  0  0  0  3  0  0  0  0  0  0
  182.6400  179.3160  144.0550 C   0  0  0  0  0  1  0  0  0  0  0  0
  183.3510  178.3980  143.2370 O   0  0  0  0  0  0  0  0  0  0  0  0
  1  8  1  0  0  0  0
  2  6  1  0  0  0  0
  3  7  1  0  0  0  0
  3  1  1  1  0  0  0
  4  3  1  0  0  0  0
  5  2  1  0  0  0  0
  5  4  1  0  0  0  0
  6  7  1  0  0  0  0
  8 11  1  0  0  0  0
  9 10  1  0  0  0  0
 11 14  2  0  0  0  0
 11 15  1  0  0  0  0
 12 15  1  0  0  0  0
 13 10  2  0  0  0  0
 14 13  1  0  0  0  0
 15  9  2  0  0  0  0
 16 17  1  0  0  0  0
 16  1  1  0  0  0  0
 18 23  2  0  0  0  0
 18 25  1  0  0  0  0
 19 23  1  0  0  0  0
 20 21  1  0  0  0  0
 20 22  2  0  0  0  0
 22 27  1  0  0  0  0
 23 20  1  0  0  0  0
 24 22  1  0  0  0  0
 24 17  1  0  0  0  0
 25 24  2  0  0  0  0
 27 26  1  0  0  0  0
M  END
>  <MODEL>
9

>  <REMARK>
 VINA RESULT:      -8.0      3.116      5.308
  Name = 
  7 active torsions:
  status: ('A' for Active; 'I' for Inactive)
    1  A    between atoms: C_1  and  N_15
    2  A    between atoms: C_1  and  C_18
    3  A    between atoms: N_2  and  C_6
    4  A    between atoms: N_2  and  N_15
    5  A    between atoms: C_6  and  C_17
    6  A    between atoms: C_9  and  N_15
    7  A    between atoms: C_14  and  O_19
                            x       y       z     vdW  Elec       q    Type
                         _______ _______ _______ _____ _____    ______ ____

>  <TORSDO>
F 7

$$$$
