=
 OpenBabel10272400483D

 25 28  0  0  0  0  0  0  0  0999 V2000
  187.5640  177.8750  145.8000 C   0  0  0  0  0  0  0  0  0  0  0  0
  186.7330  178.1350  144.6950 C   0  0  0  0  0  0  0  0  0  0  0  0
  185.7490  178.4130  147.3130 C   0  0  0  0  0  3  0  0  0  0  0  0
  188.9100  177.4640  145.8110 C   0  0  0  0  0  0  0  0  0  0  0  0
  191.5200  176.6670  146.2900 C   0  0  0  0  0  3  0  0  0  0  0  0
  184.9530  178.6600  146.2380 N   0  0  0  0  0  0  0  0  0  0  0  0
  189.4070  177.3040  147.0990 C   0  0  0  0  0  0  0  0  0  0  0  0
  190.6830  176.9130  147.3390 N   0  0  0  0  0  0  0  0  0  0  0  0
  184.5260  178.8220  143.8500 N   0  0  0  0  0  0  0  0  0  0  0  0
  183.1420  179.2000  144.0780 C   0  0  0  0  0  1  0  0  0  0  0  0
  187.2170  177.9460  143.2800 C   0  0  0  0  0  3  0  0  0  0  0  0
  191.0670  176.8140  144.9660 C   0  0  0  0  0  3  0  0  0  0  0  0
  187.0610  178.0190  147.0910 C   0  0  0  0  0  0  0  0  0  0  0  0
  188.2320  177.6540  148.2520 S   0  0  0  0  0  0  0  0  0  0  0  0
  185.0140  178.8010  142.5060 C   0  0  0  0  0  3  0  0  0  0  0  0
  189.7460  177.2180  144.7200 C   0  0  0  0  0  2  0  0  0  0  0  0
  186.2670  178.4380  142.2210 C   0  0  0  0  0  0  0  0  0  0  0  0
  185.4020  178.5340  144.9500 C   0  0  0  0  0  0  0  0  0  0  0  0
  186.7190  178.4130  140.8010 C   0  0  0  0  0  2  0  0  0  0  0  0
  188.2290  178.2850  140.7250 C   0  0  0  0  0  2  0  0  0  0  0  0
  188.6360  177.9770  139.3000 C   0  0  0  0  0  2  0  0  0  0  0  0
  188.9810  179.1640  138.6490 O   0  0  0  0  0  0  0  0  0  0  0  0
  188.9910  178.8480  137.3310 N   0  0  0  0  0  0  0  0  0  0  0  0
  189.7300  177.6040  137.2030 C   0  0  0  0  0  1  0  0  0  0  0  0
  187.6190  178.5510  136.9580 C   0  0  0  0  0  1  0  0  0  0  0  0
  1  4  2  0  0  0  0
  1 13  1  0  0  0  0
  2 18  1  0  0  0  0
  2  1  1  0  0  0  0
  4  7  1  0  0  0  0
  5  8  1  0  0  0  0
  6  3  1  0  0  0  0
  7  8  2  0  0  0  0
  7 14  1  0  0  0  0
  9 10  1  0  0  0  0
  9 18  1  0  0  0  0
 11  2  2  0  0  0  0
 12  5  2  0  0  0  0
 13  3  2  0  0  0  0
 13 14  1  0  0  0  0
 15  9  1  0  0  0  0
 16 12  1  0  0  0  0
 16  4  1  0  0  0  0
 17 15  2  0  0  0  0
 17 11  1  0  0  0  0
 18  6  2  0  0  0  0
 19 17  1  0  0  0  0
 20 19  1  0  0  0  0
 21 20  1  0  0  0  0
 22 21  1  0  0  0  0
 23 22  1  0  0  0  0
 24 23  1  0  0  0  0
 25 23  1  0  0  0  0
M  END
>  <MODEL>
1

>  <REMARK>
 VINA RESULT:      -9.1      0.000      0.000
  Name = 
  5 active torsions:
  status: ('A' for Active; 'I' for Inactive)
    1  A    between atoms: N_2  and  O_25
    2  A    between atoms: C_6  and  C_15
    3  A    between atoms: C_6  and  C_23
    4  A    between atoms: C_15  and  C_21
    5  A    between atoms: C_21  and  O_25
                            x       y       z     vdW  Elec       q    Type
                         _______ _______ _______ _____ _____    ______ ____

>  <TORSDO>
F 5

$$$$
=
 OpenBabel10272400483D

 25 28  0  0  0  0  0  0  0  0999 V2000
  187.0350  177.9440  145.2650 C   0  0  0  0  0  0  0  0  0  0  0  0
  188.2450  177.5630  144.6570 C   0  0  0  0  0  0  0  0  0  0  0  0
  188.0160  177.6210  147.4580 C   0  0  0  0  0  3  0  0  0  0  0  0
  185.8280  178.3340  144.6560 C   0  0  0  0  0  0  0  0  0  0  0  0
  183.2940  179.1460  143.8830 C   0  0  0  0  0  3  0  0  0  0  0  0
  189.1820  177.2550  146.8600 N   0  0  0  0  0  0  0  0  0  0  0  0
  184.8390  178.6430  145.5820 C   0  0  0  0  0  0  0  0  0  0  0  0
  183.5980  179.0410  145.2090 N   0  0  0  0  0  0  0  0  0  0  0  0
  190.5730  176.8090  144.9170 N   0  0  0  0  0  0  0  0  0  0  0  0
  191.7150  176.4810  145.7530 C   0  0  0  0  0  1  0  0  0  0  0  0
  188.4130  177.5710  143.1590 C   0  0  0  0  0  3  0  0  0  0  0  0
  184.2590  178.8450  142.9040 C   0  0  0  0  0  3  0  0  0  0  0  0
  186.9380  177.9660  146.6550 C   0  0  0  0  0  0  0  0  0  0  0  0
  185.4010  178.4530  147.1570 S   0  0  0  0  0  0  0  0  0  0  0  0
  190.7020  176.6590  143.5000 C   0  0  0  0  0  3  0  0  0  0  0  0
  185.5430  178.4330  143.2920 C   0  0  0  0  0  2  0  0  0  0  0  0
  189.7020  176.9670  142.6700 C   0  0  0  0  0  0  0  0  0  0  0  0
  189.3260  177.2170  145.4990 C   0  0  0  0  0  0  0  0  0  0  0  0
  189.8960  176.8120  141.2000 C   0  0  0  0  0  2  0  0  0  0  0  0
  188.8730  177.6340  140.4390 C   0  0  0  0  0  2  0  0  0  0  0  0
  189.4330  178.0020  139.0810 C   0  0  0  0  0  2  0  0  0  0  0  0
  188.8430  179.1900  138.6410 O   0  0  0  0  0  0  0  0  0  0  0  0
  188.6530  179.0120  137.3120 N   0  0  0  0  0  0  0  0  0  0  0  0
  189.5280  177.9270  136.9030 C   0  0  0  0  0  1  0  0  0  0  0  0
  187.2930  178.5300  137.1410 C   0  0  0  0  0  1  0  0  0  0  0  0
  1 13  1  0  0  0  0
  2  1  1  0  0  0  0
  2 18  1  0  0  0  0
  4  1  2  0  0  0  0
  4  7  1  0  0  0  0
  5  8  1  0  0  0  0
  6  3  1  0  0  0  0
  7 14  1  0  0  0  0
  8  7  2  0  0  0  0
  9 18  1  0  0  0  0
  9 10  1  0  0  0  0
 11  2  2  0  0  0  0
 12 16  1  0  0  0  0
 12  5  2  0  0  0  0
 13 14  1  0  0  0  0
 13  3  2  0  0  0  0
 15  9  1  0  0  0  0
 16  4  1  0  0  0  0
 17 11  1  0  0  0  0
 17 15  2  0  0  0  0
 18  6  2  0  0  0  0
 19 17  1  0  0  0  0
 20 19  1  0  0  0  0
 21 20  1  0  0  0  0
 22 21  1  0  0  0  0
 23 22  1  0  0  0  0
 24 23  1  0  0  0  0
 25 23  1  0  0  0  0
M  END
>  <MODEL>
2

>  <REMARK>
 VINA RESULT:      -8.9      1.323      4.482
  Name = 
  5 active torsions:
  status: ('A' for Active; 'I' for Inactive)
    1  A    between atoms: N_2  and  O_25
    2  A    between atoms: C_6  and  C_15
    3  A    between atoms: C_6  and  C_23
    4  A    between atoms: C_15  and  C_21
    5  A    between atoms: C_21  and  O_25
                            x       y       z     vdW  Elec       q    Type
                         _______ _______ _______ _____ _____    ______ ____

>  <TORSDO>
F 5

$$$$
=
 OpenBabel10272400483D

 25 28  0  0  0  0  0  0  0  0999 V2000
  187.4410  177.7990  145.6880 C   0  0  0  0  0  0  0  0  0  0  0  0
  188.7880  177.4220  145.5460 C   0  0  0  0  0  0  0  0  0  0  0  0
  187.6850  177.8250  148.0990 C   0  0  0  0  0  3  0  0  0  0  0  0
  186.4810  178.0290  144.6850 C   0  0  0  0  0  0  0  0  0  0  0  0
  184.3040  178.5700  143.0580 C   0  0  0  0  0  3  0  0  0  0  0  0
  188.9880  177.4610  147.9500 N   0  0  0  0  0  0  0  0  0  0  0  0
  185.2440  178.3910  145.2050 C   0  0  0  0  0  0  0  0  0  0  0  0
  184.1760  178.6570  144.4130 N   0  0  0  0  0  0  0  0  0  0  0  0
  190.9300  176.8590  146.6190 N   0  0  0  0  0  0  0  0  0  0  0  0
  191.7560  176.7150  147.8060 C   0  0  0  0  0  1  0  0  0  0  0  0
  189.4210  177.2470  144.1890 C   0  0  0  0  0  3  0  0  0  0  0  0
  185.5350  178.2080  142.4800 C   0  0  0  0  0  3  0  0  0  0  0  0
  186.9090  177.9940  146.9610 C   0  0  0  0  0  0  0  0  0  0  0  0
  185.2830  178.4420  146.8870 S   0  0  0  0  0  0  0  0  0  0  0  0
  191.5030  176.5350  145.3490 C   0  0  0  0  0  3  0  0  0  0  0  0
  186.6380  177.9320  143.3010 C   0  0  0  0  0  2  0  0  0  0  0  0
  190.8110  176.6690  144.2140 C   0  0  0  0  0  0  0  0  0  0  0  0
  189.5550  177.2570  146.7210 C   0  0  0  0  0  0  0  0  0  0  0  0
  191.4610  176.3380  142.9150 C   0  0  0  0  0  2  0  0  0  0  0  0
  191.5410  177.5680  142.0310 C   0  0  0  0  0  2  0  0  0  0  0  0
  191.0340  177.2250  140.6450 C   0  0  0  0  0  2  0  0  0  0  0  0
  189.7490  176.6860  140.7410 O   0  0  0  0  0  0  0  0  0  0  0  0
  189.1100  177.1110  139.6250 N   0  0  0  0  0  0  0  0  0  0  0  0
  188.5140  178.3970  139.9440 C   0  0  0  0  0  1  0  0  0  0  0  0
  190.1330  177.3680  138.6260 C   0  0  0  0  0  1  0  0  0  0  0  0
  1 13  1  0  0  0  0
  2  1  1  0  0  0  0
  2 18  1  0  0  0  0
  4  7  1  0  0  0  0
  4  1  2  0  0  0  0
  5  8  1  0  0  0  0
  6  3  1  0  0  0  0
  7 14  1  0  0  0  0
  8  7  2  0  0  0  0
  9 18  1  0  0  0  0
  9 10  1  0  0  0  0
 11 17  1  0  0  0  0
 11  2  2  0  0  0  0
 12  5  2  0  0  0  0
 12 16  1  0  0  0  0
 13  3  2  0  0  0  0
 14 13  1  0  0  0  0
 15  9  1  0  0  0  0
 16  4  1  0  0  0  0
 17 15  2  0  0  0  0
 18  6  2  0  0  0  0
 19 17  1  0  0  0  0
 20 19  1  0  0  0  0
 21 22  1  0  0  0  0
 21 20  1  0  0  0  0
 23 24  1  0  0  0  0
 23 22  1  0  0  0  0
 25 23  1  0  0  0  0
M  END
>  <MODEL>
3

>  <REMARK>
 VINA RESULT:      -8.9      1.646      4.870
  Name = 
  5 active torsions:
  status: ('A' for Active; 'I' for Inactive)
    1  A    between atoms: N_2  and  O_25
    2  A    between atoms: C_6  and  C_15
    3  A    between atoms: C_6  and  C_23
    4  A    between atoms: C_15  and  C_21
    5  A    between atoms: C_21  and  O_25
                            x       y       z     vdW  Elec       q    Type
                         _______ _______ _______ _____ _____    ______ ____

>  <TORSDO>
F 5

$$$$
=
 OpenBabel10272400483D

 25 28  0  0  1  0  0  0  0  0999 V2000
  186.1160  178.4320  142.8870 C   0  0  0  0  0  0  0  0  0  0  0  0
  187.3000  178.1110  142.1990 C   0  0  0  0  0  0  0  0  0  0  0  0
  185.0520  179.0550  140.8010 C   0  0  0  0  0  3  0  0  0  0  0  0
  185.8510  178.3490  144.2660 C   0  0  0  0  0  0  0  0  0  0  0  0
  184.9110  178.3450  146.8730 C   0  0  0  0  0  3  0  0  0  0  0  0
  186.2010  178.7410  140.1440 N   0  0  0  0  0  0  0  0  0  0  0  0
  184.5600  178.7520  144.5850 C   0  0  2  0  0  3  0  0  0  0  0  0
  184.0950  178.7510  145.8590 N   0  0  0  0  0  0  0  0  0  0  0  0
  188.5070  177.9750  140.0580 N   0  0  0  0  0  0  0  0  0  0  0  0
  188.5420  178.1020  138.6110 C   0  0  0  0  0  1  0  0  0  0  0  0
  188.5050  177.5550  142.9140 C   0  0  0  0  0  3  0  0  0  0  0  0
  186.2280  177.9270  146.6050 C   0  0  0  0  0  3  0  0  0  0  0  0
  185.0110  178.9000  142.1790 C   0  0  0  0  0  0  0  0  0  0  0  0
  183.7110  179.2170  143.2080 S   0  0  0  0  0  0  0  0  0  0  0  0
  189.7070  177.5980  140.7370 C   0  0  0  0  0  3  0  0  0  0  0  0
  186.7070  177.9280  145.2860 C   0  0  0  0  0  3  0  0  0  0  0  0
  189.7410  177.4360  142.0630 C   0  0  0  0  0  0  0  0  0  0  0  0
  187.3130  178.2780  140.7950 C   0  0  0  0  0  0  0  0  0  0  0  0
  191.0130  177.0220  142.7190 C   0  0  0  0  0  2  0  0  0  0  0  0
  191.4510  178.0610  143.7350 C   0  0  0  0  0  2  0  0  0  0  0  0
  190.9840  177.6440  145.1140 C   0  0  0  0  0  2  0  0  0  0  0  0
  192.0150  176.9600  145.7650 O   0  0  0  0  0  0  0  0  0  0  0  0
  191.6550  176.9520  147.0710 N   0  0  0  0  0  0  0  0  0  0  0  0
  190.2080  176.8320  147.1090 C   0  0  0  0  0  1  0  0  0  0  0  0
  192.1840  175.7260  147.6460 C   0  0  0  0  0  1  0  0  0  0  0  0
  1  4  2  0  0  0  0
  2  1  1  0  0  0  0
  2 11  2  0  0  0  0
  3 13  2  0  0  0  0
  4  7  1  0  0  0  0
  4 16  1  0  0  0  0
  6 18  2  0  0  0  0
  6  3  1  0  0  0  0
  7 14  1  6  0  0  0
  7  8  1  0  0  0  0
  8  5  2  0  0  0  0
  9 15  1  0  0  0  0
  9 18  1  0  0  0  0
 10  9  1  0  0  0  0
 12  5  1  0  0  0  0
 13  1  1  0  0  0  0
 13 14  1  0  0  0  0
 15 17  2  0  0  0  0
 16 12  2  0  0  0  0
 17 19  1  0  0  0  0
 17 11  1  0  0  0  0
 18  2  1  0  0  0  0
 19 20  1  0  0  0  0
 20 21  1  0  0  0  0
 21 22  1  0  0  0  0
 22 23  1  0  0  0  0
 23 24  1  0  0  0  0
 23 25  1  0  0  0  0
M  END
>  <MODEL>
4

>  <REMARK>
 VINA RESULT:      -8.8      2.615      6.336
  Name = 
  5 active torsions:
  status: ('A' for Active; 'I' for Inactive)
    1  A    between atoms: N_2  and  O_25
    2  A    between atoms: C_6  and  C_15
    3  A    between atoms: C_6  and  C_23
    4  A    between atoms: C_15  and  C_21
    5  A    between atoms: C_21  and  O_25
                            x       y       z     vdW  Elec       q    Type
                         _______ _______ _______ _____ _____    ______ ____

>  <TORSDO>
F 5

$$$$
=
 OpenBabel10272400483D

 25 28  0  0  0  0  0  0  0  0999 V2000
  187.0110  177.8470  145.1860 C   0  0  0  0  0  0  0  0  0  0  0  0
  188.3090  177.4730  144.7940 C   0  0  0  0  0  0  0  0  0  0  0  0
  187.6630  177.7260  147.5180 C   0  0  0  0  0  3  0  0  0  0  0  0
  185.8980  178.1400  144.3770 C   0  0  0  0  0  0  0  0  0  0  0  0
  183.4850  178.7880  143.1800 C   0  0  0  0  0  3  0  0  0  0  0  0
  188.9150  177.3660  147.1280 N   0  0  0  0  0  0  0  0  0  0  0  0
  184.7730  178.4750  145.1210 C   0  0  0  0  0  0  0  0  0  0  0  0
  183.5900  178.7930  144.5390 N   0  0  0  0  0  0  0  0  0  0  0  0
  190.5940  176.8370  145.4520 N   0  0  0  0  0  0  0  0  0  0  0  0
  191.6070  176.6190  146.4700 C   0  0  0  0  0  1  0  0  0  0  0  0
  188.7000  177.3770  143.3420 C   0  0  0  0  0  3  0  0  0  0  0  0
  184.5940  178.4550  142.3800 C   0  0  0  0  0  3  0  0  0  0  0  0
  186.7070  177.9660  146.5410 C   0  0  0  0  0  0  0  0  0  0  0  0
  185.0980  178.4250  146.7710 S   0  0  0  0  0  0  0  0  0  0  0  0
  190.9380  176.5890  144.0860 C   0  0  0  0  0  3  0  0  0  0  0  0
  185.8170  178.1270  142.9830 C   0  0  0  0  0  2  0  0  0  0  0  0
  190.0650  176.7930  143.0960 C   0  0  0  0  0  0  0  0  0  0  0  0
  189.2630  177.2350  145.8100 C   0  0  0  0  0  0  0  0  0  0  0  0
  190.4810  176.5380  141.6880 C   0  0  0  0  0  2  0  0  0  0  0  0
  189.7050  177.4280  140.7340 C   0  0  0  0  0  2  0  0  0  0  0  0
  189.9250  176.9550  139.3130 C   0  0  0  0  0  2  0  0  0  0  0  0
  190.7010  175.7920  139.3260 O   0  0  0  0  0  0  0  0  0  0  0  0
  190.6480  175.3260  138.0550 N   0  0  0  0  0  0  0  0  0  0  0  0
  190.3810  176.4670  137.1980 C   0  0  0  0  0  1  0  0  0  0  0  0
  191.9840  174.8640  137.7200 C   0  0  0  0  0  1  0  0  0  0  0  0
  1 13  1  0  0  0  0
  2  1  1  0  0  0  0
  2 18  1  0  0  0  0
  4  7  1  0  0  0  0
  4  1  2  0  0  0  0
  5  8  1  0  0  0  0
  6  3  1  0  0  0  0
  7 14  1  0  0  0  0
  8  7  2  0  0  0  0
  9 18  1  0  0  0  0
  9 10  1  0  0  0  0
 11  2  2  0  0  0  0
 12 16  1  0  0  0  0
 12  5  2  0  0  0  0
 13 14  1  0  0  0  0
 13  3  2  0  0  0  0
 15  9  1  0  0  0  0
 16  4  1  0  0  0  0
 17 11  1  0  0  0  0
 17 15  2  0  0  0  0
 18  6  2  0  0  0  0
 19 17  1  0  0  0  0
 20 19  1  0  0  0  0
 21 22  1  0  0  0  0
 21 20  1  0  0  0  0
 23 22  1  0  0  0  0
 24 23  1  0  0  0  0
 25 23  1  0  0  0  0
M  END
>  <MODEL>
5

>  <REMARK>
 VINA RESULT:      -8.7      1.933      4.839
  Name = 
  5 active torsions:
  status: ('A' for Active; 'I' for Inactive)
    1  A    between atoms: N_2  and  O_25
    2  A    between atoms: C_6  and  C_15
    3  A    between atoms: C_6  and  C_23
    4  A    between atoms: C_15  and  C_21
    5  A    between atoms: C_21  and  O_25
                            x       y       z     vdW  Elec       q    Type
                         _______ _______ _______ _____ _____    ______ ____

>  <TORSDO>
F 5

$$$$
=
 OpenBabel10272400483D

 25 28  0  0  0  0  0  0  0  0999 V2000
  187.4370  177.8760  145.7650 C   0  0  0  0  0  0  0  0  0  0  0  0
  186.5880  178.1400  144.6760 C   0  0  0  0  0  0  0  0  0  0  0  0
  185.6450  178.4000  147.3110 C   0  0  0  0  0  3  0  0  0  0  0  0
  188.7840  177.4690  145.7530 C   0  0  0  0  0  0  0  0  0  0  0  0
  191.4040  176.6770  146.1860 C   0  0  0  0  0  3  0  0  0  0  0  0
  184.8310  178.6520  146.2490 N   0  0  0  0  0  0  0  0  0  0  0  0
  189.3020  177.3030  147.0320 C   0  0  0  0  0  0  0  0  0  0  0  0
  190.5830  176.9150  147.2480 N   0  0  0  0  0  0  0  0  0  0  0  0
  184.3660  178.8260  143.8700 N   0  0  0  0  0  0  0  0  0  0  0  0
  182.9850  179.1990  144.1220 C   0  0  0  0  0  1  0  0  0  0  0  0
  187.0500  177.9610  143.2520 C   0  0  0  0  0  3  0  0  0  0  0  0
  190.9290  176.8310  144.8690 C   0  0  0  0  0  3  0  0  0  0  0  0
  186.9550  178.0110  147.0650 C   0  0  0  0  0  0  0  0  0  0  0  0
  188.1450  177.6430  148.2050 S   0  0  0  0  0  0  0  0  0  0  0  0
  184.8320  178.8140  142.5180 C   0  0  0  0  0  3  0  0  0  0  0  0
  189.6040  177.2320  144.6470 C   0  0  0  0  0  2  0  0  0  0  0  0
  186.0820  178.4570  142.2110 C   0  0  0  0  0  0  0  0  0  0  0  0
  185.2600  178.5340  144.9540 C   0  0  0  0  0  0  0  0  0  0  0  0
  186.5110  178.4420  140.7840 C   0  0  0  0  0  2  0  0  0  0  0  0
  185.3300  178.7120  139.8700 C   0  0  0  0  0  2  0  0  0  0  0  0
  185.7320  178.4410  138.4360 C   0  0  0  0  0  2  0  0  0  0  0  0
  187.1230  178.3250  138.3570 O   0  0  0  0  0  0  0  0  0  0  0  0
  187.4600  178.9620  137.2110 N   0  0  0  0  0  0  0  0  0  0  0  0
  188.9010  179.1400  137.2360 C   0  0  0  0  0  1  0  0  0  0  0  0
  187.1780  178.0450  136.1200 C   0  0  0  0  0  1  0  0  0  0  0  0
  1 13  1  0  0  0  0
  2 18  1  0  0  0  0
  2  1  1  0  0  0  0
  4  1  2  0  0  0  0
  4  7  1  0  0  0  0
  5  8  1  0  0  0  0
  6  3  1  0  0  0  0
  7  8  2  0  0  0  0
  7 14  1  0  0  0  0
  9 10  1  0  0  0  0
  9 18  1  0  0  0  0
 11  2  2  0  0  0  0
 12  5  2  0  0  0  0
 13  3  2  0  0  0  0
 13 14  1  0  0  0  0
 15  9  1  0  0  0  0
 16 12  1  0  0  0  0
 16  4  1  0  0  0  0
 17 15  2  0  0  0  0
 17 11  1  0  0  0  0
 18  6  2  0  0  0  0
 19 17  1  0  0  0  0
 20 19  1  0  0  0  0
 21 20  1  0  0  0  0
 22 21  1  0  0  0  0
 23 24  1  0  0  0  0
 23 22  1  0  0  0  0
 25 23  1  0  0  0  0
M  END
>  <MODEL>
6

>  <REMARK>
 VINA RESULT:      -8.7      0.892      1.095
  Name = 
  5 active torsions:
  status: ('A' for Active; 'I' for Inactive)
    1  A    between atoms: N_2  and  O_25
    2  A    between atoms: C_6  and  C_15
    3  A    between atoms: C_6  and  C_23
    4  A    between atoms: C_15  and  C_21
    5  A    between atoms: C_21  and  O_25
                            x       y       z     vdW  Elec       q    Type
                         _______ _______ _______ _____ _____    ______ ____

>  <TORSDO>
F 5

$$$$
=
 OpenBabel10272400483D

 25 28  0  0  0  0  0  0  0  0999 V2000
  189.3800  177.5540  143.9230 C   0  0  0  0  0  0  0  0  0  0  0  0
  188.3720  177.7420  144.8860 C   0  0  0  0  0  0  0  0  0  0  0  0
  190.9930  177.1050  145.6760 C   0  0  0  0  0  3  0  0  0  0  0  0
  189.2840  177.6360  142.5220 C   0  0  0  0  0  0  0  0  0  0  0  0
  189.5440  177.6990  139.7640 C   0  0  0  0  0  3  0  0  0  0  0  0
  190.0100  177.2870  146.5990 N   0  0  0  0  0  0  0  0  0  0  0  0
  190.4970  177.3870  141.8900 C   0  0  0  0  0  0  0  0  0  0  0  0
  190.6290  177.4160  140.5410 N   0  0  0  0  0  0  0  0  0  0  0  0
  187.7270  177.7940  147.2610 N   0  0  0  0  0  0  0  0  0  0  0  0
  188.0480  177.6190  148.6670 C   0  0  0  0  0  1  0  0  0  0  0  0
  186.9470  178.0340  144.4920 C   0  0  0  0  0  3  0  0  0  0  0  0
  188.2930  177.9590  140.3530 C   0  0  0  0  0  3  0  0  0  0  0  0
  190.6750  177.2410  144.3310 C   0  0  0  0  0  0  0  0  0  0  0  0
  191.7100  177.0620  143.0100 S   0  0  0  0  0  0  0  0  0  0  0  0
  186.4090  178.2270  146.9120 C   0  0  0  0  0  3  0  0  0  0  0  0
  188.1580  177.9290  141.7490 C   0  0  0  0  0  2  0  0  0  0  0  0
  186.0370  178.3830  145.6390 C   0  0  0  0  0  0  0  0  0  0  0  0
  188.7240  177.5970  146.2470 C   0  0  0  0  0  0  0  0  0  0  0  0
  184.6450  178.8160  145.3300 C   0  0  0  0  0  2  0  0  0  0  0  0
  184.5820  179.4700  143.9620 C   0  0  0  0  0  2  0  0  0  0  0  0
  183.6330  178.6920  143.0760 C   0  0  0  0  0  2  0  0  0  0  0  0
  184.3260  178.2140  141.9600 O   0  0  0  0  0  0  0  0  0  0  0  0
  183.8340  178.9230  140.9160 N   0  0  0  0  0  0  0  0  0  0  0  0
  184.7040  178.6610  139.7830 C   0  0  0  0  0  1  0  0  0  0  0  0
  182.5430  178.3440  140.5850 C   0  0  0  0  0  1  0  0  0  0  0  0
  1 13  1  0  0  0  0
  1  2  1  0  0  0  0
  2 18  1  0  0  0  0
  3  6  1  0  0  0  0
  4  1  2  0  0  0  0
  5 12  2  0  0  0  0
  5  8  1  0  0  0  0
  7  4  1  0  0  0  0
  7 14  1  0  0  0  0
  8  7  2  0  0  0  0
  9 10  1  0  0  0  0
 11  2  2  0  0  0  0
 11 17  1  0  0  0  0
 12 16  1  0  0  0  0
 13  3  2  0  0  0  0
 14 13  1  0  0  0  0
 15  9  1  0  0  0  0
 16  4  1  0  0  0  0
 17 15  2  0  0  0  0
 18  6  2  0  0  0  0
 18  9  1  0  0  0  0
 19 17  1  0  0  0  0
 20 19  1  0  0  0  0
 21 20  1  0  0  0  0
 22 21  1  0  0  0  0
 23 22  1  0  0  0  0
 24 23  1  0  0  0  0
 25 23  1  0  0  0  0
M  END
>  <MODEL>
7

>  <REMARK>
 VINA RESULT:      -8.6      2.460      5.138
  Name = 
  5 active torsions:
  status: ('A' for Active; 'I' for Inactive)
    1  A    between atoms: N_2  and  O_25
    2  A    between atoms: C_6  and  C_15
    3  A    between atoms: C_6  and  C_23
    4  A    between atoms: C_15  and  C_21
    5  A    between atoms: C_21  and  O_25
                            x       y       z     vdW  Elec       q    Type
                         _______ _______ _______ _____ _____    ______ ____

>  <TORSDO>
F 5

$$$$
=
 OpenBabel10272400483D

 25 28  0  0  0  0  0  0  0  0999 V2000
  187.6890  177.7790  145.7440 C   0  0  0  0  0  0  0  0  0  0  0  0
  186.9410  178.0350  144.5800 C   0  0  0  0  0  0  0  0  0  0  0  0
  185.7600  178.3010  147.1170 C   0  0  0  0  0  3  0  0  0  0  0  0
  189.0320  177.3770  145.8560 C   0  0  0  0  0  0  0  0  0  0  0  0
  191.6040  176.5970  146.5290 C   0  0  0  0  0  3  0  0  0  0  0  0
  185.0460  178.5450  145.9850 N   0  0  0  0  0  0  0  0  0  0  0  0
  189.4320  177.2180  147.1770 C   0  0  0  0  0  0  0  0  0  0  0  0
  190.6900  176.8360  147.5120 N   0  0  0  0  0  0  0  0  0  0  0  0
  184.7990  178.7090  143.5730 N   0  0  0  0  0  0  0  0  0  0  0  0
  183.3990  179.0770  143.6960 C   0  0  0  0  0  1  0  0  0  0  0  0
  187.5310  177.8530  143.2060 C   0  0  0  0  0  3  0  0  0  0  0  0
  191.2520  176.7440  145.1740 C   0  0  0  0  0  3  0  0  0  0  0  0
  187.0890  177.9170  146.9940 C   0  0  0  0  0  0  0  0  0  0  0  0
  188.1710  177.5570  148.2390 S   0  0  0  0  0  0  0  0  0  0  0  0
  185.3870  178.6950  142.2690 C   0  0  0  0  0  3  0  0  0  0  0  0
  189.9500  177.1400  144.8310 C   0  0  0  0  0  2  0  0  0  0  0  0
  186.6610  178.3410  142.0790 C   0  0  0  0  0  0  0  0  0  0  0  0
  185.5910  178.4250  144.7350 C   0  0  0  0  0  0  0  0  0  0  0  0
  187.2180  178.3220  140.6970 C   0  0  0  0  0  2  0  0  0  0  0  0
  188.6740  177.8930  140.7160 C   0  0  0  0  0  2  0  0  0  0  0  0
  189.0780  177.4260  139.3330 C   0  0  0  0  0  2  0  0  0  0  0  0
  190.4620  177.2330  139.2940 O   0  0  0  0  0  0  0  0  0  0  0  0
  190.6240  175.9720  138.8270 N   0  0  0  0  0  0  0  0  0  0  0  0
  189.6410  175.7830  137.7750 C   0  0  0  0  0  1  0  0  0  0  0  0
  191.9270  175.9240  138.1860 C   0  0  0  0  0  1  0  0  0  0  0  0
  1  4  2  0  0  0  0
  1 13  1  0  0  0  0
  2 18  1  0  0  0  0
  2  1  1  0  0  0  0
  4  7  1  0  0  0  0
  5  8  1  0  0  0  0
  6  3  1  0  0  0  0
  7  8  2  0  0  0  0
  7 14  1  0  0  0  0
  9 10  1  0  0  0  0
  9 18  1  0  0  0  0
 11  2  2  0  0  0  0
 12  5  2  0  0  0  0
 13  3  2  0  0  0  0
 13 14  1  0  0  0  0
 15  9  1  0  0  0  0
 16 12  1  0  0  0  0
 16  4  1  0  0  0  0
 17 15  2  0  0  0  0
 17 11  1  0  0  0  0
 18  6  2  0  0  0  0
 19 20  1  0  0  0  0
 19 17  1  0  0  0  0
 21 20  1  0  0  0  0
 22 21  1  0  0  0  0
 23 22  1  0  0  0  0
 24 23  1  0  0  0  0
 25 23  1  0  0  0  0
M  END
>  <MODEL>
8

>  <REMARK>
 VINA RESULT:      -8.6      1.181      1.453
  Name = 
  5 active torsions:
  status: ('A' for Active; 'I' for Inactive)
    1  A    between atoms: N_2  and  O_25
    2  A    between atoms: C_6  and  C_15
    3  A    between atoms: C_6  and  C_23
    4  A    between atoms: C_15  and  C_21
    5  A    between atoms: C_21  and  O_25
                            x       y       z     vdW  Elec       q    Type
                         _______ _______ _______ _____ _____    ______ ____

>  <TORSDO>
F 5

$$$$
=
 OpenBabel10272400483D

 25 28  0  0  0  0  0  0  0  0999 V2000
  189.5680  177.4380  144.1380 C   0  0  0  0  0  0  0  0  0  0  0  0
  188.9650  177.7590  142.9090 C   0  0  0  0  0  0  0  0  0  0  0  0
  191.6230  176.8460  142.9950 C   0  0  0  0  0  3  0  0  0  0  0  0
  189.0200  177.5060  145.4320 C   0  0  0  0  0  0  0  0  0  0  0  0
  188.3470  177.4850  148.1200 C   0  0  0  0  0  3  0  0  0  0  0  0
  191.0300  177.1610  141.8110 N   0  0  0  0  0  0  0  0  0  0  0  0
  189.9190  177.1070  146.4130 C   0  0  0  0  0  0  0  0  0  0  0  0
  189.5940  177.0960  147.7300 N   0  0  0  0  0  0  0  0  0  0  0  0
  189.1540  177.9130  140.4600 N   0  0  0  0  0  0  0  0  0  0  0  0
  189.9330  177.8030  139.2380 C   0  0  0  0  0  1  0  0  0  0  0  0
  187.5600  178.2980  142.8350 C   0  0  0  0  0  3  0  0  0  0  0  0
  187.3980  177.8970  147.1660 C   0  0  0  0  0  3  0  0  0  0  0  0
  190.8860  176.9850  144.1630 C   0  0  0  0  0  0  0  0  0  0  0  0
  191.3960  176.6650  145.7400 S   0  0  0  0  0  0  0  0  0  0  0  0
  187.7740  178.2740  140.3570 C   0  0  0  0  0  3  0  0  0  0  0  0
  187.7350  177.9090  145.8040 C   0  0  0  0  0  2  0  0  0  0  0  0
  187.0060  178.4190  141.4400 C   0  0  0  0  0  0  0  0  0  0  0  0
  189.7380  177.6090  141.7350 C   0  0  0  0  0  0  0  0  0  0  0  0
  185.5790  178.8170  141.2790 C   0  0  0  0  0  2  0  0  0  0  0  0
  184.8270  178.6440  142.5860 C   0  0  0  0  0  2  0  0  0  0  0  0
  183.3380  178.6620  142.3150 C   0  0  0  0  0  2  0  0  0  0  0  0
  182.6480  178.8070  143.5220 O   0  0  0  0  0  0  0  0  0  0  0  0
  181.4350  179.2980  143.1730 N   0  0  0  0  0  0  0  0  0  0  0  0
  181.2130  178.9240  141.7870 C   0  0  0  0  0  1  0  0  0  0  0  0
  180.4470  178.5760  143.9570 C   0  0  0  0  0  1  0  0  0  0  0  0
  1 13  1  0  0  0  0
  1  4  2  0  0  0  0
  2  1  1  0  0  0  0
  3 13  2  0  0  0  0
  4 16  1  0  0  0  0
  4  7  1  0  0  0  0
  6  3  1  0  0  0  0
  7  8  2  0  0  0  0
  8  5  1  0  0  0  0
  9 18  1  0  0  0  0
 10  9  1  0  0  0  0
 11  2  2  0  0  0  0
 12  5  2  0  0  0  0
 13 14  1  0  0  0  0
 14  7  1  0  0  0  0
 15  9  1  0  0  0  0
 15 17  2  0  0  0  0
 16 12  1  0  0  0  0
 17 11  1  0  0  0  0
 18  6  2  0  0  0  0
 18  2  1  0  0  0  0
 19 17  1  0  0  0  0
 19 20  1  0  0  0  0
 21 20  1  0  0  0  0
 21 22  1  0  0  0  0
 23 22  1  0  0  0  0
 23 25  1  0  0  0  0
 24 23  1  0  0  0  0
M  END
>  <MODEL>
9

>  <REMARK>
 VINA RESULT:      -8.2      2.611      5.542
  Name = 
  5 active torsions:
  status: ('A' for Active; 'I' for Inactive)
    1  A    between atoms: N_2  and  O_25
    2  A    between atoms: C_6  and  C_15
    3  A    between atoms: C_6  and  C_23
    4  A    between atoms: C_15  and  C_21
    5  A    between atoms: C_21  and  O_25
                            x       y       z     vdW  Elec       q    Type
                         _______ _______ _______ _____ _____    ______ ____

>  <TORSDO>
F 5

$$$$
