=
 OpenBabel10272415093D

 34 38  0  0  1  0  0  0  0  0999 V2000
  185.3710  178.7910  140.2460 C   0  0  0  0  0  0  0  0  0  0  0  0
  187.7980  177.1420  137.8520 C   0  0  0  0  0  2  0  0  0  0  0  0
  190.7570  177.1110  139.6250 C   0  0  0  0  0  0  0  0  0  0  0  0
  185.4050  177.6200  137.6900 N   0  0  0  0  0  0  0  0  0  0  0  0
  182.8660  179.0140  139.9750 C   0  0  0  0  0  3  0  0  0  0  0  0
  181.8940  177.7610  138.1160 C   0  0  0  0  0  3  0  0  0  0  0  0
  191.1700  177.1270  140.8160 O   0  0  0  0  0  0  0  0  0  0  0  0
  181.7910  178.4580  139.4140 C   0  0  0  0  0  3  0  0  0  0  0  0
  184.2620  178.0490  138.1350 C   0  0  0  0  0  0  0  0  0  0  0  0
  184.2140  179.0320  139.2900 C   0  0  2  0  0  3  0  0  0  0  0  0
  183.0470  177.5720  137.5460 N   0  0  0  0  0  0  0  0  0  0  0  0
  189.1350  177.8700  137.8660 C   0  0  0  0  0  2  0  0  0  0  0  0
  191.3850  176.2450  138.6840 N   0  0  0  0  0  1  0  0  0  0  0  0
  189.6640  177.9510  139.2230 N   0  0  0  0  0  0  0  0  0  0  0  0
  188.9760  178.7790  140.2080 C   0  0  0  0  0  2  0  0  0  0  0  0
  186.6710  178.0890  138.2530 C   0  0  1  0  0  3  0  0  0  0  0  0
  187.7170  178.0680  140.6800 C   0  0  0  0  0  2  0  0  0  0  0  0
  186.5510  178.3260  139.7550 C   0  0  0  0  0  0  0  0  0  0  0  0
  185.2350  179.1910  141.6920 C   0  0  0  0  0  2  0  0  0  0  0  0
  184.7480  178.0640  142.4750 N   0  0  0  0  0  2  0  0  0  0  0  0
  184.5200  178.5530  143.8250 C   0  0  0  0  0  2  0  0  0  0  0  0
  186.7400  178.0810  146.8630 C   0  0  0  0  0  3  0  0  0  0  0  0
  186.9250  177.8880  144.0650 C   0  0  0  0  0  3  0  0  0  0  0  0
  190.2650  176.9820  146.4670 C   0  0  0  0  0  0  0  0  0  0  0  0
  189.0550  177.3840  147.0610 C   0  0  0  0  0  3  0  0  0  0  0  0
  187.9450  177.6870  146.2670 C   0  0  0  0  0  0  0  0  0  0  0  0
  189.2390  177.1880  144.2670 C   0  0  0  0  0  3  0  0  0  0  0  0
  188.0380  177.5890  144.8580 C   0  0  0  0  0  0  0  0  0  0  0  0
  190.3460  176.8860  145.0690 C   0  0  0  0  0  3  0  0  0  0  0  0
  185.7220  178.2850  144.6650 C   0  0  0  0  0  0  0  0  0  0  0  0
  185.6290  178.3740  146.0620 C   0  0  0  0  0  3  0  0  0  0  0  0
  191.4400  176.6660  147.3040 C   0  0  0  0  0  0  0  0  0  0  0  0
  191.7320  177.3970  148.2890 O   0  0  0  0  0  0  0  0  0  0  0  0
  192.3060  175.4850  147.0070 C   0  0  0  0  0  1  0  0  0  0  0  0
  1 19  1  0  0  0  0
  2 12  1  0  0  0  0
  3  7  2  0  0  0  0
  4  9  2  0  0  0  0
  4 16  1  0  0  0  0
  6  8  1  0  0  0  0
  8  5  2  0  0  0  0
  9 10  1  0  0  0  0
 10  5  1  1  0  0  0
 10  1  1  0  0  0  0
 11  6  2  0  0  0  0
 11  9  1  0  0  0  0
 12 14  1  0  0  0  0
 13  3  1  0  0  0  0
 14  3  1  0  0  0  0
 14 15  1  0  0  0  0
 15 17  1  0  0  0  0
 16  2  1  1  0  0  0
 16 18  1  0  0  0  0
 18  1  2  0  0  0  0
 18 17  1  0  0  0  0
 19 20  1  0  0  0  0
 20 21  1  0  0  0  0
 21 30  1  0  0  0  0
 23 30  2  0  0  0  0
 23 28  1  0  0  0  0
 24 25  1  0  0  0  0
 24 32  1  0  0  0  0
 26 22  1  0  0  0  0
 26 25  2  0  0  0  0
 27 28  2  0  0  0  0
 27 29  1  0  0  0  0
 28 26  1  0  0  0  0
 29 24  2  0  0  0  0
 30 31  1  0  0  0  0
 31 22  2  0  0  0  0
 32 33  2  0  0  0  0
 34 32  1  0  0  0  0
M  END
>  <MODEL>
1

>  <REMARK>
 VINA RESULT:     -10.4      0.000      0.000
  Name = 
  5 active torsions:
  status: ('A' for Active; 'I' for Inactive)
    1  A    between atoms: C_1  and  C_9
    2  A    between atoms: C_7  and  C_11
    3  A    between atoms: N_8  and  C_9
    4  A    between atoms: N_8  and  C_18
    5  A    between atoms: C_18  and  C_30
                            x       y       z     vdW  Elec       q    Type
                         _______ _______ _______ _____ _____    ______ ____

>  <TORSDO>
F 5

$$$$
=
 OpenBabel10272415093D

 34 38  0  0  1  0  0  0  0  0999 V2000
  183.8840  178.1750  138.4610 C   0  0  0  0  0  0  0  0  0  0  0  0
  186.0510  175.4430  136.9840 C   0  0  0  0  0  2  0  0  0  0  0  0
  189.1480  176.9420  136.7300 C   0  0  0  0  0  0  0  0  0  0  0  0
  183.7020  175.4840  137.6640 N   0  0  0  0  0  0  0  0  0  0  0  0
  181.5050  177.9600  139.2920 C   0  0  0  0  0  3  0  0  0  0  0  0
  180.6400  175.6790  139.4270 C   0  0  0  0  0  3  0  0  0  0  0  0
  189.8140  177.8760  137.2520 O   0  0  0  0  0  0  0  0  0  0  0  0
  180.6170  177.1070  139.8050 C   0  0  0  0  0  3  0  0  0  0  0  0
  182.6380  176.0290  138.1730 C   0  0  0  0  0  0  0  0  0  0  0  0
  182.5190  177.5400  138.2510 C   0  0  2  0  0  3  0  0  0  0  0  0
  181.5890  175.1970  138.6810 N   0  0  0  0  0  0  0  0  0  0  0  0
  186.9650  176.0130  135.9080 C   0  0  0  0  0  2  0  0  0  0  0  0
  189.7920  175.7060  136.4400 N   0  0  0  0  0  1  0  0  0  0  0  0
  187.7540  177.1220  136.4350 N   0  0  0  0  0  0  0  0  0  0  0  0
  187.0810  178.3620  136.8040 C   0  0  0  0  0  2  0  0  0  0  0  0
  184.7930  176.2940  137.1220 C   0  0  1  0  0  3  0  0  0  0  0  0
  186.3550  178.1740  138.1270 C   0  0  0  0  0  2  0  0  0  0  0  0
  184.9830  177.5730  137.9300 C   0  0  0  0  0  0  0  0  0  0  0  0
  183.9830  179.5180  139.1360 C   0  0  0  0  0  2  0  0  0  0  0  0
  184.7780  179.4040  140.3510 N   0  0  0  0  0  2  0  0  0  0  0  0
  183.9280  178.7880  141.3560 C   0  0  0  0  0  2  0  0  0  0  0  0
  184.7780  178.7590  145.0520 C   0  0  0  0  0  3  0  0  0  0  0  0
  185.9880  178.0930  142.6050 C   0  0  0  0  0  3  0  0  0  0  0  0
  188.0680  177.4930  146.2190 C   0  0  0  0  0  0  0  0  0  0  0  0
  186.7680  178.0290  146.2320 C   0  0  0  0  0  3  0  0  0  0  0  0
  186.0750  178.2310  145.0350 C   0  0  0  0  0  0  0  0  0  0  0  0
  187.9750  177.3600  143.7880 C   0  0  0  0  0  3  0  0  0  0  0  0
  186.6850  177.8940  143.8020 C   0  0  0  0  0  0  0  0  0  0  0  0
  188.6630  177.1610  144.9910 C   0  0  0  0  0  3  0  0  0  0  0  0
  184.6910  178.6250  142.6270 C   0  0  0  0  0  0  0  0  0  0  0  0
  184.0860  178.9500  143.8500 C   0  0  0  0  0  3  0  0  0  0  0  0
  188.8030  177.2830  147.4820 C   0  0  0  0  0  0  0  0  0  0  0  0
  189.7800  176.4880  147.5230 O   0  0  0  0  0  0  0  0  0  0  0  0
  188.4090  177.9980  148.7340 C   0  0  0  0  0  1  0  0  0  0  0  0
  1 19  1  0  0  0  0
  3  7  2  0  0  0  0
  4  9  2  0  0  0  0
  5  8  2  0  0  0  0
  6  8  1  0  0  0  0
  9 10  1  0  0  0  0
  9 11  1  0  0  0  0
 10  1  1  0  0  0  0
 10  5  1  1  0  0  0
 11  6  2  0  0  0  0
 12 14  1  0  0  0  0
 12  2  1  0  0  0  0
 13  3  1  0  0  0  0
 14  3  1  0  0  0  0
 14 15  1  0  0  0  0
 15 17  1  0  0  0  0
 16  2  1  1  0  0  0
 16  4  1  0  0  0  0
 16 18  1  0  0  0  0
 18 17  1  0  0  0  0
 18  1  2  0  0  0  0
 19 20  1  0  0  0  0
 20 21  1  0  0  0  0
 21 30  1  0  0  0  0
 23 30  2  0  0  0  0
 23 28  1  0  0  0  0
 24 25  1  0  0  0  0
 24 32  1  0  0  0  0
 26 22  1  0  0  0  0
 26 25  2  0  0  0  0
 27 28  2  0  0  0  0
 27 29  1  0  0  0  0
 28 26  1  0  0  0  0
 29 24  2  0  0  0  0
 30 31  1  0  0  0  0
 31 22  2  0  0  0  0
 32 33  2  0  0  0  0
 32 34  1  0  0  0  0
M  END
>  <MODEL>
2

>  <REMARK>
 VINA RESULT:      -9.9      2.014      2.759
  Name = 
  5 active torsions:
  status: ('A' for Active; 'I' for Inactive)
    1  A    between atoms: C_1  and  C_9
    2  A    between atoms: C_7  and  C_11
    3  A    between atoms: N_8  and  C_9
    4  A    between atoms: N_8  and  C_18
    5  A    between atoms: C_18  and  C_30
                            x       y       z     vdW  Elec       q    Type
                         _______ _______ _______ _____ _____    ______ ____

>  <TORSDO>
F 5

$$$$
=
 OpenBabel10272415093D

 34 38  0  0  1  0  0  0  0  0999 V2000
  185.2460  178.4270  138.9810 C   0  0  0  0  0  0  0  0  0  0  0  0
  188.1430  176.7410  137.2200 C   0  0  0  0  0  2  0  0  0  0  0  0
  190.7740  177.2060  139.4030 C   0  0  0  0  0  0  0  0  0  0  0  0
  185.7790  176.9650  136.6390 N   0  0  0  0  0  0  0  0  0  0  0  0
  182.8080  178.3750  138.3120 C   0  0  0  0  0  3  0  0  0  0  0  0
  182.2450  176.8210  136.5130 C   0  0  0  0  0  3  0  0  0  0  0  0
  190.9870  177.4060  140.6290 O   0  0  0  0  0  0  0  0  0  0  0  0
  181.8820  177.6560  137.6760 C   0  0  0  0  0  3  0  0  0  0  0  0
  184.5500  177.3330  136.8470 C   0  0  0  0  0  0  0  0  0  0  0  0
  184.2430  178.4390  137.8390 C   0  0  2  0  0  3  0  0  0  0  0  0
  183.4850  176.6750  136.1520 N   0  0  0  0  0  0  0  0  0  0  0  0
  189.4020  177.5900  137.3360 C   0  0  0  0  0  2  0  0  0  0  0  0
  191.6080  176.2980  138.6910 N   0  0  0  0  0  1  0  0  0  0  0  0
  189.6990  177.8840  138.7340 N   0  0  0  0  0  0  0  0  0  0  0  0
  188.8020  178.7550  139.4840 C   0  0  0  0  0  2  0  0  0  0  0  0
  186.8990  177.6170  137.3170 C   0  0  1  0  0  3  0  0  0  0  0  0
  187.5400  177.9890  139.8540 C   0  0  0  0  0  2  0  0  0  0  0  0
  186.5220  178.0210  138.7390 C   0  0  0  0  0  0  0  0  0  0  0  0
  184.8500  178.9840  140.3240 C   0  0  0  0  0  2  0  0  0  0  0  0
  184.1100  177.9810  141.0780 N   0  0  0  0  0  2  0  0  0  0  0  0
  183.5490  178.6530  142.2380 C   0  0  0  0  0  2  0  0  0  0  0  0
  184.9390  178.7700  145.7650 C   0  0  0  0  0  3  0  0  0  0  0  0
  185.7860  178.0360  143.1870 C   0  0  0  0  0  3  0  0  0  0  0  0
  188.3920  177.5980  146.4680 C   0  0  0  0  0  0  0  0  0  0  0  0
  187.0970  178.1140  146.6570 C   0  0  0  0  0  3  0  0  0  0  0  0
  186.2300  178.2620  145.5710 C   0  0  0  0  0  0  0  0  0  0  0  0
  187.9410  177.3770  144.0840 C   0  0  0  0  0  3  0  0  0  0  0  0
  186.6560  177.8910  144.2730 C   0  0  0  0  0  0  0  0  0  0  0  0
  188.8040  177.2320  145.1770 C   0  0  0  0  0  3  0  0  0  0  0  0
  184.4960  178.5480  143.3850 C   0  0  0  0  0  0  0  0  0  0  0  0
  184.0720  178.9080  144.6730 C   0  0  0  0  0  3  0  0  0  0  0  0
  189.3110  177.4450  147.6140 C   0  0  0  0  0  0  0  0  0  0  0  0
  188.9700  177.8510  148.7580 O   0  0  0  0  0  0  0  0  0  0  0  0
  190.6560  176.8160  147.4480 C   0  0  0  0  0  1  0  0  0  0  0  0
  1 19  1  0  0  0  0
  2 12  1  0  0  0  0
  3  7  2  0  0  0  0
  4  9  2  0  0  0  0
  4 16  1  0  0  0  0
  6  8  1  0  0  0  0
  8  5  2  0  0  0  0
  9 10  1  0  0  0  0
 10  5  1  1  0  0  0
 10  1  1  0  0  0  0
 11  6  2  0  0  0  0
 11  9  1  0  0  0  0
 12 14  1  0  0  0  0
 13  3  1  0  0  0  0
 14  3  1  0  0  0  0
 14 15  1  0  0  0  0
 15 17  1  0  0  0  0
 16  2  1  1  0  0  0
 16 18  1  0  0  0  0
 18  1  2  0  0  0  0
 18 17  1  0  0  0  0
 19 20  1  0  0  0  0
 20 21  1  0  0  0  0
 21 30  1  0  0  0  0
 23 30  2  0  0  0  0
 23 28  1  0  0  0  0
 24 25  1  0  0  0  0
 24 32  1  0  0  0  0
 26 22  1  0  0  0  0
 26 25  2  0  0  0  0
 27 28  2  0  0  0  0
 27 29  1  0  0  0  0
 28 26  1  0  0  0  0
 29 24  2  0  0  0  0
 30 31  1  0  0  0  0
 31 22  2  0  0  0  0
 32 33  2  0  0  0  0
 34 32  1  0  0  0  0
M  END
>  <MODEL>
3

>  <REMARK>
 VINA RESULT:      -9.8      1.118      1.592
  Name = 
  5 active torsions:
  status: ('A' for Active; 'I' for Inactive)
    1  A    between atoms: C_1  and  C_9
    2  A    between atoms: C_7  and  C_11
    3  A    between atoms: N_8  and  C_9
    4  A    between atoms: N_8  and  C_18
    5  A    between atoms: C_18  and  C_30
                            x       y       z     vdW  Elec       q    Type
                         _______ _______ _______ _____ _____    ______ ____

>  <TORSDO>
F 5

$$$$
=
 OpenBabel10272415093D

 34 38  0  0  1  0  0  0  0  0999 V2000
  187.3200  177.6640  144.3170 C   0  0  0  0  0  0  0  0  0  0  0  0
  183.8170  178.7890  145.2110 C   0  0  0  0  0  2  0  0  0  0  0  0
  182.1500  178.6530  142.1930 C   0  0  0  0  0  0  0  0  0  0  0  0
  185.8190  178.4300  146.5680 N   0  0  0  0  0  0  0  0  0  0  0  0
  189.2180  177.1540  145.9110 C   0  0  0  0  0  3  0  0  0  0  0  0
  188.6150  177.0950  148.2780 C   0  0  0  0  0  3  0  0  0  0  0  0
  182.2130  178.0640  141.0810 O   0  0  0  0  0  0  0  0  0  0  0  0
  189.5030  176.7490  147.1490 C   0  0  0  0  0  3  0  0  0  0  0  0
  187.0540  178.0770  146.7660 C   0  0  0  0  0  0  0  0  0  0  0  0
  188.0320  178.0420  145.6060 C   0  0  2  0  0  3  0  0  0  0  0  0
  187.4820  177.6990  148.0790 N   0  0  0  0  0  0  0  0  0  0  0  0
  183.2790  179.7430  144.1530 C   0  0  0  0  0  2  0  0  0  0  0  0
  180.8810  178.8330  142.8140 N   0  0  0  0  0  1  0  0  0  0  0  0
  183.3450  179.1350  142.8280 N   0  0  0  0  0  0  0  0  0  0  0  0
  184.6480  178.8820  142.2250 C   0  0  0  0  0  2  0  0  0  0  0  0
  185.3400  178.8360  145.2470 C   0  0  1  0  0  3  0  0  0  0  0  0
  185.2840  177.6640  142.8780 C   0  0  0  0  0  2  0  0  0  0  0  0
  186.0220  178.0320  144.1440 C   0  0  0  0  0  0  0  0  0  0  0  0
  188.0960  177.0050  143.2060 C   0  0  0  0  0  2  0  0  0  0  0  0
  188.9240  177.9920  142.5270 N   0  0  0  0  0  2  0  0  0  0  0  0
  188.5510  177.9620  141.1220 C   0  0  0  0  0  2  0  0  0  0  0  0
  192.1450  177.2880  140.1160 C   0  0  0  0  0  3  0  0  0  0  0  0
  189.5850  177.2400  138.9560 C   0  0  0  0  0  3  0  0  0  0  0  0
  192.9550  176.1460  136.6770 C   0  0  0  0  0  0  0  0  0  0  0  0
  193.1070  176.5380  138.0190 C   0  0  0  0  0  3  0  0  0  0  0  0
  191.9910  176.9030  138.7780 C   0  0  0  0  0  0  0  0  0  0  0  0
  190.5500  176.4870  136.8610 C   0  0  0  0  0  3  0  0  0  0  0  0
  190.7010  176.8780  138.1930 C   0  0  0  0  0  0  0  0  0  0  0  0
  191.6720  176.1230  136.1070 C   0  0  0  0  0  3  0  0  0  0  0  0
  189.7450  177.6270  140.2940 C   0  0  0  0  0  0  0  0  0  0  0  0
  191.0220  177.6440  140.8730 C   0  0  0  0  0  3  0  0  0  0  0  0
  194.1330  175.7630  135.8720 C   0  0  0  0  0  0  0  0  0  0  0  0
  195.2910  176.0930  136.2470 O   0  0  0  0  0  0  0  0  0  0  0  0
  193.9850  174.9870  134.6040 C   0  0  0  0  0  1  0  0  0  0  0  0
  1 10  1  0  0  0  0
  3 13  1  0  0  0  0
  3 14  1  0  0  0  0
  4  9  2  0  0  0  0
  5  8  2  0  0  0  0
  7  3  2  0  0  0  0
  8  6  1  0  0  0  0
  9 11  1  0  0  0  0
 10  5  1  1  0  0  0
 10  9  1  0  0  0  0
 11  6  2  0  0  0  0
 12  2  1  0  0  0  0
 14 12  1  0  0  0  0
 15 14  1  0  0  0  0
 15 17  1  0  0  0  0
 16  2  1  1  0  0  0
 16  4  1  0  0  0  0
 17 18  1  0  0  0  0
 18  1  2  0  0  0  0
 18 16  1  0  0  0  0
 19  1  1  0  0  0  0
 20 19  1  0  0  0  0
 21 20  1  0  0  0  0
 22 31  1  0  0  0  0
 23 30  1  0  0  0  0
 24 25  2  0  0  0  0
 25 26  1  0  0  0  0
 26 22  2  0  0  0  0
 27 28  1  0  0  0  0
 28 26  1  0  0  0  0
 28 23  2  0  0  0  0
 29 24  1  0  0  0  0
 29 27  2  0  0  0  0
 30 31  2  0  0  0  0
 30 21  1  0  0  0  0
 32 33  2  0  0  0  0
 32 24  1  0  0  0  0
 34 32  1  0  0  0  0
M  END
>  <MODEL>
4

>  <REMARK>
 VINA RESULT:      -9.6      3.419      8.588
  Name = 
  5 active torsions:
  status: ('A' for Active; 'I' for Inactive)
    1  A    between atoms: C_1  and  C_9
    2  A    between atoms: C_7  and  C_11
    3  A    between atoms: N_8  and  C_9
    4  A    between atoms: N_8  and  C_18
    5  A    between atoms: C_18  and  C_30
                            x       y       z     vdW  Elec       q    Type
                         _______ _______ _______ _____ _____    ______ ____

>  <TORSDO>
F 5

$$$$
=
 OpenBabel10272415093D

 34 38  0  0  1  0  0  0  0  0999 V2000
  189.3260  177.2290  143.9780 C   0  0  0  0  0  0  0  0  0  0  0  0
  186.0510  178.1290  145.6530 C   0  0  0  0  0  2  0  0  0  0  0  0
  183.8610  178.4170  143.0020 C   0  0  0  0  0  0  0  0  0  0  0  0
  188.2640  177.6120  146.5540 N   0  0  0  0  0  0  0  0  0  0  0  0
  191.4780  176.5240  145.1050 C   0  0  0  0  0  3  0  0  0  0  0  0
  191.3170  176.0940  147.5040 C   0  0  0  0  0  3  0  0  0  0  0  0
  183.7170  178.0040  141.8200 O   0  0  0  0  0  0  0  0  0  0  0  0
  191.9820  175.9430  146.1940 C   0  0  0  0  0  3  0  0  0  0  0  0
  189.5120  177.2590  146.4690 C   0  0  0  0  0  0  0  0  0  0  0  0
  190.2620  177.4220  145.1600 C   0  0  2  0  0  3  0  0  0  0  0  0
  190.1700  176.6960  147.6090 N   0  0  0  0  0  0  0  0  0  0  0  0
  185.3350  179.2200  144.8690 C   0  0  0  0  0  2  0  0  0  0  0  0
  182.7280  178.4720  143.8630 N   0  0  0  0  0  1  0  0  0  0  0  0
  185.1550  178.8220  143.4760 N   0  0  0  0  0  0  0  0  0  0  0  0
  186.3250  178.6920  142.6160 C   0  0  0  0  0  2  0  0  0  0  0  0
  187.5560  178.2030  145.4190 C   0  0  1  0  0  3  0  0  0  0  0  0
  187.0610  177.4030  142.9490 C   0  0  0  0  0  2  0  0  0  0  0  0
  188.0200  177.5910  144.1020 C   0  0  0  0  0  0  0  0  0  0  0  0
  189.8810  176.7630  142.6570 C   0  0  0  0  0  2  0  0  0  0  0  0
  190.5610  177.8650  141.9900 N   0  0  0  0  0  2  0  0  0  0  0  0
  191.3360  177.2870  140.9040 C   0  0  0  0  0  2  0  0  0  0  0  0
  190.0030  175.9190  137.6270 C   0  0  0  0  0  3  0  0  0  0  0  0
  189.2120  177.7130  139.6410 C   0  0  0  0  0  3  0  0  0  0  0  0
  186.6660  176.9550  136.3710 C   0  0  0  0  0  0  0  0  0  0  0  0
  187.9150  176.3140  136.4580 C   0  0  0  0  0  3  0  0  0  0  0  0
  188.7630  176.5640  137.5410 C   0  0  0  0  0  0  0  0  0  0  0  0
  187.1230  178.1030  138.4710 C   0  0  0  0  0  3  0  0  0  0  0  0
  188.3630  177.4670  138.5560 C   0  0  0  0  0  0  0  0  0  0  0  0
  186.2790  177.8480  137.3840 C   0  0  0  0  0  3  0  0  0  0  0  0
  190.4540  177.0670  139.7220 C   0  0  0  0  0  0  0  0  0  0  0  0
  190.8440  176.1660  138.7190 C   0  0  0  0  0  3  0  0  0  0  0  0
  185.7710  176.6960  135.2260 C   0  0  0  0  0  0  0  0  0  0  0  0
  185.5650  177.5950  134.3660 O   0  0  0  0  0  0  0  0  0  0  0  0
  185.0900  175.3770  135.0600 C   0  0  0  0  0  1  0  0  0  0  0  0
  1 18  2  0  0  0  0
  1 10  1  0  0  0  0
  3 14  1  0  0  0  0
  3 13  1  0  0  0  0
  5  8  2  0  0  0  0
  6 11  2  0  0  0  0
  7  3  2  0  0  0  0
  8  6  1  0  0  0  0
  9  4  2  0  0  0  0
  9 11  1  0  0  0  0
 10  5  1  6  0  0  0
 10  9  1  0  0  0  0
 12  2  1  0  0  0  0
 14 12  1  0  0  0  0
 15 17  1  0  0  0  0
 15 14  1  0  0  0  0
 16  2  1  1  0  0  0
 16  4  1  0  0  0  0
 17 18  1  0  0  0  0
 18 16  1  0  0  0  0
 19  1  1  0  0  0  0
 20 19  1  0  0  0  0
 21 20  1  0  0  0  0
 22 31  1  0  0  0  0
 23 30  1  0  0  0  0
 24 25  2  0  0  0  0
 24 29  1  0  0  0  0
 25 26  1  0  0  0  0
 26 22  2  0  0  0  0
 26 28  1  0  0  0  0
 27 28  1  0  0  0  0
 28 23  2  0  0  0  0
 29 27  2  0  0  0  0
 30 21  1  0  0  0  0
 31 30  2  0  0  0  0
 32 24  1  0  0  0  0
 33 32  2  0  0  0  0
 34 32  1  0  0  0  0
M  END
>  <MODEL>
5

>  <REMARK>
 VINA RESULT:      -9.5      3.228      9.105
  Name = 
  5 active torsions:
  status: ('A' for Active; 'I' for Inactive)
    1  A    between atoms: C_1  and  C_9
    2  A    between atoms: C_7  and  C_11
    3  A    between atoms: N_8  and  C_9
    4  A    between atoms: N_8  and  C_18
    5  A    between atoms: C_18  and  C_30
                            x       y       z     vdW  Elec       q    Type
                         _______ _______ _______ _____ _____    ______ ____

>  <TORSDO>
F 5

$$$$
=
 OpenBabel10272415093D

 34 38  0  0  1  0  0  0  0  0999 V2000
  182.6050  178.2130  138.6620 C   0  0  0  0  0  0  0  0  0  0  0  0
  180.7940  180.2280  136.0150 C   0  0  0  0  0  2  0  0  0  0  0  0
  181.2330  183.4850  137.0650 C   0  0  0  0  0  0  0  0  0  0  0  0
  181.2010  177.8280  136.2560 N   0  0  0  0  0  0  0  0  0  0  0  0
  183.0980  175.7330  138.6270 C   0  0  0  0  0  3  0  0  0  0  0  0
  182.6130  174.5940  136.5210 C   0  0  0  0  0  3  0  0  0  0  0  0
  182.0240  184.1770  137.7590 O   0  0  0  0  0  0  0  0  0  0  0  0
  183.3010  174.6870  137.8240 C   0  0  0  0  0  3  0  0  0  0  0  0
  181.7010  176.7750  136.8310 C   0  0  0  0  0  0  0  0  0  0  0  0
  182.1070  176.8260  138.2920 C   0  0  2  0  0  3  0  0  0  0  0  0
  181.8870  175.5740  136.0740 N   0  0  0  0  0  0  0  0  0  0  0  0
  179.9850  181.3450  136.6590 C   0  0  0  0  0  2  0  0  0  0  0  0
  180.7410  184.0130  135.8360 N   0  0  0  0  0  1  0  0  0  0  0  0
  180.8340  182.1770  137.5040 N   0  0  0  0  0  0  0  0  0  0  0  0
  181.3990  181.6110  138.7240 C   0  0  0  0  0  2  0  0  0  0  0  0
  180.9820  179.0730  136.9930 C   0  0  1  0  0  3  0  0  0  0  0  0
  182.5560  180.6890  138.3700 C   0  0  0  0  0  2  0  0  0  0  0  0
  182.0760  179.2970  138.0310 C   0  0  0  0  0  0  0  0  0  0  0  0
  183.5760  178.3760  139.8030 C   0  0  0  0  0  2  0  0  0  0  0  0
  183.0130  177.8030  141.0180 N   0  0  0  0  0  2  0  0  0  0  0  0
  182.8270  178.8980  141.9550 C   0  0  0  0  0  2  0  0  0  0  0  0
  184.1610  178.8260  145.5040 C   0  0  0  0  0  3  0  0  0  0  0  0
  185.0500  178.2350  142.9050 C   0  0  0  0  0  3  0  0  0  0  0  0
  187.6060  177.6240  146.1980 C   0  0  0  0  0  0  0  0  0  0  0  0
  186.3070  178.1260  146.3950 C   0  0  0  0  0  3  0  0  0  0  0  0
  185.4560  178.3320  145.3040 C   0  0  0  0  0  0  0  0  0  0  0  0
  187.1940  177.5320  143.7990 C   0  0  0  0  0  3  0  0  0  0  0  0
  185.9040  178.0320  143.9940 C   0  0  0  0  0  0  0  0  0  0  0  0
  188.0390  177.3290  144.8960 C   0  0  0  0  0  3  0  0  0  0  0  0
  183.7560  178.7330  143.1100 C   0  0  0  0  0  0  0  0  0  0  0  0
  183.3110  179.0210  144.4090 C   0  0  0  0  0  3  0  0  0  0  0  0
  188.5070  177.4110  147.3490 C   0  0  0  0  0  0  0  0  0  0  0  0
  189.4590  176.5900  147.2640 O   0  0  0  0  0  0  0  0  0  0  0  0
  188.3120  178.1520  148.6310 C   0  0  0  0  0  1  0  0  0  0  0  0
  1 19  1  0  0  0  0
  2 12  1  0  0  0  0
  3 14  1  0  0  0  0
  3  7  2  0  0  0  0
  4  9  2  0  0  0  0
  4 16  1  0  0  0  0
  6  8  1  0  0  0  0
  8  5  2  0  0  0  0
  9 10  1  0  0  0  0
 10  5  1  6  0  0  0
 10  1  1  0  0  0  0
 11  6  2  0  0  0  0
 11  9  1  0  0  0  0
 12 14  1  0  0  0  0
 13  3  1  0  0  0  0
 14 15  1  0  0  0  0
 16  2  1  6  0  0  0
 16 18  1  0  0  0  0
 17 15  1  0  0  0  0
 18 17  1  0  0  0  0
 18  1  2  0  0  0  0
 19 20  1  0  0  0  0
 20 21  1  0  0  0  0
 21 30  1  0  0  0  0
 23 30  2  0  0  0  0
 23 28  1  0  0  0  0
 24 25  1  0  0  0  0
 24 32  1  0  0  0  0
 26 22  1  0  0  0  0
 26 25  2  0  0  0  0
 27 28  2  0  0  0  0
 27 29  1  0  0  0  0
 28 26  1  0  0  0  0
 29 24  2  0  0  0  0
 30 31  1  0  0  0  0
 31 22  2  0  0  0  0
 32 34  1  0  0  0  0
 33 32  2  0  0  0  0
M  END
>  <MODEL>
6

>  <REMARK>
 VINA RESULT:      -9.3      3.418      5.732
  Name = 
  5 active torsions:
  status: ('A' for Active; 'I' for Inactive)
    1  A    between atoms: C_1  and  C_9
    2  A    between atoms: C_7  and  C_11
    3  A    between atoms: N_8  and  C_9
    4  A    between atoms: N_8  and  C_18
    5  A    between atoms: C_18  and  C_30
                            x       y       z     vdW  Elec       q    Type
                         _______ _______ _______ _____ _____    ______ ____

>  <TORSDO>
F 5

$$$$
=
 OpenBabel10272415093D

 34 38  0  0  1  0  0  0  0  0999 V2000
  185.5070  177.4800  137.9230 C   0  0  0  0  0  0  0  0  0  0  0  0
  184.4150  174.3230  136.1390 C   0  0  0  0  0  2  0  0  0  0  0  0
  181.0320  174.1750  136.7970 C   0  0  0  0  0  0  0  0  0  0  0  0
  186.5780  175.4540  136.2920 N   0  0  0  0  0  0  0  0  0  0  0  0
  187.7680  178.6070  137.7940 C   0  0  0  0  0  3  0  0  0  0  0  0
  189.2900  177.7200  136.1010 C   0  0  0  0  0  3  0  0  0  0  0  0
  180.0710  174.9350  137.0910 O   0  0  0  0  0  0  0  0  0  0  0  0
  188.8380  178.7860  137.0180 C   0  0  0  0  0  3  0  0  0  0  0  0
  187.3790  176.4090  136.6620 C   0  0  0  0  0  0  0  0  0  0  0  0
  187.0140  177.2970  137.8370 C   0  0  2  0  0  3  0  0  0  0  0  0
  188.5960  176.6330  135.9420 N   0  0  0  0  0  0  0  0  0  0  0  0
  183.4490  173.5290  137.0070 C   0  0  0  0  0  2  0  0  0  0  0  0
  180.8290  173.1340  135.8460 N   0  0  0  0  0  1  0  0  0  0  0  0
  182.3170  174.3580  137.4100 N   0  0  0  0  0  0  0  0  0  0  0  0
  182.5400  175.4710  138.3260 C   0  0  0  0  0  2  0  0  0  0  0  0
  185.3310  175.1810  137.0060 C   0  0  1  0  0  3  0  0  0  0  0  0
  183.1910  176.6240  137.5770 C   0  0  0  0  0  2  0  0  0  0  0  0
  184.6930  176.4700  137.5130 C   0  0  0  0  0  0  0  0  0  0  0  0
  184.9440  178.7150  138.5760 C   0  0  0  0  0  2  0  0  0  0  0  0
  185.5670  178.9160  139.8770 N   0  0  0  0  0  2  0  0  0  0  0  0
  184.5270  178.7280  140.8760 C   0  0  0  0  0  2  0  0  0  0  0  0
  184.9590  178.8020  144.6430 C   0  0  0  0  0  3  0  0  0  0  0  0
  186.4470  178.1050  142.3630 C   0  0  0  0  0  3  0  0  0  0  0  0
  188.1210  177.6300  146.2000 C   0  0  0  0  0  0  0  0  0  0  0  0
  186.8180  178.1400  146.0550 C   0  0  0  0  0  3  0  0  0  0  0  0
  186.2600  178.3000  144.7840 C   0  0  0  0  0  0  0  0  0  0  0  0
  188.3020  177.4400  143.7780 C   0  0  0  0  0  3  0  0  0  0  0  0
  187.0090  177.9470  143.6350 C   0  0  0  0  0  0  0  0  0  0  0  0
  188.8550  177.2820  145.0550 C   0  0  0  0  0  3  0  0  0  0  0  0
  185.1470  178.6100  142.2270 C   0  0  0  0  0  0  0  0  0  0  0  0
  184.4030  178.9510  143.3670 C   0  0  0  0  0  3  0  0  0  0  0  0
  188.7130  177.4640  147.5420 C   0  0  0  0  0  0  0  0  0  0  0  0
  189.8540  176.9440  147.6720 O   0  0  0  0  0  0  0  0  0  0  0  0
  187.9820  177.9010  148.7700 C   0  0  0  0  0  1  0  0  0  0  0  0
  1 19  1  0  0  0  0
  2 12  1  0  0  0  0
  3  7  2  0  0  0  0
  3 14  1  0  0  0  0
  4  9  2  0  0  0  0
  4 16  1  0  0  0  0
  6  8  1  0  0  0  0
  8  5  2  0  0  0  0
  9 10  1  0  0  0  0
 10  5  1  6  0  0  0
 10  1  1  0  0  0  0
 11  6  2  0  0  0  0
 11  9  1  0  0  0  0
 12 14  1  0  0  0  0
 13  3  1  0  0  0  0
 14 15  1  0  0  0  0
 16  2  1  6  0  0  0
 16 18  1  0  0  0  0
 17 15  1  0  0  0  0
 18 17  1  0  0  0  0
 18  1  2  0  0  0  0
 19 20  1  0  0  0  0
 20 21  1  0  0  0  0
 21 30  1  0  0  0  0
 22 26  1  0  0  0  0
 23 28  1  0  0  0  0
 24 32  1  0  0  0  0
 25 24  1  0  0  0  0
 26 25  2  0  0  0  0
 27 29  1  0  0  0  0
 28 27  2  0  0  0  0
 28 26  1  0  0  0  0
 29 24  2  0  0  0  0
 30 23  2  0  0  0  0
 30 31  1  0  0  0  0
 31 22  2  0  0  0  0
 32 33  2  0  0  0  0
 32 34  1  0  0  0  0
M  END
>  <MODEL>
7

>  <REMARK>
 VINA RESULT:      -9.0      3.049      5.358
  Name = 
  5 active torsions:
  status: ('A' for Active; 'I' for Inactive)
    1  A    between atoms: C_1  and  C_9
    2  A    between atoms: C_7  and  C_11
    3  A    between atoms: N_8  and  C_9
    4  A    between atoms: N_8  and  C_18
    5  A    between atoms: C_18  and  C_30
                            x       y       z     vdW  Elec       q    Type
                         _______ _______ _______ _____ _____    ______ ____

>  <TORSDO>
F 5

$$$$
=
 OpenBabel10272415093D

 34 38  0  0  1  0  0  0  0  0999 V2000
  188.8600  176.9690  137.0570 C   0  0  0  0  0  0  0  0  0  0  0  0
  190.7850  173.7080  137.0500 C   0  0  0  0  0  2  0  0  0  0  0  0
  194.0120  174.6950  137.7730 C   0  0  0  0  0  0  0  0  0  0  0  0
  188.4130  174.2120  136.7350 N   0  0  0  0  0  0  0  0  0  0  0  0
  186.3520  177.2670  136.9120 C   0  0  0  0  0  3  0  0  0  0  0  0
  185.0380  175.2150  137.0940 C   0  0  0  0  0  3  0  0  0  0  0  0
  194.6290  175.6340  138.3420 O   0  0  0  0  0  0  0  0  0  0  0  0
  185.1830  176.6830  137.1760 C   0  0  0  0  0  3  0  0  0  0  0  0
  187.3770  174.9940  136.6830 C   0  0  0  0  0  0  0  0  0  0  0  0
  187.5570  176.4820  136.4430 C   0  0  2  0  0  3  0  0  0  0  0  0
  186.0670  174.4510  136.8760 N   0  0  0  0  0  0  0  0  0  0  0  0
  192.1200  173.8810  136.3370 C   0  0  0  0  0  2  0  0  0  0  0  0
  194.4420  173.3530  137.9790 N   0  0  0  0  0  1  0  0  0  0  0  0
  192.8840  174.9740  136.9290 N   0  0  0  0  0  0  0  0  0  0  0  0
  192.4000  176.3420  136.7810 C   0  0  0  0  0  2  0  0  0  0  0  0
  189.7690  174.7210  136.5320 C   0  0  1  0  0  3  0  0  0  0  0  0
  191.2300  176.5730  137.7250 C   0  0  0  0  0  2  0  0  0  0  0  0
  189.9240  176.1220  137.1130 C   0  0  0  0  0  0  0  0  0  0  0  0
  188.9930  178.4120  137.4710 C   0  0  0  0  0  2  0  0  0  0  0  0
  189.3620  178.4910  138.8780 N   0  0  0  0  0  2  0  0  0  0  0  0
  188.2270  177.9980  139.6410 C   0  0  0  0  0  2  0  0  0  0  0  0
  190.3570  177.5980  142.7540 C   0  0  0  0  0  3  0  0  0  0  0  0
  187.6410  177.8510  142.0740 C   0  0  0  0  0  3  0  0  0  0  0  0
  188.7840  177.5350  146.1170 C   0  0  0  0  0  0  0  0  0  0  0  0
  189.7580  177.5120  145.1030 C   0  0  0  0  0  3  0  0  0  0  0  0
  189.3830  177.6150  143.7600 C   0  0  0  0  0  0  0  0  0  0  0  0
  187.0470  177.7680  144.4250 C   0  0  0  0  0  3  0  0  0  0  0  0
  188.0150  177.7440  143.4180 C   0  0  0  0  0  0  0  0  0  0  0  0
  187.4300  177.6640  145.7670 C   0  0  0  0  0  3  0  0  0  0  0  0
  188.6190  177.8300  141.0700 C   0  0  0  0  0  0  0  0  0  0  0  0
  189.9750  177.7110  141.4110 C   0  0  0  0  0  3  0  0  0  0  0  0
  189.1780  177.4220  147.5360 C   0  0  0  0  0  0  0  0  0  0  0  0
  190.3100  176.9610  147.8440 O   0  0  0  0  0  0  0  0  0  0  0  0
  188.2540  177.8430  148.6310 C   0  0  0  0  0  1  0  0  0  0  0  0
  1 18  2  0  0  0  0
  1 19  1  0  0  0  0
  3 13  1  0  0  0  0
  3  7  2  0  0  0  0
  5  8  2  0  0  0  0
  6  8  1  0  0  0  0
  9  4  2  0  0  0  0
  9 11  1  0  0  0  0
 10  9  1  0  0  0  0
 10  5  1  1  0  0  0
 10  1  1  0  0  0  0
 11  6  2  0  0  0  0
 12 14  1  0  0  0  0
 12  2  1  0  0  0  0
 14  3  1  0  0  0  0
 15 14  1  0  0  0  0
 15 17  1  0  0  0  0
 16  4  1  0  0  0  0
 16  2  1  1  0  0  0
 16 18  1  0  0  0  0
 18 17  1  0  0  0  0
 19 20  1  0  0  0  0
 20 21  1  0  0  0  0
 21 30  1  0  0  0  0
 22 26  1  0  0  0  0
 23 28  1  0  0  0  0
 24 32  1  0  0  0  0
 25 24  2  0  0  0  0
 26 25  1  0  0  0  0
 27 29  2  0  0  0  0
 28 26  2  0  0  0  0
 28 27  1  0  0  0  0
 29 24  1  0  0  0  0
 30 31  1  0  0  0  0
 30 23  2  0  0  0  0
 31 22  2  0  0  0  0
 32 33  2  0  0  0  0
 32 34  1  0  0  0  0
M  END
>  <MODEL>
8

>  <REMARK>
 VINA RESULT:      -9.0      2.615      4.429
  Name = 
  5 active torsions:
  status: ('A' for Active; 'I' for Inactive)
    1  A    between atoms: C_1  and  C_9
    2  A    between atoms: C_7  and  C_11
    3  A    between atoms: N_8  and  C_9
    4  A    between atoms: N_8  and  C_18
    5  A    between atoms: C_18  and  C_30
                            x       y       z     vdW  Elec       q    Type
                         _______ _______ _______ _____ _____    ______ ____

>  <TORSDO>
F 5

$$$$
=
 OpenBabel10272415093D

 34 38  0  0  1  0  0  0  0  0999 V2000
  187.9660  177.3070  145.2240 C   0  0  0  0  0  0  0  0  0  0  0  0
  191.4600  177.4520  143.7730 C   0  0  0  0  0  2  0  0  0  0  0  0
  190.9080  177.3290  140.3700 C   0  0  0  0  0  0  0  0  0  0  0  0
  190.6360  177.5480  146.0730 N   0  0  0  0  0  0  0  0  0  0  0  0
  187.2980  177.6280  147.6430 C   0  0  0  0  0  3  0  0  0  0  0  0
  189.0720  178.4130  149.1280 C   0  0  0  0  0  3  0  0  0  0  0  0
  190.0100  177.5960  139.5270 O   0  0  0  0  0  0  0  0  0  0  0  0
  187.6480  178.2180  148.7860 C   0  0  0  0  0  3  0  0  0  0  0  0
  189.7130  177.5780  146.9880 C   0  0  0  0  0  0  0  0  0  0  0  0
  188.3200  177.0610  146.6820 C   0  0  2  0  0  3  0  0  0  0  0  0
  190.0120  178.1210  148.2790 N   0  0  0  0  0  0  0  0  0  0  0  0
  191.5990  176.4650  142.6230 C   0  0  0  0  0  2  0  0  0  0  0  0
  192.2600  177.6640  140.0750 N   0  0  0  0  0  1  0  0  0  0  0  0
  190.5710  176.6970  141.6150 N   0  0  0  0  0  0  0  0  0  0  0  0
  189.1760  176.4250  141.9440 C   0  0  0  0  0  2  0  0  0  0  0  0
  190.3800  176.9910  144.7450 C   0  0  1  0  0  3  0  0  0  0  0  0
  188.6370  177.5350  142.8340 C   0  0  0  0  0  2  0  0  0  0  0  0
  188.9550  177.2860  144.2900 C   0  0  0  0  0  0  0  0  0  0  0  0
  186.5200  177.4390  144.8230 C   0  0  0  0  0  2  0  0  0  0  0  0
  186.1070  178.8340  144.9060 N   0  0  0  0  0  2  0  0  0  0  0  0
  184.6840  178.8370  145.1980 C   0  0  0  0  0  2  0  0  0  0  0  0
  181.7730  178.7880  142.7670 C   0  0  0  0  0  3  0  0  0  0  0  0
  184.5830  178.7880  142.6930 C   0  0  0  0  0  3  0  0  0  0  0  0
  182.3780  178.8000  139.1030 C   0  0  0  0  0  0  0  0  0  0  0  0
  181.7120  178.7940  140.3420 C   0  0  0  0  0  3  0  0  0  0  0  0
  182.4400  178.7880  141.5350 C   0  0  0  0  0  0  0  0  0  0  0  0
  184.5180  178.7970  140.2680 C   0  0  0  0  0  3  0  0  0  0  0  0
  183.8560  178.7890  141.4980 C   0  0  0  0  0  0  0  0  0  0  0  0
  183.7820  178.8030  139.0770 C   0  0  0  0  0  3  0  0  0  0  0  0
  183.9110  178.7850  143.9240 C   0  0  0  0  0  0  0  0  0  0  0  0
  182.5080  178.7920  143.9590 C   0  0  0  0  0  3  0  0  0  0  0  0
  181.6110  178.8020  137.8410 C   0  0  0  0  0  0  0  0  0  0  0  0
  181.3740  177.7180  137.2430 O   0  0  0  0  0  0  0  0  0  0  0  0
  181.1040  180.0750  137.2460 C   0  0  0  0  0  1  0  0  0  0  0  0
  1 10  1  0  0  0  0
  3 14  1  0  0  0  0
  4  9  2  0  0  0  0
  5  8  2  0  0  0  0
  7  3  2  0  0  0  0
  8  6  1  0  0  0  0
  9 11  1  0  0  0  0
 10  9  1  0  0  0  0
 10  5  1  1  0  0  0
 11  6  2  0  0  0  0
 12  2  1  0  0  0  0
 13  3  1  0  0  0  0
 14 15  1  0  0  0  0
 14 12  1  0  0  0  0
 15 17  1  0  0  0  0
 16  2  1  6  0  0  0
 16  4  1  0  0  0  0
 17 18  1  0  0  0  0
 18 16  1  0  0  0  0
 18  1  2  0  0  0  0
 19 20  1  0  0  0  0
 19  1  1  0  0  0  0
 20 21  1  0  0  0  0
 22 31  1  0  0  0  0
 23 30  1  0  0  0  0
 24 25  2  0  0  0  0
 25 26  1  0  0  0  0
 26 22  2  0  0  0  0
 27 28  1  0  0  0  0
 28 26  1  0  0  0  0
 28 23  2  0  0  0  0
 29 24  1  0  0  0  0
 29 27  2  0  0  0  0
 30 31  2  0  0  0  0
 30 21  1  0  0  0  0
 32 24  1  0  0  0  0
 33 32  2  0  0  0  0
 34 32  1  0  0  0  0
M  END
>  <MODEL>
9

>  <REMARK>
 VINA RESULT:      -9.0      3.010      8.105
  Name = 
  5 active torsions:
  status: ('A' for Active; 'I' for Inactive)
    1  A    between atoms: C_1  and  C_9
    2  A    between atoms: C_7  and  C_11
    3  A    between atoms: N_8  and  C_9
    4  A    between atoms: N_8  and  C_18
    5  A    between atoms: C_18  and  C_30
                            x       y       z     vdW  Elec       q    Type
                         _______ _______ _______ _____ _____    ______ ____

>  <TORSDO>
F 5

$$$$
