=
 OpenBabel10272401003D

 27 31  0  0  1  0  0  0  0  0999 V2000
  189.1110  178.7990  137.4290 C   0  0  0  0  0  2  0  0  0  0  0  0
  187.7930  178.3180  139.6240 C   0  0  0  0  0  0  0  0  0  0  0  0
  190.2740  177.6040  139.7770 C   0  0  0  0  0  2  0  0  0  0  0  0
  187.6200  177.8240  143.7600 N   0  0  0  0  0  2  0  0  0  0  0  0
  189.6080  178.3540  144.9530 N   0  0  0  0  0  1  0  0  0  0  0  0
  186.6260  178.6000  140.2830 N   0  0  0  0  0  0  0  0  0  0  0  0
  189.7450  177.2500  142.7730 C   0  0  1  0  0  3  0  0  0  0  0  0
  192.4570  176.1240  137.4480 C   0  0  0  0  0  2  0  0  0  0  0  0
  190.1230  175.7970  142.5480 C   0  0  0  0  0  1  0  0  0  0  0  0
  192.0490  175.6120  136.0590 C   0  0  0  0  0  2  0  0  0  0  0  0
  188.7510  177.6900  141.7500 C   0  0  0  0  0  0  0  0  0  0  0  0
  187.7770  178.4680  138.1220 C   0  0  2  0  0  3  0  0  0  0  0  0
  188.9660  177.3690  144.1000 C   0  0  2  0  0  3  0  0  0  0  0  0
  187.5720  177.9960  142.3600 C   0  0  0  0  0  0  0  0  0  0  0  0
  190.0840  177.6240  137.2740 C   0  0  2  0  0  3  0  0  0  0  0  0
  188.9150  177.8450  140.3680 C   0  0  0  0  0  0  0  0  0  0  0  0
  191.4250  175.7960  138.5300 C   0  0  0  0  0  2  0  0  0  0  0  0
  186.4880  178.4590  141.6300 C   0  0  0  0  0  3  0  0  0  0  0  0
  189.8210  176.8710  135.9620 C   0  0  0  0  0  2  0  0  0  0  0  0
  190.5350  175.5250  135.8430 C   0  0  0  0  0  2  0  0  0  0  0  0
  190.2060  176.7360  138.5330 C   0  0  1  0  0  3  0  0  0  0  0  0
  185.3940  175.6530  135.8370 C   0  0  0  0  0  2  0  0  0  0  0  0
  186.8350  177.4840  137.4140 C   0  0  0  0  0  3  0  0  0  0  0  0
  187.2250  176.0150  137.6050 C   0  0  0  0  0  2  0  0  0  0  0  0
  186.1620  175.0710  137.0310 C   0  0  0  0  0  2  0  0  0  0  0  0
  186.2440  176.6550  135.0610 C   0  0  0  0  0  2  0  0  0  0  0  0
  186.6110  177.8570  135.9400 C   0  0  0  0  0  2  0  0  0  0  0  0
  1 12  1  0  0  0  0
  2  6  2  0  0  0  0
  2 16  1  0  0  0  0
  3 16  1  0  0  0  0
  4 13  1  0  0  0  0
  6 18  1  0  0  0  0
  7  9  1  6  0  0  0
  7 13  1  0  0  0  0
  8 17  1  0  0  0  0
 10  8  1  0  0  0  0
 11 14  1  0  0  0  0
 11  7  1  0  0  0  0
 12 23  1  6  0  0  0
 12  2  1  0  0  0  0
 13  5  1  1  0  0  0
 14  4  1  0  0  0  0
 15 19  1  6  0  0  0
 15  1  1  0  0  0  0
 15 21  1  0  0  0  0
 16 11  2  0  0  0  0
 18 14  2  0  0  0  0
 20 19  1  0  0  0  0
 20 10  1  0  0  0  0
 21 17  1  6  0  0  0
 21  3  1  0  0  0  0
 22 25  1  0  0  0  0
 23 24  1  0  0  0  0
 25 24  1  0  0  0  0
 26 22  1  0  0  0  0
 26 27  1  0  0  0  0
 27 23  1  0  0  0  0
M  END
>  <MODEL>
1

>  <REMARK>
 VINA RESULT:      -7.6      0.000      0.000
  Name = 
  1 active torsions:
  status: ('A' for Active; 'I' for Inactive)
    1  A    between atoms: C_9  and  C_15
                            x       y       z     vdW  Elec       q    Type
                         _______ _______ _______ _____ _____    ______ ____

>  <TORSDO>
F 1

$$$$
=
 OpenBabel10272401003D

 27 31  0  0  1  0  0  0  0  0999 V2000
  188.7160  178.8500  137.4340 C   0  0  0  0  0  2  0  0  0  0  0  0
  186.4570  178.4120  138.6560 C   0  0  0  0  0  0  0  0  0  0  0  0
  188.4690  178.4750  140.2790 C   0  0  0  0  0  2  0  0  0  0  0  0
  184.0090  178.6350  142.0220 N   0  0  0  0  0  2  0  0  0  0  0  0
  184.8570  179.9130  143.8410 N   0  0  0  0  0  1  0  0  0  0  0  0
  185.0980  178.4630  138.4920 N   0  0  0  0  0  0  0  0  0  0  0  0
  186.3690  178.5250  142.5090 C   0  0  1  0  0  3  0  0  0  0  0  0
  191.7690  177.2880  140.0010 C   0  0  0  0  0  2  0  0  0  0  0  0
  187.0000  177.2230  142.9710 C   0  0  0  0  0  1  0  0  0  0  0  0
  192.3070  176.4430  138.8380 C   0  0  0  0  0  2  0  0  0  0  0  0
  186.0940  178.4730  141.0420 C   0  0  0  0  0  0  0  0  0  0  0  0
  187.2870  178.2820  137.4010 C   0  0  2  0  0  3  0  0  0  0  0  0
  184.9620  178.6510  143.1300 C   0  0  2  0  0  3  0  0  0  0  0  0
  184.7510  178.5330  140.8260 C   0  0  0  0  0  0  0  0  0  0  0  0
  189.7500  177.9930  138.1750 C   0  0  2  0  0  3  0  0  0  0  0  0
  187.0000  178.4200  139.9750 C   0  0  0  0  0  0  0  0  0  0  0  0
  190.3590  176.8780  140.4330 C   0  0  0  0  0  2  0  0  0  0  0  0
  184.2320  178.5310  139.5410 C   0  0  0  0  0  3  0  0  0  0  0  0
  190.3940  176.9760  137.2230 C   0  0  0  0  0  2  0  0  0  0  0  0
  191.2220  175.8900  137.9100 C   0  0  0  0  0  2  0  0  0  0  0  0
  189.2460  177.4170  139.5170 C   0  0  1  0  0  3  0  0  0  0  0  0
  186.3250  174.5040  135.4950 C   0  0  0  0  0  2  0  0  0  0  0  0
  187.0660  176.9600  136.6510 C   0  0  0  0  0  3  0  0  0  0  0  0
  186.0390  177.0590  135.5200 C   0  0  0  0  0  2  0  0  0  0  0  0
  185.9840  175.7670  134.6940 C   0  0  0  0  0  2  0  0  0  0  0  0
  185.9680  174.6650  136.9700 C   0  0  0  0  0  2  0  0  0  0  0  0
  186.7870  175.7920  137.6110 C   0  0  0  0  0  2  0  0  0  0  0  0
  1 15  1  0  0  0  0
  2 16  1  0  0  0  0
  4 13  1  0  0  0  0
  6  2  2  0  0  0  0
  6 18  1  0  0  0  0
  7  9  1  1  0  0  0
  7 13  1  0  0  0  0
  8 17  1  0  0  0  0
 10  8  1  0  0  0  0
 11  7  1  0  0  0  0
 12 23  1  1  0  0  0
 12  1  1  0  0  0  0
 12  2  1  0  0  0  0
 13  5  1  6  0  0  0
 14 11  1  0  0  0  0
 14  4  1  0  0  0  0
 15 19  1  6  0  0  0
 15 21  1  0  0  0  0
 16  3  1  0  0  0  0
 16 11  2  0  0  0  0
 18 14  2  0  0  0  0
 19 20  1  0  0  0  0
 20 10  1  0  0  0  0
 21  3  1  1  0  0  0
 21 17  1  0  0  0  0
 22 26  1  0  0  0  0
 23 27  1  0  0  0  0
 24 23  1  0  0  0  0
 25 22  1  0  0  0  0
 25 24  1  0  0  0  0
 26 27  1  0  0  0  0
M  END
>  <MODEL>
2

>  <REMARK>
 VINA RESULT:      -7.1      1.804      2.697
  Name = 
  1 active torsions:
  status: ('A' for Active; 'I' for Inactive)
    1  A    between atoms: C_9  and  C_15
                            x       y       z     vdW  Elec       q    Type
                         _______ _______ _______ _____ _____    ______ ____

>  <TORSDO>
F 1

$$$$
=
 OpenBabel10272401003D

 27 31  0  0  1  0  0  0  0  0999 V2000
  183.9170  179.8300  139.2360 C   0  0  0  0  0  2  0  0  0  0  0  0
  183.1460  179.0240  141.5910 C   0  0  0  0  0  0  0  0  0  0  0  0
  185.7210  179.1250  141.3680 C   0  0  0  0  0  2  0  0  0  0  0  0
  183.7320  178.6180  145.6980 N   0  0  0  0  0  2  0  0  0  0  0  0
  185.6050  179.7770  146.5990 N   0  0  0  0  0  1  0  0  0  0  0  0
  182.0570  178.9470  142.4170 N   0  0  0  0  0  0  0  0  0  0  0  0
  185.7660  178.7090  144.4020 C   0  0  1  0  0  3  0  0  0  0  0  0
  187.8980  178.3350  138.7190 C   0  0  0  0  0  2  0  0  0  0  0  0
  186.5420  177.4410  144.0980 C   0  0  0  0  0  1  0  0  0  0  0  0
  187.4750  177.6820  137.3960 C   0  0  0  0  0  2  0  0  0  0  0  0
  184.5470  178.7870  143.5430 C   0  0  0  0  0  0  0  0  0  0  0  0
  182.8680  179.1190  140.1090 C   0  0  2  0  0  3  0  0  0  0  0  0
  185.1880  178.6170  145.8300 C   0  0  2  0  0  3  0  0  0  0  0  0
  183.4320  178.7270  144.3230 C   0  0  0  0  0  0  0  0  0  0  0  0
  185.1750  179.0130  138.9200 C   0  0  2  0  0  3  0  0  0  0  0  0
  184.4540  178.9470  142.1540 C   0  0  0  0  0  0  0  0  0  0  0  0
  187.1870  177.7320  139.9340 C   0  0  0  0  0  2  0  0  0  0  0  0
  182.1650  178.8080  143.7670 C   0  0  0  0  0  3  0  0  0  0  0  0
  184.9760  178.1800  137.6470 C   0  0  0  0  0  2  0  0  0  0  0  0
  186.0510  177.1210  137.4000 C   0  0  0  0  0  2  0  0  0  0  0  0
  185.7490  178.2450  140.1320 C   0  0  1  0  0  3  0  0  0  0  0  0
  181.2130  175.6100  138.1660 C   0  0  0  0  0  2  0  0  0  0  0  0
  182.1900  177.8700  139.5290 C   0  0  0  0  0  3  0  0  0  0  0  0
  182.9710  176.5760  139.7750 C   0  0  0  0  0  2  0  0  0  0  0  0
  182.1720  175.3430  139.3330 C   0  0  0  0  0  2  0  0  0  0  0  0
  181.7200  176.7410  137.2750 C   0  0  0  0  0  2  0  0  0  0  0  0
  181.7950  178.0590  138.0550 C   0  0  0  0  0  2  0  0  0  0  0  0
  1 12  1  0  0  0  0
  2 16  2  0  0  0  0
  2  6  1  0  0  0  0
  3 16  1  0  0  0  0
  4 13  1  0  0  0  0
  6 18  2  0  0  0  0
  7  9  1  6  0  0  0
  7 13  1  0  0  0  0
  8 17  1  0  0  0  0
 10 20  1  0  0  0  0
 10  8  1  0  0  0  0
 11 14  2  0  0  0  0
 11  7  1  0  0  0  0
 12 23  1  6  0  0  0
 12  2  1  0  0  0  0
 13  5  1  1  0  0  0
 14  4  1  0  0  0  0
 15 19  1  6  0  0  0
 15  1  1  0  0  0  0
 15 21  1  0  0  0  0
 16 11  1  0  0  0  0
 18 14  1  0  0  0  0
 20 19  1  0  0  0  0
 21 17  1  6  0  0  0
 21  3  1  0  0  0  0
 22 25  1  0  0  0  0
 23 24  1  0  0  0  0
 25 24  1  0  0  0  0
 26 27  1  0  0  0  0
 26 22  1  0  0  0  0
 27 23  1  0  0  0  0
M  END
>  <MODEL>
3

>  <REMARK>
 VINA RESULT:      -6.8      3.497      4.933
  Name = 
  1 active torsions:
  status: ('A' for Active; 'I' for Inactive)
    1  A    between atoms: C_9  and  C_15
                            x       y       z     vdW  Elec       q    Type
                         _______ _______ _______ _____ _____    ______ ____

>  <TORSDO>
F 1

$$$$
=
 OpenBabel10272401003D

 27 31  0  0  1  0  0  0  0  0999 V2000
  185.4740  179.3190  139.0290 C   0  0  0  0  0  2  0  0  0  0  0  0
  184.2310  178.6810  141.2280 C   0  0  0  0  0  0  0  0  0  0  0  0
  186.7980  178.7810  141.5310 C   0  0  0  0  0  2  0  0  0  0  0  0
  183.9610  178.5760  145.3870 N   0  0  0  0  0  2  0  0  0  0  0  0
  185.6210  179.8070  146.5670 N   0  0  0  0  0  1  0  0  0  0  0  0
  182.9950  178.6580  141.8180 N   0  0  0  0  0  0  0  0  0  0  0  0
  186.2170  178.5850  144.5320 C   0  0  1  0  0  3  0  0  0  0  0  0
  189.4630  177.8140  139.4480 C   0  0  0  0  0  2  0  0  0  0  0  0
  187.0280  177.3020  144.4850 C   0  0  0  0  0  1  0  0  0  0  0  0
  189.3140  177.0650  138.1160 C   0  0  0  0  0  2  0  0  0  0  0  0
  185.2010  178.5940  143.4380 C   0  0  0  0  0  0  0  0  0  0  0  0
  184.2620  178.6680  139.7190 C   0  0  2  0  0  3  0  0  0  0  0  0
  185.3590  178.5930  145.8140 C   0  0  2  0  0  3  0  0  0  0  0  0
  183.9500  178.5840  143.9760 C   0  0  0  0  0  0  0  0  0  0  0  0
  186.7630  178.4890  139.0380 C   0  0  2  0  0  3  0  0  0  0  0  0
  185.3960  178.6520  142.0520 C   0  0  0  0  0  0  0  0  0  0  0  0
  188.5130  177.2960  140.5310 C   0  0  0  0  0  2  0  0  0  0  0  0
  182.8240  178.6180  143.1680 C   0  0  0  0  0  3  0  0  0  0  0  0
  186.8210  177.5650  137.8140 C   0  0  0  0  0  2  0  0  0  0  0  0
  187.9130  176.4970  137.8690 C   0  0  0  0  0  2  0  0  0  0  0  0
  187.0700  177.8130  140.3930 C   0  0  1  0  0  3  0  0  0  0  0  0
  182.3310  175.1970  137.9720 C   0  0  0  0  0  2  0  0  0  0  0  0
  183.7060  177.3760  139.1030 C   0  0  0  0  0  3  0  0  0  0  0  0
  183.4920  177.4590  137.5890 C   0  0  0  0  0  2  0  0  0  0  0  0
  183.1040  176.0970  136.9990 C   0  0  0  0  0  2  0  0  0  0  0  0
  181.5340  176.0190  138.9800 C   0  0  0  0  0  2  0  0  0  0  0  0
  182.4660  176.8640  139.8550 C   0  0  0  0  0  2  0  0  0  0  0  0
  1 15  1  0  0  0  0
  1 12  1  0  0  0  0
  2  6  2  0  0  0  0
  2 16  1  0  0  0  0
  3 16  1  0  0  0  0
  4 13  1  0  0  0  0
  6 18  1  0  0  0  0
  7  9  1  1  0  0  0
  7 13  1  0  0  0  0
  8 17  1  0  0  0  0
 10  8  1  0  0  0  0
 11 14  1  0  0  0  0
 11  7  1  0  0  0  0
 12 23  1  1  0  0  0
 12  2  1  0  0  0  0
 13  5  1  6  0  0  0
 14  4  1  0  0  0  0
 15 19  1  6  0  0  0
 15 21  1  0  0  0  0
 16 11  2  0  0  0  0
 18 14  2  0  0  0  0
 19 20  1  0  0  0  0
 20 10  1  0  0  0  0
 21 17  1  6  0  0  0
 21  3  1  0  0  0  0
 22 26  1  0  0  0  0
 23 27  1  0  0  0  0
 24 23  1  0  0  0  0
 25 24  1  0  0  0  0
 25 22  1  0  0  0  0
 26 27  1  0  0  0  0
M  END
>  <MODEL>
4

>  <REMARK>
 VINA RESULT:      -6.1      2.902      4.098
  Name = 
  1 active torsions:
  status: ('A' for Active; 'I' for Inactive)
    1  A    between atoms: C_9  and  C_15
                            x       y       z     vdW  Elec       q    Type
                         _______ _______ _______ _____ _____    ______ ____

>  <TORSDO>
F 1

$$$$
=
 OpenBabel10272401003D

 27 31  0  0  1  0  0  0  0  0999 V2000
  189.3570  178.6020  139.4750 C   0  0  0  0  0  2  0  0  0  0  0  0
  187.0670  178.0380  138.3670 C   0  0  0  0  0  0  0  0  0  0  0  0
  186.8350  178.6630  140.8660 C   0  0  0  0  0  2  0  0  0  0  0  0
  182.9270  178.4410  138.1020 N   0  0  0  0  0  2  0  0  0  0  0  0
  181.9550  180.1110  139.4910 N   0  0  0  0  0  1  0  0  0  0  0  0
  186.4540  177.8600  137.1550 N   0  0  0  0  0  0  0  0  0  0  0  0
  183.8220  178.7640  140.3190 C   0  0  1  0  0  3  0  0  0  0  0  0
  188.8280  177.9510  143.6760 C   0  0  0  0  0  2  0  0  0  0  0  0
  183.7170  177.6630  141.3600 C   0  0  0  0  0  1  0  0  0  0  0  0
  190.0450  177.0160  143.6790 C   0  0  0  0  0  2  0  0  0  0  0  0
  184.8860  178.4330  139.3250 C   0  0  0  0  0  0  0  0  0  0  0  0
  188.5620  177.8300  138.4070 C   0  0  2  0  0  3  0  0  0  0  0  0
  182.5350  178.7800  139.4690 C   0  0  2  0  0  3  0  0  0  0  0  0
  184.3260  178.2570  138.0960 C   0  0  0  0  0  0  0  0  0  0  0  0
  189.2660  178.0400  140.8990 C   0  0  2  0  0  3  0  0  0  0  0  0
  186.2710  178.3420  139.5110 C   0  0  0  0  0  0  0  0  0  0  0  0
  187.6660  177.4110  142.8380 C   0  0  0  0  0  2  0  0  0  0  0  0
  185.1070  177.9680  136.9880 C   0  0  0  0  0  3  0  0  0  0  0  0
  190.3580  176.9880  141.1380 C   0  0  0  0  0  2  0  0  0  0  0  0
  190.1860  176.1640  142.4140 C   0  0  0  0  0  2  0  0  0  0  0  0
  187.8400  177.6220  141.3230 C   0  0  1  0  0  3  0  0  0  0  0  0
  189.6720  173.8160  137.1860 C   0  0  0  0  0  2  0  0  0  0  0  0
  188.9900  176.3850  138.1100 C   0  0  0  0  0  3  0  0  0  0  0  0
  190.3720  176.2750  137.4610 C   0  0  0  0  0  2  0  0  0  0  0  0
  190.8260  174.8140  137.3460 C   0  0  0  0  0  2  0  0  0  0  0  0
  188.4700  174.4590  136.5000 C   0  0  0  0  0  2  0  0  0  0  0  0
  187.9070  175.6070  137.3460 C   0  0  0  0  0  2  0  0  0  0  0  0
  2 12  1  0  0  0  0
  2 16  1  0  0  0  0
  4 13  1  0  0  0  0
  6  2  2  0  0  0  0
  7  9  1  1  0  0  0
  8 10  1  0  0  0  0
 11 16  2  0  0  0  0
 11  7  1  0  0  0  0
 12 23  1  1  0  0  0
 12  1  1  0  0  0  0
 13  5  1  6  0  0  0
 13  7  1  0  0  0  0
 14  4  1  0  0  0  0
 14 11  1  0  0  0  0
 15  1  1  6  0  0  0
 15 19  1  0  0  0  0
 15 21  1  0  0  0  0
 16  3  1  0  0  0  0
 17  8  1  0  0  0  0
 18  6  1  0  0  0  0
 18 14  2  0  0  0  0
 19 20  1  0  0  0  0
 20 10  1  0  0  0  0
 21  3  1  1  0  0  0
 21 17  1  0  0  0  0
 22 25  1  0  0  0  0
 24 23  1  0  0  0  0
 25 24  1  0  0  0  0
 26 22  1  0  0  0  0
 26 27  1  0  0  0  0
 27 23  1  0  0  0  0
M  END
>  <MODEL>
5

>  <REMARK>
 VINA RESULT:      -6.0      2.581      5.270
  Name = 
  1 active torsions:
  status: ('A' for Active; 'I' for Inactive)
    1  A    between atoms: C_9  and  C_15
                            x       y       z     vdW  Elec       q    Type
                         _______ _______ _______ _____ _____    ______ ____

>  <TORSDO>
F 1

$$$$
=
 OpenBabel10272401003D

 27 31  0  0  1  0  0  0  0  0999 V2000
  190.5050  178.9990  143.4180 C   0  0  0  0  0  2  0  0  0  0  0  0
  191.4100  177.6690  141.3680 C   0  0  0  0  0  0  0  0  0  0  0  0
  188.8790  178.1710  141.1900 C   0  0  0  0  0  2  0  0  0  0  0  0
  191.2620  176.5930  137.3440 N   0  0  0  0  0  2  0  0  0  0  0  0
  189.7260  177.8150  135.9980 N   0  0  0  0  0  1  0  0  0  0  0  0
  192.5630  177.2880  140.7350 N   0  0  0  0  0  0  0  0  0  0  0  0
  189.1310  177.2080  138.2930 C   0  0  1  0  0  3  0  0  0  0  0  0
  186.3000  178.2000  143.5820 C   0  0  0  0  0  2  0  0  0  0  0  0
  188.1250  176.1400  138.6850 C   0  0  0  0  0  1  0  0  0  0  0  0
  186.4470  177.7520  145.0430 C   0  0  0  0  0  2  0  0  0  0  0  0
  190.2340  177.2730  139.2970 C   0  0  0  0  0  0  0  0  0  0  0  0
  191.5200  177.9990  142.8380 C   0  0  2  0  0  3  0  0  0  0  0  0
  189.8530  176.7720  137.0010 C   0  0  2  0  0  3  0  0  0  0  0  0
  191.4090  176.9120  138.7110 C   0  0  0  0  0  0  0  0  0  0  0  0
  189.1000  178.4410  143.6750 C   0  0  2  0  0  3  0  0  0  0  0  0
  190.1840  177.6730  140.6390 C   0  0  0  0  0  0  0  0  0  0  0  0
  187.0420  177.2880  142.6030 C   0  0  0  0  0  2  0  0  0  0  0  0
  192.5960  176.9170  139.4260 C   0  0  0  0  0  3  0  0  0  0  0  0
  189.0060  177.8390  145.0840 C   0  0  0  0  0  2  0  0  0  0  0  0
  187.7500  177.0050  145.3420 C   0  0  0  0  0  2  0  0  0  0  0  0
  188.5580  177.5480  142.5360 C   0  0  1  0  0  3  0  0  0  0  0  0
  192.3000  174.6860  145.5310 C   0  0  0  0  0  2  0  0  0  0  0  0
  191.9090  176.7970  143.7110 C   0  0  0  0  0  3  0  0  0  0  0  0
  191.0680  175.5460  143.4440 C   0  0  0  0  0  2  0  0  0  0  0  0
  191.6070  174.3300  144.2090 C   0  0  0  0  0  2  0  0  0  0  0  0
  191.7310  175.9690  146.1310 C   0  0  0  0  0  2  0  0  0  0  0  0
  191.9790  177.1640  145.2020 C   0  0  0  0  0  2  0  0  0  0  0  0
  2 12  1  0  0  0  0
  4 14  1  0  0  0  0
  6  2  1  0  0  0  0
  7  9  1  1  0  0  0
  7 11  1  0  0  0  0
  8 10  1  0  0  0  0
 10 20  1  0  0  0  0
 11 16  1  0  0  0  0
 12  1  1  0  0  0  0
 12 23  1  1  0  0  0
 13  5  1  6  0  0  0
 13  4  1  0  0  0  0
 13  7  1  0  0  0  0
 14 11  2  0  0  0  0
 14 18  1  0  0  0  0
 15  1  1  6  0  0  0
 15 19  1  0  0  0  0
 16  3  1  0  0  0  0
 16  2  2  0  0  0  0
 17  8  1  0  0  0  0
 18  6  2  0  0  0  0
 19 20  1  0  0  0  0
 21  3  1  6  0  0  0
 21 17  1  0  0  0  0
 21 15  1  0  0  0  0
 22 26  1  0  0  0  0
 23 27  1  0  0  0  0
 24 23  1  0  0  0  0
 24 25  1  0  0  0  0
 25 22  1  0  0  0  0
 27 26  1  0  0  0  0
M  END
>  <MODEL>
6

>  <REMARK>
 VINA RESULT:      -6.0      2.637      7.534
  Name = 
  1 active torsions:
  status: ('A' for Active; 'I' for Inactive)
    1  A    between atoms: C_9  and  C_15
                            x       y       z     vdW  Elec       q    Type
                         _______ _______ _______ _____ _____    ______ ____

>  <TORSDO>
F 1

$$$$
=
 OpenBabel10272401003D

 27 31  0  0  1  0  0  0  0  0999 V2000
  186.0930  177.4640  135.5950 C   0  0  0  0  0  2  0  0  0  0  0  0
  183.9840  176.7530  136.9500 C   0  0  0  0  0  0  0  0  0  0  0  0
  185.4860  178.4120  138.2460 C   0  0  0  0  0  2  0  0  0  0  0  0
  181.0590  177.4870  139.8280 N   0  0  0  0  0  2  0  0  0  0  0  0
  181.0100  179.6930  140.7190 N   0  0  0  0  0  1  0  0  0  0  0  0
  182.7620  176.1460  136.8320 N   0  0  0  0  0  0  0  0  0  0  0  0
  183.1520  178.6220  140.2190 C   0  0  1  0  0  3  0  0  0  0  0  0
  188.9810  178.7440  138.4870 C   0  0  0  0  0  2  0  0  0  0  0  0
  184.1330  178.0950  141.2520 C   0  0  0  0  0  1  0  0  0  0  0  0
  190.0020  177.7650  137.8930 C   0  0  0  0  0  2  0  0  0  0  0  0
  183.1920  177.7740  138.9900 C   0  0  0  0  0  0  0  0  0  0  0  0
  185.0170  176.4080  135.9040 C   0  0  2  0  0  3  0  0  0  0  0  0
  181.7140  178.4230  140.7400 C   0  0  2  0  0  3  0  0  0  0  0  0
  181.9910  177.1560  138.8210 C   0  0  0  0  0  0  0  0  0  0  0  0
  187.2180  177.5820  136.6290 C   0  0  2  0  0  3  0  0  0  0  0  0
  184.2310  177.6090  138.0640 C   0  0  0  0  0  0  0  0  0  0  0  0
  187.7770  178.0380  139.1180 C   0  0  0  0  0  2  0  0  0  0  0  0
  181.7580  176.3300  137.7320 C   0  0  0  0  0  3  0  0  0  0  0  0
  188.3620  176.6140  136.2990 C   0  0  0  0  0  2  0  0  0  0  0  0
  189.3980  176.4430  137.4110 C   0  0  0  0  0  2  0  0  0  0  0  0
  186.7320  177.5570  138.0960 C   0  0  1  0  0  3  0  0  0  0  0  0
  185.9110  172.1700  136.1780 C   0  0  0  0  0  2  0  0  0  0  0  0
  185.4550  174.9360  135.9340 C   0  0  0  0  0  3  0  0  0  0  0  0
  184.7710  174.0700  134.8730 C   0  0  0  0  0  2  0  0  0  0  0  0
  185.3670  172.6570  134.8280 C   0  0  0  0  0  2  0  0  0  0  0  0
  185.1660  172.8150  137.3440 C   0  0  0  0  0  2  0  0  0  0  0  0
  185.3640  174.3350  137.3460 C   0  0  0  0  0  2  0  0  0  0  0  0
  1 12  1  0  0  0  0
  2 16  1  0  0  0  0
  4 13  1  0  0  0  0
  6  2  2  0  0  0  0
  6 18  1  0  0  0  0
  7 13  1  0  0  0  0
  7  9  1  1  0  0  0
  8 17  1  0  0  0  0
 10  8  1  0  0  0  0
 11  7  1  0  0  0  0
 12 23  1  1  0  0  0
 12  2  1  0  0  0  0
 13  5  1  6  0  0  0
 14 11  1  0  0  0  0
 14  4  1  0  0  0  0
 15  1  1  6  0  0  0
 15 21  1  0  0  0  0
 16  3  1  0  0  0  0
 16 11  2  0  0  0  0
 18 14  2  0  0  0  0
 19 15  1  0  0  0  0
 19 20  1  0  0  0  0
 20 10  1  0  0  0  0
 21  3  1  6  0  0  0
 21 17  1  0  0  0  0
 22 26  1  0  0  0  0
 23 27  1  0  0  0  0
 24 23  1  0  0  0  0
 25 24  1  0  0  0  0
 25 22  1  0  0  0  0
 26 27  1  0  0  0  0
M  END
>  <MODEL>
7

>  <REMARK>
 VINA RESULT:      -5.9      3.457      5.258
  Name = 
  1 active torsions:
  status: ('A' for Active; 'I' for Inactive)
    1  A    between atoms: C_9  and  C_15
                            x       y       z     vdW  Elec       q    Type
                         _______ _______ _______ _____ _____    ______ ____

>  <TORSDO>
F 1

$$$$
=
 OpenBabel10272401003D

 27 31  0  0  1  0  0  0  0  0999 V2000
  183.9820  179.5380  139.6180 C   0  0  0  0  0  2  0  0  0  0  0  0
  186.3870  178.5440  139.4990 C   0  0  0  0  0  0  0  0  0  0  0  0
  184.8040  177.5340  137.7210 C   0  0  0  0  0  2  0  0  0  0  0  0
  189.5260  176.7890  137.3910 N   0  0  0  0  0  2  0  0  0  0  0  0
  189.2570  176.6770  135.0300 N   0  0  0  0  0  1  0  0  0  0  0  0
  187.6730  178.7370  139.9300 N   0  0  0  0  0  0  0  0  0  0  0  0
  187.3350  176.3130  136.5000 C   0  0  1  0  0  3  0  0  0  0  0  0
  181.4070  176.6240  137.8220 C   0  0  0  0  0  2  0  0  0  0  0  0
  186.6720  174.9720  136.7620 C   0  0  0  0  0  1  0  0  0  0  0  0
  180.5310  176.6300  139.0820 C   0  0  0  0  0  2  0  0  0  0  0  0
  187.2720  177.1670  137.7230 C   0  0  0  0  0  0  0  0  0  0  0  0
  185.2920  179.1630  140.3340 C   0  0  2  0  0  3  0  0  0  0  0  0
  188.8490  176.0960  136.2970 C   0  0  2  0  0  3  0  0  0  0  0  0
  188.5320  177.4000  138.1850 C   0  0  0  0  0  0  0  0  0  0  0  0
  183.0440  178.3680  139.3030 C   0  0  2  0  0  3  0  0  0  0  0  0
  186.1530  177.7320  138.3490 C   0  0  0  0  0  0  0  0  0  0  0  0
  182.8190  176.0920  138.0830 C   0  0  0  0  0  2  0  0  0  0  0  0
  188.7500  178.1940  139.3000 C   0  0  0  0  0  3  0  0  0  0  0  0
  182.0900  178.1060  140.4770 C   0  0  0  0  0  2  0  0  0  0  0  0
  181.3120  176.7930  140.3890 C   0  0  0  0  0  2  0  0  0  0  0  0
  183.7590  177.1190  138.7400 C   0  0  1  0  0  3  0  0  0  0  0  0
  185.2990  177.7210  144.4260 C   0  0  0  0  0  2  0  0  0  0  0  0
  185.1840  178.5710  141.7460 C   0  0  0  0  0  3  0  0  0  0  0  0
  184.4940  179.4980  142.7500 C   0  0  0  0  0  2  0  0  0  0  0  0
  184.2550  178.7950  144.0930 C   0  0  0  0  0  2  0  0  0  0  0  0
  186.6470  178.0350  143.7830 C   0  0  0  0  0  2  0  0  0  0  0  0
  186.5350  178.0390  142.2540 C   0  0  0  0  0  2  0  0  0  0  0  0
  1 12  1  0  0  0  0
  2  6  1  0  0  0  0
  2 12  1  0  0  0  0
  3 16  1  0  0  0  0
  4 14  1  0  0  0  0
  7  9  1  1  0  0  0
  7 11  1  0  0  0  0
  8 17  1  0  0  0  0
  8 10  1  0  0  0  0
 10 20  1  0  0  0  0
 11 14  2  0  0  0  0
 11 16  1  0  0  0  0
 12 23  1  1  0  0  0
 13  5  1  6  0  0  0
 13  7  1  0  0  0  0
 13  4  1  0  0  0  0
 14 18  1  0  0  0  0
 15  1  1  1  0  0  0
 15 19  1  0  0  0  0
 16  2  2  0  0  0  0
 17 21  1  0  0  0  0
 18  6  2  0  0  0  0
 20 19  1  0  0  0  0
 21  3  1  6  0  0  0
 21 15  1  0  0  0  0
 23 27  1  0  0  0  0
 23 24  1  0  0  0  0
 24 25  1  0  0  0  0
 25 22  1  0  0  0  0
 26 22  1  0  0  0  0
 27 26  1  0  0  0  0
M  END
>  <MODEL>
8

>  <REMARK>
 VINA RESULT:      -5.8      3.158      7.197
  Name = 
  1 active torsions:
  status: ('A' for Active; 'I' for Inactive)
    1  A    between atoms: C_9  and  C_15
                            x       y       z     vdW  Elec       q    Type
                         _______ _______ _______ _____ _____    ______ ____

>  <TORSDO>
F 1

$$$$
=
 OpenBabel10272401003D

 27 31  0  0  1  0  0  0  0  0999 V2000
  187.8630  176.9920  135.4170 C   0  0  0  0  0  2  0  0  0  0  0  0
  185.3800  176.7930  136.1810 C   0  0  0  0  0  0  0  0  0  0  0  0
  186.7870  178.2890  137.7520 C   0  0  0  0  0  2  0  0  0  0  0  0
  182.0090  178.3020  138.1130 N   0  0  0  0  0  2  0  0  0  0  0  0
  182.1560  180.5610  138.8460 N   0  0  0  0  0  1  0  0  0  0  0  0
  184.1370  176.3950  135.7650 N   0  0  0  0  0  0  0  0  0  0  0  0
  184.1080  179.0930  139.0020 C   0  0  1  0  0  3  0  0  0  0  0  0
  190.0970  178.0380  138.9190 C   0  0  0  0  0  2  0  0  0  0  0  0
  184.6690  178.5110  140.2880 C   0  0  0  0  0  1  0  0  0  0  0  0
  191.0300  176.8440  138.6740 C   0  0  0  0  0  2  0  0  0  0  0  0
  184.3000  178.1330  137.8740 C   0  0  0  0  0  0  0  0  0  0  0  0
  186.5620  176.1720  135.4740 C   0  0  2  0  0  3  0  0  0  0  0  0
  182.5740  179.1970  139.1220 C   0  0  2  0  0  3  0  0  0  0  0  0
  183.0870  177.7160  137.4160 C   0  0  0  0  0  0  0  0  0  0  0  0
  188.6840  177.0170  136.7110 C   0  0  2  0  0  3  0  0  0  0  0  0
  185.4910  177.7000  137.2760 C   0  0  0  0  0  0  0  0  0  0  0  0
  188.6590  177.6160  139.2320 C   0  0  0  0  0  2  0  0  0  0  0  0
  182.9890  176.8390  136.3480 C   0  0  0  0  0  3  0  0  0  0  0  0
  189.6670  175.8390  136.7540 C   0  0  0  0  0  2  0  0  0  0  0  0
  190.3270  175.6040  138.1120 C   0  0  0  0  0  2  0  0  0  0  0  0
  187.8410  177.2220  137.9890 C   0  0  1  0  0  3  0  0  0  0  0  0
  186.5300  171.8980  136.2210 C   0  0  0  0  0  2  0  0  0  0  0  0
  186.6860  174.6580  135.6950 C   0  0  0  0  0  3  0  0  0  0  0  0
  186.0530  173.8200  134.5810 C   0  0  0  0  0  2  0  0  0  0  0  0
  186.3550  172.3270  134.7580 C   0  0  0  0  0  2  0  0  0  0  0  0
  185.7250  172.7880  137.1630 C   0  0  0  0  0  2  0  0  0  0  0  0
  186.2170  174.2390  137.0980 C   0  0  0  0  0  2  0  0  0  0  0  0
  1 12  1  0  0  0  0
  2 16  1  0  0  0  0
  4 13  1  0  0  0  0
  6  2  2  0  0  0  0
  6 18  1  0  0  0  0
  7 13  1  0  0  0  0
  7  9  1  1  0  0  0
  8 17  1  0  0  0  0
 10  8  1  0  0  0  0
 11  7  1  0  0  0  0
 12 23  1  1  0  0  0
 12  2  1  0  0  0  0
 13  5  1  6  0  0  0
 14 11  1  0  0  0  0
 14  4  1  0  0  0  0
 15  1  1  6  0  0  0
 15 19  1  0  0  0  0
 15 21  1  0  0  0  0
 16  3  1  0  0  0  0
 16 11  2  0  0  0  0
 18 14  2  0  0  0  0
 19 20  1  0  0  0  0
 20 10  1  0  0  0  0
 21  3  1  6  0  0  0
 21 17  1  0  0  0  0
 22 26  1  0  0  0  0
 23 27  1  0  0  0  0
 24 25  1  0  0  0  0
 24 23  1  0  0  0  0
 25 22  1  0  0  0  0
 27 26  1  0  0  0  0
M  END
>  <MODEL>
9

>  <REMARK>
 VINA RESULT:      -5.8      3.315      5.067
  Name = 
  1 active torsions:
  status: ('A' for Active; 'I' for Inactive)
    1  A    between atoms: C_9  and  C_15
                            x       y       z     vdW  Elec       q    Type
                         _______ _______ _______ _____ _____    ______ ____

>  <TORSDO>
F 1

$$$$
