=
 OpenBabel10272413523D

 30 33  0  0  1  0  0  0  0  0999 V2000
  187.9690  178.7260  141.2110 C   0  0  0  0  0  2  0  0  0  0  0  0
  189.5270  177.2930  142.5810 C   0  0  2  0  0  3  0  0  0  0  0  0
  188.8380  176.3510  137.3010 S   0  0  0  0  0  0  0  0  0  0  0  0
  186.9890  178.7660  140.0250 C   0  0  1  0  0  3  0  0  0  0  0  0
  187.4730  177.2970  136.5300 C   0  0  1  0  0  3  0  0  0  0  0  0
  190.9180  177.8550  142.2740 C   0  0  0  0  0  2  0  0  0  0  0  0
  189.6370  175.8680  143.0930 C   0  0  0  0  0  1  0  0  0  0  0  0
  188.4790  177.1280  138.8670 C   0  0  2  0  0  3  0  0  0  0  0  0
  191.4110  177.3360  140.9240 C   0  0  0  0  0  2  0  0  0  0  0  0
  188.6060  177.3440  141.3580 C   0  0  2  0  0  3  0  0  0  0  0  0
  187.4790  177.9970  138.8230 C   0  0  0  0  0  0  0  0  0  0  0  0
  186.4880  176.3770  135.9910 N   0  0  0  0  0  1  0  0  0  0  0  0
  186.8580  178.1210  137.5560 N   0  0  0  0  0  0  0  0  0  0  0  0
  190.5200  177.7320  139.9140 O   0  0  0  0  0  0  0  0  0  0  0  0
  189.3600  176.9500  140.0690 C   0  0  2  0  0  3  0  0  0  0  0  0
  185.5490  178.3740  140.3900 C   0  0  2  0  0  3  0  0  0  0  0  0
  183.3920  176.7670  139.0800 C   0  0  0  0  0  2  0  0  0  0  0  0
  184.5210  180.2520  139.3190 O   0  0  0  0  0  0  0  0  0  0  0  0
  184.5060  179.0060  139.5130 C   0  0  0  0  0  0  0  0  0  0  0  0
  182.4450  178.7480  138.0650 C   0  0  0  0  0  2  0  0  0  0  0  0
  183.4860  178.2030  138.9090 N   0  0  0  0  0  0  0  0  0  0  0  0
  182.2590  176.3230  138.1730 C   0  0  0  0  0  2  0  0  0  0  0  0
  181.5220  177.5870  137.7510 C   0  0  0  0  0  2  0  0  0  0  0  0
  185.2220  178.4050  141.8600 C   0  0  0  0  0  2  0  0  0  0  0  0
  183.7320  178.6790  142.4260 S   0  0  0  0  0  0  0  0  0  0  0  0
  183.9730  178.7960  144.2050 C   0  0  0  0  0  2  0  0  0  0  0  0
  185.4000  178.4190  144.5530 C   0  0  0  0  0  2  0  0  0  0  0  0
  186.8540  178.2840  146.5700 O   0  0  0  0  0  0  0  0  0  0  0  0
  185.5860  178.4470  146.0270 C   0  0  0  0  0  0  0  0  0  0  0  0
  184.6000  178.6490  146.7830 O   0  0  0  0  0  1  0  0  0  0  0  0
  2  7  1  6  0  0  0
  4 16  1  1  0  0  0
  4  1  1  0  0  0  0
  5 12  1  1  0  0  0
  5  3  1  0  0  0  0
  5 13  1  0  0  0  0
  6  2  1  0  0  0  0
  8  3  1  6  0  0  0
  8 15  1  0  0  0  0
  9  6  1  0  0  0  0
 10  1  1  6  0  0  0
 10  2  1  0  0  0  0
 11  8  1  0  0  0  0
 11  4  1  0  0  0  0
 13 11  2  0  0  0  0
 14  9  1  0  0  0  0
 15 14  1  6  0  0  0
 15 10  1  0  0  0  0
 16 24  1  1  0  0  0
 18 19  2  0  0  0  0
 19 16  1  0  0  0  0
 20 21  1  0  0  0  0
 21 17  1  0  0  0  0
 21 19  1  0  0  0  0
 22 17  1  0  0  0  0
 23 20  1  0  0  0  0
 23 22  1  0  0  0  0
 24 25  1  0  0  0  0
 25 26  1  0  0  0  0
 26 27  1  0  0  0  0
 27 29  1  0  0  0  0
 29 28  2  0  0  0  0
 29 30  1  0  0  0  0
M  END
>  <MODEL>
1

>  <REMARK>
 VINA RESULT:      -6.9      0.000      0.000
  Name = 
  6 active torsions:
  status: ('A' for Active; 'I' for Inactive)
    1  A    between atoms: C_4  and  C_13
    2  A    between atoms: C_7  and  C_15
    3  A    between atoms: C_7  and  C_16
    4  A    between atoms: C_8  and  C_13
    5  A    between atoms: C_13  and  C_27
    6  A    between atoms: C_16  and  S_30
                            x       y       z     vdW  Elec       q    Type
                         _______ _______ _______ _____ _____    ______ ____

>  <TORSDO>
F 6

$$$$
=
 OpenBabel10272413523D

 30 33  0  0  1  0  0  0  0  0999 V2000
  188.7280  178.6430  140.6630 C   0  0  0  0  0  2  0  0  0  0  0  0
  189.0780  177.5220  142.8940 C   0  0  2  0  0  3  0  0  0  0  0  0
  191.6630  175.7580  138.4840 S   0  0  0  0  0  0  0  0  0  0  0  0
  188.6610  178.4490  139.1380 C   0  0  1  0  0  3  0  0  0  0  0  0
  191.0830  176.5000  136.9130 C   0  0  1  0  0  3  0  0  0  0  0  0
  190.3980  178.1090  143.4030 C   0  0  0  0  0  2  0  0  0  0  0  0
  188.7910  176.1990  143.5810 C   0  0  0  0  0  1  0  0  0  0  0  0
  190.4700  176.7410  139.3760 C   0  0  2  0  0  3  0  0  0  0  0  0
  191.5790  177.4200  142.7210 C   0  0  0  0  0  2  0  0  0  0  0  0
  189.0820  177.3360  141.3740 C   0  0  2  0  0  3  0  0  0  0  0  0
  189.7390  177.5360  138.6080 C   0  0  0  0  0  0  0  0  0  0  0  0
  190.5780  175.4550  136.0400 N   0  0  0  0  0  1  0  0  0  0  0  0
  190.0130  177.4330  137.2210 N   0  0  0  0  0  0  0  0  0  0  0  0
  191.4950  177.6090  141.3320 O   0  0  0  0  0  0  0  0  0  0  0  0
  190.4400  176.7960  140.8760 C   0  0  2  0  0  3  0  0  0  0  0  0
  187.2750  178.0360  138.6190 C   0  0  2  0  0  3  0  0  0  0  0  0
  186.5060  175.8600  136.7150 C   0  0  0  0  0  2  0  0  0  0  0  0
  187.2210  179.4610  136.6960 O   0  0  0  0  0  0  0  0  0  0  0  0
  187.0730  178.2950  137.1530 C   0  0  0  0  0  0  0  0  0  0  0  0
  186.4750  177.4090  134.8570 C   0  0  0  0  0  2  0  0  0  0  0  0
  186.6990  177.2270  136.2760 N   0  0  0  0  0  0  0  0  0  0  0  0
  186.2480  175.0590  135.4520 C   0  0  0  0  0  2  0  0  0  0  0  0
  185.9800  176.0700  134.3460 C   0  0  0  0  0  2  0  0  0  0  0  0
  186.1110  178.4430  139.4840 C   0  0  0  0  0  2  0  0  0  0  0  0
  184.5860  178.4790  138.9500 S   0  0  0  0  0  0  0  0  0  0  0  0
  183.6780  179.2120  140.3190 C   0  0  0  0  0  2  0  0  0  0  0  0
  183.3750  178.1490  141.3580 C   0  0  0  0  0  2  0  0  0  0  0  0
  183.3050  179.0750  143.6680 O   0  0  0  0  0  1  0  0  0  0  0  0
  184.0380  178.4930  142.6430 C   0  0  0  0  0  0  0  0  0  0  0  0
  185.2560  178.2280  142.8130 O   0  0  0  0  0  0  0  0  0  0  0  0
  2  6  1  0  0  0  0
  2  7  1  1  0  0  0
  4 16  1  1  0  0  0
  4  1  1  0  0  0  0
  5 12  1  6  0  0  0
  5 13  1  0  0  0  0
  5  3  1  0  0  0  0
  8  3  1  6  0  0  0
  8 15  1  0  0  0  0
  9  6  1  0  0  0  0
 10  1  1  6  0  0  0
 10  2  1  0  0  0  0
 11  4  1  0  0  0  0
 11  8  1  0  0  0  0
 13 11  2  0  0  0  0
 14  9  1  0  0  0  0
 15 14  1  6  0  0  0
 15 10  1  0  0  0  0
 16 24  1  1  0  0  0
 18 19  2  0  0  0  0
 19 16  1  0  0  0  0
 20 21  1  0  0  0  0
 21 17  1  0  0  0  0
 21 19  1  0  0  0  0
 22 17  1  0  0  0  0
 23 20  1  0  0  0  0
 23 22  1  0  0  0  0
 25 24  1  0  0  0  0
 25 26  1  0  0  0  0
 26 27  1  0  0  0  0
 27 29  1  0  0  0  0
 29 30  2  0  0  0  0
 29 28  1  0  0  0  0
M  END
>  <MODEL>
2

>  <REMARK>
 VINA RESULT:      -6.5      2.381      3.333
  Name = 
  6 active torsions:
  status: ('A' for Active; 'I' for Inactive)
    1  A    between atoms: C_4  and  C_13
    2  A    between atoms: C_7  and  C_15
    3  A    between atoms: C_7  and  C_16
    4  A    between atoms: C_8  and  C_13
    5  A    between atoms: C_13  and  C_27
    6  A    between atoms: C_16  and  S_30
                            x       y       z     vdW  Elec       q    Type
                         _______ _______ _______ _____ _____    ______ ____

>  <TORSDO>
F 6

$$$$
=
 OpenBabel10272413523D

 30 33  0  0  1  0  0  0  0  0999 V2000
  188.7850  178.5020  142.3330 C   0  0  0  0  0  2  0  0  0  0  0  0
  190.6620  176.9390  142.9620 C   0  0  2  0  0  3  0  0  0  0  0  0
  188.5560  176.8600  137.9820 S   0  0  0  0  0  0  0  0  0  0  0  0
  187.5170  178.6900  141.4810 C   0  0  1  0  0  3  0  0  0  0  0  0
  187.0300  177.8520  137.7840 C   0  0  1  0  0  3  0  0  0  0  0  0
  191.9140  177.6150  142.3950 C   0  0  0  0  0  2  0  0  0  0  0  0
  190.9110  175.4560  143.1690 C   0  0  0  0  0  1  0  0  0  0  0  0
  188.6370  177.3460  139.6970 C   0  0  2  0  0  3  0  0  0  0  0  0
  192.0200  177.3530  140.8930 C   0  0  0  0  0  2  0  0  0  0  0  0
  189.4410  177.1480  142.0610 C   0  0  2  0  0  3  0  0  0  0  0  0
  187.6610  178.1580  140.0770 C   0  0  0  0  0  0  0  0  0  0  0  0
  185.9370  176.9870  137.3790 N   0  0  0  0  0  1  0  0  0  0  0  0
  186.7160  178.4610  139.0650 N   0  0  0  0  0  0  0  0  0  0  0  0
  190.8850  177.8670  140.2460 O   0  0  0  0  0  0  0  0  0  0  0  0
  189.8140  177.0140  140.5680 C   0  0  2  0  0  3  0  0  0  0  0  0
  186.2330  178.1700  142.1460 C   0  0  2  0  0  3  0  0  0  0  0  0
  183.8000  177.2770  140.6520 C   0  0  0  0  0  2  0  0  0  0  0  0
  185.0510  180.2320  142.4350 O   0  0  0  0  0  0  0  0  0  0  0  0
  185.0430  179.0670  141.9530 C   0  0  0  0  0  0  0  0  0  0  0  0
  182.7110  179.4040  141.0250 C   0  0  0  0  0  2  0  0  0  0  0  0
  183.8950  178.5990  141.2360 N   0  0  0  0  0  0  0  0  0  0  0  0
  182.4860  177.2600  139.8930 C   0  0  0  0  0  2  0  0  0  0  0  0
  181.7110  178.4900  140.3450 C   0  0  0  0  0  2  0  0  0  0  0  0
  186.3940  177.6530  143.5520 C   0  0  0  0  0  2  0  0  0  0  0  0
  185.7350  178.3760  144.8380 S   0  0  0  0  0  0  0  0  0  0  0  0
  186.4100  177.4570  146.2300 C   0  0  0  0  0  2  0  0  0  0  0  0
  187.9210  177.3940  146.1150 C   0  0  0  0  0  2  0  0  0  0  0  0
  189.8830  177.4430  147.6470 O   0  0  0  0  0  0  0  0  0  0  0  0
  188.5420  177.7260  147.4240 C   0  0  0  0  0  0  0  0  0  0  0  0
  187.8620  178.2910  148.3190 O   0  0  0  0  0  1  0  0  0  0  0  0
  2  7  1  6  0  0  0
  4 16  1  1  0  0  0
  4  1  1  0  0  0  0
  5 12  1  1  0  0  0
  5  3  1  0  0  0  0
  5 13  1  0  0  0  0
  6  2  1  0  0  0  0
  8  3  1  6  0  0  0
  8 11  1  0  0  0  0
  8 15  1  0  0  0  0
  9  6  1  0  0  0  0
 10  1  1  6  0  0  0
 10  2  1  0  0  0  0
 11  4  1  0  0  0  0
 13 11  2  0  0  0  0
 14  9  1  0  0  0  0
 15 14  1  6  0  0  0
 15 10  1  0  0  0  0
 16 24  1  1  0  0  0
 17 21  1  0  0  0  0
 19 16  1  0  0  0  0
 19 18  2  0  0  0  0
 20 21  1  0  0  0  0
 21 19  1  0  0  0  0
 22 23  1  0  0  0  0
 22 17  1  0  0  0  0
 23 20  1  0  0  0  0
 24 25  1  0  0  0  0
 25 26  1  0  0  0  0
 27 26  1  0  0  0  0
 27 29  1  0  0  0  0
 29 28  2  0  0  0  0
 29 30  1  0  0  0  0
M  END
>  <MODEL>
3

>  <REMARK>
 VINA RESULT:      -6.5      1.796      2.179
  Name = 
  6 active torsions:
  status: ('A' for Active; 'I' for Inactive)
    1  A    between atoms: C_4  and  C_13
    2  A    between atoms: C_7  and  C_15
    3  A    between atoms: C_7  and  C_16
    4  A    between atoms: C_8  and  C_13
    5  A    between atoms: C_13  and  C_27
    6  A    between atoms: C_16  and  S_30
                            x       y       z     vdW  Elec       q    Type
                         _______ _______ _______ _____ _____    ______ ____

>  <TORSDO>
F 6

$$$$
=
 OpenBabel10272413523D

 30 33  0  0  1  0  0  0  0  0999 V2000
  188.9680  176.6000  143.3190 C   0  0  0  0  0  2  0  0  0  0  0  0
  191.2290  177.5280  143.9450 C   0  0  2  0  0  3  0  0  0  0  0  0
  186.9040  178.4710  147.0500 S   0  0  0  0  0  0  0  0  0  0  0  0
  187.4460  176.8280  143.3520 C   0  0  1  0  0  3  0  0  0  0  0  0
  185.3070  177.9670  146.3070 C   0  0  1  0  0  3  0  0  0  0  0  0
  191.7490  176.5550  145.0080 C   0  0  0  0  0  2  0  0  0  0  0  0
  191.9370  178.8650  144.0630 C   0  0  0  0  0  1  0  0  0  0  0  0
  187.7530  177.8910  145.5920 C   0  0  2  0  0  3  0  0  0  0  0  0
  191.1020  176.8560  146.3590 C   0  0  0  0  0  2  0  0  0  0  0  0
  189.7120  177.7240  144.0410 C   0  0  2  0  0  3  0  0  0  0  0  0
  186.9550  177.3710  144.6700 C   0  0  0  0  0  0  0  0  0  0  0  0
  184.4470  179.1280  146.1690 N   0  0  0  0  0  1  0  0  0  0  0  0
  185.5760  177.4040  144.9950 N   0  0  0  0  0  0  0  0  0  0  0  0
  189.7090  176.7220  146.2540 O   0  0  0  0  0  0  0  0  0  0  0  0
  189.2510  177.8270  145.5110 C   0  0  2  0  0  3  0  0  0  0  0  0
  186.9110  177.6550  142.1720 C   0  0  2  0  0  3  0  0  0  0  0  0
  187.5850  177.1280  139.3050 C   0  0  0  0  0  2  0  0  0  0  0  0
  188.6000  179.3470  142.0480 O   0  0  0  0  0  0  0  0  0  0  0  0
  187.9720  178.4340  141.4470 C   0  0  0  0  0  0  0  0  0  0  0  0
  189.2570  178.8760  139.3110 C   0  0  0  0  0  2  0  0  0  0  0  0
  188.2590  178.1550  140.0720 N   0  0  0  0  0  0  0  0  0  0  0  0
  188.2860  177.0980  137.9600 C   0  0  0  0  0  2  0  0  0  0  0  0
  189.1440  178.3540  137.8920 C   0  0  0  0  0  2  0  0  0  0  0  0
  185.6500  178.4320  142.4450 C   0  0  0  0  0  2  0  0  0  0  0  0
  184.2380  178.0960  141.7360 S   0  0  0  0  0  0  0  0  0  0  0  0
  183.1660  179.4370  142.2750 C   0  0  0  0  0  2  0  0  0  0  0  0
  182.2550  178.9480  143.3840 C   0  0  0  0  0  2  0  0  0  0  0  0
  179.9820  178.1090  142.8080 O   0  0  0  0  0  0  0  0  0  0  0  0
  180.8350  179.1850  143.0140 C   0  0  0  0  0  0  0  0  0  0  0  0
  180.3980  180.3610  142.9190 O   0  0  0  0  0  1  0  0  0  0  0  0
  1  4  1  0  0  0  0
  2 10  1  0  0  0  0
  2  7  1  1  0  0  0
  2  6  1  0  0  0  0
  4 16  1  6  0  0  0
  4 11  1  0  0  0  0
  5 12  1  6  0  0  0
  5  3  1  0  0  0  0
  6  9  1  0  0  0  0
  8 11  1  1  0  0  0
  8  3  1  0  0  0  0
 10  1  1  1  0  0  0
 10 15  1  0  0  0  0
 11 13  2  0  0  0  0
 13  5  1  0  0  0  0
 14  9  1  0  0  0  0
 15  8  1  0  0  0  0
 15 14  1  1  0  0  0
 16 24  1  1  0  0  0
 17 21  1  0  0  0  0
 19 18  2  0  0  0  0
 19 16  1  0  0  0  0
 20 21  1  0  0  0  0
 21 19  1  0  0  0  0
 22 17  1  0  0  0  0
 23 22  1  0  0  0  0
 23 20  1  0  0  0  0
 25 26  1  0  0  0  0
 25 24  1  0  0  0  0
 26 27  1  0  0  0  0
 28 29  2  0  0  0  0
 29 27  1  0  0  0  0
 30 29  1  0  0  0  0
M  END
>  <MODEL>
4

>  <REMARK>
 VINA RESULT:      -5.7      3.247      5.781
  Name = 
  6 active torsions:
  status: ('A' for Active; 'I' for Inactive)
    1  A    between atoms: C_4  and  C_13
    2  A    between atoms: C_7  and  C_15
    3  A    between atoms: C_7  and  C_16
    4  A    between atoms: C_8  and  C_13
    5  A    between atoms: C_13  and  C_27
    6  A    between atoms: C_16  and  S_30
                            x       y       z     vdW  Elec       q    Type
                         _______ _______ _______ _____ _____    ______ ____

>  <TORSDO>
F 6

$$$$
=
 OpenBabel10272413523D

 30 33  0  0  1  0  0  0  0  0999 V2000
  189.7860  177.6370  137.3900 C   0  0  0  0  0  2  0  0  0  0  0  0
  188.5640  176.5070  135.4950 C   0  0  2  0  0  3  0  0  0  0  0  0
  185.8610  178.4160  139.7710 S   0  0  0  0  0  0  0  0  0  0  0  0
  189.8180  177.9000  138.9060 C   0  0  1  0  0  3  0  0  0  0  0  0
  186.9200  178.9480  141.1680 C   0  0  1  0  0  3  0  0  0  0  0  0
  188.0150  177.6680  134.6600 C   0  0  0  0  0  2  0  0  0  0  0  0
  187.7700  175.2420  135.2230 C   0  0  0  0  0  1  0  0  0  0  0  0
  187.3200  177.9740  138.8460 C   0  0  0  0  0  0  0  0  0  0  0  0
  186.7550  178.2360  135.3120 C   0  0  0  0  0  2  0  0  0  0  0  0
  188.5530  176.8230  136.9940 C   0  0  2  0  0  3  0  0  0  0  0  0
  188.4580  178.2050  139.4850 C   0  0  0  0  0  0  0  0  0  0  0  0
  186.6030  178.1600  142.3450 N   0  0  0  0  0  1  0  0  0  0  0  0
  188.3070  178.7250  140.7940 N   0  0  0  0  0  2  0  0  0  0  0  0
  187.0600  178.6990  136.6020 O   0  0  0  0  0  0  0  0  0  0  0  0
  187.2590  177.5590  137.4040 C   0  0  2  0  0  3  0  0  0  0  0  0
  190.5370  176.8090  139.7150 C   0  0  2  0  0  3  0  0  0  0  0  0
  189.6850  176.2810  142.5340 C   0  0  0  0  0  2  0  0  0  0  0  0
  192.3530  178.0160  140.7040 O   0  0  0  0  0  0  0  0  0  0  0  0
  191.3090  177.3360  140.8920 C   0  0  0  0  0  0  0  0  0  0  0  0
  191.5720  177.5190  143.4040 C   0  0  0  0  0  2  0  0  0  0  0  0
  190.8700  177.0550  142.2260 N   0  0  0  0  0  0  0  0  0  0  0  0
  189.5370  176.3460  144.0420 C   0  0  0  0  0  2  0  0  0  0  0  0
  190.8490  176.8980  144.5820 C   0  0  0  0  0  2  0  0  0  0  0  0
  191.2780  175.7810  138.9010 C   0  0  0  0  0  2  0  0  0  0  0  0
  192.6370  176.1110  138.0910 S   0  0  0  0  0  0  0  0  0  0  0  0
  192.9530  174.5990  137.1670 C   0  0  0  0  0  2  0  0  0  0  0  0
  194.4240  174.5200  136.8070 C   0  0  0  0  0  2  0  0  0  0  0  0
  194.9780  173.0890  138.7690 O   0  0  0  0  0  1  0  0  0  0  0  0
  195.2280  174.2350  138.0250 C   0  0  0  0  0  0  0  0  0  0  0  0
  196.1550  175.0150  138.3650 O   0  0  0  0  0  0  0  0  0  0  0  0
  1  4  1  0  0  0  0
  2  7  1  1  0  0  0
  2 10  1  0  0  0  0
  3  5  1  0  0  0  0
  4 11  1  0  0  0  0
  4 16  1  1  0  0  0
  5 12  1  1  0  0  0
  6  9  1  0  0  0  0
  6  2  1  0  0  0  0
  8 11  2  0  0  0  0
  8  3  1  0  0  0  0
  9 14  1  0  0  0  0
 10  1  1  6  0  0  0
 10 15  1  0  0  0  0
 11 13  1  0  0  0  0
 13  5  1  0  0  0  0
 15 14  1  6  0  0  0
 15  8  1  0  0  0  0
 16 24  1  6  0  0  0
 16 19  1  0  0  0  0
 17 22  1  0  0  0  0
 18 19  2  0  0  0  0
 19 21  1  0  0  0  0
 20 23  1  0  0  0  0
 21 17  1  0  0  0  0
 21 20  1  0  0  0  0
 22 23  1  0  0  0  0
 25 24  1  0  0  0  0
 26 25  1  0  0  0  0
 27 26  1  0  0  0  0
 27 29  1  0  0  0  0
 29 30  2  0  0  0  0
 29 28  1  0  0  0  0
M  END
>  <MODEL>
5

>  <REMARK>
 VINA RESULT:      -5.7      3.925      8.234
  Name = 
  6 active torsions:
  status: ('A' for Active; 'I' for Inactive)
    1  A    between atoms: C_4  and  C_13
    2  A    between atoms: C_7  and  C_15
    3  A    between atoms: C_7  and  C_16
    4  A    between atoms: C_8  and  C_13
    5  A    between atoms: C_13  and  C_27
    6  A    between atoms: C_16  and  S_30
                            x       y       z     vdW  Elec       q    Type
                         _______ _______ _______ _____ _____    ______ ____

>  <TORSDO>
F 6

$$$$
=
 OpenBabel10272413523D

 30 33  0  0  1  0  0  0  0  0999 V2000
  188.5050  178.1360  138.1590 C   0  0  0  0  0  2  0  0  0  0  0  0
  190.1830  176.5430  137.1550 C   0  0  2  0  0  3  0  0  0  0  0  0
  184.8760  175.6030  136.7130 S   0  0  0  0  0  0  0  0  0  0  0  0
  187.1250  178.2780  138.8240 C   0  0  1  0  0  3  0  0  0  0  0  0
  183.8200  176.6990  137.7310 C   0  0  1  0  0  3  0  0  0  0  0  0
  190.2140  176.9210  135.6710 C   0  0  0  0  0  2  0  0  0  0  0  0
  190.6880  175.1240  137.3480 C   0  0  0  0  0  1  0  0  0  0  0  0
  186.3240  176.4460  137.3240 C   0  0  0  0  0  0  0  0  0  0  0  0
  189.0100  176.3200  134.9480 C   0  0  0  0  0  2  0  0  0  0  0  0
  188.7800  176.6880  137.7530 C   0  0  2  0  0  3  0  0  0  0  0  0
  186.0610  177.4320  138.1700 C   0  0  0  0  0  0  0  0  0  0  0  0
  183.0560  175.9010  138.6720 N   0  0  0  0  0  1  0  0  0  0  0  0
  184.6850  177.6120  138.4590 N   0  0  0  0  0  2  0  0  0  0  0  0
  187.8250  176.8070  135.5230 O   0  0  0  0  0  0  0  0  0  0  0  0
  187.6970  176.1800  136.7770 C   0  0  2  0  0  3  0  0  0  0  0  0
  187.1410  178.0760  140.3480 C   0  0  2  0  0  3  0  0  0  0  0  0
  186.6280  177.6770  143.2680 C   0  0  0  0  0  2  0  0  0  0  0  0
  185.2900  179.5910  140.4360 O   0  0  0  0  0  0  0  0  0  0  0  0
  186.0310  178.7900  141.0660 C   0  0  0  0  0  0  0  0  0  0  0  0
  184.7840  179.2410  143.2230 C   0  0  0  0  0  2  0  0  0  0  0  0
  185.8230  178.5760  142.4670 N   0  0  0  0  0  0  0  0  0  0  0  0
  185.9820  177.6660  144.6410 C   0  0  0  0  0  2  0  0  0  0  0  0
  185.0010  178.8290  144.6660 C   0  0  0  0  0  2  0  0  0  0  0  0
  188.4890  178.2090  141.0050 C   0  0  0  0  0  2  0  0  0  0  0  0
  189.4360  176.9410  141.3360 S   0  0  0  0  0  0  0  0  0  0  0  0
  190.7920  177.6630  142.2740 C   0  0  0  0  0  2  0  0  0  0  0  0
  190.2410  178.4110  143.4730 C   0  0  0  0  0  2  0  0  0  0  0  0
  191.6460  177.6160  145.3700 O   0  0  0  0  0  1  0  0  0  0  0  0
  190.4270  177.6000  144.7050 C   0  0  0  0  0  0  0  0  0  0  0  0
  189.4700  176.9220  145.1620 O   0  0  0  0  0  0  0  0  0  0  0  0
  1  4  1  0  0  0  0
  2  7  1  6  0  0  0
  2 10  1  0  0  0  0
  3  8  1  0  0  0  0
  3  5  1  0  0  0  0
  4 16  1  1  0  0  0
  5 13  1  0  0  0  0
  5 12  1  1  0  0  0
  6  2  1  0  0  0  0
  8 11  2  0  0  0  0
  9 14  1  0  0  0  0
  9  6  1  0  0  0  0
 10  1  1  6  0  0  0
 11 13  1  0  0  0  0
 11  4  1  0  0  0  0
 15 14  1  6  0  0  0
 15  8  1  0  0  0  0
 15 10  1  0  0  0  0
 16 24  1  1  0  0  0
 16 19  1  0  0  0  0
 17 22  1  0  0  0  0
 18 19  2  0  0  0  0
 19 21  1  0  0  0  0
 20 23  1  0  0  0  0
 21 20  1  0  0  0  0
 21 17  1  0  0  0  0
 22 23  1  0  0  0  0
 24 25  1  0  0  0  0
 25 26  1  0  0  0  0
 26 27  1  0  0  0  0
 27 29  1  0  0  0  0
 29 30  2  0  0  0  0
 29 28  1  0  0  0  0
M  END
>  <MODEL>
6

>  <REMARK>
 VINA RESULT:      -5.5      2.500      4.826
  Name = 
  6 active torsions:
  status: ('A' for Active; 'I' for Inactive)
    1  A    between atoms: C_4  and  C_13
    2  A    between atoms: C_7  and  C_15
    3  A    between atoms: C_7  and  C_16
    4  A    between atoms: C_8  and  C_13
    5  A    between atoms: C_13  and  C_27
    6  A    between atoms: C_16  and  S_30
                            x       y       z     vdW  Elec       q    Type
                         _______ _______ _______ _____ _____    ______ ____

>  <TORSDO>
F 6

$$$$
=
 OpenBabel10272413523D

 30 33  0  0  1  0  0  0  0  0999 V2000
  189.4770  176.9750  141.0170 C   0  0  0  0  0  2  0  0  0  0  0  0
  190.4100  177.7210  143.2380 C   0  0  2  0  0  3  0  0  0  0  0  0
  185.4280  179.1660  141.7120 S   0  0  0  0  0  0  0  0  0  0  0  0
  188.5600  177.3380  139.8360 C   0  0  1  0  0  3  0  0  0  0  0  0
  185.0210  178.7770  139.9690 C   0  0  1  0  0  3  0  0  0  0  0  0
  189.7920  176.7480  144.2480 C   0  0  0  0  0  2  0  0  0  0  0  0
  190.8530  178.9940  143.9370 C   0  0  0  0  0  1  0  0  0  0  0  0
  187.0480  178.4560  141.4820 C   0  0  2  0  0  3  0  0  0  0  0  0
  188.3540  177.1580  144.5620 C   0  0  0  0  0  2  0  0  0  0  0  0
  189.4420  178.0560  142.0990 C   0  0  2  0  0  3  0  0  0  0  0  0
  187.2610  177.9740  140.2660 C   0  0  0  0  0  0  0  0  0  0  0  0
  184.7150  180.0040  139.2560 N   0  0  0  0  0  1  0  0  0  0  0  0
  186.1800  178.1420  139.3650 N   0  0  0  0  0  0  0  0  0  0  0  0
  187.5920  177.1450  143.3830 O   0  0  0  0  0  0  0  0  0  0  0  0
  188.0030  178.2560  142.6230 C   0  0  2  0  0  3  0  0  0  0  0  0
  189.2490  178.1630  138.7380 C   0  0  2  0  0  3  0  0  0  0  0  0
  188.0650  175.7860  137.3600 C   0  0  0  0  0  2  0  0  0  0  0  0
  188.2380  179.4330  136.9780 O   0  0  0  0  0  0  0  0  0  0  0  0
  188.4400  178.2930  137.4780 C   0  0  0  0  0  0  0  0  0  0  0  0
  187.0860  177.1860  135.6470 C   0  0  0  0  0  2  0  0  0  0  0  0
  187.8850  177.1310  136.8530 N   0  0  0  0  0  0  0  0  0  0  0  0
  187.4260  174.8740  136.3290 C   0  0  0  0  0  2  0  0  0  0  0  0
  186.6050  175.7680  135.4100 C   0  0  0  0  0  2  0  0  0  0  0  0
  190.7040  177.8480  138.5080 C   0  0  0  0  0  2  0  0  0  0  0  0
  191.2200  176.4200  137.9550 S   0  0  0  0  0  0  0  0  0  0  0  0
  193.0110  176.5470  138.0680 C   0  0  0  0  0  2  0  0  0  0  0  0
  193.6530  175.5550  137.1170 C   0  0  0  0  0  2  0  0  0  0  0  0
  194.3320  173.2360  137.7200 O   0  0  0  0  0  0  0  0  0  0  0  0
  194.5060  174.6050  137.8780 C   0  0  0  0  0  0  0  0  0  0  0  0
  195.4070  175.0390  138.6420 O   0  0  0  0  0  1  0  0  0  0  0  0
  2  7  1  1  0  0  0
  2  6  1  0  0  0  0
  4 16  1  6  0  0  0
  4 11  1  0  0  0  0
  4  1  1  0  0  0  0
  5 12  1  6  0  0  0
  5  3  1  0  0  0  0
  6  9  1  0  0  0  0
  8 11  1  1  0  0  0
  8  3  1  0  0  0  0
  8 15  1  0  0  0  0
 10  1  1  6  0  0  0
 10 15  1  0  0  0  0
 10  2  1  0  0  0  0
 13  5  1  0  0  0  0
 13 11  2  0  0  0  0
 14  9  1  0  0  0  0
 15 14  1  6  0  0  0
 16 24  1  6  0  0  0
 18 19  2  0  0  0  0
 19 16  1  0  0  0  0
 20 21  1  0  0  0  0
 21 17  1  0  0  0  0
 21 19  1  0  0  0  0
 22 17  1  0  0  0  0
 23 20  1  0  0  0  0
 23 22  1  0  0  0  0
 25 26  1  0  0  0  0
 25 24  1  0  0  0  0
 27 29  1  0  0  0  0
 27 26  1  0  0  0  0
 28 29  2  0  0  0  0
 29 30  1  0  0  0  0
M  END
>  <MODEL>
7

>  <REMARK>
 VINA RESULT:      -5.5      2.745      6.549
  Name = 
  6 active torsions:
  status: ('A' for Active; 'I' for Inactive)
    1  A    between atoms: C_4  and  C_13
    2  A    between atoms: C_7  and  C_15
    3  A    between atoms: C_7  and  C_16
    4  A    between atoms: C_8  and  C_13
    5  A    between atoms: C_13  and  C_27
    6  A    between atoms: C_16  and  S_30
                            x       y       z     vdW  Elec       q    Type
                         _______ _______ _______ _____ _____    ______ ____

>  <TORSDO>
F 6

$$$$
=
 OpenBabel10272413523D

 30 33  0  0  1  0  0  0  0  0999 V2000
  185.8620  178.7010  138.2490 C   0  0  0  0  0  2  0  0  0  0  0  0
  188.3340  178.3950  138.6450 C   0  0  2  0  0  3  0  0  0  0  0  0
  185.4760  174.6390  136.0070 S   0  0  0  0  0  0  0  0  0  0  0  0
  184.5000  178.0000  138.1100 C   0  0  1  0  0  3  0  0  0  0  0  0
  183.6620  174.8870  136.0550 C   0  0  1  0  0  3  0  0  0  0  0  0
  188.9770  178.8040  137.3160 C   0  0  0  0  0  2  0  0  0  0  0  0
  189.2770  177.5050  139.4340 C   0  0  0  0  0  1  0  0  0  0  0  0
  185.6950  176.1210  136.9760 C   0  0  2  0  0  3  0  0  0  0  0  0
  188.8620  177.6660  136.3030 C   0  0  0  0  0  2  0  0  0  0  0  0
  186.9910  177.6880  138.4370 C   0  0  2  0  0  3  0  0  0  0  0  0
  184.5630  176.7370  137.2880 C   0  0  0  0  0  0  0  0  0  0  0  0
  183.0320  173.7480  136.6970 N   0  0  0  0  0  1  0  0  0  0  0  0
  183.3900  176.0890  136.8260 N   0  0  0  0  0  0  0  0  0  0  0  0
  187.5080  177.3640  136.0860 O   0  0  0  0  0  0  0  0  0  0  0  0
  187.0490  176.7090  137.2440 C   0  0  2  0  0  3  0  0  0  0  0  0
  183.7790  177.7610  139.4460 C   0  0  2  0  0  3  0  0  0  0  0  0
  182.5930  180.4000  138.6840 C   0  0  0  0  0  2  0  0  0  0  0  0
  181.5090  177.0270  139.6470 O   0  0  0  0  0  0  0  0  0  0  0  0
  182.2930  177.9780  139.3820 C   0  0  0  0  0  0  0  0  0  0  0  0
  180.3480  179.5280  138.9110 C   0  0  0  0  0  2  0  0  0  0  0  0
  181.7660  179.2550  139.0060 N   0  0  0  0  0  0  0  0  0  0  0  0
  181.6290  181.5520  138.4740 C   0  0  0  0  0  2  0  0  0  0  0  0
  180.2390  180.9400  138.3680 C   0  0  0  0  0  2  0  0  0  0  0  0
  184.4400  178.3660  140.6560 C   0  0  0  0  0  2  0  0  0  0  0  0
  183.7440  178.4030  142.1150 S   0  0  0  0  0  0  0  0  0  0  0  0
  184.8780  179.3950  143.0980 C   0  0  0  0  0  2  0  0  0  0  0  0
  185.3900  178.5760  144.2670 C   0  0  0  0  0  2  0  0  0  0  0  0
  185.2370  178.9340  146.7270 O   0  0  0  0  0  1  0  0  0  0  0  0
  184.6070  178.8960  145.4900 C   0  0  0  0  0  0  0  0  0  0  0  0
  183.3810  179.1640  145.4010 O   0  0  0  0  0  0  0  0  0  0  0  0
  2  7  1  6  0  0  0
  3  5  1  0  0  0  0
  4  1  1  0  0  0  0
  4 16  1  1  0  0  0
  5 12  1  1  0  0  0
  5 13  1  0  0  0  0
  6  2  1  0  0  0  0
  8  3  1  6  0  0  0
  8 15  1  0  0  0  0
  8 11  1  0  0  0  0
  9  6  1  0  0  0  0
 10  1  1  6  0  0  0
 10  2  1  0  0  0  0
 11  4  1  0  0  0  0
 13 11  2  0  0  0  0
 14  9  1  0  0  0  0
 15 14  1  6  0  0  0
 15 10  1  0  0  0  0
 16 24  1  1  0  0  0
 17 21  1  0  0  0  0
 19 16  1  0  0  0  0
 19 18  2  0  0  0  0
 20 21  1  0  0  0  0
 21 19  1  0  0  0  0
 22 17  1  0  0  0  0
 23 22  1  0  0  0  0
 23 20  1  0  0  0  0
 24 25  1  0  0  0  0
 25 26  1  0  0  0  0
 26 27  1  0  0  0  0
 27 29  1  0  0  0  0
 29 28  1  0  0  0  0
 30 29  2  0  0  0  0
M  END
>  <MODEL>
8

>  <REMARK>
 VINA RESULT:      -5.5      2.419      3.506
  Name = 
  6 active torsions:
  status: ('A' for Active; 'I' for Inactive)
    1  A    between atoms: C_4  and  C_13
    2  A    between atoms: C_7  and  C_15
    3  A    between atoms: C_7  and  C_16
    4  A    between atoms: C_8  and  C_13
    5  A    between atoms: C_13  and  C_27
    6  A    between atoms: C_16  and  S_30
                            x       y       z     vdW  Elec       q    Type
                         _______ _______ _______ _____ _____    ______ ____

>  <TORSDO>
F 6

$$$$
=
 OpenBabel10272413523D

 30 33  0  0  1  0  0  0  0  0999 V2000
  186.6530  178.4210  137.5200 C   0  0  0  0  0  2  0  0  0  0  0  0
  189.0120  177.5680  137.7790 C   0  0  2  0  0  3  0  0  0  0  0  0
  185.0010  174.2140  136.4000 S   0  0  0  0  0  0  0  0  0  0  0  0
  185.1580  178.0920  137.6690 C   0  0  1  0  0  3  0  0  0  0  0  0
  183.3240  174.9380  136.5300 C   0  0  1  0  0  3  0  0  0  0  0  0
  189.5400  177.4880  136.3430 C   0  0  0  0  0  2  0  0  0  0  0  0
  189.8190  176.6580  138.6880 C   0  0  0  0  0  1  0  0  0  0  0  0
  185.7000  175.7610  136.9490 C   0  0  0  0  0  0  0  0  0  0  0  0
  189.0160  176.2260  135.6590 C   0  0  0  0  0  2  0  0  0  0  0  0
  187.5250  177.2120  137.8640 C   0  0  2  0  0  3  0  0  0  0  0  0
  184.8030  176.7080  137.1860 C   0  0  0  0  0  0  0  0  0  0  0  0
  182.5390  174.1760  137.4850 N   0  0  0  0  0  1  0  0  0  0  0  0
  183.4570  176.3080  136.9960 N   0  0  0  0  0  2  0  0  0  0  0  0
  187.6130  176.2530  135.6340 O   0  0  0  0  0  0  0  0  0  0  0  0
  187.1800  176.0150  136.9520 C   0  0  2  0  0  3  0  0  0  0  0  0
  184.5970  178.3530  139.0760 C   0  0  2  0  0  3  0  0  0  0  0  0
  181.7440  177.9490  139.8810 C   0  0  0  0  0  2  0  0  0  0  0  0
  183.9950  180.6600  138.8520 O   0  0  0  0  0  0  0  0  0  0  0  0
  183.6180  179.4910  139.1380 C   0  0  0  0  0  0  0  0  0  0  0  0
  181.2710  180.3070  139.6280 C   0  0  0  0  0  2  0  0  0  0  0  0
  182.2620  179.2560  139.5340 N   0  0  0  0  0  0  0  0  0  0  0  0
  180.2570  178.1470  140.1070 C   0  0  0  0  0  2  0  0  0  0  0  0
  180.0290  179.6490  140.1970 C   0  0  0  0  0  2  0  0  0  0  0  0
  185.6120  178.3500  140.1890 C   0  0  0  0  0  2  0  0  0  0  0  0
  185.2450  178.7300  141.7170 S   0  0  0  0  0  0  0  0  0  0  0  0
  186.8440  178.7490  142.5410 C   0  0  0  0  0  2  0  0  0  0  0  0
  187.9220  178.3060  141.5720 C   0  0  0  0  0  2  0  0  0  0  0  0
  188.4640  176.2710  142.9030 O   0  0  0  0  0  1  0  0  0  0  0  0
  188.8990  177.4280  142.2690 C   0  0  0  0  0  0  0  0  0  0  0  0
  190.1240  177.7160  142.2590 O   0  0  0  0  0  0  0  0  0  0  0  0
  1  4  1  0  0  0  0
  2 10  1  0  0  0  0
  2  7  1  1  0  0  0
  3  5  1  0  0  0  0
  3  8  1  0  0  0  0
  4 16  1  1  0  0  0
  5 13  1  0  0  0  0
  5 12  1  1  0  0  0
  6  2  1  0  0  0  0
  8 15  1  0  0  0  0
  8 11  2  0  0  0  0
  9  6  1  0  0  0  0
 10  1  1  6  0  0  0
 11  4  1  0  0  0  0
 13 11  1  0  0  0  0
 14  9  1  0  0  0  0
 15 14  1  6  0  0  0
 15 10  1  0  0  0  0
 16 19  1  0  0  0  0
 16 24  1  1  0  0  0
 17 22  1  0  0  0  0
 18 19  2  0  0  0  0
 19 21  1  0  0  0  0
 20 23  1  0  0  0  0
 21 20  1  0  0  0  0
 21 17  1  0  0  0  0
 22 23  1  0  0  0  0
 24 25  1  0  0  0  0
 25 26  1  0  0  0  0
 27 29  1  0  0  0  0
 27 26  1  0  0  0  0
 29 28  1  0  0  0  0
 30 29  2  0  0  0  0
M  END
>  <MODEL>
9

>  <REMARK>
 VINA RESULT:      -5.5      2.533      3.981
  Name = 
  6 active torsions:
  status: ('A' for Active; 'I' for Inactive)
    1  A    between atoms: C_4  and  C_13
    2  A    between atoms: C_7  and  C_15
    3  A    between atoms: C_7  and  C_16
    4  A    between atoms: C_8  and  C_13
    5  A    between atoms: C_13  and  C_27
    6  A    between atoms: C_16  and  S_30
                            x       y       z     vdW  Elec       q    Type
                         _______ _______ _______ _____ _____    ______ ____

>  <TORSDO>
F 6

$$$$
