=
 OpenBabel10272414183D

 43 48  0  0  1  0  0  0  0  0999 V2000
  183.6560  178.4880  143.8690 C   0  0  0  0  0  0  0  0  0  0  0  0
  188.7060  177.8690  143.5640 C   0  0  0  0  0  0  0  0  0  0  0  0
  189.4830  177.3770  140.7640 C   0  0  0  0  0  0  0  0  0  0  0  0
  186.0330  178.2010  144.3880 C   0  0  0  0  0  0  0  0  0  0  0  0
  183.8810  178.5540  142.5570 C   0  0  0  0  0  3  0  0  0  0  0  0
  182.3880  178.5530  144.3380 F   0  0  0  0  0  0  0  0  0  0  0  0
  186.3500  178.2400  143.0100 C   0  0  0  0  0  0  0  0  0  0  0  0
  184.7730  178.3230  144.8120 C   0  0  0  0  0  3  0  0  0  0  0  0
  185.2710  178.5020  141.9810 C   0  0  0  0  0  3  0  0  0  0  0  0
  188.1620  178.5830  140.9260 S   0  0  0  0  0  0  0  0  0  0  0  0
  187.6960  178.1160  142.6040 C   0  0  0  0  0  0  0  0  0  0  0  0
  188.3680  177.8790  144.9240 C   0  0  0  0  0  3  0  0  0  0  0  0
  189.9630  177.5300  143.2030 C   0  0  2  0  0  3  0  0  0  0  0  0
  190.2660  177.1150  141.8110 C   0  0  0  0  0  3  0  0  0  0  0  0
  187.0470  178.0480  145.3330 C   0  0  0  0  0  3  0  0  0  0  0  0
  189.7650  176.7880  139.4850 N   0  0  0  0  0  0  0  0  0  0  0  0
  188.7450  176.3820  138.5860 C   0  0  0  0  0  3  0  0  0  0  0  0
  191.1130  176.5060  139.0060 C   0  0  0  0  0  2  0  0  0  0  0  0
  189.1940  175.8510  137.4680 C   0  0  0  0  0  0  0  0  0  0  0  0
  190.9710  175.7250  137.3590 S   0  0  0  0  0  0  0  0  0  0  0  0
  188.2920  175.3090  136.4100 C   0  0  0  0  0  2  0  0  0  0  0  0
  187.2270  174.3830  137.0070 C   0  0  2  0  0  3  0  0  0  0  0  0
  185.7600  173.8080  135.2340 O   0  0  0  0  0  0  0  0  0  0  0  0
  187.5320  172.9700  136.6070 C   0  0  0  0  0  2  0  0  0  0  0  0
  185.8420  174.5910  136.4020 C   0  0  1  0  0  0  0  0  0  0  0  0
  184.8830  174.1490  137.3180 O   0  0  0  0  0  1  0  0  0  0  0  0
  186.6490  172.7270  135.4010 C   0  0  0  0  0  2  0  0  0  0  0  0
  185.5580  176.0610  136.0720 C   0  0  0  0  0  2  0  0  0  0  0  0
  184.7310  176.6730  137.0990 N   0  0  0  0  0  0  0  0  0  0  0  0
  184.6380  178.6730  138.5680 C   0  0  0  0  0  2  0  0  0  0  0  0
  182.6650  177.9990  137.4100 C   0  0  0  0  0  2  0  0  0  0  0  0
  183.2930  178.1190  138.7270 N   0  0  0  0  0  2  0  0  0  0  0  0
  183.5450  177.2070  136.4300 C   0  0  0  0  0  2  0  0  0  0  0  0
  185.5020  177.7860  137.6570 C   0  0  0  0  0  2  0  0  0  0  0  0
  190.9470  177.4130  144.2020 O   0  0  0  0  0  0  0  0  0  0  0  0
  191.7800  175.2670  143.8800 O   0  0  0  0  0  0  0  0  0  0  0  0
  191.5100  176.2160  144.6640 C   0  0  0  0  0  0  0  0  0  0  0  0
  191.8050  176.0670  146.1170 C   0  0  0  0  0  2  0  0  0  0  0  0
  189.3800  175.8530  147.5700 F   0  0  0  0  0  0  0  0  0  0  0  0
  190.0310  177.0450  147.5530 C   0  0  0  0  0  0  0  0  0  0  0  0
  191.1870  177.1850  146.8960 C   0  0  0  0  0  3  0  0  0  0  0  0
  188.1310  177.8680  148.7940 N   0  0  0  0  0  1  0  0  0  0  0  0
  189.4680  178.1920  148.3250 C   0  0  0  0  0  2  0  0  0  0  0  0
  1  6  1  0  0  0  0
  1  8  1  0  0  0  0
  2 12  1  0  0  0  0
  3 10  1  0  0  0  0
  3 14  2  0  0  0  0
  4  8  2  0  0  0  0
  4 15  1  0  0  0  0
  5  1  2  0  0  0  0
  7  4  1  0  0  0  0
  9  5  1  0  0  0  0
  9  7  2  0  0  0  0
 10 11  1  0  0  0  0
 11  7  1  0  0  0  0
 11  2  2  0  0  0  0
 12 15  2  0  0  0  0
 13  2  1  0  0  0  0
 13 35  1  1  0  0  0
 14 13  1  0  0  0  0
 16  3  1  0  0  0  0
 17 16  1  0  0  0  0
 18 16  1  0  0  0  0
 19 17  2  0  0  0  0
 20 19  1  0  0  0  0
 20 18  1  0  0  0  0
 21 19  1  0  0  0  0
 22 21  1  6  0  0  0
 23 27  1  0  0  0  0
 23 25  1  0  0  0  0
 24 22  1  0  0  0  0
 25 22  1  0  0  0  0
 25 26  1  1  0  0  0
 27 24  1  0  0  0  0
 28 25  1  0  0  0  0
 28 29  1  0  0  0  0
 29 34  1  0  0  0  0
 30 32  1  0  0  0  0
 31 32  1  0  0  0  0
 33 29  1  0  0  0  0
 33 31  1  0  0  0  0
 34 30  1  0  0  0  0
 35 37  1  0  0  0  0
 36 37  2  0  0  0  0
 37 38  1  0  0  0  0
 38 41  1  0  0  0  0
 40 39  1  0  0  0  0
 40 43  1  0  0  0  0
 41 40  2  0  0  0  0
 43 42  1  0  0  0  0
M  END
>  <MODEL>
1

>  <REMARK>
 VINA RESULT:      -9.1      0.000      0.000
  Name = 
  10 active torsions:
  status: ('A' for Active; 'I' for Inactive)
    1  A    between atoms: O_1  and  C_34
    2  A    between atoms: O_1  and  C_35
    3  A    between atoms: N_2  and  C_13
    4  A    between atoms: C_3  and  C_4
    5  A    between atoms: C_3  and  C_12
    6  A    between atoms: N_11  and  C_14
    7  A    between atoms: C_14  and  C_22
    8  A    between atoms: C_19  and  C_37
    9  A    between atoms: C_28  and  C_35
   10  A    between atoms: C_28  and  C_39
                            x       y       z     vdW  Elec       q    Type
                         _______ _______ _______ _____ _____    ______ ____

>  <TORSDO>
F 10

$$$$
=
 OpenBabel10272414183D

 43 48  0  0  1  0  0  0  0  0999 V2000
  191.5510  176.9280  147.8090 C   0  0  0  0  0  0  0  0  0  0  0  0
  187.4350  177.3570  144.8340 C   0  0  0  0  0  0  0  0  0  0  0  0
  188.2300  177.1950  142.0010 C   0  0  0  0  0  0  0  0  0  0  0  0
  189.2780  177.2740  146.9620 C   0  0  0  0  0  0  0  0  0  0  0  0
  192.0150  176.5670  146.6120 C   0  0  0  0  0  3  0  0  0  0  0  0
  192.3960  176.9970  148.8640 F   0  0  0  0  0  0  0  0  0  0  0  0
  189.6990  176.9220  145.6580 C   0  0  0  0  0  0  0  0  0  0  0  0
  190.1340  177.2760  147.9880 C   0  0  0  0  0  3  0  0  0  0  0  0
  191.1190  176.4590  145.4070 C   0  0  0  0  0  3  0  0  0  0  0  0
  189.1640  176.0830  143.0590 S   0  0  0  0  0  0  0  0  0  0  0  0
  188.7620  176.9230  144.6030 C   0  0  0  0  0  0  0  0  0  0  0  0
  187.0370  177.6580  146.1440 C   0  0  0  0  0  3  0  0  0  0  0  0
  186.5720  177.5800  143.8190 C   0  0  2  0  0  3  0  0  0  0  0  0
  187.0550  177.6680  142.4190 C   0  0  0  0  0  3  0  0  0  0  0  0
  187.9470  177.6120  147.1980 C   0  0  0  0  0  3  0  0  0  0  0  0
  188.6920  177.4770  140.6710 N   0  0  0  0  0  0  0  0  0  0  0  0
  189.8670  176.8970  140.1270 C   0  0  0  0  0  3  0  0  0  0  0  0
  188.0320  178.4150  139.7700 C   0  0  0  0  0  2  0  0  0  0  0  0
  190.1390  177.2850  138.8980 C   0  0  0  0  0  0  0  0  0  0  0  0
  188.9970  178.4750  138.2180 S   0  0  0  0  0  0  0  0  0  0  0  0
  191.3570  176.8390  138.1600 C   0  0  0  0  0  2  0  0  0  0  0  0
  190.9950  176.2520  136.7910 C   0  0  2  0  0  3  0  0  0  0  0  0
  191.9000  174.0610  136.7330 O   0  0  0  0  0  0  0  0  0  0  0  0
  189.8580  175.2890  136.9610 C   0  0  0  0  0  2  0  0  0  0  0  0
  192.0860  175.3560  136.2130 C   0  0  1  0  0  0  0  0  0  0  0  0
  191.9410  175.3170  134.8230 O   0  0  0  0  0  1  0  0  0  0  0  0
  190.5290  173.9330  137.0380 C   0  0  0  0  0  2  0  0  0  0  0  0
  193.4960  175.8590  136.5420 C   0  0  0  0  0  2  0  0  0  0  0  0
  194.3680  174.7560  136.9120 N   0  0  0  0  0  0  0  0  0  0  0  0
  196.7080  173.9700  136.6460 C   0  0  0  0  0  2  0  0  0  0  0  0
  195.6920  173.8630  138.8010 C   0  0  0  0  0  2  0  0  0  0  0  0
  196.2030  173.0680  137.6820 N   0  0  0  0  0  2  0  0  0  0  0  0
  194.6630  174.9050  138.3370 C   0  0  0  0  0  2  0  0  0  0  0  0
  195.6070  174.9220  136.1510 C   0  0  0  0  0  2  0  0  0  0  0  0
  185.2350  177.8970  144.1220 O   0  0  0  0  0  0  0  0  0  0  0  0
  184.7900  180.1730  143.9630 O   0  0  0  0  0  0  0  0  0  0  0  0
  184.5160  178.9910  143.6220 C   0  0  0  0  0  0  0  0  0  0  0  0
  183.4060  178.7490  142.6590 C   0  0  0  0  0  2  0  0  0  0  0  0
  183.3310  176.8990  140.5120 F   0  0  0  0  0  0  0  0  0  0  0  0
  183.8100  178.1500  140.2830 C   0  0  0  0  0  0  0  0  0  0  0  0
  183.8460  179.0600  141.2620 C   0  0  0  0  0  3  0  0  0  0  0  0
  184.5200  179.9470  138.8360 N   0  0  0  0  0  1  0  0  0  0  0  0
  184.2480  178.5210  138.9050 C   0  0  0  0  0  2  0  0  0  0  0  0
  1  8  1  0  0  0  0
  1  6  1  0  0  0  0
  2 12  1  0  0  0  0
  3 14  2  0  0  0  0
  3 10  1  0  0  0  0
  4 15  1  0  0  0  0
  4  8  2  0  0  0  0
  5  1  2  0  0  0  0
  7  4  1  0  0  0  0
  9  7  2  0  0  0  0
  9  5  1  0  0  0  0
 10 11  1  0  0  0  0
 11  2  2  0  0  0  0
 11  7  1  0  0  0  0
 12 15  2  0  0  0  0
 13 35  1  1  0  0  0
 13  2  1  0  0  0  0
 14 13  1  0  0  0  0
 16  3  1  0  0  0  0
 17 16  1  0  0  0  0
 18 16  1  0  0  0  0
 19 17  2  0  0  0  0
 20 19  1  0  0  0  0
 20 18  1  0  0  0  0
 21 19  1  0  0  0  0
 22 24  1  0  0  0  0
 22 21  1  1  0  0  0
 23 27  1  0  0  0  0
 24 27  1  0  0  0  0
 25 26  1  6  0  0  0
 25 28  1  0  0  0  0
 25 23  1  0  0  0  0
 25 22  1  0  0  0  0
 28 29  1  0  0  0  0
 29 33  1  0  0  0  0
 30 32  1  0  0  0  0
 32 31  1  0  0  0  0
 33 31  1  0  0  0  0
 34 30  1  0  0  0  0
 34 29  1  0  0  0  0
 37 36  2  0  0  0  0
 37 35  1  0  0  0  0
 38 37  1  0  0  0  0
 40 39  1  0  0  0  0
 40 41  2  0  0  0  0
 41 38  1  0  0  0  0
 42 43  1  0  0  0  0
 43 40  1  0  0  0  0
M  END
>  <MODEL>
2

>  <REMARK>
 VINA RESULT:      -9.1      3.375      7.509
  Name = 
  10 active torsions:
  status: ('A' for Active; 'I' for Inactive)
    1  A    between atoms: O_1  and  C_34
    2  A    between atoms: O_1  and  C_35
    3  A    between atoms: N_2  and  C_13
    4  A    between atoms: C_3  and  C_4
    5  A    between atoms: C_3  and  C_12
    6  A    between atoms: N_11  and  C_14
    7  A    between atoms: C_14  and  C_22
    8  A    between atoms: C_19  and  C_37
    9  A    between atoms: C_28  and  C_35
   10  A    between atoms: C_28  and  C_39
                            x       y       z     vdW  Elec       q    Type
                         _______ _______ _______ _____ _____    ______ ____

>  <TORSDO>
F 10

$$$$
=
 OpenBabel10272414183D

 43 48  0  0  1  0  0  0  0  0999 V2000
  183.1620  178.9060  143.0360 C   0  0  0  0  0  0  0  0  0  0  0  0
  188.0260  177.4120  143.3290 C   0  0  0  0  0  0  0  0  0  0  0  0
  189.1940  177.2820  140.6270 C   0  0  0  0  0  0  0  0  0  0  0  0
  185.3360  178.0910  143.8170 C   0  0  0  0  0  0  0  0  0  0  0  0
  183.6210  179.1580  141.8100 C   0  0  0  0  0  3  0  0  0  0  0  0
  181.8570  179.1250  143.3230 F   0  0  0  0  0  0  0  0  0  0  0  0
  185.8910  178.3110  142.5350 C   0  0  0  0  0  0  0  0  0  0  0  0
  184.0560  178.3720  144.0740 C   0  0  0  0  0  3  0  0  0  0  0  0
  185.0650  178.9480  141.4380 C   0  0  0  0  0  3  0  0  0  0  0  0
  188.0720  178.6680  140.8430 S   0  0  0  0  0  0  0  0  0  0  0  0
  187.2510  178.0100  142.3070 C   0  0  0  0  0  0  0  0  0  0  0  0
  187.4610  177.2470  144.6010 C   0  0  0  0  0  3  0  0  0  0  0  0
  189.2580  176.9120  143.0890 C   0  0  2  0  0  3  0  0  0  0  0  0
  189.7310  176.6980  141.6990 C   0  0  0  0  0  3  0  0  0  0  0  0
  186.1320  177.5870  144.8450 C   0  0  0  0  0  3  0  0  0  0  0  0
  189.6000  176.8840  139.3080 N   0  0  0  0  0  0  0  0  0  0  0  0
  190.7380  176.0720  139.0680 C   0  0  0  0  0  3  0  0  0  0  0  0
  188.9170  177.3100  138.0920 C   0  0  0  0  0  2  0  0  0  0  0  0
  190.9610  175.8220  137.7940 C   0  0  0  0  0  0  0  0  0  0  0  0
  189.8110  176.5920  136.6670 S   0  0  0  0  0  0  0  0  0  0  0  0
  192.1340  175.0340  137.3170 C   0  0  0  0  0  2  0  0  0  0  0  0
  193.1110  175.9110  136.5260 C   0  0  2  0  0  3  0  0  0  0  0  0
  194.3890  174.4460  135.1680 O   0  0  0  0  0  0  0  0  0  0  0  0
  192.6100  176.0470  135.1190 C   0  0  0  0  0  2  0  0  0  0  0  0
  194.4730  175.2560  136.3160 C   0  0  1  0  0  0  0  0  0  0  0  0
  195.4210  176.2600  136.1000 O   0  0  0  0  0  1  0  0  0  0  0  0
  193.3850  174.9980  134.3470 C   0  0  0  0  0  2  0  0  0  0  0  0
  194.9160  174.4200  137.5220 C   0  0  0  0  0  2  0  0  0  0  0  0
  196.1270  174.9630  138.1140 N   0  0  0  0  0  0  0  0  0  0  0  0
  197.3540  175.0480  140.2710 C   0  0  0  0  0  2  0  0  0  0  0  0
  198.5660  174.5770  138.2730 C   0  0  0  0  0  2  0  0  0  0  0  0
  198.3550  175.5620  139.3350 N   0  0  0  0  0  2  0  0  0  0  0  0
  197.2450  174.1720  137.6010 C   0  0  0  0  0  2  0  0  0  0  0  0
  196.0230  174.7540  139.5590 C   0  0  0  0  0  2  0  0  0  0  0  0
  190.0210  176.4380  144.1720 O   0  0  0  0  0  0  0  0  0  0  0  0
  191.7620  177.9770  144.2280 O   0  0  0  0  0  0  0  0  0  0  0  0
  191.0360  177.1430  144.8330 C   0  0  0  0  0  0  0  0  0  0  0  0
  191.2540  176.9060  146.2870 C   0  0  0  0  0  2  0  0  0  0  0  0
  189.0490  175.9610  147.7980 F   0  0  0  0  0  0  0  0  0  0  0  0
  189.3130  177.2940  147.7870 C   0  0  0  0  0  0  0  0  0  0  0  0
  190.3550  177.7800  147.1030 C   0  0  0  0  0  3  0  0  0  0  0  0
  187.1680  178.3900  147.9490 N   0  0  0  0  0  1  0  0  0  0  0  0
  188.4580  178.2120  148.5960 C   0  0  0  0  0  2  0  0  0  0  0  0
  1  6  1  0  0  0  0
  1  8  1  0  0  0  0
  2 12  1  0  0  0  0
  3 10  1  0  0  0  0
  3 14  2  0  0  0  0
  4  8  2  0  0  0  0
  4 15  1  0  0  0  0
  5  1  2  0  0  0  0
  7  4  1  0  0  0  0
  9  5  1  0  0  0  0
  9  7  2  0  0  0  0
 10 11  1  0  0  0  0
 11  7  1  0  0  0  0
 11  2  2  0  0  0  0
 12 15  2  0  0  0  0
 13  2  1  0  0  0  0
 13 35  1  1  0  0  0
 14 13  1  0  0  0  0
 16  3  1  0  0  0  0
 17 16  1  0  0  0  0
 18 16  1  0  0  0  0
 19 17  2  0  0  0  0
 20 19  1  0  0  0  0
 20 18  1  0  0  0  0
 21 19  1  0  0  0  0
 22 21  1  1  0  0  0
 23 25  1  0  0  0  0
 24 22  1  0  0  0  0
 25 26  1  6  0  0  0
 25 22  1  0  0  0  0
 25 28  1  0  0  0  0
 27 24  1  0  0  0  0
 27 23  1  0  0  0  0
 28 29  1  0  0  0  0
 29 34  1  0  0  0  0
 31 32  1  0  0  0  0
 32 30  1  0  0  0  0
 33 29  1  0  0  0  0
 33 31  1  0  0  0  0
 34 30  1  0  0  0  0
 35 37  1  0  0  0  0
 36 37  2  0  0  0  0
 37 38  1  0  0  0  0
 38 41  1  0  0  0  0
 40 39  1  0  0  0  0
 40 43  1  0  0  0  0
 41 40  2  0  0  0  0
 42 43  1  0  0  0  0
M  END
>  <MODEL>
3

>  <REMARK>
 VINA RESULT:      -9.0      3.652      6.247
  Name = 
  10 active torsions:
  status: ('A' for Active; 'I' for Inactive)
    1  A    between atoms: O_1  and  C_34
    2  A    between atoms: O_1  and  C_35
    3  A    between atoms: N_2  and  C_13
    4  A    between atoms: C_3  and  C_4
    5  A    between atoms: C_3  and  C_12
    6  A    between atoms: N_11  and  C_14
    7  A    between atoms: C_14  and  C_22
    8  A    between atoms: C_19  and  C_37
    9  A    between atoms: C_28  and  C_35
   10  A    between atoms: C_28  and  C_39
                            x       y       z     vdW  Elec       q    Type
                         _______ _______ _______ _____ _____    ______ ____

>  <TORSDO>
F 10

$$$$
=
 OpenBabel10272414183D

 43 48  0  0  1  0  0  0  0  0999 V2000
  187.9540  177.8670  148.4010 C   0  0  0  0  0  0  0  0  0  0  0  0
  186.4870  178.2830  143.5380 C   0  0  0  0  0  0  0  0  0  0  0  0
  188.6260  177.3050  141.7630 C   0  0  0  0  0  0  0  0  0  0  0  0
  186.7370  178.3930  146.3410 C   0  0  0  0  0  0  0  0  0  0  0  0
  188.8750  177.1510  147.7540 C   0  0  0  0  0  3  0  0  0  0  0  0
  188.0550  178.0380  149.7400 F   0  0  0  0  0  0  0  0  0  0  0  0
  187.6850  177.6680  145.5830 C   0  0  0  0  0  0  0  0  0  0  0  0
  186.8430  178.4910  147.6690 C   0  0  0  0  0  3  0  0  0  0  0  0
  188.8060  176.9150  146.2690 C   0  0  0  0  0  3  0  0  0  0  0  0
  188.4590  176.3350  143.2660 S   0  0  0  0  0  0  0  0  0  0  0  0
  187.5310  177.5790  144.1830 C   0  0  0  0  0  0  0  0  0  0  0  0
  185.5380  178.9560  144.3200 C   0  0  0  0  0  3  0  0  0  0  0  0
  186.4330  178.4030  142.1930 C   0  0  2  0  0  3  0  0  0  0  0  0
  187.6090  178.0640  141.3540 C   0  0  0  0  0  3  0  0  0  0  0  0
  185.6580  179.0070  145.7070 C   0  0  0  0  0  3  0  0  0  0  0  0
  189.8020  177.1720  140.9490 N   0  0  0  0  0  0  0  0  0  0  0  0
  189.8210  176.4170  139.7480 C   0  0  0  0  0  3  0  0  0  0  0  0
  191.0930  177.7550  141.2950 C   0  0  0  0  0  2  0  0  0  0  0  0
  190.9920  176.3980  139.1440 C   0  0  0  0  0  0  0  0  0  0  0  0
  192.2860  177.2880  139.9900 S   0  0  0  0  0  0  0  0  0  0  0  0
  191.2460  175.6200  137.8960 C   0  0  0  0  0  2  0  0  0  0  0  0
  192.1570  176.3910  136.9350 C   0  0  2  0  0  3  0  0  0  0  0  0
  193.1130  174.7850  135.4740 O   0  0  0  0  0  0  0  0  0  0  0  0
  191.4680  176.5180  135.6100 C   0  0  0  0  0  2  0  0  0  0  0  0
  193.4230  175.6240  136.5610 C   0  0  1  0  0  0  0  0  0  0  0  0
  194.4000  176.5430  136.1670 O   0  0  0  0  0  1  0  0  0  0  0  0
  192.0420  175.3860  134.7820 C   0  0  0  0  0  2  0  0  0  0  0  0
  193.9750  174.7960  137.7270 C   0  0  0  0  0  2  0  0  0  0  0  0
  195.3980  175.0340  137.9040 N   0  0  0  0  0  0  0  0  0  0  0  0
  197.2260  174.6800  139.5470 C   0  0  0  0  0  2  0  0  0  0  0  0
  197.6200  174.1630  137.2520 C   0  0  0  0  0  2  0  0  0  0  0  0
  197.9700  175.0690  138.3480 N   0  0  0  0  0  2  0  0  0  0  0  0
  196.1010  174.0890  137.0380 C   0  0  0  0  0  2  0  0  0  0  0  0
  195.7100  174.7190  139.3000 C   0  0  0  0  0  2  0  0  0  0  0  0
  185.3070  179.0140  141.6120 O   0  0  0  0  0  0  0  0  0  0  0  0
  183.7170  177.5220  140.8060 O   0  0  0  0  0  0  0  0  0  0  0  0
  184.5140  178.4740  140.5900 C   0  0  0  0  0  0  0  0  0  0  0  0
  184.6120  179.0450  139.2180 C   0  0  0  0  0  2  0  0  0  0  0  0
  187.2550  178.4310  138.3960 F   0  0  0  0  0  0  0  0  0  0  0  0
  186.2210  177.7340  137.8550 C   0  0  0  0  0  0  0  0  0  0  0  0
  184.9600  177.9780  138.2280 C   0  0  0  0  0  3  0  0  0  0  0  0
  187.9400  176.3800  136.8350 N   0  0  0  0  0  1  0  0  0  0  0  0
  186.5110  176.6470  136.8740 C   0  0  0  0  0  2  0  0  0  0  0  0
  1  6  1  0  0  0  0
  2 11  2  0  0  0  0
  2 12  1  0  0  0  0
  3 10  1  0  0  0  0
  4  8  1  0  0  0  0
  5  1  1  0  0  0  0
  7  9  1  0  0  0  0
  7  4  2  0  0  0  0
  8  1  2  0  0  0  0
  9  5  2  0  0  0  0
 10 11  1  0  0  0  0
 11  7  1  0  0  0  0
 12 15  2  0  0  0  0
 13 35  1  1  0  0  0
 13  2  1  0  0  0  0
 14  3  2  0  0  0  0
 14 13  1  0  0  0  0
 15  4  1  0  0  0  0
 16 18  1  0  0  0  0
 16  3  1  0  0  0  0
 17 16  1  0  0  0  0
 19 17  2  0  0  0  0
 19 20  1  0  0  0  0
 20 18  1  0  0  0  0
 21 19  1  0  0  0  0
 22 21  1  1  0  0  0
 23 25  1  0  0  0  0
 24 22  1  0  0  0  0
 25 26  1  6  0  0  0
 25 22  1  0  0  0  0
 25 28  1  0  0  0  0
 27 23  1  0  0  0  0
 27 24  1  0  0  0  0
 28 29  1  0  0  0  0
 29 34  1  0  0  0  0
 31 32  1  0  0  0  0
 32 30  1  0  0  0  0
 33 31  1  0  0  0  0
 33 29  1  0  0  0  0
 34 30  1  0  0  0  0
 37 36  2  0  0  0  0
 37 35  1  0  0  0  0
 38 37  1  0  0  0  0
 40 41  2  0  0  0  0
 40 39  1  0  0  0  0
 41 38  1  0  0  0  0
 42 43  1  0  0  0  0
 43 40  1  0  0  0  0
M  END
>  <MODEL>
4

>  <REMARK>
 VINA RESULT:      -8.8      3.867      7.828
  Name = 
  10 active torsions:
  status: ('A' for Active; 'I' for Inactive)
    1  A    between atoms: O_1  and  C_34
    2  A    between atoms: O_1  and  C_35
    3  A    between atoms: N_2  and  C_13
    4  A    between atoms: C_3  and  C_4
    5  A    between atoms: C_3  and  C_12
    6  A    between atoms: N_11  and  C_14
    7  A    between atoms: C_14  and  C_22
    8  A    between atoms: C_19  and  C_37
    9  A    between atoms: C_28  and  C_35
   10  A    between atoms: C_28  and  C_39
                            x       y       z     vdW  Elec       q    Type
                         _______ _______ _______ _____ _____    ______ ____

>  <TORSDO>
F 10

$$$$
=
 OpenBabel10272414183D

 43 48  0  0  1  0  0  0  0  0999 V2000
  191.5710  176.8980  147.6990 C   0  0  0  0  0  0  0  0  0  0  0  0
  187.4290  177.4370  144.7770 C   0  0  0  0  0  0  0  0  0  0  0  0
  188.1870  177.2830  141.9340 C   0  0  0  0  0  0  0  0  0  0  0  0
  189.2950  177.2980  146.8820 C   0  0  0  0  0  0  0  0  0  0  0  0
  192.0120  176.5370  146.4940 C   0  0  0  0  0  3  0  0  0  0  0  0
  192.4290  176.9400  148.7440 F   0  0  0  0  0  0  0  0  0  0  0  0
  189.6930  176.9480  145.5710 C   0  0  0  0  0  0  0  0  0  0  0  0
  190.1630  177.2730  147.8980 C   0  0  0  0  0  3  0  0  0  0  0  0
  191.1000  176.4590  145.2990 C   0  0  0  0  0  3  0  0  0  0  0  0
  189.1100  176.1430  142.9710 S   0  0  0  0  0  0  0  0  0  0  0  0
  188.7440  176.9770  144.5270 C   0  0  0  0  0  0  0  0  0  0  0  0
  187.0530  177.7340  146.0950 C   0  0  0  0  0  3  0  0  0  0  0  0
  186.5590  177.6860  143.7750 C   0  0  2  0  0  3  0  0  0  0  0  0
  187.0270  177.7760  142.3700 C   0  0  0  0  0  3  0  0  0  0  0  0
  187.9740  177.6610  147.1370 C   0  0  0  0  0  3  0  0  0  0  0  0
  188.6380  177.5670  140.6010 N   0  0  0  0  0  0  0  0  0  0  0  0
  189.8110  176.9900  140.0480 C   0  0  0  0  0  3  0  0  0  0  0  0
  187.9690  178.5040  139.7060 C   0  0  0  0  0  2  0  0  0  0  0  0
  190.0730  177.3800  138.8180 C   0  0  0  0  0  0  0  0  0  0  0  0
  188.9230  178.5680  138.1460 S   0  0  0  0  0  0  0  0  0  0  0  0
  191.2860  176.9370  138.0710 C   0  0  0  0  0  2  0  0  0  0  0  0
  191.4110  175.4090  138.0670 C   0  0  2  0  0  3  0  0  0  0  0  0
  192.0320  174.7870  135.8640 O   0  0  0  0  0  0  0  0  0  0  0  0
  192.8640  175.0410  138.0930 C   0  0  0  0  0  2  0  0  0  0  0  0
  190.9470  174.7720  136.7610 C   0  0  1  0  0  0  0  0  0  0  0  0
  190.5820  173.4460  137.0160 O   0  0  0  0  0  1  0  0  0  0  0  0
  193.2080  174.7810  136.6410 C   0  0  0  0  0  2  0  0  0  0  0  0
  189.7440  175.4970  136.1470 C   0  0  0  0  0  2  0  0  0  0  0  0
  188.5720  174.6380  136.1320 N   0  0  0  0  0  0  0  0  0  0  0  0
  186.2370  174.5390  136.9720 C   0  0  0  0  0  2  0  0  0  0  0  0
  186.6730  173.9490  134.7020 C   0  0  0  0  0  2  0  0  0  0  0  0
  186.2580  173.4360  136.0100 N   0  0  0  0  0  2  0  0  0  0  0  0
  188.0000  174.7170  134.7880 C   0  0  0  0  0  2  0  0  0  0  0  0
  187.6170  175.2050  137.0860 C   0  0  0  0  0  2  0  0  0  0  0  0
  185.2320  178.0270  144.0970 O   0  0  0  0  0  0  0  0  0  0  0  0
  184.8060  180.2890  143.7700 O   0  0  0  0  0  0  0  0  0  0  0  0
  184.4990  179.0870  143.5460 C   0  0  0  0  0  0  0  0  0  0  0  0
  183.3350  178.7840  142.6680 C   0  0  0  0  0  2  0  0  0  0  0  0
  183.1100  176.9090  140.5530 F   0  0  0  0  0  0  0  0  0  0  0  0
  183.5590  178.1610  140.2740 C   0  0  0  0  0  0  0  0  0  0  0  0
  183.6630  179.0820  141.2390 C   0  0  0  0  0  3  0  0  0  0  0  0
  184.7610  179.6810  138.8340 N   0  0  0  0  0  1  0  0  0  0  0  0
  183.8870  178.5190  138.8630 C   0  0  0  0  0  2  0  0  0  0  0  0
  1  8  1  0  0  0  0
  1  6  1  0  0  0  0
  2 12  1  0  0  0  0
  3 14  2  0  0  0  0
  3 10  1  0  0  0  0
  4 15  1  0  0  0  0
  4  8  2  0  0  0  0
  5  1  2  0  0  0  0
  7  4  1  0  0  0  0
  9  7  2  0  0  0  0
  9  5  1  0  0  0  0
 10 11  1  0  0  0  0
 11  2  2  0  0  0  0
 11  7  1  0  0  0  0
 12 15  2  0  0  0  0
 13 35  1  1  0  0  0
 13  2  1  0  0  0  0
 14 13  1  0  0  0  0
 16  3  1  0  0  0  0
 17 16  1  0  0  0  0
 18 16  1  0  0  0  0
 19 17  2  0  0  0  0
 20 19  1  0  0  0  0
 20 18  1  0  0  0  0
 21 19  1  0  0  0  0
 22 21  1  6  0  0  0
 22 24  1  0  0  0  0
 23 27  1  0  0  0  0
 23 25  1  0  0  0  0
 25 26  1  1  0  0  0
 25 22  1  0  0  0  0
 27 24  1  0  0  0  0
 28 25  1  0  0  0  0
 29 28  1  0  0  0  0
 29 34  1  0  0  0  0
 30 34  1  0  0  0  0
 31 33  1  0  0  0  0
 31 32  1  0  0  0  0
 32 30  1  0  0  0  0
 33 29  1  0  0  0  0
 37 36  2  0  0  0  0
 37 35  1  0  0  0  0
 38 37  1  0  0  0  0
 40 39  1  0  0  0  0
 40 41  2  0  0  0  0
 41 38  1  0  0  0  0
 42 43  1  0  0  0  0
 43 40  1  0  0  0  0
M  END
>  <MODEL>
5

>  <REMARK>
 VINA RESULT:      -8.8      2.814      6.236
  Name = 
  10 active torsions:
  status: ('A' for Active; 'I' for Inactive)
    1  A    between atoms: O_1  and  C_34
    2  A    between atoms: O_1  and  C_35
    3  A    between atoms: N_2  and  C_13
    4  A    between atoms: C_3  and  C_4
    5  A    between atoms: C_3  and  C_12
    6  A    between atoms: N_11  and  C_14
    7  A    between atoms: C_14  and  C_22
    8  A    between atoms: C_19  and  C_37
    9  A    between atoms: C_28  and  C_35
   10  A    between atoms: C_28  and  C_39
                            x       y       z     vdW  Elec       q    Type
                         _______ _______ _______ _____ _____    ______ ____

>  <TORSDO>
F 10

$$$$
=
 OpenBabel10272414183D

 43 48  0  0  1  0  0  0  0  0999 V2000
  187.8420  177.7960  148.3420 C   0  0  0  0  0  0  0  0  0  0  0  0
  186.3880  178.3560  143.4880 C   0  0  0  0  0  0  0  0  0  0  0  0
  188.5500  177.4720  141.6920 C   0  0  0  0  0  0  0  0  0  0  0  0
  186.6250  178.3740  146.2950 C   0  0  0  0  0  0  0  0  0  0  0  0
  188.7760  177.1180  147.6750 C   0  0  0  0  0  3  0  0  0  0  0  0
  187.9350  177.9240  149.6860 F   0  0  0  0  0  0  0  0  0  0  0  0
  187.5870  177.6890  145.5170 C   0  0  0  0  0  0  0  0  0  0  0  0
  186.7240  178.4280  147.6260 C   0  0  0  0  0  3  0  0  0  0  0  0
  188.7170  176.9320  146.1820 C   0  0  0  0  0  3  0  0  0  0  0  0
  188.3920  176.4480  143.1590 S   0  0  0  0  0  0  0  0  0  0  0  0
  187.4410  177.6470  144.1140 C   0  0  0  0  0  0  0  0  0  0  0  0
  185.4260  178.9870  144.2890 C   0  0  0  0  0  3  0  0  0  0  0  0
  186.3380  178.5210  142.1490 C   0  0  2  0  0  3  0  0  0  0  0  0
  187.5220  178.2280  141.3040 C   0  0  0  0  0  3  0  0  0  0  0  0
  185.5390  178.9920  145.6770 C   0  0  0  0  0  3  0  0  0  0  0  0
  189.7300  177.3850  140.8790 N   0  0  0  0  0  0  0  0  0  0  0  0
  189.6890  177.0620  139.4980 C   0  0  0  0  0  3  0  0  0  0  0  0
  191.0810  177.5720  141.3960 C   0  0  0  0  0  2  0  0  0  0  0  0
  190.8720  177.0150  138.9210 C   0  0  0  0  0  0  0  0  0  0  0  0
  192.2500  177.3280  140.0110 S   0  0  0  0  0  0  0  0  0  0  0  0
  191.0600  176.6410  137.4890 C   0  0  0  0  0  2  0  0  0  0  0  0
  190.6720  175.1790  137.2400 C   0  0  2  0  0  3  0  0  0  0  0  0
  191.4270  174.6410  135.0570 O   0  0  0  0  0  0  0  0  0  0  0  0
  191.8930  174.3220  137.3830 C   0  0  0  0  0  2  0  0  0  0  0  0
  190.2590  174.9040  135.7970 C   0  0  1  0  0  0  0  0  0  0  0  0
  189.4380  173.7720  135.7760 O   0  0  0  0  0  1  0  0  0  0  0  0
  192.3800  174.1290  135.9610 C   0  0  0  0  0  2  0  0  0  0  0  0
  189.4900  176.0740  135.1710 C   0  0  0  0  0  2  0  0  0  0  0  0
  188.1640  176.1940  135.7540 N   0  0  0  0  0  0  0  0  0  0  0  0
  186.5300  177.9080  136.5020 C   0  0  0  0  0  2  0  0  0  0  0  0
  185.7600  176.0800  135.1800 C   0  0  0  0  0  2  0  0  0  0  0  0
  185.7160  176.6930  136.5090 N   0  0  0  0  0  2  0  0  0  0  0  0
  187.2040  175.8510  134.7060 C   0  0  0  0  0  2  0  0  0  0  0  0
  187.9870  177.6020  136.1170 C   0  0  0  0  0  2  0  0  0  0  0  0
  185.2050  179.1340  141.5830 O   0  0  0  0  0  0  0  0  0  0  0  0
  184.7990  179.2720  139.2980 O   0  0  0  0  0  0  0  0  0  0  0  0
  184.5520  178.7310  140.4100 C   0  0  0  0  0  0  0  0  0  0  0  0
  183.5500  177.6310  140.4790 C   0  0  0  0  0  2  0  0  0  0  0  0
  181.8520  175.4180  139.9710 F   0  0  0  0  0  0  0  0  0  0  0  0
  182.6000  175.9180  138.9520 C   0  0  0  0  0  0  0  0  0  0  0  0
  183.4000  176.9730  139.1430 C   0  0  0  0  0  3  0  0  0  0  0  0
  183.4110  174.2020  137.4600 N   0  0  0  0  0  1  0  0  0  0  0  0
  182.4790  175.3100  137.5940 C   0  0  0  0  0  2  0  0  0  0  0  0
  1  6  1  0  0  0  0
  2 11  2  0  0  0  0
  2 12  1  0  0  0  0
  3 10  1  0  0  0  0
  4  8  1  0  0  0  0
  5  1  1  0  0  0  0
  7  9  1  0  0  0  0
  7  4  2  0  0  0  0
  8  1  2  0  0  0  0
  9  5  2  0  0  0  0
 10 11  1  0  0  0  0
 11  7  1  0  0  0  0
 12 15  2  0  0  0  0
 13 35  1  1  0  0  0
 13  2  1  0  0  0  0
 14  3  2  0  0  0  0
 14 13  1  0  0  0  0
 15  4  1  0  0  0  0
 16 18  1  0  0  0  0
 16  3  1  0  0  0  0
 17 16  1  0  0  0  0
 19 17  2  0  0  0  0
 19 20  1  0  0  0  0
 20 18  1  0  0  0  0
 21 19  1  0  0  0  0
 22 24  1  0  0  0  0
 22 21  1  6  0  0  0
 23 25  1  0  0  0  0
 23 27  1  0  0  0  0
 25 26  1  6  0  0  0
 25 22  1  0  0  0  0
 27 24  1  0  0  0  0
 28 29  1  0  0  0  0
 28 25  1  0  0  0  0
 29 34  1  0  0  0  0
 30 32  1  0  0  0  0
 31 32  1  0  0  0  0
 33 31  1  0  0  0  0
 33 29  1  0  0  0  0
 34 30  1  0  0  0  0
 36 37  2  0  0  0  0
 37 38  1  0  0  0  0
 37 35  1  0  0  0  0
 40 41  2  0  0  0  0
 40 39  1  0  0  0  0
 41 38  1  0  0  0  0
 42 43  1  0  0  0  0
 43 40  1  0  0  0  0
M  END
>  <MODEL>
6

>  <REMARK>
 VINA RESULT:      -8.8      3.054      6.004
  Name = 
  10 active torsions:
  status: ('A' for Active; 'I' for Inactive)
    1  A    between atoms: O_1  and  C_34
    2  A    between atoms: O_1  and  C_35
    3  A    between atoms: N_2  and  C_13
    4  A    between atoms: C_3  and  C_4
    5  A    between atoms: C_3  and  C_12
    6  A    between atoms: N_11  and  C_14
    7  A    between atoms: C_14  and  C_22
    8  A    between atoms: C_19  and  C_37
    9  A    between atoms: C_28  and  C_35
   10  A    between atoms: C_28  and  C_39
                            x       y       z     vdW  Elec       q    Type
                         _______ _______ _______ _____ _____    ______ ____

>  <TORSDO>
F 10

$$$$
=
 OpenBabel10272414183D

 43 48  0  0  1  0  0  0  0  0999 V2000
  187.9990  177.8600  148.5090 C   0  0  0  0  0  0  0  0  0  0  0  0
  186.0770  178.4830  143.8300 C   0  0  0  0  0  0  0  0  0  0  0  0
  188.0340  177.5840  141.8190 C   0  0  0  0  0  0  0  0  0  0  0  0
  186.5920  178.4730  146.5990 C   0  0  0  0  0  0  0  0  0  0  0  0
  188.8510  177.1740  147.7470 C   0  0  0  0  0  3  0  0  0  0  0  0
  188.2270  177.9740  149.8380 F   0  0  0  0  0  0  0  0  0  0  0  0
  187.4620  177.7820  145.7230 C   0  0  0  0  0  0  0  0  0  0  0  0
  186.8250  178.5150  147.9130 C   0  0  0  0  0  3  0  0  0  0  0  0
  188.6400  177.0020  146.2670 C   0  0  0  0  0  3  0  0  0  0  0  0
  188.0080  176.5500  143.2880 S   0  0  0  0  0  0  0  0  0  0  0  0
  187.1750  177.7530  144.3410 C   0  0  0  0  0  0  0  0  0  0  0  0
  185.2090  179.1210  144.7270 C   0  0  0  0  0  3  0  0  0  0  0  0
  185.8950  178.6610  142.5030 C   0  0  2  0  0  3  0  0  0  0  0  0
  186.9840  178.3590  141.5420 C   0  0  0  0  0  3  0  0  0  0  0  0
  185.4610  179.1130  146.0970 C   0  0  0  0  0  3  0  0  0  0  0  0
  189.1260  177.4870  140.8920 N   0  0  0  0  0  0  0  0  0  0  0  0
  188.9560  177.6190  139.4890 C   0  0  0  0  0  3  0  0  0  0  0  0
  190.4990  177.1990  141.2900 C   0  0  0  0  0  2  0  0  0  0  0  0
  190.0690  177.4860  138.7980 C   0  0  0  0  0  0  0  0  0  0  0  0
  191.5200  177.1340  139.7740 S   0  0  0  0  0  0  0  0  0  0  0  0
  190.1050  177.5360  137.3070 C   0  0  0  0  0  2  0  0  0  0  0  0
  189.9030  176.1430  136.6980 C   0  0  2  0  0  3  0  0  0  0  0  0
  189.6080  176.4600  134.3660 O   0  0  0  0  0  0  0  0  0  0  0  0
  191.1720  175.7210  136.0210 C   0  0  0  0  0  2  0  0  0  0  0  0
  188.9070  176.1310  135.5420 C   0  0  1  0  0  0  0  0  0  0  0  0
  188.3840  174.8410  135.4180 O   0  0  0  0  0  1  0  0  0  0  0  0
  190.9480  176.0690  134.5640 C   0  0  0  0  0  2  0  0  0  0  0  0
  187.7460  177.1080  135.7560 C   0  0  0  0  0  2  0  0  0  0  0  0
  186.5230  176.3970  136.0900 N   0  0  0  0  0  0  0  0  0  0  0  0
  184.5590  176.5350  137.6030 C   0  0  0  0  0  2  0  0  0  0  0  0
  184.2090  176.0130  135.3030 C   0  0  0  0  0  2  0  0  0  0  0  0
  184.1460  175.4880  136.6680 N   0  0  0  0  0  2  0  0  0  0  0  0
  185.5880  176.6120  134.9860 C   0  0  0  0  0  2  0  0  0  0  0  0
  185.9840  177.0260  137.2970 C   0  0  0  0  0  2  0  0  0  0  0  0
  184.7210  179.2950  142.0580 O   0  0  0  0  0  0  0  0  0  0  0  0
  182.5680  178.6870  142.6910 O   0  0  0  0  0  0  0  0  0  0  0  0
  183.4870  178.6720  141.8280 C   0  0  0  0  0  0  0  0  0  0  0  0
  183.2540  177.9830  140.5280 C   0  0  0  0  0  2  0  0  0  0  0  0
  183.8490  180.2770  138.9720 F   0  0  0  0  0  0  0  0  0  0  0  0
  182.5690  179.8200  139.0040 C   0  0  0  0  0  0  0  0  0  0  0  0
  182.2480  178.7300  139.7100 C   0  0  0  0  0  3  0  0  0  0  0  0
  180.7720  181.4310  139.0350 N   0  0  0  0  0  1  0  0  0  0  0  0
  181.5280  180.5170  138.1940 C   0  0  0  0  0  2  0  0  0  0  0  0
  1  6  1  0  0  0  0
  2 11  2  0  0  0  0
  2 12  1  0  0  0  0
  3 10  1  0  0  0  0
  4  8  2  0  0  0  0
  5  1  2  0  0  0  0
  7  9  2  0  0  0  0
  7  4  1  0  0  0  0
  8  1  1  0  0  0  0
  9  5  1  0  0  0  0
 10 11  1  0  0  0  0
 11  7  1  0  0  0  0
 12 15  2  0  0  0  0
 13 35  1  1  0  0  0
 13  2  1  0  0  0  0
 14  3  2  0  0  0  0
 14 13  1  0  0  0  0
 15  4  1  0  0  0  0
 16 18  1  0  0  0  0
 16  3  1  0  0  0  0
 17 16  1  0  0  0  0
 19 17  2  0  0  0  0
 19 20  1  0  0  0  0
 20 18  1  0  0  0  0
 21 19  1  0  0  0  0
 22 21  1  6  0  0  0
 23 27  1  0  0  0  0
 23 25  1  0  0  0  0
 24 22  1  0  0  0  0
 25 26  1  6  0  0  0
 25 28  1  0  0  0  0
 25 22  1  0  0  0  0
 27 24  1  0  0  0  0
 28 29  1  0  0  0  0
 29 34  1  0  0  0  0
 31 32  1  0  0  0  0
 32 30  1  0  0  0  0
 33 31  1  0  0  0  0
 33 29  1  0  0  0  0
 34 30  1  0  0  0  0
 37 35  1  0  0  0  0
 37 36  2  0  0  0  0
 38 37  1  0  0  0  0
 39 40  1  0  0  0  0
 40 41  2  0  0  0  0
 41 38  1  0  0  0  0
 43 40  1  0  0  0  0
 43 42  1  0  0  0  0
M  END
>  <MODEL>
7

>  <REMARK>
 VINA RESULT:      -8.7      3.054      5.987
  Name = 
  10 active torsions:
  status: ('A' for Active; 'I' for Inactive)
    1  A    between atoms: O_1  and  C_34
    2  A    between atoms: O_1  and  C_35
    3  A    between atoms: N_2  and  C_13
    4  A    between atoms: C_3  and  C_4
    5  A    between atoms: C_3  and  C_12
    6  A    between atoms: N_11  and  C_14
    7  A    between atoms: C_14  and  C_22
    8  A    between atoms: C_19  and  C_37
    9  A    between atoms: C_28  and  C_35
   10  A    between atoms: C_28  and  C_39
                            x       y       z     vdW  Elec       q    Type
                         _______ _______ _______ _____ _____    ______ ____

>  <TORSDO>
F 10

$$$$
=
 OpenBabel10272414183D

 43 48  0  0  1  0  0  0  0  0999 V2000
  188.5690  177.2830  145.3110 C   0  0  0  0  0  0  0  0  0  0  0  0
  190.9860  177.2150  140.8240 C   0  0  0  0  0  0  0  0  0  0  0  0
  189.0190  177.1330  138.6320 C   0  0  0  0  0  0  0  0  0  0  0  0
  190.2660  177.1780  143.5470 C   0  0  0  0  0  0  0  0  0  0  0  0
  187.5850  177.5230  144.4440 C   0  0  0  0  0  3  0  0  0  0  0  0
  188.2880  177.1640  146.6300 F   0  0  0  0  0  0  0  0  0  0  0  0
  189.2750  177.4090  142.5650 C   0  0  0  0  0  0  0  0  0  0  0  0
  189.9540  177.1230  144.8450 C   0  0  0  0  0  3  0  0  0  0  0  0
  187.8410  177.6790  142.9680 C   0  0  0  0  0  3  0  0  0  0  0  0
  188.5030  178.1730  140.0030 S   0  0  0  0  0  0  0  0  0  0  0  0
  189.6470  177.4700  141.2050 C   0  0  0  0  0  0  0  0  0  0  0  0
  191.9530  177.0330  141.8230 C   0  0  0  0  0  3  0  0  0  0  0  0
  191.3400  177.0490  139.5310 C   0  0  2  0  0  3  0  0  0  0  0  0
  190.3100  176.8310  138.4860 C   0  0  0  0  0  3  0  0  0  0  0  0
  191.5980  177.0190  143.1700 C   0  0  0  0  0  3  0  0  0  0  0  0
  188.0650  176.7290  137.6380 N   0  0  0  0  0  0  0  0  0  0  0  0
  186.6890  177.0700  137.7110 C   0  0  0  0  0  3  0  0  0  0  0  0
  188.4000  175.8950  136.4900 C   0  0  0  0  0  2  0  0  0  0  0  0
  185.9650  176.5990  136.7170 C   0  0  0  0  0  0  0  0  0  0  0  0
  186.8660  175.6110  135.5350 S   0  0  0  0  0  0  0  0  0  0  0  0
  184.4880  176.7950  136.6290 C   0  0  0  0  0  2  0  0  0  0  0  0
  183.7430  175.8500  137.5780 C   0  0  2  0  0  3  0  0  0  0  0  0
  181.5280  176.6780  137.7560 O   0  0  0  0  0  0  0  0  0  0  0  0
  182.8580  174.9490  136.7700 C   0  0  0  0  0  2  0  0  0  0  0  0
  182.7350  176.5660  138.4720 C   0  0  1  0  0  0  0  0  0  0  0  0
  182.5210  175.7900  139.6140 O   0  0  0  0  0  1  0  0  0  0  0  0
  181.4970  175.6130  136.8330 C   0  0  0  0  0  2  0  0  0  0  0  0
  183.2190  177.9530  138.9100 C   0  0  0  0  0  2  0  0  0  0  0  0
  183.5260  177.9710  140.3310 N   0  0  0  0  0  0  0  0  0  0  0  0
  184.9710  179.1350  141.9810 C   0  0  0  0  0  2  0  0  0  0  0  0
  182.6690  178.7890  142.5040 C   0  0  0  0  0  2  0  0  0  0  0  0
  184.0410  178.4120  142.8510 N   0  0  0  0  0  2  0  0  0  0  0  0
  182.3880  178.5960  141.0050 C   0  0  0  0  0  2  0  0  0  0  0  0
  184.7030  178.8250  140.5000 C   0  0  0  0  0  2  0  0  0  0  0  0
  192.7040  176.9160  139.2130 O   0  0  0  0  0  0  0  0  0  0  0  0
  193.5270  176.9260  137.0390 O   0  0  0  0  0  0  0  0  0  0  0  0
  193.2240  176.2800  138.0780 C   0  0  0  0  0  0  0  0  0  0  0  0
  193.4330  174.8050  138.1060 C   0  0  0  0  0  2  0  0  0  0  0  0
  195.5270  175.0140  140.0050 F   0  0  0  0  0  0  0  0  0  0  0  0
  195.8240  174.6020  138.7450 C   0  0  0  0  0  0  0  0  0  0  0  0
  194.8650  174.4720  137.8230 C   0  0  0  0  0  3  0  0  0  0  0  0
  198.0910  175.4090  138.5410 N   0  0  0  0  0  1  0  0  0  0  0  0
  197.2340  174.2420  138.4110 C   0  0  0  0  0  2  0  0  0  0  0  0
  1  6  1  0  0  0  0
  2 11  2  0  0  0  0
  2 12  1  0  0  0  0
  3 10  1  0  0  0  0
  4  8  2  0  0  0  0
  5  1  2  0  0  0  0
  7  9  2  0  0  0  0
  7  4  1  0  0  0  0
  8  1  1  0  0  0  0
  9  5  1  0  0  0  0
 10 11  1  0  0  0  0
 11  7  1  0  0  0  0
 12 15  2  0  0  0  0
 13 35  1  1  0  0  0
 13  2  1  0  0  0  0
 14  3  2  0  0  0  0
 14 13  1  0  0  0  0
 15  4  1  0  0  0  0
 16 17  1  0  0  0  0
 16  3  1  0  0  0  0
 18 16  1  0  0  0  0
 19 17  2  0  0  0  0
 20 18  1  0  0  0  0
 20 19  1  0  0  0  0
 21 19  1  0  0  0  0
 22 21  1  6  0  0  0
 22 25  1  0  0  0  0
 23 25  1  0  0  0  0
 24 27  1  0  0  0  0
 24 22  1  0  0  0  0
 25 28  1  0  0  0  0
 25 26  1  1  0  0  0
 27 23  1  0  0  0  0
 28 29  1  0  0  0  0
 29 34  1  0  0  0  0
 29 33  1  0  0  0  0
 30 32  1  0  0  0  0
 31 32  1  0  0  0  0
 33 31  1  0  0  0  0
 34 30  1  0  0  0  0
 36 37  2  0  0  0  0
 37 38  1  0  0  0  0
 37 35  1  0  0  0  0
 40 39  1  0  0  0  0
 41 38  1  0  0  0  0
 41 40  2  0  0  0  0
 43 42  1  0  0  0  0
 43 40  1  0  0  0  0
M  END
>  <MODEL>
8

>  <REMARK>
 VINA RESULT:      -8.3      3.350      5.882
  Name = 
  10 active torsions:
  status: ('A' for Active; 'I' for Inactive)
    1  A    between atoms: O_1  and  C_34
    2  A    between atoms: O_1  and  C_35
    3  A    between atoms: N_2  and  C_13
    4  A    between atoms: C_3  and  C_4
    5  A    between atoms: C_3  and  C_12
    6  A    between atoms: N_11  and  C_14
    7  A    between atoms: C_14  and  C_22
    8  A    between atoms: C_19  and  C_37
    9  A    between atoms: C_28  and  C_35
   10  A    between atoms: C_28  and  C_39
                            x       y       z     vdW  Elec       q    Type
                         _______ _______ _______ _____ _____    ______ ____

>  <TORSDO>
F 10

$$$$
=
 OpenBabel10272414183D

 43 48  0  0  1  0  0  0  0  0999 V2000
  188.2360  177.3340  145.3130 C   0  0  0  0  0  0  0  0  0  0  0  0
  190.8170  177.2590  140.9190 C   0  0  0  0  0  0  0  0  0  0  0  0
  188.9340  177.3340  138.6540 C   0  0  0  0  0  0  0  0  0  0  0  0
  189.9920  177.1880  143.6110 C   0  0  0  0  0  0  0  0  0  0  0  0
  187.3000  177.6460  144.4170 C   0  0  0  0  0  3  0  0  0  0  0  0
  187.8990  177.1950  146.6170 F   0  0  0  0  0  0  0  0  0  0  0  0
  189.0530  177.4950  142.6000 C   0  0  0  0  0  0  0  0  0  0  0  0
  189.6290  177.1150  144.8940 C   0  0  0  0  0  3  0  0  0  0  0  0
  187.6190  177.8270  142.9570 C   0  0  0  0  0  3  0  0  0  0  0  0
  188.4180  178.3640  140.0330 S   0  0  0  0  0  0  0  0  0  0  0  0
  189.4800  177.5720  141.2570 C   0  0  0  0  0  0  0  0  0  0  0  0
  191.7350  177.0020  141.9480 C   0  0  0  0  0  3  0  0  0  0  0  0
  191.2110  177.1080  139.6360 C   0  0  2  0  0  3  0  0  0  0  0  0
  190.2120  176.9710  138.5480 C   0  0  0  0  0  3  0  0  0  0  0  0
  191.3290  176.9710  143.2800 C   0  0  0  0  0  3  0  0  0  0  0  0
  187.9990  177.0050  137.6150 N   0  0  0  0  0  0  0  0  0  0  0  0
  186.6010  177.2100  137.7470 C   0  0  0  0  0  3  0  0  0  0  0  0
  188.3840  176.3900  136.3500 C   0  0  0  0  0  2  0  0  0  0  0  0
  185.9010  176.8350  136.6960 C   0  0  0  0  0  0  0  0  0  0  0  0
  186.8620  176.1230  135.3710 S   0  0  0  0  0  0  0  0  0  0  0  0
  184.4120  176.9120  136.6470 C   0  0  0  0  0  2  0  0  0  0  0  0
  183.7690  175.8380  137.5310 C   0  0  2  0  0  3  0  0  0  0  0  0
  181.4240  176.1710  137.4030 O   0  0  0  0  0  0  0  0  0  0  0  0
  183.2070  174.7600  136.6530 C   0  0  0  0  0  2  0  0  0  0  0  0
  182.5250  176.3290  138.2660 C   0  0  1  0  0  0  0  0  0  0  0  0
  182.3360  175.5360  139.4010 O   0  0  0  0  0  1  0  0  0  0  0  0
  181.7400  175.1160  136.5230 C   0  0  0  0  0  2  0  0  0  0  0  0
  182.6430  177.7920  138.7090 C   0  0  0  0  0  2  0  0  0  0  0  0
  183.1530  177.8840  140.0670 N   0  0  0  0  0  0  0  0  0  0  0  0
  184.7940  179.1510  141.4340 C   0  0  0  0  0  2  0  0  0  0  0  0
  182.6030  178.7890  142.3030 C   0  0  0  0  0  2  0  0  0  0  0  0
  184.0200  178.4540  142.4620 N   0  0  0  0  0  2  0  0  0  0  0  0
  182.1110  178.5190  140.8730 C   0  0  0  0  0  2  0  0  0  0  0  0
  184.3210  178.7650  140.0230 C   0  0  0  0  0  2  0  0  0  0  0  0
  192.5780  176.9140  139.3640 O   0  0  0  0  0  0  0  0  0  0  0  0
  193.7120  176.9200  137.3350 O   0  0  0  0  0  0  0  0  0  0  0  0
  193.1090  176.2760  138.2350 C   0  0  0  0  0  0  0  0  0  0  0  0
  192.9640  174.7990  138.1020 C   0  0  0  0  0  2  0  0  0  0  0  0
  190.3930  173.8640  137.3570 F   0  0  0  0  0  0  0  0  0  0  0  0
  191.3520  173.9790  136.4010 C   0  0  0  0  0  0  0  0  0  0  0  0
  192.5720  174.4340  136.7050 C   0  0  0  0  0  3  0  0  0  0  0  0
  191.4240  172.2820  134.6860 N   0  0  0  0  0  1  0  0  0  0  0  0
  191.0120  173.6440  134.9870 C   0  0  0  0  0  2  0  0  0  0  0  0
  1  6  1  0  0  0  0
  2 11  2  0  0  0  0
  2 12  1  0  0  0  0
  3 10  1  0  0  0  0
  4  8  2  0  0  0  0
  5  1  2  0  0  0  0
  7  9  2  0  0  0  0
  7  4  1  0  0  0  0
  8  1  1  0  0  0  0
  9  5  1  0  0  0  0
 10 11  1  0  0  0  0
 11  7  1  0  0  0  0
 12 15  2  0  0  0  0
 13 35  1  1  0  0  0
 13  2  1  0  0  0  0
 14  3  2  0  0  0  0
 14 13  1  0  0  0  0
 15  4  1  0  0  0  0
 16 17  1  0  0  0  0
 16  3  1  0  0  0  0
 18 16  1  0  0  0  0
 19 17  2  0  0  0  0
 20 18  1  0  0  0  0
 20 19  1  0  0  0  0
 21 19  1  0  0  0  0
 22 21  1  6  0  0  0
 22 25  1  0  0  0  0
 23 25  1  0  0  0  0
 24 22  1  0  0  0  0
 25 28  1  0  0  0  0
 25 26  1  1  0  0  0
 27 24  1  0  0  0  0
 27 23  1  0  0  0  0
 28 29  1  0  0  0  0
 29 33  1  0  0  0  0
 30 32  1  0  0  0  0
 31 32  1  0  0  0  0
 33 31  1  0  0  0  0
 34 29  1  0  0  0  0
 34 30  1  0  0  0  0
 36 37  2  0  0  0  0
 37 35  1  0  0  0  0
 38 37  1  0  0  0  0
 40 41  2  0  0  0  0
 40 39  1  0  0  0  0
 41 38  1  0  0  0  0
 42 43  1  0  0  0  0
 43 40  1  0  0  0  0
M  END
>  <MODEL>
9

>  <REMARK>
 VINA RESULT:      -7.9      3.065      5.965
  Name = 
  10 active torsions:
  status: ('A' for Active; 'I' for Inactive)
    1  A    between atoms: O_1  and  C_34
    2  A    between atoms: O_1  and  C_35
    3  A    between atoms: N_2  and  C_13
    4  A    between atoms: C_3  and  C_4
    5  A    between atoms: C_3  and  C_12
    6  A    between atoms: N_11  and  C_14
    7  A    between atoms: C_14  and  C_22
    8  A    between atoms: C_19  and  C_37
    9  A    between atoms: C_28  and  C_35
   10  A    between atoms: C_28  and  C_39
                            x       y       z     vdW  Elec       q    Type
                         _______ _______ _______ _____ _____    ______ ____

>  <TORSDO>
F 10

$$$$
