=
 OpenBabel10272413383D

 32 36  0  0  1  0  0  0  0  0999 V2000
  187.3160  177.8000  144.0020 C   0  0  0  0  0  0  0  0  0  0  0  0
  183.8430  178.8910  140.4930 C   0  0  0  0  0  0  0  0  0  0  0  0
  183.3320  178.2350  138.1060 C   0  0  0  0  0  0  0  0  0  0  0  0
  182.3800  178.2060  136.9880 C   0  0  0  0  0  0  0  0  0  0  0  0
  185.9320  178.5890  141.6900 C   0  0  0  0  0  0  0  0  0  0  0  0
  183.8280  178.0380  142.7720 C   0  0  0  0  0  3  0  0  0  0  0  0
  180.5580  178.2740  134.8650 C   0  0  0  0  0  3  0  0  0  0  0  0
  185.9140  177.7190  143.9590 C   0  0  0  0  0  3  0  0  0  0  0  0
  183.1280  178.4270  141.6210 C   0  0  0  0  0  0  0  0  0  0  0  0
  181.6230  178.4180  141.6490 C   0  0  2  0  0  3  0  0  0  0  0  0
  181.6970  179.5580  139.4610 N   0  0  2  0  0  0  0  0  0  0  0  0
  181.6940  177.4630  134.7850 C   0  0  0  0  0  3  0  0  0  0  0  0
  188.0140  178.2760  142.8850 C   0  0  0  0  0  3  0  0  0  0  0  0
  185.2210  178.1100  142.8110 C   0  0  0  0  0  0  0  0  0  0  0  0
  182.6070  177.4290  135.8450 C   0  0  0  0  0  3  0  0  0  0  0  0
  187.3260  178.6700  141.7330 C   0  0  0  0  0  3  0  0  0  0  0  0
  181.0140  178.5130  140.2480 C   0  0  1  0  0  3  0  0  0  0  0  0
  180.9930  179.7730  138.2550 N   0  0  0  0  0  2  0  0  0  0  0  0
  185.2410  178.9730  140.5400 C   0  0  0  0  0  3  0  0  0  0  0  0
  184.3410  177.4780  138.0980 O   0  0  0  0  0  0  0  0  0  0  0  0
  180.3280  179.0470  136.0080 C   0  0  0  0  0  3  0  0  0  0  0  0
  183.1270  179.2520  139.2130 C   0  0  1  0  0  3  0  0  0  0  0  0
  181.2330  179.0040  137.0710 C   0  0  0  0  0  0  0  0  0  0  0  0
  180.7240  180.3910  143.1310 N   0  0  0  0  0  0  0  0  0  0  0  0
  181.1210  179.5220  142.4780 C   0  0  0  0  0  0  0  0  0  0  0  0
  180.0810  176.5030  140.2550 C   0  0  0  0  0  1  0  0  0  0  0  0
  181.0600  177.2640  139.6160 O   0  0  0  0  0  0  0  0  0  0  0  0
  187.6660  177.6630  146.3720 C   0  0  0  0  0  3  0  0  0  0  0  0
  188.0560  177.4070  145.1630 N   0  0  0  0  0  0  0  0  0  0  0  0
  188.4830  177.2290  147.5390 C   0  0  0  0  0  3  0  0  0  0  0  0
  188.5160  178.3370  148.5680 C   0  0  0  0  0  1  0  0  0  0  0  0
  189.8990  176.9140  147.0960 C   0  0  0  0  0  1  0  0  0  0  0  0
  1 29  1  0  0  0  0
  2 19  2  0  0  0  0
  2  9  1  0  0  0  0
  4 23  1  0  0  0  0
  4  3  1  0  0  0  0
  5 16  2  0  0  0  0
  5 14  1  0  0  0  0
  6 14  1  0  0  0  0
  7 21  1  0  0  0  0
  8  1  1  0  0  0  0
  9 10  1  0  0  0  0
  9  6  2  0  0  0  0
 10 25  1  1  0  0  0
 11 18  1  6  0  0  0
 11 17  1  0  0  0  0
 12  7  2  0  0  0  0
 12 15  1  0  0  0  0
 13  1  2  0  0  0  0
 14  8  2  0  0  0  0
 15  4  2  0  0  0  0
 16 13  1  0  0  0  0
 17 27  1  6  0  0  0
 17 10  1  0  0  0  0
 19  5  1  0  0  0  0
 20  3  2  0  0  0  0
 21 23  2  0  0  0  0
 22  3  1  6  0  0  0
 22 11  1  0  0  0  0
 22  2  1  0  0  0  0
 23 18  1  0  0  0  0
 25 24  3  0  0  0  0
 27 26  1  0  0  0  0
 28 30  1  0  0  0  0
 29 28  2  0  0  0  0
 30 31  1  0  0  0  0
 32 30  1  0  0  0  0
M  END
>  <MODEL>
1

>  <REMARK>
 VINA RESULT:      -7.7      0.000      0.000
  Name = 
  4 active torsions:
  status: ('A' for Active; 'I' for Inactive)
    1  A    between atoms: C_1  and  C_10
    2  A    between atoms: C_2  and  N_24
    3  A    between atoms: C_13  and  C_15
    4  A    between atoms: O_25  and  C_26
                            x       y       z     vdW  Elec       q    Type
                         _______ _______ _______ _____ _____    ______ ____

>  <TORSDO>
F 4

$$$$
=
 OpenBabel10272413383D

 32 36  0  0  1  0  0  0  0  0999 V2000
  188.3220  177.7270  143.8660 C   0  0  0  0  0  0  0  0  0  0  0  0
  184.6190  178.7220  140.5700 C   0  0  0  0  0  0  0  0  0  0  0  0
  184.0120  178.0910  138.1980 C   0  0  0  0  0  0  0  0  0  0  0  0
  183.0040  178.0410  137.1320 C   0  0  0  0  0  0  0  0  0  0  0  0
  186.7810  178.4960  141.6490 C   0  0  0  0  0  0  0  0  0  0  0  0
  184.7660  177.8230  142.8260 C   0  0  0  0  0  3  0  0  0  0  0  0
  181.0700  178.0650  135.1100 C   0  0  0  0  0  3  0  0  0  0  0  0
  186.9240  177.5790  143.8950 C   0  0  0  0  0  3  0  0  0  0  0  0
  183.9880  178.2020  141.7230 C   0  0  0  0  0  0  0  0  0  0  0  0
  182.4880  178.1210  141.8300 C   0  0  2  0  0  3  0  0  0  0  0  0
  182.3920  179.3070  139.6670 N   0  0  2  0  0  0  0  0  0  0  0  0
  182.2360  177.3100  134.9510 C   0  0  0  0  0  3  0  0  0  0  0  0
  188.9360  178.2580  142.7250 C   0  0  0  0  0  3  0  0  0  0  0  0
  186.1540  177.9600  142.7940 C   0  0  0  0  0  0  0  0  0  0  0  0
  183.2050  177.2980  135.9610 C   0  0  0  0  0  3  0  0  0  0  0  0
  188.1700  178.6420  141.6200 C   0  0  0  0  0  3  0  0  0  0  0  0
  181.8020  178.2150  140.4650 C   0  0  1  0  0  3  0  0  0  0  0  0
  181.6160  179.5130  138.5050 N   0  0  0  0  0  2  0  0  0  0  0  0
  186.0120  178.8700  140.5460 C   0  0  0  0  0  3  0  0  0  0  0  0
  185.0540  177.3840  138.1210 O   0  0  0  0  0  0  0  0  0  0  0  0
  180.8660  178.8030  136.2800 C   0  0  0  0  0  3  0  0  0  0  0  0
  183.8200  179.0750  139.3370 C   0  0  1  0  0  3  0  0  0  0  0  0
  181.8270  178.7810  137.2930 C   0  0  0  0  0  0  0  0  0  0  0  0
  181.5800  180.0180  143.4020 N   0  0  0  0  0  0  0  0  0  0  0  0
  181.9810  179.1820  142.7090 C   0  0  0  0  0  0  0  0  0  0  0  0
  180.6140  176.4070  139.9840 C   0  0  0  0  0  1  0  0  0  0  0  0
  181.8720  176.9840  139.8030 O   0  0  0  0  0  0  0  0  0  0  0  0
  190.4180  177.5610  145.0240 C   0  0  0  0  0  3  0  0  0  0  0  0
  189.1410  177.3450  144.9780 N   0  0  0  0  0  0  0  0  0  0  0  0
  191.2130  177.1370  146.2090 C   0  0  0  0  0  3  0  0  0  0  0  0
  191.9670  175.8680  145.8790 C   0  0  0  0  0  1  0  0  0  0  0  0
  190.2960  176.8820  147.3890 C   0  0  0  0  0  1  0  0  0  0  0  0
  1  8  1  0  0  0  0
  1 29  1  0  0  0  0
  2  9  1  0  0  0  0
  4 23  1  0  0  0  0
  4  3  1  0  0  0  0
  5 14  1  0  0  0  0
  7 21  1  0  0  0  0
  9 10  1  0  0  0  0
  9  6  2  0  0  0  0
 10 25  1  1  0  0  0
 11 18  1  6  0  0  0
 11 17  1  0  0  0  0
 12  7  2  0  0  0  0
 12 15  1  0  0  0  0
 13  1  2  0  0  0  0
 14  6  1  0  0  0  0
 14  8  2  0  0  0  0
 15  4  2  0  0  0  0
 16  5  2  0  0  0  0
 16 13  1  0  0  0  0
 17 27  1  6  0  0  0
 17 10  1  0  0  0  0
 19  2  2  0  0  0  0
 19  5  1  0  0  0  0
 20  3  2  0  0  0  0
 21 23  2  0  0  0  0
 22  3  1  6  0  0  0
 22 11  1  0  0  0  0
 22  2  1  0  0  0  0
 23 18  1  0  0  0  0
 25 24  3  0  0  0  0
 27 26  1  0  0  0  0
 28 30  1  0  0  0  0
 29 28  2  0  0  0  0
 30 32  1  0  0  0  0
 31 30  1  0  0  0  0
M  END
>  <MODEL>
2

>  <REMARK>
 VINA RESULT:      -7.3      1.031      1.406
  Name = 
  4 active torsions:
  status: ('A' for Active; 'I' for Inactive)
    1  A    between atoms: C_1  and  C_10
    2  A    between atoms: C_2  and  N_24
    3  A    between atoms: C_13  and  C_15
    4  A    between atoms: O_25  and  C_26
                            x       y       z     vdW  Elec       q    Type
                         _______ _______ _______ _____ _____    ______ ____

>  <TORSDO>
F 4

$$$$
=
 OpenBabel10272413383D

 32 36  0  0  1  0  0  0  0  0999 V2000
  189.7490  177.5770  143.1580 C   0  0  0  0  0  0  0  0  0  0  0  0
  192.1590  176.7090  138.7980 C   0  0  0  0  0  0  0  0  0  0  0  0
  194.2330  175.4890  138.0230 C   0  0  0  0  0  0  0  0  0  0  0  0
  195.0160  174.9230  136.9180 C   0  0  0  0  0  0  0  0  0  0  0  0
  191.6070  177.3890  141.0620 C   0  0  0  0  0  0  0  0  0  0  0  0
  189.9170  176.3400  139.6680 C   0  0  0  0  0  3  0  0  0  0  0  0
  196.5100  173.9530  134.7600 C   0  0  0  0  0  3  0  0  0  0  0  0
  189.3730  177.0000  141.9330 C   0  0  0  0  0  3  0  0  0  0  0  0
  190.8390  176.2390  138.6170 C   0  0  0  0  0  0  0  0  0  0  0  0
  190.3700  175.7050  137.2890 C   0  0  2  0  0  3  0  0  0  0  0  0
  192.5650  176.3750  136.3820 N   0  0  2  0  0  0  0  0  0  0  0  0
  196.8570  173.5950  136.0660 C   0  0  0  0  0  3  0  0  0  0  0  0
  191.0550  178.0550  143.3220 C   0  0  0  0  0  3  0  0  0  0  0  0
  190.2940  176.9040  140.8880 C   0  0  0  0  0  0  0  0  0  0  0  0
  196.1120  174.0800  137.1470 C   0  0  0  0  0  3  0  0  0  0  0  0
  191.9820  177.9620  142.2790 C   0  0  0  0  0  3  0  0  0  0  0  0
  191.5340  175.3200  136.3720 C   0  0  1  0  0  3  0  0  0  0  0  0
  193.5250  176.1040  135.3820 N   0  0  0  0  0  2  0  0  0  0  0  0
  192.5300  177.2870  140.0200 C   0  0  0  0  0  3  0  0  0  0  0  0
  194.4770  175.1500  139.2130 O   0  0  0  0  0  0  0  0  0  0  0  0
  195.4150  174.7910  134.5300 C   0  0  0  0  0  3  0  0  0  0  0  0
  193.1970  176.5540  137.7120 C   0  0  1  0  0  3  0  0  0  0  0  0
  194.6630  175.2660  135.6080 C   0  0  0  0  0  0  0  0  0  0  0  0
  188.8470  177.4710  136.0820 N   0  0  0  0  0  0  0  0  0  0  0  0
  189.5180  176.6930  136.6130 C   0  0  0  0  0  0  0  0  0  0  0  0
  191.4440  173.1600  135.8870 C   0  0  0  0  0  1  0  0  0  0  0  0
  192.0520  174.0750  136.7480 O   0  0  0  0  0  0  0  0  0  0  0  0
  187.6480  177.1560  144.2390 C   0  0  0  0  0  3  0  0  0  0  0  0
  188.8290  177.6900  144.2500 N   0  0  0  0  0  0  0  0  0  0  0  0
  186.7370  177.3120  145.4060 C   0  0  0  0  0  3  0  0  0  0  0  0
  185.7420  178.4150  145.1210 C   0  0  0  0  0  1  0  0  0  0  0  0
  187.5340  177.6640  146.6470 C   0  0  0  0  0  1  0  0  0  0  0  0
  1 13  1  0  0  0  0
  1 29  1  0  0  0  0
  2 19  1  0  0  0  0
  3 20  2  0  0  0  0
  4 15  1  0  0  0  0
  4  3  1  0  0  0  0
  5 16  1  0  0  0  0
  6 14  2  0  0  0  0
  7 12  1  0  0  0  0
  8  1  2  0  0  0  0
  9  2  2  0  0  0  0
  9  6  1  0  0  0  0
 10 25  1  6  0  0  0
 10  9  1  0  0  0  0
 11 18  1  6  0  0  0
 11 22  1  0  0  0  0
 12 15  2  0  0  0  0
 14  5  1  0  0  0  0
 14  8  1  0  0  0  0
 16 13  2  0  0  0  0
 17 11  1  0  0  0  0
 17 27  1  1  0  0  0
 17 10  1  0  0  0  0
 18 23  1  0  0  0  0
 19  5  2  0  0  0  0
 21  7  2  0  0  0  0
 21 23  1  0  0  0  0
 22  3  1  1  0  0  0
 22  2  1  0  0  0  0
 23  4  2  0  0  0  0
 24 25  3  0  0  0  0
 26 27  1  0  0  0  0
 28 29  2  0  0  0  0
 28 30  1  0  0  0  0
 30 32  1  0  0  0  0
 31 30  1  0  0  0  0
M  END
>  <MODEL>
3

>  <REMARK>
 VINA RESULT:      -6.9      7.371      9.974
  Name = 
  4 active torsions:
  status: ('A' for Active; 'I' for Inactive)
    1  A    between atoms: C_1  and  C_10
    2  A    between atoms: C_2  and  N_24
    3  A    between atoms: C_13  and  C_15
    4  A    between atoms: O_25  and  C_26
                            x       y       z     vdW  Elec       q    Type
                         _______ _______ _______ _____ _____    ______ ____

>  <TORSDO>
F 4

$$$$
=
 OpenBabel10272413383D

 32 36  0  0  1  0  0  0  0  0999 V2000
  186.0240  177.5880  137.3150 C   0  0  0  0  0  0  0  0  0  0  0  0
  188.8040  177.9970  141.5190 C   0  0  0  0  0  0  0  0  0  0  0  0
  188.4990  177.6280  144.0010 C   0  0  0  0  0  0  0  0  0  0  0  0
  189.1030  177.4650  145.3290 C   0  0  0  0  0  0  0  0  0  0  0  0
  187.0680  178.2360  139.8400 C   0  0  0  0  0  0  0  0  0  0  0  0
  188.9870  176.8120  139.4020 C   0  0  0  0  0  3  0  0  0  0  0  0
  190.3090  177.2630  147.8470 C   0  0  0  0  0  3  0  0  0  0  0  0
  187.2460  177.0350  137.7350 C   0  0  0  0  0  3  0  0  0  0  0  0
  189.5150  177.1270  140.6620 C   0  0  0  0  0  0  0  0  0  0  0  0
  190.8720  176.5920  141.0340 C   0  0  2  0  0  3  0  0  0  0  0  0
  190.7640  178.0470  143.0250 N   0  0  2  0  0  0  0  0  0  0  0  0
  188.9620  176.9220  147.6880 C   0  0  0  0  0  3  0  0  0  0  0  0
  185.3350  178.4610  138.1650 C   0  0  0  0  0  3  0  0  0  0  0  0
  187.7690  177.3540  138.9900 C   0  0  0  0  0  0  0  0  0  0  0  0
  188.3570  177.0240  146.4310 C   0  0  0  0  0  3  0  0  0  0  0  0
  185.8540  178.7850  139.4230 C   0  0  0  0  0  3  0  0  0  0  0  0
  191.1530  176.7110  142.5340 C   0  0  1  0  0  3  0  0  0  0  0  0
  191.2180  178.2100  144.3530 N   0  0  0  0  0  2  0  0  0  0  0  0
  187.5870  178.5490  141.0970 C   0  0  0  0  0  3  0  0  0  0  0  0
  187.3020  177.2810  143.8020 O   0  0  0  0  0  0  0  0  0  0  0  0
  191.0560  177.6990  146.7480 C   0  0  0  0  0  3  0  0  0  0  0  0
  189.3080  178.3030  142.9100 C   0  0  1  0  0  3  0  0  0  0  0  0
  190.4550  177.7890  145.4890 C   0  0  0  0  0  0  0  0  0  0  0  0
  192.7490  177.8440  139.6890 N   0  0  0  0  0  0  0  0  0  0  0  0
  191.9220  177.2930  140.2820 C   0  0  0  0  0  0  0  0  0  0  0  0
  191.5270  174.9510  143.8280 C   0  0  0  0  0  1  0  0  0  0  0  0
  190.5020  175.6850  143.2300 O   0  0  0  0  0  0  0  0  0  0  0  0
  184.3570  176.6180  135.8870 C   0  0  0  0  0  3  0  0  0  0  0  0
  185.4600  177.2810  136.0350 N   0  0  0  0  0  0  0  0  0  0  0  0
  183.8240  176.3290  134.5270 C   0  0  0  0  0  3  0  0  0  0  0  0
  182.5010  177.0400  134.3460 C   0  0  0  0  0  1  0  0  0  0  0  0
  183.6180  174.8370  134.3540 C   0  0  0  0  0  1  0  0  0  0  0  0
  1  8  2  0  0  0  0
  1 13  1  0  0  0  0
  3  4  1  0  0  0  0
  4 23  2  0  0  0  0
  4 15  1  0  0  0  0
  5 19  2  0  0  0  0
  6  9  1  0  0  0  0
  8 14  1  0  0  0  0
  9 10  1  0  0  0  0
  9  2  2  0  0  0  0
 10 25  1  6  0  0  0
 10 17  1  0  0  0  0
 11 18  1  1  0  0  0
 12  7  1  0  0  0  0
 13 16  2  0  0  0  0
 14  6  2  0  0  0  0
 14  5  1  0  0  0  0
 15 12  2  0  0  0  0
 16  5  1  0  0  0  0
 17 11  1  0  0  0  0
 17 27  1  1  0  0  0
 18 23  1  0  0  0  0
 19  2  1  0  0  0  0
 20  3  2  0  0  0  0
 21  7  2  0  0  0  0
 22  2  1  6  0  0  0
 22 11  1  0  0  0  0
 22  3  1  0  0  0  0
 23 21  1  0  0  0  0
 24 25  3  0  0  0  0
 27 26  1  0  0  0  0
 28 29  2  0  0  0  0
 29  1  1  0  0  0  0
 30 28  1  0  0  0  0
 31 30  1  0  0  0  0
 32 30  1  0  0  0  0
M  END
>  <MODEL>
4

>  <REMARK>
 VINA RESULT:      -6.3      3.880     10.291
  Name = 
  4 active torsions:
  status: ('A' for Active; 'I' for Inactive)
    1  A    between atoms: C_1  and  C_10
    2  A    between atoms: C_2  and  N_24
    3  A    between atoms: C_13  and  C_15
    4  A    between atoms: O_25  and  C_26
                            x       y       z     vdW  Elec       q    Type
                         _______ _______ _______ _____ _____    ______ ____

>  <TORSDO>
F 4

$$$$
=
 OpenBabel10272413383D

 32 36  0  0  1  0  0  0  0  0999 V2000
  189.8860  178.2500  144.1090 C   0  0  0  0  0  0  0  0  0  0  0  0
  190.9040  177.0590  139.3010 C   0  0  0  0  0  0  0  0  0  0  0  0
  192.3510  175.4040  138.0550 C   0  0  0  0  0  0  0  0  0  0  0  0
  192.6810  174.7240  136.7970 C   0  0  0  0  0  0  0  0  0  0  0  0
  191.0900  177.7230  141.6280 C   0  0  0  0  0  0  0  0  0  0  0  0
  188.9090  177.2170  140.6870 C   0  0  0  0  0  3  0  0  0  0  0  0
  193.3280  173.5370  134.3460 C   0  0  0  0  0  3  0  0  0  0  0  0
  189.0980  177.8590  143.0130 C   0  0  0  0  0  3  0  0  0  0  0  0
  189.5020  176.9490  139.4450 C   0  0  0  0  0  0  0  0  0  0  0  0
  188.6150  176.6280  138.2710 C   0  0  2  0  0  3  0  0  0  0  0  0
  190.6340  176.7760  136.8600 N   0  0  2  0  0  0  0  0  0  0  0  0
  193.8640  173.0270  135.5320 C   0  0  0  0  0  3  0  0  0  0  0  0
  191.2720  178.3730  143.9530 C   0  0  0  0  0  3  0  0  0  0  0  0
  189.6930  177.5950  141.7770 C   0  0  0  0  0  0  0  0  0  0  0  0
  193.5440  173.6200  136.7580 C   0  0  0  0  0  3  0  0  0  0  0  0
  191.8730  178.1110  142.7180 C   0  0  0  0  0  3  0  0  0  0  0  0
  189.3920  176.0170  137.1030 C   0  0  1  0  0  3  0  0  0  0  0  0
  191.2300  176.3300  135.6590 N   0  0  0  0  0  2  0  0  0  0  0  0
  191.6860  177.4530  140.3960 C   0  0  0  0  0  3  0  0  0  0  0  0
  192.7700  174.9450  139.1530 O   0  0  0  0  0  0  0  0  0  0  0  0
  192.4640  174.6360  134.3840 C   0  0  0  0  0  3  0  0  0  0  0  0
  191.5830  176.7110  137.9980 C   0  0  1  0  0  3  0  0  0  0  0  0
  192.1340  175.2210  135.6090 C   0  0  0  0  0  0  0  0  0  0  0  0
  187.3620  178.7890  137.4580 N   0  0  0  0  0  0  0  0  0  0  0  0
  187.9140  177.8370  137.8150 C   0  0  0  0  0  0  0  0  0  0  0  0
  188.6030  173.9840  136.7110 C   0  0  0  0  0  1  0  0  0  0  0  0
  189.6440  174.6620  137.3470 O   0  0  0  0  0  0  0  0  0  0  0  0
  188.7600  177.6170  146.1320 C   0  0  0  0  0  3  0  0  0  0  0  0
  189.3070  178.5270  145.3900 N   0  0  0  0  0  0  0  0  0  0  0  0
  188.1730  177.9710  147.4540 C   0  0  0  0  0  3  0  0  0  0  0  0
  188.1700  176.7470  148.3440 C   0  0  0  0  0  1  0  0  0  0  0  0
  186.7510  178.4650  147.2770 C   0  0  0  0  0  1  0  0  0  0  0  0
  1 29  1  0  0  0  0
  2  9  2  0  0  0  0
  2 19  1  0  0  0  0
  3 20  2  0  0  0  0
  4  3  1  0  0  0  0
  5 14  1  0  0  0  0
  5 16  1  0  0  0  0
  6 14  2  0  0  0  0
  7 21  2  0  0  0  0
  7 12  1  0  0  0  0
  8  1  2  0  0  0  0
  9  6  1  0  0  0  0
 10 25  1  6  0  0  0
 10  9  1  0  0  0  0
 11 18  1  6  0  0  0
 11 17  1  0  0  0  0
 11 22  1  0  0  0  0
 12 15  2  0  0  0  0
 13  1  1  0  0  0  0
 14  8  1  0  0  0  0
 15  4  1  0  0  0  0
 16 13  2  0  0  0  0
 17 27  1  1  0  0  0
 17 10  1  0  0  0  0
 19  5  2  0  0  0  0
 21 23  1  0  0  0  0
 22  3  1  1  0  0  0
 22  2  1  0  0  0  0
 23 18  1  0  0  0  0
 23  4  2  0  0  0  0
 24 25  3  0  0  0  0
 26 27  1  0  0  0  0
 28 30  1  0  0  0  0
 29 28  2  0  0  0  0
 30 31  1  0  0  0  0
 32 30  1  0  0  0  0
M  END
>  <MODEL>
5

>  <REMARK>
 VINA RESULT:      -6.0      6.132      8.198
  Name = 
  4 active torsions:
  status: ('A' for Active; 'I' for Inactive)
    1  A    between atoms: C_1  and  C_10
    2  A    between atoms: C_2  and  N_24
    3  A    between atoms: C_13  and  C_15
    4  A    between atoms: O_25  and  C_26
                            x       y       z     vdW  Elec       q    Type
                         _______ _______ _______ _____ _____    ______ ____

>  <TORSDO>
F 4

$$$$
=
 OpenBabel10272413383D

 32 36  0  0  1  0  0  0  0  0999 V2000
  188.4900  178.4240  141.1760 C   0  0  0  0  0  0  0  0  0  0  0  0
  184.6870  177.7590  137.9110 C   0  0  0  0  0  0  0  0  0  0  0  0
  183.5990  175.8390  136.6780 C   0  0  0  0  0  0  0  0  0  0  0  0
  182.4610  175.3290  135.9040 C   0  0  0  0  0  0  0  0  0  0  0  0
  186.8670  177.7820  138.9770 C   0  0  0  0  0  0  0  0  0  0  0  0
  184.9480  178.7260  140.1280 C   0  0  0  0  0  3  0  0  0  0  0  0
  180.3110  174.4460  134.3460 C   0  0  0  0  0  3  0  0  0  0  0  0
  187.1190  178.7310  141.2000 C   0  0  0  0  0  3  0  0  0  0  0  0
  184.1290  178.4070  139.0360 C   0  0  0  0  0  0  0  0  0  0  0  0
  182.6870  178.8400  139.0590 C   0  0  2  0  0  3  0  0  0  0  0  0
  182.5580  178.1140  136.7040 N   0  0  2  0  0  0  0  0  0  0  0  0
  181.2240  173.5220  134.8630 C   0  0  0  0  0  3  0  0  0  0  0  0
  189.0370  177.7970  140.0500 C   0  0  0  0  0  3  0  0  0  0  0  0
  186.3070  178.4130  140.1080 C   0  0  0  0  0  0  0  0  0  0  0  0
  182.3010  173.9620  135.6410 C   0  0  0  0  0  3  0  0  0  0  0  0
  188.2300  177.4770  138.9530 C   0  0  0  0  0  3  0  0  0  0  0  0
  181.8470  178.1260  137.9970 C   0  0  1  0  0  3  0  0  0  0  0  0
  181.6900  177.6400  135.6950 N   0  0  0  0  0  2  0  0  0  0  0  0
  186.0550  177.4580  137.8890 C   0  0  0  0  0  3  0  0  0  0  0  0
  184.4160  175.0370  137.2080 O   0  0  0  0  0  0  0  0  0  0  0  0
  180.4670  175.8100  134.6110 C   0  0  0  0  0  3  0  0  0  0  0  0
  183.8220  177.3380  136.7460 C   0  0  1  0  0  3  0  0  0  0  0  0
  181.5350  176.2480  135.3980 C   0  0  0  0  0  0  0  0  0  0  0  0
  182.5090  181.4380  138.7180 N   0  0  0  0  0  0  0  0  0  0  0  0
  182.5870  180.2930  138.8690 C   0  0  0  0  0  0  0  0  0  0  0  0
  180.2350  176.9510  138.9610 C   0  0  0  0  0  1  0  0  0  0  0  0
  181.5190  176.8350  138.4290 O   0  0  0  0  0  0  0  0  0  0  0  0
  189.5750  177.9150  143.2560 C   0  0  0  0  0  3  0  0  0  0  0  0
  189.3490  178.7360  142.2790 N   0  0  0  0  0  0  0  0  0  0  0  0
  190.4770  178.3010  144.3750 C   0  0  0  0  0  3  0  0  0  0  0  0
  191.5990  179.1630  143.8390 C   0  0  0  0  0  1  0  0  0  0  0  0
  191.0640  177.0620  145.0230 C   0  0  0  0  0  1  0  0  0  0  0  0
  1  8  1  0  0  0  0
  1 29  1  0  0  0  0
  2  9  1  0  0  0  0
  3 20  2  0  0  0  0
  4  3  1  0  0  0  0
  5 14  1  0  0  0  0
  7 21  2  0  0  0  0
  7 12  1  0  0  0  0
  9 10  1  0  0  0  0
  9  6  2  0  0  0  0
 10 25  1  6  0  0  0
 11 18  1  6  0  0  0
 11 22  1  0  0  0  0
 11 17  1  0  0  0  0
 12 15  2  0  0  0  0
 13  1  2  0  0  0  0
 14  6  1  0  0  0  0
 14  8  2  0  0  0  0
 15  4  1  0  0  0  0
 16  5  2  0  0  0  0
 16 13  1  0  0  0  0
 17 27  1  1  0  0  0
 17 10  1  0  0  0  0
 19  2  2  0  0  0  0
 19  5  1  0  0  0  0
 21 23  1  0  0  0  0
 22  3  1  1  0  0  0
 22  2  1  0  0  0  0
 23 18  1  0  0  0  0
 23  4  2  0  0  0  0
 24 25  3  0  0  0  0
 27 26  1  0  0  0  0
 28 30  1  0  0  0  0
 29 28  2  0  0  0  0
 30 32  1  0  0  0  0
 31 30  1  0  0  0  0
M  END
>  <MODEL>
6

>  <REMARK>
 VINA RESULT:      -5.5      2.497      3.305
  Name = 
  4 active torsions:
  status: ('A' for Active; 'I' for Inactive)
    1  A    between atoms: C_1  and  C_10
    2  A    between atoms: C_2  and  N_24
    3  A    between atoms: C_13  and  C_15
    4  A    between atoms: O_25  and  C_26
                            x       y       z     vdW  Elec       q    Type
                         _______ _______ _______ _____ _____    ______ ____

>  <TORSDO>
F 4

$$$$
=
 OpenBabel10272413383D

 32 36  0  0  1  0  0  0  0  0999 V2000
  193.2440  176.2000  136.7620 C   0  0  0  0  0  0  0  0  0  0  0  0
  188.2160  176.1750  137.3080 C   0  0  0  0  0  0  0  0  0  0  0  0
  186.4290  177.7170  138.2130 C   0  0  0  0  0  0  0  0  0  0  0  0
  185.0070  178.0660  138.3150 C   0  0  0  0  0  0  0  0  0  0  0  0
  190.6060  176.2830  137.7200 C   0  0  0  0  0  0  0  0  0  0  0  0
  189.7840  175.9120  135.4650 C   0  0  0  0  0  3  0  0  0  0  0  0
  182.2750  178.6210  138.5540 C   0  0  0  0  0  3  0  0  0  0  0  0
  192.1660  176.0400  135.8730 C   0  0  0  0  0  3  0  0  0  0  0  0
  188.4630  175.9540  135.9330 C   0  0  0  0  0  0  0  0  0  0  0  0
  187.3410  175.6810  134.9670 C   0  0  2  0  0  3  0  0  0  0  0  0
  185.8290  175.6620  136.9180 N   0  0  2  0  0  0  0  0  0  0  0  0
  183.2180  179.5720  138.9540 C   0  0  0  0  0  3  0  0  0  0  0  0
  192.9890  176.4020  138.1240 C   0  0  0  0  0  3  0  0  0  0  0  0
  190.8520  176.0810  136.3450 C   0  0  0  0  0  0  0  0  0  0  0  0
  184.5850  179.2960  138.8360 C   0  0  0  0  0  3  0  0  0  0  0  0
  191.6760  176.4430  138.6030 C   0  0  0  0  0  3  0  0  0  0  0  0
  185.9790  176.1090  135.5200 C   0  0  1  0  0  3  0  0  0  0  0  0
  184.4990  175.8810  137.3420 N   0  0  0  0  0  2  0  0  0  0  0  0
  189.2930  176.3310  138.1910 C   0  0  0  0  0  3  0  0  0  0  0  0
  187.3140  178.5650  138.5110 O   0  0  0  0  0  0  0  0  0  0  0  0
  182.6950  177.3940  138.0300 C   0  0  0  0  0  3  0  0  0  0  0  0
  186.8070  176.2960  137.8360 C   0  0  1  0  0  3  0  0  0  0  0  0
  184.0600  177.1230  137.9010 C   0  0  0  0  0  0  0  0  0  0  0  0
  187.2720  173.1300  134.3460 N   0  0  0  0  0  0  0  0  0  0  0  0
  187.3030  174.2540  134.6200 C   0  0  0  0  0  0  0  0  0  0  0  0
  184.9090  177.6540  134.3460 C   0  0  0  0  0  1  0  0  0  0  0  0
  185.8200  177.4940  135.3910 O   0  0  0  0  0  0  0  0  0  0  0  0
  195.1900  175.0770  135.9190 C   0  0  0  0  0  3  0  0  0  0  0  0
  194.6020  176.1640  136.3100 N   0  0  0  0  0  0  0  0  0  0  0  0
  196.6070  175.1060  135.4620 C   0  0  0  0  0  3  0  0  0  0  0  0
  197.5220  175.0220  136.6640 C   0  0  0  0  0  1  0  0  0  0  0  0
  196.8850  176.3920  134.7090 C   0  0  0  0  0  1  0  0  0  0  0  0
  1 13  1  0  0  0  0
  2 19  1  0  0  0  0
  3  4  1  0  0  0  0
  3 20  2  0  0  0  0
  4 15  1  0  0  0  0
  5 19  2  0  0  0  0
  5 16  1  0  0  0  0
  6  9  1  0  0  0  0
  6 14  2  0  0  0  0
  7 12  1  0  0  0  0
  8 14  1  0  0  0  0
  8  1  2  0  0  0  0
  9  2  2  0  0  0  0
 10 25  1  1  0  0  0
 10 17  1  0  0  0  0
 10  9  1  0  0  0  0
 11 18  1  1  0  0  0
 11 22  1  0  0  0  0
 13 16  2  0  0  0  0
 14  5  1  0  0  0  0
 15 12  2  0  0  0  0
 17 27  1  1  0  0  0
 17 11  1  0  0  0  0
 18 23  1  0  0  0  0
 21  7  2  0  0  0  0
 22  2  1  6  0  0  0
 22  3  1  0  0  0  0
 23 21  1  0  0  0  0
 23  4  2  0  0  0  0
 24 25  3  0  0  0  0
 26 27  1  0  0  0  0
 28 29  2  0  0  0  0
 29  1  1  0  0  0  0
 30 28  1  0  0  0  0
 30 31  1  0  0  0  0
 32 30  1  0  0  0  0
M  END
>  <MODEL>
7

>  <REMARK>
 VINA RESULT:      -5.5      6.580      8.508
  Name = 
  4 active torsions:
  status: ('A' for Active; 'I' for Inactive)
    1  A    between atoms: C_1  and  C_10
    2  A    between atoms: C_2  and  N_24
    3  A    between atoms: C_13  and  C_15
    4  A    between atoms: O_25  and  C_26
                            x       y       z     vdW  Elec       q    Type
                         _______ _______ _______ _____ _____    ______ ____

>  <TORSDO>
F 4

$$$$
=
 OpenBabel10272413383D

 32 36  0  0  1  0  0  0  0  0999 V2000
  182.3070  178.4990  138.3650 C   0  0  0  0  0  0  0  0  0  0  0  0
  186.5430  178.7690  141.1130 C   0  0  0  0  0  0  0  0  0  0  0  0
  187.3460  178.0030  143.3840 C   0  0  0  0  0  0  0  0  0  0  0  0
  188.4650  177.7580  144.3020 C   0  0  0  0  0  0  0  0  0  0  0  0
  184.2490  178.9480  140.3430 C   0  0  0  0  0  0  0  0  0  0  0  0
  185.9310  177.9460  138.9060 C   0  0  0  0  0  3  0  0  0  0  0  0
  190.6300  177.4060  146.0400 C   0  0  0  0  0  3  0  0  0  0  0  0
  183.6390  178.1070  138.1460 C   0  0  0  0  0  3  0  0  0  0  0  0
  186.9070  178.1640  139.8890 C   0  0  0  0  0  0  0  0  0  0  0  0
  188.3400  177.8190  139.5780 C   0  0  2  0  0  3  0  0  0  0  0  0
  188.9400  178.9350  141.6960 N   0  0  2  0  0  0  0  0  0  0  0  0
  189.3810  176.8680  146.3630 C   0  0  0  0  0  3  0  0  0  0  0  0
  181.9590  179.1130  139.5740 C   0  0  0  0  0  3  0  0  0  0  0  0
  184.6080  178.3270  139.1270 C   0  0  0  0  0  0  0  0  0  0  0  0
  188.2960  177.0450  145.4970 C   0  0  0  0  0  3  0  0  0  0  0  0
  182.9250  179.3370  140.5610 C   0  0  0  0  0  3  0  0  0  0  0  0
  189.2120  177.7680  140.8340 C   0  0  1  0  0  3  0  0  0  0  0  0
  189.8920  178.9810  142.7390 N   0  0  0  0  0  2  0  0  0  0  0  0
  185.2150  179.1620  141.3260 C   0  0  0  0  0  3  0  0  0  0  0  0
  186.2160  177.4910  143.6100 O   0  0  0  0  0  0  0  0  0  0  0  0
  190.8010  178.1140  144.8460 C   0  0  0  0  0  3  0  0  0  0  0  0
  187.5530  178.9550  142.2210 C   0  0  1  0  0  3  0  0  0  0  0  0
  189.7210  178.2800  143.9750 C   0  0  0  0  0  0  0  0  0  0  0  0
  189.3490  179.5500  137.8800 N   0  0  0  0  0  0  0  0  0  0  0  0
  188.9040  178.7870  138.6280 C   0  0  0  0  0  0  0  0  0  0  0  0
  190.2970  176.0410  141.7020 C   0  0  0  0  0  1  0  0  0  0  0  0
  189.0150  176.5580  141.5110 O   0  0  0  0  0  0  0  0  0  0  0  0
  181.2140  178.9700  136.2810 C   0  0  0  0  0  3  0  0  0  0  0  0
  181.2890  178.2870  137.3800 N   0  0  0  0  0  0  0  0  0  0  0  0
  180.1290  178.7020  135.2970 C   0  0  0  0  0  3  0  0  0  0  0  0
  180.4690  177.4600  134.5030 C   0  0  0  0  0  1  0  0  0  0  0  0
  179.9820  179.8770  134.3490 C   0  0  0  0  0  1  0  0  0  0  0  0
  1 13  1  0  0  0  0
  2 19  1  0  0  0  0
  3 20  2  0  0  0  0
  3  4  1  0  0  0  0
  4 15  1  0  0  0  0
  5 16  1  0  0  0  0
  5 19  2  0  0  0  0
  6 14  2  0  0  0  0
  6  9  1  0  0  0  0
  7 12  1  0  0  0  0
  8  1  2  0  0  0  0
  8 14  1  0  0  0  0
  9  2  2  0  0  0  0
 10 25  1  6  0  0  0
 10  9  1  0  0  0  0
 10 17  1  0  0  0  0
 11 22  1  0  0  0  0
 11 18  1  1  0  0  0
 13 16  2  0  0  0  0
 14  5  1  0  0  0  0
 15 12  2  0  0  0  0
 17 27  1  1  0  0  0
 17 11  1  0  0  0  0
 18 23  1  0  0  0  0
 21  7  2  0  0  0  0
 22  2  1  6  0  0  0
 22  3  1  0  0  0  0
 23  4  2  0  0  0  0
 23 21  1  0  0  0  0
 24 25  3  0  0  0  0
 27 26  1  0  0  0  0
 28 29  2  0  0  0  0
 29  1  1  0  0  0  0
 30 28  1  0  0  0  0
 31 30  1  0  0  0  0
 32 30  1  0  0  0  0
M  END
>  <MODEL>
8

>  <REMARK>
 VINA RESULT:      -5.2      2.692      9.549
  Name = 
  4 active torsions:
  status: ('A' for Active; 'I' for Inactive)
    1  A    between atoms: C_1  and  C_10
    2  A    between atoms: C_2  and  N_24
    3  A    between atoms: C_13  and  C_15
    4  A    between atoms: O_25  and  C_26
                            x       y       z     vdW  Elec       q    Type
                         _______ _______ _______ _____ _____    ______ ____

>  <TORSDO>
F 4

$$$$
=
 OpenBabel10272413383D

 32 36  0  0  1  0  0  0  0  0999 V2000
  186.8640  176.3340  136.8480 C   0  0  0  0  0  0  0  0  0  0  0  0
  191.5110  174.3770  137.2340 C   0  0  0  0  0  0  0  0  0  0  0  0
  192.9910  172.8100  135.9140 C   0  0  0  0  0  0  0  0  0  0  0  0
  194.3290  172.2600  135.6640 C   0  0  0  0  0  0  0  0  0  0  0  0
  189.1090  174.6570  137.0320 C   0  0  0  0  0  0  0  0  0  0  0  0
  190.5440  176.6100  137.1920 C   0  0  0  0  0  3  0  0  0  0  0  0
  196.8850  171.1790  135.3040 C   0  0  0  0  0  3  0  0  0  0  0  0
  188.1500  176.8890  136.9700 C   0  0  0  0  0  3  0  0  0  0  0  0
  191.6710  175.7800  137.2820 C   0  0  0  0  0  0  0  0  0  0  0  0
  193.0200  176.4100  137.5100 C   0  0  2  0  0  3  0  0  0  0  0  0
  193.8950  174.1260  137.8410 N   0  0  2  0  0  0  0  0  0  0  0  0
  195.8890  170.9500  134.3490 C   0  0  0  0  0  3  0  0  0  0  0  0
  186.7140  174.9430  136.8180 C   0  0  0  0  0  3  0  0  0  0  0  0
  189.2690  176.0590  137.0610 C   0  0  0  0  0  0  0  0  0  0  0  0
  194.6100  171.4890  134.5290 C   0  0  0  0  0  3  0  0  0  0  0  0
  187.8310  174.1060  136.9100 C   0  0  0  0  0  3  0  0  0  0  0  0
  194.1700  175.4400  137.2290 C   0  0  1  0  0  3  0  0  0  0  0  0
  195.0480  173.3140  137.7500 N   0  0  0  0  0  2  0  0  0  0  0  0
  190.2270  173.8270  137.1160 C   0  0  0  0  0  3  0  0  0  0  0  0
  192.0780  172.6730  135.0540 O   0  0  0  0  0  0  0  0  0  0  0  0
  196.6070  171.9520  136.4350 C   0  0  0  0  0  3  0  0  0  0  0  0
  192.7070  173.4550  137.2580 C   0  0  1  0  0  3  0  0  0  0  0  0
  195.3340  172.5000  136.6080 C   0  0  0  0  0  0  0  0  0  0  0  0
  193.2050  177.3030  139.9730 N   0  0  0  0  0  0  0  0  0  0  0  0
  193.1240  176.9090  138.8870 C   0  0  0  0  0  0  0  0  0  0  0  0
  194.8560  176.6030  135.4710 C   0  0  0  0  0  1  0  0  0  0  0  0
  194.3930  175.3420  135.8500 O   0  0  0  0  0  0  0  0  0  0  0  0
  184.6370  176.9720  137.4740 C   0  0  0  0  0  3  0  0  0  0  0  0
  185.6970  177.1580  136.7520 N   0  0  0  0  0  0  0  0  0  0  0  0
  183.4540  177.8630  137.3240 C   0  0  0  0  0  3  0  0  0  0  0  0
  182.6300  177.8190  138.5930 C   0  0  0  0  0  1  0  0  0  0  0  0
  182.6000  177.4060  136.1570 C   0  0  0  0  0  1  0  0  0  0  0  0
  1  8  1  0  0  0  0
  2 22  1  0  0  0  0
  2  9  1  0  0  0  0
  4  3  1  0  0  0  0
  4 23  1  0  0  0  0
  5 14  1  0  0  0  0
  5 19  1  0  0  0  0
  6  9  2  0  0  0  0
  7 21  1  0  0  0  0
  8 14  2  0  0  0  0
  9 10  1  0  0  0  0
 10 25  1  1  0  0  0
 11 18  1  6  0  0  0
 12 15  1  0  0  0  0
 12  7  2  0  0  0  0
 13  1  2  0  0  0  0
 13 16  1  0  0  0  0
 14  6  1  0  0  0  0
 15  4  2  0  0  0  0
 16  5  2  0  0  0  0
 17 27  1  6  0  0  0
 17 10  1  0  0  0  0
 17 11  1  0  0  0  0
 19  2  2  0  0  0  0
 20  3  2  0  0  0  0
 21 23  2  0  0  0  0
 22  3  1  6  0  0  0
 22 11  1  0  0  0  0
 23 18  1  0  0  0  0
 25 24  3  0  0  0  0
 26 27  1  0  0  0  0
 29  1  1  0  0  0  0
 29 28  2  0  0  0  0
 30 28  1  0  0  0  0
 30 31  1  0  0  0  0
 32 30  1  0  0  0  0
M  END
>  <MODEL>
9

>  <REMARK>
 VINA RESULT:      -4.7      8.430     11.993
  Name = 
  4 active torsions:
  status: ('A' for Active; 'I' for Inactive)
    1  A    between atoms: C_1  and  C_10
    2  A    between atoms: C_2  and  N_24
    3  A    between atoms: C_13  and  C_15
    4  A    between atoms: O_25  and  C_26
                            x       y       z     vdW  Elec       q    Type
                         _______ _______ _______ _____ _____    ______ ____

>  <TORSDO>
F 4

$$$$
