=
 OpenBabel10272415173D

 34 38  0  0  1  0  0  0  0  0999 V2000
  187.1240  178.0440  144.4930 C   0  0  0  0  0  0  0  0  0  0  0  0
  188.6050  177.7610  147.8160 C   0  0  0  0  0  2  0  0  0  0  0  0
  186.6160  178.2650  147.0700 N   0  0  0  0  0  0  0  0  0  0  0  0
  186.3170  178.2980  142.2060 C   0  0  0  0  0  0  0  0  0  0  0  0
  187.3600  178.0790  143.1740 C   0  0  0  0  0  3  0  0  0  0  0  0
  184.7430  178.4160  143.9960 C   0  0  0  0  0  0  0  0  0  0  0  0
  183.3620  178.4510  144.4080 N   0  0  0  0  0  1  0  0  0  0  0  0
  184.9890  178.3760  142.6690 C   0  0  0  0  0  3  0  0  0  0  0  0
  185.5900  178.3780  146.2370 C   0  0  0  0  0  0  0  0  0  0  0  0
  185.7830  178.2810  144.9180 C   0  0  0  0  0  0  0  0  0  0  0  0
  184.4550  178.5070  146.7310 O   0  0  0  0  0  0  0  0  0  0  0  0
  190.0580  177.6740  148.0000 C   0  0  0  0  0  2  0  0  0  0  0  0
  190.7850  176.7250  146.9610 C   0  0  1  0  0  3  0  0  0  0  0  0
  190.5250  176.8580  145.6510 C   0  0  0  0  0  2  0  0  0  0  0  0
  187.8900  178.0270  146.7510 C   0  0  0  0  0  0  0  0  0  0  0  0
  189.2860  177.3190  144.9960 C   0  0  0  0  0  3  0  0  0  0  0  0
  188.1910  177.8980  145.4340 C   0  0  0  0  0  0  0  0  0  0  0  0
  191.9700  175.9540  147.4140 N   0  0  0  0  0  0  0  0  0  0  0  0
  192.3480  175.0000  146.7450 O   0  0  0  0  0  0  0  0  0  0  0  0
  192.7340  176.4160  148.5140 O   0  0  0  0  0  0  0  0  0  0  0  0
  186.4230  178.6330  140.8350 O   0  0  0  0  0  0  0  0  0  0  0  0
  188.3560  177.3630  137.9510 C   0  0  0  0  0  3  0  0  0  0  0  0
  188.7380  178.1470  140.6090 C   0  0  0  0  0  3  0  0  0  0  0  0
  191.9150  176.5940  138.3950 C   0  0  0  0  0  0  0  0  0  0  0  0
  190.6800  176.7850  137.8040 C   0  0  0  0  0  3  0  0  0  0  0  0
  189.6270  177.3230  138.5170 C   0  0  0  0  0  0  0  0  0  0  0  0
  190.9890  177.4250  140.5610 C   0  0  0  0  0  3  0  0  0  0  0  0
  189.7930  177.6290  139.8750 C   0  0  0  0  0  0  0  0  0  0  0  0
  192.0930  176.9440  139.7990 C   0  0  0  0  0  3  0  0  0  0  0  0
  187.5210  178.3630  139.9790 C   0  0  0  0  0  0  0  0  0  0  0  0
  187.2920  177.9400  138.6910 C   0  0  0  0  0  3  0  0  0  0  0  0
  193.1130  176.0370  137.6740 C   0  0  0  0  0  0  0  0  0  0  0  0
  193.8340  176.8350  137.0730 O   0  0  0  0  0  0  0  0  0  0  0  0
  193.3680  174.5770  137.7390 O   0  0  0  0  0  1  0  0  0  0  0  0
  1 10  1  0  0  0  0
  1 17  1  0  0  0  0
  2 12  1  0  0  0  0
  4  8  2  0  0  0  0
  4  5  1  0  0  0  0
  5  1  2  0  0  0  0
  6  7  1  0  0  0  0
  6 10  2  0  0  0  0
  8  6  1  0  0  0  0
  9 11  2  0  0  0  0
  9  3  1  0  0  0  0
 10  9  1  0  0  0  0
 13 18  1  6  0  0  0
 13 12  1  0  0  0  0
 14 13  1  0  0  0  0
 15  3  2  0  0  0  0
 15  2  1  0  0  0  0
 16 17  2  0  0  0  0
 16 14  1  0  0  0  0
 17 15  1  0  0  0  0
 18 20  2  0  0  0  0
 19 18  2  0  0  0  0
 21  4  1  0  0  0  0
 22 26  2  0  0  0  0
 22 31  1  0  0  0  0
 24 29  1  0  0  0  0
 25 24  2  0  0  0  0
 25 26  1  0  0  0  0
 26 28  1  0  0  0  0
 28 27  1  0  0  0  0
 28 23  2  0  0  0  0
 29 27  2  0  0  0  0
 30 23  1  0  0  0  0
 30 21  1  0  0  0  0
 31 30  2  0  0  0  0
 32 34  1  0  0  0  0
 32 24  1  0  0  0  0
 33 32  2  0  0  0  0
M  END
>  <MODEL>
1

>  <REMARK>
 VINA RESULT:     -11.7      0.000      0.000
  Name = 
  4 active torsions:
  status: ('A' for Active; 'I' for Inactive)
    1  A    between atoms: N_3  and  C_25
    2  A    between atoms: C_7  and  C_11
    3  A    between atoms: C_8  and  O_18
    4  A    between atoms: O_18  and  C_30
                            x       y       z     vdW  Elec       q    Type
                         _______ _______ _______ _____ _____    ______ ____

>  <TORSDO>
F 4

$$$$
=
 OpenBabel10272415173D

 34 38  0  0  1  0  0  0  0  0999 V2000
  189.0860  177.6140  144.1090 C   0  0  0  0  0  0  0  0  0  0  0  0
  191.9620  177.2390  141.8940 C   0  0  0  0  0  2  0  0  0  0  0  0
  191.7090  177.3670  144.0590 N   0  0  0  0  0  0  0  0  0  0  0  0
  187.0770  177.9770  145.4420 C   0  0  0  0  0  0  0  0  0  0  0  0
  187.7730  177.8770  144.1860 C   0  0  0  0  0  3  0  0  0  0  0  0
  189.1250  177.4910  146.5660 C   0  0  0  0  0  0  0  0  0  0  0  0
  189.7910  177.1530  147.7990 N   0  0  0  0  0  1  0  0  0  0  0  0
  187.7900  177.6860  146.6200 C   0  0  0  0  0  3  0  0  0  0  0  0
  191.1200  177.3510  145.2470 C   0  0  0  0  0  0  0  0  0  0  0  0
  189.7930  177.4770  145.3400 C   0  0  0  0  0  0  0  0  0  0  0  0
  191.8360  177.1480  146.2450 O   0  0  0  0  0  0  0  0  0  0  0  0
  191.8470  177.4650  140.4490 C   0  0  0  0  0  2  0  0  0  0  0  0
  190.5370  176.8550  139.8020 C   0  0  1  0  0  3  0  0  0  0  0  0
  189.3460  177.0980  140.3690 C   0  0  0  0  0  2  0  0  0  0  0  0
  191.1170  177.4730  142.8670 C   0  0  0  0  0  0  0  0  0  0  0  0
  189.0310  177.3450  141.7900 C   0  0  0  0  0  3  0  0  0  0  0  0
  189.7660  177.5920  142.8500 C   0  0  0  0  0  0  0  0  0  0  0  0
  190.6110  176.3240  138.4170 N   0  0  0  0  0  0  0  0  0  0  0  0
  190.5400  177.1060  137.4770 O   0  0  0  0  0  0  0  0  0  0  0  0
  190.9150  174.9580  138.2010 O   0  0  0  0  0  0  0  0  0  0  0  0
  185.7930  178.5080  145.7140 O   0  0  0  0  0  0  0  0  0  0  0  0
  182.4340  178.8430  144.2050 C   0  0  0  0  0  3  0  0  0  0  0  0
  185.1120  178.5780  143.4390 C   0  0  0  0  0  3  0  0  0  0  0  0
  182.0910  178.6210  140.5600 C   0  0  0  0  0  0  0  0  0  0  0  0
  181.7840  178.8010  141.8960 C   0  0  0  0  0  3  0  0  0  0  0  0
  182.7770  178.8160  142.8560 C   0  0  0  0  0  0  0  0  0  0  0  0
  184.5010  178.3550  141.1650 C   0  0  0  0  0  3  0  0  0  0  0  0
  184.1090  178.5900  142.4820 C   0  0  0  0  0  0  0  0  0  0  0  0
  183.4820  178.4200  140.1710 C   0  0  0  0  0  3  0  0  0  0  0  0
  184.7780  178.7990  144.7670 C   0  0  0  0  0  0  0  0  0  0  0  0
  183.4680  178.8800  145.1770 C   0  0  0  0  0  3  0  0  0  0  0  0
  181.0670  178.6190  139.4570 C   0  0  0  0  0  0  0  0  0  0  0  0
  180.0830  177.8920  139.5990 O   0  0  0  0  0  1  0  0  0  0  0  0
  181.2870  179.4960  138.2810 O   0  0  0  0  0  0  0  0  0  0  0  0
  1  5  2  0  0  0  0
  1 10  1  0  0  0  0
  2 15  1  0  0  0  0
  3  9  1  0  0  0  0
  4 21  1  0  0  0  0
  4  8  2  0  0  0  0
  5  4  1  0  0  0  0
  6  8  1  0  0  0  0
  6  7  1  0  0  0  0
  9 10  1  0  0  0  0
  9 11  2  0  0  0  0
 10  6  2  0  0  0  0
 12  2  1  0  0  0  0
 13 18  1  6  0  0  0
 13 14  1  0  0  0  0
 13 12  1  0  0  0  0
 14 16  1  0  0  0  0
 15  3  2  0  0  0  0
 16 17  2  0  0  0  0
 17 15  1  0  0  0  0
 17  1  1  0  0  0  0
 19 18  2  0  0  0  0
 20 18  2  0  0  0  0
 22 31  1  0  0  0  0
 23 30  1  0  0  0  0
 24 25  2  0  0  0  0
 25 26  1  0  0  0  0
 26 22  2  0  0  0  0
 27 28  1  0  0  0  0
 28 26  1  0  0  0  0
 28 23  2  0  0  0  0
 29 24  1  0  0  0  0
 29 27  2  0  0  0  0
 30 31  2  0  0  0  0
 30 21  1  0  0  0  0
 32 33  1  0  0  0  0
 32 24  1  0  0  0  0
 34 32  2  0  0  0  0
M  END
>  <MODEL>
2

>  <REMARK>
 VINA RESULT:     -11.4      2.990      7.573
  Name = 
  4 active torsions:
  status: ('A' for Active; 'I' for Inactive)
    1  A    between atoms: N_3  and  C_25
    2  A    between atoms: C_7  and  C_11
    3  A    between atoms: C_8  and  O_18
    4  A    between atoms: O_18  and  C_30
                            x       y       z     vdW  Elec       q    Type
                         _______ _______ _______ _____ _____    ______ ____

>  <TORSDO>
F 4

$$$$
=
 OpenBabel10272415173D

 34 38  0  0  1  0  0  0  0  0999 V2000
  183.5670  178.6250  141.6860 C   0  0  0  0  0  0  0  0  0  0  0  0
  183.8920  177.7230  138.1660 C   0  0  0  0  0  2  0  0  0  0  0  0
  182.2030  177.9810  139.5250 N   0  0  0  0  0  0  0  0  0  0  0  0
  183.5260  179.1320  144.0710 C   0  0  0  0  0  0  0  0  0  0  0  0
  184.2140  178.8240  142.8430 C   0  0  0  0  0  3  0  0  0  0  0  0
  181.4600  179.0610  142.8800 C   0  0  0  0  0  0  0  0  0  0  0  0
  180.0420  179.3240  142.8770 N   0  0  0  0  0  1  0  0  0  0  0  0
  182.1330  179.3280  144.0190 C   0  0  0  0  0  3  0  0  0  0  0  0
  181.5090  178.3520  140.5920 C   0  0  0  0  0  0  0  0  0  0  0  0
  182.1420  178.6870  141.7210 C   0  0  0  0  0  0  0  0  0  0  0  0
  180.2730  178.4400  140.4760 O   0  0  0  0  0  0  0  0  0  0  0  0
  185.1900  177.3540  137.5880 C   0  0  0  0  0  2  0  0  0  0  0  0
  186.3920  178.2680  138.0630 C   0  0  1  0  0  3  0  0  0  0  0  0
  186.5590  178.5130  139.3720 C   0  0  0  0  0  2  0  0  0  0  0  0
  183.5320  177.9160  139.4100 C   0  0  0  0  0  0  0  0  0  0  0  0
  185.5390  178.5790  140.4380 C   0  0  0  0  0  3  0  0  0  0  0  0
  184.2690  178.2490  140.4980 C   0  0  0  0  0  0  0  0  0  0  0  0
  187.4890  178.5510  137.1040 N   0  0  0  0  0  0  0  0  0  0  0  0
  187.3820  178.1610  135.9480 O   0  0  0  0  0  0  0  0  0  0  0  0
  188.5620  179.3920  137.4890 O   0  0  0  0  0  0  0  0  0  0  0  0
  184.0110  179.0980  145.4010 O   0  0  0  0  0  0  0  0  0  0  0  0
  186.9540  178.3450  147.5080 C   0  0  0  0  0  3  0  0  0  0  0  0
  186.0910  178.0870  144.8590 C   0  0  0  0  0  3  0  0  0  0  0  0
  189.9690  176.9780  145.9290 C   0  0  0  0  0  0  0  0  0  0  0  0
  189.0790  177.4170  146.8910 C   0  0  0  0  0  3  0  0  0  0  0  0
  187.7840  177.7610  146.5550 C   0  0  0  0  0  0  0  0  0  0  0  0
  188.2270  177.3350  144.1750 C   0  0  0  0  0  3  0  0  0  0  0  0
  187.3810  177.7200  145.2130 C   0  0  0  0  0  0  0  0  0  0  0  0
  189.5360  176.9050  144.5390 C   0  0  0  0  0  3  0  0  0  0  0  0
  185.2080  178.4860  145.8520 C   0  0  0  0  0  0  0  0  0  0  0  0
  185.6200  178.6710  147.1500 C   0  0  0  0  0  3  0  0  0  0  0  0
  191.3850  176.5620  146.2240 C   0  0  0  0  0  0  0  0  0  0  0  0
  191.9810  175.9220  145.3570 O   0  0  0  0  0  0  0  0  0  0  0  0
  191.9870  176.9570  147.5220 O   0  0  0  0  0  1  0  0  0  0  0  0
  1 10  2  0  0  0  0
  1  5  1  0  0  0  0
  2 15  1  0  0  0  0
  3  9  1  0  0  0  0
  4 21  1  0  0  0  0
  5  4  2  0  0  0  0
  6  8  2  0  0  0  0
  7  6  1  0  0  0  0
  8  4  1  0  0  0  0
  9 10  1  0  0  0  0
 10  6  1  0  0  0  0
 11  9  2  0  0  0  0
 12 13  1  0  0  0  0
 12  2  1  0  0  0  0
 13 18  1  1  0  0  0
 13 14  1  0  0  0  0
 14 16  1  0  0  0  0
 15  3  2  0  0  0  0
 15 17  1  0  0  0  0
 16 17  2  0  0  0  0
 17  1  1  0  0  0  0
 18 20  2  0  0  0  0
 19 18  2  0  0  0  0
 21 30  1  0  0  0  0
 23 28  2  0  0  0  0
 23 30  1  0  0  0  0
 24 32  1  0  0  0  0
 24 25  2  0  0  0  0
 26 25  1  0  0  0  0
 26 22  2  0  0  0  0
 27 29  2  0  0  0  0
 27 28  1  0  0  0  0
 28 26  1  0  0  0  0
 29 24  1  0  0  0  0
 30 31  2  0  0  0  0
 31 22  1  0  0  0  0
 32 34  1  0  0  0  0
 33 32  2  0  0  0  0
M  END
>  <MODEL>
3

>  <REMARK>
 VINA RESULT:     -11.3      3.902      7.832
  Name = 
  4 active torsions:
  status: ('A' for Active; 'I' for Inactive)
    1  A    between atoms: N_3  and  C_25
    2  A    between atoms: C_7  and  C_11
    3  A    between atoms: C_8  and  O_18
    4  A    between atoms: O_18  and  C_30
                            x       y       z     vdW  Elec       q    Type
                         _______ _______ _______ _____ _____    ______ ____

>  <TORSDO>
F 4

$$$$
=
 OpenBabel10272415173D

 34 38  0  0  1  0  0  0  0  0999 V2000
  184.8530  178.6240  142.8730 C   0  0  0  0  0  0  0  0  0  0  0  0
  184.9120  178.6310  146.5210 C   0  0  0  0  0  2  0  0  0  0  0  0
  183.3410  178.8490  145.0200 N   0  0  0  0  0  0  0  0  0  0  0  0
  184.9990  178.7050  140.4400 C   0  0  0  0  0  0  0  0  0  0  0  0
  185.5890  178.6520  141.7530 C   0  0  0  0  0  3  0  0  0  0  0  0
  182.8410  178.6670  141.4570 C   0  0  0  0  0  0  0  0  0  0  0  0
  181.4150  178.5320  141.2920 N   0  0  0  0  0  1  0  0  0  0  0  0
  183.5970  178.6210  140.3400 C   0  0  0  0  0  3  0  0  0  0  0  0
  182.7260  178.8030  143.8460 C   0  0  0  0  0  0  0  0  0  0  0  0
  183.4370  178.6940  142.7190 C   0  0  0  0  0  0  0  0  0  0  0  0
  181.4820  178.7960  143.8460 O   0  0  0  0  0  0  0  0  0  0  0  0
  186.1720  178.7400  147.2650 C   0  0  0  0  0  2  0  0  0  0  0  0
  187.3500  177.8660  146.6700 C   0  0  1  0  0  3  0  0  0  0  0  0
  187.6210  177.9260  145.3570 C   0  0  0  0  0  2  0  0  0  0  0  0
  184.6550  178.7710  145.2440 C   0  0  0  0  0  0  0  0  0  0  0  0
  186.7020  178.2020  144.2360 C   0  0  0  0  0  3  0  0  0  0  0  0
  185.4670  178.6450  144.1650 C   0  0  0  0  0  0  0  0  0  0  0  0
  188.3350  177.2690  147.6090 N   0  0  0  0  0  0  0  0  0  0  0  0
  189.2180  176.5480  147.1630 O   0  0  0  0  0  0  0  0  0  0  0  0
  188.3360  177.6590  148.9710 O   0  0  0  0  0  0  0  0  0  0  0  0
  185.6050  179.0130  139.1980 O   0  0  0  0  0  0  0  0  0  0  0  0
  187.1350  176.3500  137.1380 C   0  0  0  0  0  3  0  0  0  0  0  0
  187.8270  178.1750  139.1430 C   0  0  0  0  0  3  0  0  0  0  0  0
  190.6190  175.3950  137.7700 C   0  0  0  0  0  0  0  0  0  0  0  0
  189.3640  175.4650  137.1950 C   0  0  0  0  0  3  0  0  0  0  0  0
  188.4400  176.3980  137.6220 C   0  0  0  0  0  0  0  0  0  0  0  0
  189.9790  177.2160  139.3550 C   0  0  0  0  0  3  0  0  0  0  0  0
  188.7550  177.2500  138.6890 C   0  0  0  0  0  0  0  0  0  0  0  0
  190.9550  176.3050  138.8580 C   0  0  0  0  0  3  0  0  0  0  0  0
  186.5890  178.2480  138.5220 C   0  0  0  0  0  0  0  0  0  0  0  0
  186.2050  177.3320  137.5720 C   0  0  0  0  0  3  0  0  0  0  0  0
  191.6850  174.4230  137.3400 C   0  0  0  0  0  0  0  0  0  0  0  0
  192.8400  174.6510  137.7030 O   0  0  0  0  0  1  0  0  0  0  0  0
  191.2900  173.2470  136.5260 O   0  0  0  0  0  0  0  0  0  0  0  0
  1 17  1  0  0  0  0
  2 12  1  0  0  0  0
  3 15  2  0  0  0  0
  4  5  1  0  0  0  0
  5  1  2  0  0  0  0
  6 10  2  0  0  0  0
  7  6  1  0  0  0  0
  8  4  2  0  0  0  0
  8  6  1  0  0  0  0
  9  3  1  0  0  0  0
 10  1  1  0  0  0  0
 10  9  1  0  0  0  0
 11  9  2  0  0  0  0
 13 12  1  0  0  0  0
 13 18  1  1  0  0  0
 14 13  1  0  0  0  0
 15  2  1  0  0  0  0
 16 14  1  0  0  0  0
 17 16  2  0  0  0  0
 17 15  1  0  0  0  0
 18 20  2  0  0  0  0
 19 18  2  0  0  0  0
 21  4  1  0  0  0  0
 22 31  2  0  0  0  0
 22 26  1  0  0  0  0
 24 29  1  0  0  0  0
 25 26  1  0  0  0  0
 25 24  2  0  0  0  0
 26 28  2  0  0  0  0
 28 23  1  0  0  0  0
 28 27  1  0  0  0  0
 29 27  2  0  0  0  0
 30 23  2  0  0  0  0
 30 21  1  0  0  0  0
 31 30  1  0  0  0  0
 32 33  1  0  0  0  0
 32 24  1  0  0  0  0
 34 32  2  0  0  0  0
M  END
>  <MODEL>
4

>  <REMARK>
 VINA RESULT:     -10.9      2.000      2.940
  Name = 
  4 active torsions:
  status: ('A' for Active; 'I' for Inactive)
    1  A    between atoms: N_3  and  C_25
    2  A    between atoms: C_7  and  C_11
    3  A    between atoms: C_8  and  O_18
    4  A    between atoms: O_18  and  C_30
                            x       y       z     vdW  Elec       q    Type
                         _______ _______ _______ _____ _____    ______ ____

>  <TORSDO>
F 4

$$$$
=
 OpenBabel10272415173D

 34 38  0  0  1  0  0  0  0  0999 V2000
  187.7730  177.9210  140.1200 C   0  0  0  0  0  0  0  0  0  0  0  0
  189.6660  176.9570  137.1530 C   0  0  0  0  0  2  0  0  0  0  0  0
  187.6460  177.7120  137.4960 N   0  0  0  0  0  0  0  0  0  0  0  0
  186.6100  178.4210  142.2040 C   0  0  0  0  0  0  0  0  0  0  0  0
  187.7360  177.9190  141.4600 C   0  0  0  0  0  3  0  0  0  0  0  0
  185.5480  178.9710  140.1400 C   0  0  0  0  0  0  0  0  0  0  0  0
  184.4690  179.6470  139.4630 N   0  0  0  0  0  1  0  0  0  0  0  0
  185.5600  179.0260  141.4880 C   0  0  0  0  0  3  0  0  0  0  0  0
  186.6150  178.2770  138.1100 C   0  0  0  0  0  0  0  0  0  0  0  0
  186.6170  178.4070  139.4410 C   0  0  0  0  0  0  0  0  0  0  0  0
  185.6990  178.7310  137.4020 O   0  0  0  0  0  0  0  0  0  0  0  0
  190.9270  176.2140  137.2590 C   0  0  0  0  0  2  0  0  0  0  0  0
  191.8830  176.7260  138.4120 C   0  0  1  0  0  3  0  0  0  0  0  0
  191.3890  176.9120  139.6460 C   0  0  0  0  0  2  0  0  0  0  0  0
  188.7660  177.2510  138.0580 C   0  0  0  0  0  0  0  0  0  0  0  0
  190.0180  177.2830  140.0480 C   0  0  0  0  0  3  0  0  0  0  0  0
  188.8730  177.3500  139.4070 C   0  0  0  0  0  0  0  0  0  0  0  0
  193.3510  176.6650  138.1960 N   0  0  0  0  0  0  0  0  0  0  0  0
  194.0660  176.2440  139.0970 O   0  0  0  0  0  0  0  0  0  0  0  0
  193.8870  176.9440  136.9150 O   0  0  0  0  0  0  0  0  0  0  0  0
  186.2910  178.2450  143.5720 O   0  0  0  0  0  0  0  0  0  0  0  0
  187.7920  177.6580  146.9000 C   0  0  0  0  0  3  0  0  0  0  0  0
  188.4400  177.4390  144.1870 C   0  0  0  0  0  3  0  0  0  0  0  0
  191.3040  176.6220  147.1090 C   0  0  0  0  0  0  0  0  0  0  0  0
  190.0090  176.9420  147.4720 C   0  0  0  0  0  3  0  0  0  0  0  0
  189.0450  177.1880  146.5140 C   0  0  0  0  0  0  0  0  0  0  0  0
  190.6840  176.9020  144.7050 C   0  0  0  0  0  3  0  0  0  0  0  0
  189.3930  177.1690  145.1570 C   0  0  0  0  0  0  0  0  0  0  0  0
  191.6550  176.5710  145.6940 C   0  0  0  0  0  3  0  0  0  0  0  0
  187.1390  177.7190  144.5800 C   0  0  0  0  0  0  0  0  0  0  0  0
  186.8070  177.8840  145.9040 C   0  0  0  0  0  3  0  0  0  0  0  0
  192.4000  176.3170  148.0940 C   0  0  0  0  0  0  0  0  0  0  0  0
  192.9570  175.2220  148.0020 O   0  0  0  0  0  0  0  0  0  0  0  0
  192.7590  177.3450  149.1010 O   0  0  0  0  0  1  0  0  0  0  0  0
  1  5  1  0  0  0  0
  2 12  1  0  0  0  0
  2 15  1  0  0  0  0
  3 15  2  0  0  0  0
  3  9  1  0  0  0  0
  4 21  1  0  0  0  0
  5  4  2  0  0  0  0
  6  8  2  0  0  0  0
  7  6  1  0  0  0  0
  8  4  1  0  0  0  0
  9 10  1  0  0  0  0
 10  1  2  0  0  0  0
 10  6  1  0  0  0  0
 11  9  2  0  0  0  0
 12 13  1  0  0  0  0
 13 18  1  1  0  0  0
 13 14  1  0  0  0  0
 14 16  1  0  0  0  0
 15 17  1  0  0  0  0
 17 16  2  0  0  0  0
 17  1  1  0  0  0  0
 18 19  2  0  0  0  0
 20 18  2  0  0  0  0
 21 30  1  0  0  0  0
 23 30  2  0  0  0  0
 23 28  1  0  0  0  0
 24 25  1  0  0  0  0
 24 32  1  0  0  0  0
 26 22  1  0  0  0  0
 26 25  2  0  0  0  0
 27 28  2  0  0  0  0
 27 29  1  0  0  0  0
 28 26  1  0  0  0  0
 29 24  2  0  0  0  0
 30 31  1  0  0  0  0
 31 22  2  0  0  0  0
 32 34  1  0  0  0  0
 33 32  2  0  0  0  0
M  END
>  <MODEL>
5

>  <REMARK>
 VINA RESULT:     -10.9      2.641      7.627
  Name = 
  4 active torsions:
  status: ('A' for Active; 'I' for Inactive)
    1  A    between atoms: N_3  and  C_25
    2  A    between atoms: C_7  and  C_11
    3  A    between atoms: C_8  and  O_18
    4  A    between atoms: O_18  and  C_30
                            x       y       z     vdW  Elec       q    Type
                         _______ _______ _______ _____ _____    ______ ____

>  <TORSDO>
F 4

$$$$
=
 OpenBabel10272415173D

 34 38  0  0  1  0  0  0  0  0999 V2000
  187.9240  177.9390  143.7440 C   0  0  0  0  0  0  0  0  0  0  0  0
  188.7940  177.5310  147.2640 C   0  0  0  0  0  2  0  0  0  0  0  0
  186.9580  178.0310  146.1950 N   0  0  0  0  0  0  0  0  0  0  0  0
  187.5310  178.2830  141.3620 C   0  0  0  0  0  0  0  0  0  0  0  0
  188.3910  178.0390  142.4920 C   0  0  0  0  0  3  0  0  0  0  0  0
  185.6610  178.2890  142.8440 C   0  0  0  0  0  0  0  0  0  0  0  0
  184.2280  178.2790  143.0020 N   0  0  0  0  0  1  0  0  0  0  0  0
  186.1410  178.3150  141.5820 C   0  0  0  0  0  3  0  0  0  0  0  0
  186.0950  178.1630  145.1960 C   0  0  0  0  0  0  0  0  0  0  0  0
  186.5220  178.1310  143.9310 C   0  0  0  0  0  0  0  0  0  0  0  0
  184.8870  178.2470  145.4840 O   0  0  0  0  0  0  0  0  0  0  0  0
  190.1930  177.4630  147.7020 C   0  0  0  0  0  2  0  0  0  0  0  0
  191.1190  176.5770  146.7720 C   0  0  1  0  0  3  0  0  0  0  0  0
  191.0940  176.7650  145.4440 C   0  0  0  0  0  2  0  0  0  0  0  0
  188.2750  177.8320  146.1000 C   0  0  0  0  0  0  0  0  0  0  0  0
  189.9800  177.2330  144.5970 C   0  0  0  0  0  3  0  0  0  0  0  0
  188.8090  177.7690  144.8550 C   0  0  0  0  0  0  0  0  0  0  0  0
  192.2250  175.8080  147.3980 N   0  0  0  0  0  0  0  0  0  0  0  0
  192.6360  174.7990  146.8380 O   0  0  0  0  0  0  0  0  0  0  0  0
  192.8870  176.3260  148.5370 O   0  0  0  0  0  0  0  0  0  0  0  0
  187.8720  178.6840  140.0480 O   0  0  0  0  0  0  0  0  0  0  0  0
  187.9730  176.1450  137.3620 C   0  0  0  0  0  3  0  0  0  0  0  0
  189.6840  177.4250  139.1680 C   0  0  0  0  0  3  0  0  0  0  0  0
  191.1250  174.3970  136.6850 C   0  0  0  0  0  0  0  0  0  0  0  0
  189.8140  174.8210  136.5790 C   0  0  0  0  0  3  0  0  0  0  0  0
  189.3310  175.8410  137.3760 C   0  0  0  0  0  0  0  0  0  0  0  0
  191.4830  176.0200  138.5500 C   0  0  0  0  0  3  0  0  0  0  0  0
  190.1640  176.4180  138.3450 C   0  0  0  0  0  0  0  0  0  0  0  0
  191.9980  175.0230  137.6710 C   0  0  0  0  0  3  0  0  0  0  0  0
  188.3750  177.8560  139.0120 C   0  0  0  0  0  0  0  0  0  0  0  0
  187.4990  177.2110  138.1710 C   0  0  0  0  0  3  0  0  0  0  0  0
  191.7270  173.3110  135.8340 C   0  0  0  0  0  0  0  0  0  0  0  0
  192.7220  172.7330  136.2730 O   0  0  0  0  0  1  0  0  0  0  0  0
  191.0870  172.9880  134.5350 O   0  0  0  0  0  0  0  0  0  0  0  0
  1 10  1  0  0  0  0
  1 17  1  0  0  0  0
  2 12  1  0  0  0  0
  4  8  2  0  0  0  0
  4  5  1  0  0  0  0
  5  1  2  0  0  0  0
  6  7  1  0  0  0  0
  6 10  2  0  0  0  0
  8  6  1  0  0  0  0
  9 11  2  0  0  0  0
  9  3  1  0  0  0  0
 10  9  1  0  0  0  0
 13 18  1  1  0  0  0
 13 12  1  0  0  0  0
 14 13  1  0  0  0  0
 15  3  2  0  0  0  0
 15  2  1  0  0  0  0
 16 17  2  0  0  0  0
 16 14  1  0  0  0  0
 17 15  1  0  0  0  0
 18 20  2  0  0  0  0
 19 18  2  0  0  0  0
 21  4  1  0  0  0  0
 22 26  2  0  0  0  0
 22 31  1  0  0  0  0
 24 29  1  0  0  0  0
 25 24  2  0  0  0  0
 25 26  1  0  0  0  0
 26 28  1  0  0  0  0
 28 27  1  0  0  0  0
 28 23  2  0  0  0  0
 29 27  2  0  0  0  0
 30 23  1  0  0  0  0
 30 21  1  0  0  0  0
 31 30  2  0  0  0  0
 32 33  1  0  0  0  0
 32 24  1  0  0  0  0
 34 32  2  0  0  0  0
M  END
>  <MODEL>
6

>  <REMARK>
 VINA RESULT:     -10.5      1.513      1.865
  Name = 
  4 active torsions:
  status: ('A' for Active; 'I' for Inactive)
    1  A    between atoms: N_3  and  C_25
    2  A    between atoms: C_7  and  C_11
    3  A    between atoms: C_8  and  O_18
    4  A    between atoms: O_18  and  C_30
                            x       y       z     vdW  Elec       q    Type
                         _______ _______ _______ _____ _____    ______ ____

>  <TORSDO>
F 4

$$$$
=
 OpenBabel10272415173D

 34 38  0  0  1  0  0  0  0  0999 V2000
  188.7540  177.5660  141.4840 C   0  0  0  0  0  0  0  0  0  0  0  0
  188.3110  177.2660  145.0930 C   0  0  0  0  0  2  0  0  0  0  0  0
  190.0080  177.0320  143.7390 N   0  0  0  0  0  0  0  0  0  0  0  0
  188.8580  177.6970  139.0510 C   0  0  0  0  0  0  0  0  0  0  0  0
  188.1400  177.6960  140.2990 C   0  0  0  0  0  3  0  0  0  0  0  0
  190.8930  177.4590  140.2740 C   0  0  0  0  0  0  0  0  0  0  0  0
  192.3350  177.4780  140.2620 N   0  0  0  0  0  1  0  0  0  0  0  0
  190.2650  177.6630  139.0960 C   0  0  0  0  0  3  0  0  0  0  0  0
  190.7450  177.1180  142.6400 C   0  0  0  0  0  0  0  0  0  0  0  0
  190.1680  177.3820  141.4640 C   0  0  0  0  0  0  0  0  0  0  0  0
  191.9790  177.0140  142.7630 O   0  0  0  0  0  0  0  0  0  0  0  0
  186.9750  177.2100  145.6970 C   0  0  0  0  0  2  0  0  0  0  0  0
  185.9400  178.2320  145.0720 C   0  0  1  0  0  3  0  0  0  0  0  0
  185.8050  178.3040  143.7380 C   0  0  0  0  0  2  0  0  0  0  0  0
  188.6880  177.2090  143.8400 C   0  0  0  0  0  0  0  0  0  0  0  0
  186.8120  178.0380  142.6920 C   0  0  0  0  0  3  0  0  0  0  0  0
  188.0080  177.4950  142.7020 C   0  0  0  0  0  0  0  0  0  0  0  0
  184.9140  178.8350  145.9600 N   0  0  0  0  0  0  0  0  0  0  0  0
  185.2320  179.1630  147.0960 O   0  0  0  0  0  0  0  0  0  0  0  0
  183.6380  179.1630  145.4400 O   0  0  0  0  0  0  0  0  0  0  0  0
  188.3640  177.5470  137.7330 O   0  0  0  0  0  0  0  0  0  0  0  0
  184.8170  176.6020  137.2820 C   0  0  0  0  0  3  0  0  0  0  0  0
  187.3570  175.4300  137.3460 C   0  0  0  0  0  3  0  0  0  0  0  0
  183.9490  173.0530  136.9680 C   0  0  0  0  0  0  0  0  0  0  0  0
  183.8390  174.4300  136.9990 C   0  0  0  0  0  3  0  0  0  0  0  0
  184.9610  175.2300  137.0970 C   0  0  0  0  0  0  0  0  0  0  0  0
  186.4230  173.2600  137.2460 C   0  0  0  0  0  3  0  0  0  0  0  0
  186.2260  174.6390  137.2220 C   0  0  0  0  0  0  0  0  0  0  0  0
  185.2700  172.4430  137.0650 C   0  0  0  0  0  3  0  0  0  0  0  0
  187.2190  176.8110  137.3360 C   0  0  0  0  0  0  0  0  0  0  0  0
  185.9820  177.4110  137.3580 C   0  0  0  0  0  3  0  0  0  0  0  0
  182.7750  172.1200  136.8370 C   0  0  0  0  0  0  0  0  0  0  0  0
  182.9940  170.9130  136.9510 O   0  0  0  0  0  1  0  0  0  0  0  0
  181.4300  172.6980  136.5980 O   0  0  0  0  0  0  0  0  0  0  0  0
  1 17  1  0  0  0  0
  2 12  1  0  0  0  0
  3 15  2  0  0  0  0
  4  8  2  0  0  0  0
  4  5  1  0  0  0  0
  5  1  2  0  0  0  0
  6 10  2  0  0  0  0
  7  6  1  0  0  0  0
  8  6  1  0  0  0  0
  9 11  2  0  0  0  0
  9  3  1  0  0  0  0
 10  1  1  0  0  0  0
 10  9  1  0  0  0  0
 13 12  1  0  0  0  0
 13 18  1  1  0  0  0
 14 13  1  0  0  0  0
 15  2  1  0  0  0  0
 16 17  2  0  0  0  0
 16 14  1  0  0  0  0
 17 15  1  0  0  0  0
 18 19  2  0  0  0  0
 20 18  2  0  0  0  0
 21  4  1  0  0  0  0
 22 31  1  0  0  0  0
 24 25  2  0  0  0  0
 24 29  1  0  0  0  0
 25 26  1  0  0  0  0
 26 28  1  0  0  0  0
 26 22  2  0  0  0  0
 28 27  1  0  0  0  0
 28 23  2  0  0  0  0
 29 27  2  0  0  0  0
 30 23  1  0  0  0  0
 30 31  2  0  0  0  0
 30 21  1  0  0  0  0
 32 33  1  0  0  0  0
 32 24  1  0  0  0  0
 34 32  2  0  0  0  0
M  END
>  <MODEL>
7

>  <REMARK>
 VINA RESULT:     -10.2      3.923      6.719
  Name = 
  4 active torsions:
  status: ('A' for Active; 'I' for Inactive)
    1  A    between atoms: N_3  and  C_25
    2  A    between atoms: C_7  and  C_11
    3  A    between atoms: C_8  and  O_18
    4  A    between atoms: O_18  and  C_30
                            x       y       z     vdW  Elec       q    Type
                         _______ _______ _______ _____ _____    ______ ____

>  <TORSDO>
F 4

$$$$
=
 OpenBabel10272415173D

 34 38  0  0  1  0  0  0  0  0999 V2000
  188.9110  176.6890  137.7450 C   0  0  0  0  0  0  0  0  0  0  0  0
  191.2350  174.4760  136.0090 C   0  0  0  0  0  2  0  0  0  0  0  0
  189.1280  174.9850  135.7470 N   0  0  0  0  0  0  0  0  0  0  0  0
  187.4590  178.1260  139.0780 C   0  0  0  0  0  0  0  0  0  0  0  0
  188.7090  177.4570  138.8260 C   0  0  0  0  0  3  0  0  0  0  0  0
  186.6130  177.2180  137.0400 C   0  0  0  0  0  0  0  0  0  0  0  0
  185.5690  177.2110  136.0460 N   0  0  0  0  0  1  0  0  0  0  0  0
  186.4540  178.0440  138.0960 C   0  0  0  0  0  3  0  0  0  0  0  0
  187.9820  175.6430  135.8620 C   0  0  0  0  0  0  0  0  0  0  0  0
  187.8070  176.5180  136.8580 C   0  0  0  0  0  0  0  0  0  0  0  0
  187.1220  175.4640  134.9810 O   0  0  0  0  0  0  0  0  0  0  0  0
  192.5360  174.1260  136.5910 C   0  0  0  0  0  2  0  0  0  0  0  0
  193.2910  175.3440  137.2630 C   0  0  1  0  0  3  0  0  0  0  0  0
  192.6350  176.1350  138.1260 C   0  0  0  0  0  2  0  0  0  0  0  0
  190.2070  175.1050  136.5240 C   0  0  0  0  0  0  0  0  0  0  0  0
  191.1960  176.4640  138.1670 C   0  0  0  0  0  3  0  0  0  0  0  0
  190.1380  175.9790  137.5580 C   0  0  0  0  0  0  0  0  0  0  0  0
  194.7740  175.3850  137.1920 N   0  0  0  0  0  0  0  0  0  0  0  0
  195.3070  175.8980  136.2160 O   0  0  0  0  0  0  0  0  0  0  0  0
  195.5450  174.9770  138.3080 O   0  0  0  0  0  0  0  0  0  0  0  0
  186.9910  178.7290  140.2700 O   0  0  0  0  0  0  0  0  0  0  0  0
  186.3010  178.0370  143.8360 C   0  0  0  0  0  3  0  0  0  0  0  0
  188.4580  178.2020  142.0630 C   0  0  0  0  0  3  0  0  0  0  0  0
  189.1200  177.5350  146.1280 C   0  0  0  0  0  0  0  0  0  0  0  0
  187.8300  177.6140  145.6350 C   0  0  0  0  0  3  0  0  0  0  0  0
  187.5970  177.8070  144.2870 C   0  0  0  0  0  0  0  0  0  0  0  0
  190.0080  177.9640  143.8330 C   0  0  0  0  0  3  0  0  0  0  0  0
  188.6790  177.9830  143.4140 C   0  0  0  0  0  0  0  0  0  0  0  0
  190.2430  177.6850  145.2110 C   0  0  0  0  0  3  0  0  0  0  0  0
  187.1540  178.2380  141.5910 C   0  0  0  0  0  0  0  0  0  0  0  0
  186.0780  178.2110  142.4450 C   0  0  0  0  0  3  0  0  0  0  0  0
  189.4500  177.3000  147.5780 C   0  0  0  0  0  0  0  0  0  0  0  0
  190.5890  176.9150  147.8450 O   0  0  0  0  0  0  0  0  0  0  0  0
  188.4030  177.5590  148.5970 O   0  0  0  0  0  1  0  0  0  0  0  0
  1  5  1  0  0  0  0
  2 15  1  0  0  0  0
  2 12  1  0  0  0  0
  3  9  1  0  0  0  0
  3 15  2  0  0  0  0
  4 21  1  0  0  0  0
  5  4  2  0  0  0  0
  6  8  2  0  0  0  0
  7  6  1  0  0  0  0
  8  4  1  0  0  0  0
  9 10  1  0  0  0  0
 10  6  1  0  0  0  0
 10  1  2  0  0  0  0
 11  9  2  0  0  0  0
 12 13  1  0  0  0  0
 13 18  1  1  0  0  0
 13 14  1  0  0  0  0
 14 16  1  0  0  0  0
 15 17  1  0  0  0  0
 17  1  1  0  0  0  0
 17 16  2  0  0  0  0
 18 20  2  0  0  0  0
 19 18  2  0  0  0  0
 21 30  1  0  0  0  0
 22 26  1  0  0  0  0
 23 28  1  0  0  0  0
 24 32  1  0  0  0  0
 25 24  1  0  0  0  0
 26 25  2  0  0  0  0
 27 29  1  0  0  0  0
 28 27  2  0  0  0  0
 28 26  1  0  0  0  0
 29 24  2  0  0  0  0
 30 23  2  0  0  0  0
 30 31  1  0  0  0  0
 31 22  2  0  0  0  0
 32 33  2  0  0  0  0
 32 34  1  0  0  0  0
M  END
>  <MODEL>
8

>  <REMARK>
 VINA RESULT:      -9.7      3.592      8.526
  Name = 
  4 active torsions:
  status: ('A' for Active; 'I' for Inactive)
    1  A    between atoms: N_3  and  C_25
    2  A    between atoms: C_7  and  C_11
    3  A    between atoms: C_8  and  O_18
    4  A    between atoms: O_18  and  C_30
                            x       y       z     vdW  Elec       q    Type
                         _______ _______ _______ _____ _____    ______ ____

>  <TORSDO>
F 4

$$$$
=
 OpenBabel10272415173D

 34 38  0  0  1  0  0  0  0  0999 V2000
  180.8820  179.5920  139.1380 C   0  0  0  0  0  0  0  0  0  0  0  0
  180.6130  180.7310  135.6810 C   0  0  0  0  0  2  0  0  0  0  0  0
  180.5300  178.7790  136.6560 N   0  0  0  0  0  0  0  0  0  0  0  0
  181.1930  178.9860  141.4790 C   0  0  0  0  0  0  0  0  0  0  0  0
  181.1920  179.9350  140.3960 C   0  0  0  0  0  3  0  0  0  0  0  0
  180.5080  177.2960  139.9390 C   0  0  0  0  0  0  0  0  0  0  0  0
  180.0170  175.9560  139.7350 N   0  0  0  0  0  1  0  0  0  0  0  0
  180.7520  177.6750  141.2110 C   0  0  0  0  0  3  0  0  0  0  0  0
  180.4170  177.8690  137.6150 C   0  0  0  0  0  0  0  0  0  0  0  0
  180.5900  178.2180  138.8940 C   0  0  0  0  0  0  0  0  0  0  0  0
  180.0830  176.7180  137.2830 O   0  0  0  0  0  0  0  0  0  0  0  0
  180.9900  182.0950  135.2950 C   0  0  0  0  0  2  0  0  0  0  0  0
  180.5060  183.2110  136.3090 C   0  0  1  0  0  3  0  0  0  0  0  0
  180.7400  183.0570  137.6220 C   0  0  0  0  0  2  0  0  0  0  0  0
  180.7820  180.0810  136.8060 C   0  0  0  0  0  0  0  0  0  0  0  0
  180.8540  181.8080  138.4000 C   0  0  0  0  0  3  0  0  0  0  0  0
  180.9600  180.5410  138.0700 C   0  0  0  0  0  0  0  0  0  0  0  0
  180.1170  184.5390  135.7710 N   0  0  0  0  0  0  0  0  0  0  0  0
  179.9940  185.4800  136.5450 O   0  0  0  0  0  0  0  0  0  0  0  0
  180.0430  184.7370  134.3700 O   0  0  0  0  0  0  0  0  0  0  0  0
  181.7480  179.1070  142.7750 O   0  0  0  0  0  0  0  0  0  0  0  0
  185.2990  178.0880  142.6280 C   0  0  0  0  0  3  0  0  0  0  0  0
  183.3830  178.9230  144.4880 C   0  0  0  0  0  3  0  0  0  0  0  0
  187.1940  177.7880  145.7540 C   0  0  0  0  0  0  0  0  0  0  0  0
  186.8860  177.8160  144.4070 C   0  0  0  0  0  3  0  0  0  0  0  0
  185.6370  178.2150  143.9730 C   0  0  0  0  0  0  0  0  0  0  0  0
  184.8590  178.5000  146.2870 C   0  0  0  0  0  3  0  0  0  0  0  0
  184.6480  178.5450  144.9100 C   0  0  0  0  0  0  0  0  0  0  0  0
  186.1730  178.1630  146.7250 C   0  0  0  0  0  3  0  0  0  0  0  0
  183.1150  178.9790  143.1280 C   0  0  0  0  0  0  0  0  0  0  0  0
  184.0190  178.5250  142.1970 C   0  0  0  0  0  3  0  0  0  0  0  0
  188.5390  177.3890  146.2990 C   0  0  0  0  0  0  0  0  0  0  0  0
  188.5940  177.0520  147.4820 O   0  0  0  0  0  1  0  0  0  0  0  0
  189.7090  177.4060  145.3870 O   0  0  0  0  0  0  0  0  0  0  0  0
  1  5  1  0  0  0  0
  2 15  1  0  0  0  0
  3 15  2  0  0  0  0
  3  9  1  0  0  0  0
  4 21  1  0  0  0  0
  5  4  2  0  0  0  0
  6  8  2  0  0  0  0
  7  6  1  0  0  0  0
  8  4  1  0  0  0  0
  9 10  1  0  0  0  0
 10  1  2  0  0  0  0
 10  6  1  0  0  0  0
 11  9  2  0  0  0  0
 12  2  1  0  0  0  0
 12 13  1  0  0  0  0
 13 18  1  6  0  0  0
 13 14  1  0  0  0  0
 14 16  1  0  0  0  0
 15 17  1  0  0  0  0
 17 16  2  0  0  0  0
 17  1  1  0  0  0  0
 18 19  2  0  0  0  0
 20 18  2  0  0  0  0
 21 30  1  0  0  0  0
 22 26  1  0  0  0  0
 23 28  1  0  0  0  0
 24 32  1  0  0  0  0
 24 29  1  0  0  0  0
 25 24  2  0  0  0  0
 26 25  1  0  0  0  0
 26 28  2  0  0  0  0
 27 29  2  0  0  0  0
 28 27  1  0  0  0  0
 30 23  2  0  0  0  0
 31 22  2  0  0  0  0
 31 30  1  0  0  0  0
 32 33  1  0  0  0  0
 34 32  2  0  0  0  0
M  END
>  <MODEL>
9

>  <REMARK>
 VINA RESULT:      -9.7      5.928     10.867
  Name = 
  4 active torsions:
  status: ('A' for Active; 'I' for Inactive)
    1  A    between atoms: N_3  and  C_25
    2  A    between atoms: C_7  and  C_11
    3  A    between atoms: C_8  and  O_18
    4  A    between atoms: O_18  and  C_30
                            x       y       z     vdW  Elec       q    Type
                         _______ _______ _______ _____ _____    ______ ____

>  <TORSDO>
F 4

$$$$
