=
 OpenBabel10272414493D

 37 41  0  0  1  0  0  0  0  0999 V2000
  188.5050  176.5130  137.0370 C   0  0  1  0  0  0  0  0  0  0  0  0
  184.5120  176.2080  136.4790 S   0  0  0  0  0  0  0  0  0  0  0  0
  184.8000  179.0440  139.2710 C   0  0  0  0  0  3  0  0  0  0  0  0
  189.7940  177.1290  136.4580 C   0  0  1  0  0  3  0  0  0  0  0  0
  189.0000  176.7880  141.2570 C   0  0  0  0  0  3  0  0  0  0  0  0
  183.1590  176.4960  138.7610 C   0  0  0  0  0  3  0  0  0  0  0  0
  189.4580  178.3650  139.5550 O   0  0  0  0  0  1  0  0  0  0  0  0
  191.9560  177.0770  138.9970 O   0  0  0  0  0  1  0  0  0  0  0  0
  184.5420  178.4610  138.1000 C   0  0  0  0  0  3  0  0  0  0  0  0
  187.1240  177.8960  142.3020 N   0  0  0  0  0  2  0  0  0  0  0  0
  182.6130  177.0580  140.0130 C   0  0  0  0  0  3  0  0  0  0  0  0
  191.0450  176.3280  136.8630 C   0  0  2  0  0  3  0  0  0  0  0  0
  187.2060  176.6140  136.2360 C   0  0  1  0  0  3  0  0  0  0  0  0
  184.4240  177.1200  135.2870 O   0  0  0  0  0  0  0  0  0  0  0  0
  185.1530  179.1960  141.7190 C   0  0  0  0  0  2  0  0  0  0  0  0
  183.2590  177.9020  140.8170 C   0  0  0  0  0  3  0  0  0  0  0  0
  186.1730  175.5790  136.6670 C   0  0  0  0  0  2  0  0  0  0  0  0
  191.1550  176.1040  138.3860 C   0  0  2  0  0  3  0  0  0  0  0  0
  189.4100  177.0520  140.0190 C   0  0  0  0  0  0  0  0  0  0  0  0
  184.6700  178.3230  140.5750 C   0  0  1  0  0  3  0  0  0  0  0  0
  188.6470  175.5170  138.1930 C   0  0  0  0  0  2  0  0  0  0  0  0
  184.0390  177.0800  137.9310 C   0  0  0  0  0  0  0  0  0  0  0  0
  188.5750  177.8710  142.1990 C   0  0  1  0  0  3  0  0  0  0  0  0
  183.5780  175.0500  136.2630 O   0  0  0  0  0  0  0  0  0  0  0  0
  189.8010  175.9110  139.1240 C   0  0  1  0  0  3  0  0  0  0  0  0
  192.2010  176.9250  136.3560 O   0  0  0  0  0  1  0  0  0  0  0  0
  187.4910  177.5880  137.3620 C   0  0  0  0  0  2  0  0  0  0  0  0
  186.6720  179.1830  141.8020 C   0  0  0  0  0  2  0  0  0  0  0  0
  190.5980  177.5920  143.6960 C   0  0  0  0  0  3  0  0  0  0  0  0
  189.2040  177.6580  143.5410 C   0  0  0  0  0  0  0  0  0  0  0  0
  188.3820  177.5820  144.6710 C   0  0  0  0  0  3  0  0  0  0  0  0
  188.1220  177.3430  147.0590 O   0  0  0  0  0  1  0  0  0  0  0  0
  190.3310  177.3440  146.0890 C   0  0  0  0  0  3  0  0  0  0  0  0
  188.9440  177.4230  145.9410 C   0  0  0  0  0  0  0  0  0  0  0  0
  191.1580  177.4290  144.9670 C   0  0  0  0  0  3  0  0  0  0  0  0
  189.9120  176.2270  134.3460 C   0  0  0  0  0  1  0  0  0  0  0  0
  189.7240  177.4150  135.0720 O   0  0  0  0  0  0  0  0  0  0  0  0
  1 27  1  1  0  0  0
  1 21  1  0  0  0  0
  2 17  1  0  0  0  0
  2 22  1  0  0  0  0
  4 37  1  6  0  0  0
  4 12  1  0  0  0  0
  4  1  1  0  0  0  0
  5 23  1  0  0  0  0
  6 11  1  0  0  0  0
  7 19  1  0  0  0  0
  9  3  2  0  0  0  0
 11 16  2  0  0  0  0
 12 26  1  1  0  0  0
 12 18  1  0  0  0  0
 13 17  1  1  0  0  0
 13  1  1  0  0  0  0
 13 27  1  0  0  0  0
 14  2  2  0  0  0  0
 15 28  1  0  0  0  0
 18  8  1  1  0  0  0
 18 25  1  0  0  0  0
 19  5  2  0  0  0  0
 20  3  1  6  0  0  0
 20 16  1  0  0  0  0
 20 15  1  0  0  0  0
 22  9  1  0  0  0  0
 22  6  2  0  0  0  0
 23 10  1  0  0  0  0
 23 30  1  1  0  0  0
 24  2  2  0  0  0  0
 25 21  1  6  0  0  0
 25 19  1  0  0  0  0
 28 10  1  0  0  0  0
 29 35  1  0  0  0  0
 30 29  2  0  0  0  0
 30 31  1  0  0  0  0
 31 34  2  0  0  0  0
 34 33  1  0  0  0  0
 34 32  1  0  0  0  0
 35 33  2  0  0  0  0
 36 37  1  0  0  0  0
M  END
>  <MODEL>
1

>  <REMARK>
 VINA RESULT:      -7.9      0.000      0.000
  Name = 
  2 active torsions:
  status: ('A' for Active; 'I' for Inactive)
    1  A    between atoms: C_5  and  O_23
    2  A    between atoms: C_6  and  C_31
                            x       y       z     vdW  Elec       q    Type
                         _______ _______ _______ _____ _____    ______ ____

>  <TORSDO>
F 2

$$$$
=
 OpenBabel10272414493D

 37 41  0  0  1  0  0  0  0  0999 V2000
  188.4840  176.5690  137.2890 C   0  0  1  0  0  0  0  0  0  0  0  0
  184.5630  176.0880  136.4240 S   0  0  0  0  0  0  0  0  0  0  0  0
  184.5100  178.9580  139.1960 C   0  0  0  0  0  3  0  0  0  0  0  0
  189.7870  177.2350  136.8060 C   0  0  1  0  0  3  0  0  0  0  0  0
  188.6320  176.9030  141.5320 C   0  0  0  0  0  3  0  0  0  0  0  0
  183.0240  176.3370  138.5890 C   0  0  0  0  0  3  0  0  0  0  0  0
  189.1560  178.4830  139.8520 O   0  0  0  0  0  1  0  0  0  0  0  0
  191.7420  177.2990  139.5070 O   0  0  0  0  0  1  0  0  0  0  0  0
  184.3700  178.3540  138.0160 C   0  0  0  0  0  3  0  0  0  0  0  0
  186.6340  177.9370  142.4130 N   0  0  0  0  0  2  0  0  0  0  0  0
  182.3570  176.8850  139.7880 C   0  0  0  0  0  3  0  0  0  0  0  0
  191.0340  176.4930  137.3170 C   0  0  2  0  0  3  0  0  0  0  0  0
  187.2490  176.6080  136.3880 C   0  0  1  0  0  3  0  0  0  0  0  0
  184.5310  176.9840  135.2180 O   0  0  0  0  0  0  0  0  0  0  0  0
  184.6620  179.1460  141.6620 C   0  0  0  0  0  2  0  0  0  0  0  0
  182.9010  177.7640  140.6300 C   0  0  0  0  0  3  0  0  0  0  0  0
  186.2290  175.5330  136.7490 C   0  0  0  0  0  2  0  0  0  0  0  0
  191.0340  176.2870  138.8470 C   0  0  2  0  0  3  0  0  0  0  0  0
  189.1260  177.1730  140.3270 C   0  0  0  0  0  0  0  0  0  0  0  0
  184.3080  178.2430  140.4940 C   0  0  1  0  0  3  0  0  0  0  0  0
  188.5760  175.5900  138.4650 C   0  0  0  0  0  2  0  0  0  0  0  0
  183.9410  176.9510  137.8240 C   0  0  0  0  0  0  0  0  0  0  0  0
  188.0890  177.9740  142.4240 C   0  0  1  0  0  3  0  0  0  0  0  0
  183.6990  174.8880  136.1490 O   0  0  0  0  0  0  0  0  0  0  0  0
  189.6350  176.0430  139.4790 C   0  0  1  0  0  3  0  0  0  0  0  0
  192.2010  177.1340  136.8960 O   0  0  0  0  0  1  0  0  0  0  0  0
  187.4020  177.6020  137.5210 C   0  0  0  0  0  2  0  0  0  0  0  0
  186.1690  179.1990  141.8640 C   0  0  0  0  0  2  0  0  0  0  0  0
  187.7590  177.6600  144.9150 C   0  0  0  0  0  3  0  0  0  0  0  0
  188.6190  177.8000  143.8140 C   0  0  0  0  0  0  0  0  0  0  0  0
  190.0030  177.7210  144.0080 C   0  0  0  0  0  3  0  0  0  0  0  0
  191.8990  177.4460  145.4760 O   0  0  0  0  0  1  0  0  0  0  0  0
  189.6640  177.3950  146.3840 C   0  0  0  0  0  3  0  0  0  0  0  0
  190.5240  177.5210  145.2890 C   0  0  0  0  0  0  0  0  0  0  0  0
  188.2810  177.4640  146.1970 C   0  0  0  0  0  3  0  0  0  0  0  0
  190.1100  176.3210  134.7210 C   0  0  0  0  0  1  0  0  0  0  0  0
  189.8140  177.5060  135.4160 O   0  0  0  0  0  0  0  0  0  0  0  0
  1 27  1  1  0  0  0
  1 21  1  0  0  0  0
  2 17  1  0  0  0  0
  2 22  1  0  0  0  0
  4 37  1  6  0  0  0
  4  1  1  0  0  0  0
  4 12  1  0  0  0  0
  5 23  1  0  0  0  0
  6 11  1  0  0  0  0
  7 19  1  0  0  0  0
  9  3  2  0  0  0  0
 10 23  1  0  0  0  0
 11 16  2  0  0  0  0
 12 26  1  1  0  0  0
 12 18  1  0  0  0  0
 13 17  1  1  0  0  0
 13  1  1  0  0  0  0
 13 27  1  0  0  0  0
 14  2  2  0  0  0  0
 15 28  1  0  0  0  0
 18 25  1  0  0  0  0
 18  8  1  1  0  0  0
 19  5  2  0  0  0  0
 20  3  1  6  0  0  0
 20 16  1  0  0  0  0
 20 15  1  0  0  0  0
 22  9  1  0  0  0  0
 22  6  2  0  0  0  0
 23 30  1  1  0  0  0
 24  2  2  0  0  0  0
 25 21  1  6  0  0  0
 25 19  1  0  0  0  0
 28 10  1  0  0  0  0
 29 35  1  0  0  0  0
 30 31  1  0  0  0  0
 30 29  2  0  0  0  0
 31 34  2  0  0  0  0
 34 32  1  0  0  0  0
 34 33  1  0  0  0  0
 35 33  2  0  0  0  0
 36 37  1  0  0  0  0
M  END
>  <MODEL>
2

>  <REMARK>
 VINA RESULT:      -7.8      0.809      1.135
  Name = 
  2 active torsions:
  status: ('A' for Active; 'I' for Inactive)
    1  A    between atoms: C_5  and  O_23
    2  A    between atoms: C_6  and  C_31
                            x       y       z     vdW  Elec       q    Type
                         _______ _______ _______ _____ _____    ______ ____

>  <TORSDO>
F 2

$$$$
=
 OpenBabel10272414493D

 37 41  0  0  1  0  0  0  0  0999 V2000
  190.4100  176.9830  140.1710 C   0  0  1  0  0  0  0  0  0  0  0  0
  189.3060  175.4910  136.5780 S   0  0  0  0  0  0  0  0  0  0  0  0
  186.7190  178.4800  137.1270 C   0  0  0  0  0  3  0  0  0  0  0  0
  191.4290  177.9050  140.8690 C   0  0  1  0  0  3  0  0  0  0  0  0
  186.7510  177.6910  142.2310 C   0  0  0  0  0  3  0  0  0  0  0  0
  186.6580  175.5350  136.2490 C   0  0  0  0  0  3  0  0  0  0  0  0
  188.4000  179.2070  141.4720 O   0  0  0  0  0  1  0  0  0  0  0  0
  190.0010  178.6660  143.7860 O   0  0  0  0  0  1  0  0  0  0  0  0
  187.7130  177.7650  136.6000 C   0  0  0  0  0  3  0  0  0  0  0  0
  184.9710  178.2760  140.7060 N   0  0  0  0  0  2  0  0  0  0  0  0
  185.2630  176.0000  136.1200 C   0  0  0  0  0  3  0  0  0  0  0  0
  191.6160  177.5340  142.3510 C   0  0  2  0  0  3  0  0  0  0  0  0
  190.6040  176.6460  138.6920 C   0  0  1  0  0  3  0  0  0  0  0  0
  190.3050  176.2510  135.7500 O   0  0  0  0  0  0  0  0  0  0  0  0
  184.6240  178.9010  138.3810 C   0  0  0  0  0  2  0  0  0  0  0  0
  184.7460  177.0520  136.7570 C   0  0  0  0  0  3  0  0  0  0  0  0
  189.8480  175.3880  138.2770 C   0  0  0  0  0  2  0  0  0  0  0  0
  190.2860  177.4610  143.1310 C   0  0  2  0  0  3  0  0  0  0  0  0
  188.0310  177.9740  142.0050 C   0  0  0  0  0  0  0  0  0  0  0  0
  185.5190  177.8460  137.7550 C   0  0  1  0  0  3  0  0  0  0  0  0
  189.4710  176.1570  141.0560 C   0  0  0  0  0  2  0  0  0  0  0  0
  187.7410  176.2890  136.5020 C   0  0  0  0  0  0  0  0  0  0  0  0
  185.6590  178.6670  141.9270 C   0  0  1  0  0  3  0  0  0  0  0  0
  189.1870  174.0990  136.0240 O   0  0  0  0  0  0  0  0  0  0  0  0
  189.0710  176.9360  142.3160 C   0  0  1  0  0  3  0  0  0  0  0  0
  192.5160  178.4040  142.9710 O   0  0  0  0  0  1  0  0  0  0  0  0
  189.6390  177.7370  139.1090 C   0  0  0  0  0  2  0  0  0  0  0  0
  185.1690  179.3370  139.7330 C   0  0  0  0  0  2  0  0  0  0  0  0
  183.3150  178.7540  142.8810 C   0  0  0  0  0  3  0  0  0  0  0  0
  184.7050  178.7430  143.0780 C   0  0  0  0  0  0  0  0  0  0  0  0
  185.2130  178.7470  144.3830 C   0  0  0  0  0  3  0  0  0  0  0  0
  184.8570  178.7850  146.7700 O   0  0  0  0  0  1  0  0  0  0  0  0
  182.9630  178.8020  145.2740 C   0  0  0  0  0  3  0  0  0  0  0  0
  184.3450  178.7780  145.4770 C   0  0  0  0  0  0  0  0  0  0  0  0
  182.4470  178.7890  143.9760 C   0  0  0  0  0  3  0  0  0  0  0  0
  193.4350  176.9100  140.3450 C   0  0  0  0  0  1  0  0  0  0  0  0
  192.6470  178.0590  140.1620 O   0  0  0  0  0  0  0  0  0  0  0  0
  1 27  1  6  0  0  0
  1  4  1  0  0  0  0
  1 21  1  0  0  0  0
  2 17  1  0  0  0  0
  3 20  1  0  0  0  0
  4 37  1  6  0  0  0
  4 12  1  0  0  0  0
  6 22  2  0  0  0  0
  7 19  1  0  0  0  0
  9  3  2  0  0  0  0
 10 23  1  0  0  0  0
 11  6  1  0  0  0  0
 11 16  2  0  0  0  0
 12 26  1  1  0  0  0
 12 18  1  0  0  0  0
 13 17  1  1  0  0  0
 13 27  1  0  0  0  0
 13  1  1  0  0  0  0
 14  2  2  0  0  0  0
 15 28  1  0  0  0  0
 18  8  1  6  0  0  0
 19  5  2  0  0  0  0
 19 25  1  0  0  0  0
 20 16  1  6  0  0  0
 20 15  1  0  0  0  0
 22  2  1  0  0  0  0
 22  9  1  0  0  0  0
 23  5  1  0  0  0  0
 23 30  1  1  0  0  0
 24  2  2  0  0  0  0
 25 21  1  6  0  0  0
 25 18  1  0  0  0  0
 28 10  1  0  0  0  0
 29 30  2  0  0  0  0
 29 35  1  0  0  0  0
 30 31  1  0  0  0  0
 31 34  2  0  0  0  0
 33 34  1  0  0  0  0
 34 32  1  0  0  0  0
 35 33  2  0  0  0  0
 37 36  1  0  0  0  0
M  END
>  <MODEL>
3

>  <REMARK>
 VINA RESULT:      -7.2      2.368      4.733
  Name = 
  2 active torsions:
  status: ('A' for Active; 'I' for Inactive)
    1  A    between atoms: C_5  and  O_23
    2  A    between atoms: C_6  and  C_31
                            x       y       z     vdW  Elec       q    Type
                         _______ _______ _______ _____ _____    ______ ____

>  <TORSDO>
F 2

$$$$
=
 OpenBabel10272414493D

 37 41  0  0  1  0  0  0  0  0999 V2000
  187.3280  176.4880  136.6370 C   0  0  1  0  0  0  0  0  0  0  0  0
  183.3280  176.3370  137.2130 S   0  0  0  0  0  0  0  0  0  0  0  0
  184.4820  179.1740  139.7700 C   0  0  0  0  0  3  0  0  0  0  0  0
  188.4260  177.0510  135.7130 C   0  0  1  0  0  3  0  0  0  0  0  0
  188.9840  176.7670  140.5500 C   0  0  0  0  0  3  0  0  0  0  0  0
  182.6730  176.6890  139.7750 C   0  0  0  0  0  3  0  0  0  0  0  0
  189.0080  178.3160  138.7620 O   0  0  0  0  0  1  0  0  0  0  0  0
  191.2050  176.9280  137.5540 O   0  0  0  0  0  1  0  0  0  0  0  0
  183.8880  178.5950  138.7260 C   0  0  0  0  0  3  0  0  0  0  0  0
  187.5140  177.9530  142.0560 N   0  0  0  0  0  2  0  0  0  0  0  0
  182.5170  177.2780  141.1210 C   0  0  0  0  0  3  0  0  0  0  0  0
  189.7110  176.2040  135.7690 C   0  0  2  0  0  3  0  0  0  0  0  0
  185.8620  176.6360  136.2260 C   0  0  1  0  0  3  0  0  0  0  0  0
  182.9460  177.2450  136.0770 O   0  0  0  0  0  0  0  0  0  0  0  0
  185.5060  179.3250  142.0220 C   0  0  0  0  0  2  0  0  0  0  0  0
  183.3910  178.1010  141.7010 C   0  0  0  0  0  3  0  0  0  0  0  0
  184.9520  175.6450  136.9430 C   0  0  0  0  0  2  0  0  0  0  0  0
  190.2310  175.9840  137.2040 C   0  0  2  0  0  3  0  0  0  0  0  0
  189.0430  177.0080  139.2430 C   0  0  0  0  0  0  0  0  0  0  0  0
  184.6930  178.4660  141.0700 C   0  0  1  0  0  3  0  0  0  0  0  0
  187.7490  175.4940  137.7240 C   0  0  0  0  0  2  0  0  0  0  0  0
  183.3090  177.2340  138.7250 C   0  0  0  0  0  0  0  0  0  0  0  0
  188.8770  177.8700  141.5540 C   0  0  1  0  0  3  0  0  0  0  0  0
  182.3300  175.2150  137.2820 O   0  0  0  0  0  0  0  0  0  0  0  0
  189.1290  175.8480  138.2920 C   0  0  1  0  0  3  0  0  0  0  0  0
  190.7020  176.7530  134.9520 O   0  0  0  0  0  1  0  0  0  0  0  0
  186.4830  177.6040  137.2130 C   0  0  0  0  0  2  0  0  0  0  0  0
  186.9870  179.2540  141.6800 C   0  0  0  0  0  2  0  0  0  0  0  0
  190.1110  178.6330  143.6300 C   0  0  0  0  0  3  0  0  0  0  0  0
  189.8460  177.6400  142.6730 C   0  0  0  0  0  0  0  0  0  0  0  0
  190.4570  176.3870  142.7960 C   0  0  0  0  0  3  0  0  0  0  0  0
  191.9410  174.8860  143.9660 O   0  0  0  0  0  1  0  0  0  0  0  0
  191.6060  177.1280  144.7950 C   0  0  0  0  0  3  0  0  0  0  0  0
  191.3360  176.1320  143.8520 C   0  0  0  0  0  0  0  0  0  0  0  0
  190.9920  178.3780  144.6840 C   0  0  0  0  0  3  0  0  0  0  0  0
  187.4940  178.6470  134.3470 C   0  0  0  0  0  1  0  0  0  0  0  0
  187.9850  177.3320  134.3970 O   0  0  0  0  0  0  0  0  0  0  0  0
  1 27  1  1  0  0  0
  1 21  1  0  0  0  0
  2 24  2  0  0  0  0
  2 22  1  0  0  0  0
  4 37  1  6  0  0  0
  4 12  1  0  0  0  0
  4  1  1  0  0  0  0
  5 23  1  0  0  0  0
  6 11  1  0  0  0  0
  7 19  1  0  0  0  0
  9  3  2  0  0  0  0
 11 16  2  0  0  0  0
 12 26  1  6  0  0  0
 12 18  1  0  0  0  0
 13  1  1  0  0  0  0
 13 17  1  1  0  0  0
 13 27  1  0  0  0  0
 14  2  2  0  0  0  0
 17  2  1  0  0  0  0
 18  8  1  1  0  0  0
 18 25  1  0  0  0  0
 19  5  2  0  0  0  0
 20  3  1  6  0  0  0
 20 16  1  0  0  0  0
 20 15  1  0  0  0  0
 22  9  1  0  0  0  0
 22  6  2  0  0  0  0
 23 10  1  0  0  0  0
 23 30  1  1  0  0  0
 25 21  1  6  0  0  0
 25 19  1  0  0  0  0
 28 15  1  0  0  0  0
 28 10  1  0  0  0  0
 29 35  1  0  0  0  0
 30 31  1  0  0  0  0
 30 29  2  0  0  0  0
 31 34  2  0  0  0  0
 34 32  1  0  0  0  0
 34 33  1  0  0  0  0
 35 33  2  0  0  0  0
 36 37  1  0  0  0  0
M  END
>  <MODEL>
4

>  <REMARK>
 VINA RESULT:      -7.0      1.485      1.745
  Name = 
  2 active torsions:
  status: ('A' for Active; 'I' for Inactive)
    1  A    between atoms: C_5  and  O_23
    2  A    between atoms: C_6  and  C_31
                            x       y       z     vdW  Elec       q    Type
                         _______ _______ _______ _____ _____    ______ ____

>  <TORSDO>
F 2

$$$$
=
 OpenBabel10272414493D

 37 41  0  0  1  0  0  0  0  0999 V2000
  183.4840  178.3750  139.3510 C   0  0  1  0  0  0  0  0  0  0  0  0
  185.0470  178.6670  143.0690 S   0  0  0  0  0  0  0  0  0  0  0  0
  188.2890  178.7120  140.7420 C   0  0  0  0  0  3  0  0  0  0  0  0
  182.8160  179.1830  138.2210 C   0  0  1  0  0  3  0  0  0  0  0  0
  185.9910  175.5910  137.3280 C   0  0  0  0  0  3  0  0  0  0  0  0
  187.3310  177.3070  143.3020 C   0  0  0  0  0  3  0  0  0  0  0  0
  185.6300  177.8950  136.9330 O   0  0  0  0  0  1  0  0  0  0  0  0
  183.2220  177.2990  135.4980 O   0  0  0  0  0  1  0  0  0  0  0  0
  187.3580  179.1280  141.6010 C   0  0  0  0  0  3  0  0  0  0  0  0
  188.2680  175.6990  138.1290 N   0  0  0  0  0  2  0  0  0  0  0  0
  188.7190  176.8420  143.1080 C   0  0  0  0  0  3  0  0  0  0  0  0
  181.9410  178.2930  137.3200 C   0  0  2  0  0  3  0  0  0  0  0  0
  183.7280  179.0480  140.7030 C   0  0  1  0  0  3  0  0  0  0  0  0
  184.8940  180.1550  143.2150 O   0  0  0  0  0  0  0  0  0  0  0  0
  189.7030  177.0890  139.5150 C   0  0  0  0  0  2  0  0  0  0  0  0
  189.3750  176.8580  141.9470 C   0  0  0  0  0  3  0  0  0  0  0  0
  183.9250  178.0400  141.8290 C   0  0  0  0  0  2  0  0  0  0  0  0
  182.6910  177.0610  136.7720 C   0  0  2  0  0  3  0  0  0  0  0  0
  185.1690  176.6370  137.3160 C   0  0  0  0  0  0  0  0  0  0  0  0
  188.7360  177.2870  140.6690 C   0  0  1  0  0  3  0  0  0  0  0  0
  183.5370  176.8510  139.2040 C   0  0  0  0  0  2  0  0  0  0  0  0
  186.7030  178.2800  142.6210 C   0  0  0  0  0  0  0  0  0  0  0  0
  187.4310  175.7110  136.9390 C   0  0  1  0  0  3  0  0  0  0  0  0
  184.7200  178.0220  144.3870 O   0  0  0  0  0  0  0  0  0  0  0  0
  183.7410  176.4440  137.7390 C   0  0  1  0  0  3  0  0  0  0  0  0
  181.3760  179.0400  136.2840 O   0  0  0  0  0  1  0  0  0  0  0  0
  184.8470  178.9410  139.6860 C   0  0  0  0  0  2  0  0  0  0  0  0
  188.9530  176.9780  138.1960 C   0  0  0  0  0  2  0  0  0  0  0  0
  188.9330  174.6850  135.1780 C   0  0  0  0  0  3  0  0  0  0  0  0
  187.8050  174.5990  136.0090 C   0  0  0  0  0  0  0  0  0  0  0  0
  187.0430  173.4250  136.0130 C   0  0  0  0  0  3  0  0  0  0  0  0
  186.6290  171.1940  135.1900 O   0  0  0  0  0  1  0  0  0  0  0  0
  188.5080  172.4520  134.3480 C   0  0  0  0  0  3  0  0  0  0  0  0
  187.3920  172.3550  135.1840 C   0  0  0  0  0  0  0  0  0  0  0  0
  189.2790  173.6160  134.3460 C   0  0  0  0  0  3  0  0  0  0  0  0
  180.9420  180.0180  139.2580 C   0  0  0  0  0  1  0  0  0  0  0  0
  182.1660  180.3620  138.6610 O   0  0  0  0  0  0  0  0  0  0  0  0
  1 21  1  6  0  0  0
  1 27  1  0  0  0  0
  1 13  1  0  0  0  0
  2 14  2  0  0  0  0
  2 24  2  0  0  0  0
  3  9  2  0  0  0  0
  4 37  1  1  0  0  0
  4  1  1  0  0  0  0
  7 19  1  0  0  0  0
  9 22  1  0  0  0  0
 10 28  1  0  0  0  0
 11  6  1  0  0  0  0
 12 26  1  6  0  0  0
 12  4  1  0  0  0  0
 13 27  1  6  0  0  0
 13 17  1  0  0  0  0
 16 11  2  0  0  0  0
 17  2  1  0  0  0  0
 18  8  1  6  0  0  0
 18 12  1  0  0  0  0
 18 25  1  0  0  0  0
 19  5  2  0  0  0  0
 19 25  1  0  0  0  0
 20 15  1  6  0  0  0
 20  3  1  0  0  0  0
 20 16  1  0  0  0  0
 22  2  1  0  0  0  0
 22  6  2  0  0  0  0
 23 30  1  6  0  0  0
 23  5  1  0  0  0  0
 23 10  1  0  0  0  0
 25 21  1  1  0  0  0
 28 15  1  0  0  0  0
 29 30  1  0  0  0  0
 30 31  2  0  0  0  0
 33 34  2  0  0  0  0
 34 32  1  0  0  0  0
 34 31  1  0  0  0  0
 35 33  1  0  0  0  0
 35 29  2  0  0  0  0
 37 36  1  0  0  0  0
M  END
>  <MODEL>
5

>  <REMARK>
 VINA RESULT:      -6.6      2.910      7.841
  Name = 
  2 active torsions:
  status: ('A' for Active; 'I' for Inactive)
    1  A    between atoms: C_5  and  O_23
    2  A    between atoms: C_6  and  C_31
                            x       y       z     vdW  Elec       q    Type
                         _______ _______ _______ _____ _____    ______ ____

>  <TORSDO>
F 2

$$$$
=
 OpenBabel10272414493D

 37 41  0  0  1  0  0  0  0  0999 V2000
  189.1580  177.5380  142.8040 C   0  0  1  0  0  0  0  0  0  0  0  0
  190.7040  176.3980  139.2450 S   0  0  0  0  0  0  0  0  0  0  0  0
  187.9220  179.0570  138.1890 C   0  0  0  0  0  3  0  0  0  0  0  0
  189.3920  178.4550  144.0200 C   0  0  1  0  0  3  0  0  0  0  0  0
  184.9480  177.6640  142.1750 C   0  0  0  0  0  3  0  0  0  0  0  0
  188.8360  176.2460  137.3470 C   0  0  0  0  0  3  0  0  0  0  0  0
  186.4760  179.4010  142.6650 O   0  0  0  0  0  1  0  0  0  0  0  0
  186.3900  178.7280  145.4490 O   0  0  0  0  0  1  0  0  0  0  0  0
  189.1220  178.5020  138.3650 C   0  0  0  0  0  3  0  0  0  0  0  0
  184.4070  178.2680  139.8990 N   0  0  0  0  0  2  0  0  0  0  0  0
  187.7600  176.5980  136.3980 C   0  0  0  0  0  3  0  0  0  0  0  0
  188.6870  177.9260  145.2820 C   0  0  2  0  0  3  0  0  0  0  0  0
  190.2600  177.3990  141.7530 C   0  0  1  0  0  3  0  0  0  0  0  0
  191.8780  177.3380  139.2470 O   0  0  0  0  0  0  0  0  0  0  0  0
  185.4640  179.1370  137.8880 C   0  0  0  0  0  2  0  0  0  0  0  0
  186.8170  177.5150  136.6180 C   0  0  0  0  0  3  0  0  0  0  0  0
  190.1060  176.1390  140.9080 C   0  0  0  0  0  2  0  0  0  0  0  0
  187.1860  177.6410  145.0640 C   0  0  2  0  0  3  0  0  0  0  0  0
  186.0420  178.0840  142.8040 C   0  0  0  0  0  0  0  0  0  0  0  0
  186.6950  178.2480  137.9110 C   0  0  1  0  0  3  0  0  0  0  0  0
  188.0060  176.5300  142.8810 C   0  0  0  0  0  2  0  0  0  0  0  0
  189.4160  177.0570  138.2470 C   0  0  0  0  0  0  0  0  0  0  0  0
  184.1410  178.5680  141.2980 C   0  0  1  0  0  3  0  0  0  0  0  0
  191.1510  175.0780  138.6820 O   0  0  0  0  0  0  0  0  0  0  0  0
  186.8130  177.1120  143.6510 C   0  0  1  0  0  3  0  0  0  0  0  0
  188.8850  178.7900  146.3600 O   0  0  0  0  0  1  0  0  0  0  0  0
  189.0960  178.3430  141.5240 C   0  0  0  0  0  2  0  0  0  0  0  0
  185.0020  179.4520  139.3030 C   0  0  0  0  0  2  0  0  0  0  0  0
  181.7870  177.8680  140.6830 C   0  0  0  0  0  3  0  0  0  0  0  0
  182.6850  178.4200  141.6110 C   0  0  0  0  0  0  0  0  0  0  0  0
  182.2210  178.7890  142.8790 C   0  0  0  0  0  3  0  0  0  0  0  0
  180.4200  178.9970  144.4720 O   0  0  0  0  0  1  0  0  0  0  0  0
  179.9820  178.0880  142.2800 C   0  0  0  0  0  3  0  0  0  0  0  0
  180.8740  178.6250  143.2120 C   0  0  0  0  0  0  0  0  0  0  0  0
  180.4390  177.7080  141.0160 C   0  0  0  0  0  3  0  0  0  0  0  0
  191.4450  177.6750  144.7010 C   0  0  0  0  0  1  0  0  0  0  0  0
  190.7500  178.8000  144.2290 O   0  0  0  0  0  0  0  0  0  0  0  0
  1 27  1  6  0  0  0
  1 21  1  0  0  0  0
  1  4  1  0  0  0  0
  2 14  2  0  0  0  0
  2 17  1  0  0  0  0
  3  9  2  0  0  0  0
  4 37  1  1  0  0  0
  4 12  1  0  0  0  0
  5 19  2  0  0  0  0
  6 22  2  0  0  0  0
  7 19  1  0  0  0  0
 10 23  1  0  0  0  0
 11 16  2  0  0  0  0
 11  6  1  0  0  0  0
 12 26  1  1  0  0  0
 13 17  1  6  0  0  0
 13  1  1  0  0  0  0
 15 20  1  0  0  0  0
 15 28  1  0  0  0  0
 18 12  1  0  0  0  0
 18  8  1  6  0  0  0
 19 25  1  0  0  0  0
 20 16  1  6  0  0  0
 20  3  1  0  0  0  0
 22  9  1  0  0  0  0
 22  2  1  0  0  0  0
 23 30  1  1  0  0  0
 23  5  1  0  0  0  0
 24  2  2  0  0  0  0
 25 21  1  6  0  0  0
 25 18  1  0  0  0  0
 27 13  1  0  0  0  0
 28 10  1  0  0  0  0
 29 35  2  0  0  0  0
 29 30  1  0  0  0  0
 30 31  2  0  0  0  0
 31 34  1  0  0  0  0
 33 34  2  0  0  0  0
 34 32  1  0  0  0  0
 35 33  1  0  0  0  0
 37 36  1  0  0  0  0
M  END
>  <MODEL>
6

>  <REMARK>
 VINA RESULT:      -6.5      2.787      7.009
  Name = 
  2 active torsions:
  status: ('A' for Active; 'I' for Inactive)
    1  A    between atoms: C_5  and  O_23
    2  A    between atoms: C_6  and  C_31
                            x       y       z     vdW  Elec       q    Type
                         _______ _______ _______ _____ _____    ______ ____

>  <TORSDO>
F 2

$$$$
=
 OpenBabel10272414493D

 37 41  0  0  1  0  0  0  0  0999 V2000
  189.8850  176.6520  139.2300 C   0  0  1  0  0  0  0  0  0  0  0  0
  187.3350  175.3630  136.3680 S   0  0  0  0  0  0  0  0  0  0  0  0
  185.3380  178.3900  138.0320 C   0  0  0  0  0  3  0  0  0  0  0  0
  191.1400  177.5110  139.4760 C   0  0  1  0  0  3  0  0  0  0  0  0
  187.4320  177.3590  142.6390 C   0  0  0  0  0  3  0  0  0  0  0  0
  184.7920  175.4930  137.1630 C   0  0  0  0  0  3  0  0  0  0  0  0
  188.6880  178.8640  141.3170 O   0  0  0  0  0  1  0  0  0  0  0  0
  191.0740  178.1700  142.7450 O   0  0  0  0  0  1  0  0  0  0  0  0
  185.9950  177.6740  137.1190 C   0  0  0  0  0  3  0  0  0  0  0  0
  185.2100  178.0640  142.0050 N   0  0  0  0  0  2  0  0  0  0  0  0
  183.4880  176.0020  137.6370 C   0  0  0  0  0  3  0  0  0  0  0  0
  191.9030  177.0650  140.7360 C   0  0  2  0  0  3  0  0  0  0  0  0
  189.4380  176.3800  137.7930 C   0  0  1  0  0  3  0  0  0  0  0  0
  187.9380  176.1330  135.2270 O   0  0  0  0  0  0  0  0  0  0  0  0
  183.9650  178.8080  140.0520 C   0  0  0  0  0  2  0  0  0  0  0  0
  183.3260  177.0350  138.4640 C   0  0  0  0  0  3  0  0  0  0  0  0
  188.5230  175.1640  137.6870 C   0  0  0  0  0  2  0  0  0  0  0  0
  191.0100  176.9910  141.9920 C   0  0  2  0  0  3  0  0  0  0  0  0
  188.5170  177.6170  141.9140 C   0  0  0  0  0  0  0  0  0  0  0  0
  184.4760  177.7600  139.0790 C   0  0  1  0  0  3  0  0  0  0  0  0
  189.3570  175.8090  140.3970 C   0  0  0  0  0  2  0  0  0  0  0  0
  185.9140  176.2050  136.9710 C   0  0  0  0  0  0  0  0  0  0  0  0
  186.3560  178.3770  142.8450 C   0  0  1  0  0  3  0  0  0  0  0  0
  186.9380  174.0020  135.8670 O   0  0  0  0  0  0  0  0  0  0  0  0
  189.5460  176.5380  141.7340 C   0  0  1  0  0  3  0  0  0  0  0  0
  193.0160  177.8800  140.9560 O   0  0  0  0  0  1  0  0  0  0  0  0
  188.7790  177.4760  138.6070 C   0  0  0  0  0  2  0  0  0  0  0  0
  185.0370  179.1640  141.0710 C   0  0  0  0  0  2  0  0  0  0  0  0
  184.6680  178.7890  144.6870 C   0  0  0  0  0  3  0  0  0  0  0  0
  185.9640  178.4240  144.2890 C   0  0  0  0  0  0  0  0  0  0  0  0
  186.8980  178.0400  145.2590 C   0  0  0  0  0  3  0  0  0  0  0  0
  187.4810  177.6580  147.5700 O   0  0  0  0  0  1  0  0  0  0  0  0
  185.2600  178.4130  147.0030 C   0  0  0  0  0  3  0  0  0  0  0  0
  186.5480  178.0360  146.6120 C   0  0  0  0  0  0  0  0  0  0  0  0
  184.3200  178.7880  146.0410 C   0  0  0  0  0  3  0  0  0  0  0  0
  192.6740  176.4730  138.1120 C   0  0  0  0  0  1  0  0  0  0  0  0
  191.9650  177.6660  138.3340 O   0  0  0  0  0  0  0  0  0  0  0  0
  1 27  1  1  0  0  0
  1  4  1  0  0  0  0
  1 21  1  0  0  0  0
  2 22  1  0  0  0  0
  2 17  1  0  0  0  0
  4 37  1  6  0  0  0
  4 12  1  0  0  0  0
  5 23  1  0  0  0  0
  6 11  1  0  0  0  0
  7 19  1  0  0  0  0
  9  3  2  0  0  0  0
 10 23  1  0  0  0  0
 11 16  2  0  0  0  0
 12 26  1  1  0  0  0
 12 18  1  0  0  0  0
 13 17  1  1  0  0  0
 13 27  1  0  0  0  0
 13  1  1  0  0  0  0
 14  2  2  0  0  0  0
 15 28  1  0  0  0  0
 16 20  1  0  0  0  0
 18  8  1  6  0  0  0
 19  5  2  0  0  0  0
 20  3  1  6  0  0  0
 20 15  1  0  0  0  0
 22  9  1  0  0  0  0
 22  6  2  0  0  0  0
 23 30  1  1  0  0  0
 24  2  2  0  0  0  0
 25 21  1  6  0  0  0
 25 19  1  0  0  0  0
 25 18  1  0  0  0  0
 28 10  1  0  0  0  0
 29 35  1  0  0  0  0
 30 29  2  0  0  0  0
 30 31  1  0  0  0  0
 31 34  2  0  0  0  0
 34 33  1  0  0  0  0
 34 32  1  0  0  0  0
 35 33  2  0  0  0  0
 36 37  1  0  0  0  0
M  END
>  <MODEL>
7

>  <REMARK>
 VINA RESULT:      -6.4      2.025      3.246
  Name = 
  2 active torsions:
  status: ('A' for Active; 'I' for Inactive)
    1  A    between atoms: C_5  and  O_23
    2  A    between atoms: C_6  and  C_31
                            x       y       z     vdW  Elec       q    Type
                         _______ _______ _______ _____ _____    ______ ____

>  <TORSDO>
F 2

$$$$
