=
 OpenBabel10272413223D

 32 37  0  0  1  0  0  0  0  0999 V2000
  183.1520  178.7530  144.7870 C   0  0  0  0  0  3  0  0  0  0  0  0
  187.3010  178.5960  141.7720 C   0  0  2  0  0  3  0  0  0  0  0  0
  190.9180  176.8970  144.8490 C   0  0  0  0  0  2  0  0  0  0  0  0
  191.6160  176.2070  143.6860 C   0  0  0  0  0  2  0  0  0  0  0  0
  187.7710  177.7690  139.3180 C   0  0  0  0  0  0  0  0  0  0  0  0
  186.6900  178.0810  138.4810 C   0  0  0  0  0  0  0  0  0  0  0  0
  184.9150  178.6090  142.6140 C   0  0  0  0  0  0  0  0  0  0  0  0
  186.8650  178.3090  144.2040 C   0  0  0  0  0  2  0  0  0  0  0  0
  188.5630  176.1630  137.7100 C   0  0  0  0  0  0  0  0  0  0  0  0
  184.5150  178.5450  145.0090 C   0  0  0  0  0  3  0  0  0  0  0  0
  189.4210  176.9620  144.5780 C   0  0  0  0  0  2  0  0  0  0  0  0
  187.6350  177.7450  143.0020 C   0  0  2  0  0  3  0  0  0  0  0  0
  189.1320  177.7500  143.2920 C   0  0  2  0  0  3  0  0  0  0  0  0
  189.6640  177.8340  140.8030 C   0  0  1  0  0  3  0  0  0  0  0  0
  187.4630  176.4060  136.9430 N   0  0  0  0  0  0  0  0  0  0  0  0
  185.3990  178.4560  143.9290 C   0  0  0  0  0  0  0  0  0  0  0  0
  186.5400  177.3510  137.2920 C   0  0  0  0  0  3  0  0  0  0  0  0
  183.5480  178.8060  142.3990 C   0  0  0  0  0  3  0  0  0  0  0  0
  182.6660  178.8860  143.4820 C   0  0  0  0  0  0  0  0  0  0  0  0
  191.3580  176.9820  142.3990 C   0  0  0  0  0  2  0  0  0  0  0  0
  189.8560  177.0870  142.1200 C   0  0  1  0  0  3  0  0  0  0  0  0
  189.8750  176.8840  139.7130 N   0  0  0  0  0  2  0  0  0  0  0  0
  185.8160  178.4540  141.4250 C   0  0  0  0  0  2  0  0  0  0  0  0
  185.8440  179.1040  138.7520 F   0  0  0  0  0  0  0  0  0  0  0  0
  189.5840  175.1800  137.2580 C   0  0  0  0  0  1  0  0  0  0  0  0
  188.2600  178.4740  140.5500 C   0  0  2  0  0  3  0  0  0  0  0  0
  188.7190  176.8750  138.9010 C   0  0  0  0  0  0  0  0  0  0  0  0
  181.2070  179.0820  143.2430 C   0  0  0  0  0  2  0  0  0  0  0  0
  180.8240  178.6900  141.8200 C   0  0  0  0  0  2  0  0  0  0  0  0
  180.3640  179.8760  141.0340 C   0  0  0  0  0  0  0  0  0  0  0  0
  179.9820  180.8830  141.6060 O   0  0  0  0  0  0  0  0  0  0  0  0
  180.3540  179.8190  139.5450 C   0  0  0  0  0  1  0  0  0  0  0  0
  1 10  1  0  0  0  0
  2 23  1  6  0  0  0
  2 12  1  0  0  0  0
  4  3  1  0  0  0  0
  6 24  1  0  0  0  0
  6  5  2  0  0  0  0
  7 16  1  0  0  0  0
  9 27  2  0  0  0  0
 11  3  1  0  0  0  0
 12 13  1  0  0  0  0
 12  8  1  1  0  0  0
 13 11  1  1  0  0  0
 14 22  1  6  0  0  0
 14 21  1  0  0  0  0
 15 17  2  0  0  0  0
 15  9  1  0  0  0  0
 16  8  1  0  0  0  0
 16 10  2  0  0  0  0
 17  6  1  0  0  0  0
 18  7  2  0  0  0  0
 18 19  1  0  0  0  0
 19  1  2  0  0  0  0
 20  4  1  0  0  0  0
 21 20  1  1  0  0  0
 21 13  1  0  0  0  0
 23  7  1  0  0  0  0
 25  9  1  0  0  0  0
 26  5  1  6  0  0  0
 26 14  1  0  0  0  0
 26  2  1  0  0  0  0
 27  5  1  0  0  0  0
 27 22  1  0  0  0  0
 28 19  1  0  0  0  0
 29 28  1  0  0  0  0
 30 31  2  0  0  0  0
 30 29  1  0  0  0  0
 32 30  1  0  0  0  0
M  END
>  <MODEL>
1

>  <REMARK>
 VINA RESULT:     -10.0      0.000      0.000
  Name = 
  3 active torsions:
  status: ('A' for Active; 'I' for Inactive)
    1  A    between atoms: C_1  and  C_10
    2  A    between atoms: C_10  and  C_19
    3  A    between atoms: C_19  and  C_24
                            x       y       z     vdW  Elec       q    Type
                         _______ _______ _______ _____ _____    ______ ____

>  <TORSDO>
F 3

$$$$
=
 OpenBabel10272413223D

 32 37  0  0  1  0  0  0  0  0999 V2000
  189.8760  177.1580  144.6590 C   0  0  0  0  0  3  0  0  0  0  0  0
  188.5310  178.1770  139.8130 C   0  0  2  0  0  3  0  0  0  0  0  0
  192.1830  175.9950  137.1030 C   0  0  0  0  0  2  0  0  0  0  0  0
  191.2060  175.7120  135.9710 C   0  0  0  0  0  2  0  0  0  0  0  0
  186.2700  178.0990  138.4690 C   0  0  0  0  0  0  0  0  0  0  0  0
  185.2080  178.5410  139.2700 C   0  0  0  0  0  0  0  0  0  0  0  0
  188.4760  177.7620  142.3090 C   0  0  0  0  0  0  0  0  0  0  0  0
  190.5250  177.1960  140.9300 C   0  0  0  0  0  2  0  0  0  0  0  0
  184.7080  177.0690  136.9550 C   0  0  0  0  0  0  0  0  0  0  0  0
  190.5000  177.0090  143.4180 C   0  0  0  0  0  3  0  0  0  0  0  0
  191.4350  176.0100  138.4290 C   0  0  0  0  0  2  0  0  0  0  0  0
  189.5670  177.0490  139.7400 C   0  0  2  0  0  3  0  0  0  0  0  0
  190.3490  177.0960  138.4320 C   0  0  2  0  0  3  0  0  0  0  0  0
  188.2890  177.9060  137.1730 C   0  0  1  0  0  3  0  0  0  0  0  0
  183.6870  177.4240  137.7850 N   0  0  0  0  0  0  0  0  0  0  0  0
  189.8030  177.2930  142.2400 C   0  0  0  0  0  0  0  0  0  0  0  0
  183.9060  178.1570  138.9170 C   0  0  0  0  0  3  0  0  0  0  0  0
  187.8540  177.8990  143.5530 C   0  0  0  0  0  3  0  0  0  0  0  0
  188.5530  177.6060  144.7290 C   0  0  0  0  0  0  0  0  0  0  0  0
  190.1270  176.7880  135.9430 C   0  0  0  0  0  2  0  0  0  0  0  0
  189.3790  176.8430  137.2770 C   0  0  1  0  0  3  0  0  0  0  0  0
  187.1500  177.3140  136.4750 N   0  0  0  0  0  2  0  0  0  0  0  0
  187.6700  178.0150  141.0700 C   0  0  0  0  0  2  0  0  0  0  0  0
  185.4000  179.3770  140.3200 F   0  0  0  0  0  0  0  0  0  0  0  0
  184.4210  176.3350  135.6930 C   0  0  0  0  0  1  0  0  0  0  0  0
  187.7230  178.4750  138.5150 C   0  0  2  0  0  3  0  0  0  0  0  0
  186.0100  177.4350  137.3000 C   0  0  0  0  0  0  0  0  0  0  0  0
  187.8770  177.7400  146.0520 C   0  0  0  0  0  2  0  0  0  0  0  0
  186.3850  177.4510  145.9400 C   0  0  0  0  0  2  0  0  0  0  0  0
  185.5740  178.6960  146.1110 C   0  0  0  0  0  0  0  0  0  0  0  0
  185.6550  179.3470  147.1400 O   0  0  0  0  0  0  0  0  0  0  0  0
  184.6480  179.1320  145.0290 C   0  0  0  0  0  1  0  0  0  0  0  0
  1 19  1  0  0  0  0
  2 23  1  1  0  0  0
  3 11  1  0  0  0  0
  4  3  1  0  0  0  0
  5  6  1  0  0  0  0
  6 24  1  0  0  0  0
  7 18  1  0  0  0  0
  8 16  1  0  0  0  0
  9 27  1  0  0  0  0
  9 15  2  0  0  0  0
 10  1  2  0  0  0  0
 12  2  1  0  0  0  0
 12  8  1  1  0  0  0
 13 11  1  1  0  0  0
 13 12  1  0  0  0  0
 14 22  1  1  0  0  0
 14 21  1  0  0  0  0
 14 26  1  0  0  0  0
 15 17  1  0  0  0  0
 16  7  2  0  0  0  0
 16 10  1  0  0  0  0
 17  6  2  0  0  0  0
 18 19  2  0  0  0  0
 19 28  1  0  0  0  0
 20  4  1  0  0  0  0
 21 20  1  6  0  0  0
 21 13  1  0  0  0  0
 22 27  1  0  0  0  0
 23  7  1  0  0  0  0
 25  9  1  0  0  0  0
 26  5  1  1  0  0  0
 26  2  1  0  0  0  0
 27  5  2  0  0  0  0
 29 28  1  0  0  0  0
 29 30  1  0  0  0  0
 30 31  2  0  0  0  0
 32 30  1  0  0  0  0
M  END
>  <MODEL>
2

>  <REMARK>
 VINA RESULT:      -9.7      2.526      5.282
  Name = 
  3 active torsions:
  status: ('A' for Active; 'I' for Inactive)
    1  A    between atoms: C_1  and  C_10
    2  A    between atoms: C_10  and  C_19
    3  A    between atoms: C_19  and  C_24
                            x       y       z     vdW  Elec       q    Type
                         _______ _______ _______ _____ _____    ______ ____

>  <TORSDO>
F 3

$$$$
=
 OpenBabel10272413223D

 32 37  0  0  1  0  0  0  0  0999 V2000
  183.0820  178.7530  144.0510 C   0  0  0  0  0  3  0  0  0  0  0  0
  187.6060  178.5120  141.6420 C   0  0  2  0  0  3  0  0  0  0  0  0
  190.7740  176.9810  145.2580 C   0  0  0  0  0  2  0  0  0  0  0  0
  191.6280  176.2500  144.2320 C   0  0  0  0  0  2  0  0  0  0  0  0
  188.4120  177.5870  139.3150 C   0  0  0  0  0  0  0  0  0  0  0  0
  187.4560  177.8520  138.3240 C   0  0  0  0  0  0  0  0  0  0  0  0
  185.1270  178.5360  142.1490 C   0  0  0  0  0  0  0  0  0  0  0  0
  186.8420  178.3230  144.0020 C   0  0  0  0  0  2  0  0  0  0  0  0
  189.4250  175.9230  137.9010 C   0  0  0  0  0  0  0  0  0  0  0  0
  184.4030  178.5690  144.4660 C   0  0  0  0  0  3  0  0  0  0  0  0
  189.3280  177.0190  144.7810 C   0  0  0  0  0  2  0  0  0  0  0  0
  187.7720  177.7170  142.9430 C   0  0  2  0  0  3  0  0  0  0  0  0
  189.2150  177.7490  143.4350 C   0  0  2  0  0  3  0  0  0  0  0  0
  190.0830  177.7340  141.0400 C   0  0  1  0  0  3  0  0  0  0  0  0
  188.4400  176.1220  136.9800 N   0  0  0  0  0  0  0  0  0  0  0  0
  185.4260  178.4430  143.5230 C   0  0  0  0  0  0  0  0  0  0  0  0
  187.4740  177.0710  137.1590 C   0  0  0  0  0  3  0  0  0  0  0  0
  183.8020  178.7100  141.7400 C   0  0  0  0  0  3  0  0  0  0  0  0
  182.7790  178.8260  142.6870 C   0  0  0  0  0  0  0  0  0  0  0  0
  191.5450  176.9670  142.8900 C   0  0  0  0  0  2  0  0  0  0  0  0
  190.0960  177.0450  142.4030 C   0  0  1  0  0  3  0  0  0  0  0  0
  190.4460  176.7410  140.0320 N   0  0  0  0  0  2  0  0  0  0  0  0
  186.1830  178.3400  141.1020 C   0  0  0  0  0  2  0  0  0  0  0  0
  186.5760  178.8770  138.4330 F   0  0  0  0  0  0  0  0  0  0  0  0
  190.5020  174.9320  137.6360 C   0  0  0  0  0  1  0  0  0  0  0  0
  188.7250  178.3490  140.5710 C   0  0  2  0  0  3  0  0  0  0  0  0
  189.4130  176.6860  139.0700 C   0  0  0  0  0  0  0  0  0  0  0  0
  181.3660  178.9970  142.2420 C   0  0  0  0  0  2  0  0  0  0  0  0
  181.2550  178.9380  140.7230 C   0  0  0  0  0  2  0  0  0  0  0  0
  180.5060  177.7230  140.2780 C   0  0  0  0  0  0  0  0  0  0  0  0
  179.9820  176.9880  141.0980 O   0  0  0  0  0  0  0  0  0  0  0  0
  180.4150  177.3990  138.8270 C   0  0  0  0  0  1  0  0  0  0  0  0
  1 10  1  0  0  0  0
  2 23  1  6  0  0  0
  2 12  1  0  0  0  0
  4  3  1  0  0  0  0
  6 24  1  0  0  0  0
  6  5  2  0  0  0  0
  7 16  1  0  0  0  0
  9 27  2  0  0  0  0
 11  3  1  0  0  0  0
 12 13  1  0  0  0  0
 12  8  1  1  0  0  0
 13 11  1  1  0  0  0
 14 22  1  6  0  0  0
 14 21  1  0  0  0  0
 15 17  2  0  0  0  0
 15  9  1  0  0  0  0
 16  8  1  0  0  0  0
 16 10  2  0  0  0  0
 17  6  1  0  0  0  0
 18  7  2  0  0  0  0
 18 19  1  0  0  0  0
 19  1  2  0  0  0  0
 20  4  1  0  0  0  0
 21 20  1  1  0  0  0
 21 13  1  0  0  0  0
 23  7  1  0  0  0  0
 25  9  1  0  0  0  0
 26  5  1  6  0  0  0
 26 14  1  0  0  0  0
 26  2  1  0  0  0  0
 27  5  1  0  0  0  0
 27 22  1  0  0  0  0
 28 19  1  0  0  0  0
 29 28  1  0  0  0  0
 30 29  1  0  0  0  0
 30 31  2  0  0  0  0
 32 30  1  0  0  0  0
M  END
>  <MODEL>
3

>  <REMARK>
 VINA RESULT:      -9.5      1.093      1.126
  Name = 
  3 active torsions:
  status: ('A' for Active; 'I' for Inactive)
    1  A    between atoms: C_1  and  C_10
    2  A    between atoms: C_10  and  C_19
    3  A    between atoms: C_19  and  C_24
                            x       y       z     vdW  Elec       q    Type
                         _______ _______ _______ _____ _____    ______ ____

>  <TORSDO>
F 3

$$$$
=
 OpenBabel10272413223D

 32 37  0  0  1  0  0  0  0  0999 V2000
  190.5710  177.6680  138.5050 C   0  0  0  0  0  3  0  0  0  0  0  0
  188.3570  176.7980  143.0520 C   0  0  2  0  0  3  0  0  0  0  0  0
  192.2740  175.9390  146.1130 C   0  0  0  0  0  2  0  0  0  0  0  0
  191.5150  176.5350  147.2890 C   0  0  0  0  0  2  0  0  0  0  0  0
  186.4130  177.9400  144.4090 C   0  0  0  0  0  0  0  0  0  0  0  0
  185.3860  178.3450  143.5450 C   0  0  0  0  0  0  0  0  0  0  0  0
  188.8260  177.5930  140.6960 C   0  0  0  0  0  0  0  0  0  0  0  0
  190.6640  176.6130  142.1390 C   0  0  0  0  0  2  0  0  0  0  0  0
  185.5620  179.4030  146.1190 C   0  0  0  0  0  0  0  0  0  0  0  0
  191.0260  177.2090  139.7430 C   0  0  0  0  0  3  0  0  0  0  0  0
  191.8040  176.5920  144.8200 C   0  0  0  0  0  2  0  0  0  0  0  0
  189.8360  177.0790  143.3440 C   0  0  2  0  0  3  0  0  0  0  0  0
  190.3000  176.3610  144.6070 C   0  0  2  0  0  3  0  0  0  0  0  0
  188.0220  176.6940  145.6940 C   0  0  1  0  0  3  0  0  0  0  0  0
  184.6210  179.8590  145.2450 N   0  0  0  0  0  0  0  0  0  0  0  0
  190.1660  177.1840  140.8450 C   0  0  0  0  0  0  0  0  0  0  0  0
  184.5050  179.3450  143.9850 C   0  0  0  0  0  3  0  0  0  0  0  0
  188.3800  178.0620  139.4570 C   0  0  0  0  0  3  0  0  0  0  0  0
  189.2460  178.0940  138.3590 C   0  0  0  0  0  0  0  0  0  0  0  0
  190.0200  176.3010  147.1080 C   0  0  0  0  0  2  0  0  0  0  0  0
  189.5280  176.9240  145.7990 C   0  0  1  0  0  3  0  0  0  0  0  0
  187.3560  177.7050  146.5120 N   0  0  0  0  0  2  0  0  0  0  0  0
  187.8880  177.6450  141.8660 C   0  0  0  0  0  2  0  0  0  0  0  0
  185.1820  177.7510  142.3440 F   0  0  0  0  0  0  0  0  0  0  0  0
  185.6080  179.9340  147.5090 C   0  0  0  0  0  1  0  0  0  0  0  0
  187.3860  176.8040  144.2700 C   0  0  2  0  0  3  0  0  0  0  0  0
  186.4510  178.4150  145.6920 C   0  0  0  0  0  0  0  0  0  0  0  0
  188.7660  178.6100  137.0450 C   0  0  0  0  0  2  0  0  0  0  0  0
  187.4710  177.9240  136.6240 C   0  0  0  0  0  2  0  0  0  0  0  0
  187.7170  176.5150  136.1890 C   0  0  0  0  0  0  0  0  0  0  0  0
  188.3750  176.2860  135.1870 O   0  0  0  0  0  0  0  0  0  0  0  0
  187.1400  175.3860  136.9710 C   0  0  0  0  0  1  0  0  0  0  0  0
  1 10  1  0  0  0  0
  2 23  1  6  0  0  0
  2 12  1  0  0  0  0
  2 26  1  0  0  0  0
  3  4  1  0  0  0  0
  5 27  1  0  0  0  0
  6 17  1  0  0  0  0
  6  5  2  0  0  0  0
  7 16  1  0  0  0  0
  7 23  1  0  0  0  0
  9 25  1  0  0  0  0
 10 16  2  0  0  0  0
 11  3  1  0  0  0  0
 12  8  1  6  0  0  0
 12 13  1  0  0  0  0
 13 11  1  1  0  0  0
 13 21  1  0  0  0  0
 14 21  1  0  0  0  0
 14 22  1  1  0  0  0
 15  9  1  0  0  0  0
 16  8  1  0  0  0  0
 17 15  2  0  0  0  0
 18  7  2  0  0  0  0
 19  1  2  0  0  0  0
 19 18  1  0  0  0  0
 20  4  1  0  0  0  0
 21 20  1  1  0  0  0
 24  6  1  0  0  0  0
 26  5  1  1  0  0  0
 26 14  1  0  0  0  0
 27  9  2  0  0  0  0
 27 22  1  0  0  0  0
 28 19  1  0  0  0  0
 29 28  1  0  0  0  0
 30 29  1  0  0  0  0
 30 32  1  0  0  0  0
 31 30  2  0  0  0  0
M  END
>  <MODEL>
4

>  <REMARK>
 VINA RESULT:      -9.0      3.663      6.820
  Name = 
  3 active torsions:
  status: ('A' for Active; 'I' for Inactive)
    1  A    between atoms: C_1  and  C_10
    2  A    between atoms: C_10  and  C_19
    3  A    between atoms: C_19  and  C_24
                            x       y       z     vdW  Elec       q    Type
                         _______ _______ _______ _____ _____    ______ ____

>  <TORSDO>
F 3

$$$$
=
 OpenBabel10272413223D

 32 37  0  0  1  0  0  0  0  0999 V2000
  190.1380  176.9640  144.1400 C   0  0  0  0  0  3  0  0  0  0  0  0
  188.7060  178.0530  139.3340 C   0  0  2  0  0  3  0  0  0  0  0  0
  192.3190  175.9260  136.5280 C   0  0  0  0  0  2  0  0  0  0  0  0
  191.3240  175.6570  135.4090 C   0  0  0  0  0  2  0  0  0  0  0  0
  186.4230  177.9880  138.0270 C   0  0  0  0  0  0  0  0  0  0  0  0
  185.3730  178.4140  138.8540 C   0  0  0  0  0  0  0  0  0  0  0  0
  188.6960  177.6000  141.8230 C   0  0  0  0  0  0  0  0  0  0  0  0
  190.7230  177.0620  140.4020 C   0  0  0  0  0  2  0  0  0  0  0  0
  184.8390  176.9760  136.5250 C   0  0  0  0  0  0  0  0  0  0  0  0
  190.7410  176.8360  142.8860 C   0  0  0  0  0  3  0  0  0  0  0  0
  191.5930  175.9180  137.8670 C   0  0  0  0  0  2  0  0  0  0  0  0
  189.7450  176.9300  139.2260 C   0  0  2  0  0  3  0  0  0  0  0  0
  190.5040  177.0000  137.9050 C   0  0  2  0  0  3  0  0  0  0  0  0
  188.4200  177.8230  136.6940 C   0  0  1  0  0  3  0  0  0  0  0  0
  183.8310  177.3140  137.3780 N   0  0  0  0  0  0  0  0  0  0  0  0
  190.0220  177.1360  141.7250 C   0  0  0  0  0  0  0  0  0  0  0  0
  184.0660  178.0310  138.5160 C   0  0  0  0  0  3  0  0  0  0  0  0
  188.0950  177.7150  143.0800 C   0  0  0  0  0  3  0  0  0  0  0  0
  188.8140  177.4060  144.2390 C   0  0  0  0  0  0  0  0  0  0  0  0
  190.2410  176.7300  135.4160 C   0  0  0  0  0  2  0  0  0  0  0  0
  189.5160  176.7610  136.7640 C   0  0  1  0  0  3  0  0  0  0  0  0
  187.2710  177.2370  136.0070 N   0  0  0  0  0  2  0  0  0  0  0  0
  187.8680  177.8690  140.6020 C   0  0  0  0  0  2  0  0  0  0  0  0
  185.5810  179.2340  139.9130 F   0  0  0  0  0  0  0  0  0  0  0  0
  184.5330  176.2610  135.2570 C   0  0  0  0  0  1  0  0  0  0  0  0
  187.8760  178.3680  138.0540 C   0  0  2  0  0  3  0  0  0  0  0  0
  186.1460  177.3420  136.8530 C   0  0  0  0  0  0  0  0  0  0  0  0
  188.1610  177.5180  145.5750 C   0  0  0  0  0  2  0  0  0  0  0  0
  189.1480  177.2220  146.6980 C   0  0  0  0  0  2  0  0  0  0  0  0
  188.8500  178.0390  147.9150 C   0  0  0  0  0  0  0  0  0  0  0  0
  189.7530  178.3870  148.6580 O   0  0  0  0  0  0  0  0  0  0  0  0
  187.4440  178.4130  148.2310 C   0  0  0  0  0  1  0  0  0  0  0  0
  1 19  1  0  0  0  0
  2 23  1  1  0  0  0
  3 11  1  0  0  0  0
  4 20  1  0  0  0  0
  4  3  1  0  0  0  0
  5  6  1  0  0  0  0
  6 24  1  0  0  0  0
  7 18  1  0  0  0  0
  8 16  1  0  0  0  0
  9 27  1  0  0  0  0
  9 15  2  0  0  0  0
 10  1  2  0  0  0  0
 12  2  1  0  0  0  0
 12  8  1  1  0  0  0
 13 11  1  1  0  0  0
 13 12  1  0  0  0  0
 14 22  1  1  0  0  0
 14 21  1  0  0  0  0
 14 26  1  0  0  0  0
 15 17  1  0  0  0  0
 16  7  2  0  0  0  0
 16 10  1  0  0  0  0
 17  6  2  0  0  0  0
 18 19  2  0  0  0  0
 19 28  1  0  0  0  0
 21 20  1  6  0  0  0
 21 13  1  0  0  0  0
 22 27  1  0  0  0  0
 23  7  1  0  0  0  0
 25  9  1  0  0  0  0
 26  5  1  1  0  0  0
 26  2  1  0  0  0  0
 27  5  2  0  0  0  0
 28 29  1  0  0  0  0
 29 30  1  0  0  0  0
 30 32  1  0  0  0  0
 30 31  2  0  0  0  0
M  END
>  <MODEL>
5

>  <REMARK>
 VINA RESULT:      -9.0      3.540      6.268
  Name = 
  3 active torsions:
  status: ('A' for Active; 'I' for Inactive)
    1  A    between atoms: C_1  and  C_10
    2  A    between atoms: C_10  and  C_19
    3  A    between atoms: C_19  and  C_24
                            x       y       z     vdW  Elec       q    Type
                         _______ _______ _______ _____ _____    ______ ____

>  <TORSDO>
F 3

$$$$
=
 OpenBabel10272413223D

 32 37  0  0  1  0  0  0  0  0999 V2000
  191.1430  176.6910  144.3650 C   0  0  0  0  0  3  0  0  0  0  0  0
  187.5420  178.5760  141.2340 C   0  0  2  0  0  3  0  0  0  0  0  0
  188.9180  176.8510  136.6980 C   0  0  0  0  0  2  0  0  0  0  0  0
  187.4640  176.7900  136.2540 C   0  0  0  0  0  2  0  0  0  0  0  0
  184.9200  178.7750  141.3430 C   0  0  0  0  0  0  0  0  0  0  0  0
  184.5060  179.0850  142.6460 C   0  0  0  0  0  0  0  0  0  0  0  0
  188.7820  177.7260  143.2690 C   0  0  0  0  0  0  0  0  0  0  0  0
  189.7020  177.3800  140.9340 C   0  0  0  0  0  2  0  0  0  0  0  0
  182.6890  178.0560  140.7970 C   0  0  0  0  0  0  0  0  0  0  0  0
  190.9880  176.7540  142.9790 C   0  0  0  0  0  3  0  0  0  0  0  0
  189.0000  176.6430  138.2040 C   0  0  0  0  0  2  0  0  0  0  0  0
  188.2480  177.4630  140.4510 C   0  0  2  0  0  3  0  0  0  0  0  0
  188.2100  177.7280  138.9500 C   0  0  2  0  0  3  0  0  0  0  0  0
  185.9000  178.7830  139.1440 C   0  0  1  0  0  3  0  0  0  0  0  0
  182.3150  178.2740  142.0890 N   0  0  0  0  0  0  0  0  0  0  0  0
  189.8060  177.2540  142.4240 C   0  0  0  0  0  0  0  0  0  0  0  0
  183.1830  178.7920  143.0090 C   0  0  0  0  0  3  0  0  0  0  0  0
  188.9390  177.6500  144.6560 C   0  0  0  0  0  3  0  0  0  0  0  0
  190.1200  177.1400  145.2070 C   0  0  0  0  0  0  0  0  0  0  0  0
  186.6620  177.8710  136.9690 C   0  0  0  0  0  2  0  0  0  0  0  0
  186.7530  177.7000  138.4880 C   0  0  1  0  0  3  0  0  0  0  0  0
  184.5070  178.3430  139.1040 N   0  0  0  0  0  2  0  0  0  0  0  0
  187.4720  178.2080  142.7190 C   0  0  0  0  0  2  0  0  0  0  0  0
  185.3190  179.7180  143.5260 F   0  0  0  0  0  0  0  0  0  0  0  0
  181.6940  177.5630  139.8070 C   0  0  0  0  0  1  0  0  0  0  0  0
  186.2040  179.1130  140.6420 C   0  0  2  0  0  3  0  0  0  0  0  0
  184.0060  178.3340  140.4250 C   0  0  0  0  0  0  0  0  0  0  0  0
  190.2740  177.0490  146.6880 C   0  0  0  0  0  2  0  0  0  0  0  0
  188.9530  176.6870  147.3580 C   0  0  0  0  0  2  0  0  0  0  0  0
  188.3250  177.8810  148.0020 C   0  0  0  0  0  0  0  0  0  0  0  0
  188.8560  178.4120  148.9640 O   0  0  0  0  0  0  0  0  0  0  0  0
  187.0350  178.4130  147.4800 C   0  0  0  0  0  1  0  0  0  0  0  0
  1 19  1  0  0  0  0
  2 23  1  1  0  0  0
  3 11  1  0  0  0  0
  4  3  1  0  0  0  0
  4 20  1  0  0  0  0
  5  6  1  0  0  0  0
  6 17  2  0  0  0  0
  6 24  1  0  0  0  0
  7 18  1  0  0  0  0
  8 16  1  0  0  0  0
  9 15  2  0  0  0  0
 10  1  2  0  0  0  0
 12  8  1  1  0  0  0
 12  2  1  0  0  0  0
 13 11  1  6  0  0  0
 13 12  1  0  0  0  0
 14 22  1  1  0  0  0
 14 26  1  0  0  0  0
 15 17  1  0  0  0  0
 16 10  1  0  0  0  0
 16  7  2  0  0  0  0
 18 19  2  0  0  0  0
 19 28  1  0  0  0  0
 21 20  1  6  0  0  0
 21 13  1  0  0  0  0
 21 14  1  0  0  0  0
 22 27  1  0  0  0  0
 23  7  1  0  0  0  0
 25  9  1  0  0  0  0
 26  2  1  0  0  0  0
 26  5  1  1  0  0  0
 27  9  1  0  0  0  0
 27  5  2  0  0  0  0
 28 29  1  0  0  0  0
 29 30  1  0  0  0  0
 30 31  2  0  0  0  0
 32 30  1  0  0  0  0
M  END
>  <MODEL>
6

>  <REMARK>
 VINA RESULT:      -8.9      3.068      6.830
  Name = 
  3 active torsions:
  status: ('A' for Active; 'I' for Inactive)
    1  A    between atoms: C_1  and  C_10
    2  A    between atoms: C_10  and  C_19
    3  A    between atoms: C_19  and  C_24
                            x       y       z     vdW  Elec       q    Type
                         _______ _______ _______ _____ _____    ______ ____

>  <TORSDO>
F 3

$$$$
=
 OpenBabel10272413223D

 32 37  0  0  1  0  0  0  0  0999 V2000
  181.7790  178.7640  141.6000 C   0  0  0  0  0  3  0  0  0  0  0  0
  186.8660  178.6780  140.9270 C   0  0  2  0  0  3  0  0  0  0  0  0
  188.6200  177.2970  145.4500 C   0  0  0  0  0  2  0  0  0  0  0  0
  189.8020  176.5920  144.8020 C   0  0  0  0  0  2  0  0  0  0  0  0
  188.4650  177.7680  139.0450 C   0  0  0  0  0  0  0  0  0  0  0  0
  187.9070  177.9890  137.7790 C   0  0  0  0  0  0  0  0  0  0  0  0
  184.3670  178.6110  140.5360 C   0  0  0  0  0  0  0  0  0  0  0  0
  185.3320  178.4780  142.8750 C   0  0  0  0  0  2  0  0  0  0  0  0
  189.9620  176.1340  138.1080 C   0  0  0  0  0  0  0  0  0  0  0  0
  182.8770  178.6330  142.4530 C   0  0  0  0  0  3  0  0  0  0  0  0
  187.4310  177.2760  144.4980 C   0  0  0  0  0  2  0  0  0  0  0  0
  186.5930  177.9000  142.2190 C   0  0  2  0  0  3  0  0  0  0  0  0
  187.7720  177.9910  143.1830 C   0  0  2  0  0  3  0  0  0  0  0  0
  189.4220  177.9920  141.2430 C   0  0  1  0  0  3  0  0  0  0  0  0
  189.3550  176.2880  136.8980 N   0  0  0  0  0  0  0  0  0  0  0  0
  184.1700  178.5400  141.9290 C   0  0  0  0  0  0  0  0  0  0  0  0
  188.3570  177.2010  136.7090 C   0  0  0  0  0  3  0  0  0  0  0  0
  183.2630  178.7310  139.6870 C   0  0  0  0  0  3  0  0  0  0  0  0
  181.9700  178.8150  140.2150 C   0  0  0  0  0  0  0  0  0  0  0  0
  190.1700  177.2960  143.5010 C   0  0  0  0  0  2  0  0  0  0  0  0
  188.9800  177.3140  142.5380 C   0  0  1  0  0  3  0  0  0  0  0  0
  190.1470  177.0070  140.4450 N   0  0  0  0  0  2  0  0  0  0  0  0
  185.7280  178.4480  139.9280 C   0  0  0  0  0  2  0  0  0  0  0  0
  187.0100  178.9800  137.5530 F   0  0  0  0  0  0  0  0  0  0  0  0
  191.0970  175.1830  138.2560 C   0  0  0  0  0  1  0  0  0  0  0  0
  188.2930  178.5510  140.3160 C   0  0  2  0  0  3  0  0  0  0  0  0
  189.5180  176.9050  139.1840 C   0  0  0  0  0  0  0  0  0  0  0  0
  180.7970  178.9280  139.3010 C   0  0  0  0  0  2  0  0  0  0  0  0
  181.2320  179.3040  137.8890 C   0  0  0  0  0  2  0  0  0  0  0  0
  180.9570  180.7450  137.6000 C   0  0  0  0  0  0  0  0  0  0  0  0
  180.2310  181.0590  136.6710 O   0  0  0  0  0  0  0  0  0  0  0  0
  181.5890  181.8020  138.4380 C   0  0  0  0  0  1  0  0  0  0  0  0
  1 10  1  0  0  0  0
  2 23  1  6  0  0  0
  2 12  1  0  0  0  0
  4  3  1  0  0  0  0
  5 27  1  0  0  0  0
  6  5  2  0  0  0  0
  7 16  1  0  0  0  0
  9 25  1  0  0  0  0
  9 27  2  0  0  0  0
 11  3  1  0  0  0  0
 12  8  1  1  0  0  0
 12 13  1  0  0  0  0
 13 11  1  1  0  0  0
 14 22  1  6  0  0  0
 14 21  1  0  0  0  0
 15  9  1  0  0  0  0
 16 10  2  0  0  0  0
 16  8  1  0  0  0  0
 17 15  2  0  0  0  0
 17  6  1  0  0  0  0
 18 19  1  0  0  0  0
 18  7  2  0  0  0  0
 19  1  2  0  0  0  0
 20  4  1  0  0  0  0
 21 13  1  0  0  0  0
 21 20  1  1  0  0  0
 23  7  1  0  0  0  0
 24  6  1  0  0  0  0
 26  5  1  6  0  0  0
 26  2  1  0  0  0  0
 26 14  1  0  0  0  0
 27 22  1  0  0  0  0
 28 19  1  0  0  0  0
 29 28  1  0  0  0  0
 30 29  1  0  0  0  0
 30 32  1  0  0  0  0
 31 30  2  0  0  0  0
M  END
>  <MODEL>
7

>  <REMARK>
 VINA RESULT:      -8.4      1.633      2.336
  Name = 
  3 active torsions:
  status: ('A' for Active; 'I' for Inactive)
    1  A    between atoms: C_1  and  C_10
    2  A    between atoms: C_10  and  C_19
    3  A    between atoms: C_19  and  C_24
                            x       y       z     vdW  Elec       q    Type
                         _______ _______ _______ _____ _____    ______ ____

>  <TORSDO>
F 3

$$$$
=
 OpenBabel10272413223D

 32 37  0  0  1  0  0  0  0  0999 V2000
  188.8190  177.7320  144.7530 C   0  0  0  0  0  3  0  0  0  0  0  0
  185.8930  178.7710  140.6680 C   0  0  2  0  0  3  0  0  0  0  0  0
  188.9280  177.7580  136.7680 C   0  0  0  0  0  2  0  0  0  0  0  0
  187.7360  177.3370  135.9210 C   0  0  0  0  0  2  0  0  0  0  0  0
  183.4000  178.2540  140.0030 C   0  0  0  0  0  0  0  0  0  0  0  0
  182.5620  178.3620  141.1210 C   0  0  0  0  0  0  0  0  0  0  0  0
  186.6810  178.1620  142.9940 C   0  0  0  0  0  0  0  0  0  0  0  0
  188.2900  178.2180  141.0370 C   0  0  0  0  0  2  0  0  0  0  0  0
  181.7050  176.9990  138.8440 C   0  0  0  0  0  0  0  0  0  0  0  0
  189.0560  177.8360  143.3800 C   0  0  0  0  0  3  0  0  0  0  0  0
  188.6280  177.4880  138.2370 C   0  0  0  0  0  2  0  0  0  0  0  0
  187.0700  177.9380  140.1490 C   0  0  2  0  0  3  0  0  0  0  0  0
  187.3920  178.2750  138.6970 C   0  0  2  0  0  3  0  0  0  0  0  0
  184.9270  178.6590  138.1860 C   0  0  1  0  0  3  0  0  0  0  0  0
  180.9310  177.0300  139.9660 N   0  0  0  0  0  0  0  0  0  0  0  0
  187.9930  178.0340  142.4950 C   0  0  0  0  0  0  0  0  0  0  0  0
  181.3230  177.7030  141.0880 C   0  0  0  0  0  3  0  0  0  0  0  0
  186.4500  178.0460  144.3680 C   0  0  0  0  0  3  0  0  0  0  0  0
  187.5160  177.8390  145.2490 C   0  0  0  0  0  0  0  0  0  0  0  0
  186.4990  178.1180  136.3480 C   0  0  0  0  0  2  0  0  0  0  0  0
  186.1950  177.8860  137.8300 C   0  0  1  0  0  3  0  0  0  0  0  0
  183.7800  177.8650  137.7510 N   0  0  0  0  0  2  0  0  0  0  0  0
  185.5050  178.3080  142.0760 C   0  0  0  0  0  2  0  0  0  0  0  0
  182.8830  179.1340  142.1870 F   0  0  0  0  0  0  0  0  0  0  0  0
  181.2100  176.3190  137.6170 C   0  0  0  0  0  1  0  0  0  0  0  0
  184.6870  178.9660  139.7000 C   0  0  2  0  0  3  0  0  0  0  0  0
  182.9440  177.6420  138.8670 C   0  0  0  0  0  0  0  0  0  0  0  0
  187.2580  177.7020  146.7120 C   0  0  0  0  0  2  0  0  0  0  0  0
  188.2190  176.7050  147.3500 C   0  0  0  0  0  2  0  0  0  0  0  0
  189.4430  177.3850  147.8730 C   0  0  0  0  0  0  0  0  0  0  0  0
  189.3420  178.3700  148.5870 O   0  0  0  0  0  0  0  0  0  0  0  0
  190.7920  176.8710  147.5060 C   0  0  0  0  0  1  0  0  0  0  0  0
  1 19  1  0  0  0  0
  2 23  1  1  0  0  0
  3 11  1  0  0  0  0
  4 20  1  0  0  0  0
  4  3  1  0  0  0  0
  5  6  1  0  0  0  0
  6 24  1  0  0  0  0
  7 18  1  0  0  0  0
  8 16  1  0  0  0  0
  9 27  1  0  0  0  0
  9 15  2  0  0  0  0
 10  1  2  0  0  0  0
 12  2  1  0  0  0  0
 12  8  1  1  0  0  0
 13 11  1  6  0  0  0
 13 12  1  0  0  0  0
 14 22  1  1  0  0  0
 14 26  1  0  0  0  0
 15 17  1  0  0  0  0
 16  7  2  0  0  0  0
 16 10  1  0  0  0  0
 17  6  2  0  0  0  0
 18 19  2  0  0  0  0
 19 28  1  0  0  0  0
 21 20  1  6  0  0  0
 21 14  1  0  0  0  0
 21 13  1  0  0  0  0
 22 27  1  0  0  0  0
 23  7  1  0  0  0  0
 25  9  1  0  0  0  0
 26  5  1  1  0  0  0
 26  2  1  0  0  0  0
 27  5  2  0  0  0  0
 28 29  1  0  0  0  0
 29 30  1  0  0  0  0
 30 31  2  0  0  0  0
 32 30  1  0  0  0  0
M  END
>  <MODEL>
8

>  <REMARK>
 VINA RESULT:      -8.4      3.265      6.703
  Name = 
  3 active torsions:
  status: ('A' for Active; 'I' for Inactive)
    1  A    between atoms: C_1  and  C_10
    2  A    between atoms: C_10  and  C_19
    3  A    between atoms: C_19  and  C_24
                            x       y       z     vdW  Elec       q    Type
                         _______ _______ _______ _____ _____    ______ ____

>  <TORSDO>
F 3

$$$$
=
 OpenBabel10272413223D

 32 37  0  0  1  0  0  0  0  0999 V2000
  191.9320  175.7260  136.0920 C   0  0  0  0  0  3  0  0  0  0  0  0
  189.1570  178.1120  139.6890 C   0  0  2  0  0  3  0  0  0  0  0  0
  184.5150  178.1990  137.7170 C   0  0  0  0  0  2  0  0  0  0  0  0
  183.8990  178.1170  139.1060 C   0  0  0  0  0  2  0  0  0  0  0  0
  188.9980  177.9460  142.3110 C   0  0  0  0  0  0  0  0  0  0  0  0
  190.2690  177.7450  142.8670 C   0  0  0  0  0  0  0  0  0  0  0  0
  190.9450  176.7790  138.4940 C   0  0  0  0  0  0  0  0  0  0  0  0
  188.7570  177.3550  137.3540 C   0  0  0  0  0  2  0  0  0  0  0  0
  187.9760  177.1920  144.3550 C   0  0  0  0  0  0  0  0  0  0  0  0
  190.6330  176.2350  136.1480 C   0  0  0  0  0  3  0  0  0  0  0  0
  185.8710  177.5050  137.7200 C   0  0  0  0  0  2  0  0  0  0  0  0
  188.1510  177.4220  138.7610 C   0  0  2  0  0  3  0  0  0  0  0  0
  186.8230  178.1720  138.7240 C   0  0  2  0  0  3  0  0  0  0  0  0
  187.0600  178.8140  141.1770 C   0  0  1  0  0  3  0  0  0  0  0  0
  189.2120  176.9140  144.8570 N   0  0  0  0  0  0  0  0  0  0  0  0
  190.1280  176.7470  137.3470 C   0  0  0  0  0  0  0  0  0  0  0  0
  190.3500  177.1900  144.1530 C   0  0  0  0  0  3  0  0  0  0  0  0
  192.2410  176.2580  138.4340 C   0  0  0  0  0  3  0  0  0  0  0  0
  192.7400  175.7390  137.2350 C   0  0  0  0  0  0  0  0  0  0  0  0
  184.8200  178.7890  140.1170 C   0  0  0  0  0  2  0  0  0  0  0  0
  186.2000  178.1270  140.1180 C   0  0  1  0  0  3  0  0  0  0  0  0
  186.7070  178.2490  142.4780 N   0  0  0  0  0  2  0  0  0  0  0  0
  190.4230  177.2580  139.8150 C   0  0  0  0  0  2  0  0  0  0  0  0
  191.4000  178.1360  142.2320 F   0  0  0  0  0  0  0  0  0  0  0  0
  186.7640  176.9460  145.1820 C   0  0  0  0  0  1  0  0  0  0  0  0
  188.6090  178.6530  141.0440 C   0  0  2  0  0  3  0  0  0  0  0  0
  187.8810  177.7350  143.0720 C   0  0  0  0  0  0  0  0  0  0  0  0
  194.1180  175.1720  137.1830 C   0  0  0  0  0  2  0  0  0  0  0  0
  194.1070  173.6700  137.4470 C   0  0  0  0  0  2  0  0  0  0  0  0
  195.1290  173.2890  138.4700 C   0  0  0  0  0  0  0  0  0  0  0  0
  195.3570  172.1130  138.7030 O   0  0  0  0  0  0  0  0  0  0  0  0
  195.8570  174.3480  139.2210 C   0  0  0  0  0  1  0  0  0  0  0  0
  1 10  2  0  0  0  0
  1 19  1  0  0  0  0
  2 23  1  1  0  0  0
  2 26  1  0  0  0  0
  3 11  1  0  0  0  0
  3  4  1  0  0  0  0
  4 20  1  0  0  0  0
  5  6  2  0  0  0  0
  5 27  1  0  0  0  0
  6 17  1  0  0  0  0
  7 23  1  0  0  0  0
  9 15  1  0  0  0  0
  9 25  1  0  0  0  0
 10 16  1  0  0  0  0
 12  8  1  6  0  0  0
 12  2  1  0  0  0  0
 13 11  1  6  0  0  0
 13 12  1  0  0  0  0
 13 21  1  0  0  0  0
 14 22  1  1  0  0  0
 16  8  1  0  0  0  0
 16  7  2  0  0  0  0
 17 15  2  0  0  0  0
 18  7  1  0  0  0  0
 19 18  2  0  0  0  0
 21 20  1  6  0  0  0
 21 14  1  0  0  0  0
 22 27  1  0  0  0  0
 24  6  1  0  0  0  0
 26 14  1  0  0  0  0
 26  5  1  1  0  0  0
 27  9  2  0  0  0  0
 28 19  1  0  0  0  0
 28 29  1  0  0  0  0
 29 30  1  0  0  0  0
 30 31  2  0  0  0  0
 30 32  1  0  0  0  0
M  END
>  <MODEL>
9

>  <REMARK>
 VINA RESULT:      -8.2      4.331      9.309
  Name = 
  3 active torsions:
  status: ('A' for Active; 'I' for Inactive)
    1  A    between atoms: C_1  and  C_10
    2  A    between atoms: C_10  and  C_19
    3  A    between atoms: C_19  and  C_24
                            x       y       z     vdW  Elec       q    Type
                         _______ _______ _______ _____ _____    ______ ____

>  <TORSDO>
F 3

$$$$
