=
 OpenBabel10272415143D

 34 38  0  0  1  0  0  0  0  0999 V2000
  188.9820  177.4030  138.3960 C   0  0  1  0  0  0  0  0  0  0  0  0
  190.8810  174.1100  137.1540 C   0  0  0  0  0  2  0  0  0  0  0  0
  188.5560  174.8060  137.1040 C   0  0  0  0  0  3  0  0  0  0  0  0
  189.3880  178.8750  138.3540 C   0  0  0  0  0  1  0  0  0  0  0  0
  186.6190  178.0840  137.6450 C   0  0  0  0  0  3  0  0  0  0  0  0
  185.0530  176.3250  136.7800 C   0  0  0  0  0  2  0  0  0  0  0  0
  185.3750  177.7070  137.3050 C   0  0  0  0  0  3  0  0  0  0  0  0
  187.3930  175.7130  137.3750 C   0  0  1  0  0  3  0  0  0  0  0  0
  187.8130  177.1850  137.4140 C   0  0  2  0  0  3  0  0  0  0  0  0
  186.2930  175.5410  136.3390 C   0  0  0  0  0  2  0  0  0  0  0  0
  192.0690  174.6890  136.3990 C   0  0  0  0  0  2  0  0  0  0  0  0
  193.0810  175.2750  137.3770 C   0  0  2  0  0  3  0  0  0  0  0  0
  192.6690  176.6620  137.8640 C   0  0  0  0  0  2  0  0  0  0  0  0
  189.8200  175.1410  137.4090 C   0  0  0  0  0  0  0  0  0  0  0  0
  191.4330  176.6060  138.7480 C   0  0  0  0  0  2  0  0  0  0  0  0
  190.1720  176.5460  137.8860 C   0  0  2  0  0  3  0  0  0  0  0  0
  194.3900  175.3460  136.7460 N   0  0  0  0  0  0  0  0  0  0  0  0
  194.8720  176.5410  136.2630 O   0  0  0  0  0  0  0  0  0  0  0  0
  195.0830  174.3140  136.6440 O   0  0  0  0  0  0  0  0  0  0  0  0
  188.5320  177.0010  139.8180 C   0  0  0  0  0  2  0  0  0  0  0  0
  188.7200  178.0880  140.8710 C   0  0  0  0  0  2  0  0  0  0  0  0
  185.5300  179.4890  142.2230 C   0  0  0  0  0  2  0  0  0  0  0  0
  187.4900  177.5740  142.9830 C   0  0  0  0  0  3  0  0  0  0  0  0
  184.3680  178.3460  145.7120 C   0  0  0  0  0  2  0  0  0  0  0  0
  184.5910  179.2610  144.5080 C   0  0  0  0  0  2  0  0  0  0  0  0
  185.2110  178.4960  143.3410 C   0  0  2  0  0  3  0  0  0  0  0  0
  186.3970  176.9540  145.0730 C   0  0  0  0  0  2  0  0  0  0  0  0
  186.4400  177.7320  143.7930 C   0  0  0  0  0  0  0  0  0  0  0  0
  185.6840  177.7240  146.1900 C   0  0  1  0  0  3  0  0  0  0  0  0
  187.5270  178.1950  141.6920 N   0  0  0  0  0  0  0  0  0  0  0  0
  186.3270  178.8000  141.1230 C   0  0  0  0  0  2  0  0  0  0  0  0
  186.5820  178.7240  146.8510 C   0  0  0  0  0  0  0  0  0  0  0  0
  187.8820  178.4860  146.9240 C   0  0  0  0  0  2  0  0  0  0  0  0
  186.0660  179.8920  147.3990 O   0  0  0  0  0  1  0  0  0  0  0  0
  1  4  1  6  0  0  0
  1 20  1  0  0  0  0
  2 14  1  0  0  0  0
  3  8  1  0  0  0  0
  3 14  2  0  0  0  0
  6  7  1  0  0  0  0
  7  5  2  0  0  0  0
  8 10  1  6  0  0  0
  8  9  1  0  0  0  0
  9  5  1  1  0  0  0
  9  1  1  0  0  0  0
 10  6  1  0  0  0  0
 11  2  1  0  0  0  0
 11 12  1  0  0  0  0
 12 17  1  6  0  0  0
 12 13  1  0  0  0  0
 13 15  1  0  0  0  0
 14 16  1  0  0  0  0
 16  1  1  0  0  0  0
 16 15  1  1  0  0  0
 18 17  2  0  0  0  0
 19 17  2  0  0  0  0
 20 21  1  0  0  0  0
 21 30  1  0  0  0  0
 23 28  2  0  0  0  0
 24 29  1  0  0  0  0
 25 24  1  0  0  0  0
 26 22  1  6  0  0  0
 26 28  1  0  0  0  0
 26 25  1  0  0  0  0
 27 29  1  0  0  0  0
 28 27  1  0  0  0  0
 29 32  1  6  0  0  0
 30 23  1  0  0  0  0
 31 30  1  0  0  0  0
 31 22  1  0  0  0  0
 32 33  2  0  0  0  0
 32 34  1  0  0  0  0
M  END
>  <MODEL>
1

>  <REMARK>
 VINA RESULT:      -8.2      0.000      0.000
  Name = 
  5 active torsions:
  status: ('A' for Active; 'I' for Inactive)
    1  A    between atoms: C_1  and  C_8
    2  A    between atoms: N_3  and  C_25
    3  A    between atoms: C_8  and  C_18
    4  A    between atoms: C_11  and  C_29
    5  A    between atoms: C_18  and  N_30
                            x       y       z     vdW  Elec       q    Type
                         _______ _______ _______ _____ _____    ______ ____

>  <TORSDO>
F 5

$$$$
=
 OpenBabel10272415143D

 34 38  0  0  1  0  0  0  0  0999 V2000
  188.9330  177.2940  137.3710 C   0  0  1  0  0  0  0  0  0  0  0  0
  190.9660  173.8580  137.1530 C   0  0  0  0  0  2  0  0  0  0  0  0
  188.6880  174.4780  136.5930 C   0  0  0  0  0  3  0  0  0  0  0  0
  189.3570  178.7340  137.0910 C   0  0  0  0  0  1  0  0  0  0  0  0
  186.7270  177.7550  136.1310 C   0  0  0  0  0  3  0  0  0  0  0  0
  185.2990  175.8220  135.4110 C   0  0  0  0  0  2  0  0  0  0  0  0
  185.5500  177.2890  135.6840 C   0  0  0  0  0  3  0  0  0  0  0  0
  187.5070  175.3960  136.4830 C   0  0  1  0  0  3  0  0  0  0  0  0
  187.9330  176.8540  136.2830 C   0  0  2  0  0  3  0  0  0  0  0  0
  186.5850  174.9910  135.3440 C   0  0  0  0  0  2  0  0  0  0  0  0
  192.2660  174.2940  136.4930 C   0  0  0  0  0  2  0  0  0  0  0  0
  193.1170  175.0910  137.4760 C   0  0  2  0  0  3  0  0  0  0  0  0
  192.6490  176.5390  137.5950 C   0  0  0  0  0  2  0  0  0  0  0  0
  189.8910  174.8960  137.0180 C   0  0  0  0  0  0  0  0  0  0  0  0
  191.2860  176.6400  138.2640 C   0  0  0  0  0  2  0  0  0  0  0  0
  190.1780  176.3770  137.2440 C   0  0  2  0  0  3  0  0  0  0  0  0
  194.5100  175.0590  137.0600 N   0  0  0  0  0  0  0  0  0  0  0  0
  195.0330  176.0660  136.2810 O   0  0  0  0  0  0  0  0  0  0  0  0
  195.2380  174.1100  137.4140 O   0  0  0  0  0  0  0  0  0  0  0  0
  188.2570  177.1840  138.7560 C   0  0  0  0  0  2  0  0  0  0  0  0
  188.2850  178.4690  139.5770 C   0  0  0  0  0  2  0  0  0  0  0  0
  185.8660  179.1920  142.3310 C   0  0  0  0  0  2  0  0  0  0  0  0
  188.0930  177.4870  141.8650 C   0  0  0  0  0  3  0  0  0  0  0  0
  186.3560  177.4070  145.7080 C   0  0  0  0  0  2  0  0  0  0  0  0
  185.9890  178.5070  144.7130 C   0  0  0  0  0  2  0  0  0  0  0  0
  186.1160  178.0140  143.2740 C   0  0  2  0  0  3  0  0  0  0  0  0
  188.0240  176.4250  144.0590 C   0  0  0  0  0  2  0  0  0  0  0  0
  187.4720  177.3760  143.0420 C   0  0  0  0  0  0  0  0  0  0  0  0
  187.7920  176.9160  145.4920 C   0  0  1  0  0  3  0  0  0  0  0  0
  187.5420  178.2860  140.8110 N   0  0  0  0  0  0  0  0  0  0  0  0
  186.1750  178.7880  140.8960 C   0  0  0  0  0  2  0  0  0  0  0  0
  188.8120  177.9290  145.9140 C   0  0  0  0  0  0  0  0  0  0  0  0
  188.8100  178.3780  147.1590 C   0  0  0  0  0  2  0  0  0  0  0  0
  189.7520  178.4120  145.0120 O   0  0  0  0  0  1  0  0  0  0  0  0
  1  4  1  6  0  0  0
  1 20  1  0  0  0  0
  3 14  2  0  0  0  0
  6  7  1  0  0  0  0
  7  5  2  0  0  0  0
  8 10  1  6  0  0  0
  8  3  1  0  0  0  0
  9  5  1  1  0  0  0
  9  8  1  0  0  0  0
  9  1  1  0  0  0  0
 10  6  1  0  0  0  0
 11  2  1  0  0  0  0
 11 12  1  0  0  0  0
 12 17  1  6  0  0  0
 12 13  1  0  0  0  0
 13 15  1  0  0  0  0
 14  2  1  0  0  0  0
 14 16  1  0  0  0  0
 16  1  1  0  0  0  0
 16 15  1  1  0  0  0
 17 19  2  0  0  0  0
 18 17  2  0  0  0  0
 20 21  1  0  0  0  0
 21 30  1  0  0  0  0
 23 28  2  0  0  0  0
 25 24  1  0  0  0  0
 26 22  1  6  0  0  0
 26 25  1  0  0  0  0
 27 29  1  0  0  0  0
 28 26  1  0  0  0  0
 28 27  1  0  0  0  0
 29 24  1  0  0  0  0
 29 32  1  6  0  0  0
 30 31  1  0  0  0  0
 30 23  1  0  0  0  0
 31 22  1  0  0  0  0
 32 33  2  0  0  0  0
 34 32  1  0  0  0  0
M  END
>  <MODEL>
2

>  <REMARK>
 VINA RESULT:      -8.1      1.270      1.447
  Name = 
  5 active torsions:
  status: ('A' for Active; 'I' for Inactive)
    1  A    between atoms: C_1  and  C_8
    2  A    between atoms: N_3  and  C_25
    3  A    between atoms: C_8  and  C_18
    4  A    between atoms: C_11  and  C_29
    5  A    between atoms: C_18  and  N_30
                            x       y       z     vdW  Elec       q    Type
                         _______ _______ _______ _____ _____    ______ ____

>  <TORSDO>
F 5

$$$$
=
 OpenBabel10272415143D

 34 38  0  0  1  0  0  0  0  0999 V2000
  183.7060  178.1600  139.4700 C   0  0  1  0  0  0  0  0  0  0  0  0
  185.4240  175.4440  137.0910 C   0  0  0  0  0  2  0  0  0  0  0  0
  183.3570  175.4680  138.3620 C   0  0  0  0  0  3  0  0  0  0  0  0
  183.6170  179.6810  139.3600 C   0  0  0  0  0  1  0  0  0  0  0  0
  181.2320  178.1150  140.1720 C   0  0  0  0  0  3  0  0  0  0  0  0
  179.9820  175.9410  140.1150 C   0  0  0  0  0  2  0  0  0  0  0  0
  180.1570  177.3890  140.5170 C   0  0  0  0  0  3  0  0  0  0  0  0
  182.3340  176.0360  139.3010 C   0  0  1  0  0  3  0  0  0  0  0  0
  182.3000  177.5670  139.2520 C   0  0  2  0  0  3  0  0  0  0  0  0
  180.9420  175.5020  139.0040 C   0  0  0  0  0  2  0  0  0  0  0  0
  185.8110  176.2760  135.8780 C   0  0  0  0  0  2  0  0  0  0  0  0
  186.9920  177.1810  136.2120 C   0  0  2  0  0  3  0  0  0  0  0  0
  186.5590  178.4290  136.9760 C   0  0  0  0  0  2  0  0  0  0  0  0
  184.4420  176.1570  137.9730 C   0  0  0  0  0  0  0  0  0  0  0  0
  186.0640  178.0930  138.3750 C   0  0  0  0  0  2  0  0  0  0  0  0
  184.6070  177.6330  138.3210 C   0  0  2  0  0  3  0  0  0  0  0  0
  187.6780  177.5680  134.9890 N   0  0  0  0  0  0  0  0  0  0  0  0
  188.7490  176.8380  134.5250 O   0  0  0  0  0  0  0  0  0  0  0  0
  187.2910  178.5690  134.3550 O   0  0  0  0  0  0  0  0  0  0  0  0
  184.2230  177.7430  140.8640 C   0  0  0  0  0  2  0  0  0  0  0  0
  184.3350  178.8880  141.8650 C   0  0  0  0  0  2  0  0  0  0  0  0
  185.6910  178.8960  145.3480 C   0  0  0  0  0  2  0  0  0  0  0  0
  186.3100  177.7090  142.8380 C   0  0  0  0  0  3  0  0  0  0  0  0
  188.9610  176.9810  146.0370 C   0  0  0  0  0  2  0  0  0  0  0  0
  187.8860  178.0610  146.1500 C   0  0  0  0  0  2  0  0  0  0  0  0
  186.6680  177.7190  145.2970 C   0  0  2  0  0  3  0  0  0  0  0  0
  188.2580  176.4830  143.6450 C   0  0  0  0  0  2  0  0  0  0  0  0
  187.0830  177.3840  143.8770 C   0  0  0  0  0  0  0  0  0  0  0  0
  189.4240  176.8040  144.5870 C   0  0  1  0  0  3  0  0  0  0  0  0
  185.1050  178.4640  143.0210 N   0  0  0  0  0  0  0  0  0  0  0  0
  184.5570  178.6760  144.3560 C   0  0  0  0  0  2  0  0  0  0  0  0
  190.2400  177.9620  144.1020 C   0  0  0  0  0  0  0  0  0  0  0  0
  191.3170  178.3310  144.7780 C   0  0  0  0  0  2  0  0  0  0  0  0
  189.8750  178.6630  142.9580 O   0  0  0  0  0  1  0  0  0  0  0  0
  1  4  1  6  0  0  0
  1 20  1  0  0  0  0
  2 14  1  0  0  0  0
  5  7  2  0  0  0  0
  6  7  1  0  0  0  0
  8  3  1  6  0  0  0
  9  8  1  0  0  0  0
  9  1  1  0  0  0  0
  9  5  1  1  0  0  0
 10  8  1  0  0  0  0
 10  6  1  0  0  0  0
 11 12  1  0  0  0  0
 11  2  1  0  0  0  0
 12 17  1  6  0  0  0
 12 13  1  0  0  0  0
 13 15  1  0  0  0  0
 14 16  1  0  0  0  0
 14  3  2  0  0  0  0
 16 15  1  1  0  0  0
 16  1  1  0  0  0  0
 18 17  2  0  0  0  0
 19 17  2  0  0  0  0
 20 21  1  0  0  0  0
 21 30  1  0  0  0  0
 23 30  1  0  0  0  0
 23 28  2  0  0  0  0
 24 25  1  0  0  0  0
 26 22  1  6  0  0  0
 26 25  1  0  0  0  0
 27 28  1  0  0  0  0
 27 29  1  0  0  0  0
 28 26  1  0  0  0  0
 29 32  1  6  0  0  0
 29 24  1  0  0  0  0
 30 31  1  0  0  0  0
 31 22  1  0  0  0  0
 32 33  2  0  0  0  0
 34 32  1  0  0  0  0
M  END
>  <MODEL>
3

>  <REMARK>
 VINA RESULT:      -8.1      3.640      5.277
  Name = 
  5 active torsions:
  status: ('A' for Active; 'I' for Inactive)
    1  A    between atoms: C_1  and  C_8
    2  A    between atoms: N_3  and  C_25
    3  A    between atoms: C_8  and  C_18
    4  A    between atoms: C_11  and  C_29
    5  A    between atoms: C_18  and  N_30
                            x       y       z     vdW  Elec       q    Type
                         _______ _______ _______ _____ _____    ______ ____

>  <TORSDO>
F 5

$$$$
=
 OpenBabel10272415143D

 34 38  0  0  1  0  0  0  0  0999 V2000
  187.8590  177.4710  143.9540 C   0  0  1  0  0  0  0  0  0  0  0  0
  189.6950  178.2290  147.4250 C   0  0  0  0  0  2  0  0  0  0  0  0
  187.4470  178.6470  146.6080 C   0  0  0  0  0  3  0  0  0  0  0  0
  187.9410  176.2700  143.0140 C   0  0  0  0  0  1  0  0  0  0  0  0
  185.3080  177.4890  143.6290 C   0  0  0  0  0  3  0  0  0  0  0  0
  183.8790  178.8000  145.2200 C   0  0  0  0  0  2  0  0  0  0  0  0
  184.1220  178.0380  143.9360 C   0  0  0  0  0  3  0  0  0  0  0  0
  186.3360  178.6500  145.6010 C   0  0  1  0  0  3  0  0  0  0  0  0
  186.4620  177.4920  144.6060 C   0  0  2  0  0  3  0  0  0  0  0  0
  184.9720  178.5780  146.2710 C   0  0  0  0  0  2  0  0  0  0  0  0
  190.3710  176.9000  147.7290 C   0  0  0  0  0  2  0  0  0  0  0  0
  191.5570  176.6850  146.7960 C   0  0  2  0  0  3  0  0  0  0  0  0
  191.1210  176.1900  145.4200 C   0  0  0  0  0  2  0  0  0  0  0  0
  188.6470  178.0970  146.3590 C   0  0  0  0  0  0  0  0  0  0  0  0
  190.3550  177.2560  144.6510 C   0  0  0  0  0  2  0  0  0  0  0  0
  188.8930  177.2780  145.0960 C   0  0  2  0  0  3  0  0  0  0  0  0
  192.4830  175.7330  147.3890 N   0  0  0  0  0  0  0  0  0  0  0  0
  193.0870  176.0010  148.5960 O   0  0  0  0  0  0  0  0  0  0  0  0
  192.7320  174.6630  146.7970 O   0  0  0  0  0  0  0  0  0  0  0  0
  188.0760  178.7890  143.1780 C   0  0  0  0  0  2  0  0  0  0  0  0
  188.7390  178.6170  141.8150 C   0  0  0  0  0  2  0  0  0  0  0  0
  185.3540  178.4130  140.2440 C   0  0  0  0  0  2  0  0  0  0  0  0
  188.0710  178.1170  139.4600 C   0  0  0  0  0  3  0  0  0  0  0  0
  185.1150  177.3500  136.5510 C   0  0  0  0  0  2  0  0  0  0  0  0
  184.7360  177.4950  138.0240 C   0  0  0  0  0  2  0  0  0  0  0  0
  185.7070  178.4170  138.7560 C   0  0  2  0  0  3  0  0  0  0  0  0
  187.5770  177.6290  137.1230 C   0  0  0  0  0  2  0  0  0  0  0  0
  187.1420  177.9900  138.5100 C   0  0  0  0  0  0  0  0  0  0  0  0
  186.5300  176.7810  136.3930 C   0  0  1  0  0  3  0  0  0  0  0  0
  187.7280  178.5800  140.7730 N   0  0  0  0  0  0  0  0  0  0  0  0
  186.4170  179.1630  141.0360 C   0  0  0  0  0  2  0  0  0  0  0  0
  186.6090  175.3340  136.7730 C   0  0  0  0  0  0  0  0  0  0  0  0
  187.7920  174.7750  136.9710 C   0  0  0  0  0  2  0  0  0  0  0  0
  185.4570  174.5680  136.9070 O   0  0  0  0  0  1  0  0  0  0  0  0
  1  4  1  6  0  0  0
  1  9  1  0  0  0  0
  1 16  1  0  0  0  0
  2 11  1  0  0  0  0
  5  7  2  0  0  0  0
  6 10  1  0  0  0  0
  7  6  1  0  0  0  0
  8 10  1  1  0  0  0
  8  3  1  0  0  0  0
  9  5  1  6  0  0  0
  9  8  1  0  0  0  0
 12 17  1  1  0  0  0
 12 11  1  0  0  0  0
 13 12  1  0  0  0  0
 14  3  2  0  0  0  0
 14  2  1  0  0  0  0
 15 13  1  0  0  0  0
 16 15  1  6  0  0  0
 16 14  1  0  0  0  0
 17 18  2  0  0  0  0
 19 17  2  0  0  0  0
 20  1  1  0  0  0  0
 21 20  1  0  0  0  0
 22 31  1  0  0  0  0
 23 30  1  0  0  0  0
 24 25  1  0  0  0  0
 26 25  1  6  0  0  0
 26 22  1  0  0  0  0
 27 28  1  0  0  0  0
 28 26  1  0  0  0  0
 28 23  2  0  0  0  0
 29 24  1  0  0  0  0
 29 32  1  1  0  0  0
 29 27  1  0  0  0  0
 30 31  1  0  0  0  0
 30 21  1  0  0  0  0
 32 34  1  0  0  0  0
 32 33  2  0  0  0  0
M  END
>  <MODEL>
4

>  <REMARK>
 VINA RESULT:      -7.6      3.669      8.207
  Name = 
  5 active torsions:
  status: ('A' for Active; 'I' for Inactive)
    1  A    between atoms: C_1  and  C_8
    2  A    between atoms: N_3  and  C_25
    3  A    between atoms: C_8  and  C_18
    4  A    between atoms: C_11  and  C_29
    5  A    between atoms: C_18  and  N_30
                            x       y       z     vdW  Elec       q    Type
                         _______ _______ _______ _____ _____    ______ ____

>  <TORSDO>
F 5

$$$$
=
 OpenBabel10272415143D

 34 38  0  0  1  0  0  0  0  0999 V2000
  188.9620  177.2260  137.8760 C   0  0  1  0  0  0  0  0  0  0  0  0
  190.8580  173.8800  136.7820 C   0  0  0  0  0  2  0  0  0  0  0  0
  188.5230  174.5400  136.7830 C   0  0  0  0  0  3  0  0  0  0  0  0
  189.3420  178.6960  137.7170 C   0  0  0  0  0  1  0  0  0  0  0  0
  186.5590  177.8230  137.1810 C   0  0  0  0  0  3  0  0  0  0  0  0
  184.9860  175.9890  136.5050 C   0  0  0  0  0  2  0  0  0  0  0  0
  185.3080  177.4080  136.9210 C   0  0  0  0  0  3  0  0  0  0  0  0
  187.3580  175.4490  137.0410 C   0  0  1  0  0  3  0  0  0  0  0  0
  187.7570  176.9260  136.9620 C   0  0  2  0  0  3  0  0  0  0  0  0
  186.2200  175.1930  136.0660 C   0  0  0  0  0  2  0  0  0  0  0  0
  192.0050  174.4200  135.9400 C   0  0  0  0  0  2  0  0  0  0  0  0
  193.0480  175.0850  136.8320 C   0  0  2  0  0  3  0  0  0  0  0  0
  192.6350  176.4960  137.2400 C   0  0  0  0  0  2  0  0  0  0  0  0
  189.7930  174.9120  137.0110 C   0  0  0  0  0  0  0  0  0  0  0  0
  191.4370  176.4860  138.1780 C   0  0  0  0  0  2  0  0  0  0  0  0
  190.1420  176.3510  137.3760 C   0  0  2  0  0  3  0  0  0  0  0  0
  194.3290  175.1290  136.1430 N   0  0  0  0  0  0  0  0  0  0  0  0
  194.7450  174.0710  135.3680 O   0  0  0  0  0  0  0  0  0  0  0  0
  195.0560  176.1360  136.2560 O   0  0  0  0  0  0  0  0  0  0  0  0
  188.5770  176.9160  139.3400 C   0  0  0  0  0  2  0  0  0  0  0  0
  188.7450  178.0910  140.2990 C   0  0  0  0  0  2  0  0  0  0  0  0
  190.7340  175.8750  142.5570 C   0  0  0  0  0  2  0  0  0  0  0  0
  189.3900  178.3770  142.6950 C   0  0  0  0  0  3  0  0  0  0  0  0
  191.1180  176.9020  146.2480 C   0  0  0  0  0  2  0  0  0  0  0  0
  190.9720  176.0000  145.0230 C   0  0  0  0  0  2  0  0  0  0  0  0
  191.0170  176.8120  143.7320 C   0  0  2  0  0  3  0  0  0  0  0  0
  189.9530  178.8040  145.0290 C   0  0  0  0  0  2  0  0  0  0  0  0
  190.0360  177.9670  143.7890 C   0  0  0  0  0  0  0  0  0  0  0  0
  190.0040  177.9540  146.3020 C   0  0  1  0  0  3  0  0  0  0  0  0
  189.5340  177.6840  141.4480 N   0  0  0  0  0  0  0  0  0  0  0  0
  190.5760  176.6780  141.2730 C   0  0  0  0  0  2  0  0  0  0  0  0
  188.6720  177.3580  146.6380 C   0  0  0  0  0  0  0  0  0  0  0  0
  188.4610  176.8720  147.8510 C   0  0  0  0  0  2  0  0  0  0  0  0
  187.6580  177.2980  145.6890 O   0  0  0  0  0  1  0  0  0  0  0  0
  1  4  1  6  0  0  0
  1 20  1  0  0  0  0
  2 14  1  0  0  0  0
  3 14  2  0  0  0  0
  3  8  1  0  0  0  0
  6  7  1  0  0  0  0
  7  5  2  0  0  0  0
  8 10  1  6  0  0  0
  9  8  1  0  0  0  0
  9  5  1  1  0  0  0
  9  1  1  0  0  0  0
 10  6  1  0  0  0  0
 11  2  1  0  0  0  0
 11 12  1  0  0  0  0
 12 17  1  6  0  0  0
 12 13  1  0  0  0  0
 13 15  1  0  0  0  0
 14 16  1  0  0  0  0
 16  1  1  0  0  0  0
 16 15  1  1  0  0  0
 17 19  2  0  0  0  0
 18 17  2  0  0  0  0
 20 21  1  0  0  0  0
 21 30  1  0  0  0  0
 23 28  2  0  0  0  0
 24 29  1  0  0  0  0
 25 24  1  0  0  0  0
 26 22  1  6  0  0  0
 26 28  1  0  0  0  0
 26 25  1  0  0  0  0
 27 29  1  0  0  0  0
 28 27  1  0  0  0  0
 29 32  1  6  0  0  0
 30 23  1  0  0  0  0
 31 30  1  0  0  0  0
 31 22  1  0  0  0  0
 32 33  2  0  0  0  0
 34 32  1  0  0  0  0
M  END
>  <MODEL>
5

>  <REMARK>
 VINA RESULT:      -7.3      2.100      2.938
  Name = 
  5 active torsions:
  status: ('A' for Active; 'I' for Inactive)
    1  A    between atoms: C_1  and  C_8
    2  A    between atoms: N_3  and  C_25
    3  A    between atoms: C_8  and  C_18
    4  A    between atoms: C_11  and  C_29
    5  A    between atoms: C_18  and  N_30
                            x       y       z     vdW  Elec       q    Type
                         _______ _______ _______ _____ _____    ______ ____

>  <TORSDO>
F 5

$$$$
=
 OpenBabel10272415143D

 34 38  0  0  1  0  0  0  0  0999 V2000
  187.8390  177.3360  144.1800 C   0  0  1  0  0  0  0  0  0  0  0  0
  191.3060  178.5310  142.5850 C   0  0  0  0  0  2  0  0  0  0  0  0
  190.4310  178.5340  144.8490 C   0  0  0  0  0  3  0  0  0  0  0  0
  186.9550  176.1290  143.8760 C   0  0  0  0  0  1  0  0  0  0  0  0
  187.4670  176.9140  146.6900 C   0  0  0  0  0  3  0  0  0  0  0  0
  188.9730  178.0330  148.3570 C   0  0  0  0  0  2  0  0  0  0  0  0
  187.7280  177.2700  147.9590 C   0  0  0  0  0  3  0  0  0  0  0  0
  189.4040  178.3100  145.9200 C   0  0  1  0  0  3  0  0  0  0  0  0
  188.4650  177.1500  145.5780 C   0  0  2  0  0  3  0  0  0  0  0  0
  190.0520  178.0390  147.2690 C   0  0  0  0  0  2  0  0  0  0  0  0
  191.6810  177.3470  141.7060 C   0  0  0  0  0  2  0  0  0  0  0  0
  190.7800  177.2950  140.4770 C   0  0  2  0  0  3  0  0  0  0  0  0
  189.4200  176.6780  140.7900 C   0  0  0  0  0  2  0  0  0  0  0  0
  190.2280  178.1820  143.5690 C   0  0  0  0  0  0  0  0  0  0  0  0
  188.5910  177.5700  141.7020 C   0  0  0  0  0  2  0  0  0  0  0  0
  189.0070  177.3650  143.1580 C   0  0  2  0  0  3  0  0  0  0  0  0
  191.4310  176.5360  139.4200 N   0  0  0  0  0  0  0  0  0  0  0  0
  190.8030  175.4550  138.8440 O   0  0  0  0  0  0  0  0  0  0  0  0
  192.5690  176.8680  139.0340 O   0  0  0  0  0  0  0  0  0  0  0  0
  187.0090  178.6390  144.1650 C   0  0  0  0  0  2  0  0  0  0  0  0
  185.6620  178.5370  144.8730 C   0  0  0  0  0  2  0  0  0  0  0  0
  182.1930  178.6660  143.4900 C   0  0  0  0  0  2  0  0  0  0  0  0
  184.8630  178.8420  142.5260 C   0  0  0  0  0  3  0  0  0  0  0  0
  181.7580  178.9360  139.6730 C   0  0  0  0  0  2  0  0  0  0  0  0
  181.4710  178.5360  141.1190 C   0  0  0  0  0  2  0  0  0  0  0  0
  182.4460  179.2090  142.0820 C   0  0  2  0  0  3  0  0  0  0  0  0
  184.2370  179.1630  140.1910 C   0  0  0  0  0  2  0  0  0  0  0  0
  183.8790  178.9900  141.6360 C   0  0  0  0  0  0  0  0  0  0  0  0
  183.1840  178.5520  139.2600 C   0  0  1  0  0  3  0  0  0  0  0  0
  184.5870  178.7970  143.9320 N   0  0  0  0  0  0  0  0  0  0  0  0
  183.2700  179.1640  144.4430 C   0  0  0  0  0  2  0  0  0  0  0  0
  183.3550  177.0730  139.1050 C   0  0  0  0  0  0  0  0  0  0  0  0
  184.1100  176.6020  138.1250 C   0  0  0  0  0  2  0  0  0  0  0  0
  182.7220  176.1880  139.9700 O   0  0  0  0  0  1  0  0  0  0  0  0
  1  4  1  6  0  0  0
  1  9  1  0  0  0  0
  2 14  1  0  0  0  0
  5  7  2  0  0  0  0
  7  6  1  0  0  0  0
  8  3  1  6  0  0  0
  8 10  1  0  0  0  0
  9  8  1  0  0  0  0
  9  5  1  1  0  0  0
 10  6  1  0  0  0  0
 11  2  1  0  0  0  0
 12 17  1  6  0  0  0
 12 13  1  0  0  0  0
 12 11  1  0  0  0  0
 13 15  1  0  0  0  0
 14  3  2  0  0  0  0
 16 15  1  6  0  0  0
 16 14  1  0  0  0  0
 16  1  1  0  0  0  0
 18 17  2  0  0  0  0
 19 17  2  0  0  0  0
 20  1  1  0  0  0  0
 20 21  1  0  0  0  0
 22 31  1  0  0  0  0
 23 30  1  0  0  0  0
 24 25  1  0  0  0  0
 26 25  1  6  0  0  0
 26 22  1  0  0  0  0
 27 28  1  0  0  0  0
 28 26  1  0  0  0  0
 28 23  2  0  0  0  0
 29 32  1  1  0  0  0
 29 24  1  0  0  0  0
 29 27  1  0  0  0  0
 30 31  1  0  0  0  0
 30 21  1  0  0  0  0
 32 34  1  0  0  0  0
 33 32  2  0  0  0  0
M  END
>  <MODEL>
6

>  <REMARK>
 VINA RESULT:      -7.2      3.234      6.883
  Name = 
  5 active torsions:
  status: ('A' for Active; 'I' for Inactive)
    1  A    between atoms: C_1  and  C_8
    2  A    between atoms: N_3  and  C_25
    3  A    between atoms: C_8  and  C_18
    4  A    between atoms: C_11  and  C_29
    5  A    between atoms: C_18  and  N_30
                            x       y       z     vdW  Elec       q    Type
                         _______ _______ _______ _____ _____    ______ ____

>  <TORSDO>
F 5

$$$$
=
 OpenBabel10272415143D

 34 38  0  0  1  0  0  0  0  0999 V2000
  188.9710  177.2140  137.5370 C   0  0  1  0  0  0  0  0  0  0  0  0
  191.0930  173.8720  136.9710 C   0  0  0  0  0  2  0  0  0  0  0  0
  188.7960  174.4840  136.4800 C   0  0  0  0  0  3  0  0  0  0  0  0
  189.3570  178.6850  137.4020 C   0  0  0  0  0  1  0  0  0  0  0  0
  186.7490  177.7380  136.3530 C   0  0  0  0  0  3  0  0  0  0  0  0
  185.3690  175.8490  135.4460 C   0  0  0  0  0  2  0  0  0  0  0  0
  185.5820  177.2880  135.8640 C   0  0  0  0  0  3  0  0  0  0  0  0
  187.5910  175.3770  136.4660 C   0  0  1  0  0  3  0  0  0  0  0  0
  187.9780  176.8580  136.4120 C   0  0  2  0  0  3  0  0  0  0  0  0
  186.6750  175.0640  135.2930 C   0  0  0  0  0  2  0  0  0  0  0  0
  192.3780  174.4060  136.3550 C   0  0  0  0  0  2  0  0  0  0  0  0
  193.2120  175.1230  137.4120 C   0  0  2  0  0  3  0  0  0  0  0  0
  192.7070  176.5380  137.6760 C   0  0  0  0  0  2  0  0  0  0  0  0
  189.9900  174.8890  136.9430 C   0  0  0  0  0  0  0  0  0  0  0  0
  191.3450  176.5360  138.3550 C   0  0  0  0  0  2  0  0  0  0  0  0
  190.2400  176.3470  137.3160 C   0  0  2  0  0  3  0  0  0  0  0  0
  194.6040  175.1690  136.9920 N   0  0  0  0  0  0  0  0  0  0  0  0
  195.6190  175.0390  137.9130 O   0  0  0  0  0  0  0  0  0  0  0  0
  194.8800  175.3280  135.7870 O   0  0  0  0  0  0  0  0  0  0  0  0
  188.3050  176.9470  138.9050 C   0  0  0  0  0  2  0  0  0  0  0  0
  188.4210  178.0980  139.8990 C   0  0  0  0  0  2  0  0  0  0  0  0
  185.6390  178.3310  142.3830 C   0  0  0  0  0  2  0  0  0  0  0  0
  185.9850  178.5360  139.5680 C   0  0  0  0  0  3  0  0  0  0  0  0
  182.0520  178.8110  141.0670 C   0  0  0  0  0  2  0  0  0  0  0  0
  183.1930  178.3360  141.9640 C   0  0  0  0  0  2  0  0  0  0  0  0
  184.5250  178.9470  141.5350 C   0  0  2  0  0  3  0  0  0  0  0  0
  183.6370  178.9880  139.0870 C   0  0  0  0  0  2  0  0  0  0  0  0
  184.7570  178.7400  140.0510 C   0  0  0  0  0  0  0  0  0  0  0  0
  182.3030  178.4380  139.6010 C   0  0  1  0  0  3  0  0  0  0  0  0
  187.1140  178.4170  140.4430 N   0  0  0  0  0  0  0  0  0  0  0  0
  186.9990  178.7680  141.8550 C   0  0  0  0  0  2  0  0  0  0  0  0
  182.1640  176.9680  139.3540 C   0  0  0  0  0  0  0  0  0  0  0  0
  183.0020  176.3620  138.5280 C   0  0  0  0  0  2  0  0  0  0  0  0
  181.1580  176.2330  139.9720 O   0  0  0  0  0  1  0  0  0  0  0  0
  1  4  1  6  0  0  0
  1 20  1  0  0  0  0
  3 14  2  0  0  0  0
  6  7  1  0  0  0  0
  7  5  2  0  0  0  0
  8 10  1  6  0  0  0
  8  3  1  0  0  0  0
  9  5  1  1  0  0  0
  9  8  1  0  0  0  0
  9  1  1  0  0  0  0
 10  6  1  0  0  0  0
 11  2  1  0  0  0  0
 11 12  1  0  0  0  0
 12 17  1  6  0  0  0
 12 13  1  0  0  0  0
 13 15  1  0  0  0  0
 14  2  1  0  0  0  0
 14 16  1  0  0  0  0
 16  1  1  0  0  0  0
 16 15  1  1  0  0  0
 17 18  2  0  0  0  0
 19 17  2  0  0  0  0
 20 21  1  0  0  0  0
 21 30  1  0  0  0  0
 23 28  2  0  0  0  0
 23 30  1  0  0  0  0
 24 25  1  0  0  0  0
 26 25  1  1  0  0  0
 26 22  1  0  0  0  0
 27 29  1  0  0  0  0
 27 28  1  0  0  0  0
 28 26  1  0  0  0  0
 29 32  1  1  0  0  0
 29 24  1  0  0  0  0
 30 31  1  0  0  0  0
 31 22  1  0  0  0  0
 32 34  1  0  0  0  0
 33 32  2  0  0  0  0
M  END
>  <MODEL>
7

>  <REMARK>
 VINA RESULT:      -7.0      2.503      3.730
  Name = 
  5 active torsions:
  status: ('A' for Active; 'I' for Inactive)
    1  A    between atoms: C_1  and  C_8
    2  A    between atoms: N_3  and  C_25
    3  A    between atoms: C_8  and  C_18
    4  A    between atoms: C_11  and  C_29
    5  A    between atoms: C_18  and  N_30
                            x       y       z     vdW  Elec       q    Type
                         _______ _______ _______ _____ _____    ______ ____

>  <TORSDO>
F 5

$$$$
=
 OpenBabel10272415143D

 34 38  0  0  1  0  0  0  0  0999 V2000
  189.0240  177.1890  137.7500 C   0  0  1  0  0  0  0  0  0  0  0  0
  191.1130  173.8550  137.0320 C   0  0  0  0  0  2  0  0  0  0  0  0
  188.7970  174.4770  136.6580 C   0  0  0  0  0  3  0  0  0  0  0  0
  189.4050  178.6620  137.6200 C   0  0  0  0  0  1  0  0  0  0  0  0
  186.7500  177.7340  136.6780 C   0  0  0  0  0  3  0  0  0  0  0  0
  185.3260  175.8610  135.8060 C   0  0  0  0  0  2  0  0  0  0  0  0
  185.5610  177.2920  136.2370 C   0  0  0  0  0  3  0  0  0  0  0  0
  187.5930  175.3710  136.7140 C   0  0  1  0  0  3  0  0  0  0  0  0
  187.9790  176.8530  136.6660 C   0  0  2  0  0  3  0  0  0  0  0  0
  186.6230  175.0770  135.5800 C   0  0  0  0  0  2  0  0  0  0  0  0
  192.3690  174.3990  136.3660 C   0  0  0  0  0  2  0  0  0  0  0  0
  193.2510  175.0980  137.3950 C   0  0  2  0  0  3  0  0  0  0  0  0
  192.7610  176.5090  137.7050 C   0  0  0  0  0  2  0  0  0  0  0  0
  190.0110  174.8740  137.0710 C   0  0  0  0  0  0  0  0  0  0  0  0
  191.4320  176.4970  138.4450 C   0  0  0  0  0  2  0  0  0  0  0  0
  190.2800  176.3250  137.4560 C   0  0  2  0  0  3  0  0  0  0  0  0
  194.6230  175.1510  136.9120 N   0  0  0  0  0  0  0  0  0  0  0  0
  195.6790  175.0270  137.7850 O   0  0  0  0  0  0  0  0  0  0  0  0
  194.8430  175.3080  135.6940 O   0  0  0  0  0  0  0  0  0  0  0  0
  188.4210  176.9000  139.1420 C   0  0  0  0  0  2  0  0  0  0  0  0
  189.4040  177.0500  140.2990 C   0  0  0  0  0  2  0  0  0  0  0  0
  187.9140  176.4810  143.6780 C   0  0  0  0  0  2  0  0  0  0  0  0
  187.6720  178.3460  141.5450 C   0  0  0  0  0  3  0  0  0  0  0  0
  185.0810  178.8160  144.8410 C   0  0  0  0  0  2  0  0  0  0  0  0
  185.9030  177.5390  144.6760 C   0  0  0  0  0  2  0  0  0  0  0  0
  187.2050  177.8130  143.9270 C   0  0  2  0  0  3  0  0  0  0  0  0
  185.9830  179.7210  142.6430 C   0  0  0  0  0  2  0  0  0  0  0  0
  186.9350  178.5640  142.6370 C   0  0  0  0  0  0  0  0  0  0  0  0
  184.7330  179.4350  143.4820 C   0  0  1  0  0  3  0  0  0  0  0  0
  188.6850  177.3330  141.5280 N   0  0  0  0  0  0  0  0  0  0  0  0
  189.1140  176.6900  142.7650 C   0  0  0  0  0  2  0  0  0  0  0  0
  183.7190  178.6290  142.7310 C   0  0  0  0  0  0  0  0  0  0  0  0
  182.4540  178.6460  143.1180 C   0  0  0  0  0  2  0  0  0  0  0  0
  184.0920  177.8550  141.6380 O   0  0  0  0  0  1  0  0  0  0  0  0
  1  4  1  6  0  0  0
  1 20  1  0  0  0  0
  2 14  1  0  0  0  0
  3  8  1  0  0  0  0
  3 14  2  0  0  0  0
  6  7  1  0  0  0  0
  7  5  2  0  0  0  0
  8 10  1  6  0  0  0
  9  5  1  1  0  0  0
  9  8  1  0  0  0  0
  9  1  1  0  0  0  0
 10  6  1  0  0  0  0
 11  2  1  0  0  0  0
 11 12  1  0  0  0  0
 12 17  1  6  0  0  0
 12 13  1  0  0  0  0
 13 15  1  0  0  0  0
 14 16  1  0  0  0  0
 16  1  1  0  0  0  0
 16 15  1  1  0  0  0
 17 18  2  0  0  0  0
 19 17  2  0  0  0  0
 20 21  1  0  0  0  0
 21 30  1  0  0  0  0
 23 28  2  0  0  0  0
 25 24  1  0  0  0  0
 26 22  1  6  0  0  0
 26 25  1  0  0  0  0
 27 29  1  0  0  0  0
 28 27  1  0  0  0  0
 28 26  1  0  0  0  0
 29 32  1  6  0  0  0
 29 24  1  0  0  0  0
 30 23  1  0  0  0  0
 30 31  1  0  0  0  0
 31 22  1  0  0  0  0
 32 33  2  0  0  0  0
 34 32  1  0  0  0  0
M  END
>  <MODEL>
8

>  <REMARK>
 VINA RESULT:      -7.0      1.575      2.444
  Name = 
  5 active torsions:
  status: ('A' for Active; 'I' for Inactive)
    1  A    between atoms: C_1  and  C_8
    2  A    between atoms: N_3  and  C_25
    3  A    between atoms: C_8  and  C_18
    4  A    between atoms: C_11  and  C_29
    5  A    between atoms: C_18  and  N_30
                            x       y       z     vdW  Elec       q    Type
                         _______ _______ _______ _____ _____    ______ ____

>  <TORSDO>
F 5

$$$$
=
 OpenBabel10272415143D

 34 38  0  0  1  0  0  0  0  0999 V2000
  190.4140  175.9850  136.6010 C   0  0  1  0  0  0  0  0  0  0  0  0
  193.4850  173.4270  136.7320 C   0  0  0  0  0  2  0  0  0  0  0  0
  191.0790  173.1290  136.6210 C   0  0  0  0  0  3  0  0  0  0  0  0
  190.2470  177.3210  135.8810 C   0  0  0  0  0  1  0  0  0  0  0  0
  188.0300  175.3510  135.8720 C   0  0  0  0  0  3  0  0  0  0  0  0
  187.2970  172.9570  136.0250 C   0  0  0  0  0  2  0  0  0  0  0  0
  187.0440  174.4390  135.8600 C   0  0  0  0  0  3  0  0  0  0  0  0
  189.6450  173.5700  136.5860 C   0  0  1  0  0  3  0  0  0  0  0  0
  189.4860  174.9480  135.9370 C   0  0  2  0  0  3  0  0  0  0  0  0
  188.7690  172.5710  135.8460 C   0  0  0  0  0  2  0  0  0  0  0  0
  194.4270  174.0010  135.6840 C   0  0  0  0  0  2  0  0  0  0  0  0
  195.0740  175.2820  136.2000 C   0  0  2  0  0  3  0  0  0  0  0  0
  194.1420  176.4840  136.0730 C   0  0  0  0  0  2  0  0  0  0  0  0
  192.1020  173.9990  136.6190 C   0  0  0  0  0  0  0  0  0  0  0  0
  192.9510  176.3790  137.0130 C   0  0  0  0  0  2  0  0  0  0  0  0
  191.8710  175.4900  136.3970 C   0  0  2  0  0  3  0  0  0  0  0  0
  196.3070  175.5390  135.4720 N   0  0  0  0  0  0  0  0  0  0  0  0
  197.2490  176.4080  135.9730 O   0  0  0  0  0  0  0  0  0  0  0  0
  196.5120  174.9650  134.3840 O   0  0  0  0  0  0  0  0  0  0  0  0
  190.0390  176.1180  138.0930 C   0  0  0  0  0  2  0  0  0  0  0  0
  189.7850  177.5490  138.5550 C   0  0  0  0  0  2  0  0  0  0  0  0
  187.5260  178.7200  141.2930 C   0  0  0  0  0  2  0  0  0  0  0  0
  189.5970  176.8050  140.9320 C   0  0  0  0  0  3  0  0  0  0  0  0
  187.9940  177.2260  144.8110 C   0  0  0  0  0  2  0  0  0  0  0  0
  187.6790  178.2540  143.7250 C   0  0  0  0  0  2  0  0  0  0  0  0
  187.7170  177.6190  142.3370 C   0  0  2  0  0  3  0  0  0  0  0  0
  189.5220  175.9620  143.2190 C   0  0  0  0  0  2  0  0  0  0  0  0
  189.0100  176.8550  142.1300 C   0  0  0  0  0  0  0  0  0  0  0  0
  189.3800  176.6030  144.6040 C   0  0  1  0  0  3  0  0  0  0  0  0
  189.0730  177.5430  139.8210 N   0  0  0  0  0  0  0  0  0  0  0  0
  187.7530  178.1600  139.8950 C   0  0  0  0  0  2  0  0  0  0  0  0
  190.4890  177.5660  144.8990 C   0  0  0  0  0  0  0  0  0  0  0  0
  191.5440  177.1560  145.5830 C   0  0  0  0  0  2  0  0  0  0  0  0
  190.4170  178.8870  144.4730 O   0  0  0  0  0  1  0  0  0  0  0  0
  1  4  1  6  0  0  0
  1 20  1  0  0  0  0
  7  5  2  0  0  0  0
  7  6  1  0  0  0  0
  8 10  1  6  0  0  0
  8  3  1  0  0  0  0
  9  5  1  1  0  0  0
  9  8  1  0  0  0  0
  9  1  1  0  0  0  0
 10  6  1  0  0  0  0
 11 12  1  0  0  0  0
 11  2  1  0  0  0  0
 12 17  1  6  0  0  0
 13 12  1  0  0  0  0
 13 15  1  0  0  0  0
 14  3  2  0  0  0  0
 14  2  1  0  0  0  0
 16  1  1  0  0  0  0
 16 14  1  0  0  0  0
 16 15  1  1  0  0  0
 17 18  2  0  0  0  0
 19 17  2  0  0  0  0
 20 21  1  0  0  0  0
 21 30  1  0  0  0  0
 23 28  2  0  0  0  0
 25 24  1  0  0  0  0
 26 22  1  6  0  0  0
 26 25  1  0  0  0  0
 27 29  1  0  0  0  0
 28 26  1  0  0  0  0
 28 27  1  0  0  0  0
 29 24  1  0  0  0  0
 29 32  1  6  0  0  0
 30 31  1  0  0  0  0
 30 23  1  0  0  0  0
 31 22  1  0  0  0  0
 32 33  2  0  0  0  0
 34 32  1  0  0  0  0
M  END
>  <MODEL>
9

>  <REMARK>
 VINA RESULT:      -6.9      2.263      3.202
  Name = 
  5 active torsions:
  status: ('A' for Active; 'I' for Inactive)
    1  A    between atoms: C_1  and  C_8
    2  A    between atoms: N_3  and  C_25
    3  A    between atoms: C_8  and  C_18
    4  A    between atoms: C_11  and  C_29
    5  A    between atoms: C_18  and  N_30
                            x       y       z     vdW  Elec       q    Type
                         _______ _______ _______ _____ _____    ______ ____

>  <TORSDO>
F 5

$$$$
