=
 OpenBabel10272401023D

 27 30  0  0  1  0  0  0  0  0999 V2000
  191.7390  177.3780  138.8400 C   0  0  0  0  0  2  0  0  0  0  0  0
  189.1490  177.3750  138.8900 C   0  0  0  0  0  0  0  0  0  0  0  0
  189.6840  175.1750  137.9540 N   0  0  0  0  0  2  0  0  0  0  0  0
  185.4300  177.5120  136.9800 C   0  0  0  0  0  3  0  0  0  0  0  0
  183.7460  176.5220  135.5680 O   0  0  0  0  0  1  0  0  0  0  0  0
  188.2860  178.4650  139.0170 C   0  0  0  0  0  3  0  0  0  0  0  0
  187.0360  175.2530  136.6420 C   0  0  0  0  0  3  0  0  0  0  0  0
  191.7830  174.5670  135.9400 C   0  0  0  0  0  2  0  0  0  0  0  0
  185.7880  175.3230  136.0210 C   0  0  0  0  0  3  0  0  0  0  0  0
  193.2880  174.3670  136.0780 C   0  0  0  0  0  2  0  0  0  0  0  0
  188.7660  176.2740  138.0890 C   0  0  0  0  0  0  0  0  0  0  0  0
  190.4410  177.4430  139.6620 C   0  0  1  0  0  3  0  0  0  0  0  0
  184.9860  176.4530  136.1880 C   0  0  0  0  0  0  0  0  0  0  0  0
  186.6790  177.4470  137.6060 C   0  0  0  0  0  0  0  0  0  0  0  0
  192.2450  176.0180  138.7480 N   0  0  0  0  0  2  0  0  0  0  0  0
  187.5060  176.3100  137.4380 C   0  0  0  0  0  0  0  0  0  0  0  0
  191.0060  173.5390  136.7480 C   0  0  0  0  0  2  0  0  0  0  0  0
  187.0890  178.4820  138.3810 N   0  0  0  0  0  0  0  0  0  0  0  0
  193.7940  174.6420  137.4940 C   0  0  0  0  0  2  0  0  0  0  0  0
  193.4600  176.0530  137.9530 C   0  0  0  0  0  2  0  0  0  0  0  0
  189.6090  174.0660  137.0140 C   0  0  0  0  0  2  0  0  0  0  0  0
  190.1040  176.6890  143.9530 C   0  0  0  0  0  2  0  0  0  0  0  0
  190.4140  176.7650  141.0380 C   0  0  0  0  0  3  0  0  0  0  0  0
  189.0410  176.9110  141.6970 C   0  0  0  0  0  2  0  0  0  0  0  0
  189.0100  176.1640  143.0280 C   0  0  0  0  0  2  0  0  0  0  0  0
  191.4720  176.5140  143.2980 C   0  0  0  0  0  2  0  0  0  0  0  0
  191.5200  177.2640  141.9710 C   0  0  0  0  0  2  0  0  0  0  0  0
  1 12  1  0  0  0  0
  2  6  1  0  0  0  0
  2 12  1  0  0  0  0
  3 11  1  0  0  0  0
  4 14  1  0  0  0  0
  5 13  1  0  0  0  0
  7 16  1  0  0  0  0
  8 10  1  0  0  0  0
  8 17  1  0  0  0  0
  9 13  1  0  0  0  0
  9  7  2  0  0  0  0
 10 19  1  0  0  0  0
 11  2  2  0  0  0  0
 12 23  1  1  0  0  0
 13  4  2  0  0  0  0
 14 18  1  0  0  0  0
 15  1  1  0  0  0  0
 16 14  2  0  0  0  0
 16 11  1  0  0  0  0
 17 21  1  0  0  0  0
 18  6  2  0  0  0  0
 19 20  1  0  0  0  0
 20 15  1  0  0  0  0
 21  3  1  0  0  0  0
 23 24  1  0  0  0  0
 23 27  1  0  0  0  0
 24 25  1  0  0  0  0
 25 22  1  0  0  0  0
 26 22  1  0  0  0  0
 27 26  1  0  0  0  0
M  END
>  <MODEL>
1

>  <REMARK>
 VINA RESULT:      -6.8      0.000      0.000
  Name = 
  1 active torsions:
  status: ('A' for Active; 'I' for Inactive)
    1  A    between atoms: C_9  and  C_15
                            x       y       z     vdW  Elec       q    Type
                         _______ _______ _______ _____ _____    ______ ____

>  <TORSDO>
F 1

$$$$
=
 OpenBabel10272401023D

 27 30  0  0  1  0  0  0  0  0999 V2000
  181.7120  177.6170  137.3100 C   0  0  0  0  0  2  0  0  0  0  0  0
  182.1460  178.7820  139.5840 C   0  0  0  0  0  0  0  0  0  0  0  0
  184.3940  178.5770  138.6310 N   0  0  0  0  0  2  0  0  0  0  0  0
  183.5840  178.7670  143.5110 C   0  0  0  0  0  3  0  0  0  0  0  0
  185.4030  178.6920  145.0910 O   0  0  0  0  0  1  0  0  0  0  0  0
  181.2970  178.8640  140.6890 C   0  0  0  0  0  3  0  0  0  0  0  0
  185.4120  178.6140  141.4060 C   0  0  0  0  0  3  0  0  0  0  0  0
  185.5030  176.2280  137.1880 C   0  0  0  0  0  2  0  0  0  0  0  0
  185.8650  178.6170  142.7270 C   0  0  0  0  0  3  0  0  0  0  0  0
  185.3460  175.7630  135.7450 C   0  0  0  0  0  2  0  0  0  0  0  0
  183.5430  178.6860  139.7860 C   0  0  0  0  0  0  0  0  0  0  0  0
  181.4960  178.8330  138.2250 C   0  0  1  0  0  3  0  0  0  0  0  0
  184.9520  178.6910  143.7790 C   0  0  0  0  0  0  0  0  0  0  0  0
  183.1250  178.7660  142.1900 C   0  0  0  0  0  0  0  0  0  0  0  0
  182.8410  177.8160  136.4160 N   0  0  0  0  0  2  0  0  0  0  0  0
  184.0410  178.6830  141.1140 C   0  0  0  0  0  0  0  0  0  0  0  0
  186.1440  177.6050  137.2640 C   0  0  0  0  0  2  0  0  0  0  0  0
  181.7930  178.8510  141.9500 N   0  0  0  0  0  0  0  0  0  0  0  0
  184.3500  176.6110  134.9540 C   0  0  0  0  0  2  0  0  0  0  0  0
  182.9730  176.6220  135.6010 C   0  0  0  0  0  2  0  0  0  0  0  0
  185.8090  178.2380  138.6010 C   0  0  0  0  0  2  0  0  0  0  0  0
  180.1590  182.7740  136.8890 C   0  0  0  0  0  2  0  0  0  0  0  0
  181.4340  180.2270  137.5860 C   0  0  0  0  0  3  0  0  0  0  0  0
  181.1850  181.3070  138.6400 C   0  0  0  0  0  2  0  0  0  0  0  0
  181.2060  182.6910  137.9960 C   0  0  0  0  0  2  0  0  0  0  0  0
  180.4330  181.7100  135.8290 C   0  0  0  0  0  2  0  0  0  0  0  0
  180.4050  180.3210  136.4580 C   0  0  0  0  0  2  0  0  0  0  0  0
  1 12  1  0  0  0  0
  2 11  2  0  0  0  0
  2  6  1  0  0  0  0
  3 11  1  0  0  0  0
  4 13  1  0  0  0  0
  6 18  2  0  0  0  0
  7  9  1  0  0  0  0
  8 17  1  0  0  0  0
  9 13  2  0  0  0  0
 10  8  1  0  0  0  0
 11 16  1  0  0  0  0
 12 23  1  6  0  0  0
 12  2  1  0  0  0  0
 13  5  1  0  0  0  0
 14  4  2  0  0  0  0
 15  1  1  0  0  0  0
 16  7  2  0  0  0  0
 16 14  1  0  0  0  0
 17 21  1  0  0  0  0
 18 14  1  0  0  0  0
 19 20  1  0  0  0  0
 19 10  1  0  0  0  0
 20 15  1  0  0  0  0
 21  3  1  0  0  0  0
 22 25  1  0  0  0  0
 23 24  1  0  0  0  0
 25 24  1  0  0  0  0
 26 27  1  0  0  0  0
 26 22  1  0  0  0  0
 27 23  1  0  0  0  0
M  END
>  <MODEL>
2

>  <REMARK>
 VINA RESULT:      -6.7      5.260      8.920
  Name = 
  1 active torsions:
  status: ('A' for Active; 'I' for Inactive)
    1  A    between atoms: C_9  and  C_15
                            x       y       z     vdW  Elec       q    Type
                         _______ _______ _______ _____ _____    ______ ____

>  <TORSDO>
F 1

$$$$
=
 OpenBabel10272401023D

 27 30  0  0  1  0  0  0  0  0999 V2000
  184.4920  179.6300  142.5190 C   0  0  0  0  0  2  0  0  0  0  0  0
  186.1110  178.5320  140.8210 C   0  0  0  0  0  0  0  0  0  0  0  0
  186.5740  177.3110  142.8940 N   0  0  0  0  0  2  0  0  0  0  0  0
  189.9510  177.8440  139.3140 C   0  0  0  0  0  3  0  0  0  0  0  0
  192.1520  176.8810  139.5070 O   0  0  0  0  0  1  0  0  0  0  0  0
  186.5230  179.0210  139.5800 C   0  0  0  0  0  3  0  0  0  0  0  0
  189.2730  176.7860  141.8060 C   0  0  0  0  0  3  0  0  0  0  0  0
  186.8010  178.4670  145.6220 C   0  0  0  0  0  2  0  0  0  0  0  0
  190.5460  176.5660  141.2770 C   0  0  0  0  0  3  0  0  0  0  0  0
  185.7390  178.8740  146.6370 C   0  0  0  0  0  2  0  0  0  0  0  0
  187.0150  177.7810  141.6070 C   0  0  0  0  0  0  0  0  0  0  0  0
  184.6890  178.8250  141.2250 C   0  0  1  0  0  3  0  0  0  0  0  0
  190.8860  177.0970  140.0320 C   0  0  0  0  0  0  0  0  0  0  0  0
  188.6740  178.0660  139.8390 C   0  0  0  0  0  0  0  0  0  0  0  0
  184.2930  178.7590  143.6650 N   0  0  0  0  0  2  0  0  0  0  0  0
  188.3190  177.5400  141.1040 C   0  0  0  0  0  0  0  0  0  0  0  0
  186.7180  176.9850  145.2920 C   0  0  0  0  0  2  0  0  0  0  0  0
  187.7760  178.7850  139.1210 N   0  0  0  0  0  0  0  0  0  0  0  0
  184.3180  178.7590  146.0870 C   0  0  0  0  0  2  0  0  0  0  0  0
  184.1230  179.6010  144.8350 C   0  0  0  0  0  2  0  0  0  0  0  0
  187.3880  176.7340  143.9540 C   0  0  0  0  0  2  0  0  0  0  0  0
  181.4940  176.4950  139.3640 C   0  0  0  0  0  2  0  0  0  0  0  0
  183.6770  177.7200  140.8900 C   0  0  0  0  0  3  0  0  0  0  0  0
  183.9000  177.1780  139.4770 C   0  0  0  0  0  2  0  0  0  0  0  0
  182.9370  176.0290  139.1920 C   0  0  0  0  0  2  0  0  0  0  0  0
  181.2750  177.0080  140.7850 C   0  0  0  0  0  2  0  0  0  0  0  0
  182.2250  178.1640  141.0790 C   0  0  0  0  0  2  0  0  0  0  0  0
  1 15  1  0  0  0  0
  2 12  1  0  0  0  0
  2 11  1  0  0  0  0
  3 21  1  0  0  0  0
  4 14  1  0  0  0  0
  4 13  2  0  0  0  0
  5 13  1  0  0  0  0
  6  2  2  0  0  0  0
  8 10  1  0  0  0  0
  9  7  2  0  0  0  0
 11  3  1  0  0  0  0
 12 23  1  1  0  0  0
 12  1  1  0  0  0  0
 13  9  1  0  0  0  0
 14 16  1  0  0  0  0
 15 20  1  0  0  0  0
 16 11  2  0  0  0  0
 16  7  1  0  0  0  0
 17  8  1  0  0  0  0
 18  6  1  0  0  0  0
 18 14  2  0  0  0  0
 19 10  1  0  0  0  0
 20 19  1  0  0  0  0
 21 17  1  0  0  0  0
 22 26  1  0  0  0  0
 23 27  1  0  0  0  0
 24 23  1  0  0  0  0
 25 22  1  0  0  0  0
 25 24  1  0  0  0  0
 26 27  1  0  0  0  0
M  END
>  <MODEL>
3

>  <REMARK>
 VINA RESULT:      -6.0      4.186      8.140
  Name = 
  1 active torsions:
  status: ('A' for Active; 'I' for Inactive)
    1  A    between atoms: C_9  and  C_15
                            x       y       z     vdW  Elec       q    Type
                         _______ _______ _______ _____ _____    ______ ____

>  <TORSDO>
F 1

$$$$
=
 OpenBabel10272401023D

 27 30  0  0  1  0  0  0  0  0999 V2000
  183.9860  179.7200  138.5060 C   0  0  0  0  0  2  0  0  0  0  0  0
  184.9040  178.6180  140.6640 C   0  0  0  0  0  0  0  0  0  0  0  0
  182.4880  178.6890  141.0650 N   0  0  0  0  0  2  0  0  0  0  0  0
  185.7940  178.7080  144.7490 C   0  0  0  0  0  3  0  0  0  0  0  0
  185.1040  178.7590  147.0580 O   0  0  0  0  0  1  0  0  0  0  0  0
  186.2160  178.6130  141.1410 C   0  0  0  0  0  3  0  0  0  0  0  0
  183.1180  178.7050  143.9530 C   0  0  0  0  0  3  0  0  0  0  0  0
  180.6480  180.9340  140.4280 C   0  0  0  0  0  2  0  0  0  0  0  0
  183.4430  178.7290  145.3110 C   0  0  0  0  0  3  0  0  0  0  0  0
  179.9820  181.3540  139.1230 C   0  0  0  0  0  2  0  0  0  0  0  0
  183.8300  178.6590  141.5830 C   0  0  0  0  0  0  0  0  0  0  0  0
  184.7270  178.5470  139.1690 C   0  0  1  0  0  3  0  0  0  0  0  0
  184.7810  178.7330  145.7090 C   0  0  0  0  0  0  0  0  0  0  0  0
  185.4740  178.6830  143.3880 C   0  0  0  0  0  0  0  0  0  0  0  0
  182.5680  179.4390  138.3580 N   0  0  0  0  0  2  0  0  0  0  0  0
  184.1210  178.6870  142.9710 C   0  0  0  0  0  0  0  0  0  0  0  0
  180.2260  179.5340  140.8450 C   0  0  0  0  0  2  0  0  0  0  0  0
  186.4720  178.6480  142.4710 N   0  0  0  0  0  0  0  0  0  0  0  0
  180.4450  180.5230  137.9270 C   0  0  0  0  0  2  0  0  0  0  0  0
  181.9520  180.5960  137.7330 C   0  0  0  0  0  2  0  0  0  0  0  0
  181.2610  178.9640  141.7970 C   0  0  0  0  0  2  0  0  0  0  0  0
  183.3290  175.1480  136.8050 C   0  0  0  0  0  2  0  0  0  0  0  0
  184.5150  177.1360  138.6040 C   0  0  0  0  0  3  0  0  0  0  0  0
  184.9010  177.0700  137.1250 C   0  0  0  0  0  2  0  0  0  0  0  0
  184.7580  175.6430  136.6040 C   0  0  0  0  0  2  0  0  0  0  0  0
  182.9630  175.1920  138.2860 C   0  0  0  0  0  2  0  0  0  0  0  0
  183.0920  176.6160  138.8180 C   0  0  0  0  0  2  0  0  0  0  0  0
  1 12  1  0  0  0  0
  2  6  2  0  0  0  0
  2 11  1  0  0  0  0
  3 11  1  0  0  0  0
  3 21  1  0  0  0  0
  4 13  2  0  0  0  0
  6 18  1  0  0  0  0
  7  9  2  0  0  0  0
  8 17  1  0  0  0  0
  9 13  1  0  0  0  0
 10  8  1  0  0  0  0
 11 16  2  0  0  0  0
 12 23  1  1  0  0  0
 12  2  1  0  0  0  0
 13  5  1  0  0  0  0
 14  4  1  0  0  0  0
 15  1  1  0  0  0  0
 16 14  1  0  0  0  0
 16  7  1  0  0  0  0
 17 21  1  0  0  0  0
 18 14  2  0  0  0  0
 19 10  1  0  0  0  0
 20 19  1  0  0  0  0
 20 15  1  0  0  0  0
 22 26  1  0  0  0  0
 23 27  1  0  0  0  0
 24 23  1  0  0  0  0
 25 22  1  0  0  0  0
 25 24  1  0  0  0  0
 26 27  1  0  0  0  0
M  END
>  <MODEL>
4

>  <REMARK>
 VINA RESULT:      -5.9      5.642      9.477
  Name = 
  1 active torsions:
  status: ('A' for Active; 'I' for Inactive)
    1  A    between atoms: C_9  and  C_15
                            x       y       z     vdW  Elec       q    Type
                         _______ _______ _______ _____ _____    ______ ____

>  <TORSDO>
F 1

$$$$
=
 OpenBabel10272401023D

 27 30  0  0  1  0  0  0  0  0999 V2000
  189.3380  177.4910  135.8520 C   0  0  0  0  0  2  0  0  0  0  0  0
  187.1300  176.7300  136.9740 C   0  0  0  0  0  0  0  0  0  0  0  0
  188.4840  174.6880  136.9810 N   0  0  0  0  0  2  0  0  0  0  0  0
  183.5350  174.5930  136.9480 C   0  0  0  0  0  3  0  0  0  0  0  0
  182.3170  172.5130  136.9670 O   0  0  0  0  0  1  0  0  0  0  0  0
  185.8860  177.3640  136.9520 C   0  0  0  0  0  3  0  0  0  0  0  0
  185.9420  173.1800  137.0090 C   0  0  0  0  0  3  0  0  0  0  0  0
  190.2120  173.6980  134.7750 C   0  0  0  0  0  2  0  0  0  0  0  0
  184.7270  172.4910  137.0060 C   0  0  0  0  0  3  0  0  0  0  0  0
  191.6220  174.0850  134.3460 C   0  0  0  0  0  2  0  0  0  0  0  0
  187.1900  175.3170  136.9840 C   0  0  0  0  0  0  0  0  0  0  0  0
  188.3430  177.6220  137.0170 C   0  0  1  0  0  3  0  0  0  0  0  0
  183.5230  173.1970  136.9730 C   0  0  0  0  0  0  0  0  0  0  0  0
  184.7490  175.2870  136.9520 C   0  0  0  0  0  0  0  0  0  0  0  0
  190.4120  176.5650  136.1700 N   0  0  0  0  0  2  0  0  0  0  0  0
  185.9770  174.5820  136.9780 C   0  0  0  0  0  0  0  0  0  0  0  0
  190.1900  173.1550  136.1960 C   0  0  0  0  0  2  0  0  0  0  0  0
  184.7390  176.6430  136.9390 N   0  0  0  0  0  0  0  0  0  0  0  0
  192.1790  175.2690  135.1370 C   0  0  0  0  0  2  0  0  0  0  0  0
  191.2930  176.4990  135.0170 C   0  0  0  0  0  2  0  0  0  0  0  0
  188.7860  173.2820  136.7560 C   0  0  0  0  0  2  0  0  0  0  0  0
  189.4070  177.2890  141.2430 C   0  0  0  0  0  2  0  0  0  0  0  0
  188.8960  177.9020  138.4210 C   0  0  0  0  0  3  0  0  0  0  0  0
  189.9170  176.8390  138.8330 C   0  0  0  0  0  2  0  0  0  0  0  0
  190.5120  177.1770  140.1970 C   0  0  0  0  0  2  0  0  0  0  0  0
  188.4090  178.3710  140.8360 C   0  0  0  0  0  2  0  0  0  0  0  0
  187.7980  178.0400  139.4790 C   0  0  0  0  0  2  0  0  0  0  0  0
  1 15  1  0  0  0  0
  1 12  1  0  0  0  0
  2 11  1  0  0  0  0
  2 12  1  0  0  0  0
  3 11  1  0  0  0  0
  4 14  1  0  0  0  0
  4 13  2  0  0  0  0
  5 13  1  0  0  0  0
  6  2  2  0  0  0  0
  8 17  1  0  0  0  0
  9  7  2  0  0  0  0
 10  8  1  0  0  0  0
 10 19  1  0  0  0  0
 12 23  1  1  0  0  0
 13  9  1  0  0  0  0
 14 16  1  0  0  0  0
 16 11  2  0  0  0  0
 16  7  1  0  0  0  0
 17 21  1  0  0  0  0
 18  6  1  0  0  0  0
 18 14  2  0  0  0  0
 20 19  1  0  0  0  0
 20 15  1  0  0  0  0
 21  3  1  0  0  0  0
 23 24  1  0  0  0  0
 23 27  1  0  0  0  0
 24 25  1  0  0  0  0
 25 22  1  0  0  0  0
 26 22  1  0  0  0  0
 27 26  1  0  0  0  0
M  END
>  <MODEL>
5

>  <REMARK>
 VINA RESULT:      -5.0      2.014      3.122
  Name = 
  1 active torsions:
  status: ('A' for Active; 'I' for Inactive)
    1  A    between atoms: C_9  and  C_15
                            x       y       z     vdW  Elec       q    Type
                         _______ _______ _______ _____ _____    ______ ____

>  <TORSDO>
F 1

$$$$
=
 OpenBabel10272401023D

 27 30  0  0  1  0  0  0  0  0999 V2000
  185.6350  177.2700  136.0440 C   0  0  0  0  0  2  0  0  0  0  0  0
  183.7060  175.6110  136.5340 C   0  0  0  0  0  0  0  0  0  0  0  0
  185.7050  174.3130  137.0990 N   0  0  0  0  0  2  0  0  0  0  0  0
  181.4820  172.1850  135.6380 C   0  0  0  0  0  3  0  0  0  0  0  0
  181.2730  169.7890  135.4710 O   0  0  0  0  0  1  0  0  0  0  0  0
  182.3800  175.6760  136.1010 C   0  0  0  0  0  3  0  0  0  0  0  0
  184.1180  171.8900  136.5100 C   0  0  0  0  0  3  0  0  0  0  0  0
  188.2580  174.2330  135.5790 C   0  0  0  0  0  2  0  0  0  0  0  0
  183.3510  170.7630  136.2100 C   0  0  0  0  0  3  0  0  0  0  0  0
  189.4440  175.1890  135.5480 C   0  0  0  0  0  2  0  0  0  0  0  0
  184.3310  174.3510  136.6760 C   0  0  0  0  0  0  0  0  0  0  0  0
  184.3760  176.9220  136.8550 C   0  0  1  0  0  3  0  0  0  0  0  0
  182.0340  170.9090  135.7710 C   0  0  0  0  0  0  0  0  0  0  0  0
  182.2450  173.3170  135.9390 C   0  0  0  0  0  0  0  0  0  0  0  0
  186.8450  176.8560  136.7340 N   0  0  0  0  0  2  0  0  0  0  0  0
  183.5850  173.1820  136.3770 C   0  0  0  0  0  0  0  0  0  0  0  0
  188.0370  173.6620  136.9710 C   0  0  0  0  0  2  0  0  0  0  0  0
  181.6870  174.5470  135.8130 N   0  0  0  0  0  0  0  0  0  0  0  0
  189.2060  176.4570  136.3680 C   0  0  0  0  0  2  0  0  0  0  0  0
  187.9750  177.2160  135.8960 C   0  0  0  0  0  2  0  0  0  0  0  0
  186.6060  173.1710  137.0870 C   0  0  0  0  0  2  0  0  0  0  0  0
  183.2420  178.7800  140.6450 C   0  0  0  0  0  2  0  0  0  0  0  0
  184.3210  177.3360  138.3320 C   0  0  0  0  0  3  0  0  0  0  0  0
  182.9870  176.9400  138.9670 C   0  0  0  0  0  2  0  0  0  0  0  0
  182.9820  177.2890  140.4520 C   0  0  0  0  0  2  0  0  0  0  0  0
  184.5880  179.1600  140.0330 C   0  0  0  0  0  2  0  0  0  0  0  0
  184.6020  178.8260  138.5450 C   0  0  0  0  0  2  0  0  0  0  0  0
  1 15  1  0  0  0  0
  1 12  1  0  0  0  0
  2 11  1  0  0  0  0
  2 12  1  0  0  0  0
  4 13  2  0  0  0  0
  4 14  1  0  0  0  0
  5 13  1  0  0  0  0
  6  2  2  0  0  0  0
  8 17  1  0  0  0  0
  9  7  2  0  0  0  0
 10  8  1  0  0  0  0
 10 19  1  0  0  0  0
 11  3  1  0  0  0  0
 12 23  1  1  0  0  0
 13  9  1  0  0  0  0
 14 16  1  0  0  0  0
 16  7  1  0  0  0  0
 16 11  2  0  0  0  0
 17 21  1  0  0  0  0
 18 14  2  0  0  0  0
 18  6  1  0  0  0  0
 20 19  1  0  0  0  0
 20 15  1  0  0  0  0
 21  3  1  0  0  0  0
 23 27  1  0  0  0  0
 23 24  1  0  0  0  0
 24 25  1  0  0  0  0
 25 22  1  0  0  0  0
 26 22  1  0  0  0  0
 27 26  1  0  0  0  0
M  END
>  <MODEL>
6

>  <REMARK>
 VINA RESULT:      -4.9      4.188      6.048
  Name = 
  1 active torsions:
  status: ('A' for Active; 'I' for Inactive)
    1  A    between atoms: C_9  and  C_15
                            x       y       z     vdW  Elec       q    Type
                         _______ _______ _______ _____ _____    ______ ____

>  <TORSDO>
F 1

$$$$
=
 OpenBabel10272401023D

 27 30  0  0  1  0  0  0  0  0999 V2000
  187.9500  179.3220  141.1180 C   0  0  0  0  0  2  0  0  0  0  0  0
  189.8150  178.1000  142.4370 C   0  0  0  0  0  0  0  0  0  0  0  0
  187.7620  177.1720  143.3980 N   0  0  0  0  0  2  0  0  0  0  0  0
  192.0070  177.4180  145.9330 C   0  0  0  0  0  3  0  0  0  0  0  0
  192.1720  176.5950  148.1920 O   0  0  0  0  0  1  0  0  0  0  0  0
  191.1620  178.4490  142.5520 C   0  0  0  0  0  3  0  0  0  0  0  0
  189.3240  176.6480  145.8520 C   0  0  0  0  0  3  0  0  0  0  0  0
  185.2890  178.6710  144.0860 C   0  0  0  0  0  2  0  0  0  0  0  0
  190.0810  176.4270  147.0050 C   0  0  0  0  0  3  0  0  0  0  0  0
  184.1260  179.1500  143.2250 C   0  0  0  0  0  2  0  0  0  0  0  0
  189.1560  177.4990  143.5340 C   0  0  0  0  0  0  0  0  0  0  0  0
  189.1580  178.3710  141.1080 C   0  0  1  0  0  3  0  0  0  0  0  0
  191.4210  176.8130  147.0460 C   0  0  0  0  0  0  0  0  0  0  0  0
  191.2540  177.6410  144.7750 C   0  0  0  0  0  0  0  0  0  0  0  0
  186.6970  178.5920  141.2190 N   0  0  0  0  0  2  0  0  0  0  0  0
  189.8910  177.2600  144.7230 C   0  0  0  0  0  0  0  0  0  0  0  0
  185.4260  177.1570  144.0480 C   0  0  0  0  0  2  0  0  0  0  0  0
  191.8440  178.2190  143.7000 N   0  0  0  0  0  0  0  0  0  0  0  0
  184.3500  178.8980  141.7340 C   0  0  0  0  0  2  0  0  0  0  0  0
  185.6190  179.5650  141.2280 C   0  0  0  0  0  2  0  0  0  0  0  0
  186.8380  176.7740  144.4500 C   0  0  0  0  0  2  0  0  0  0  0  0
  189.6490  175.8500  137.5720 C   0  0  0  0  0  2  0  0  0  0  0  0
  189.1460  177.1860  140.1340 C   0  0  0  0  0  3  0  0  0  0  0  0
  190.5650  176.8230  139.6900 C   0  0  0  0  0  2  0  0  0  0  0  0
  190.5390  175.5950  138.7850 C   0  0  0  0  0  2  0  0  0  0  0  0
  188.2300  176.1840  138.0250 C   0  0  0  0  0  2  0  0  0  0  0  0
  188.2400  177.4170  138.9230 C   0  0  0  0  0  2  0  0  0  0  0  0
  1 15  1  0  0  0  0
  2  6  2  0  0  0  0
  2 11  1  0  0  0  0
  3 11  1  0  0  0  0
  3 21  1  0  0  0  0
  4 13  2  0  0  0  0
  6 18  1  0  0  0  0
  7  9  2  0  0  0  0
  9 13  1  0  0  0  0
 10  8  1  0  0  0  0
 11 16  2  0  0  0  0
 12 23  1  1  0  0  0
 12  1  1  0  0  0  0
 12  2  1  0  0  0  0
 13  5  1  0  0  0  0
 14  4  1  0  0  0  0
 15 20  1  0  0  0  0
 16 14  1  0  0  0  0
 16  7  1  0  0  0  0
 17  8  1  0  0  0  0
 17 21  1  0  0  0  0
 18 14  2  0  0  0  0
 19 10  1  0  0  0  0
 20 19  1  0  0  0  0
 22 26  1  0  0  0  0
 22 25  1  0  0  0  0
 24 23  1  0  0  0  0
 25 24  1  0  0  0  0
 26 27  1  0  0  0  0
 27 23  1  0  0  0  0
M  END
>  <MODEL>
7

>  <REMARK>
 VINA RESULT:      -4.9      4.153      8.375
  Name = 
  1 active torsions:
  status: ('A' for Active; 'I' for Inactive)
    1  A    between atoms: C_9  and  C_15
                            x       y       z     vdW  Elec       q    Type
                         _______ _______ _______ _____ _____    ______ ____

>  <TORSDO>
F 1

$$$$
=
 OpenBabel10272401023D

 27 30  0  0  1  0  0  0  0  0999 V2000
  188.2510  178.4110  138.4150 C   0  0  0  0  0  2  0  0  0  0  0  0
  189.8400  177.4010  140.1940 C   0  0  0  0  0  0  0  0  0  0  0  0
  187.6410  177.2400  141.2630 N   0  0  0  0  0  2  0  0  0  0  0  0
  191.8410  177.5730  143.8630 C   0  0  0  0  0  3  0  0  0  0  0  0
  191.8330  177.5550  146.2730 O   0  0  0  0  0  1  0  0  0  0  0  0
  191.2280  177.5210  140.2810 C   0  0  0  0  0  3  0  0  0  0  0  0
  189.0610  177.3150  143.8550 C   0  0  0  0  0  3  0  0  0  0  0  0
  185.4990  179.3000  141.2340 C   0  0  0  0  0  2  0  0  0  0  0  0
  189.7550  177.3680  145.0660 C   0  0  0  0  0  3  0  0  0  0  0  0
  184.4550  179.6550  140.1830 C   0  0  0  0  0  2  0  0  0  0  0  0
  189.0720  177.3380  141.3800 C   0  0  0  0  0  0  0  0  0  0  0  0
  189.2540  177.3150  138.8090 C   0  0  1  0  0  3  0  0  0  0  0  0
  191.1440  177.5000  145.0700 C   0  0  0  0  0  0  0  0  0  0  0  0
  191.1510  177.5180  142.6470 C   0  0  0  0  0  0  0  0  0  0  0  0
  186.8810  177.9960  138.6660 N   0  0  0  0  0  2  0  0  0  0  0  0
  189.7410  177.3930  142.6300 C   0  0  0  0  0  0  0  0  0  0  0  0
  185.3430  177.8650  141.7140 C   0  0  0  0  0  2  0  0  0  0  0  0
  191.8470  177.5790  141.4850 N   0  0  0  0  0  0  0  0  0  0  0  0
  184.6330  178.8730  138.8820 C   0  0  0  0  0  2  0  0  0  0  0  0
  186.0100  179.0900  138.2730 C   0  0  0  0  0  2  0  0  0  0  0  0
  186.6530  177.3960  142.3200 C   0  0  0  0  0  2  0  0  0  0  0  0
  188.9060  173.8000  136.2350 C   0  0  0  0  0  2  0  0  0  0  0  0
  189.0200  175.8900  138.2880 C   0  0  0  0  0  3  0  0  0  0  0  0
  190.2940  175.3150  137.6660 C   0  0  0  0  0  2  0  0  0  0  0  0
  190.0640  173.8710  137.2260 C   0  0  0  0  0  2  0  0  0  0  0  0
  187.6340  174.3510  136.8740 C   0  0  0  0  0  2  0  0  0  0  0  0
  187.8480  175.7970  137.3100 C   0  0  0  0  0  2  0  0  0  0  0  0
  1 15  1  0  0  0  0
  1 12  1  0  0  0  0
  2  6  2  0  0  0  0
  2 11  1  0  0  0  0
  3 11  1  0  0  0  0
  3 21  1  0  0  0  0
  4 13  2  0  0  0  0
  6 18  1  0  0  0  0
  7  9  2  0  0  0  0
  8 17  1  0  0  0  0
  9 13  1  0  0  0  0
 10  8  1  0  0  0  0
 11 16  2  0  0  0  0
 12 23  1  1  0  0  0
 12  2  1  0  0  0  0
 13  5  1  0  0  0  0
 14  4  1  0  0  0  0
 16 14  1  0  0  0  0
 16  7  1  0  0  0  0
 17 21  1  0  0  0  0
 18 14  2  0  0  0  0
 19 10  1  0  0  0  0
 20 15  1  0  0  0  0
 20 19  1  0  0  0  0
 22 26  1  0  0  0  0
 22 25  1  0  0  0  0
 24 23  1  0  0  0  0
 25 24  1  0  0  0  0
 26 27  1  0  0  0  0
 27 23  1  0  0  0  0
M  END
>  <MODEL>
8

>  <REMARK>
 VINA RESULT:      -4.8      3.252      7.446
  Name = 
  1 active torsions:
  status: ('A' for Active; 'I' for Inactive)
    1  A    between atoms: C_9  and  C_15
                            x       y       z     vdW  Elec       q    Type
                         _______ _______ _______ _____ _____    ______ ____

>  <TORSDO>
F 1

$$$$
=
 OpenBabel10272401023D

 27 30  0  0  1  0  0  0  0  0999 V2000
  189.0620  176.2220  135.9280 C   0  0  0  0  0  2  0  0  0  0  0  0
  186.8000  176.5980  137.1320 C   0  0  0  0  0  0  0  0  0  0  0  0
  187.0050  174.1570  137.0940 N   0  0  0  0  0  2  0  0  0  0  0  0
  182.6210  176.4520  137.2430 C   0  0  0  0  0  3  0  0  0  0  0  0
  180.5550  175.2130  137.3120 O   0  0  0  0  0  1  0  0  0  0  0  0
  186.0140  177.7520  137.1550 C   0  0  0  0  0  3  0  0  0  0  0  0
  184.0530  174.0550  137.2190 C   0  0  0  0  0  3  0  0  0  0  0  0
  187.9690  172.4930  134.8280 C   0  0  0  0  0  2  0  0  0  0  0  0
  182.6580  174.0350  137.2620 C   0  0  0  0  0  3  0  0  0  0  0  0
  189.3770  172.1620  134.3470 C   0  0  0  0  0  2  0  0  0  0  0  0
  186.1730  175.3300  137.1430 C   0  0  0  0  0  0  0  0  0  0  0  0
  188.2930  176.7970  137.1290 C   0  0  1  0  0  3  0  0  0  0  0  0
  181.9410  175.2330  137.2720 C   0  0  0  0  0  0  0  0  0  0  0  0
  184.0190  176.4770  137.2020 C   0  0  0  0  0  0  0  0  0  0  0  0
  189.5690  174.8890  136.2080 N   0  0  0  0  0  2  0  0  0  0  0  0
  184.7570  175.2690  137.1830 C   0  0  0  0  0  0  0  0  0  0  0  0
  187.7370  172.0050  136.2500 C   0  0  0  0  0  2  0  0  0  0  0  0
  184.6610  177.6710  137.1850 N   0  0  0  0  0  0  0  0  0  0  0  0
  190.4600  172.9200  135.1140 C   0  0  0  0  0  2  0  0  0  0  0  0
  190.2710  174.4260  135.0240 C   0  0  0  0  0  2  0  0  0  0  0  0
  186.5860  172.7820  136.8620 C   0  0  0  0  0  2  0  0  0  0  0  0
  190.3190  177.9080  140.8380 C   0  0  0  0  0  2  0  0  0  0  0  0
  188.9590  176.7550  138.5110 C   0  0  0  0  0  3  0  0  0  0  0  0
  188.2140  177.6440  139.5080 C   0  0  0  0  0  2  0  0  0  0  0  0
  188.8430  177.5270  140.8940 C   0  0  0  0  0  2  0  0  0  0  0  0
  191.0580  176.9980  139.8600 C   0  0  0  0  0  2  0  0  0  0  0  0
  190.4460  177.1130  138.4680 C   0  0  0  0  0  2  0  0  0  0  0  0
  1 15  1  0  0  0  0
  1 12  1  0  0  0  0
  2 11  2  0  0  0  0
  2  6  1  0  0  0  0
  3 11  1  0  0  0  0
  4 13  1  0  0  0  0
  6 18  2  0  0  0  0
  7  9  1  0  0  0  0
  8 17  1  0  0  0  0
  9 13  2  0  0  0  0
 10  8  1  0  0  0  0
 10 19  1  0  0  0  0
 11 16  1  0  0  0  0
 12  2  1  0  0  0  0
 12 23  1  1  0  0  0
 13  5  1  0  0  0  0
 14  4  2  0  0  0  0
 16 14  1  0  0  0  0
 16  7  2  0  0  0  0
 17 21  1  0  0  0  0
 18 14  1  0  0  0  0
 20 19  1  0  0  0  0
 20 15  1  0  0  0  0
 21  3  1  0  0  0  0
 22 25  1  0  0  0  0
 23 24  1  0  0  0  0
 24 25  1  0  0  0  0
 26 22  1  0  0  0  0
 27 23  1  0  0  0  0
 27 26  1  0  0  0  0
M  END
>  <MODEL>
9

>  <REMARK>
 VINA RESULT:      -4.8      2.226      3.496
  Name = 
  1 active torsions:
  status: ('A' for Active; 'I' for Inactive)
    1  A    between atoms: C_9  and  C_15
                            x       y       z     vdW  Elec       q    Type
                         _______ _______ _______ _____ _____    ______ ____

>  <TORSDO>
F 1

$$$$
