=
 OpenBabel10272400413D

 25 29  0  0  1  0  0  0  0  0999 V2000
  190.1590  176.5160  144.0340 C   0  0  2  0  0  3  0  0  0  0  0  0
  189.1810  177.0620  145.0470 C   0  0  0  0  0  0  0  0  0  0  0  0
  191.7790  176.3260  146.0460 C   0  0  0  0  0  3  0  0  0  0  0  0
  190.9490  177.0280  146.8180 C   0  0  0  0  0  3  0  0  0  0  0  0
  188.6800  177.9610  147.2540 C   0  0  0  0  0  0  0  0  0  0  0  0
  189.0520  178.2660  148.5220 F   0  0  0  0  0  0  0  0  0  0  0  0
  187.8680  177.3390  144.6480 C   0  0  0  0  0  3  0  0  0  0  0  0
  191.3710  175.9000  144.7000 C   0  0  0  0  0  0  0  0  0  0  0  0
  192.0430  175.0230  144.1000 O   0  0  0  0  0  0  0  0  0  0  0  0
  187.3720  178.2310  146.8420 C   0  0  0  0  0  3  0  0  0  0  0  0
  186.9620  177.9120  145.5440 C   0  0  0  0  0  0  0  0  0  0  0  0
  189.5890  177.3700  146.3640 C   0  0  0  0  0  0  0  0  0  0  0  0
  190.5100  177.6150  143.0130 C   0  0  2  0  0  3  0  0  0  0  0  0
  190.6680  177.7870  140.6100 N   0  0  2  0  0  0  0  0  0  0  0  0
  189.7110  177.5810  141.7180 C   0  0  1  0  0  3  0  0  0  0  0  0
  190.0430  176.4730  140.8180 C   0  0  0  0  0  2  0  0  0  0  0  0
  192.0220  177.6920  141.1540 C   0  0  0  0  0  2  0  0  0  0  0  0
  191.9720  177.7420  142.6670 C   0  0  0  0  0  2  0  0  0  0  0  0
  185.5750  178.2220  145.1030 C   0  0  0  0  0  2  0  0  0  0  0  0
  185.4350  177.9890  143.6100 C   0  0  2  0  0  3  0  0  0  0  0  0
  185.1410  179.2560  142.9460 C   0  0  2  0  0  3  0  0  0  0  0  0
  184.0570  178.2920  143.1980 N   0  0  0  0  0  2  0  0  0  0  0  0
  185.5500  179.1890  141.5120 C   0  0  0  0  0  0  0  0  0  0  0  0
  184.6590  179.5650  140.5150 O   0  0  0  0  0  0  0  0  0  0  0  0
  186.6900  178.7560  141.2000 O   0  0  0  0  0  1  0  0  0  0  0  0
  1  8  1  1  0  0  0
  1  2  1  0  0  0  0
  2 12  1  0  0  0  0
  3  4  2  0  0  0  0
  5  6  1  0  0  0  0
  7  2  2  0  0  0  0
  7 11  1  0  0  0  0
  8  3  1  0  0  0  0
  9  8  2  0  0  0  0
 10  5  1  0  0  0  0
 11 10  2  0  0  0  0
 12  4  1  0  0  0  0
 12  5  2  0  0  0  0
 13 18  1  6  0  0  0
 13  1  1  0  0  0  0
 14 16  1  6  0  0  0
 14 17  1  0  0  0  0
 14 15  1  0  0  0  0
 15 16  1  6  0  0  0
 15 13  1  0  0  0  0
 17 18  1  0  0  0  0
 19 11  1  0  0  0  0
 20 19  1  1  0  0  0
 21 23  1  6  0  0  0
 21 22  1  0  0  0  0
 21 20  1  0  0  0  0
 22 20  1  0  0  0  0
 24 23  2  0  0  0  0
 25 23  1  0  0  0  0
M  END
>  <MODEL>
1

>  <REMARK>
 VINA RESULT:      -9.3      0.000      0.000
  Name = 
  4 active torsions:
  status: ('A' for Active; 'I' for Inactive)
    1  A    between atoms: C_1  and  C_5
    2  A    between atoms: C_2  and  CA_21
    3  A    between atoms: C_6  and  C_15
    4  A    between atoms: C_6  and  C_23
                            x       y       z     vdW  Elec       q    Type
                         _______ _______ _______ _____ _____    ______ ____

>  <TORSDO>
F 4

$$$$
=
 OpenBabel10272400413D

 25 29  0  0  1  0  0  0  0  0999 V2000
  188.8100  177.1160  145.2300 C   0  0  2  0  0  3  0  0  0  0  0  0
  187.4720  177.7380  145.5500 C   0  0  0  0  0  0  0  0  0  0  0  0
  189.3840  177.6440  147.7000 C   0  0  0  0  0  3  0  0  0  0  0  0
  188.2810  178.3800  147.8290 C   0  0  0  0  0  3  0  0  0  0  0  0
  186.0260  179.0510  147.0060 C   0  0  0  0  0  0  0  0  0  0  0  0
  185.7950  179.6970  148.1760 F   0  0  0  0  0  0  0  0  0  0  0  0
  186.4610  177.7200  144.5820 C   0  0  0  0  0  3  0  0  0  0  0  0
  189.6220  176.8580  146.4810 C   0  0  0  0  0  0  0  0  0  0  0  0
  190.5130  175.9710  146.4830 O   0  0  0  0  0  0  0  0  0  0  0  0
  185.0260  179.0230  146.0300 C   0  0  0  0  0  3  0  0  0  0  0  0
  185.2370  178.3500  144.8240 C   0  0  0  0  0  0  0  0  0  0  0  0
  187.2500  178.4050  146.7760 C   0  0  0  0  0  0  0  0  0  0  0  0
  189.5430  177.9820  144.1880 C   0  0  2  0  0  3  0  0  0  0  0  0
  190.9290  177.5920  142.2500 N   0  0  2  0  0  0  0  0  0  0  0  0
  189.5560  177.4280  142.7710 C   0  0  1  0  0  3  0  0  0  0  0  0
  190.4130  176.2550  142.5750 C   0  0  0  0  0  2  0  0  0  0  0  0
  191.7940  177.9830  143.3620 C   0  0  0  0  0  2  0  0  0  0  0  0
  190.9500  178.3900  144.5510 C   0  0  0  0  0  2  0  0  0  0  0  0
  184.1770  178.3430  143.7780 C   0  0  0  0  0  2  0  0  0  0  0  0
  184.7860  178.0620  142.4170 C   0  0  2  0  0  3  0  0  0  0  0  0
  184.3150  179.0580  141.4590 C   0  0  2  0  0  3  0  0  0  0  0  0
  183.7170  177.7140  141.4700 N   0  0  0  0  0  2  0  0  0  0  0  0
  185.2770  179.1710  140.3240 C   0  0  0  0  0  0  0  0  0  0  0  0
  186.5860  178.7320  140.4730 O   0  0  0  0  0  1  0  0  0  0  0  0
  184.9160  179.7020  139.2400 O   0  0  0  0  0  0  0  0  0  0  0  0
  1  2  1  1  0  0  0
  1  8  1  0  0  0  0
  2 12  1  0  0  0  0
  3  4  2  0  0  0  0
  5  6  1  0  0  0  0
  7 11  1  0  0  0  0
  7  2  2  0  0  0  0
  8  9  2  0  0  0  0
  8  3  1  0  0  0  0
 10  5  1  0  0  0  0
 11 10  2  0  0  0  0
 12  5  2  0  0  0  0
 12  4  1  0  0  0  0
 13 18  1  1  0  0  0
 13  1  1  0  0  0  0
 14 16  1  1  0  0  0
 14 15  1  0  0  0  0
 14 17  1  0  0  0  0
 15 16  1  1  0  0  0
 15 13  1  0  0  0  0
 17 18  1  0  0  0  0
 19 11  1  0  0  0  0
 20 19  1  1  0  0  0
 21 23  1  6  0  0  0
 21 22  1  0  0  0  0
 21 20  1  0  0  0  0
 22 20  1  0  0  0  0
 23 24  1  0  0  0  0
 25 23  2  0  0  0  0
M  END
>  <MODEL>
2

>  <REMARK>
 VINA RESULT:      -9.2      1.597      2.274
  Name = 
  4 active torsions:
  status: ('A' for Active; 'I' for Inactive)
    1  A    between atoms: C_1  and  C_5
    2  A    between atoms: C_2  and  CA_21
    3  A    between atoms: C_6  and  C_15
    4  A    between atoms: C_6  and  C_23
                            x       y       z     vdW  Elec       q    Type
                         _______ _______ _______ _____ _____    ______ ____

>  <TORSDO>
F 4

$$$$
=
 OpenBabel10272400413D

 25 29  0  0  1  0  0  0  0  0999 V2000
  189.1040  177.0900  145.5910 C   0  0  2  0  0  3  0  0  0  0  0  0
  187.7320  177.6870  145.7920 C   0  0  0  0  0  0  0  0  0  0  0  0
  189.4940  177.7380  148.0670 C   0  0  0  0  0  3  0  0  0  0  0  0
  188.3660  178.4470  148.0900 C   0  0  0  0  0  3  0  0  0  0  0  0
  186.1570  179.0180  147.0880 C   0  0  0  0  0  0  0  0  0  0  0  0
  185.8290  179.7060  148.2100 F   0  0  0  0  0  0  0  0  0  0  0  0
  186.7900  177.6000  144.7590 C   0  0  0  0  0  3  0  0  0  0  0  0
  189.8350  176.9070  146.9030 C   0  0  0  0  0  0  0  0  0  0  0  0
  190.7460  176.0470  147.0040 O   0  0  0  0  0  0  0  0  0  0  0  0
  185.2270  178.9210  146.0490 C   0  0  0  0  0  3  0  0  0  0  0  0
  185.5370  178.2050  144.8900 C   0  0  0  0  0  0  0  0  0  0  0  0
  187.4100  178.3980  146.9690 C   0  0  0  0  0  0  0  0  0  0  0  0
  189.8850  177.9320  144.5630 C   0  0  2  0  0  3  0  0  0  0  0  0
  190.7210  177.6240  142.3190 N   0  0  2  0  0  0  0  0  0  0  0  0
  189.4770  177.7320  143.1100 C   0  0  1  0  0  3  0  0  0  0  0  0
  189.8700  176.4440  142.5320 C   0  0  0  0  0  2  0  0  0  0  0  0
  191.8430  177.4970  143.2490 C   0  0  0  0  0  2  0  0  0  0  0  0
  191.3880  177.8410  144.6520 C   0  0  0  0  0  2  0  0  0  0  0  0
  184.5520  178.1240  143.7770 C   0  0  0  0  0  2  0  0  0  0  0  0
  183.2450  178.7790  144.1860 C   0  0  2  0  0  3  0  0  0  0  0  0
  182.4680  179.0980  142.9920 C   0  0  2  0  0  3  0  0  0  0  0  0
  183.2170  180.1590  143.6830 N   0  0  0  0  0  2  0  0  0  0  0  0
  181.0190  179.1990  143.3360 C   0  0  0  0  0  0  0  0  0  0  0  0
  180.2780  180.2960  142.9180 O   0  0  0  0  0  0  0  0  0  0  0  0
  180.4740  178.3080  144.0400 O   0  0  0  0  0  1  0  0  0  0  0  0
  1  2  1  1  0  0  0
  1  8  1  0  0  0  0
  2 12  1  0  0  0  0
  3  4  2  0  0  0  0
  5  6  1  0  0  0  0
  7 11  1  0  0  0  0
  7  2  2  0  0  0  0
  8  9  2  0  0  0  0
  8  3  1  0  0  0  0
 10  5  1  0  0  0  0
 11 10  2  0  0  0  0
 12  5  2  0  0  0  0
 12  4  1  0  0  0  0
 13 18  1  6  0  0  0
 13  1  1  0  0  0  0
 14 16  1  6  0  0  0
 14 15  1  0  0  0  0
 14 17  1  0  0  0  0
 15 16  1  1  0  0  0
 15 13  1  0  0  0  0
 17 18  1  0  0  0  0
 19 11  1  0  0  0  0
 20 19  1  6  0  0  0
 21 23  1  1  0  0  0
 21 22  1  0  0  0  0
 21 20  1  0  0  0  0
 22 20  1  0  0  0  0
 23 25  1  0  0  0  0
 24 23  2  0  0  0  0
M  END
>  <MODEL>
3

>  <REMARK>
 VINA RESULT:      -8.7      2.367      2.964
  Name = 
  4 active torsions:
  status: ('A' for Active; 'I' for Inactive)
    1  A    between atoms: C_1  and  C_5
    2  A    between atoms: C_2  and  CA_21
    3  A    between atoms: C_6  and  C_15
    4  A    between atoms: C_6  and  C_23
                            x       y       z     vdW  Elec       q    Type
                         _______ _______ _______ _____ _____    ______ ____

>  <TORSDO>
F 4

$$$$
=
 OpenBabel10272400413D

 25 29  0  0  1  0  0  0  0  0999 V2000
  188.6020  176.8330  142.5130 C   0  0  2  0  0  3  0  0  0  0  0  0
  187.4750  177.3940  143.3450 C   0  0  0  0  0  0  0  0  0  0  0  0
  189.8370  176.5800  144.7760 C   0  0  0  0  0  3  0  0  0  0  0  0
  188.9010  177.2950  145.3990 C   0  0  0  0  0  3  0  0  0  0  0  0
  186.6140  178.2850  145.4430 C   0  0  0  0  0  0  0  0  0  0  0  0
  186.7640  178.5660  146.7610 F   0  0  0  0  0  0  0  0  0  0  0  0
  186.2600  177.7110  142.7260 C   0  0  0  0  0  3  0  0  0  0  0  0
  189.6620  176.1780  143.3720 C   0  0  0  0  0  0  0  0  0  0  0  0
  190.4080  175.2900  142.8880 O   0  0  0  0  0  0  0  0  0  0  0  0
  185.4060  178.5940  144.8110 C   0  0  0  0  0  3  0  0  0  0  0  0
  185.2240  178.2980  143.4570 C   0  0  0  0  0  0  0  0  0  0  0  0
  187.6510  177.6790  144.7180 C   0  0  0  0  0  0  0  0  0  0  0  0
  189.1540  177.9320  141.5860 C   0  0  2  0  0  3  0  0  0  0  0  0
  188.7580  178.6780  139.3240 N   0  0  2  0  0  0  0  0  0  0  0  0
  188.1340  178.5790  140.6600 C   0  0  1  0  0  3  0  0  0  0  0  0
  187.6660  177.7240  139.5650 C   0  0  0  0  0  2  0  0  0  0  0  0
  189.9970  177.9020  139.3410 C   0  0  0  0  0  2  0  0  0  0  0  0
  190.3630  177.5510  140.7680 C   0  0  0  0  0  2  0  0  0  0  0  0
  183.9440  178.6500  142.7830 C   0  0  0  0  0  2  0  0  0  0  0  0
  184.1370  178.6850  141.2780 C   0  0  2  0  0  3  0  0  0  0  0  0
  182.8640  178.9910  140.6320 C   0  0  2  0  0  3  0  0  0  0  0  0
  183.3550  177.6040  140.6630 N   0  0  0  0  0  2  0  0  0  0  0  0
  183.1030  179.5790  139.2810 C   0  0  0  0  0  0  0  0  0  0  0  0
  184.3000  180.2260  139.0050 O   0  0  0  0  0  1  0  0  0  0  0  0
  182.2040  179.5260  138.4010 O   0  0  0  0  0  0  0  0  0  0  0  0
  1  2  1  1  0  0  0
  1  8  1  0  0  0  0
  2 12  1  0  0  0  0
  3  4  2  0  0  0  0
  5  6  1  0  0  0  0
  7  2  2  0  0  0  0
  7 11  1  0  0  0  0
  8  3  1  0  0  0  0
  9  8  2  0  0  0  0
 10  5  1  0  0  0  0
 11 10  2  0  0  0  0
 12  4  1  0  0  0  0
 12  5  2  0  0  0  0
 13 18  1  6  0  0  0
 13  1  1  0  0  0  0
 14 17  1  1  0  0  0
 14 16  1  0  0  0  0
 14 15  1  0  0  0  0
 15 16  1  6  0  0  0
 15 13  1  0  0  0  0
 17 18  1  0  0  0  0
 19 11  1  0  0  0  0
 20 19  1  1  0  0  0
 21 23  1  6  0  0  0
 21 22  1  0  0  0  0
 21 20  1  0  0  0  0
 22 20  1  0  0  0  0
 24 23  1  0  0  0  0
 25 23  2  0  0  0  0
M  END
>  <MODEL>
4

>  <REMARK>
 VINA RESULT:      -8.3      1.902      2.754
  Name = 
  4 active torsions:
  status: ('A' for Active; 'I' for Inactive)
    1  A    between atoms: C_1  and  C_5
    2  A    between atoms: C_2  and  CA_21
    3  A    between atoms: C_6  and  C_15
    4  A    between atoms: C_6  and  C_23
                            x       y       z     vdW  Elec       q    Type
                         _______ _______ _______ _____ _____    ______ ____

>  <TORSDO>
F 4

$$$$
=
 OpenBabel10272400413D

 25 29  0  0  1  0  0  0  0  0999 V2000
  188.9930  177.1210  145.4540 C   0  0  2  0  0  3  0  0  0  0  0  0
  187.5810  177.6370  145.3170 C   0  0  0  0  0  0  0  0  0  0  0  0
  188.7380  177.7660  147.9500 C   0  0  0  0  0  3  0  0  0  0  0  0
  187.5990  178.4090  147.6970 C   0  0  0  0  0  3  0  0  0  0  0  0
  185.6680  178.8650  146.1890 C   0  0  0  0  0  0  0  0  0  0  0  0
  185.0410  179.5230  147.1970 F   0  0  0  0  0  0  0  0  0  0  0  0
  186.9230  177.5070  144.0880 C   0  0  0  0  0  3  0  0  0  0  0  0
  189.3960  176.9670  146.9050 C   0  0  0  0  0  0  0  0  0  0  0  0
  190.3040  176.1580  147.2260 O   0  0  0  0  0  0  0  0  0  0  0  0
  185.0220  178.7260  144.9580 C   0  0  0  0  0  3  0  0  0  0  0  0
  185.6430  178.0390  143.9110 C   0  0  0  0  0  0  0  0  0  0  0  0
  186.9450  178.3180  146.3790 C   0  0  0  0  0  0  0  0  0  0  0  0
  189.9490  178.0150  144.6420 C   0  0  2  0  0  3  0  0  0  0  0  0
  190.9790  177.9490  142.4590 N   0  0  2  0  0  0  0  0  0  0  0  0
  189.6760  178.0730  143.1460 C   0  0  1  0  0  3  0  0  0  0  0  0
  190.0060  176.8490  142.4110 C   0  0  0  0  0  2  0  0  0  0  0  0
  191.9830  177.5700  143.4520 C   0  0  0  0  0  2  0  0  0  0  0  0
  191.4210  177.7530  144.8460 C   0  0  0  0  0  2  0  0  0  0  0  0
  184.9610  177.9140  142.5930 C   0  0  0  0  0  2  0  0  0  0  0  0
  183.8650  178.9570  142.4690 C   0  0  2  0  0  3  0  0  0  0  0  0
  182.7640  178.4130  141.6800 C   0  0  2  0  0  3  0  0  0  0  0  0
  183.7210  179.3430  141.0590 N   0  0  0  0  0  2  0  0  0  0  0  0
  181.4980  179.1340  142.0020 C   0  0  0  0  0  0  0  0  0  0  0  0
  180.5540  179.3630  141.0100 O   0  0  0  0  0  0  0  0  0  0  0  0
  181.2990  179.5720  143.1660 O   0  0  0  0  0  1  0  0  0  0  0  0
  1  2  1  1  0  0  0
  1  8  1  0  0  0  0
  2 12  1  0  0  0  0
  4  3  2  0  0  0  0
  5 12  2  0  0  0  0
  5  6  1  0  0  0  0
  7  2  2  0  0  0  0
  8  9  2  0  0  0  0
  8  3  1  0  0  0  0
 10  5  1  0  0  0  0
 11  7  1  0  0  0  0
 11 10  2  0  0  0  0
 12  4  1  0  0  0  0
 13 18  1  6  0  0  0
 13  1  1  0  0  0  0
 14 16  1  6  0  0  0
 14 15  1  0  0  0  0
 14 17  1  0  0  0  0
 15 16  1  6  0  0  0
 15 13  1  0  0  0  0
 17 18  1  0  0  0  0
 19 11  1  0  0  0  0
 20 19  1  6  0  0  0
 21 23  1  1  0  0  0
 21 20  1  0  0  0  0
 22 21  1  0  0  0  0
 22 20  1  0  0  0  0
 23 25  1  0  0  0  0
 24 23  2  0  0  0  0
M  END
>  <MODEL>
5

>  <REMARK>
 VINA RESULT:      -8.2      2.236      3.016
  Name = 
  4 active torsions:
  status: ('A' for Active; 'I' for Inactive)
    1  A    between atoms: C_1  and  C_5
    2  A    between atoms: C_2  and  CA_21
    3  A    between atoms: C_6  and  C_15
    4  A    between atoms: C_6  and  C_23
                            x       y       z     vdW  Elec       q    Type
                         _______ _______ _______ _____ _____    ______ ____

>  <TORSDO>
F 4

$$$$
=
 OpenBabel10272400413D

 25 29  0  0  1  0  0  0  0  0999 V2000
  186.3920  177.6990  145.8550 C   0  0  2  0  0  3  0  0  0  0  0  0
  186.7700  177.7070  144.3940 C   0  0  0  0  0  0  0  0  0  0  0  0
  184.3920  179.1640  145.1070 C   0  0  0  0  0  3  0  0  0  0  0  0
  184.9200  179.3150  143.8920 C   0  0  0  0  0  3  0  0  0  0  0  0
  186.5350  178.5930  142.1370 C   0  0  0  0  0  0  0  0  0  0  0  0
  185.9060  179.3880  141.2360 F   0  0  0  0  0  0  0  0  0  0  0  0
  187.8540  176.9320  143.9640 C   0  0  0  0  0  3  0  0  0  0  0  0
  184.9960  178.2390  146.0770 C   0  0  0  0  0  0  0  0  0  0  0  0
  184.3450  177.9050  147.0990 O   0  0  0  0  0  0  0  0  0  0  0  0
  187.6180  177.8130  141.7230 C   0  0  0  0  0  3  0  0  0  0  0  0
  188.2710  176.9750  142.6310 C   0  0  0  0  0  0  0  0  0  0  0  0
  186.1010  178.5400  143.4700 C   0  0  0  0  0  0  0  0  0  0  0  0
  187.4730  178.4340  146.6700 C   0  0  2  0  0  3  0  0  0  0  0  0
  189.3370  177.8110  148.0720 N   0  0  2  0  0  0  0  0  0  0  0  0
  188.8450  177.7760  146.6790 C   0  0  1  0  0  3  0  0  0  0  0  0
  188.9290  176.5380  147.4600 C   0  0  0  0  0  2  0  0  0  0  0  0
  188.2320  178.2260  148.9350 C   0  0  0  0  0  2  0  0  0  0  0  0
  187.1000  178.7750  148.0910 C   0  0  0  0  0  2  0  0  0  0  0  0
  189.4390  176.1630  142.1900 C   0  0  0  0  0  2  0  0  0  0  0  0
  190.6720  176.5440  142.9870 C   0  0  2  0  0  3  0  0  0  0  0  0
  190.7860  177.9980  143.0430 C   0  0  2  0  0  3  0  0  0  0  0  0
  191.6250  177.2340  142.1070 N   0  0  0  0  0  2  0  0  0  0  0  0
  191.5950  178.4040  144.2300 C   0  0  0  0  0  0  0  0  0  0  0  0
  191.8780  177.4820  145.2290 O   0  0  0  0  0  1  0  0  0  0  0  0
  191.9900  179.5940  144.3480 O   0  0  0  0  0  0  0  0  0  0  0  0
  1  2  1  6  0  0  0
  1  8  1  0  0  0  0
  1 13  1  0  0  0  0
  3  8  1  0  0  0  0
  4  3  2  0  0  0  0
  5 12  1  0  0  0  0
  6  5  1  0  0  0  0
  7  2  1  0  0  0  0
  8  9  2  0  0  0  0
 10  5  2  0  0  0  0
 10 11  1  0  0  0  0
 11  7  2  0  0  0  0
 12  4  1  0  0  0  0
 12  2  2  0  0  0  0
 13 15  1  0  0  0  0
 13 18  1  1  0  0  0
 14 16  1  1  0  0  0
 14 17  1  0  0  0  0
 15 16  1  1  0  0  0
 15 14  1  0  0  0  0
 18 17  1  0  0  0  0
 19 11  1  0  0  0  0
 20 19  1  6  0  0  0
 20 21  1  0  0  0  0
 21 23  1  1  0  0  0
 22 20  1  0  0  0  0
 22 21  1  0  0  0  0
 23 25  2  0  0  0  0
 23 24  1  0  0  0  0
M  END
>  <MODEL>
6

>  <REMARK>
 VINA RESULT:      -8.2      3.170      6.365
  Name = 
  4 active torsions:
  status: ('A' for Active; 'I' for Inactive)
    1  A    between atoms: C_1  and  C_5
    2  A    between atoms: C_2  and  CA_21
    3  A    between atoms: C_6  and  C_15
    4  A    between atoms: C_6  and  C_23
                            x       y       z     vdW  Elec       q    Type
                         _______ _______ _______ _____ _____    ______ ____

>  <TORSDO>
F 4

$$$$
=
 OpenBabel10272400413D

 25 29  0  0  1  0  0  0  0  0999 V2000
  186.9260  178.7990  145.9460 C   0  0  2  0  0  3  0  0  0  0  0  0
  188.1940  178.0150  145.7060 C   0  0  0  0  0  0  0  0  0  0  0  0
  187.4240  178.3910  148.4540 C   0  0  0  0  0  3  0  0  0  0  0  0
  188.3870  177.5210  148.1510 C   0  0  0  0  0  3  0  0  0  0  0  0
  189.9750  176.5510  146.4920 C   0  0  0  0  0  0  0  0  0  0  0  0
  190.6180  175.9000  147.4940 F   0  0  0  0  0  0  0  0  0  0  0  0
  188.6810  177.8860  144.3990 C   0  0  0  0  0  3  0  0  0  0  0  0
  186.7690  179.1810  147.4010 C   0  0  0  0  0  0  0  0  0  0  0  0
  186.0700  180.1750  147.7210 O   0  0  0  0  0  0  0  0  0  0  0  0
  190.4500  176.4330  145.1830 C   0  0  0  0  0  3  0  0  0  0  0  0
  189.8110  177.1080  144.1390 C   0  0  0  0  0  0  0  0  0  0  0  0
  188.8510  177.3460  146.7630 C   0  0  0  0  0  0  0  0  0  0  0  0
  185.7240  178.0180  145.3820 C   0  0  2  0  0  3  0  0  0  0  0  0
  183.9890  178.4110  143.7500 N   0  0  2  0  0  0  0  0  0  0  0  0
  185.4470  178.2250  143.8990 C   0  0  1  0  0  3  0  0  0  0  0  0
  184.9060  179.5420  143.5530 C   0  0  0  0  0  2  0  0  0  0  0  0
  183.4110  178.5750  145.0830 C   0  0  0  0  0  2  0  0  0  0  0  0
  184.4270  178.1810  146.1350 C   0  0  0  0  0  2  0  0  0  0  0  0
  190.3080  176.9600  142.7430 C   0  0  0  0  0  2  0  0  0  0  0  0
  189.7020  178.0310  141.8550 C   0  0  2  0  0  3  0  0  0  0  0  0
  188.8920  177.4010  140.8170 C   0  0  2  0  0  3  0  0  0  0  0  0
  190.2400  177.8960  140.4950 N   0  0  0  0  0  2  0  0  0  0  0  0
  187.8680  178.3620  140.3110 C   0  0  0  0  0  0  0  0  0  0  0  0
  187.5660  178.4110  138.9570 O   0  0  0  0  0  0  0  0  0  0  0  0
  187.3030  179.1590  141.1060 O   0  0  0  0  0  1  0  0  0  0  0  0
  1  2  1  1  0  0  0
  1  8  1  0  0  0  0
  2 12  1  0  0  0  0
  4  3  2  0  0  0  0
  5 12  2  0  0  0  0
  5  6  1  0  0  0  0
  7  2  2  0  0  0  0
  8  9  2  0  0  0  0
  8  3  1  0  0  0  0
 10  5  1  0  0  0  0
 11  7  1  0  0  0  0
 11 10  2  0  0  0  0
 12  4  1  0  0  0  0
 13  1  1  0  0  0  0
 13 18  1  1  0  0  0
 14 16  1  6  0  0  0
 14 15  1  0  0  0  0
 14 17  1  0  0  0  0
 15 16  1  1  0  0  0
 15 13  1  0  0  0  0
 17 18  1  0  0  0  0
 19 11  1  0  0  0  0
 20 19  1  1  0  0  0
 21 23  1  6  0  0  0
 21 20  1  0  0  0  0
 22 21  1  0  0  0  0
 22 20  1  0  0  0  0
 23 25  1  0  0  0  0
 24 23  2  0  0  0  0
M  END
>  <MODEL>
7

>  <REMARK>
 VINA RESULT:      -7.9      1.955      5.152
  Name = 
  4 active torsions:
  status: ('A' for Active; 'I' for Inactive)
    1  A    between atoms: C_1  and  C_5
    2  A    between atoms: C_2  and  CA_21
    3  A    between atoms: C_6  and  C_15
    4  A    between atoms: C_6  and  C_23
                            x       y       z     vdW  Elec       q    Type
                         _______ _______ _______ _____ _____    ______ ____

>  <TORSDO>
F 4

$$$$
=
 OpenBabel10272400413D

 25 29  0  0  1  0  0  0  0  0999 V2000
  189.2020  176.9990  139.8270 C   0  0  2  0  0  3  0  0  0  0  0  0
  189.4320  177.2340  141.3000 C   0  0  0  0  0  0  0  0  0  0  0  0
  191.7860  176.9260  139.6720 C   0  0  0  0  0  3  0  0  0  0  0  0
  191.9020  177.3660  140.9240 C   0  0  0  0  0  3  0  0  0  0  0  0
  190.8970  177.7840  143.1660 C   0  0  0  0  0  0  0  0  0  0  0  0
  192.1330  178.0230  143.6720 F   0  0  0  0  0  0  0  0  0  0  0  0
  188.3310  177.2870  142.1640 C   0  0  0  0  0  3  0  0  0  0  0  0
  190.4700  176.5690  139.1220 C   0  0  0  0  0  0  0  0  0  0  0  0
  190.4060  175.9090  138.0540 O   0  0  0  0  0  0  0  0  0  0  0  0
  189.7890  177.8320  144.0170 C   0  0  0  0  0  3  0  0  0  0  0  0
  188.5080  177.5730  143.5200 C   0  0  0  0  0  0  0  0  0  0  0  0
  190.7270  177.4790  141.8080 C   0  0  0  0  0  0  0  0  0  0  0  0
  188.5440  178.2450  139.2040 C   0  0  2  0  0  3  0  0  0  0  0  0
  187.0790  178.7070  137.3410 N   0  0  2  0  0  0  0  0  0  0  0  0
  187.1380  178.0380  138.6570 C   0  0  1  0  0  3  0  0  0  0  0  0
  187.0660  177.2400  137.4300 C   0  0  0  0  0  2  0  0  0  0  0  0
  188.4390  179.0870  136.9610 C   0  0  0  0  0  2  0  0  0  0  0  0
  189.3600  178.9610  138.1560 C   0  0  0  0  0  2  0  0  0  0  0  0
  187.3290  177.6480  144.4250 C   0  0  0  0  0  2  0  0  0  0  0  0
  187.7290  178.2510  145.7590 C   0  0  2  0  0  3  0  0  0  0  0  0
  187.4990  177.2770  146.8210 C   0  0  2  0  0  3  0  0  0  0  0  0
  186.5400  178.3730  146.6130 N   0  0  0  0  0  2  0  0  0  0  0  0
  188.3680  177.5850  147.9950 C   0  0  0  0  0  0  0  0  0  0  0  0
  189.7460  177.6630  147.8410 O   0  0  0  0  0  0  0  0  0  0  0  0
  187.8580  177.7360  149.1370 O   0  0  0  0  0  1  0  0  0  0  0  0
  1  8  1  6  0  0  0
  1  2  1  0  0  0  0
  2 12  2  0  0  0  0
  2  7  1  0  0  0  0
  3  4  2  0  0  0  0
  4 12  1  0  0  0  0
  5  6  1  0  0  0  0
  5 10  2  0  0  0  0
  7 11  2  0  0  0  0
  8  3  1  0  0  0  0
  9  8  2  0  0  0  0
 11 10  1  0  0  0  0
 11 19  1  0  0  0  0
 12  5  1  0  0  0  0
 13 18  1  6  0  0  0
 13  1  1  0  0  0  0
 14 17  1  6  0  0  0
 14 16  1  0  0  0  0
 14 15  1  0  0  0  0
 15 16  1  6  0  0  0
 15 13  1  0  0  0  0
 17 18  1  0  0  0  0
 20 19  1  6  0  0  0
 20 22  1  0  0  0  0
 20 21  1  0  0  0  0
 21 23  1  1  0  0  0
 22 21  1  0  0  0  0
 23 25  1  0  0  0  0
 24 23  2  0  0  0  0
M  END
>  <MODEL>
8

>  <REMARK>
 VINA RESULT:      -7.8      3.350      5.232
  Name = 
  4 active torsions:
  status: ('A' for Active; 'I' for Inactive)
    1  A    between atoms: C_1  and  C_5
    2  A    between atoms: C_2  and  CA_21
    3  A    between atoms: C_6  and  C_15
    4  A    between atoms: C_6  and  C_23
                            x       y       z     vdW  Elec       q    Type
                         _______ _______ _______ _____ _____    ______ ____

>  <TORSDO>
F 4

$$$$
=
 OpenBabel10272400413D

 25 29  0  0  1  0  0  0  0  0999 V2000
  187.1510  178.6240  145.5890 C   0  0  2  0  0  3  0  0  0  0  0  0
  188.5190  178.0210  145.3730 C   0  0  0  0  0  0  0  0  0  0  0  0
  187.4700  177.8880  148.0510 C   0  0  0  0  0  3  0  0  0  0  0  0
  188.5520  177.1790  147.7290 C   0  0  0  0  0  3  0  0  0  0  0  0
  190.3830  176.6460  146.1250 C   0  0  0  0  0  0  0  0  0  0  0  0
  191.0070  175.9180  147.0850 F   0  0  0  0  0  0  0  0  0  0  0  0
  189.1310  178.1460  144.1200 C   0  0  0  0  0  3  0  0  0  0  0  0
  186.8220  178.7590  147.0590 C   0  0  0  0  0  0  0  0  0  0  0  0
  185.9850  179.6150  147.4430 O   0  0  0  0  0  0  0  0  0  0  0  0
  190.9820  176.7800  144.8700 C   0  0  0  0  0  3  0  0  0  0  0  0
  190.3640  177.5380  143.8710 C   0  0  0  0  0  0  0  0  0  0  0  0
  189.1530  177.2690  146.3870 C   0  0  0  0  0  0  0  0  0  0  0  0
  186.1040  177.8190  144.7950 C   0  0  2  0  0  3  0  0  0  0  0  0
  184.9630  178.0360  142.6790 N   0  0  2  0  0  0  0  0  0  0  0  0
  186.2920  177.8130  143.2850 C   0  0  1  0  0  3  0  0  0  0  0  0
  185.9910  179.0840  142.6220 C   0  0  0  0  0  2  0  0  0  0  0  0
  184.0360  178.4240  143.7420 C   0  0  0  0  0  2  0  0  0  0  0  0
  184.6630  178.1500  145.0930 C   0  0  0  0  0  2  0  0  0  0  0  0
  190.9960  177.6590  142.5290 C   0  0  0  0  0  2  0  0  0  0  0  0
  190.1640  176.9280  141.4900 C   0  0  2  0  0  3  0  0  0  0  0  0
  190.3950  177.5230  140.1770 C   0  0  2  0  0  3  0  0  0  0  0  0
  189.1720  177.8530  140.9250 N   0  0  0  0  0  2  0  0  0  0  0  0
  190.0780  176.5340  139.1050 C   0  0  0  0  0  0  0  0  0  0  0  0
  188.9010  176.6490  138.3770 O   0  0  0  0  0  0  0  0  0  0  0  0
  190.8580  175.5710  138.8830 O   0  0  0  0  0  1  0  0  0  0  0  0
  1  2  1  1  0  0  0
  1  8  1  0  0  0  0
  2 12  1  0  0  0  0
  4  3  2  0  0  0  0
  5 12  2  0  0  0  0
  5  6  1  0  0  0  0
  7  2  2  0  0  0  0
  8  9  2  0  0  0  0
  8  3  1  0  0  0  0
 10  5  1  0  0  0  0
 11  7  1  0  0  0  0
 11 10  2  0  0  0  0
 12  4  1  0  0  0  0
 13 18  1  6  0  0  0
 13  1  1  0  0  0  0
 14 16  1  6  0  0  0
 14 15  1  0  0  0  0
 14 17  1  0  0  0  0
 15 16  1  1  0  0  0
 15 13  1  0  0  0  0
 17 18  1  0  0  0  0
 19 11  1  0  0  0  0
 20 19  1  1  0  0  0
 21 23  1  6  0  0  0
 21 22  1  0  0  0  0
 21 20  1  0  0  0  0
 22 20  1  0  0  0  0
 24 23  2  0  0  0  0
 25 23  1  0  0  0  0
M  END
>  <MODEL>
9

>  <REMARK>
 VINA RESULT:      -7.8      2.211      5.169
  Name = 
  4 active torsions:
  status: ('A' for Active; 'I' for Inactive)
    1  A    between atoms: C_1  and  C_5
    2  A    between atoms: C_2  and  CA_21
    3  A    between atoms: C_6  and  C_15
    4  A    between atoms: C_6  and  C_23
                            x       y       z     vdW  Elec       q    Type
                         _______ _______ _______ _____ _____    ______ ____

>  <TORSDO>
F 4

$$$$
