=
 OpenBabel10272400433D

 25 28  0  0  1  0  0  0  0  0999 V2000
  184.2520  178.4130  142.9070 C   0  0  0  0  0  0  0  0  0  0  0  0
  185.3560  178.2690  143.7520 C   0  0  0  0  0  0  0  0  0  0  0  0
  182.8420  179.0430  144.7400 C   0  0  0  0  0  3  0  0  0  0  0  0
  184.1010  178.1440  141.4510 C   0  0  1  0  0  3  0  0  0  0  0  0
  183.0390  179.3140  139.0410 C   0  0  0  0  0  3  0  0  0  0  0  0
  183.9110  178.9110  145.5750 N   0  0  0  0  0  0  0  0  0  0  0  0
  182.6550  178.5310  141.2750 C   0  0  0  0  0  0  0  0  0  0  0  0
  182.1500  178.8800  139.9450 C   0  0  0  0  0  3  0  0  0  0  0  0
  186.2270  178.2630  146.1720 C   0  0  2  0  0  3  0  0  0  0  0  0
  186.2560  179.3520  147.2290 C   0  0  0  0  0  1  0  0  0  0  0  0
  186.9470  177.7690  143.0650 S   0  0  0  0  0  0  0  0  0  0  0  0
  184.4720  179.4800  139.4010 C   0  0  0  0  0  3  0  0  0  0  0  0
  183.0230  178.7700  143.3930 C   0  0  0  0  0  0  0  0  0  0  0  0
  182.0490  178.8780  142.3680 N   0  0  0  0  0  0  0  0  0  0  0  0
  187.5650  178.1190  145.6060 N   0  0  0  0  0  2  0  0  0  0  0  0
  184.9640  178.9940  140.5530 C   0  0  0  0  0  3  0  0  0  0  0  0
  187.5340  177.0520  144.6180 C   0  0  2  0  0  3  0  0  0  0  0  0
  185.1590  178.5480  145.1340 C   0  0  0  0  0  0  0  0  0  0  0  0
  188.8750  176.5240  144.4260 N   0  0  0  0  0  2  0  0  0  0  0  0
  190.0250  177.3680  144.3240 C   0  0  0  0  0  0  0  0  0  0  0  0
  189.9100  178.6170  144.4510 O   0  0  0  0  0  0  0  0  0  0  0  0
  191.2650  175.5690  143.4350 F   0  0  0  0  0  0  0  0  0  0  0  0
  191.3780  176.7580  144.1340 C   0  0  0  0  0  0  0  0  0  0  0  0
  191.9450  176.5080  145.3680 F   0  0  0  0  0  0  0  0  0  0  0  0
  192.1930  177.6200  143.4230 F   0  0  0  0  0  0  0  0  0  0  0  0
  1 13  2  0  0  0  0
  1  2  1  0  0  0  0
  2 18  2  0  0  0  0
  3  6  2  0  0  0  0
  4 16  1  6  0  0  0
  4  1  1  0  0  0  0
  5 12  1  0  0  0  0
  5  8  2  0  0  0  0
  7  4  1  0  0  0  0
  7 14  2  0  0  0  0
  8  7  1  0  0  0  0
  9 10  1  1  0  0  0
 11  2  1  0  0  0  0
 11 17  1  0  0  0  0
 12 16  2  0  0  0  0
 13  3  1  0  0  0  0
 14 13  1  0  0  0  0
 15  9  1  0  0  0  0
 17 19  1  6  0  0  0
 17 15  1  0  0  0  0
 18  6  1  0  0  0  0
 18  9  1  0  0  0  0
 20 19  1  0  0  0  0
 20 21  2  0  0  0  0
 22 23  1  0  0  0  0
 23 20  1  0  0  0  0
 23 24  1  0  0  0  0
 25 23  1  0  0  0  0
M  END
>  <MODEL>
1

>  <REMARK>
 VINA RESULT:      -9.1      0.000      0.000
  Name = 
  2 active torsions:
  status: ('A' for Active; 'I' for Inactive)
    1  A    between atoms: N_6  and  C_23
    2  A    between atoms: C_7  and  C_15
                            x       y       z     vdW  Elec       q    Type
                         _______ _______ _______ _____ _____    ______ ____

>  <TORSDO>
F 2

$$$$
=
 OpenBabel10272400433D

 25 28  0  0  1  0  0  0  0  0999 V2000
  188.2900  177.7220  144.7420 C   0  0  0  0  0  0  0  0  0  0  0  0
  187.0760  178.0780  144.1490 C   0  0  0  0  0  0  0  0  0  0  0  0
  187.3840  178.0260  146.9410 C   0  0  0  0  0  3  0  0  0  0  0  0
  189.6110  177.4000  144.1380 C   0  0  1  0  0  3  0  0  0  0  0  0
  191.7540  175.4800  144.2920 C   0  0  0  0  0  3  0  0  0  0  0  0
  186.1930  178.3700  146.3750 N   0  0  0  0  0  0  0  0  0  0  0  0
  190.3990  177.1260  145.3920 C   0  0  0  0  0  0  0  0  0  0  0  0
  191.6260  176.3270  145.3220 C   0  0  0  0  0  3  0  0  0  0  0  0
  184.6860  178.9610  144.5000 C   0  0  2  0  0  3  0  0  0  0  0  0
  183.5090  178.3890  145.2680 C   0  0  0  0  0  1  0  0  0  0  0  0
  186.9320  178.0950  142.3510 S   0  0  0  0  0  0  0  0  0  0  0  0
  190.6640  175.3260  143.2930 C   0  0  0  0  0  3  0  0  0  0  0  0
  188.4440  177.7170  146.1030 C   0  0  0  0  0  0  0  0  0  0  0  0
  189.7450  177.3090  146.4960 N   0  0  0  0  0  0  0  0  0  0  0  0
  184.4760  178.7290  143.0740 N   0  0  0  0  0  2  0  0  0  0  0  0
  189.6260  176.1780  143.2540 C   0  0  0  0  0  3  0  0  0  0  0  0
  185.5920  179.3090  142.3440 C   0  0  2  0  0  3  0  0  0  0  0  0
  185.9950  178.3960  145.0180 C   0  0  0  0  0  0  0  0  0  0  0  0
  185.1940  179.5750  140.9710 N   0  0  0  0  0  2  0  0  0  0  0  0
  184.2730  178.7420  140.2630 C   0  0  0  0  0  0  0  0  0  0  0  0
  183.7320  177.7600  140.8400 O   0  0  0  0  0  0  0  0  0  0  0  0
  184.9780  178.8560  138.0160 F   0  0  0  0  0  0  0  0  0  0  0  0
  183.9000  179.0770  138.8540 C   0  0  0  0  0  0  0  0  0  0  0  0
  183.5350  180.4080  138.7820 F   0  0  0  0  0  0  0  0  0  0  0  0
  182.8410  178.2900  138.4410 F   0  0  0  0  0  0  0  0  0  0  0  0
  1 13  1  0  0  0  0
  2  1  2  0  0  0  0
  2 18  1  0  0  0  0
  4 16  1  6  0  0  0
  4  1  1  0  0  0  0
  4  7  1  0  0  0  0
  5  8  2  0  0  0  0
  6  3  1  0  0  0  0
  7 14  2  0  0  0  0
  8  7  1  0  0  0  0
  9 18  1  0  0  0  0
  9 10  1  1  0  0  0
 11  2  1  0  0  0  0
 12  5  1  0  0  0  0
 13 14  1  0  0  0  0
 13  3  2  0  0  0  0
 15  9  1  0  0  0  0
 16 12  2  0  0  0  0
 17 19  1  6  0  0  0
 17 11  1  0  0  0  0
 17 15  1  0  0  0  0
 18  6  2  0  0  0  0
 20 21  2  0  0  0  0
 20 19  1  0  0  0  0
 22 23  1  0  0  0  0
 23 20  1  0  0  0  0
 24 23  1  0  0  0  0
 25 23  1  0  0  0  0
M  END
>  <MODEL>
2

>  <REMARK>
 VINA RESULT:      -8.4      3.964      7.041
  Name = 
  2 active torsions:
  status: ('A' for Active; 'I' for Inactive)
    1  A    between atoms: N_6  and  C_23
    2  A    between atoms: C_7  and  C_15
                            x       y       z     vdW  Elec       q    Type
                         _______ _______ _______ _____ _____    ______ ____

>  <TORSDO>
F 2

$$$$
=
 OpenBabel10272400433D

 25 28  0  0  1  0  0  0  0  0999 V2000
  184.2480  178.7670  143.4380 C   0  0  0  0  0  0  0  0  0  0  0  0
  184.0540  178.6270  142.0610 C   0  0  0  0  0  0  0  0  0  0  0  0
  181.8860  178.8770  143.8310 C   0  0  0  0  0  3  0  0  0  0  0  0
  185.4980  178.8960  144.2360 C   0  0  1  0  0  3  0  0  0  0  0  0
  186.7700  177.8790  146.6130 C   0  0  0  0  0  3  0  0  0  0  0  0
  181.6820  178.7360  142.4910 N   0  0  0  0  0  0  0  0  0  0  0  0
  184.9020  179.0060  145.6160 C   0  0  0  0  0  0  0  0  0  0  0  0
  185.7210  178.6920  146.7900 C   0  0  0  0  0  3  0  0  0  0  0  0
  182.3740  178.6250  140.1140 C   0  0  2  0  0  3  0  0  0  0  0  0
  181.1890  177.7250  139.8140 C   0  0  0  0  0  1  0  0  0  0  0  0
  185.4810  178.4710  140.9700 S   0  0  0  0  0  0  0  0  0  0  0  0
  187.0530  177.2800  145.2810 C   0  0  0  0  0  3  0  0  0  0  0  0
  183.1920  178.9090  144.2970 C   0  0  0  0  0  0  0  0  0  0  0  0
  183.6060  179.0170  145.6490 N   0  0  0  0  0  0  0  0  0  0  0  0
  183.4900  178.2380  139.2570 N   0  0  0  0  0  2  0  0  0  0  0  0
  186.4180  177.7030  144.1760 C   0  0  0  0  0  3  0  0  0  0  0  0
  184.6090  179.1260  139.5280 C   0  0  2  0  0  3  0  0  0  0  0  0
  182.7100  178.5980  141.5930 C   0  0  0  0  0  0  0  0  0  0  0  0
  185.5110  179.1400  138.3870 N   0  0  0  0  0  2  0  0  0  0  0  0
  185.8160  177.9630  137.6350 C   0  0  0  0  0  0  0  0  0  0  0  0
  185.2600  176.8670  137.9170 O   0  0  0  0  0  0  0  0  0  0  0  0
  187.7030  177.0540  136.5520 F   0  0  0  0  0  0  0  0  0  0  0  0
  186.7470  178.0500  136.4680 C   0  0  0  0  0  0  0  0  0  0  0  0
  187.3720  179.2820  136.4710 F   0  0  0  0  0  0  0  0  0  0  0  0
  186.0440  177.8970  135.2860 F   0  0  0  0  0  0  0  0  0  0  0  0
  1  4  1  0  0  0  0
  1 13  1  0  0  0  0
  2  1  2  0  0  0  0
  3 13  2  0  0  0  0
  4 16  1  1  0  0  0
  4  7  1  0  0  0  0
  5  8  2  0  0  0  0
  6  3  1  0  0  0  0
  7 14  2  0  0  0  0
  7  8  1  0  0  0  0
  9 10  1  1  0  0  0
  9 18  1  0  0  0  0
 11  2  1  0  0  0  0
 12  5  1  0  0  0  0
 13 14  1  0  0  0  0
 15 17  1  0  0  0  0
 15  9  1  0  0  0  0
 16 12  2  0  0  0  0
 17 19  1  6  0  0  0
 17 11  1  0  0  0  0
 18  2  1  0  0  0  0
 18  6  2  0  0  0  0
 20 21  2  0  0  0  0
 20 19  1  0  0  0  0
 23 24  1  0  0  0  0
 23 22  1  0  0  0  0
 23 20  1  0  0  0  0
 25 23  1  0  0  0  0
M  END
>  <MODEL>
3

>  <REMARK>
 VINA RESULT:      -8.4      3.960      6.520
  Name = 
  2 active torsions:
  status: ('A' for Active; 'I' for Inactive)
    1  A    between atoms: N_6  and  C_23
    2  A    between atoms: C_7  and  C_15
                            x       y       z     vdW  Elec       q    Type
                         _______ _______ _______ _____ _____    ______ ____

>  <TORSDO>
F 2

$$$$
=
 OpenBabel10272400433D

 25 28  0  0  1  0  0  0  0  0999 V2000
  187.4910  177.6820  144.0020 C   0  0  0  0  0  0  0  0  0  0  0  0
  188.4330  177.6780  142.9710 C   0  0  0  0  0  0  0  0  0  0  0  0
  189.1840  177.2530  145.6450 C   0  0  0  0  0  3  0  0  0  0  0  0
  186.0090  177.8070  143.9650 C   0  0  1  0  0  3  0  0  0  0  0  0
  183.8300  179.1950  145.2430 C   0  0  0  0  0  3  0  0  0  0  0  0
  190.1140  177.2510  144.6490 N   0  0  0  0  0  0  0  0  0  0  0  0
  185.7140  177.7230  145.4410 C   0  0  0  0  0  0  0  0  0  0  0  0
  184.4510  178.2500  145.9630 C   0  0  0  0  0  3  0  0  0  0  0  0
  190.8810  177.2700  142.2930 C   0  0  2  0  0  3  0  0  0  0  0  0
  192.1660  177.9550  142.7190 C   0  0  0  0  0  1  0  0  0  0  0  0
  187.8970  177.9560  141.2710 S   0  0  0  0  0  0  0  0  0  0  0  0
  184.4360  179.7180  143.9900 C   0  0  0  0  0  3  0  0  0  0  0  0
  187.8550  177.4540  145.3020 C   0  0  0  0  0  0  0  0  0  0  0  0
  186.7520  177.5200  146.1910 N   0  0  0  0  0  0  0  0  0  0  0  0
  190.5090  177.7480  140.9650 N   0  0  0  0  0  2  0  0  0  0  0  0
  185.4940  179.1160  143.4210 C   0  0  0  0  0  3  0  0  0  0  0  0
  189.2950  177.0630  140.5510 C   0  0  2  0  0  3  0  0  0  0  0  0
  189.7940  177.4680  143.3320 C   0  0  0  0  0  0  0  0  0  0  0  0
  189.1860  177.0900  139.1010 N   0  0  0  0  0  2  0  0  0  0  0  0
  189.9820  176.2550  138.2560 C   0  0  0  0  0  0  0  0  0  0  0  0
  190.7820  175.4200  138.7590 O   0  0  0  0  0  0  0  0  0  0  0  0
  189.6990  177.6480  136.3740 F   0  0  0  0  0  0  0  0  0  0  0  0
  189.8140  176.3280  136.7720 C   0  0  0  0  0  0  0  0  0  0  0  0
  188.6730  175.6420  136.4060 F   0  0  0  0  0  0  0  0  0  0  0  0
  190.9090  175.7640  136.1400 F   0  0  0  0  0  0  0  0  0  0  0  0
  1 13  1  0  0  0  0
  2 18  1  0  0  0  0
  2  1  2  0  0  0  0
  4 16  1  1  0  0  0
  4  1  1  0  0  0  0
  4  7  1  0  0  0  0
  5  8  2  0  0  0  0
  6  3  1  0  0  0  0
  7  8  1  0  0  0  0
  7 14  2  0  0  0  0
  9 10  1  1  0  0  0
  9 18  1  0  0  0  0
 11  2  1  0  0  0  0
 12  5  1  0  0  0  0
 13  3  2  0  0  0  0
 13 14  1  0  0  0  0
 15  9  1  0  0  0  0
 16 12  2  0  0  0  0
 17 19  1  6  0  0  0
 17 15  1  0  0  0  0
 17 11  1  0  0  0  0
 18  6  2  0  0  0  0
 20 21  2  0  0  0  0
 20 19  1  0  0  0  0
 22 23  1  0  0  0  0
 23 20  1  0  0  0  0
 24 23  1  0  0  0  0
 25 23  1  0  0  0  0
M  END
>  <MODEL>
4

>  <REMARK>
 VINA RESULT:      -8.3      4.046      5.909
  Name = 
  2 active torsions:
  status: ('A' for Active; 'I' for Inactive)
    1  A    between atoms: N_6  and  C_23
    2  A    between atoms: C_7  and  C_15
                            x       y       z     vdW  Elec       q    Type
                         _______ _______ _______ _____ _____    ______ ____

>  <TORSDO>
F 2

$$$$
=
 OpenBabel10272400433D

 25 28  0  0  1  0  0  0  0  0999 V2000
  188.9430  177.6320  144.5720 C   0  0  0  0  0  0  0  0  0  0  0  0
  188.2990  177.8510  143.3510 C   0  0  0  0  0  0  0  0  0  0  0  0
  186.8960  177.9300  145.7840 C   0  0  0  0  0  3  0  0  0  0  0  0
  190.3810  177.4140  144.8880 C   0  0  1  0  0  3  0  0  0  0  0  0
  192.1160  175.7110  146.4350 C   0  0  0  0  0  3  0  0  0  0  0  0
  186.2550  178.1410  144.6000 N   0  0  0  0  0  0  0  0  0  0  0  0
  190.2860  177.2610  146.3850 C   0  0  0  0  0  0  0  0  0  0  0  0
  191.3570  176.5790  147.1160 C   0  0  0  0  0  3  0  0  0  0  0  0
  186.1220  178.5190  142.1550 C   0  0  2  0  0  3  0  0  0  0  0  0
  184.7520  177.8670  142.1310 C   0  0  0  0  0  1  0  0  0  0  0  0
  189.2480  177.7890  141.8180 S   0  0  0  0  0  0  0  0  0  0  0  0
  191.8390  175.4180  145.0030 C   0  0  0  0  0  3  0  0  0  0  0  0
  188.2620  177.6920  145.7580 C   0  0  0  0  0  0  0  0  0  0  0  0
  189.0960  177.4220  146.8730 N   0  0  0  0  0  0  0  0  0  0  0  0
  186.8110  178.2160  140.9040 N   0  0  0  0  0  2  0  0  0  0  0  0
  190.9820  176.1680  144.2900 C   0  0  0  0  0  3  0  0  0  0  0  0
  188.1090  178.8700  140.9220 C   0  0  2  0  0  3  0  0  0  0  0  0
  186.8980  178.0980  143.3890 C   0  0  0  0  0  0  0  0  0  0  0  0
  188.5880  179.0480  139.5610 N   0  0  0  0  0  2  0  0  0  0  0  0
  188.6820  177.9650  138.6320 C   0  0  0  0  0  0  0  0  0  0  0  0
  188.2960  176.8100  138.9630 O   0  0  0  0  0  0  0  0  0  0  0  0
  189.3740  179.5740  137.0540 F   0  0  0  0  0  0  0  0  0  0  0  0
  189.1760  178.2180  137.2440 C   0  0  0  0  0  0  0  0  0  0  0  0
  188.2390  177.7640  136.3350 F   0  0  0  0  0  0  0  0  0  0  0  0
  190.3720  177.5560  137.0360 F   0  0  0  0  0  0  0  0  0  0  0  0
  1  4  1  0  0  0  0
  1 13  1  0  0  0  0
  2 18  1  0  0  0  0
  2  1  2  0  0  0  0
  4 16  1  6  0  0  0
  4  7  1  0  0  0  0
  5  8  2  0  0  0  0
  6  3  1  0  0  0  0
  7 14  2  0  0  0  0
  7  8  1  0  0  0  0
  9 10  1  6  0  0  0
  9 18  1  0  0  0  0
 11  2  1  0  0  0  0
 12  5  1  0  0  0  0
 13  3  2  0  0  0  0
 13 14  1  0  0  0  0
 15 17  1  0  0  0  0
 15  9  1  0  0  0  0
 16 12  2  0  0  0  0
 17 19  1  6  0  0  0
 17 11  1  0  0  0  0
 18  6  2  0  0  0  0
 20 21  2  0  0  0  0
 20 19  1  0  0  0  0
 22 23  1  0  0  0  0
 23 20  1  0  0  0  0
 24 23  1  0  0  0  0
 25 23  1  0  0  0  0
M  END
>  <MODEL>
5

>  <REMARK>
 VINA RESULT:      -8.3      3.769      6.964
  Name = 
  2 active torsions:
  status: ('A' for Active; 'I' for Inactive)
    1  A    between atoms: N_6  and  C_23
    2  A    between atoms: C_7  and  C_15
                            x       y       z     vdW  Elec       q    Type
                         _______ _______ _______ _____ _____    ______ ____

>  <TORSDO>
F 2

$$$$
=
 OpenBabel10272400433D

 25 28  0  0  1  0  0  0  0  0999 V2000
  186.3280  178.3750  141.0400 C   0  0  0  0  0  0  0  0  0  0  0  0
  187.0810  177.9220  142.1270 C   0  0  0  0  0  0  0  0  0  0  0  0
  188.1400  177.9630  139.5250 C   0  0  0  0  0  3  0  0  0  0  0  0
  184.9650  178.9680  140.9810 C   0  0  1  0  0  3  0  0  0  0  0  0
  182.4910  178.7900  139.5140 C   0  0  0  0  0  3  0  0  0  0  0  0
  188.8830  177.5150  140.5750 N   0  0  0  0  0  0  0  0  0  0  0  0
  184.8550  179.1940  139.4950 C   0  0  0  0  0  0  0  0  0  0  0  0
  183.5360  179.3330  138.8740 C   0  0  0  0  0  3  0  0  0  0  0  0
  189.3730  177.1150  142.9710 C   0  0  2  0  0  3  0  0  0  0  0  0
  190.2100  175.9060  142.5960 C   0  0  0  0  0  1  0  0  0  0  0  0
  186.3530  177.9180  143.7770 S   0  0  0  0  0  0  0  0  0  0  0  0
  182.6820  178.0320  140.7780 C   0  0  0  0  0  3  0  0  0  0  0  0
  186.8520  178.4130  139.7760 C   0  0  0  0  0  0  0  0  0  0  0  0
  185.9180  178.8860  138.8190 N   0  0  0  0  0  0  0  0  0  0  0  0
  188.7220  176.8600  144.2520 N   0  0  0  0  0  2  0  0  0  0  0  0
  183.8540  178.0560  141.4370 C   0  0  0  0  0  3  0  0  0  0  0  0
  187.9490  178.0350  144.6190 C   0  0  2  0  0  3  0  0  0  0  0  0
  188.4020  177.4660  141.8590 C   0  0  0  0  0  0  0  0  0  0  0  0
  187.7330  178.0510  146.0570 N   0  0  0  0  0  2  0  0  0  0  0  0
  188.8080  177.9730  146.9960 C   0  0  0  0  0  0  0  0  0  0  0  0
  190.0020  177.9390  146.5920 O   0  0  0  0  0  0  0  0  0  0  0  0
  187.4820  178.8830  148.7200 F   0  0  0  0  0  0  0  0  0  0  0  0
  188.5170  178.0020  148.4620 C   0  0  0  0  0  0  0  0  0  0  0  0
  189.6450  178.4130  149.1450 F   0  0  0  0  0  0  0  0  0  0  0  0
  188.1520  176.7410  148.9000 F   0  0  0  0  0  0  0  0  0  0  0  0
  1  2  1  0  0  0  0
  2 11  1  0  0  0  0
  3 13  1  0  0  0  0
  3  6  2  0  0  0  0
  4  1  1  0  0  0  0
  4 16  1  6  0  0  0
  5 12  1  0  0  0  0
  6 18  1  0  0  0  0
  7  4  1  0  0  0  0
  8  7  1  0  0  0  0
  8  5  2  0  0  0  0
  9 10  1  6  0  0  0
  9 15  1  0  0  0  0
 11 17  1  0  0  0  0
 12 16  2  0  0  0  0
 13  1  2  0  0  0  0
 14  7  2  0  0  0  0
 14 13  1  0  0  0  0
 15 17  1  0  0  0  0
 17 19  1  1  0  0  0
 18  2  2  0  0  0  0
 18  9  1  0  0  0  0
 19 20  1  0  0  0  0
 20 23  1  0  0  0  0
 21 20  2  0  0  0  0
 23 22  1  0  0  0  0
 23 25  1  0  0  0  0
 23 24  1  0  0  0  0
M  END
>  <MODEL>
6

>  <REMARK>
 VINA RESULT:      -8.2      2.907      4.351
  Name = 
  2 active torsions:
  status: ('A' for Active; 'I' for Inactive)
    1  A    between atoms: N_6  and  C_23
    2  A    between atoms: C_7  and  C_15
                            x       y       z     vdW  Elec       q    Type
                         _______ _______ _______ _____ _____    ______ ____

>  <TORSDO>
F 2

$$$$
=
 OpenBabel10272400433D

 25 28  0  0  1  0  0  0  0  0999 V2000
  186.1560  178.4770  144.9030 C   0  0  0  0  0  0  0  0  0  0  0  0
  186.0780  178.3210  143.5160 C   0  0  0  0  0  0  0  0  0  0  0  0
  183.7990  178.8850  145.0600 C   0  0  0  0  0  3  0  0  0  0  0  0
  187.3310  178.4760  145.8170 C   0  0  1  0  0  3  0  0  0  0  0  0
  188.2360  177.3810  148.3240 C   0  0  0  0  0  3  0  0  0  0  0  0
  183.7080  178.7310  143.7090 N   0  0  0  0  0  0  0  0  0  0  0  0
  186.6250  178.6980  147.1300 C   0  0  0  0  0  0  0  0  0  0  0  0
  187.2830  178.3220  148.3830 C   0  0  0  0  0  3  0  0  0  0  0  0
  184.6030  178.4660  141.4140 C   0  0  2  0  0  3  0  0  0  0  0  0
  183.3500  177.7090  141.0150 C   0  0  0  0  0  1  0  0  0  0  0  0
  187.5720  177.9600  142.5730 S   0  0  0  0  0  0  0  0  0  0  0  0
  188.5670  176.7130  147.0370 C   0  0  0  0  0  3  0  0  0  0  0  0
  185.0490  178.7720  145.6510 C   0  0  0  0  0  0  0  0  0  0  0  0
  185.3430  178.8680  147.0360 N   0  0  0  0  0  0  0  0  0  0  0  0
  185.7390  177.9210  140.6770 N   0  0  0  0  0  2  0  0  0  0  0  0
  188.0970  177.1780  145.8680 C   0  0  0  0  0  3  0  0  0  0  0  0
  186.9290  178.6730  141.0410 C   0  0  2  0  0  3  0  0  0  0  0  0
  184.7920  178.4420  142.9190 C   0  0  0  0  0  0  0  0  0  0  0  0
  187.9300  178.5440  139.9940 N   0  0  0  0  0  2  0  0  0  0  0  0
  187.5920  178.5470  138.6050 C   0  0  0  0  0  0  0  0  0  0  0  0
  186.3960  178.7140  138.2420 O   0  0  0  0  0  0  0  0  0  0  0  0
  188.1700  177.8180  136.4380 F   0  0  0  0  0  0  0  0  0  0  0  0
  188.6720  178.4180  137.5780 C   0  0  0  0  0  0  0  0  0  0  0  0
  189.6960  177.6410  138.0870 F   0  0  0  0  0  0  0  0  0  0  0  0
  189.1670  179.6670  137.2480 F   0  0  0  0  0  0  0  0  0  0  0  0
  1 13  1  0  0  0  0
  1  4  1  0  0  0  0
  2  1  2  0  0  0  0
  3 13  2  0  0  0  0
  4 16  1  1  0  0  0
  4  7  1  0  0  0  0
  5  8  2  0  0  0  0
  6  3  1  0  0  0  0
  7  8  1  0  0  0  0
  9 10  1  1  0  0  0
  9 18  1  0  0  0  0
 11  2  1  0  0  0  0
 12  5  1  0  0  0  0
 13 14  1  0  0  0  0
 14  7  2  0  0  0  0
 15 17  1  0  0  0  0
 15  9  1  0  0  0  0
 16 12  2  0  0  0  0
 17 19  1  6  0  0  0
 17 11  1  0  0  0  0
 18  2  1  0  0  0  0
 18  6  2  0  0  0  0
 20 19  1  0  0  0  0
 21 20  2  0  0  0  0
 22 23  1  0  0  0  0
 23 24  1  0  0  0  0
 23 20  1  0  0  0  0
 25 23  1  0  0  0  0
M  END
>  <MODEL>
7

>  <REMARK>
 VINA RESULT:      -8.2      3.557      6.133
  Name = 
  2 active torsions:
  status: ('A' for Active; 'I' for Inactive)
    1  A    between atoms: N_6  and  C_23
    2  A    between atoms: C_7  and  C_15
                            x       y       z     vdW  Elec       q    Type
                         _______ _______ _______ _____ _____    ______ ____

>  <TORSDO>
F 2

$$$$
=
 OpenBabel10272400433D

 25 28  0  0  1  0  0  0  0  0999 V2000
  187.7460  177.5850  143.0570 C   0  0  0  0  0  0  0  0  0  0  0  0
  188.4810  177.5990  141.8690 C   0  0  0  0  0  0  0  0  0  0  0  0
  189.6800  176.9630  144.3290 C   0  0  0  0  0  3  0  0  0  0  0  0
  186.2920  177.7890  143.3040 C   0  0  1  0  0  3  0  0  0  0  0  0
  184.4770  179.2010  145.0390 C   0  0  0  0  0  3  0  0  0  0  0  0
  190.4100  176.9780  143.1780 N   0  0  0  0  0  0  0  0  0  0  0  0
  186.2690  177.6240  144.8020 C   0  0  0  0  0  0  0  0  0  0  0  0
  185.1580  178.1810  145.5780 C   0  0  0  0  0  3  0  0  0  0  0  0
  190.7320  177.1090  140.7250 C   0  0  2  0  0  3  0  0  0  0  0  0
  192.1140  177.6980  140.9390 C   0  0  0  0  0  1  0  0  0  0  0  0
  187.6610  178.0140  140.3170 S   0  0  0  0  0  0  0  0  0  0  0  0
  184.8740  179.7730  143.7250 C   0  0  0  0  0  3  0  0  0  0  0  0
  188.3270  177.2550  144.2520 C   0  0  0  0  0  0  0  0  0  0  0  0
  187.4110  177.3200  145.3330 N   0  0  0  0  0  0  0  0  0  0  0  0
  190.1540  177.6910  139.5170 N   0  0  0  0  0  2  0  0  0  0  0  0
  185.7700  179.1540  142.9370 C   0  0  0  0  0  3  0  0  0  0  0  0
  188.8440  177.0980  139.3010 C   0  0  2  0  0  3  0  0  0  0  0  0
  189.8690  177.2950  141.9580 C   0  0  0  0  0  0  0  0  0  0  0  0
  188.4730  177.2240  137.9010 N   0  0  0  0  0  2  0  0  0  0  0  0
  188.7600  176.2090  136.9360 C   0  0  0  0  0  0  0  0  0  0  0  0
  189.3090  175.1310  137.2920 O   0  0  0  0  0  0  0  0  0  0  0  0
  189.2660  177.1920  134.8540 F   0  0  0  0  0  0  0  0  0  0  0  0
  188.3430  176.3990  135.5120 C   0  0  0  0  0  0  0  0  0  0  0  0
  187.1070  177.0140  135.4750 F   0  0  0  0  0  0  0  0  0  0  0  0
  188.2650  175.1760  134.8710 F   0  0  0  0  0  0  0  0  0  0  0  0
  1  4  1  0  0  0  0
  1 13  1  0  0  0  0
  2 18  1  0  0  0  0
  2  1  2  0  0  0  0
  4 16  1  1  0  0  0
  4  7  1  0  0  0  0
  5  8  2  0  0  0  0
  6  3  1  0  0  0  0
  7 14  2  0  0  0  0
  7  8  1  0  0  0  0
  9 10  1  1  0  0  0
  9 18  1  0  0  0  0
 11  2  1  0  0  0  0
 12  5  1  0  0  0  0
 13  3  2  0  0  0  0
 13 14  1  0  0  0  0
 15  9  1  0  0  0  0
 16 12  2  0  0  0  0
 17 19  1  6  0  0  0
 17 15  1  0  0  0  0
 17 11  1  0  0  0  0
 18  6  2  0  0  0  0
 20 21  2  0  0  0  0
 20 19  1  0  0  0  0
 22 23  1  0  0  0  0
 23 20  1  0  0  0  0
 24 23  1  0  0  0  0
 25 23  1  0  0  0  0
M  END
>  <MODEL>
8

>  <REMARK>
 VINA RESULT:      -7.9      4.638      6.718
  Name = 
  2 active torsions:
  status: ('A' for Active; 'I' for Inactive)
    1  A    between atoms: N_6  and  C_23
    2  A    between atoms: C_7  and  C_15
                            x       y       z     vdW  Elec       q    Type
                         _______ _______ _______ _____ _____    ______ ____

>  <TORSDO>
F 2

$$$$
=
 OpenBabel10272400433D

 25 28  0  0  1  0  0  0  0  0999 V2000
  187.0280  177.7910  142.8060 C   0  0  0  0  0  0  0  0  0  0  0  0
  186.8900  178.1030  141.4510 C   0  0  0  0  0  0  0  0  0  0  0  0
  189.3100  177.1250  142.4910 C   0  0  0  0  0  3  0  0  0  0  0  0
  186.0350  177.8050  143.9130 C   0  0  1  0  0  3  0  0  0  0  0  0
  185.7090  178.6790  146.6400 C   0  0  0  0  0  3  0  0  0  0  0  0
  189.1890  177.4290  141.1680 N   0  0  0  0  0  0  0  0  0  0  0  0
  186.9200  177.3550  145.0480 C   0  0  0  0  0  0  0  0  0  0  0  0
  186.5340  177.6440  146.4310 C   0  0  0  0  0  3  0  0  0  0  0  0
  187.9590  178.0580  139.1120 C   0  0  2  0  0  3  0  0  0  0  0  0
  189.2110  178.7240  138.5690 C   0  0  0  0  0  1  0  0  0  0  0  0
  185.3140  178.7270  140.8350 S   0  0  0  0  0  0  0  0  0  0  0  0
  185.2490  179.5270  145.5080 C   0  0  0  0  0  3  0  0  0  0  0  0
  188.2020  177.2950  143.3070 C   0  0  0  0  0  0  0  0  0  0  0  0
  188.1360  177.0650  144.7060 N   0  0  0  0  0  0  0  0  0  0  0  0
  186.7910  178.8030  138.6510 N   0  0  0  0  0  2  0  0  0  0  0  0
  185.4540  179.1590  144.2320 C   0  0  0  0  0  3  0  0  0  0  0  0
  185.5960  178.1400  139.1480 C   0  0  2  0  0  3  0  0  0  0  0  0
  188.0320  177.9210  140.6210 C   0  0  0  0  0  0  0  0  0  0  0  0
  184.4570  178.4970  138.3190 N   0  0  0  0  0  2  0  0  0  0  0  0
  183.3490  177.6150  138.1170 C   0  0  0  0  0  0  0  0  0  0  0  0
  183.3080  176.5010  138.7060 O   0  0  0  0  0  0  0  0  0  0  0  0
  182.5470  177.9320  135.9220 F   0  0  0  0  0  0  0  0  0  0  0  0
  182.2040  178.0480  137.2570 C   0  0  0  0  0  0  0  0  0  0  0  0
  181.8960  179.3660  137.5340 F   0  0  0  0  0  0  0  0  0  0  0  0
  181.0960  177.2580  137.5050 F   0  0  0  0  0  0  0  0  0  0  0  0
  1 13  1  0  0  0  0
  1  4  1  0  0  0  0
  2  1  2  0  0  0  0
  3 13  2  0  0  0  0
  4 16  1  1  0  0  0
  4  7  1  0  0  0  0
  6  3  1  0  0  0  0
  7  8  1  0  0  0  0
  8  5  2  0  0  0  0
  9 10  1  1  0  0  0
  9 18  1  0  0  0  0
 11  2  1  0  0  0  0
 12  5  1  0  0  0  0
 13 14  1  0  0  0  0
 14  7  2  0  0  0  0
 15  9  1  0  0  0  0
 15 17  1  0  0  0  0
 16 12  2  0  0  0  0
 17 19  1  6  0  0  0
 17 11  1  0  0  0  0
 18  6  2  0  0  0  0
 18  2  1  0  0  0  0
 20 19  1  0  0  0  0
 20 21  2  0  0  0  0
 22 23  1  0  0  0  0
 23 25  1  0  0  0  0
 23 24  1  0  0  0  0
 23 20  1  0  0  0  0
M  END
>  <MODEL>
9

>  <REMARK>
 VINA RESULT:      -7.9      5.122      7.741
  Name = 
  2 active torsions:
  status: ('A' for Active; 'I' for Inactive)
    1  A    between atoms: N_6  and  C_23
    2  A    between atoms: C_7  and  C_15
                            x       y       z     vdW  Elec       q    Type
                         _______ _______ _______ _____ _____    ______ ____

>  <TORSDO>
F 2

$$$$
