=
 OpenBabel10262423403D

 34 39  0  0  1  0  0  0  0  0999 V2000
  189.4630  177.2780  146.1700 C   0  0  0  0  0  0  0  0  0  0  0  0
  191.0780  176.2560  144.7040 C   0  0  0  0  0  0  0  0  0  0  0  0
  188.7960  176.9360  143.7230 C   0  0  1  0  0  3  0  0  0  0  0  0
  188.2210  177.4690  141.4400 N   0  0  2  0  0  0  0  0  0  0  0  0
  191.6260  176.7360  146.9550 C   0  0  0  0  0  3  0  0  0  0  0  0
  191.9530  176.2280  145.7420 N   0  0  0  0  0  0  0  0  0  0  0  0
  190.4930  177.6700  141.9680 N   0  0  0  0  0  2  0  0  0  0  0  0
  189.8220  176.8840  144.8560 C   0  0  0  0  0  0  0  0  0  0  0  0
  188.8320  178.1170  140.3010 C   0  0  0  0  0  2  0  0  0  0  0  0
  190.3830  177.2330  147.1670 N   0  0  0  0  0  0  0  0  0  0  0  0
  187.4600  177.5600  144.1680 C   0  0  1  0  0  3  0  0  0  0  0  0
  188.0640  177.7070  146.5160 C   0  0  0  0  0  2  0  0  0  0  0  0
  191.4440  175.5000  143.4710 C   0  0  0  0  0  1  0  0  0  0  0  0
  186.9330  178.0750  141.7630 C   0  0  0  0  0  2  0  0  0  0  0  0
  186.3840  177.4600  143.0680 C   0  0  2  0  0  3  0  0  0  0  0  0
  190.3290  178.0620  140.5720 C   0  0  2  0  0  3  0  0  0  0  0  0
  189.1520  177.7940  142.5060 C   0  0  2  0  0  3  0  0  0  0  0  0
  187.0490  177.1040  145.5530 C   0  0  0  0  0  2  0  0  0  0  0  0
  182.9070  178.9520  142.8500 C   0  0  0  0  0  0  0  0  0  0  0  0
  182.7060  179.4050  144.1580 C   0  0  0  0  0  3  0  0  0  0  0  0
  185.1090  178.1420  143.4630 C   0  0  0  0  0  0  0  0  0  0  0  0
  183.7050  179.2280  145.1200 C   0  0  0  0  0  3  0  0  0  0  0  0
  184.1070  178.3230  142.5040 C   0  0  0  0  0  3  0  0  0  0  0  0
  184.9030  178.5980  144.7760 C   0  0  0  0  0  3  0  0  0  0  0  0
  181.9400  179.1250  141.9180 F   0  0  0  0  0  0  0  0  0  0  0  0
  191.4630  176.2300  138.9970 C   0  0  0  0  0  0  0  0  0  0  0  0
  190.9520  177.0570  139.7100 C   0  0  0  0  0  0  0  0  0  0  0  0
  190.1700  174.0070  137.0770 C   0  0  0  0  0  1  0  0  0  0  0  0
  192.0860  175.2260  138.1270 C   0  0  1  0  0  3  0  0  0  0  0  0
  191.2470  175.0500  136.8490 C   0  0  1  0  0  3  0  0  0  0  0  0
  193.1790  175.6980  135.3490 C   0  0  0  0  0  2  0  0  0  0  0  0
  193.6710  176.4590  136.5870 C   0  0  0  0  0  2  0  0  0  0  0  0
  193.5480  175.6120  137.8520 C   0  0  0  0  0  2  0  0  0  0  0  0
  192.1120  174.6390  135.6600 C   0  0  0  0  0  2  0  0  0  0  0  0
  1 12  1  0  0  0  0
  1 10  1  0  0  0  0
  2  8  1  0  0  0  0
  2  6  2  0  0  0  0
  3 11  1  0  0  0  0
  3  8  1  1  0  0  0
  4  9  1  6  0  0  0
  4 14  1  0  0  0  0
  4 17  1  0  0  0  0
  5 10  2  0  0  0  0
  6  5  1  0  0  0  0
  8  1  2  0  0  0  0
  9 16  1  0  0  0  0
 11 18  1  1  0  0  0
 13  2  1  0  0  0  0
 14 15  1  0  0  0  0
 15 21  1  1  0  0  0
 15 11  1  0  0  0  0
 16 27  1  6  0  0  0
 16  7  1  0  0  0  0
 17  7  1  6  0  0  0
 17  3  1  0  0  0  0
 18 12  1  0  0  0  0
 19 20  1  0  0  0  0
 20 22  2  0  0  0  0
 21 24  2  0  0  0  0
 23 19  2  0  0  0  0
 23 21  1  0  0  0  0
 24 22  1  0  0  0  0
 25 19  1  0  0  0  0
 26 27  3  0  0  0  0
 29 26  1  1  0  0  0
 30 28  1  1  0  0  0
 30 29  1  0  0  0  0
 31 34  1  0  0  0  0
 31 32  1  0  0  0  0
 32 33  1  0  0  0  0
 33 29  1  0  0  0  0
 34 30  1  0  0  0  0
M  END
>  <MODEL>
1

>  <REMARK>
 VINA RESULT:     -10.6      0.000      0.000
  Name = 
  3 active torsions:
  status: ('A' for Active; 'I' for Inactive)
    1  A    between atoms: C_3  and  C_13
    2  A    between atoms: C_12  and  C_28
    3  A    between atoms: C_17  and  C_29
                            x       y       z     vdW  Elec       q    Type
                         _______ _______ _______ _____ _____    ______ ____

>  <TORSDO>
F 3

$$$$
=
 OpenBabel10262423403D

 34 39  0  0  1  0  0  0  0  0999 V2000
  191.1050  177.4080  141.5180 C   0  0  0  0  0  0  0  0  0  0  0  0
  189.7030  177.0650  139.5890 C   0  0  0  0  0  0  0  0  0  0  0  0
  188.5810  177.2260  141.9020 C   0  0  1  0  0  3  0  0  0  0  0  0
  186.3240  177.8820  142.4530 N   0  0  2  0  0  0  0  0  0  0  0  0
  192.0360  177.3730  139.3460 C   0  0  0  0  0  3  0  0  0  0  0  0
  190.8140  177.1380  138.8110 N   0  0  0  0  0  0  0  0  0  0  0  0
  187.0940  178.6190  140.3690 N   0  0  0  0  0  2  0  0  0  0  0  0
  189.7980  177.3040  140.9790 C   0  0  0  0  0  0  0  0  0  0  0  0
  185.3300  178.8160  141.9770 C   0  0  0  0  0  2  0  0  0  0  0  0
  192.1780  177.4820  140.6900 N   0  0  0  0  0  0  0  0  0  0  0  0
  188.9570  177.4010  143.3850 C   0  0  1  0  0  3  0  0  0  0  0  0
  191.3550  177.3940  143.0010 C   0  0  0  0  0  2  0  0  0  0  0  0
  188.4370  176.6070  138.9470 C   0  0  0  0  0  1  0  0  0  0  0  0
  186.5820  178.0680  143.8780 C   0  0  0  0  0  2  0  0  0  0  0  0
  187.7510  177.1600  144.3160 C   0  0  2  0  0  3  0  0  0  0  0  0
  185.7400  179.1330  140.5450 C   0  0  2  0  0  3  0  0  0  0  0  0
  187.5060  178.3030  141.7230 C   0  0  2  0  0  3  0  0  0  0  0  0
  190.2350  176.6710  143.7410 C   0  0  0  0  0  2  0  0  0  0  0  0
  189.7180  177.3560  147.5490 C   0  0  0  0  0  0  0  0  0  0  0  0
  188.7680  177.8790  148.4330 C   0  0  0  0  0  3  0  0  0  0  0  0
  188.0890  177.4130  145.7540 C   0  0  0  0  0  0  0  0  0  0  0  0
  187.4780  178.1680  147.9800 C   0  0  0  0  0  3  0  0  0  0  0  0
  189.3790  177.1240  146.2130 C   0  0  0  0  0  3  0  0  0  0  0  0
  187.1380  177.9380  146.6440 C   0  0  0  0  0  3  0  0  0  0  0  0
  190.9680  177.0750  147.9890 F   0  0  0  0  0  0  0  0  0  0  0  0
  184.0970  177.8980  138.8420 C   0  0  0  0  0  0  0  0  0  0  0  0
  184.8390  178.4570  139.6100 C   0  0  0  0  0  0  0  0  0  0  0  0
  184.5020  175.2750  137.0390 C   0  0  0  0  0  1  0  0  0  0  0  0
  183.1900  177.2190  137.9110 C   0  0  1  0  0  3  0  0  0  0  0  0
  183.4010  175.6970  137.9930 C   0  0  1  0  0  3  0  0  0  0  0  0
  180.9930  175.2780  138.6470 C   0  0  0  0  0  2  0  0  0  0  0  0
  181.0600  176.7150  139.1810 C   0  0  0  0  0  2  0  0  0  0  0  0
  181.7410  177.6520  138.1850 C   0  0  0  0  0  2  0  0  0  0  0  0
  182.1220  174.9320  137.6650 C   0  0  0  0  0  2  0  0  0  0  0  0
  1 12  1  0  0  0  0
  2  8  2  0  0  0  0
  3  8  1  6  0  0  0
  3 11  1  0  0  0  0
  4  9  1  6  0  0  0
  4 14  1  0  0  0  0
  5 10  1  0  0  0  0
  6  5  2  0  0  0  0
  6  2  1  0  0  0  0
  7 16  1  0  0  0  0
  8  1  1  0  0  0  0
 10  1  2  0  0  0  0
 11 18  1  1  0  0  0
 11 15  1  0  0  0  0
 12 18  1  0  0  0  0
 13  2  1  0  0  0  0
 14 15  1  0  0  0  0
 15 21  1  1  0  0  0
 16 27  1  6  0  0  0
 16  9  1  0  0  0  0
 17  7  1  6  0  0  0
 17  3  1  0  0  0  0
 17  4  1  0  0  0  0
 19 25  1  0  0  0  0
 19 20  1  0  0  0  0
 21 23  1  0  0  0  0
 21 24  2  0  0  0  0
 22 20  2  0  0  0  0
 23 19  2  0  0  0  0
 24 22  1  0  0  0  0
 26 27  3  0  0  0  0
 29 30  1  0  0  0  0
 29 33  1  0  0  0  0
 29 26  1  1  0  0  0
 30 28  1  6  0  0  0
 31 32  1  0  0  0  0
 33 32  1  0  0  0  0
 34 30  1  0  0  0  0
 34 31  1  0  0  0  0
M  END
>  <MODEL>
2

>  <REMARK>
 VINA RESULT:     -10.1      3.462      6.765
  Name = 
  3 active torsions:
  status: ('A' for Active; 'I' for Inactive)
    1  A    between atoms: C_3  and  C_13
    2  A    between atoms: C_12  and  C_28
    3  A    between atoms: C_17  and  C_29
                            x       y       z     vdW  Elec       q    Type
                         _______ _______ _______ _____ _____    ______ ____

>  <TORSDO>
F 3

$$$$
=
 OpenBabel10262423403D

 34 39  0  0  1  0  0  0  0  0999 V2000
  191.0510  177.4600  141.6850 C   0  0  0  0  0  0  0  0  0  0  0  0
  189.7070  177.0770  139.7220 C   0  0  0  0  0  0  0  0  0  0  0  0
  188.5190  177.2590  142.0000 C   0  0  1  0  0  3  0  0  0  0  0  0
  186.2420  177.9010  142.4780 N   0  0  2  0  0  0  0  0  0  0  0  0
  192.0440  177.4030  139.5410 C   0  0  0  0  0  3  0  0  0  0  0  0
  190.8390  177.1500  138.9750 N   0  0  0  0  0  0  0  0  0  0  0  0
  187.0640  178.6170  140.4070 N   0  0  0  0  0  2  0  0  0  0  0  0
  189.7610  177.3360  141.1110 C   0  0  0  0  0  0  0  0  0  0  0  0
  185.2530  178.8200  141.9610 C   0  0  0  0  0  2  0  0  0  0  0  0
  192.1460  177.5330  140.8860 N   0  0  0  0  0  0  0  0  0  0  0  0
  188.8520  177.4580  143.4910 C   0  0  1  0  0  3  0  0  0  0  0  0
  191.2590  177.4680  143.1740 C   0  0  0  0  0  2  0  0  0  0  0  0
  188.4640  176.5990  139.0510 C   0  0  0  0  0  1  0  0  0  0  0  0
  186.4570  178.1100  143.9080 C   0  0  0  0  0  2  0  0  0  0  0  0
  187.6220  177.2180  144.3900 C   0  0  2  0  0  3  0  0  0  0  0  0
  185.7010  179.1210  140.5380 C   0  0  2  0  0  3  0  0  0  0  0  0
  187.4400  178.3230  141.7760 C   0  0  2  0  0  3  0  0  0  0  0  0
  190.1260  176.7450  143.8920 C   0  0  0  0  0  2  0  0  0  0  0  0
  189.4960  177.4800  147.6740 C   0  0  0  0  0  0  0  0  0  0  0  0
  188.5160  178.0030  148.5240 C   0  0  0  0  0  3  0  0  0  0  0  0
  187.9170  177.4940  145.8340 C   0  0  0  0  0  0  0  0  0  0  0  0
  187.2360  178.2710  148.0310 C   0  0  0  0  0  3  0  0  0  0  0  0
  189.1970  177.2260  146.3320 C   0  0  0  0  0  3  0  0  0  0  0  0
  186.9350  178.0190  146.6910 C   0  0  0  0  0  3  0  0  0  0  0  0
  190.7360  177.2190  148.1510 F   0  0  0  0  0  0  0  0  0  0  0  0
  184.1190  177.8470  138.8050 C   0  0  0  0  0  0  0  0  0  0  0  0
  184.8330  178.4240  139.5870 C   0  0  0  0  0  0  0  0  0  0  0  0
  181.1930  178.5600  137.6960 C   0  0  0  0  0  1  0  0  0  0  0  0
  183.2490  177.1440  137.8570 C   0  0  1  0  0  3  0  0  0  0  0  0
  182.4790  178.1630  136.9990 C   0  0  1  0  0  3  0  0  0  0  0  0
  183.4360  177.2490  134.8420 C   0  0  0  0  0  2  0  0  0  0  0  0
  184.5910  176.7890  135.7410 C   0  0  0  0  0  2  0  0  0  0  0  0
  184.0790  176.1490  137.0290 C   0  0  0  0  0  2  0  0  0  0  0  0
  182.1580  177.6060  135.6150 C   0  0  0  0  0  2  0  0  0  0  0  0
  1 12  1  0  0  0  0
  2  8  2  0  0  0  0
  3  8  1  6  0  0  0
  3 11  1  0  0  0  0
  4  9  1  6  0  0  0
  4 14  1  0  0  0  0
  5 10  1  0  0  0  0
  6  5  2  0  0  0  0
  6  2  1  0  0  0  0
  7 16  1  0  0  0  0
  8  1  1  0  0  0  0
 10  1  2  0  0  0  0
 11 18  1  1  0  0  0
 11 15  1  0  0  0  0
 12 18  1  0  0  0  0
 13  2  1  0  0  0  0
 14 15  1  0  0  0  0
 15 21  1  1  0  0  0
 16 27  1  6  0  0  0
 16  9  1  0  0  0  0
 17  7  1  6  0  0  0
 17  3  1  0  0  0  0
 17  4  1  0  0  0  0
 19 25  1  0  0  0  0
 19 20  1  0  0  0  0
 21 23  1  0  0  0  0
 21 24  2  0  0  0  0
 22 20  2  0  0  0  0
 23 19  2  0  0  0  0
 24 22  1  0  0  0  0
 26 27  3  0  0  0  0
 29 26  1  1  0  0  0
 30 28  1  1  0  0  0
 30 29  1  0  0  0  0
 31 34  1  0  0  0  0
 31 32  1  0  0  0  0
 32 33  1  0  0  0  0
 33 29  1  0  0  0  0
 34 30  1  0  0  0  0
M  END
>  <MODEL>
3

>  <REMARK>
 VINA RESULT:     -10.0      3.732      6.473
  Name = 
  3 active torsions:
  status: ('A' for Active; 'I' for Inactive)
    1  A    between atoms: C_3  and  C_13
    2  A    between atoms: C_12  and  C_28
    3  A    between atoms: C_17  and  C_29
                            x       y       z     vdW  Elec       q    Type
                         _______ _______ _______ _____ _____    ______ ____

>  <TORSDO>
F 3

$$$$
=
 OpenBabel10262423403D

 34 39  0  0  1  0  0  0  0  0999 V2000
  189.0900  177.4140  145.3800 C   0  0  0  0  0  0  0  0  0  0  0  0
  190.5850  176.5930  143.6780 C   0  0  0  0  0  0  0  0  0  0  0  0
  188.1890  177.2430  142.9910 C   0  0  1  0  0  3  0  0  0  0  0  0
  187.3630  177.9340  140.8300 N   0  0  2  0  0  0  0  0  0  0  0  0
  191.3410  176.9120  145.8970 C   0  0  0  0  0  3  0  0  0  0  0  0
  191.5620  176.5220  144.6180 N   0  0  0  0  0  0  0  0  0  0  0  0
  189.6670  178.1990  141.1470 N   0  0  0  0  0  2  0  0  0  0  0  0
  189.3270  177.1470  144.0080 C   0  0  0  0  0  0  0  0  0  0  0  0
  187.8280  178.7020  139.6970 C   0  0  0  0  0  2  0  0  0  0  0  0
  190.1080  177.3310  146.2740 N   0  0  0  0  0  0  0  0  0  0  0  0
  186.8830  177.7640  143.6180 C   0  0  1  0  0  3  0  0  0  0  0  0
  187.7180  177.7460  145.8980 C   0  0  0  0  0  2  0  0  0  0  0  0
  190.8510  175.9600  142.3540 C   0  0  0  0  0  1  0  0  0  0  0  0
  186.0920  178.4500  141.3300 C   0  0  0  0  0  2  0  0  0  0  0  0
  185.7040  177.7040  142.6250 C   0  0  2  0  0  3  0  0  0  0  0  0
  189.3460  178.6960  139.8130 C   0  0  2  0  0  3  0  0  0  0  0  0
  188.3850  178.2140  141.8230 C   0  0  2  0  0  3  0  0  0  0  0  0
  186.6340  177.1770  144.9910 C   0  0  0  0  0  2  0  0  0  0  0  0
  182.1580  179.0160  142.8880 C   0  0  0  0  0  0  0  0  0  0  0  0
  182.0850  179.3760  144.2380 C   0  0  0  0  0  3  0  0  0  0  0  0
  184.4510  178.2900  143.2010 C   0  0  0  0  0  0  0  0  0  0  0  0
  183.1920  179.1950  145.0710 C   0  0  0  0  0  3  0  0  0  0  0  0
  183.3400  178.4760  142.3720 C   0  0  0  0  0  3  0  0  0  0  0  0
  184.3730  178.6530  144.5560 C   0  0  0  0  0  3  0  0  0  0  0  0
  181.0860  179.1930  142.0810 F   0  0  0  0  0  0  0  0  0  0  0  0
  190.3830  177.0520  137.9840 C   0  0  0  0  0  0  0  0  0  0  0  0
  189.9160  177.7960  138.8100 C   0  0  0  0  0  0  0  0  0  0  0  0
  193.1580  175.4420  137.9140 C   0  0  0  0  0  1  0  0  0  0  0  0
  190.9480  176.1470  136.9770 C   0  0  1  0  0  3  0  0  0  0  0  0
  191.7240  175.0140  137.6700 C   0  0  1  0  0  3  0  0  0  0  0  0
  190.2770  173.2210  136.6230 C   0  0  0  0  0  2  0  0  0  0  0  0
  189.2280  174.3400  136.5540 C   0  0  0  0  0  2  0  0  0  0  0  0
  189.8340  175.6460  136.0440 C   0  0  0  0  0  2  0  0  0  0  0  0
  191.7080  173.7320  136.8420 C   0  0  0  0  0  2  0  0  0  0  0  0
  1 12  1  0  0  0  0
  1 10  1  0  0  0  0
  2  8  1  0  0  0  0
  2  6  2  0  0  0  0
  3 11  1  0  0  0  0
  3  8  1  1  0  0  0
  4  9  1  6  0  0  0
  4 14  1  0  0  0  0
  4 17  1  0  0  0  0
  5 10  2  0  0  0  0
  6  5  1  0  0  0  0
  8  1  2  0  0  0  0
  9 16  1  0  0  0  0
 11 18  1  1  0  0  0
 13  2  1  0  0  0  0
 14 15  1  0  0  0  0
 15 21  1  1  0  0  0
 15 11  1  0  0  0  0
 16 27  1  6  0  0  0
 16  7  1  0  0  0  0
 17  7  1  6  0  0  0
 17  3  1  0  0  0  0
 18 12  1  0  0  0  0
 19 20  1  0  0  0  0
 20 22  2  0  0  0  0
 21 24  2  0  0  0  0
 23 19  2  0  0  0  0
 23 21  1  0  0  0  0
 24 22  1  0  0  0  0
 25 19  1  0  0  0  0
 26 27  3  0  0  0  0
 29 30  1  0  0  0  0
 29 26  1  1  0  0  0
 30 28  1  6  0  0  0
 31 34  1  0  0  0  0
 32 31  1  0  0  0  0
 33 32  1  0  0  0  0
 33 29  1  0  0  0  0
 34 30  1  0  0  0  0
M  END
>  <MODEL>
4

>  <REMARK>
 VINA RESULT:      -9.3      1.118      1.762
  Name = 
  3 active torsions:
  status: ('A' for Active; 'I' for Inactive)
    1  A    between atoms: C_3  and  C_13
    2  A    between atoms: C_12  and  C_28
    3  A    between atoms: C_17  and  C_29
                            x       y       z     vdW  Elec       q    Type
                         _______ _______ _______ _____ _____    ______ ____

>  <TORSDO>
F 3

$$$$
=
 OpenBabel10262423403D

 34 39  0  0  1  0  0  0  0  0999 V2000
  185.4570  178.6510  144.3470 C   0  0  0  0  0  0  0  0  0  0  0  0
  187.4650  177.4290  143.8210 C   0  0  0  0  0  0  0  0  0  0  0  0
  185.8290  177.9740  141.9080 C   0  0  1  0  0  3  0  0  0  0  0  0
  186.2730  178.1860  139.5440 N   0  0  2  0  0  0  0  0  0  0  0  0
  187.0720  178.2160  146.0170 C   0  0  0  0  0  3  0  0  0  0  0  0
  187.8350  177.5430  145.1220 N   0  0  0  0  0  0  0  0  0  0  0  0
  188.1370  178.4510  140.9350 N   0  0  0  0  0  2  0  0  0  0  0  0
  186.2970  178.0770  143.3600 C   0  0  0  0  0  0  0  0  0  0  0  0
  187.3340  178.6670  138.6880 C   0  0  0  0  0  2  0  0  0  0  0  0
  185.8840  178.7430  145.6330 N   0  0  0  0  0  0  0  0  0  0  0  0
  184.4690  178.6590  141.6780 C   0  0  1  0  0  3  0  0  0  0  0  0
  184.0680  179.1300  144.0270 C   0  0  0  0  0  2  0  0  0  0  0  0
  188.2560  176.5080  142.9550 C   0  0  0  0  0  1  0  0  0  0  0  0
  185.0040  178.8360  139.2260 C   0  0  0  0  0  2  0  0  0  0  0  0
  183.9330  178.4110  140.2540 C   0  0  2  0  0  3  0  0  0  0  0  0
  188.5830  178.6450  139.5590 C   0  0  2  0  0  3  0  0  0  0  0  0
  186.7040  178.6530  140.8490 C   0  0  2  0  0  3  0  0  0  0  0  0
  183.5010  178.4020  142.8140 C   0  0  0  0  0  2  0  0  0  0  0  0
  181.4660  180.9170  138.8410 C   0  0  0  0  0  0  0  0  0  0  0  0
  180.2800  180.5440  139.4800 C   0  0  0  0  0  3  0  0  0  0  0  0
  182.6530  179.1460  139.9970 C   0  0  0  0  0  0  0  0  0  0  0  0
  180.2770  179.4740  140.3780 C   0  0  0  0  0  3  0  0  0  0  0  0
  182.6500  180.2200  139.1000 C   0  0  0  0  0  3  0  0  0  0  0  0
  181.4590  178.7750  140.6370 C   0  0  0  0  0  3  0  0  0  0  0  0
  181.4700  181.9550  137.9720 F   0  0  0  0  0  0  0  0  0  0  0  0
  190.1500  176.6080  138.8380 C   0  0  0  0  0  0  0  0  0  0  0  0
  189.4410  177.5270  139.1650 C   0  0  0  0  0  0  0  0  0  0  0  0
  189.5450  173.9850  137.0920 C   0  0  0  0  0  1  0  0  0  0  0  0
  191.0160  175.4920  138.4430 C   0  0  1  0  0  3  0  0  0  0  0  0
  190.6480  175.0230  137.0240 C   0  0  1  0  0  3  0  0  0  0  0  0
  192.9750  175.4770  136.1410 C   0  0  0  0  0  2  0  0  0  0  0  0
  193.0360  176.4910  137.2910 C   0  0  0  0  0  2  0  0  0  0  0  0
  192.4910  175.9000  138.5890 C   0  0  0  0  0  2  0  0  0  0  0  0
  191.8540  174.4390  136.2930 C   0  0  0  0  0  2  0  0  0  0  0  0
  1 10  1  0  0  0  0
  2  6  2  0  0  0  0
  3  8  1  1  0  0  0
  4  9  1  6  0  0  0
  4 17  1  0  0  0  0
  6  5  1  0  0  0  0
  8  2  1  0  0  0  0
  8  1  2  0  0  0  0
  9 16  1  0  0  0  0
 10  5  2  0  0  0  0
 11  3  1  0  0  0  0
 11 18  1  1  0  0  0
 12  1  1  0  0  0  0
 13  2  1  0  0  0  0
 14  4  1  0  0  0  0
 14 15  1  0  0  0  0
 15 21  1  6  0  0  0
 15 11  1  0  0  0  0
 16 27  1  6  0  0  0
 16  7  1  0  0  0  0
 17  7  1  1  0  0  0
 17  3  1  0  0  0  0
 18 12  1  0  0  0  0
 19 23  2  0  0  0  0
 19 20  1  0  0  0  0
 20 22  2  0  0  0  0
 21 24  2  0  0  0  0
 22 24  1  0  0  0  0
 23 21  1  0  0  0  0
 25 19  1  0  0  0  0
 26 27  3  0  0  0  0
 29 33  1  0  0  0  0
 29 26  1  6  0  0  0
 30 28  1  1  0  0  0
 30 29  1  0  0  0  0
 31 34  1  0  0  0  0
 31 32  1  0  0  0  0
 32 33  1  0  0  0  0
 34 30  1  0  0  0  0
M  END
>  <MODEL>
5

>  <REMARK>
 VINA RESULT:      -8.6      2.392      3.647
  Name = 
  3 active torsions:
  status: ('A' for Active; 'I' for Inactive)
    1  A    between atoms: C_3  and  C_13
    2  A    between atoms: C_12  and  C_28
    3  A    between atoms: C_17  and  C_29
                            x       y       z     vdW  Elec       q    Type
                         _______ _______ _______ _____ _____    ______ ____

>  <TORSDO>
F 3

$$$$
=
 OpenBabel10262423403D

 34 39  0  0  1  0  0  0  0  0999 V2000
  188.8360  177.1300  135.2010 C   0  0  0  0  0  0  0  0  0  0  0  0
  187.2310  177.3600  136.9820 C   0  0  0  0  0  0  0  0  0  0  0  0
  189.5790  176.4740  137.5600 C   0  0  1  0  0  3  0  0  0  0  0  0
  190.7580  176.5560  139.6650 N   0  0  2  0  0  0  0  0  0  0  0  0
  186.7000  178.0520  134.7820 C   0  0  0  0  0  3  0  0  0  0  0  0
  186.3550  177.8750  136.0810 N   0  0  0  0  0  0  0  0  0  0  0  0
  189.0410  178.1290  139.4230 N   0  0  0  0  0  2  0  0  0  0  0  0
  188.5550  177.0630  136.5880 C   0  0  0  0  0  0  0  0  0  0  0  0
  190.8920  177.4570  140.7880 C   0  0  0  0  0  2  0  0  0  0  0  0
  187.9220  177.6590  134.3480 N   0  0  0  0  0  0  0  0  0  0  0  0
  190.9080  176.1200  136.8690 C   0  0  1  0  0  3  0  0  0  0  0  0
  190.1130  176.5860  134.6230 C   0  0  0  0  0  2  0  0  0  0  0  0
  186.7080  177.0140  138.3350 C   0  0  0  0  0  1  0  0  0  0  0  0
  192.0630  176.2190  139.1030 C   0  0  0  0  0  2  0  0  0  0  0  0
  191.8720  175.3810  137.8200 C   0  0  2  0  0  3  0  0  0  0  0  0
  189.6590  178.3480  140.7270 C   0  0  2  0  0  3  0  0  0  0  0  0
  190.0510  177.3800  138.7010 C   0  0  2  0  0  3  0  0  0  0  0  0
  190.6960  175.4910  135.5080 C   0  0  0  0  0  2  0  0  0  0  0  0
  195.1100  175.9250  135.9270 C   0  0  0  0  0  0  0  0  0  0  0  0
  195.6880  174.6520  135.9750 C   0  0  0  0  0  3  0  0  0  0  0  0
  193.2000  175.1100  137.1790 C   0  0  0  0  0  0  0  0  0  0  0  0
  195.0240  173.6070  136.6230 C   0  0  0  0  0  3  0  0  0  0  0  0
  193.8680  176.1520  136.5280 C   0  0  0  0  0  3  0  0  0  0  0  0
  193.7840  173.8330  137.2250 C   0  0  0  0  0  3  0  0  0  0  0  0
  195.7530  176.9370  135.2980 F   0  0  0  0  0  0  0  0  0  0  0  0
  187.9440  177.6490  142.6500 C   0  0  0  0  0  0  0  0  0  0  0  0
  188.7170  177.9640  141.7800 C   0  0  0  0  0  0  0  0  0  0  0  0
  188.4020  177.0740  145.7730 C   0  0  0  0  0  1  0  0  0  0  0  0
  187.0030  177.2700  143.7090 C   0  0  1  0  0  3  0  0  0  0  0  0
  187.4060  177.9440  145.0320 C   0  0  1  0  0  3  0  0  0  0  0  0
  185.1840  179.1370  145.2390 C   0  0  0  0  0  2  0  0  0  0  0  0
  185.1520  178.9960  143.7120 C   0  0  0  0  0  2  0  0  0  0  0  0
  185.5660  177.5940  143.2690 C   0  0  0  0  0  2  0  0  0  0  0  0
  186.1950  178.2050  145.9230 C   0  0  0  0  0  2  0  0  0  0  0  0
  1  8  1  0  0  0  0
  2 13  1  0  0  0  0
  3  8  1  6  0  0  0
  3 17  1  0  0  0  0
  4 14  1  6  0  0  0
  4  9  1  0  0  0  0
  5  6  2  0  0  0  0
  6  2  1  0  0  0  0
  7 16  1  0  0  0  0
  8  2  2  0  0  0  0
 10  5  1  0  0  0  0
 10  1  2  0  0  0  0
 11 18  1  6  0  0  0
 11  3  1  0  0  0  0
 11 15  1  0  0  0  0
 12  1  1  0  0  0  0
 12 18  1  0  0  0  0
 15 21  1  6  0  0  0
 15 14  1  0  0  0  0
 16  9  1  0  0  0  0
 16 27  1  1  0  0  0
 17  7  1  1  0  0  0
 17  4  1  0  0  0  0
 19 20  2  0  0  0  0
 19 23  1  0  0  0  0
 20 22  1  0  0  0  0
 21 24  1  0  0  0  0
 22 24  2  0  0  0  0
 23 21  2  0  0  0  0
 25 19  1  0  0  0  0
 27 26  3  0  0  0  0
 29 26  1  6  0  0  0
 29 30  1  0  0  0  0
 30 28  1  1  0  0  0
 30 34  1  0  0  0  0
 31 34  1  0  0  0  0
 32 31  1  0  0  0  0
 33 29  1  0  0  0  0
 33 32  1  0  0  0  0
M  END
>  <MODEL>
6

>  <REMARK>
 VINA RESULT:      -8.5      3.711     10.106
  Name = 
  3 active torsions:
  status: ('A' for Active; 'I' for Inactive)
    1  A    between atoms: C_3  and  C_13
    2  A    between atoms: C_12  and  C_28
    3  A    between atoms: C_17  and  C_29
                            x       y       z     vdW  Elec       q    Type
                         _______ _______ _______ _____ _____    ______ ____

>  <TORSDO>
F 3

$$$$
=
 OpenBabel10262423403D

 34 39  0  0  1  0  0  0  0  0999 V2000
  186.0720  178.7000  138.2200 C   0  0  0  0  0  0  0  0  0  0  0  0
  185.7040  178.6580  140.6000 C   0  0  0  0  0  0  0  0  0  0  0  0
  187.7570  177.4200  139.6600 C   0  0  1  0  0  3  0  0  0  0  0  0
  189.8340  176.8690  140.7600 N   0  0  2  0  0  0  0  0  0  0  0  0
  184.2850  179.9110  139.1810 C   0  0  0  0  0  3  0  0  0  0  0  0
  184.6260  179.4630  140.4140 N   0  0  0  0  0  0  0  0  0  0  0  0
  188.6270  178.6230  141.7320 N   0  0  0  0  0  2  0  0  0  0  0  0
  186.5370  178.3280  139.5070 C   0  0  0  0  0  0  0  0  0  0  0  0
  190.7180  177.4530  141.7430 C   0  0  0  0  0  2  0  0  0  0  0  0
  184.9910  179.5110  138.0960 N   0  0  0  0  0  0  0  0  0  0  0  0
  188.4290  177.1070  138.3100 C   0  0  1  0  0  3  0  0  0  0  0  0
  186.7170  178.1810  136.9640 C   0  0  0  0  0  2  0  0  0  0  0  0
  185.8890  178.0520  141.9500 C   0  0  0  0  0  1  0  0  0  0  0  0
  190.5550  176.5440  139.5320 C   0  0  0  0  0  2  0  0  0  0  0  0
  189.5560  176.0640  138.4570 C   0  0  2  0  0  3  0  0  0  0  0  0
  189.8570  178.4550  142.5000 C   0  0  2  0  0  3  0  0  0  0  0  0
  188.9320  177.9700  140.4740 C   0  0  2  0  0  3  0  0  0  0  0  0
  187.4170  176.8510  137.2130 C   0  0  0  0  0  2  0  0  0  0  0  0
  192.2650  176.0760  135.8060 C   0  0  0  0  0  0  0  0  0  0  0  0
  191.6480  175.3800  134.7610 C   0  0  0  0  0  3  0  0  0  0  0  0
  190.2710  175.8210  137.1620 C   0  0  0  0  0  0  0  0  0  0  0  0
  190.3420  174.9050  134.9140 C   0  0  0  0  0  3  0  0  0  0  0  0
  191.5770  176.2960  137.0030 C   0  0  0  0  0  3  0  0  0  0  0  0
  189.6540  175.1220  136.1100 C   0  0  0  0  0  3  0  0  0  0  0  0
  193.5290  176.5380  135.6570 F   0  0  0  0  0  0  0  0  0  0  0  0
  189.2620  177.4920  144.9170 C   0  0  0  0  0  0  0  0  0  0  0  0
  189.5320  177.9280  143.8260 C   0  0  0  0  0  0  0  0  0  0  0  0
  191.1140  176.9010  147.4710 C   0  0  0  0  0  1  0  0  0  0  0  0
  188.9340  176.9580  146.2440 C   0  0  1  0  0  3  0  0  0  0  0  0
  189.8020  177.6450  147.3120 C   0  0  1  0  0  3  0  0  0  0  0  0
  187.7830  178.5160  148.5640 C   0  0  0  0  0  2  0  0  0  0  0  0
  187.0960  178.4130  147.1960 C   0  0  0  0  0  2  0  0  0  0  0  0
  187.4250  177.0940  146.5000 C   0  0  0  0  0  2  0  0  0  0  0  0
  189.0890  177.7130  148.6600 C   0  0  0  0  0  2  0  0  0  0  0  0
  1  8  1  0  0  0  0
  2 13  1  0  0  0  0
  3  8  1  6  0  0  0
  3 17  1  0  0  0  0
  4 14  1  6  0  0  0
  4  9  1  0  0  0  0
  5  6  2  0  0  0  0
  6  2  1  0  0  0  0
  7 16  1  0  0  0  0
  8  2  2  0  0  0  0
  9 16  1  0  0  0  0
 10  1  2  0  0  0  0
 10  5  1  0  0  0  0
 11 18  1  6  0  0  0
 11 15  1  0  0  0  0
 11  3  1  0  0  0  0
 12 18  1  0  0  0  0
 12  1  1  0  0  0  0
 15 21  1  6  0  0  0
 15 14  1  0  0  0  0
 16 27  1  1  0  0  0
 17  4  1  0  0  0  0
 17  7  1  1  0  0  0
 19 23  1  0  0  0  0
 20 22  1  0  0  0  0
 20 19  2  0  0  0  0
 22 24  2  0  0  0  0
 23 21  2  0  0  0  0
 24 21  1  0  0  0  0
 25 19  1  0  0  0  0
 27 26  3  0  0  0  0
 29 26  1  6  0  0  0
 29 33  1  0  0  0  0
 29 30  1  0  0  0  0
 30 28  1  1  0  0  0
 30 34  1  0  0  0  0
 31 34  1  0  0  0  0
 32 31  1  0  0  0  0
 33 32  1  0  0  0  0
M  END
>  <MODEL>
7

>  <REMARK>
 VINA RESULT:      -8.4      3.225      9.128
  Name = 
  3 active torsions:
  status: ('A' for Active; 'I' for Inactive)
    1  A    between atoms: C_3  and  C_13
    2  A    between atoms: C_12  and  C_28
    3  A    between atoms: C_17  and  C_29
                            x       y       z     vdW  Elec       q    Type
                         _______ _______ _______ _____ _____    ______ ____

>  <TORSDO>
F 3

$$$$
=
 OpenBabel10262423403D

 34 39  0  0  1  0  0  0  0  0999 V2000
  188.1000  178.0820  136.8020 C   0  0  0  0  0  0  0  0  0  0  0  0
  186.8900  178.1660  138.8840 C   0  0  0  0  0  0  0  0  0  0  0  0
  189.2100  177.0470  138.8630 C   0  0  1  0  0  3  0  0  0  0  0  0
  190.7690  176.7480  140.6820 N   0  0  2  0  0  0  0  0  0  0  0  0
  186.0220  179.1980  136.9400 C   0  0  0  0  0  3  0  0  0  0  0  0
  185.9130  178.8620  138.2490 N   0  0  0  0  0  0  0  0  0  0  0  0
  189.1950  178.4530  140.9900 N   0  0  0  0  0  2  0  0  0  0  0  0
  188.0820  177.8370  138.1980 C   0  0  0  0  0  0  0  0  0  0  0  0
  191.1980  177.4680  141.8590 C   0  0  0  0  0  2  0  0  0  0  0  0
  187.0960  178.7890  136.2240 N   0  0  0  0  0  0  0  0  0  0  0  0
  190.3450  176.7050  137.8800 C   0  0  1  0  0  3  0  0  0  0  0  0
  189.1870  177.5390  135.9160 C   0  0  0  0  0  2  0  0  0  0  0  0
  186.6030  177.6670  140.2600 C   0  0  0  0  0  1  0  0  0  0  0  0
  191.9050  176.4050  139.8310 C   0  0  0  0  0  2  0  0  0  0  0  0
  191.3960  175.7740  138.5180 C   0  0  2  0  0  3  0  0  0  0  0  0
  190.0660  178.4410  142.1600 C   0  0  2  0  0  3  0  0  0  0  0  0
  189.9740  177.7470  139.9910 C   0  0  2  0  0  3  0  0  0  0  0  0
  189.8200  176.2920  136.5210 C   0  0  0  0  0  2  0  0  0  0  0  0
  194.3110  176.3620  136.1670 C   0  0  0  0  0  0  0  0  0  0  0  0
  194.7090  175.0550  135.8710 C   0  0  0  0  0  3  0  0  0  0  0  0
  192.5470  175.5070  137.5950 C   0  0  0  0  0  0  0  0  0  0  0  0
  194.0290  173.9720  136.4340 C   0  0  0  0  0  3  0  0  0  0  0  0
  193.2310  176.5870  137.0270 C   0  0  0  0  0  3  0  0  0  0  0  0
  192.9510  174.1950  137.2950 C   0  0  0  0  0  3  0  0  0  0  0  0
  194.9690  177.4110  135.6200 F   0  0  0  0  0  0  0  0  0  0  0  0
  188.6830  177.5920  144.2800 C   0  0  0  0  0  0  0  0  0  0  0  0
  189.3090  177.9770  143.3230 C   0  0  0  0  0  0  0  0  0  0  0  0
  189.5580  177.1540  147.3360 C   0  0  0  0  0  1  0  0  0  0  0  0
  187.9230  177.1200  145.4420 C   0  0  1  0  0  3  0  0  0  0  0  0
  188.3810  177.8710  146.7050 C   0  0  1  0  0  3  0  0  0  0  0  0
  186.0610  178.7750  147.1530 C   0  0  0  0  0  2  0  0  0  0  0  0
  185.8770  178.5950  145.6400 C   0  0  0  0  0  2  0  0  0  0  0  0
  186.4170  177.2480  145.1660 C   0  0  0  0  0  2  0  0  0  0  0  0
  187.2530  177.9970  147.7260 C   0  0  0  0  0  2  0  0  0  0  0  0
  1  8  1  0  0  0  0
  2 13  1  0  0  0  0
  3  8  1  6  0  0  0
  3 17  1  0  0  0  0
  4 14  1  6  0  0  0
  4  9  1  0  0  0  0
  5  6  2  0  0  0  0
  6  2  1  0  0  0  0
  7 16  1  0  0  0  0
  8  2  2  0  0  0  0
  9 16  1  0  0  0  0
 10  1  2  0  0  0  0
 10  5  1  0  0  0  0
 11 18  1  6  0  0  0
 11 15  1  0  0  0  0
 11  3  1  0  0  0  0
 12 18  1  0  0  0  0
 12  1  1  0  0  0  0
 15 21  1  6  0  0  0
 15 14  1  0  0  0  0
 16 27  1  1  0  0  0
 17  4  1  0  0  0  0
 17  7  1  1  0  0  0
 19 23  1  0  0  0  0
 20 19  2  0  0  0  0
 20 22  1  0  0  0  0
 22 24  2  0  0  0  0
 23 21  2  0  0  0  0
 24 21  1  0  0  0  0
 25 19  1  0  0  0  0
 27 26  3  0  0  0  0
 29 26  1  6  0  0  0
 29 30  1  0  0  0  0
 30 28  1  1  0  0  0
 30 34  1  0  0  0  0
 31 34  1  0  0  0  0
 32 31  1  0  0  0  0
 33 29  1  0  0  0  0
 33 32  1  0  0  0  0
M  END
>  <MODEL>
8

>  <REMARK>
 VINA RESULT:      -7.7      3.397      9.651
  Name = 
  3 active torsions:
  status: ('A' for Active; 'I' for Inactive)
    1  A    between atoms: C_3  and  C_13
    2  A    between atoms: C_12  and  C_28
    3  A    between atoms: C_17  and  C_29
                            x       y       z     vdW  Elec       q    Type
                         _______ _______ _______ _____ _____    ______ ____

>  <TORSDO>
F 3

$$$$
=
 OpenBabel10262423403D

 34 39  0  0  1  0  0  0  0  0999 V2000
  190.3640  177.0180  139.1620 C   0  0  0  0  0  0  0  0  0  0  0  0
  188.5270  176.8060  137.6170 C   0  0  0  0  0  0  0  0  0  0  0  0
  187.9920  177.1630  140.1110 C   0  0  1  0  0  3  0  0  0  0  0  0
  186.0140  178.1100  141.1200 N   0  0  2  0  0  0  0  0  0  0  0  0
  190.7620  176.8120  136.8410 C   0  0  0  0  0  3  0  0  0  0  0  0
  189.4310  176.7200  136.6070 N   0  0  0  0  0  0  0  0  0  0  0  0
  186.3660  178.6940  138.8810 N   0  0  0  0  0  2  0  0  0  0  0  0
  188.9660  177.0660  138.9360 C   0  0  0  0  0  0  0  0  0  0  0  0
  185.0530  179.1500  140.8310 C   0  0  0  0  0  2  0  0  0  0  0  0
  191.2190  176.9360  138.1110 N   0  0  0  0  0  0  0  0  0  0  0  0
  188.7160  177.3250  141.4610 C   0  0  1  0  0  3  0  0  0  0  0  0
  190.9440  177.0080  140.5490 C   0  0  0  0  0  2  0  0  0  0  0  0
  187.1030  176.4960  137.3010 C   0  0  0  0  0  1  0  0  0  0  0  0
  186.6110  178.2980  142.4390 C   0  0  0  0  0  2  0  0  0  0  0  0
  187.7360  177.2610  142.6500 C   0  0  2  0  0  3  0  0  0  0  0  0
  185.1590  179.3780  139.3290 C   0  0  2  0  0  3  0  0  0  0  0  0
  187.0380  178.3610  140.1220 C   0  0  2  0  0  3  0  0  0  0  0  0
  189.9480  176.4500  141.5580 C   0  0  0  0  0  2  0  0  0  0  0  0
  188.3870  177.3810  146.3820 C   0  0  0  0  0  0  0  0  0  0  0  0
  189.6700  177.9350  146.4320 C   0  0  0  0  0  3  0  0  0  0  0  0
  188.4220  177.5040  143.9600 C   0  0  0  0  0  0  0  0  0  0  0  0
  190.3300  178.2760  145.2480 C   0  0  0  0  0  3  0  0  0  0  0  0
  187.7650  177.1670  145.1480 C   0  0  0  0  0  3  0  0  0  0  0  0
  189.7110  178.0610  144.0150 C   0  0  0  0  0  3  0  0  0  0  0  0
  187.7470  177.0520  147.5280 F   0  0  0  0  0  0  0  0  0  0  0  0
  183.0370  178.3180  138.1050 C   0  0  0  0  0  0  0  0  0  0  0  0
  183.9950  178.7980  138.6570 C   0  0  0  0  0  0  0  0  0  0  0  0
  180.0150  179.3630  137.8340 C   0  0  0  0  0  1  0  0  0  0  0  0
  181.8700  177.7330  137.4360 C   0  0  1  0  0  3  0  0  0  0  0  0
  181.0100  178.8470  136.8140 C   0  0  1  0  0  3  0  0  0  0  0  0
  181.2350  177.8860  134.4850 C   0  0  0  0  0  2  0  0  0  0  0  0
  182.5350  177.2850  135.0360 C   0  0  0  0  0  2  0  0  0  0  0  0
  182.3280  176.6740  136.4200 C   0  0  0  0  0  2  0  0  0  0  0  0
  180.2640  178.3590  135.5750 C   0  0  0  0  0  2  0  0  0  0  0  0
  1 12  1  0  0  0  0
  2  8  2  0  0  0  0
  3  8  1  6  0  0  0
  3 17  1  0  0  0  0
  3 11  1  0  0  0  0
  4  9  1  6  0  0  0
  4 14  1  0  0  0  0
  5 10  1  0  0  0  0
  6  5  2  0  0  0  0
  6  2  1  0  0  0  0
  7 16  1  0  0  0  0
  8  1  1  0  0  0  0
 10  1  2  0  0  0  0
 11 18  1  1  0  0  0
 11 15  1  0  0  0  0
 12 18  1  0  0  0  0
 13  2  1  0  0  0  0
 14 15  1  0  0  0  0
 15 21  1  1  0  0  0
 16 27  1  6  0  0  0
 16  9  1  0  0  0  0
 17  7  1  6  0  0  0
 17  4  1  0  0  0  0
 19 20  1  0  0  0  0
 19 25  1  0  0  0  0
 21 24  2  0  0  0  0
 21 23  1  0  0  0  0
 22 20  2  0  0  0  0
 23 19  2  0  0  0  0
 24 22  1  0  0  0  0
 26 27  3  0  0  0  0
 29 26  1  6  0  0  0
 30 29  1  0  0  0  0
 30 28  1  1  0  0  0
 31 32  1  0  0  0  0
 31 34  1  0  0  0  0
 32 33  1  0  0  0  0
 33 29  1  0  0  0  0
 34 30  1  0  0  0  0
M  END
>  <MODEL>
9

>  <REMARK>
 VINA RESULT:      -7.7      4.087      7.636
  Name = 
  3 active torsions:
  status: ('A' for Active; 'I' for Inactive)
    1  A    between atoms: C_3  and  C_13
    2  A    between atoms: C_12  and  C_28
    3  A    between atoms: C_17  and  C_29
                            x       y       z     vdW  Elec       q    Type
                         _______ _______ _______ _____ _____    ______ ____

>  <TORSDO>
F 3

$$$$
