=
 OpenBabel10272401003D

 27 31  0  0  1  0  0  0  0  0999 V2000
  187.1060  178.5990  142.1320 C   0  0  2  0  0  3  0  0  0  0  0  0
  186.7590  177.0820  143.9350 N   0  0  2  0  0  0  0  0  0  0  0  0
  188.4650  177.9130  142.3470 C   0  0  1  0  0  3  0  0  0  0  0  0
  189.8160  177.1700  146.9170 C   0  0  0  0  0  3  0  0  0  0  0  0
  192.1290  176.8440  147.6270 N   0  0  0  0  0  1  0  0  0  0  0  0
  186.6890  178.0290  145.0630 C   0  0  0  0  0  2  0  0  0  0  0  0
  190.5330  176.6060  144.2740 C   0  0  0  0  0  3  0  0  0  0  0  0
  190.5210  176.8800  139.2310 C   0  0  0  0  0  1  0  0  0  0  0  0
  191.5020  176.5850  145.2810 C   0  0  0  0  0  3  0  0  0  0  0  0
  189.0270  178.8220  139.4160 N   0  0  0  0  0  2  0  0  0  0  0  0
  188.1630  176.9270  143.4820 C   0  0  1  0  0  3  0  0  0  0  0  0
  186.0980  177.6570  142.7560 C   0  0  1  0  0  3  0  0  0  0  0  0
  191.1440  176.8700  146.6020 C   0  0  0  0  0  0  0  0  0  0  0  0
  188.8460  177.2040  145.9120 C   0  0  0  0  0  0  0  0  0  0  0  0
  186.7530  179.0990  140.7950 N   0  0  0  0  0  2  0  0  0  0  0  0
  189.2020  176.9180  144.5800 C   0  0  0  0  0  0  0  0  0  0  0  0
  189.8070  177.8350  140.1710 C   0  0  1  0  0  3  0  0  0  0  0  0
  187.4230  177.4720  146.2710 C   0  0  0  0  0  2  0  0  0  0  0  0
  187.8390  178.2300  138.7860 C   0  0  0  0  0  2  0  0  0  0  0  0
  186.7110  178.0350  139.7990 C   0  0  0  0  0  2  0  0  0  0  0  0
  188.9760  177.0550  141.1880 C   0  0  0  0  0  2  0  0  0  0  0  0
  182.1660  179.2350  143.4190 C   0  0  0  0  0  3  0  0  0  0  0  0
  184.7280  178.2350  143.0140 C   0  0  0  0  0  0  0  0  0  0  0  0
  183.8240  178.2700  141.9960 N   0  0  0  0  0  0  0  0  0  0  0  0
  182.5660  178.7570  142.1700 C   0  0  0  0  0  3  0  0  0  0  0  0
  183.0700  179.2030  144.4820 C   0  0  0  0  0  3  0  0  0  0  0  0
  184.3560  178.6990  144.2850 C   0  0  0  0  0  3  0  0  0  0  0  0
  1 15  1  6  0  0  0
  1  3  1  0  0  0  0
  1 12  1  0  0  0  0
  2  6  1  1  0  0  0
  3 21  1  6  0  0  0
  3 11  1  0  0  0  0
  6 18  1  0  0  0  0
  7 16  2  0  0  0  0
  7  9  1  0  0  0  0
  9 13  2  0  0  0  0
 10 17  1  0  0  0  0
 11  2  1  0  0  0  0
 11 16  1  1  0  0  0
 12 23  1  1  0  0  0
 12  2  1  0  0  0  0
 13  4  1  0  0  0  0
 13  5  1  0  0  0  0
 14 18  1  0  0  0  0
 14  4  2  0  0  0  0
 16 14  1  0  0  0  0
 17  8  1  6  0  0  0
 17 21  1  0  0  0  0
 19 10  1  0  0  0  0
 19 20  1  0  0  0  0
 20 15  1  0  0  0  0
 22 26  1  0  0  0  0
 23 27  1  0  0  0  0
 24 25  1  0  0  0  0
 24 23  2  0  0  0  0
 25 22  2  0  0  0  0
 27 26  2  0  0  0  0
M  END
>  <MODEL>
1

>  <REMARK>
 VINA RESULT:     -10.5      0.000      0.000
  Name = 
  1 active torsions:
  status: ('A' for Active; 'I' for Inactive)
    1  A    between atoms: C_9  and  C_15
                            x       y       z     vdW  Elec       q    Type
                         _______ _______ _______ _____ _____    ______ ____

>  <TORSDO>
F 1

$$$$
=
 OpenBabel10272401003D

 27 31  0  0  1  0  0  0  0  0999 V2000
  189.2120  176.7370  142.5180 C   0  0  2  0  0  3  0  0  0  0  0  0
  188.0720  178.3810  143.8090 N   0  0  2  0  0  0  0  0  0  0  0  0
  188.2140  177.3880  141.5470 C   0  0  1  0  0  3  0  0  0  0  0  0
  183.8310  178.3880  143.2960 C   0  0  0  0  0  3  0  0  0  0  0  0
  181.8390  178.6830  141.9160 N   0  0  0  0  0  1  0  0  0  0  0  0
  187.2080  177.5150  144.6330 C   0  0  0  0  0  2  0  0  0  0  0  0
  185.4570  178.7500  141.0510 C   0  0  0  0  0  3  0  0  0  0  0  0
  189.3830  178.1410  137.9320 C   0  0  0  0  0  1  0  0  0  0  0  0
  184.0670  178.8050  140.9230 C   0  0  0  0  0  3  0  0  0  0  0  0
  190.1160  176.2680  139.3430 N   0  0  0  0  0  2  0  0  0  0  0  0
  187.5500  178.4580  142.4230 C   0  0  1  0  0  3  0  0  0  0  0  0
  189.3870  177.7520  143.6270 C   0  0  1  0  0  3  0  0  0  0  0  0
  183.2540  178.6220  142.0450 C   0  0  0  0  0  0  0  0  0  0  0  0
  185.2210  178.3210  143.4260 C   0  0  0  0  0  0  0  0  0  0  0  0
  190.4590  176.1610  141.9930 N   0  0  0  0  0  2  0  0  0  0  0  0
  186.0440  178.5050  142.2990 C   0  0  0  0  0  0  0  0  0  0  0  0
  189.0690  177.2750  139.1390 C   0  0  1  0  0  3  0  0  0  0  0  0
  185.8250  178.1260  144.7770 C   0  0  0  0  0  2  0  0  0  0  0  0
  191.3690  176.8560  139.8340 C   0  0  0  0  0  2  0  0  0  0  0  0
  191.2940  177.1570  141.3320 C   0  0  0  0  0  2  0  0  0  0  0  0
  188.8230  178.1500  140.3680 C   0  0  0  0  0  2  0  0  0  0  0  0
  191.2970  176.3110  147.1860 C   0  0  0  0  0  3  0  0  0  0  0  0
  190.0270  177.2390  144.8950 C   0  0  0  0  0  0  0  0  0  0  0  0
  191.2290  176.6060  144.8170 N   0  0  0  0  0  0  0  0  0  0  0  0
  191.8690  176.1410  145.9240 C   0  0  0  0  0  3  0  0  0  0  0  0
  190.0700  176.9650  147.2950 C   0  0  0  0  0  3  0  0  0  0  0  0
  189.4280  177.4350  146.1490 C   0  0  0  0  0  3  0  0  0  0  0  0
  1 15  1  6  0  0  0
  1 12  1  0  0  0  0
  2  6  1  1  0  0  0
  3 21  1  6  0  0  0
  3 11  1  0  0  0  0
  3  1  1  0  0  0  0
  4 14  1  0  0  0  0
  5 13  1  0  0  0  0
  6 18  1  0  0  0  0
  7 16  1  0  0  0  0
  9  7  2  0  0  0  0
  9 13  1  0  0  0  0
 10 19  1  0  0  0  0
 11 16  1  1  0  0  0
 11  2  1  0  0  0  0
 12  2  1  0  0  0  0
 12 23  1  1  0  0  0
 13  4  2  0  0  0  0
 14 18  1  0  0  0  0
 16 14  2  0  0  0  0
 17  8  1  6  0  0  0
 17 10  1  0  0  0  0
 17 21  1  0  0  0  0
 19 20  1  0  0  0  0
 20 15  1  0  0  0  0
 22 26  1  0  0  0  0
 23 27  1  0  0  0  0
 24 23  2  0  0  0  0
 24 25  1  0  0  0  0
 25 22  2  0  0  0  0
 27 26  2  0  0  0  0
M  END
>  <MODEL>
2

>  <REMARK>
 VINA RESULT:     -10.1      1.616      5.945
  Name = 
  1 active torsions:
  status: ('A' for Active; 'I' for Inactive)
    1  A    between atoms: C_9  and  C_15
                            x       y       z     vdW  Elec       q    Type
                         _______ _______ _______ _____ _____    ______ ____

>  <TORSDO>
F 1

$$$$
=
 OpenBabel10272401003D

 27 31  0  0  1  0  0  0  0  0999 V2000
  185.7590  179.0010  141.8140 C   0  0  2  0  0  3  0  0  0  0  0  0
  184.9670  177.7210  143.6590 N   0  0  2  0  0  0  0  0  0  0  0  0
  187.0220  178.4180  142.4700 C   0  0  1  0  0  3  0  0  0  0  0  0
  187.1230  178.3550  147.2910 C   0  0  0  0  0  3  0  0  0  0  0  0
  189.1690  178.2400  148.6190 N   0  0  0  0  0  1  0  0  0  0  0  0
  184.5870  178.8040  144.5850 C   0  0  0  0  0  2  0  0  0  0  0  0
  188.5210  177.4820  145.0340 C   0  0  0  0  0  3  0  0  0  0  0  0
  189.8430  177.0850  140.1750 C   0  0  0  0  0  1  0  0  0  0  0  0
  189.1890  177.6430  146.2510 C   0  0  0  0  0  3  0  0  0  0  0  0
  188.3290  178.9570  139.6890 N   0  0  0  0  0  2  0  0  0  0  0  0
  186.4420  177.5770  143.6140 C   0  0  1  0  0  3  0  0  0  0  0  0
  184.6350  178.1010  142.2790 C   0  0  1  0  0  3  0  0  0  0  0  0
  188.4900  178.0810  147.3790 C   0  0  0  0  0  0  0  0  0  0  0  0
  186.4530  178.2070  146.0730 C   0  0  0  0  0  0  0  0  0  0  0  0
  185.7660  179.3010  140.3740 N   0  0  0  0  0  2  0  0  0  0  0  0
  187.1530  177.7650  144.9350 C   0  0  0  0  0  0  0  0  0  0  0  0
  188.8930  178.1190  140.7530 C   0  0  1  0  0  3  0  0  0  0  0  0
  184.9820  178.4490  146.0080 C   0  0  0  0  0  2  0  0  0  0  0  0
  187.3580  178.2290  138.8610 C   0  0  0  0  0  2  0  0  0  0  0  0
  186.0040  178.1140  139.5620 C   0  0  0  0  0  2  0  0  0  0  0  0
  187.8320  177.4400  141.6170 C   0  0  0  0  0  2  0  0  0  0  0  0
  180.6550  179.5710  141.6500 C   0  0  0  0  0  3  0  0  0  0  0  0
  183.2370  178.6400  142.0870 C   0  0  0  0  0  0  0  0  0  0  0  0
  182.7340  178.7310  140.8260 N   0  0  0  0  0  0  0  0  0  0  0  0
  181.4740  179.1870  140.5870 C   0  0  0  0  0  3  0  0  0  0  0  0
  181.1430  179.4780  142.9540 C   0  0  0  0  0  3  0  0  0  0  0  0
  182.4380  179.0090  143.1800 C   0  0  0  0  0  3  0  0  0  0  0  0
  1 15  1  6  0  0  0
  1 12  1  0  0  0  0
  1  3  1  0  0  0  0
  2  6  1  1  0  0  0
  3 21  1  6  0  0  0
  3 11  1  0  0  0  0
  4 13  1  0  0  0  0
  6 18  1  0  0  0  0
  7  9  1  0  0  0  0
  9 13  2  0  0  0  0
 10 17  1  0  0  0  0
 11  2  1  0  0  0  0
 11 16  1  1  0  0  0
 12 23  1  1  0  0  0
 12  2  1  0  0  0  0
 13  5  1  0  0  0  0
 14  4  2  0  0  0  0
 16  7  2  0  0  0  0
 16 14  1  0  0  0  0
 17  8  1  6  0  0  0
 17 21  1  0  0  0  0
 18 14  1  0  0  0  0
 19 20  1  0  0  0  0
 19 10  1  0  0  0  0
 20 15  1  0  0  0  0
 22 26  1  0  0  0  0
 23 27  1  0  0  0  0
 24 23  2  0  0  0  0
 25 24  1  0  0  0  0
 25 22  2  0  0  0  0
 26 27  2  0  0  0  0
M  END
>  <MODEL>
3

>  <REMARK>
 VINA RESULT:      -9.7      1.417      2.054
  Name = 
  1 active torsions:
  status: ('A' for Active; 'I' for Inactive)
    1  A    between atoms: C_9  and  C_15
                            x       y       z     vdW  Elec       q    Type
                         _______ _______ _______ _____ _____    ______ ____

>  <TORSDO>
F 1

$$$$
=
 OpenBabel10272401003D

 27 31  0  0  1  0  0  0  0  0999 V2000
  190.1650  177.7330  143.4180 C   0  0  2  0  0  3  0  0  0  0  0  0
  188.4370  176.9180  141.9980 N   0  0  2  0  0  0  0  0  0  0  0  0
  188.8990  177.7250  144.2900 C   0  0  1  0  0  3  0  0  0  0  0  0
  184.8080  179.1630  142.1800 C   0  0  0  0  0  3  0  0  0  0  0  0
  182.8570  179.9920  143.3920 N   0  0  0  0  0  1  0  0  0  0  0  0
  188.2310  178.0950  141.1340 C   0  0  0  0  0  2  0  0  0  0  0  0
  185.8100  178.0360  144.5330 C   0  0  0  0  0  3  0  0  0  0  0  0
  189.1990  176.5320  147.9630 C   0  0  0  0  0  1  0  0  0  0  0  0
  184.5950  178.7270  144.5510 C   0  0  0  0  0  3  0  0  0  0  0  0
  190.9210  177.7090  146.6660 N   0  0  0  0  0  2  0  0  0  0  0  0
  187.8430  177.1530  143.3360 C   0  0  1  0  0  3  0  0  0  0  0  0
  189.8660  176.7600  142.2980 C   0  0  1  0  0  3  0  0  0  0  0  0
  184.0960  179.2920  143.3750 C   0  0  0  0  0  0  0  0  0  0  0  0
  186.0290  178.4830  142.1600 C   0  0  0  0  0  0  0  0  0  0  0  0
  191.4810  177.5720  144.0540 N   0  0  0  0  0  2  0  0  0  0  0  0
  186.5350  177.9120  143.3420 C   0  0  0  0  0  0  0  0  0  0  0  0
  189.4880  177.4110  146.7600 C   0  0  1  0  0  3  0  0  0  0  0  0
  186.7500  178.3050  140.8660 C   0  0  0  0  0  2  0  0  0  0  0  0
  191.7090  176.5380  146.2570 C   0  0  0  0  0  2  0  0  0  0  0  0
  191.6070  176.2970  144.7510 C   0  0  0  0  0  2  0  0  0  0  0  0
  188.9160  176.7780  145.4920 C   0  0  0  0  0  2  0  0  0  0  0  0
  192.3800  176.9600  138.8300 C   0  0  0  0  0  3  0  0  0  0  0  0
  190.7800  176.8340  141.0990 C   0  0  0  0  0  0  0  0  0  0  0  0
  190.4350  176.1630  139.9650 N   0  0  0  0  0  0  0  0  0  0  0  0
  191.2040  176.2080  138.8440 C   0  0  0  0  0  3  0  0  0  0  0  0
  192.7510  177.6640  139.9750 C   0  0  0  0  0  3  0  0  0  0  0  0
  191.9500  177.6070  141.1170 C   0  0  0  0  0  3  0  0  0  0  0  0
  1 15  1  1  0  0  0
  1  3  1  0  0  0  0
  2  6  1  6  0  0  0
  2 12  1  0  0  0  0
  2 11  1  0  0  0  0
  3 21  1  1  0  0  0
  4 13  1  0  0  0  0
  7  9  1  0  0  0  0
 10 17  1  0  0  0  0
 11 16  1  6  0  0  0
 11  3  1  0  0  0  0
 12 23  1  6  0  0  0
 12  1  1  0  0  0  0
 13  5  1  0  0  0  0
 13  9  2  0  0  0  0
 14  4  2  0  0  0  0
 14 16  1  0  0  0  0
 15 20  1  0  0  0  0
 16  7  2  0  0  0  0
 17  8  1  1  0  0  0
 18  6  1  0  0  0  0
 18 14  1  0  0  0  0
 19 10  1  0  0  0  0
 20 19  1  0  0  0  0
 21 17  1  0  0  0  0
 22 25  2  0  0  0  0
 22 26  1  0  0  0  0
 23 27  1  0  0  0  0
 24 23  2  0  0  0  0
 25 24  1  0  0  0  0
 26 27  2  0  0  0  0
M  END
>  <MODEL>
4

>  <REMARK>
 VINA RESULT:      -9.5      1.665      6.908
  Name = 
  1 active torsions:
  status: ('A' for Active; 'I' for Inactive)
    1  A    between atoms: C_9  and  C_15
                            x       y       z     vdW  Elec       q    Type
                         _______ _______ _______ _____ _____    ______ ____

>  <TORSDO>
F 1

$$$$
=
 OpenBabel10272401003D

 27 31  0  0  1  0  0  0  0  0999 V2000
  187.6390  177.4540  142.3720 C   0  0  2  0  0  3  0  0  0  0  0  0
  189.9130  178.1130  142.6230 N   0  0  2  0  0  0  0  0  0  0  0  0
  187.8410  177.6270  143.8860 C   0  0  1  0  0  3  0  0  0  0  0  0
  192.0130  176.0350  145.7070 C   0  0  0  0  0  3  0  0  0  0  0  0
  192.3520  175.4510  148.0540 N   0  0  0  0  0  1  0  0  0  0  0  0
  190.5890  176.8320  142.3470 C   0  0  0  0  0  2  0  0  0  0  0  0
  189.7000  177.4530  146.3780 C   0  0  0  0  0  3  0  0  0  0  0  0
  185.0290  179.3220  145.9400 C   0  0  0  0  0  1  0  0  0  0  0  0
  190.4410  176.8120  147.3750 C   0  0  0  0  0  3  0  0  0  0  0  0
  184.7360  177.9170  143.9460 N   0  0  0  0  0  2  0  0  0  0  0  0
  189.3000  178.0910  143.9740 C   0  0  1  0  0  3  0  0  0  0  0  0
  188.7490  178.2670  141.7400 C   0  0  1  0  0  3  0  0  0  0  0  0
  191.5960  176.1000  147.0390 C   0  0  0  0  0  0  0  0  0  0  0  0
  191.2700  176.6650  144.7060 C   0  0  0  0  0  0  0  0  0  0  0  0
  186.3030  177.6630  141.7930 N   0  0  0  0  0  2  0  0  0  0  0  0
  190.1060  177.3830  145.0390 C   0  0  0  0  0  0  0  0  0  0  0  0
  185.6500  178.2720  145.0370 C   0  0  1  0  0  3  0  0  0  0  0  0
  191.7590  176.6340  143.2960 C   0  0  0  0  0  2  0  0  0  0  0  0
  184.6100  178.9920  142.9520 C   0  0  0  0  0  2  0  0  0  0  0  0
  185.8120  179.0190  142.0070 C   0  0  0  0  0  2  0  0  0  0  0  0
  187.0220  178.7350  144.5520 C   0  0  0  0  0  2  0  0  0  0  0  0
  189.5360  177.5880  137.5800 C   0  0  0  0  0  3  0  0  0  0  0  0
  189.0180  177.9930  140.2800 C   0  0  0  0  0  0  0  0  0  0  0  0
  188.7920  178.9810  139.3720 N   0  0  0  0  0  0  0  0  0  0  0  0
  189.0360  178.8060  138.0450 C   0  0  0  0  0  3  0  0  0  0  0  0
  189.7850  176.5620  138.4910 C   0  0  0  0  0  3  0  0  0  0  0  0
  189.5290  176.7600  139.8490 C   0  0  0  0  0  3  0  0  0  0  0  0
  1 15  1  6  0  0  0
  1  3  1  0  0  0  0
  2  6  1  6  0  0  0
  2 11  1  0  0  0  0
  3 11  1  0  0  0  0
  3 21  1  6  0  0  0
  4 13  1  0  0  0  0
  6 18  1  0  0  0  0
  7  9  1  0  0  0  0
 10 17  1  0  0  0  0
 11 16  1  1  0  0  0
 12 23  1  6  0  0  0
 12  1  1  0  0  0  0
 12  2  1  0  0  0  0
 13  9  2  0  0  0  0
 13  5  1  0  0  0  0
 14 16  1  0  0  0  0
 14  4  2  0  0  0  0
 15 20  1  0  0  0  0
 16  7  2  0  0  0  0
 17  8  1  6  0  0  0
 18 14  1  0  0  0  0
 19 10  1  0  0  0  0
 20 19  1  0  0  0  0
 21 17  1  0  0  0  0
 22 25  2  0  0  0  0
 22 26  1  0  0  0  0
 24 23  2  0  0  0  0
 25 24  1  0  0  0  0
 26 27  2  0  0  0  0
 27 23  1  0  0  0  0
M  END
>  <MODEL>
5

>  <REMARK>
 VINA RESULT:      -9.4      1.499      5.005
  Name = 
  1 active torsions:
  status: ('A' for Active; 'I' for Inactive)
    1  A    between atoms: C_9  and  C_15
                            x       y       z     vdW  Elec       q    Type
                         _______ _______ _______ _____ _____    ______ ____

>  <TORSDO>
F 1

$$$$
=
 OpenBabel10272401003D

 27 31  0  0  1  0  0  0  0  0999 V2000
  189.1850  176.9100  140.7220 C   0  0  2  0  0  3  0  0  0  0  0  0
  188.1240  178.6030  142.0180 N   0  0  2  0  0  0  0  0  0  0  0  0
  188.1000  177.4980  139.8050 C   0  0  1  0  0  3  0  0  0  0  0  0
  183.8560  178.5260  141.8530 C   0  0  0  0  0  3  0  0  0  0  0  0
  181.7540  178.7220  140.6270 N   0  0  0  0  0  1  0  0  0  0  0  0
  187.3450  177.7690  142.9510 C   0  0  0  0  0  2  0  0  0  0  0  0
  185.2890  178.7940  139.4670 C   0  0  0  0  0  3  0  0  0  0  0  0
  188.9600  178.0790  136.0730 C   0  0  0  0  0  1  0  0  0  0  0  0
  183.8920  178.8230  139.4510 C   0  0  0  0  0  3  0  0  0  0  0  0
  189.8370  176.2910  137.5110 N   0  0  0  0  0  2  0  0  0  0  0  0
  187.4900  178.6020  140.6770 C   0  0  1  0  0  3  0  0  0  0  0  0
  189.4310  177.9830  141.7610 C   0  0  1  0  0  3  0  0  0  0  0  0
  183.1760  178.6870  140.6430 C   0  0  0  0  0  0  0  0  0  0  0  0
  185.2530  178.4840  141.8720 C   0  0  0  0  0  0  0  0  0  0  0  0
  190.3950  176.3250  140.1270 N   0  0  0  0  0  2  0  0  0  0  0  0
  185.9780  178.6220  140.6740 C   0  0  0  0  0  0  0  0  0  0  0  0
  188.7600  177.2730  137.3440 C   0  0  1  0  0  3  0  0  0  0  0  0
  185.9670  178.3680  143.1770 C   0  0  0  0  0  2  0  0  0  0  0  0
  191.1150  176.9210  137.8680 C   0  0  0  0  0  2  0  0  0  0  0  0
  191.1560  177.2970  139.3500 C   0  0  0  0  0  2  0  0  0  0  0  0
  188.5980  178.2050  138.5430 C   0  0  0  0  0  2  0  0  0  0  0  0
  191.6070  176.6670  145.2140 C   0  0  0  0  0  3  0  0  0  0  0  0
  190.1800  177.5450  142.9960 C   0  0  0  0  0  0  0  0  0  0  0  0
  190.5420  176.2380  143.1190 N   0  0  0  0  0  0  0  0  0  0  0  0
  191.2380  175.7850  144.1960 C   0  0  0  0  0  3  0  0  0  0  0  0
  191.2560  178.0130  145.1080 C   0  0  0  0  0  3  0  0  0  0  0  0
  190.5420  178.4600  143.9960 C   0  0  0  0  0  3  0  0  0  0  0  0
  1 15  1  6  0  0  0
  1 12  1  0  0  0  0
  2  6  1  1  0  0  0
  3 21  1  6  0  0  0
  3 11  1  0  0  0  0
  3  1  1  0  0  0  0
  4 14  1  0  0  0  0
  5 13  1  0  0  0  0
  6 18  1  0  0  0  0
  7 16  1  0  0  0  0
  9  7  2  0  0  0  0
  9 13  1  0  0  0  0
 10 19  1  0  0  0  0
 11 16  1  1  0  0  0
 11  2  1  0  0  0  0
 12  2  1  0  0  0  0
 12 23  1  1  0  0  0
 13  4  2  0  0  0  0
 14 18  1  0  0  0  0
 16 14  2  0  0  0  0
 17  8  1  6  0  0  0
 17 10  1  0  0  0  0
 17 21  1  0  0  0  0
 19 20  1  0  0  0  0
 20 15  1  0  0  0  0
 23 24  2  0  0  0  0
 23 27  1  0  0  0  0
 24 25  1  0  0  0  0
 25 22  2  0  0  0  0
 26 22  1  0  0  0  0
 27 26  2  0  0  0  0
M  END
>  <MODEL>
6

>  <REMARK>
 VINA RESULT:      -8.9      2.066      6.308
  Name = 
  1 active torsions:
  status: ('A' for Active; 'I' for Inactive)
    1  A    between atoms: C_9  and  C_15
                            x       y       z     vdW  Elec       q    Type
                         _______ _______ _______ _____ _____    ______ ____

>  <TORSDO>
F 1

$$$$
=
 OpenBabel10272401003D

 27 31  0  0  1  0  0  0  0  0999 V2000
  188.3380  177.1300  142.7670 C   0  0  2  0  0  3  0  0  0  0  0  0
  186.8070  178.7630  143.5780 N   0  0  2  0  0  0  0  0  0  0  0  0
  187.6170  177.6600  141.5170 C   0  0  1  0  0  3  0  0  0  0  0  0
  182.8790  178.4610  141.9280 C   0  0  0  0  0  3  0  0  0  0  0  0
  181.3340  178.5470  140.0390 N   0  0  0  0  0  1  0  0  0  0  0  0
  185.7920  177.8880  144.1940 C   0  0  0  0  0  2  0  0  0  0  0  0
  185.0420  178.8070  140.1920 C   0  0  0  0  0  3  0  0  0  0  0  0
  189.7030  178.2900  138.3150 C   0  0  0  0  0  1  0  0  0  0  0  0
  183.7410  178.7620  139.6860 C   0  0  0  0  0  3  0  0  0  0  0  0
  190.1070  176.5500  140.0010 N   0  0  0  0  0  2  0  0  0  0  0  0
  186.6860  178.7300  142.1010 C   0  0  1  0  0  3  0  0  0  0  0  0
  188.1490  178.2140  143.8070 C   0  0  1  0  0  3  0  0  0  0  0  0
  182.6590  178.5870  140.5540 C   0  0  0  0  0  0  0  0  0  0  0  0
  184.1800  178.4930  142.4370 C   0  0  0  0  0  0  0  0  0  0  0  0
  189.7080  176.6110  142.6450 N   0  0  0  0  0  2  0  0  0  0  0  0
  185.2720  178.6700  141.5670 C   0  0  0  0  0  0  0  0  0  0  0  0
  189.1100  177.4730  139.4480 C   0  0  1  0  0  3  0  0  0  0  0  0
  184.3950  178.4130  143.9110 C   0  0  0  0  0  2  0  0  0  0  0  0
  191.1450  177.2460  140.7720 C   0  0  0  0  0  2  0  0  0  0  0  0
  190.6440  177.6220  142.1670 C   0  0  0  0  0  2  0  0  0  0  0  0
  188.4900  178.3950  140.4980 C   0  0  0  0  0  2  0  0  0  0  0  0
  189.0690  177.1010  147.8460 C   0  0  0  0  0  3  0  0  0  0  0  0
  188.4380  177.8150  145.2340 C   0  0  0  0  0  0  0  0  0  0  0  0
  189.6510  177.2730  145.5350 N   0  0  0  0  0  0  0  0  0  0  0  0
  189.9810  176.9140  146.8050 C   0  0  0  0  0  3  0  0  0  0  0  0
  187.8230  177.6620  147.5660 C   0  0  0  0  0  3  0  0  0  0  0  0
  187.5010  178.0250  146.2570 C   0  0  0  0  0  3  0  0  0  0  0  0
  1 15  1  6  0  0  0
  1 12  1  0  0  0  0
  2 12  1  0  0  0  0
  2  6  1  1  0  0  0
  3 21  1  6  0  0  0
  3 11  1  0  0  0  0
  3  1  1  0  0  0  0
  4 14  1  0  0  0  0
  5 13  1  0  0  0  0
  7 16  1  0  0  0  0
  9  7  2  0  0  0  0
  9 13  1  0  0  0  0
 10 19  1  0  0  0  0
 11 16  1  1  0  0  0
 11  2  1  0  0  0  0
 12 23  1  1  0  0  0
 13  4  2  0  0  0  0
 14 18  1  0  0  0  0
 16 14  2  0  0  0  0
 17  8  1  6  0  0  0
 17 10  1  0  0  0  0
 17 21  1  0  0  0  0
 18  6  1  0  0  0  0
 19 20  1  0  0  0  0
 20 15  1  0  0  0  0
 23 24  2  0  0  0  0
 23 27  1  0  0  0  0
 24 25  1  0  0  0  0
 25 22  2  0  0  0  0
 26 22  1  0  0  0  0
 27 26  2  0  0  0  0
M  END
>  <MODEL>
7

>  <REMARK>
 VINA RESULT:      -8.7      1.744      5.928
  Name = 
  1 active torsions:
  status: ('A' for Active; 'I' for Inactive)
    1  A    between atoms: C_9  and  C_15
                            x       y       z     vdW  Elec       q    Type
                         _______ _______ _______ _____ _____    ______ ____

>  <TORSDO>
F 1

$$$$
=
 OpenBabel10272401003D

 27 31  0  0  1  0  0  0  0  0999 V2000
  186.9100  177.5130  142.9690 C   0  0  2  0  0  3  0  0  0  0  0  0
  186.3940  179.0390  141.2150 N   0  0  2  0  0  0  0  0  0  0  0  0
  188.1880  177.5930  142.1170 C   0  0  1  0  0  3  0  0  0  0  0  0
  187.5960  177.7250  137.3330 C   0  0  0  0  0  3  0  0  0  0  0  0
  189.3170  177.0930  135.7200 N   0  0  0  0  0  1  0  0  0  0  0  0
  185.5050  178.2000  140.3910 C   0  0  0  0  0  2  0  0  0  0  0  0
  189.5350  177.9560  139.3330 C   0  0  0  0  0  3  0  0  0  0  0  0
  191.6070  177.7150  143.9330 C   0  0  0  0  0  1  0  0  0  0  0  0
  189.9070  177.5840  138.0390 C   0  0  0  0  0  3  0  0  0  0  0  0
  189.5900  176.5380  144.6970 N   0  0  0  0  0  2  0  0  0  0  0  0
  187.8050  178.6170  141.0420 C   0  0  1  0  0  3  0  0  0  0  0  0
  186.1500  178.7800  142.6400 C   0  0  1  0  0  3  0  0  0  0  0  0
  188.9380  177.4670  137.0390 C   0  0  0  0  0  0  0  0  0  0  0  0
  187.2180  178.0860  138.6290 C   0  0  0  0  0  0  0  0  0  0  0  0
  187.0150  177.1990  144.4010 N   0  0  0  0  0  2  0  0  0  0  0  0
  188.1910  178.2060  139.6390 C   0  0  0  0  0  0  0  0  0  0  0  0
  190.2650  177.1270  143.5350 C   0  0  1  0  0  3  0  0  0  0  0  0
  185.7900  178.4130  138.9140 C   0  0  0  0  0  2  0  0  0  0  0  0
  189.0960  177.5590  145.6310 C   0  0  0  0  0  2  0  0  0  0  0  0
  187.7970  178.1900  145.1300 C   0  0  0  0  0  2  0  0  0  0  0  0
  189.4220  178.1750  142.8110 C   0  0  0  0  0  2  0  0  0  0  0  0
  182.0000  178.7880  143.7210 C   0  0  0  0  0  3  0  0  0  0  0  0
  184.6970  178.8020  143.0510 C   0  0  0  0  0  0  0  0  0  0  0  0
  183.7390  178.7920  142.0830 N   0  0  0  0  0  0  0  0  0  0  0  0
  182.4130  178.7880  142.3870 C   0  0  0  0  0  3  0  0  0  0  0  0
  182.9610  178.7890  144.7310 C   0  0  0  0  0  3  0  0  0  0  0  0
  184.3170  178.7930  144.4010 C   0  0  0  0  0  3  0  0  0  0  0  0
  1 15  1  1  0  0  0
  2  6  1  6  0  0  0
  2 12  1  0  0  0  0
  3 21  1  1  0  0  0
  3  1  1  0  0  0  0
  4 14  1  0  0  0  0
  5 13  1  0  0  0  0
  7 16  1  0  0  0  0
  9  7  2  0  0  0  0
 10 19  1  0  0  0  0
 11 16  1  6  0  0  0
 11  2  1  0  0  0  0
 11  3  1  0  0  0  0
 12  1  1  0  0  0  0
 12 23  1  6  0  0  0
 13  4  2  0  0  0  0
 13  9  1  0  0  0  0
 14 18  1  0  0  0  0
 14 16  2  0  0  0  0
 15 20  1  0  0  0  0
 17  8  1  1  0  0  0
 17 10  1  0  0  0  0
 18  6  1  0  0  0  0
 20 19  1  0  0  0  0
 21 17  1  0  0  0  0
 22 26  1  0  0  0  0
 23 27  1  0  0  0  0
 24 25  1  0  0  0  0
 24 23  2  0  0  0  0
 25 22  2  0  0  0  0
 27 26  2  0  0  0  0
M  END
>  <MODEL>
8

>  <REMARK>
 VINA RESULT:      -8.6      1.431      5.392
  Name = 
  1 active torsions:
  status: ('A' for Active; 'I' for Inactive)
    1  A    between atoms: C_9  and  C_15
                            x       y       z     vdW  Elec       q    Type
                         _______ _______ _______ _____ _____    ______ ____

>  <TORSDO>
F 1

$$$$
=
 OpenBabel10272401003D

 27 31  0  0  1  0  0  0  0  0999 V2000
  187.5220  177.4270  142.1540 C   0  0  2  0  0  3  0  0  0  0  0  0
  187.9210  178.7100  140.1890 N   0  0  2  0  0  0  0  0  0  0  0  0
  189.0420  177.3650  141.9370 C   0  0  1  0  0  3  0  0  0  0  0  0
  190.5600  176.8580  137.3870 C   0  0  0  0  0  3  0  0  0  0  0  0
  192.7500  175.9780  136.7620 N   0  0  0  0  0  1  0  0  0  0  0  0
  187.4070  177.7850  139.1630 C   0  0  0  0  0  2  0  0  0  0  0  0
  191.4720  177.3190  139.9890 C   0  0  0  0  0  3  0  0  0  0  0  0
  191.3580  177.6630  145.0270 C   0  0  0  0  0  1  0  0  0  0  0  0
  192.3310  176.7670  139.0350 C   0  0  0  0  0  3  0  0  0  0  0  0
  189.1250  176.6410  144.9710 N   0  0  0  0  0  2  0  0  0  0  0  0
  189.2350  178.2400  140.6930 C   0  0  1  0  0  3  0  0  0  0  0  0
  187.0740  178.6520  141.3870 C   0  0  1  0  0  3  0  0  0  0  0  0
  191.8740  176.5350  137.7350 C   0  0  0  0  0  0  0  0  0  0  0  0
  189.6940  177.3990  138.3410 C   0  0  0  0  0  0  0  0  0  0  0  0
  186.9810  177.3070  143.5170 N   0  0  0  0  0  2  0  0  0  0  0  0
  190.1490  177.6350  139.6520 C   0  0  0  0  0  0  0  0  0  0  0  0
  190.2740  177.0530  144.1570 C   0  0  1  0  0  3  0  0  0  0  0  0
  188.3110  177.7910  137.9410 C   0  0  0  0  0  2  0  0  0  0  0  0
  188.3600  177.7890  145.4760 C   0  0  0  0  0  2  0  0  0  0  0  0
  187.4510  178.3730  144.3940 C   0  0  0  0  0  2  0  0  0  0  0  0
  189.9040  178.0100  143.0250 C   0  0  0  0  0  2  0  0  0  0  0  0
  182.8820  178.9520  140.5340 C   0  0  0  0  0  3  0  0  0  0  0  0
  185.5910  178.7590  141.1230 C   0  0  0  0  0  0  0  0  0  0  0  0
  185.1670  179.3770  139.9860 N   0  0  0  0  0  0  0  0  0  0  0  0
  183.8470  179.4860  139.6790 C   0  0  0  0  0  3  0  0  0  0  0  0
  183.2900  178.3060  141.7010 C   0  0  0  0  0  3  0  0  0  0  0  0
  184.6490  178.2030  142.0010 C   0  0  0  0  0  3  0  0  0  0  0  0
  1 15  1  1  0  0  0
  2  6  1  6  0  0  0
  2 11  1  0  0  0  0
  2 12  1  0  0  0  0
  3  1  1  0  0  0  0
  3 21  1  1  0  0  0
  4 13  2  0  0  0  0
  4 14  1  0  0  0  0
  5 13  1  0  0  0  0
  9  7  2  0  0  0  0
 10 19  1  0  0  0  0
 11 16  1  6  0  0  0
 11  3  1  0  0  0  0
 12 23  1  6  0  0  0
 12  1  1  0  0  0  0
 13  9  1  0  0  0  0
 14 16  2  0  0  0  0
 15 20  1  0  0  0  0
 16  7  1  0  0  0  0
 17 10  1  0  0  0  0
 17  8  1  1  0  0  0
 18 14  1  0  0  0  0
 18  6  1  0  0  0  0
 20 19  1  0  0  0  0
 21 17  1  0  0  0  0
 22 26  1  0  0  0  0
 23 27  1  0  0  0  0
 24 23  2  0  0  0  0
 25 24  1  0  0  0  0
 25 22  2  0  0  0  0
 26 27  2  0  0  0  0
M  END
>  <MODEL>
9

>  <REMARK>
 VINA RESULT:      -8.6      1.756      5.398
  Name = 
  1 active torsions:
  status: ('A' for Active; 'I' for Inactive)
    1  A    between atoms: C_9  and  C_15
                            x       y       z     vdW  Elec       q    Type
                         _______ _______ _______ _____ _____    ______ ____

>  <TORSDO>
F 1

$$$$
