=
 OpenBabel10272401233D

 55 61  0  0  1  0  0  0  0  0999 V2000
  184.1120  178.2750  141.7070 C   0  0  0  0  0  3  0  0  0  0  0  0
  182.9010  179.4660  139.4840 C   0  0  0  0  0  0  0  0  0  0  0  0
  184.2950  179.4010  139.5710 C   0  0  0  0  0  3  0  0  0  0  0  0
  182.7180  178.3440  141.6240 C   0  0  0  0  0  3  0  0  0  0  0  0
  184.9070  178.8050  140.6780 C   0  0  0  0  0  0  0  0  0  0  0  0
  182.1120  178.9420  140.5130 C   0  0  0  0  0  3  0  0  0  0  0  0
  186.3720  178.7560  140.7220 C   0  0  0  0  0  3  0  0  0  0  0  0
  187.0600  178.1070  141.6570 C   0  0  0  0  0  3  0  0  0  0  0  0
  188.4950  178.0830  141.6660 N   0  0  0  0  0  0  0  0  0  0  0  0
  189.1330  178.2770  139.2660 C   0  0  0  0  0  2  0  0  0  0  0  0
  190.7670  176.5020  138.5460 N   0  0  0  0  0  0  0  0  0  0  0  0
  190.5950  177.0350  140.9390 C   0  0  0  0  0  2  0  0  0  0  0  0
  191.5220  176.9330  139.7310 C   0  0  0  0  0  2  0  0  0  0  0  0
  189.9310  177.6360  138.1170 C   0  0  0  0  0  2  0  0  0  0  0  0
  189.1660  177.4300  140.5450 C   0  0  0  0  0  3  0  0  0  0  0  0
  191.7240  176.1840  137.4690 C   0  0  0  0  0  3  0  0  0  0  0  0
  191.5730  174.7420  137.0070 C   0  0  0  0  0  1  0  0  0  0  0  0
  193.1620  176.3520  137.9430 C   0  0  0  0  0  1  0  0  0  0  0  0
  189.2510  178.4910  142.8550 C   0  0  0  0  0  2  0  0  0  0  0  0
  188.9980  177.5290  144.0120 C   0  0  0  0  0  2  0  0  0  0  0  0
  190.7160  177.0550  147.4160 C   0  0  0  0  0  2  0  0  0  0  0  0
  191.5190  175.8490  146.9610 C   0  0  0  0  0  2  0  0  0  0  0  0
  190.0960  177.6090  145.0610 C   0  0  2  0  0  3  0  0  0  0  0  0
  191.2470  176.7280  144.6470 C   0  0  0  0  0  3  0  0  0  0  0  0
  191.9230  175.9650  145.5170 C   0  0  0  0  0  3  0  0  0  0  0  0
  189.5560  177.2590  146.4520 C   0  0  2  0  0  3  0  0  0  0  0  0
  188.7070  178.2960  146.9260 O   0  0  0  0  0  0  0  0  0  0  0  0
  187.6020  178.0480  147.7420 C   0  0  0  0  0  0  0  0  0  0  0  0
  187.7110  177.2260  148.6870 O   0  0  0  0  0  0  0  0  0  0  0  0
  186.3060  178.7720  147.5550 C   0  0  0  0  0  2  0  0  0  0  0  0
  185.6950  178.4630  146.1980 C   0  0  0  0  0  2  0  0  0  0  0  0
  183.6640  178.9720  145.1300 C   0  0  0  0  0  2  0  0  0  0  0  0
  184.2830  178.7260  146.2220 N   0  0  0  0  0  0  0  0  0  0  0  0
  182.2690  180.1070  138.3000 C   0  0  0  0  0  2  0  0  0  0  0  0
  181.0740  179.2950  137.8310 C   0  0  0  0  0  2  0  0  0  0  0  0
  180.7780  179.6010  136.3720 C   0  0  0  0  0  2  0  0  0  0  0  0
  181.1900  178.4880  135.5310 N   0  0  0  0  0  2  0  0  0  0  0  0
  181.1830  177.2900  136.3520 C   0  0  0  0  0  2  0  0  0  0  0  0
  183.5680  173.0740  135.8090 C   0  0  0  0  0  0  0  0  0  0  0  0
  182.8530  175.5840  139.0250 C   0  0  0  0  0  1  0  0  0  0  0  0
  183.4840  175.1650  137.7110 C   0  0  2  0  0  0  0  0  0  0  0  0
  182.1370  176.2520  135.7610 C   0  0  2  0  0  3  0  0  0  0  0  0
  184.5560  176.2170  137.3580 C   0  0  2  0  0  3  0  0  0  0  0  0
  182.3280  175.0260  136.6590 C   0  0  1  0  0  3  0  0  0  0  0  0
  183.6620  172.0990  135.0200 O   0  0  0  0  0  0  0  0  0  0  0  0
  185.4830  174.4290  135.9980 O   0  0  0  0  0  0  0  0  0  0  0  0
  184.0300  177.3290  136.4500 C   0  0  0  0  0  2  0  0  0  0  0  0
  185.8170  175.5070  136.8440 C   0  0  1  0  0  3  0  0  0  0  0  0
  182.4140  173.8470  135.8490 O   0  0  0  0  0  0  0  0  0  0  0  0
  184.1350  173.9220  137.9190 O   0  0  0  0  0  0  0  0  0  0  0  0
  183.3640  176.8000  135.3320 O   0  0  0  0  0  0  0  0  0  0  0  0
  184.6940  173.4640  136.6890 C   0  0  1  0  0  3  0  0  0  0  0  0
  187.1200  176.2340  134.8320 C   0  0  0  0  0  2  0  0  0  0  0  0
  186.8600  176.4690  136.2510 C   0  0  2  0  0  3  0  0  0  0  0  0
  188.0600  175.7230  135.8430 N   0  0  0  0  0  2  0  0  0  0  0  0
  2  3  2  0  0  0  0
  2  6  1  0  0  0  0
  3  5  1  0  0  0  0
  4  1  1  0  0  0  0
  5  7  1  0  0  0  0
  5  1  2  0  0  0  0
  6  4  2  0  0  0  0
  7  8  2  0  0  0  0
  8  9  1  0  0  0  0
  9 19  1  0  0  0  0
 10 15  1  0  0  0  0
 11 13  1  0  0  0  0
 13 12  1  0  0  0  0
 14 11  1  0  0  0  0
 14 10  1  0  0  0  0
 15 12  1  0  0  0  0
 15  9  1  0  0  0  0
 16 18  1  0  0  0  0
 16 11  1  0  0  0  0
 17 16  1  0  0  0  0
 19 20  1  0  0  0  0
 22 21  1  0  0  0  0
 23 20  1  6  0  0  0
 23 26  1  0  0  0  0
 24 23  1  0  0  0  0
 24 25  2  0  0  0  0
 25 22  1  0  0  0  0
 26 27  1  1  0  0  0
 26 21  1  0  0  0  0
 27 28  1  0  0  0  0
 28 29  2  0  0  0  0
 30 28  1  0  0  0  0
 31 33  1  0  0  0  0
 31 30  1  0  0  0  0
 32 33  2  0  0  0  0
 34  2  1  0  0  0  0
 35 34  1  0  0  0  0
 36 35  1  0  0  0  0
 37 38  1  0  0  0  0
 37 36  1  0  0  0  0
 39 49  1  0  0  0  0
 41 50  1  0  0  0  0
 41 40  1  1  0  0  0
 42 38  1  1  0  0  0
 42 44  1  0  0  0  0
 43 47  1  6  0  0  0
 43 41  1  0  0  0  0
 44 49  1  6  0  0  0
 44 41  1  0  0  0  0
 45 39  2  0  0  0  0
 46 52  1  0  0  0  0
 48 46  1  6  0  0  0
 48 43  1  0  0  0  0
 51 42  1  0  0  0  0
 51 47  1  0  0  0  0
 52 39  1  6  0  0  0
 52 50  1  0  0  0  0
 53 55  1  0  0  0  0
 54 53  1  6  0  0  0
 54 48  1  0  0  0  0
 55 54  1  0  0  0  0
M  END
>  <MODEL>
1

>  <REMARK>
 VINA RESULT:      -7.7      0.000      0.000
  Name = 
  19 active torsions:
  status: ('A' for Active; 'I' for Inactive)
    1  A    between atoms: C_2  and  C_44
    2  A    between atoms: C_4  and  N_37
    3  A    between atoms: C_4  and  C_40
    4  A    between atoms: C_5  and  C_40
    5  A    between atoms: C_5  and  O_45
    6  A    between atoms: C_7  and  C_22
    7  A    between atoms: N_8  and  C_22
    8  A    between atoms: N_8  and  C_43
    9  A    between atoms: C_10  and  N_32
   10  A    between atoms: C_12  and  C_38
   11  A    between atoms: C_16  and  C_36
   12  A    between atoms: C_26  and  O_45
   13  A    between atoms: C_27  and  C_54
   14  A    between atoms: C_28  and  N_49
   15  A    between atoms: C_33  and  C_36
   16  A    between atoms: C_33  and  N_49
   17  A    between atoms: C_43  and  C_51
   18  A    between atoms: N_49  and  C_52
   19  A    between atoms: C_51  and  C_54
                            x       y       z     vdW  Elec       q    Type
                         _______ _______ _______ _____ _____    ______ ____

>  <TORSDO>
F 19

$$$$
=
 OpenBabel10272401233D

 55 61  0  0  1  0  0  0  0  0999 V2000
  184.0970  179.2300  143.2420 C   0  0  0  0  0  3  0  0  0  0  0  0
  182.9140  178.2450  140.9060 C   0  0  0  0  0  0  0  0  0  0  0  0
  184.3060  178.2510  141.0380 C   0  0  0  0  0  3  0  0  0  0  0  0
  182.7050  179.2310  143.1090 C   0  0  0  0  0  3  0  0  0  0  0  0
  184.9040  178.7400  142.2040 C   0  0  0  0  0  0  0  0  0  0  0  0
  182.1130  178.7410  141.9390 C   0  0  0  0  0  3  0  0  0  0  0  0
  186.3670  178.7190  142.2970 C   0  0  0  0  0  3  0  0  0  0  0  0
  187.0970  177.6130  142.1820 C   0  0  0  0  0  3  0  0  0  0  0  0
  188.5290  177.6340  142.2790 N   0  0  0  0  0  0  0  0  0  0  0  0
  188.7530  177.3040  139.8210 C   0  0  0  0  0  2  0  0  0  0  0  0
  190.9010  176.1530  139.1860 N   0  0  0  0  0  0  0  0  0  0  0  0
  190.7810  177.2920  141.3600 C   0  0  0  0  0  2  0  0  0  0  0  0
  191.5230  177.1810  140.0300 C   0  0  0  0  0  2  0  0  0  0  0  0
  189.6170  176.6920  138.7040 C   0  0  0  0  0  2  0  0  0  0  0  0
  189.2870  176.9720  141.2210 C   0  0  0  0  0  3  0  0  0  0  0  0
  191.7760  175.9050  138.0240 C   0  0  0  0  0  3  0  0  0  0  0  0
  193.1020  176.6400  138.1670 C   0  0  0  0  0  1  0  0  0  0  0  0
  191.1310  176.3970  136.7350 C   0  0  0  0  0  1  0  0  0  0  0  0
  189.1980  178.0970  143.5010 C   0  0  0  0  0  2  0  0  0  0  0  0
  189.2910  176.9710  144.5250 C   0  0  0  0  0  2  0  0  0  0  0  0
  191.5350  176.7540  147.6370 C   0  0  0  0  0  2  0  0  0  0  0  0
  192.1560  175.4310  147.2260 C   0  0  0  0  0  2  0  0  0  0  0  0
  190.5570  177.0740  145.3620 C   0  0  2  0  0  3  0  0  0  0  0  0
  191.5520  176.0440  144.8890 C   0  0  0  0  0  3  0  0  0  0  0  0
  192.3120  175.3330  145.7330 C   0  0  0  0  0  3  0  0  0  0  0  0
  190.2420  176.9480  146.8570 C   0  0  2  0  0  3  0  0  0  0  0  0
  189.5660  178.1100  147.3170 O   0  0  0  0  0  0  0  0  0  0  0  0
  188.3680  178.0490  148.0310 C   0  0  0  0  0  0  0  0  0  0  0  0
  188.3870  178.2370  149.2750 O   0  0  0  0  0  0  0  0  0  0  0  0
  187.0560  177.8150  147.3520 C   0  0  0  0  0  2  0  0  0  0  0  0
  186.2570  179.1030  147.2420 C   0  0  0  0  0  2  0  0  0  0  0  0
  184.3690  178.2090  146.1660 C   0  0  0  0  0  2  0  0  0  0  0  0
  184.8520  178.8090  147.1870 N   0  0  0  0  0  0  0  0  0  0  0  0
  182.2970  177.7250  139.6560 C   0  0  0  0  0  2  0  0  0  0  0  0
  181.3180  176.6080  139.9730 C   0  0  0  0  0  2  0  0  0  0  0  0
  181.0840  175.7560  138.7360 C   0  0  0  0  0  2  0  0  0  0  0  0
  182.0020  176.1440  137.6770 N   0  0  0  0  0  2  0  0  0  0  0  0
  182.9720  175.0760  137.5200 C   0  0  0  0  0  2  0  0  0  0  0  0
  186.5910  178.2180  136.6350 C   0  0  0  0  0  0  0  0  0  0  0  0
  183.5160  176.6500  134.3470 C   0  0  0  0  0  1  0  0  0  0  0  0
  184.8280  176.6200  135.1060 C   0  0  2  0  0  0  0  0  0  0  0  0
  184.3850  175.6590  137.4890 C   0  0  2  0  0  3  0  0  0  0  0  0
  185.4850  175.2510  134.8380 C   0  0  2  0  0  3  0  0  0  0  0  0
  184.5030  176.9100  136.6150 C   0  0  1  0  0  3  0  0  0  0  0  0
  187.4060  178.9640  137.2350 O   0  0  0  0  0  0  0  0  0  0  0  0
  187.5310  176.4080  135.4600 O   0  0  0  0  0  0  0  0  0  0  0  0
  185.1480  174.2040  135.9010 C   0  0  0  0  0  2  0  0  0  0  0  0
  186.9860  175.4480  134.5810 C   0  0  1  0  0  3  0  0  0  0  0  0
  185.3940  177.8450  137.2350 O   0  0  0  0  0  0  0  0  0  0  0  0
  185.6660  177.6280  134.5640 O   0  0  0  0  0  0  0  0  0  0  0  0
  185.3780  174.7010  137.1940 O   0  0  0  0  0  0  0  0  0  0  0  0
  186.8920  177.6720  135.2910 C   0  0  1  0  0  3  0  0  0  0  0  0
  188.6940  173.9620  135.6540 C   0  0  0  0  0  2  0  0  0  0  0  0
  187.7750  174.1290  134.5290 C   0  0  2  0  0  3  0  0  0  0  0  0
  189.2090  174.4050  134.3480 N   0  0  0  0  0  2  0  0  0  0  0  0
  2  3  2  0  0  0  0
  2  6  1  0  0  0  0
  3  5  1  0  0  0  0
  4  1  1  0  0  0  0
  5  7  1  0  0  0  0
  5  1  2  0  0  0  0
  6  4  2  0  0  0  0
  8  9  1  0  0  0  0
  8  7  2  0  0  0  0
  9 19  1  0  0  0  0
 10 15  1  0  0  0  0
 11 13  1  0  0  0  0
 13 12  1  0  0  0  0
 14 11  1  0  0  0  0
 14 10  1  0  0  0  0
 15 12  1  0  0  0  0
 15  9  1  0  0  0  0
 16 17  1  0  0  0  0
 16 11  1  0  0  0  0
 18 16  1  0  0  0  0
 19 20  1  0  0  0  0
 22 21  1  0  0  0  0
 23 20  1  6  0  0  0
 23 26  1  0  0  0  0
 24 23  1  0  0  0  0
 24 25  2  0  0  0  0
 25 22  1  0  0  0  0
 26 27  1  1  0  0  0
 26 21  1  0  0  0  0
 27 28  1  0  0  0  0
 28 29  2  0  0  0  0
 30 28  1  0  0  0  0
 31 30  1  0  0  0  0
 32 33  2  0  0  0  0
 33 31  1  0  0  0  0
 34 35  1  0  0  0  0
 34  2  1  0  0  0  0
 36 35  1  0  0  0  0
 37 36  1  0  0  0  0
 38 37  1  0  0  0  0
 39 49  1  0  0  0  0
 39 45  2  0  0  0  0
 41 40  1  6  0  0  0
 41 44  1  0  0  0  0
 42 38  1  6  0  0  0
 43 41  1  0  0  0  0
 43 47  1  1  0  0  0
 44 49  1  1  0  0  0
 44 42  1  0  0  0  0
 47 51  1  0  0  0  0
 48 43  1  0  0  0  0
 48 46  1  1  0  0  0
 50 41  1  0  0  0  0
 51 42  1  0  0  0  0
 52 50  1  6  0  0  0
 52 46  1  0  0  0  0
 52 39  1  0  0  0  0
 54 48  1  0  0  0  0
 54 53  1  1  0  0  0
 55 54  1  0  0  0  0
 55 53  1  0  0  0  0
M  END
>  <MODEL>
2

>  <REMARK>
 VINA RESULT:      -7.5      1.630      2.748
  Name = 
  19 active torsions:
  status: ('A' for Active; 'I' for Inactive)
    1  A    between atoms: C_2  and  C_44
    2  A    between atoms: C_4  and  N_37
    3  A    between atoms: C_4  and  C_40
    4  A    between atoms: C_5  and  C_40
    5  A    between atoms: C_5  and  O_45
    6  A    between atoms: C_7  and  C_22
    7  A    between atoms: N_8  and  C_22
    8  A    between atoms: N_8  and  C_43
    9  A    between atoms: C_10  and  N_32
   10  A    between atoms: C_12  and  C_38
   11  A    between atoms: C_16  and  C_36
   12  A    between atoms: C_26  and  O_45
   13  A    between atoms: C_27  and  C_54
   14  A    between atoms: C_28  and  N_49
   15  A    between atoms: C_33  and  C_36
   16  A    between atoms: C_33  and  N_49
   17  A    between atoms: C_43  and  C_51
   18  A    between atoms: N_49  and  C_52
   19  A    between atoms: C_51  and  C_54
                            x       y       z     vdW  Elec       q    Type
                         _______ _______ _______ _____ _____    ______ ____

>  <TORSDO>
F 19

$$$$
=
 OpenBabel10272401233D

 55 61  0  0  1  0  0  0  0  0999 V2000
  182.3750  178.6360  141.9630 C   0  0  0  0  0  3  0  0  0  0  0  0
  184.3200  179.1220  143.9140 C   0  0  0  0  0  0  0  0  0  0  0  0
  184.6880  179.0230  142.5690 C   0  0  0  0  0  3  0  0  0  0  0  0
  182.0070  178.7300  143.3090 C   0  0  0  0  0  3  0  0  0  0  0  0
  183.7200  178.7810  141.5880 C   0  0  0  0  0  0  0  0  0  0  0  0
  182.9810  178.9710  144.2850 C   0  0  0  0  0  3  0  0  0  0  0  0
  184.1540  178.6900  140.1910 C   0  0  0  0  0  3  0  0  0  0  0  0
  183.9940  177.6030  139.4400 C   0  0  0  0  0  3  0  0  0  0  0  0
  184.4330  177.5520  138.0740 N   0  0  0  0  0  0  0  0  0  0  0  0
  185.4500  175.4290  137.2610 C   0  0  0  0  0  2  0  0  0  0  0  0
  187.9210  175.6400  136.8220 N   0  0  0  0  0  0  0  0  0  0  0  0
  186.5570  177.6840  136.8470 C   0  0  0  0  0  2  0  0  0  0  0  0
  187.5260  176.8210  136.0430 C   0  0  0  0  0  2  0  0  0  0  0  0
  186.7630  174.7300  136.8650 C   0  0  0  0  0  2  0  0  0  0  0  0
  185.6820  176.8500  137.7920 C   0  0  0  0  0  3  0  0  0  0  0  0
  189.0290  174.9630  136.1210 C   0  0  0  0  0  3  0  0  0  0  0  0
  189.5410  173.7730  136.9210 C   0  0  0  0  0  1  0  0  0  0  0  0
  190.2090  175.9050  135.9190 C   0  0  0  0  0  1  0  0  0  0  0  0
  183.7790  178.3610  137.0390 C   0  0  0  0  0  2  0  0  0  0  0  0
  182.3900  177.8140  136.7250 C   0  0  0  0  0  2  0  0  0  0  0  0
  179.9840  179.2660  139.3460 C   0  0  0  0  0  2  0  0  0  0  0  0
  180.8320  180.5010  139.5930 C   0  0  0  0  0  2  0  0  0  0  0  0
  181.2940  178.7000  137.2960 C   0  0  2  0  0  3  0  0  0  0  0  0
  181.7690  180.1310  137.3160 C   0  0  0  0  0  3  0  0  0  0  0  0
  181.5190  180.9620  138.3370 C   0  0  0  0  0  3  0  0  0  0  0  0
  180.8500  178.2070  138.6780 C   0  0  2  0  0  3  0  0  0  0  0  0
  180.1250  176.9910  138.5570 O   0  0  0  0  0  0  0  0  0  0  0  0
  180.5990  175.7800  139.0630 C   0  0  0  0  0  0  0  0  0  0  0  0
  181.0210  175.7340  140.2470 O   0  0  0  0  0  0  0  0  0  0  0  0
  180.5720  174.5220  138.2530 C   0  0  0  0  0  2  0  0  0  0  0  0
  181.8560  174.3540  137.4570 C   0  0  0  0  0  2  0  0  0  0  0  0
  180.6370  174.6880  135.4740 C   0  0  0  0  0  2  0  0  0  0  0  0
  181.5500  174.0350  136.0900 N   0  0  0  0  0  0  0  0  0  0  0  0
  185.3640  179.3750  144.9440 C   0  0  0  0  0  2  0  0  0  0  0  0
  185.6060  178.1250  145.7720 C   0  0  0  0  0  2  0  0  0  0  0  0
  186.2630  178.4960  147.0920 C   0  0  0  0  0  2  0  0  0  0  0  0
  187.4430  177.6750  147.3140 N   0  0  0  0  0  2  0  0  0  0  0  0
  188.5170  178.2200  146.5030 C   0  0  0  0  0  2  0  0  0  0  0  0
  191.8900  175.5680  144.1910 C   0  0  0  0  0  0  0  0  0  0  0  0
  191.1050  179.6260  144.4600 C   0  0  0  0  0  1  0  0  0  0  0  0
  190.8590  178.1960  144.0190 C   0  0  2  0  0  0  0  0  0  0  0  0
  189.1220  177.1160  145.6350 C   0  0  2  0  0  3  0  0  0  0  0  0
  189.6890  178.2180  143.0140 C   0  0  2  0  0  3  0  0  0  0  0  0
  190.6010  177.3440  145.3110 C   0  0  1  0  0  3  0  0  0  0  0  0
  192.4110  174.4240  144.2030 O   0  0  0  0  0  0  0  0  0  0  0  0
  190.6280  176.1010  142.2770 O   0  0  0  0  0  0  0  0  0  0  0  0
  188.3290  177.9720  143.6710 C   0  0  0  0  0  2  0  0  0  0  0  0
  190.0120  177.2900  141.8350 C   0  0  1  0  0  3  0  0  0  0  0  0
  191.2950  176.0900  145.3330 O   0  0  0  0  0  0  0  0  0  0  0  0
  192.0200  177.7470  143.3370 O   0  0  0  0  0  0  0  0  0  0  0  0
  188.3580  176.8280  144.4850 O   0  0  0  0  0  0  0  0  0  0  0  0
  191.8510  176.3840  142.9540 C   0  0  1  0  0  3  0  0  0  0  0  0
  189.1310  177.3360  139.4900 C   0  0  0  0  0  2  0  0  0  0  0  0
  188.8180  177.0630  140.8920 C   0  0  2  0  0  3  0  0  0  0  0  0
  188.4030  178.3380  140.2860 N   0  0  0  0  0  2  0  0  0  0  0  0
  1  4  1  0  0  0  0
  2  6  1  0  0  0  0
  2 34  1  0  0  0  0
  3  2  2  0  0  0  0
  4  6  2  0  0  0  0
  5  1  2  0  0  0  0
  5  3  1  0  0  0  0
  7  5  1  0  0  0  0
  8  7  2  0  0  0  0
  9  8  1  0  0  0  0
 10 15  1  0  0  0  0
 11 14  1  0  0  0  0
 12 15  1  0  0  0  0
 13 11  1  0  0  0  0
 13 12  1  0  0  0  0
 14 10  1  0  0  0  0
 15  9  1  0  0  0  0
 16 11  1  0  0  0  0
 16 17  1  0  0  0  0
 18 16  1  0  0  0  0
 19  9  1  0  0  0  0
 20 19  1  0  0  0  0
 21 22  1  0  0  0  0
 23 20  1  1  0  0  0
 23 24  1  0  0  0  0
 23 26  1  0  0  0  0
 24 25  2  0  0  0  0
 25 22  1  0  0  0  0
 26 27  1  6  0  0  0
 26 21  1  0  0  0  0
 27 28  1  0  0  0  0
 28 29  2  0  0  0  0
 30 28  1  0  0  0  0
 31 30  1  0  0  0  0
 32 33  2  0  0  0  0
 33 31  1  0  0  0  0
 34 35  1  0  0  0  0
 35 36  1  0  0  0  0
 36 37  1  0  0  0  0
 38 37  1  0  0  0  0
 39 45  2  0  0  0  0
 39 49  1  0  0  0  0
 41 40  1  1  0  0  0
 41 44  1  0  0  0  0
 42 38  1  6  0  0  0
 43 47  1  1  0  0  0
 43 41  1  0  0  0  0
 44 49  1  6  0  0  0
 44 42  1  0  0  0  0
 47 51  1  0  0  0  0
 48 46  1  1  0  0  0
 48 43  1  0  0  0  0
 50 41  1  0  0  0  0
 51 42  1  0  0  0  0
 52 46  1  1  0  0  0
 52 50  1  0  0  0  0
 52 39  1  0  0  0  0
 53 55  1  0  0  0  0
 54 53  1  6  0  0  0
 54 48  1  0  0  0  0
 55 54  1  0  0  0  0
M  END
>  <MODEL>
3

>  <REMARK>
 VINA RESULT:      -7.0      2.441      9.124
  Name = 
  19 active torsions:
  status: ('A' for Active; 'I' for Inactive)
    1  A    between atoms: C_2  and  C_44
    2  A    between atoms: C_4  and  N_37
    3  A    between atoms: C_4  and  C_40
    4  A    between atoms: C_5  and  C_40
    5  A    between atoms: C_5  and  O_45
    6  A    between atoms: C_7  and  C_22
    7  A    between atoms: N_8  and  C_22
    8  A    between atoms: N_8  and  C_43
    9  A    between atoms: C_10  and  N_32
   10  A    between atoms: C_12  and  C_38
   11  A    between atoms: C_16  and  C_36
   12  A    between atoms: C_26  and  O_45
   13  A    between atoms: C_27  and  C_54
   14  A    between atoms: C_28  and  N_49
   15  A    between atoms: C_33  and  C_36
   16  A    between atoms: C_33  and  N_49
   17  A    between atoms: C_43  and  C_51
   18  A    between atoms: N_49  and  C_52
   19  A    between atoms: C_51  and  C_54
                            x       y       z     vdW  Elec       q    Type
                         _______ _______ _______ _____ _____    ______ ____

>  <TORSDO>
F 19

$$$$
=
 OpenBabel10272401233D

 55 61  0  0  1  0  0  0  0  0999 V2000
  184.9780  178.5230  144.5960 C   0  0  0  0  0  3  0  0  0  0  0  0
  183.0910  178.8250  142.5530 C   0  0  0  0  0  0  0  0  0  0  0  0
  184.3580  178.3100  142.2650 C   0  0  0  0  0  3  0  0  0  0  0  0
  183.7120  179.0440  144.8840 C   0  0  0  0  0  3  0  0  0  0  0  0
  185.3060  178.1540  143.2820 C   0  0  0  0  0  0  0  0  0  0  0  0
  182.7690  179.1970  143.8620 C   0  0  0  0  0  3  0  0  0  0  0  0
  186.6190  177.6050  142.9310 C   0  0  0  0  0  3  0  0  0  0  0  0
  187.3280  178.0050  141.8790 C   0  0  0  0  0  3  0  0  0  0  0  0
  188.6110  177.4420  141.5680 N   0  0  0  0  0  0  0  0  0  0  0  0
  190.1130  178.5390  143.2240 C   0  0  0  0  0  2  0  0  0  0  0  0
  190.9170  176.9530  145.0080 N   0  0  0  0  0  0  0  0  0  0  0  0
  188.8720  176.3830  143.7690 C   0  0  0  0  0  2  0  0  0  0  0  0
  189.4910  176.6250  145.1430 C   0  0  0  0  0  2  0  0  0  0  0  0
  191.0070  178.3160  144.4570 C   0  0  0  0  0  2  0  0  0  0  0  0
  189.5390  177.2260  142.6740 C   0  0  0  0  0  3  0  0  0  0  0  0
  191.5310  176.9420  146.3490 C   0  0  0  0  0  3  0  0  0  0  0  0
  192.2080  175.6080  146.6340 C   0  0  0  0  0  1  0  0  0  0  0  0
  190.4840  177.1510  147.4360 C   0  0  0  0  0  1  0  0  0  0  0  0
  189.0590  177.3030  140.1770 C   0  0  0  0  0  2  0  0  0  0  0  0
  188.8920  178.6180  139.4230 C   0  0  0  0  0  2  0  0  0  0  0  0
  189.8770  176.8520  136.1550 C   0  0  0  0  0  2  0  0  0  0  0  0
  188.4500  176.7780  135.6420 C   0  0  0  0  0  2  0  0  0  0  0  0
  189.2160  178.4640  137.9450 C   0  0  2  0  0  3  0  0  0  0  0  0
  187.9720  178.7150  137.1310 C   0  0  0  0  0  3  0  0  0  0  0  0
  187.6480  177.9810  136.0590 C   0  0  0  0  0  3  0  0  0  0  0  0
  189.8420  177.0940  137.6570 C   0  0  2  0  0  3  0  0  0  0  0  0
  191.1570  177.0320  138.1910 O   0  0  0  0  0  0  0  0  0  0  0  0
  191.9830  175.9180  138.0280 C   0  0  0  0  0  0  0  0  0  0  0  0
  191.4800  174.7680  138.1010 O   0  0  0  0  0  0  0  0  0  0  0  0
  193.4400  176.0560  137.7200 C   0  0  0  0  0  2  0  0  0  0  0  0
  193.6900  176.0220  136.2210 C   0  0  0  0  0  2  0  0  0  0  0  0
  195.7290  176.3720  135.1050 C   0  0  0  0  0  2  0  0  0  0  0  0
  194.8320  176.8300  135.8940 N   0  0  0  0  0  0  0  0  0  0  0  0
  182.0980  178.9870  141.4570 C   0  0  0  0  0  2  0  0  0  0  0  0
  180.7340  178.4870  141.8980 C   0  0  0  0  0  2  0  0  0  0  0  0
  180.2410  177.4110  140.9440 C   0  0  0  0  0  2  0  0  0  0  0  0
  181.0680  177.3820  139.7490 N   0  0  0  0  0  2  0  0  0  0  0  0
  180.4270  176.5020  138.7890 C   0  0  0  0  0  2  0  0  0  0  0  0
  184.2130  173.7240  137.4840 C   0  0  0  0  0  0  0  0  0  0  0  0
  182.0300  176.6900  135.5890 C   0  0  0  0  0  1  0  0  0  0  0  0
  182.2740  175.3130  136.1750 C   0  0  2  0  0  0  0  0  0  0  0  0
  181.2790  175.2490  138.5840 C   0  0  2  0  0  3  0  0  0  0  0  0
  181.0590  174.4350  135.8110 C   0  0  2  0  0  3  0  0  0  0  0  0
  182.5150  175.4950  137.7150 C   0  0  1  0  0  3  0  0  0  0  0  0
  185.1150  173.0050  137.9830 O   0  0  0  0  0  0  0  0  0  0  0  0
  182.6090  172.6000  136.1790 O   0  0  0  0  0  0  0  0  0  0  0  0
  179.9820  174.4200  136.8970 C   0  0  0  0  0  2  0  0  0  0  0  0
  181.5470  173.0490  135.3670 C   0  0  1  0  0  3  0  0  0  0  0  0
  183.6190  174.7370  138.2270 O   0  0  0  0  0  0  0  0  0  0  0  0
  183.4200  174.7680  135.5420 O   0  0  0  0  0  0  0  0  0  0  0  0
  180.5340  174.1310  138.1560 O   0  0  0  0  0  0  0  0  0  0  0  0
  183.7180  173.4930  136.1060 C   0  0  1  0  0  3  0  0  0  0  0  0
  180.3390  171.0600  136.2960 C   0  0  0  0  0  2  0  0  0  0  0  0
  180.4110  172.0260  135.2010 C   0  0  2  0  0  3  0  0  0  0  0  0
  180.9680  170.6760  135.0220 N   0  0  0  0  0  2  0  0  0  0  0  0
  1  4  1  0  0  0  0
  2  6  1  0  0  0  0
  3  2  2  0  0  0  0
  3  5  1  0  0  0  0
  5  1  2  0  0  0  0
  6  4  2  0  0  0  0
  7  5  1  0  0  0  0
  8  7  2  0  0  0  0
  9  8  1  0  0  0  0
  9 15  1  0  0  0  0
 10 14  1  0  0  0  0
 11 13  1  0  0  0  0
 11 16  1  0  0  0  0
 12 13  1  0  0  0  0
 14 11  1  0  0  0  0
 15 10  1  0  0  0  0
 15 12  1  0  0  0  0
 16 17  1  0  0  0  0
 16 18  1  0  0  0  0
 19  9  1  0  0  0  0
 20 19  1  0  0  0  0
 21 26  1  0  0  0  0
 22 25  1  0  0  0  0
 22 21  1  0  0  0  0
 23 20  1  1  0  0  0
 24 23  1  0  0  0  0
 25 24  2  0  0  0  0
 26 23  1  0  0  0  0
 26 27  1  6  0  0  0
 28 29  2  0  0  0  0
 28 27  1  0  0  0  0
 30 28  1  0  0  0  0
 31 30  1  0  0  0  0
 32 33  2  0  0  0  0
 33 31  1  0  0  0  0
 34 35  1  0  0  0  0
 34  2  1  0  0  0  0
 36 35  1  0  0  0  0
 37 36  1  0  0  0  0
 38 37  1  0  0  0  0
 39 45  2  0  0  0  0
 39 49  1  0  0  0  0
 41 40  1  6  0  0  0
 41 44  1  0  0  0  0
 42 38  1  6  0  0  0
 43 41  1  0  0  0  0
 43 47  1  1  0  0  0
 44 49  1  1  0  0  0
 44 42  1  0  0  0  0
 47 51  1  0  0  0  0
 48 43  1  0  0  0  0
 48 46  1  1  0  0  0
 50 41  1  0  0  0  0
 51 42  1  0  0  0  0
 52 50  1  1  0  0  0
 52 46  1  0  0  0  0
 52 39  1  0  0  0  0
 54 48  1  0  0  0  0
 54 53  1  1  0  0  0
 55 54  1  0  0  0  0
 55 53  1  0  0  0  0
M  END
>  <MODEL>
4

>  <REMARK>
 VINA RESULT:      -6.9      2.883      6.991
  Name = 
  19 active torsions:
  status: ('A' for Active; 'I' for Inactive)
    1  A    between atoms: C_2  and  C_44
    2  A    between atoms: C_4  and  N_37
    3  A    between atoms: C_4  and  C_40
    4  A    between atoms: C_5  and  C_40
    5  A    between atoms: C_5  and  O_45
    6  A    between atoms: C_7  and  C_22
    7  A    between atoms: N_8  and  C_22
    8  A    between atoms: N_8  and  C_43
    9  A    between atoms: C_10  and  N_32
   10  A    between atoms: C_12  and  C_38
   11  A    between atoms: C_16  and  C_36
   12  A    between atoms: C_26  and  O_45
   13  A    between atoms: C_27  and  C_54
   14  A    between atoms: C_28  and  N_49
   15  A    between atoms: C_33  and  C_36
   16  A    between atoms: C_33  and  N_49
   17  A    between atoms: C_43  and  C_51
   18  A    between atoms: N_49  and  C_52
   19  A    between atoms: C_51  and  C_54
                            x       y       z     vdW  Elec       q    Type
                         _______ _______ _______ _____ _____    ______ ____

>  <TORSDO>
F 19

$$$$
=
 OpenBabel10272401233D

 55 61  0  0  1  0  0  0  0  0999 V2000
  183.6160  178.8900  144.0590 C   0  0  0  0  0  3  0  0  0  0  0  0
  182.0160  178.7070  141.7720 C   0  0  0  0  0  0  0  0  0  0  0  0
  183.3490  178.2900  141.7280 C   0  0  0  0  0  3  0  0  0  0  0  0
  182.2840  179.3130  144.1020 C   0  0  0  0  0  3  0  0  0  0  0  0
  184.1550  178.3770  142.8680 C   0  0  0  0  0  0  0  0  0  0  0  0
  181.4840  179.2230  142.9570 C   0  0  0  0  0  3  0  0  0  0  0  0
  185.5460  177.9220  142.7750 C   0  0  0  0  0  3  0  0  0  0  0  0
  186.5590  178.7160  142.4370 C   0  0  0  0  0  3  0  0  0  0  0  0
  187.9080  178.2330  142.3560 N   0  0  0  0  0  0  0  0  0  0  0  0
  187.9260  178.3520  139.8690 C   0  0  0  0  0  2  0  0  0  0  0  0
  189.4120  176.6090  138.8220 N   0  0  0  0  0  0  0  0  0  0  0  0
  189.8100  177.2330  141.1650 C   0  0  0  0  0  2  0  0  0  0  0  0
  190.4150  177.1150  139.7680 C   0  0  0  0  0  2  0  0  0  0  0  0
  188.4450  177.6930  138.5780 C   0  0  0  0  0  2  0  0  0  0  0  0
  188.3110  177.5600  141.1250 C   0  0  0  0  0  3  0  0  0  0  0  0
  190.0870  176.2820  137.5520 C   0  0  0  0  0  3  0  0  0  0  0  0
  189.8450  177.3620  136.5060 C   0  0  0  0  0  1  0  0  0  0  0  0
  189.5640  174.9740  136.9720 C   0  0  0  0  0  1  0  0  0  0  0  0
  188.7760  178.2130  143.5390 C   0  0  0  0  0  2  0  0  0  0  0  0
  188.7490  176.8400  144.2040 C   0  0  0  0  0  2  0  0  0  0  0  0
  188.2530  178.1740  147.7740 C   0  0  0  0  0  2  0  0  0  0  0  0
  186.9440  178.8690  147.4450 C   0  0  0  0  0  2  0  0  0  0  0  0
  188.1970  176.9110  145.6200 C   0  0  2  0  0  3  0  0  0  0  0  0
  186.7280  177.2490  145.5660 C   0  0  0  0  0  3  0  0  0  0  0  0
  186.1500  178.1010  146.4240 C   0  0  0  0  0  3  0  0  0  0  0  0
  188.9980  177.8990  146.4750 C   0  0  2  0  0  3  0  0  0  0  0  0
  190.2880  177.3730  146.7560 O   0  0  0  0  0  0  0  0  0  0  0  0
  191.2810  177.2580  145.7820 C   0  0  0  0  0  0  0  0  0  0  0  0
  191.6790  178.2930  145.1880 O   0  0  0  0  0  0  0  0  0  0  0  0
  191.9210  175.9440  145.4600 C   0  0  0  0  0  2  0  0  0  0  0  0
  192.2890  175.1880  146.7260 C   0  0  0  0  0  2  0  0  0  0  0  0
  193.1970  175.7760  148.8140 C   0  0  0  0  0  2  0  0  0  0  0  0
  192.4690  176.1080  147.8150 N   0  0  0  0  0  0  0  0  0  0  0  0
  181.1760  178.6100  140.5470 C   0  0  0  0  0  2  0  0  0  0  0  0
  181.7880  177.6300  139.5610 C   0  0  0  0  0  2  0  0  0  0  0  0
  180.9580  176.3580  139.5110 C   0  0  0  0  0  2  0  0  0  0  0  0
  180.9390  175.8240  138.1580 N   0  0  0  0  0  2  0  0  0  0  0  0
  181.7630  174.6280  138.1440 C   0  0  0  0  0  2  0  0  0  0  0  0
  185.5640  176.7970  136.0000 C   0  0  0  0  0  0  0  0  0  0  0  0
  182.2110  174.8140  134.5930 C   0  0  0  0  0  1  0  0  0  0  0  0
  183.5660  174.9360  135.2620 C   0  0  2  0  0  0  0  0  0  0  0  0
  183.2140  175.0020  137.8440 C   0  0  2  0  0  3  0  0  0  0  0  0
  184.0840  173.5060  135.5190 C   0  0  2  0  0  3  0  0  0  0  0  0
  183.3760  175.8090  136.5530 C   0  0  1  0  0  3  0  0  0  0  0  0
  186.4800  177.6240  136.2400 O   0  0  0  0  0  0  0  0  0  0  0  0
  186.2590  174.5890  135.5800 O   0  0  0  0  0  0  0  0  0  0  0  0
  183.7350  172.9820  136.9130 C   0  0  0  0  0  2  0  0  0  0  0  0
  185.5740  173.4310  135.1560 C   0  0  1  0  0  3  0  0  0  0  0  0
  184.3850  176.8090  136.7360 O   0  0  0  0  0  0  0  0  0  0  0  0
  184.4470  175.5680  134.3460 O   0  0  0  0  0  0  0  0  0  0  0  0
  184.0980  173.9050  137.9080 O   0  0  0  0  0  0  0  0  0  0  0  0
  185.7210  175.7540  134.9590 C   0  0  1  0  0  3  0  0  0  0  0  0
  187.2130  172.2880  136.6680 C   0  0  0  0  0  2  0  0  0  0  0  0
  186.2420  172.1150  135.5890 C   0  0  2  0  0  3  0  0  0  0  0  0
  187.6790  172.1520  135.2780 N   0  0  0  0  0  2  0  0  0  0  0  0
  1  4  1  0  0  0  0
  2  6  1  0  0  0  0
  3  2  2  0  0  0  0
  3  5  1  0  0  0  0
  5  1  2  0  0  0  0
  6  4  2  0  0  0  0
  7  5  1  0  0  0  0
  8  7  2  0  0  0  0
  9  8  1  0  0  0  0
  9 19  1  0  0  0  0
 10 15  1  0  0  0  0
 11 13  1  0  0  0  0
 13 12  1  0  0  0  0
 14 11  1  0  0  0  0
 14 10  1  0  0  0  0
 15 12  1  0  0  0  0
 15  9  1  0  0  0  0
 16 11  1  0  0  0  0
 17 16  1  0  0  0  0
 18 16  1  0  0  0  0
 19 20  1  0  0  0  0
 22 21  1  0  0  0  0
 23 20  1  6  0  0  0
 23 26  1  0  0  0  0
 24 23  1  0  0  0  0
 24 25  2  0  0  0  0
 25 22  1  0  0  0  0
 26 27  1  1  0  0  0
 26 21  1  0  0  0  0
 28 27  1  0  0  0  0
 29 28  2  0  0  0  0
 30 28  1  0  0  0  0
 30 31  1  0  0  0  0
 31 33  1  0  0  0  0
 33 32  2  0  0  0  0
 34  2  1  0  0  0  0
 35 34  1  0  0  0  0
 36 35  1  0  0  0  0
 37 36  1  0  0  0  0
 38 37  1  0  0  0  0
 39 45  2  0  0  0  0
 39 49  1  0  0  0  0
 41 40  1  6  0  0  0
 41 43  1  0  0  0  0
 41 44  1  0  0  0  0
 42 51  1  0  0  0  0
 42 38  1  6  0  0  0
 43 47  1  1  0  0  0
 44 49  1  1  0  0  0
 44 42  1  0  0  0  0
 47 51  1  0  0  0  0
 48 43  1  0  0  0  0
 48 46  1  1  0  0  0
 48 54  1  0  0  0  0
 50 41  1  0  0  0  0
 52 50  1  1  0  0  0
 52 46  1  0  0  0  0
 52 39  1  0  0  0  0
 54 53  1  1  0  0  0
 55 54  1  0  0  0  0
 55 53  1  0  0  0  0
M  END
>  <MODEL>
5

>  <REMARK>
 VINA RESULT:      -6.6      1.960      3.875
  Name = 
  19 active torsions:
  status: ('A' for Active; 'I' for Inactive)
    1  A    between atoms: C_2  and  C_44
    2  A    between atoms: C_4  and  N_37
    3  A    between atoms: C_4  and  C_40
    4  A    between atoms: C_5  and  C_40
    5  A    between atoms: C_5  and  O_45
    6  A    between atoms: C_7  and  C_22
    7  A    between atoms: N_8  and  C_22
    8  A    between atoms: N_8  and  C_43
    9  A    between atoms: C_10  and  N_32
   10  A    between atoms: C_12  and  C_38
   11  A    between atoms: C_16  and  C_36
   12  A    between atoms: C_26  and  O_45
   13  A    between atoms: C_27  and  C_54
   14  A    between atoms: C_28  and  N_49
   15  A    between atoms: C_33  and  C_36
   16  A    between atoms: C_33  and  N_49
   17  A    between atoms: C_43  and  C_51
   18  A    between atoms: N_49  and  C_52
   19  A    between atoms: C_51  and  C_54
                            x       y       z     vdW  Elec       q    Type
                         _______ _______ _______ _____ _____    ______ ____

>  <TORSDO>
F 19

$$$$
=
 OpenBabel10272401233D

 55 61  0  0  1  0  0  0  0  0999 V2000
  189.9490  178.0050  142.6190 C   0  0  0  0  0  3  0  0  0  0  0  0
  191.6490  177.2840  140.5180 C   0  0  0  0  0  0  0  0  0  0  0  0
  190.2860  177.4860  140.2780 C   0  0  0  0  0  3  0  0  0  0  0  0
  191.3100  177.7980  142.8610 C   0  0  0  0  0  3  0  0  0  0  0  0
  189.4310  177.8480  141.3230 C   0  0  0  0  0  0  0  0  0  0  0  0
  192.1600  177.4350  141.8100 C   0  0  0  0  0  3  0  0  0  0  0  0
  188.0110  178.0530  141.0220 C   0  0  0  0  0  3  0  0  0  0  0  0
  187.5430  178.2750  139.7960 C   0  0  0  0  0  3  0  0  0  0  0  0
  186.1440  178.4710  139.5400 N   0  0  0  0  0  0  0  0  0  0  0  0
  186.4210  177.0410  137.5200 C   0  0  0  0  0  2  0  0  0  0  0  0
  184.5360  177.3090  135.8720 N   0  0  0  0  0  0  0  0  0  0  0  0
  184.1450  177.9450  138.2130 C   0  0  0  0  0  2  0  0  0  0  0  0
  183.6820  177.0780  137.0450 C   0  0  0  0  0  2  0  0  0  0  0  0
  185.8390  176.6770  136.1420 C   0  0  0  0  0  2  0  0  0  0  0  0
  185.6580  178.1910  138.1920 C   0  0  0  0  0  3  0  0  0  0  0  0
  183.9220  176.6460  134.7060 C   0  0  0  0  0  3  0  0  0  0  0  0
  182.4020  176.6520  134.8070 C   0  0  0  0  0  1  0  0  0  0  0  0
  184.3570  175.1900  134.6080 C   0  0  0  0  0  1  0  0  0  0  0  0
  185.2820  179.1400  140.5220 C   0  0  0  0  0  2  0  0  0  0  0  0
  185.7160  178.7970  141.9430 C   0  0  0  0  0  2  0  0  0  0  0  0
  182.8610  179.2150  144.4800 C   0  0  0  0  0  2  0  0  0  0  0  0
  181.7850  179.3080  143.4130 C   0  0  0  0  0  2  0  0  0  0  0  0
  184.5330  178.4020  142.8130 C   0  0  2  0  0  3  0  0  0  0  0  0
  183.3560  178.0660  141.9330 C   0  0  0  0  0  3  0  0  0  0  0  0
  182.1030  178.4370  142.2290 C   0  0  0  0  0  3  0  0  0  0  0  0
  184.2110  179.4970  143.8370 C   0  0  2  0  0  3  0  0  0  0  0  0
  185.2230  179.5520  144.8330 O   0  0  0  0  0  0  0  0  0  0  0  0
  185.4390  178.5170  145.7440 C   0  0  0  0  0  0  0  0  0  0  0  0
  184.7500  178.4730  146.7950 O   0  0  0  0  0  0  0  0  0  0  0  0
  186.4320  177.4300  145.4800 C   0  0  0  0  0  2  0  0  0  0  0  0
  187.8280  177.8440  145.9170 C   0  0  0  0  0  2  0  0  0  0  0  0
  189.1520  177.6260  147.8470 C   0  0  0  0  0  2  0  0  0  0  0  0
  187.9810  177.6430  147.3310 N   0  0  0  0  0  0  0  0  0  0  0  0
  192.5420  176.8950  139.3930 C   0  0  0  0  0  2  0  0  0  0  0  0
  191.7300  176.6350  138.1360 C   0  0  0  0  0  2  0  0  0  0  0  0
  192.0550  175.2570  137.5830 C   0  0  0  0  0  2  0  0  0  0  0  0
  192.4920  175.3610  136.2000 N   0  0  0  0  0  2  0  0  0  0  0  0
  193.2270  174.1500  135.8780 C   0  0  0  0  0  2  0  0  0  0  0  0
  196.7240  174.8610  139.1970 C   0  0  0  0  0  0  0  0  0  0  0  0
  196.2970  175.8730  135.2030 C   0  0  0  0  0  1  0  0  0  0  0  0
  196.5110  174.9380  136.3780 C   0  0  2  0  0  0  0  0  0  0  0  0
  194.2270  173.8390  136.9910 C   0  0  2  0  0  3  0  0  0  0  0  0
  196.8560  173.5480  135.8040 C   0  0  2  0  0  3  0  0  0  0  0  0
  195.2110  174.9820  137.2560 C   0  0  1  0  0  3  0  0  0  0  0  0
  196.9060  174.8580  140.4410 O   0  0  0  0  0  0  0  0  0  0  0  0
  197.8530  173.1850  137.9910 O   0  0  0  0  0  0  0  0  0  0  0  0
  195.6330  172.6440  135.6440 C   0  0  0  0  0  2  0  0  0  0  0  0
  198.0100  172.9350  136.6120 C   0  0  1  0  0  3  0  0  0  0  0  0
  195.4590  175.0830  138.6640 O   0  0  0  0  0  0  0  0  0  0  0  0
  197.6340  175.4070  137.1070 O   0  0  0  0  0  0  0  0  0  0  0  0
  194.8770  172.5980  136.8270 O   0  0  0  0  0  0  0  0  0  0  0  0
  197.8350  174.5860  138.2560 C   0  0  1  0  0  3  0  0  0  0  0  0
  198.0890  170.5610  137.4050 C   0  0  0  0  0  2  0  0  0  0  0  0
  198.2790  171.4610  136.2690 C   0  0  2  0  0  3  0  0  0  0  0  0
  199.4480  170.9740  137.0170 N   0  0  0  0  0  2  0  0  0  0  0  0
  1  4  1  0  0  0  0
  2  6  1  0  0  0  0
  3  2  2  0  0  0  0
  3  5  1  0  0  0  0
  5  1  2  0  0  0  0
  6  4  2  0  0  0  0
  7  5  1  0  0  0  0
  8  7  2  0  0  0  0
  9  8  1  0  0  0  0
  9 19  1  0  0  0  0
 10 15  1  0  0  0  0
 11 14  1  0  0  0  0
 11 13  1  0  0  0  0
 13 12  1  0  0  0  0
 14 10  1  0  0  0  0
 15 12  1  0  0  0  0
 15  9  1  0  0  0  0
 16 17  1  0  0  0  0
 16 11  1  0  0  0  0
 18 16  1  0  0  0  0
 19 20  1  0  0  0  0
 22 21  1  0  0  0  0
 23 20  1  6  0  0  0
 23 26  1  0  0  0  0
 24 25  2  0  0  0  0
 24 23  1  0  0  0  0
 25 22  1  0  0  0  0
 26 21  1  0  0  0  0
 26 27  1  1  0  0  0
 27 28  1  0  0  0  0
 28 29  2  0  0  0  0
 30 28  1  0  0  0  0
 30 31  1  0  0  0  0
 31 33  1  0  0  0  0
 33 32  2  0  0  0  0
 34  2  1  0  0  0  0
 35 34  1  0  0  0  0
 36 35  1  0  0  0  0
 37 36  1  0  0  0  0
 38 37  1  0  0  0  0
 39 45  2  0  0  0  0
 41 40  1  6  0  0  0
 41 50  1  0  0  0  0
 41 44  1  0  0  0  0
 42 38  1  6  0  0  0
 42 44  1  0  0  0  0
 43 47  1  1  0  0  0
 43 41  1  0  0  0  0
 43 48  1  0  0  0  0
 44 49  1  1  0  0  0
 46 52  1  0  0  0  0
 47 51  1  0  0  0  0
 48 46  1  1  0  0  0
 49 39  1  0  0  0  0
 51 42  1  0  0  0  0
 52 50  1  6  0  0  0
 52 39  1  0  0  0  0
 54 48  1  0  0  0  0
 54 55  1  0  0  0  0
 54 53  1  1  0  0  0
 55 53  1  0  0  0  0
M  END
>  <MODEL>
6

>  <REMARK>
 VINA RESULT:      -6.4      4.613      9.541
  Name = 
  19 active torsions:
  status: ('A' for Active; 'I' for Inactive)
    1  A    between atoms: C_2  and  C_44
    2  A    between atoms: C_4  and  N_37
    3  A    between atoms: C_4  and  C_40
    4  A    between atoms: C_5  and  C_40
    5  A    between atoms: C_5  and  O_45
    6  A    between atoms: C_7  and  C_22
    7  A    between atoms: N_8  and  C_22
    8  A    between atoms: N_8  and  C_43
    9  A    between atoms: C_10  and  N_32
   10  A    between atoms: C_12  and  C_38
   11  A    between atoms: C_16  and  C_36
   12  A    between atoms: C_26  and  O_45
   13  A    between atoms: C_27  and  C_54
   14  A    between atoms: C_28  and  N_49
   15  A    between atoms: C_33  and  C_36
   16  A    between atoms: C_33  and  N_49
   17  A    between atoms: C_43  and  C_51
   18  A    between atoms: N_49  and  C_52
   19  A    between atoms: C_51  and  C_54
                            x       y       z     vdW  Elec       q    Type
                         _______ _______ _______ _____ _____    ______ ____

>  <TORSDO>
F 19

$$$$
=
 OpenBabel10272401233D

 55 61  0  0  1  0  0  0  0  0999 V2000
  189.6120  177.5070  139.1170 C   0  0  0  0  0  3  0  0  0  0  0  0
  189.7920  176.1920  136.6540 C   0  0  0  0  0  0  0  0  0  0  0  0
  188.5860  176.7800  137.0470 C   0  0  0  0  0  3  0  0  0  0  0  0
  190.8170  176.9140  138.7270 C   0  0  0  0  0  3  0  0  0  0  0  0
  188.4890  177.4410  138.2760 C   0  0  0  0  0  0  0  0  0  0  0  0
  190.9060  176.2540  137.4960 C   0  0  0  0  0  3  0  0  0  0  0  0
  187.2050  178.0460  138.6420 C   0  0  0  0  0  3  0  0  0  0  0  0
  186.6070  177.8530  139.8150 C   0  0  0  0  0  3  0  0  0  0  0  0
  185.3480  178.4640  140.1360 N   0  0  0  0  0  0  0  0  0  0  0  0
  184.0650  177.2460  138.3840 C   0  0  0  0  0  2  0  0  0  0  0  0
  182.2310  178.6450  137.3720 N   0  0  0  0  0  0  0  0  0  0  0  0
  183.0930  179.2680  139.5870 C   0  0  0  0  0  2  0  0  0  0  0  0
  181.8590  178.8940  138.7700 C   0  0  0  0  0  2  0  0  0  0  0  0
  182.9520  177.3600  137.3270 C   0  0  0  0  0  2  0  0  0  0  0  0
  184.3650  178.5880  139.0640 C   0  0  0  0  0  3  0  0  0  0  0  0
  180.9990  178.5240  136.5710 C   0  0  0  0  0  3  0  0  0  0  0  0
  180.3320  179.8800  136.3790 C   0  0  0  0  0  1  0  0  0  0  0  0
  179.9820  177.6210  137.2570 C   0  0  0  0  0  1  0  0  0  0  0  0
  185.1420  179.1390  141.4230 C   0  0  0  0  0  2  0  0  0  0  0  0
  186.2670  178.8010  142.3960 C   0  0  0  0  0  2  0  0  0  0  0  0
  186.2130  177.4130  145.9790 C   0  0  0  0  0  2  0  0  0  0  0  0
  185.2290  178.4550  146.4800 C   0  0  0  0  0  2  0  0  0  0  0  0
  185.7540  178.0300  143.6030 C   0  0  2  0  0  3  0  0  0  0  0  0
  184.4930  178.6820  144.1120 C   0  0  0  0  0  3  0  0  0  0  0  0
  184.2330  178.8310  145.4180 C   0  0  0  0  0  3  0  0  0  0  0  0
  186.8350  177.9140  144.6830 C   0  0  2  0  0  3  0  0  0  0  0  0
  187.8610  177.0260  144.2600 O   0  0  0  0  0  0  0  0  0  0  0  0
  189.1720  177.4460  144.0310 C   0  0  0  0  0  0  0  0  0  0  0  0
  189.6860  177.2610  142.8980 O   0  0  0  0  0  0  0  0  0  0  0  0
  189.9660  178.1570  145.0810 C   0  0  0  0  0  2  0  0  0  0  0  0
  190.1760  177.2750  146.3010 C   0  0  0  0  0  2  0  0  0  0  0  0
  191.8650  175.8960  147.1790 C   0  0  0  0  0  2  0  0  0  0  0  0
  191.5330  176.8050  146.3420 N   0  0  0  0  0  0  0  0  0  0  0  0
  189.8730  175.4900  135.3450 C   0  0  0  0  0  2  0  0  0  0  0  0
  191.3190  175.1750  135.0020 C   0  0  0  0  0  2  0  0  0  0  0  0
  191.4980  173.6740  134.8390 C   0  0  0  0  0  2  0  0  0  0  0  0
  191.9310  173.0810  136.0940 N   0  0  0  0  0  2  0  0  0  0  0  0
  193.3380  172.7470  135.9630 C   0  0  0  0  0  2  0  0  0  0  0  0
  196.4570  176.3330  134.8870 C   0  0  0  0  0  0  0  0  0  0  0  0
  196.5390  172.2160  134.4410 C   0  0  0  0  0  1  0  0  0  0  0  0
  196.5740  173.5250  135.2060 C   0  0  2  0  0  0  0  0  0  0  0  0
  194.1880  174.0040  136.1410 C   0  0  2  0  0  3  0  0  0  0  0  0
  196.9210  173.1940  136.6720 C   0  0  2  0  0  3  0  0  0  0  0  0
  195.1850  174.2260  135.0000 C   0  0  1  0  0  3  0  0  0  0  0  0
  196.4940  177.5780  134.7190 O   0  0  0  0  0  0  0  0  0  0  0  0
  197.6410  175.5140  136.7490 O   0  0  0  0  0  0  0  0  0  0  0  0
  195.6850  173.0140  137.5550 C   0  0  0  0  0  2  0  0  0  0  0  0
  197.9440  174.2110  137.1960 C   0  0  1  0  0  3  0  0  0  0  0  0
  195.2740  175.6260  134.7080 O   0  0  0  0  0  0  0  0  0  0  0  0
  197.6250  174.3130  134.6690 O   0  0  0  0  0  0  0  0  0  0  0  0
  194.7960  174.0920  137.4110 O   0  0  0  0  0  0  0  0  0  0  0  0
  197.6560  175.5790  135.3250 C   0  0  1  0  0  3  0  0  0  0  0  0
  197.1930  174.8350  139.5030 C   0  0  0  0  0  2  0  0  0  0  0  0
  198.1850  174.1100  138.7120 C   0  0  2  0  0  3  0  0  0  0  0  0
  198.5160  175.4340  139.2600 N   0  0  0  0  0  2  0  0  0  0  0  0
  2  3  2  0  0  0  0
  2  6  1  0  0  0  0
  3  5  1  0  0  0  0
  4  1  1  0  0  0  0
  5  7  1  0  0  0  0
  5  1  2  0  0  0  0
  6  4  2  0  0  0  0
  7  8  2  0  0  0  0
  8  9  1  0  0  0  0
  9 19  1  0  0  0  0
 10 15  1  0  0  0  0
 11 13  1  0  0  0  0
 13 12  1  0  0  0  0
 14 11  1  0  0  0  0
 14 10  1  0  0  0  0
 15 12  1  0  0  0  0
 15  9  1  0  0  0  0
 16 18  1  0  0  0  0
 16 11  1  0  0  0  0
 17 16  1  0  0  0  0
 19 20  1  0  0  0  0
 21 22  1  0  0  0  0
 23 20  1  6  0  0  0
 23 24  1  0  0  0  0
 23 26  1  0  0  0  0
 24 25  2  0  0  0  0
 25 22  1  0  0  0  0
 26 27  1  6  0  0  0
 26 21  1  0  0  0  0
 28 27  1  0  0  0  0
 28 30  1  0  0  0  0
 29 28  2  0  0  0  0
 30 31  1  0  0  0  0
 31 33  1  0  0  0  0
 33 32  2  0  0  0  0
 34  2  1  0  0  0  0
 35 34  1  0  0  0  0
 36 35  1  0  0  0  0
 36 37  1  0  0  0  0
 38 37  1  0  0  0  0
 39 52  1  0  0  0  0
 41 40  1  6  0  0  0
 41 43  1  0  0  0  0
 42 38  1  6  0  0  0
 42 51  1  0  0  0  0
 43 48  1  0  0  0  0
 43 47  1  1  0  0  0
 44 49  1  1  0  0  0
 44 41  1  0  0  0  0
 44 42  1  0  0  0  0
 45 39  2  0  0  0  0
 48 46  1  1  0  0  0
 48 54  1  0  0  0  0
 49 39  1  0  0  0  0
 50 41  1  0  0  0  0
 51 47  1  0  0  0  0
 52 50  1  6  0  0  0
 52 46  1  0  0  0  0
 54 55  1  0  0  0  0
 54 53  1  1  0  0  0
 55 53  1  0  0  0  0
M  END
>  <MODEL>
7

>  <REMARK>
 VINA RESULT:      -6.2      4.492      9.620
  Name = 
  19 active torsions:
  status: ('A' for Active; 'I' for Inactive)
    1  A    between atoms: C_2  and  C_44
    2  A    between atoms: C_4  and  N_37
    3  A    between atoms: C_4  and  C_40
    4  A    between atoms: C_5  and  C_40
    5  A    between atoms: C_5  and  O_45
    6  A    between atoms: C_7  and  C_22
    7  A    between atoms: N_8  and  C_22
    8  A    between atoms: N_8  and  C_43
    9  A    between atoms: C_10  and  N_32
   10  A    between atoms: C_12  and  C_38
   11  A    between atoms: C_16  and  C_36
   12  A    between atoms: C_26  and  O_45
   13  A    between atoms: C_27  and  C_54
   14  A    between atoms: C_28  and  N_49
   15  A    between atoms: C_33  and  C_36
   16  A    between atoms: C_33  and  N_49
   17  A    between atoms: C_43  and  C_51
   18  A    between atoms: N_49  and  C_52
   19  A    between atoms: C_51  and  C_54
                            x       y       z     vdW  Elec       q    Type
                         _______ _______ _______ _____ _____    ______ ____

>  <TORSDO>
F 19

$$$$
=
 OpenBabel10272401233D

 55 61  0  0  1  0  0  0  0  0999 V2000
  181.7590  178.8720  141.5310 C   0  0  0  0  0  3  0  0  0  0  0  0
  184.0590  178.7950  143.1220 C   0  0  0  0  0  0  0  0  0  0  0  0
  184.1500  178.5560  141.7480 C   0  0  0  0  0  3  0  0  0  0  0  0
  181.6660  179.1050  142.9070 C   0  0  0  0  0  3  0  0  0  0  0  0
  183.0050  178.5940  140.9460 C   0  0  0  0  0  0  0  0  0  0  0  0
  182.8160  179.0640  143.7030 C   0  0  0  0  0  3  0  0  0  0  0  0
  183.1520  178.3420  139.5090 C   0  0  0  0  0  3  0  0  0  0  0  0
  183.3290  177.1310  138.9890 C   0  0  0  0  0  3  0  0  0  0  0  0
  183.4690  176.9230  137.5750 N   0  0  0  0  0  0  0  0  0  0  0  0
  185.7690  175.9680  137.5290 C   0  0  0  0  0  2  0  0  0  0  0  0
  187.1780  176.9150  135.6700 N   0  0  0  0  0  0  0  0  0  0  0  0
  184.7330  177.0550  135.4730 C   0  0  0  0  0  2  0  0  0  0  0  0
  186.0270  176.5680  134.8260 C   0  0  0  0  0  2  0  0  0  0  0  0
  187.1470  176.0310  136.8480 C   0  0  0  0  0  2  0  0  0  0  0  0
  184.8080  177.0440  137.0050 C   0  0  0  0  0  3  0  0  0  0  0  0
  188.4150  176.6490  134.9110 C   0  0  0  0  0  3  0  0  0  0  0  0
  189.2320  175.5410  135.5610 C   0  0  0  0  0  1  0  0  0  0  0  0
  189.3040  177.8850  134.8560 C   0  0  0  0  0  1  0  0  0  0  0  0
  182.2920  176.8210  136.7050 C   0  0  0  0  0  2  0  0  0  0  0  0
  181.0680  177.4330  137.3800 C   0  0  0  0  0  2  0  0  0  0  0  0
  179.9870  173.9490  138.5910 C   0  0  0  0  0  2  0  0  0  0  0  0
  180.2860  174.2490  140.0490 C   0  0  0  0  0  2  0  0  0  0  0  0
  180.1720  176.3670  137.9920 C   0  0  2  0  0  3  0  0  0  0  0  0
  179.9920  176.6500  139.4620 C   0  0  0  0  0  3  0  0  0  0  0  0
  179.9960  175.6850  140.3910 C   0  0  0  0  0  3  0  0  0  0  0  0
  180.7240  174.9620  137.7260 C   0  0  2  0  0  3  0  0  0  0  0  0
  180.5770  174.6280  136.3530 O   0  0  0  0  0  0  0  0  0  0  0  0
  181.1990  173.5170  135.7780 C   0  0  0  0  0  0  0  0  0  0  0  0
  180.4880  172.5760  135.3410 O   0  0  0  0  0  0  0  0  0  0  0  0
  182.6840  173.4380  135.6240 C   0  0  0  0  0  2  0  0  0  0  0  0
  183.3340  172.8370  136.8600 C   0  0  0  0  0  2  0  0  0  0  0  0
  183.9090  170.9680  135.5540 C   0  0  0  0  0  2  0  0  0  0  0  0
  183.5130  171.4220  136.6830 N   0  0  0  0  0  0  0  0  0  0  0  0
  185.2880  178.7450  143.9590 C   0  0  0  0  0  2  0  0  0  0  0  0
  185.0110  178.0210  145.2650 C   0  0  0  0  0  2  0  0  0  0  0  0
  185.8590  178.6150  146.3790 C   0  0  0  0  0  2  0  0  0  0  0  0
  186.9170  177.6900  146.7530 N   0  0  0  0  0  2  0  0  0  0  0  0
  188.1600  178.1930  146.1960 C   0  0  0  0  0  2  0  0  0  0  0  0
  191.7920  175.5300  144.3340 C   0  0  0  0  0  0  0  0  0  0  0  0
  190.9650  179.5860  144.4550 C   0  0  0  0  0  1  0  0  0  0  0  0
  190.7790  178.1500  144.0070 C   0  0  2  0  0  0  0  0  0  0  0  0
  188.8670  177.0810  145.4200 C   0  0  2  0  0  3  0  0  0  0  0  0
  189.7350  178.1530  142.8710 C   0  0  2  0  0  3  0  0  0  0  0  0
  190.3730  177.3130  145.2710 C   0  0  1  0  0  3  0  0  0  0  0  0
  192.3120  174.3880  144.4220 O   0  0  0  0  0  0  0  0  0  0  0  0
  190.7630  176.0320  142.2780 O   0  0  0  0  0  0  0  0  0  0  0  0
  188.3090  177.9090  143.3650 C   0  0  0  0  0  2  0  0  0  0  0  0
  190.1990  177.2120  141.7500 C   0  0  1  0  0  3  0  0  0  0  0  0
  191.0640  176.0630  145.3910 O   0  0  0  0  0  0  0  0  0  0  0  0
  192.0130  177.6980  143.4720 O   0  0  0  0  0  0  0  0  0  0  0  0
  188.2450  176.7750  144.1920 O   0  0  0  0  0  0  0  0  0  0  0  0
  191.8960  176.3290  143.0900 C   0  0  1  0  0  3  0  0  0  0  0  0
  189.6770  176.8510  139.3260 C   0  0  0  0  0  2  0  0  0  0  0  0
  189.1260  176.9670  140.6750 C   0  0  2  0  0  3  0  0  0  0  0  0
  189.0580  178.1150  139.7580 N   0  0  0  0  0  2  0  0  0  0  0  0
  1  4  1  0  0  0  0
  2  6  1  0  0  0  0
  2 34  1  0  0  0  0
  3  2  2  0  0  0  0
  4  6  2  0  0  0  0
  5  1  2  0  0  0  0
  5  3  1  0  0  0  0
  7  5  1  0  0  0  0
  8  7  2  0  0  0  0
  9  8  1  0  0  0  0
 11 14  1  0  0  0  0
 12 15  1  0  0  0  0
 13 12  1  0  0  0  0
 13 11  1  0  0  0  0
 14 10  1  0  0  0  0
 15 10  1  0  0  0  0
 15  9  1  0  0  0  0
 16 17  1  0  0  0  0
 16 11  1  0  0  0  0
 18 16  1  0  0  0  0
 19 20  1  0  0  0  0
 19  9  1  0  0  0  0
 21 22  1  0  0  0  0
 22 25  1  0  0  0  0
 23 20  1  1  0  0  0
 23 24  1  0  0  0  0
 24 25  2  0  0  0  0
 26 27  1  6  0  0  0
 26 23  1  0  0  0  0
 26 21  1  0  0  0  0
 28 27  1  0  0  0  0
 29 28  2  0  0  0  0
 30 28  1  0  0  0  0
 30 31  1  0  0  0  0
 32 33  2  0  0  0  0
 33 31  1  0  0  0  0
 34 35  1  0  0  0  0
 35 36  1  0  0  0  0
 36 37  1  0  0  0  0
 38 37  1  0  0  0  0
 39 45  2  0  0  0  0
 39 49  1  0  0  0  0
 41 40  1  1  0  0  0
 41 44  1  0  0  0  0
 42 38  1  6  0  0  0
 43 47  1  1  0  0  0
 43 41  1  0  0  0  0
 44 49  1  6  0  0  0
 44 42  1  0  0  0  0
 47 51  1  0  0  0  0
 48 46  1  1  0  0  0
 48 43  1  0  0  0  0
 50 41  1  0  0  0  0
 51 42  1  0  0  0  0
 52 46  1  6  0  0  0
 52 50  1  0  0  0  0
 52 39  1  0  0  0  0
 53 55  1  0  0  0  0
 54 53  1  6  0  0  0
 54 48  1  0  0  0  0
 55 54  1  0  0  0  0
M  END
>  <MODEL>
8

>  <REMARK>
 VINA RESULT:      -6.1      2.370      9.534
  Name = 
  19 active torsions:
  status: ('A' for Active; 'I' for Inactive)
    1  A    between atoms: C_2  and  C_44
    2  A    between atoms: C_4  and  N_37
    3  A    between atoms: C_4  and  C_40
    4  A    between atoms: C_5  and  C_40
    5  A    between atoms: C_5  and  O_45
    6  A    between atoms: C_7  and  C_22
    7  A    between atoms: N_8  and  C_22
    8  A    between atoms: N_8  and  C_43
    9  A    between atoms: C_10  and  N_32
   10  A    between atoms: C_12  and  C_38
   11  A    between atoms: C_16  and  C_36
   12  A    between atoms: C_26  and  O_45
   13  A    between atoms: C_27  and  C_54
   14  A    between atoms: C_28  and  N_49
   15  A    between atoms: C_33  and  C_36
   16  A    between atoms: C_33  and  N_49
   17  A    between atoms: C_43  and  C_51
   18  A    between atoms: N_49  and  C_52
   19  A    between atoms: C_51  and  C_54
                            x       y       z     vdW  Elec       q    Type
                         _______ _______ _______ _____ _____    ______ ____

>  <TORSDO>
F 19

$$$$
=
 OpenBabel10272401233D

 55 61  0  0  1  0  0  0  0  0999 V2000
  182.1560  178.7030  142.3560 C   0  0  0  0  0  3  0  0  0  0  0  0
  184.3480  178.6860  144.0930 C   0  0  0  0  0  0  0  0  0  0  0  0
  184.5460  178.5620  142.7150 C   0  0  0  0  0  3  0  0  0  0  0  0
  181.9560  178.8200  143.7350 C   0  0  0  0  0  3  0  0  0  0  0  0
  183.4550  178.5720  141.8400 C   0  0  0  0  0  0  0  0  0  0  0  0
  183.0520  178.8100  144.6040 C   0  0  0  0  0  3  0  0  0  0  0  0
  183.7140  178.4440  140.4020 C   0  0  0  0  0  3  0  0  0  0  0  0
  183.4250  177.3540  139.6960 C   0  0  0  0  0  3  0  0  0  0  0  0
  183.6940  177.2670  138.2890 N   0  0  0  0  0  0  0  0  0  0  0  0
  184.9030  175.6710  136.8080 C   0  0  0  0  0  2  0  0  0  0  0  0
  187.3850  176.0890  136.7470 N   0  0  0  0  0  0  0  0  0  0  0  0
  185.9050  177.9230  137.4430 C   0  0  0  0  0  2  0  0  0  0  0  0
  186.9900  177.4760  136.4670 C   0  0  0  0  0  2  0  0  0  0  0  0
  186.2840  175.2170  136.3040 C   0  0  0  0  0  2  0  0  0  0  0  0
  185.0020  176.7630  137.8810 C   0  0  0  0  0  3  0  0  0  0  0  0
  188.5880  175.7740  135.9530 C   0  0  0  0  0  3  0  0  0  0  0  0
  189.5490  174.8920  136.7380 C   0  0  0  0  0  1  0  0  0  0  0  0
  189.3490  177.0390  135.5800 C   0  0  0  0  0  1  0  0  0  0  0  0
  182.7850  177.8700  137.3070 C   0  0  0  0  0  2  0  0  0  0  0  0
  181.3520  177.8710  137.8280 C   0  0  0  0  0  2  0  0  0  0  0  0
  180.0410  175.7120  134.9310 C   0  0  0  0  0  2  0  0  0  0  0  0
  180.8080  174.4770  135.3670 C   0  0  0  0  0  2  0  0  0  0  0  0
  180.4930  176.8390  137.1140 C   0  0  2  0  0  3  0  0  0  0  0  0
  180.8120  175.4660  137.6520 C   0  0  0  0  0  3  0  0  0  0  0  0
  180.9080  174.3860  136.8650 C   0  0  0  0  0  3  0  0  0  0  0  0
  180.6670  176.9320  135.5940 C   0  0  2  0  0  3  0  0  0  0  0  0
  180.0600  178.1190  135.1010 O   0  0  0  0  0  0  0  0  0  0  0  0
  180.5590  179.3910  135.3830 C   0  0  0  0  0  0  0  0  0  0  0  0
  181.4890  179.8550  134.6740 O   0  0  0  0  0  0  0  0  0  0  0  0
  179.9860  180.2390  136.4740 C   0  0  0  0  0  2  0  0  0  0  0  0
  180.7480  181.5470  136.6120 C   0  0  0  0  0  2  0  0  0  0  0  0
  179.9820  182.2350  138.7250 C   0  0  0  0  0  2  0  0  0  0  0  0
  180.9630  181.8480  138.0000 N   0  0  0  0  0  0  0  0  0  0  0  0
  185.5210  178.6690  145.0080 C   0  0  0  0  0  2  0  0  0  0  0  0
  185.1440  178.0520  146.3430 C   0  0  0  0  0  2  0  0  0  0  0  0
  186.1810  178.4150  147.3940 C   0  0  0  0  0  2  0  0  0  0  0  0
  187.3960  177.6420  147.1900 N   0  0  0  0  0  2  0  0  0  0  0  0
  188.1120  178.2340  146.0740 C   0  0  0  0  0  2  0  0  0  0  0  0
  191.8030  175.6730  144.1860 C   0  0  0  0  0  0  0  0  0  0  0  0
  190.8740  179.7060  144.3270 C   0  0  0  0  0  1  0  0  0  0  0  0
  190.7220  178.2670  143.8740 C   0  0  2  0  0  0  0  0  0  0  0  0
  188.8440  177.1440  145.2910 C   0  0  2  0  0  3  0  0  0  0  0  0
  189.6740  178.2490  142.7420 C   0  0  2  0  0  3  0  0  0  0  0  0
  190.3430  177.4150  145.1360 C   0  0  1  0  0  3  0  0  0  0  0  0
  192.3520  174.5440  144.2670 O   0  0  0  0  0  0  0  0  0  0  0  0
  190.7530  176.1570  142.1360 O   0  0  0  0  0  0  0  0  0  0  0  0
  188.2560  177.9660  143.2420 C   0  0  0  0  0  2  0  0  0  0  0  0
  190.1560  177.3240  141.6150 C   0  0  1  0  0  3  0  0  0  0  0  0
  191.0660  176.1830  145.2480 O   0  0  0  0  0  0  0  0  0  0  0  0
  191.9650  177.8490  143.3320 O   0  0  0  0  0  0  0  0  0  0  0  0
  188.2250  176.8270  144.0640 O   0  0  0  0  0  0  0  0  0  0  0  0
  191.8810  176.4800  142.9450 C   0  0  1  0  0  3  0  0  0  0  0  0
  189.4740  177.5150  139.2120 C   0  0  0  0  0  2  0  0  0  0  0  0
  189.0850  177.0560  140.5450 C   0  0  2  0  0  3  0  0  0  0  0  0
  188.5570  178.3280  140.0290 N   0  0  0  0  0  2  0  0  0  0  0  0
  1  4  1  0  0  0  0
  2  6  1  0  0  0  0
  2 34  1  0  0  0  0
  3  2  2  0  0  0  0
  4  6  2  0  0  0  0
  5  1  2  0  0  0  0
  5  3  1  0  0  0  0
  7  5  1  0  0  0  0
  8  7  2  0  0  0  0
  9  8  1  0  0  0  0
 10 15  1  0  0  0  0
 12 15  1  0  0  0  0
 13 11  1  0  0  0  0
 13 12  1  0  0  0  0
 14 11  1  0  0  0  0
 14 10  1  0  0  0  0
 15  9  1  0  0  0  0
 16 17  1  0  0  0  0
 16 11  1  0  0  0  0
 18 16  1  0  0  0  0
 19 20  1  0  0  0  0
 19  9  1  0  0  0  0
 21 22  1  0  0  0  0
 21 26  1  0  0  0  0
 22 25  1  0  0  0  0
 23 24  1  0  0  0  0
 23 20  1  1  0  0  0
 25 24  2  0  0  0  0
 26 27  1  6  0  0  0
 26 23  1  0  0  0  0
 27 28  1  0  0  0  0
 28 30  1  0  0  0  0
 29 28  2  0  0  0  0
 30 31  1  0  0  0  0
 31 33  1  0  0  0  0
 33 32  2  0  0  0  0
 34 35  1  0  0  0  0
 35 36  1  0  0  0  0
 37 36  1  0  0  0  0
 38 37  1  0  0  0  0
 39 45  2  0  0  0  0
 39 49  1  0  0  0  0
 41 40  1  1  0  0  0
 41 44  1  0  0  0  0
 42 38  1  6  0  0  0
 43 47  1  1  0  0  0
 43 41  1  0  0  0  0
 44 49  1  6  0  0  0
 44 42  1  0  0  0  0
 47 51  1  0  0  0  0
 48 46  1  1  0  0  0
 48 43  1  0  0  0  0
 50 41  1  0  0  0  0
 51 42  1  0  0  0  0
 52 46  1  6  0  0  0
 52 50  1  0  0  0  0
 52 39  1  0  0  0  0
 53 55  1  0  0  0  0
 54 53  1  6  0  0  0
 54 48  1  0  0  0  0
 55 54  1  0  0  0  0
M  END
>  <MODEL>
9

>  <REMARK>
 VINA RESULT:      -6.1      2.600      9.568
  Name = 
  19 active torsions:
  status: ('A' for Active; 'I' for Inactive)
    1  A    between atoms: C_2  and  C_44
    2  A    between atoms: C_4  and  N_37
    3  A    between atoms: C_4  and  C_40
    4  A    between atoms: C_5  and  C_40
    5  A    between atoms: C_5  and  O_45
    6  A    between atoms: C_7  and  C_22
    7  A    between atoms: N_8  and  C_22
    8  A    between atoms: N_8  and  C_43
    9  A    between atoms: C_10  and  N_32
   10  A    between atoms: C_12  and  C_38
   11  A    between atoms: C_16  and  C_36
   12  A    between atoms: C_26  and  O_45
   13  A    between atoms: C_27  and  C_54
   14  A    between atoms: C_28  and  N_49
   15  A    between atoms: C_33  and  C_36
   16  A    between atoms: C_33  and  N_49
   17  A    between atoms: C_43  and  C_51
   18  A    between atoms: N_49  and  C_52
   19  A    between atoms: C_51  and  C_54
                            x       y       z     vdW  Elec       q    Type
                         _______ _______ _______ _____ _____    ______ ____

>  <TORSDO>
F 19

$$$$
