=
 OpenBabel10272414003D

 30 34  0  0  1  0  0  0  0  0999 V2000
  191.6900  176.3790  137.3900 C   0  0  1  0  0  3  0  0  0  0  0  0
  194.9680  176.1190  135.5670 C   0  0  0  0  0  2  0  0  0  0  0  0
  192.8180  171.8430  135.4290 C   0  0  0  0  0  1  0  0  0  0  0  0
  190.3170  176.4100  136.6400 C   0  0  2  0  0  3  0  0  0  0  0  0
  191.5730  175.9190  138.8460 C   0  0  0  0  0  2  0  0  0  0  0  0
  186.0410  177.5060  135.6990 C   0  0  0  0  0  2  0  0  0  0  0  0
  189.2540  177.0230  138.8910 C   0  0  2  0  0  3  0  0  0  0  0  0
  188.8350  175.4030  134.7800 C   0  0  0  0  0  2  0  0  0  0  0  0
  189.9910  173.2180  136.4690 C   0  0  0  0  0  1  0  0  0  0  0  0
  190.5810  176.7830  139.6250 C   0  0  0  0  0  2  0  0  0  0  0  0
  189.1410  176.1760  137.6120 C   0  0  1  0  0  3  0  0  0  0  0  0
  195.2090  175.0550  134.6930 O   0  0  0  0  0  0  0  0  0  0  0  0
  187.7140  175.1970  135.8120 C   0  0  2  0  0  3  0  0  0  0  0  0
  186.1410  176.4210  134.6300 C   0  0  0  0  0  2  0  0  0  0  0  0
  193.4750  176.4010  135.6200 C   0  0  0  0  0  2  0  0  0  0  0  0
  192.2830  174.1640  136.2610 C   0  0  1  0  0  3  0  0  0  0  0  0
  195.7300  174.0110  135.4740 C   0  0  0  0  0  2  0  0  0  0  0  0
  192.7860  175.5650  136.7000 C   0  0  2  0  0  3  0  0  0  0  0  0
  191.0040  176.1400  134.3670 O   0  0  0  0  0  1  0  0  0  0  0  0
  190.8770  174.1240  135.6230 C   0  0  2  0  0  3  0  0  0  0  0  0
  190.2560  175.5180  135.3660 C   0  0  1  0  0  0  0  0  0  0  0  0
  186.4320  175.1620  135.2080 O   0  0  0  0  0  0  0  0  0  0  0  0
  187.3750  177.6040  136.4250 C   0  0  0  0  0  2  0  0  0  0  0  0
  193.3060  173.2780  135.5290 C   0  0  1  0  0  3  0  0  0  0  0  0
  194.6410  173.2780  136.2650 C   0  0  0  0  0  2  0  0  0  0  0  0
  187.7650  176.2210  136.9490 C   0  0  2  0  0  3  0  0  0  0  0  0
  189.1380  178.3850  138.5970 O   0  0  0  0  0  0  0  0  0  0  0  0
  188.6880  178.9470  139.7450 N   0  0  0  0  0  2  0  0  0  0  0  0
  187.4180  178.3150  140.0480 C   0  0  0  0  0  2  0  0  0  0  0  0
  187.0490  178.5920  141.4900 C   0  0  0  0  0  1  0  0  0  0  0  0
  1  5  1  1  0  0  0
  2 15  1  0  0  0  0
  3 24  1  0  0  0  0
  4  1  1  0  0  0  0
  4 11  1  0  0  0  0
  5 10  1  0  0  0  0
  6 23  1  0  0  0  0
  7 10  1  0  0  0  0
  8 21  1  0  0  0  0
  8 13  1  0  0  0  0
 11  7  1  0  0  0  0
 12 17  1  0  0  0  0
 12  2  1  0  0  0  0
 13 26  1  0  0  0  0
 14 22  1  0  0  0  0
 14  6  1  0  0  0  0
 15 18  1  0  0  0  0
 16 18  1  0  0  0  0
 17 25  1  0  0  0  0
 18  1  1  0  0  0  0
 19 21  1  0  0  0  0
 20 16  1  0  0  0  0
 20  9  1  0  0  0  0
 21 20  1  0  0  0  0
 21  4  1  0  0  0  0
 22 13  1  0  0  0  0
 23 26  1  0  0  0  0
 24 16  1  0  0  0  0
 24 25  1  0  0  0  0
 26 11  1  0  0  0  0
 27  7  1  0  0  0  0
 27 28  1  0  0  0  0
 28 29  1  0  0  0  0
 29 30  1  0  0  0  0
M  END
>  <MODEL>
1

>  <REMARK>
 VINA RESULT:      -5.2      0.000      0.000
  Name = 
  3 active torsions:
  status: ('A' for Active; 'I' for Inactive)
    1  A    between atoms: O_6  and  C_8
    2  A    between atoms: O_6  and  N_21
    3  A    between atoms: C_9  and  N_21
                            x       y       z     vdW  Elec       q    Type
                         _______ _______ _______ _____ _____    ______ ____

>  <TORSDO>
F 3

$$$$
=
 OpenBabel10272414003D

 30 34  0  0  1  0  0  0  0  0999 V2000
  190.0810  175.4380  135.3230 C   0  0  1  0  0  3  0  0  0  0  0  0
  190.9870  171.8730  134.5450 C   0  0  0  0  0  2  0  0  0  0  0  0
  194.7850  173.9970  136.5410 C   0  0  0  0  0  1  0  0  0  0  0  0
  189.8070  175.9310  136.7820 C   0  0  2  0  0  3  0  0  0  0  0  0
  190.4820  176.5670  134.3690 C   0  0  0  0  0  2  0  0  0  0  0  0
  187.9460  178.2480  140.1790 C   0  0  0  0  0  2  0  0  0  0  0  0
  188.9620  178.1160  135.7420 C   0  0  2  0  0  3  0  0  0  0  0  0
  190.5540  175.9200  139.2550 C   0  0  0  0  0  2  0  0  0  0  0  0
  192.8840  176.5400  137.4800 C   0  0  0  0  0  1  0  0  0  0  0  0
  189.4320  177.6770  134.3470 C   0  0  0  0  0  2  0  0  0  0  0  0
  189.7970  177.4720  136.8610 C   0  0  1  0  0  3  0  0  0  0  0  0
  192.0940  171.2750  135.1540 O   0  0  0  0  0  0  0  0  0  0  0  0
  190.5260  177.4570  139.2490 C   0  0  2  0  0  3  0  0  0  0  0  0
  189.0520  177.6260  141.0300 C   0  0  0  0  0  2  0  0  0  0  0  0
  190.4290  172.9520  135.4590 C   0  0  0  0  0  2  0  0  0  0  0  0
  192.3890  174.5890  136.0180 C   0  0  1  0  0  3  0  0  0  0  0  0
  193.2020  171.5770  134.3470 C   0  0  0  0  0  2  0  0  0  0  0  0
  191.0990  174.3030  135.2030 C   0  0  2  0  0  3  0  0  0  0  0  0
  190.2450  173.9520  138.0490 O   0  0  0  0  0  1  0  0  0  0  0  0
  192.1770  175.1920  137.4240 C   0  0  2  0  0  3  0  0  0  0  0  0
  190.6970  175.2600  137.8690 C   0  0  1  0  0  0  0  0  0  0  0  0
  190.3310  177.9920  140.5480 O   0  0  0  0  0  0  0  0  0  0  0  0
  188.0870  177.7470  138.7490 C   0  0  0  0  0  2  0  0  0  0  0  0
  193.4660  173.4900  135.9860 C   0  0  1  0  0  3  0  0  0  0  0  0
  193.7020  173.0100  134.5580 C   0  0  0  0  0  2  0  0  0  0  0  0
  189.5070  178.0240  138.2560 C   0  0  2  0  0  3  0  0  0  0  0  0
  187.6080  177.7960  135.8840 O   0  0  0  0  0  0  0  0  0  0  0  0
  187.0980  177.8970  134.6340 N   0  0  0  0  0  2  0  0  0  0  0  0
  185.8740  177.1170  134.6190 C   0  0  0  0  0  2  0  0  0  0  0  0
  185.9660  176.0170  135.6540 C   0  0  0  0  0  1  0  0  0  0  0  0
  1  5  1  6  0  0  0
  1  4  1  0  0  0  0
  2 12  1  0  0  0  0
  2 15  1  0  0  0  0
  4 11  1  0  0  0  0
  4 21  1  0  0  0  0
  6 14  1  0  0  0  0
  7 27  1  0  0  0  0
  7 11  1  0  0  0  0
 10  5  1  0  0  0  0
 10  7  1  0  0  0  0
 11 26  1  0  0  0  0
 13  8  1  0  0  0  0
 13 22  1  0  0  0  0
 16 20  1  0  0  0  0
 17 25  1  0  0  0  0
 17 12  1  0  0  0  0
 18  1  1  0  0  0  0
 18 15  1  0  0  0  0
 18 16  1  0  0  0  0
 20  9  1  0  0  0  0
 20 21  1  0  0  0  0
 21 19  1  0  0  0  0
 21  8  1  0  0  0  0
 22 14  1  0  0  0  0
 23  6  1  0  0  0  0
 24 16  1  0  0  0  0
 24  3  1  0  0  0  0
 25 24  1  0  0  0  0
 26 23  1  0  0  0  0
 26 13  1  0  0  0  0
 28 27  1  0  0  0  0
 29 28  1  0  0  0  0
 29 30  1  0  0  0  0
M  END
>  <MODEL>
2

>  <REMARK>
 VINA RESULT:      -4.9      2.046      4.259
  Name = 
  3 active torsions:
  status: ('A' for Active; 'I' for Inactive)
    1  A    between atoms: O_6  and  C_8
    2  A    between atoms: O_6  and  N_21
    3  A    between atoms: C_9  and  N_21
                            x       y       z     vdW  Elec       q    Type
                         _______ _______ _______ _____ _____    ______ ____

>  <TORSDO>
F 3

$$$$
=
 OpenBabel10272414003D

 30 34  0  0  1  0  0  0  0  0999 V2000
  193.0180  176.5340  137.1500 C   0  0  1  0  0  3  0  0  0  0  0  0
  196.0150  177.3090  135.0150 C   0  0  0  0  0  2  0  0  0  0  0  0
  196.0310  172.6240  136.0020 C   0  0  0  0  0  1  0  0  0  0  0  0
  191.7630  175.7880  136.5890 C   0  0  2  0  0  3  0  0  0  0  0  0
  193.1570  176.4250  138.6710 C   0  0  0  0  0  2  0  0  0  0  0  0
  187.4330  174.6600  135.9980 C   0  0  0  0  0  2  0  0  0  0  0  0
  190.5910  176.3860  138.7890 C   0  0  2  0  0  3  0  0  0  0  0  0
  190.8530  173.8320  135.1690 C   0  0  0  0  0  2  0  0  0  0  0  0
  192.9130  172.8320  137.0970 C   0  0  0  0  0  1  0  0  0  0  0  0
  191.9000  176.9270  139.3820 C   0  0  0  0  0  2  0  0  0  0  0  0
  190.8440  175.3020  137.7290 C   0  0  1  0  0  3  0  0  0  0  0  0
  196.6910  176.2840  134.3470 O   0  0  0  0  0  0  0  0  0  0  0  0
  189.9720  173.4080  136.3540 C   0  0  2  0  0  3  0  0  0  0  0  0
  187.9880  173.5100  135.1620 C   0  0  0  0  0  2  0  0  0  0  0  0
  194.5580  176.9160  135.2000 C   0  0  0  0  0  2  0  0  0  0  0  0
  194.5220  174.6030  136.4170 C   0  0  1  0  0  3  0  0  0  0  0  0
  197.6460  175.7850  135.2470 C   0  0  0  0  0  2  0  0  0  0  0  0
  194.3470  176.1430  136.5030 C   0  0  2  0  0  3  0  0  0  0  0  0
  192.4440  175.3210  134.3460 O   0  0  0  0  0  1  0  0  0  0  0  0
  193.2720  173.8070  135.9830 C   0  0  2  0  0  3  0  0  0  0  0  0
  192.0820  174.6880  135.5350 C   0  0  1  0  0  0  0  0  0  0  0  0
  188.8310  172.6780  135.9370 O   0  0  0  0  0  0  0  0  0  0  0  0
  188.5950  175.4960  136.5150 C   0  0  0  0  0  2  0  0  0  0  0  0
  195.8190  174.1070  135.7520 C   0  0  1  0  0  3  0  0  0  0  0  0
  197.0260  174.8590  136.2990 C   0  0  0  0  0  2  0  0  0  0  0  0
  189.5810  174.5860  137.2500 C   0  0  2  0  0  3  0  0  0  0  0  0
  189.8650  177.4510  138.2480 O   0  0  0  0  0  0  0  0  0  0  0  0
  189.8010  178.3660  139.2460 N   0  0  0  0  0  2  0  0  0  0  0  0
  188.4240  178.3860  139.7050 C   0  0  0  0  0  2  0  0  0  0  0  0
  188.3810  178.0570  141.1820 C   0  0  0  0  0  1  0  0  0  0  0  0
  1  5  1  1  0  0  0
  2 15  1  0  0  0  0
  4  1  1  0  0  0  0
  4 11  1  0  0  0  0
  5 10  1  0  0  0  0
  6 23  1  0  0  0  0
  7 10  1  0  0  0  0
  8 21  1  0  0  0  0
  8 13  1  0  0  0  0
 11  7  1  0  0  0  0
 12  2  1  0  0  0  0
 12 17  1  0  0  0  0
 13 26  1  0  0  0  0
 14 22  1  0  0  0  0
 14  6  1  0  0  0  0
 15 18  1  0  0  0  0
 16 18  1  0  0  0  0
 17 25  1  0  0  0  0
 18  1  1  0  0  0  0
 19 21  1  0  0  0  0
 20 16  1  0  0  0  0
 20  9  1  0  0  0  0
 21 20  1  0  0  0  0
 21  4  1  0  0  0  0
 22 13  1  0  0  0  0
 23 26  1  0  0  0  0
 24  3  1  0  0  0  0
 24 25  1  0  0  0  0
 24 16  1  0  0  0  0
 26 11  1  0  0  0  0
 27  7  1  0  0  0  0
 27 28  1  0  0  0  0
 28 29  1  0  0  0  0
 29 30  1  0  0  0  0
M  END
>  <MODEL>
3

>  <REMARK>
 VINA RESULT:      -4.8      1.604      2.273
  Name = 
  3 active torsions:
  status: ('A' for Active; 'I' for Inactive)
    1  A    between atoms: O_6  and  C_8
    2  A    between atoms: O_6  and  N_21
    3  A    between atoms: C_9  and  N_21
                            x       y       z     vdW  Elec       q    Type
                         _______ _______ _______ _____ _____    ______ ____

>  <TORSDO>
F 3

$$$$
=
 OpenBabel10272414003D

 30 34  0  0  1  0  0  0  0  0999 V2000
  192.7890  175.7870  137.2490 C   0  0  1  0  0  3  0  0  0  0  0  0
  190.4180  177.5680  139.5590 C   0  0  0  0  0  2  0  0  0  0  0  0
  188.3170  177.1300  135.2800 C   0  0  0  0  0  1  0  0  0  0  0  0
  192.5790  174.2960  136.8220 C   0  0  2  0  0  3  0  0  0  0  0  0
  193.6600  176.5790  136.2690 C   0  0  0  0  0  2  0  0  0  0  0  0
  193.5840  170.0470  135.6820 C   0  0  0  0  0  2  0  0  0  0  0  0
  194.9320  174.3950  135.8090 C   0  0  2  0  0  3  0  0  0  0  0  0
  190.9310  172.4830  136.0060 C   0  0  0  0  0  2  0  0  0  0  0  0
  190.6370  174.9590  134.3500 C   0  0  0  0  0  1  0  0  0  0  0  0
  195.0180  175.9070  136.0620 C   0  0  0  0  0  2  0  0  0  0  0  0
  193.4790  173.9230  135.6260 C   0  0  1  0  0  3  0  0  0  0  0  0
  189.0570  177.6540  139.2480 O   0  0  0  0  0  0  0  0  0  0  0  0
  191.8810  172.1750  134.8370 C   0  0  2  0  0  3  0  0  0  0  0  0
  192.0970  169.9260  135.3550 C   0  0  0  0  0  2  0  0  0  0  0  0
  191.0000  176.3100  138.9350 C   0  0  0  0  0  2  0  0  0  0  0  0
  190.4630  176.3890  136.3780 C   0  0  1  0  0  3  0  0  0  0  0  0
  188.9050  178.7980  138.4490 C   0  0  0  0  0  2  0  0  0  0  0  0
  191.5040  176.5720  137.5150 C   0  0  2  0  0  3  0  0  0  0  0  0
  190.5080  173.7770  137.8950 O   0  0  0  0  0  1  0  0  0  0  0  0
  190.3050  174.9510  135.8370 C   0  0  2  0  0  3  0  0  0  0  0  0
  191.0910  173.8820  136.6330 C   0  0  1  0  0  0  0  0  0  0  0  0
  191.7200  170.8520  134.3530 O   0  0  0  0  0  0  0  0  0  0  0  0
  193.8620  171.4530  136.1920 C   0  0  0  0  0  2  0  0  0  0  0  0
  189.1210  177.1170  136.5680 C   0  0  1  0  0  3  0  0  0  0  0  0
  189.3490  178.5610  137.0020 C   0  0  0  0  0  2  0  0  0  0  0  0
  193.3450  172.4690  135.1730 C   0  0  2  0  0  3  0  0  0  0  0  0
  195.5440  173.7220  136.8700 O   0  0  0  0  0  0  0  0  0  0  0  0
  196.2010  174.6890  137.5560 N   0  0  0  0  0  2  0  0  0  0  0  0
  196.1160  174.3340  138.9610 C   0  0  0  0  0  2  0  0  0  0  0  0
  197.2200  175.0340  139.7250 C   0  0  0  0  0  1  0  0  0  0  0  0
  1  5  1  6  0  0  0
  1 18  1  0  0  0  0
  3 24  1  0  0  0  0
  4  1  1  0  0  0  0
  6 23  1  0  0  0  0
  7 10  1  0  0  0  0
  7 27  1  0  0  0  0
  8 21  1  0  0  0  0
  9 20  1  0  0  0  0
 10  5  1  0  0  0  0
 11  7  1  0  0  0  0
 11  4  1  0  0  0  0
 12  2  1  0  0  0  0
 13 26  1  0  0  0  0
 13  8  1  0  0  0  0
 14  6  1  0  0  0  0
 15  2  1  0  0  0  0
 16 24  1  0  0  0  0
 16 18  1  0  0  0  0
 17 12  1  0  0  0  0
 18 15  1  0  0  0  0
 20 16  1  0  0  0  0
 20 21  1  0  0  0  0
 21  4  1  0  0  0  0
 21 19  1  0  0  0  0
 22 13  1  0  0  0  0
 22 14  1  0  0  0  0
 24 25  1  0  0  0  0
 25 17  1  0  0  0  0
 26 11  1  0  0  0  0
 26 23  1  0  0  0  0
 27 28  1  0  0  0  0
 28 29  1  0  0  0  0
 29 30  1  0  0  0  0
M  END
>  <MODEL>
4

>  <REMARK>
 VINA RESULT:      -4.8      2.579      6.529
  Name = 
  3 active torsions:
  status: ('A' for Active; 'I' for Inactive)
    1  A    between atoms: O_6  and  C_8
    2  A    between atoms: O_6  and  N_21
    3  A    between atoms: C_9  and  N_21
                            x       y       z     vdW  Elec       q    Type
                         _______ _______ _______ _____ _____    ______ ____

>  <TORSDO>
F 3

$$$$
=
 OpenBabel10272414003D

 30 34  0  0  1  0  0  0  0  0999 V2000
  194.0090  171.2600  136.2120 C   0  0  1  0  0  3  0  0  0  0  0  0
  196.2200  168.6580  137.7870 C   0  0  0  0  0  2  0  0  0  0  0  0
  198.9950  172.1630  136.0730 C   0  0  0  0  0  1  0  0  0  0  0  0
  193.7330  172.6430  136.8900 C   0  0  2  0  0  3  0  0  0  0  0  0
  193.7840  171.2730  134.6980 C   0  0  0  0  0  2  0  0  0  0  0  0
  191.5010  176.3540  138.1610 C   0  0  0  0  0  2  0  0  0  0  0  0
  191.9330  173.0080  135.1010 C   0  0  2  0  0  3  0  0  0  0  0  0
  194.7100  174.6870  138.1300 C   0  0  0  0  0  2  0  0  0  0  0  0
  196.3340  174.0950  135.6860 C   0  0  0  0  0  1  0  0  0  0  0  0
  192.3720  171.7430  134.3490 C   0  0  0  0  0  2  0  0  0  0  0  0
  193.0900  173.6350  135.8980 C   0  0  1  0  0  3  0  0  0  0  0  0
  197.5400  168.9640  138.1290 O   0  0  0  0  0  0  0  0  0  0  0  0
  194.0420  175.6080  137.0960 C   0  0  2  0  0  3  0  0  0  0  0  0
  192.8600  176.8320  138.6700 C   0  0  0  0  0  2  0  0  0  0  0  0
  195.3770  169.9220  137.8430 C   0  0  0  0  0  2  0  0  0  0  0  0
  196.5270  171.6930  136.3000 C   0  0  1  0  0  3  0  0  0  0  0  0
  198.3140  168.7160  136.9840 C   0  0  0  0  0  2  0  0  0  0  0  0
  195.3860  170.6590  136.5030 C   0  0  2  0  0  3  0  0  0  0  0  0
  195.1080  172.5060  138.8400 O   0  0  0  0  0  1  0  0  0  0  0  0
  196.2540  173.1110  136.8460 C   0  0  2  0  0  3  0  0  0  0  0  0
  194.9460  173.2370  137.6640 C   0  0  1  0  0  0  0  0  0  0  0  0
  193.8000  176.9050  137.6150 O   0  0  0  0  0  0  0  0  0  0  0  0
  191.6640  174.9650  137.5600 C   0  0  0  0  0  2  0  0  0  0  0  0
  197.9510  171.1920  136.5980 C   0  0  1  0  0  3  0  0  0  0  0  0
  198.1920  169.8350  135.9450 C   0  0  0  0  0  2  0  0  0  0  0  0
  192.7680  175.0010  136.5020 C   0  0  2  0  0  3  0  0  0  0  0  0
  190.8660  172.6870  135.9440 O   0  0  0  0  0  0  0  0  0  0  0  0
  189.9220  172.1700  135.1210 N   0  0  0  0  0  2  0  0  0  0  0  0
  188.6730  172.8310  135.4520 C   0  0  0  0  0  2  0  0  0  0  0  0
  188.6090  173.0690  136.9450 C   0  0  0  0  0  1  0  0  0  0  0  0
  1  5  1  6  0  0  0
  1 18  1  0  0  0  0
  1  4  1  0  0  0  0
  2 15  1  0  0  0  0
  2 12  1  0  0  0  0
  3 24  1  0  0  0  0
  4 21  1  0  0  0  0
  6 14  1  0  0  0  0
  7 11  1  0  0  0  0
  7 27  1  0  0  0  0
  9 20  1  0  0  0  0
 10  5  1  0  0  0  0
 10  7  1  0  0  0  0
 11 26  1  0  0  0  0
 11  4  1  0  0  0  0
 13 22  1  0  0  0  0
 13  8  1  0  0  0  0
 16 18  1  0  0  0  0
 16 24  1  0  0  0  0
 16 20  1  0  0  0  0
 17 12  1  0  0  0  0
 18 15  1  0  0  0  0
 20 21  1  0  0  0  0
 21  8  1  0  0  0  0
 21 19  1  0  0  0  0
 22 14  1  0  0  0  0
 23  6  1  0  0  0  0
 25 24  1  0  0  0  0
 25 17  1  0  0  0  0
 26 13  1  0  0  0  0
 26 23  1  0  0  0  0
 28 29  1  0  0  0  0
 28 27  1  0  0  0  0
 29 30  1  0  0  0  0
M  END
>  <MODEL>
5

>  <REMARK>
 VINA RESULT:      -4.8      3.412      6.449
  Name = 
  3 active torsions:
  status: ('A' for Active; 'I' for Inactive)
    1  A    between atoms: O_6  and  C_8
    2  A    between atoms: O_6  and  N_21
    3  A    between atoms: C_9  and  N_21
                            x       y       z     vdW  Elec       q    Type
                         _______ _______ _______ _____ _____    ______ ____

>  <TORSDO>
F 3

$$$$
=
 OpenBabel10272414003D

 30 34  0  0  1  0  0  0  0  0999 V2000
  185.3770  177.6390  138.0590 C   0  0  1  0  0  3  0  0  0  0  0  0
  182.6620  178.8590  140.3560 C   0  0  0  0  0  2  0  0  0  0  0  0
  180.8290  178.4000  135.9570 C   0  0  0  0  0  1  0  0  0  0  0  0
  185.4250  176.1680  137.5290 C   0  0  2  0  0  3  0  0  0  0  0  0
  186.1480  178.6250  137.1770 C   0  0  0  0  0  2  0  0  0  0  0  0
  187.1400  172.2200  136.1730 C   0  0  0  0  0  2  0  0  0  0  0  0
  187.7700  176.7060  136.6430 C   0  0  2  0  0  3  0  0  0  0  0  0
  184.1220  174.1810  136.5180 C   0  0  0  0  0  2  0  0  0  0  0  0
  183.5020  176.6910  135.0090 C   0  0  0  0  0  1  0  0  0  0  0  0
  187.6030  178.1910  136.9960 C   0  0  0  0  0  2  0  0  0  0  0  0
  186.4200  176.0260  136.3580 C   0  0  1  0  0  3  0  0  0  0  0  0
  181.3190  178.7520  139.9830 O   0  0  0  0  0  0  0  0  0  0  0  0
  185.1530  174.1090  135.3800 C   0  0  2  0  0  3  0  0  0  0  0  0
  185.7050  171.8910  135.7650 C   0  0  0  0  0  2  0  0  0  0  0  0
  183.4620  177.7550  139.6840 C   0  0  0  0  0  2  0  0  0  0  0  0
  183.0210  177.9290  137.1120 C   0  0  1  0  0  3  0  0  0  0  0  0
  181.0170  179.9120  139.2520 C   0  0  0  0  0  2  0  0  0  0  0  0
  183.9740  178.1920  138.3100 C   0  0  2  0  0  3  0  0  0  0  0  0
  183.4230  175.2560  138.4610 O   0  0  0  0  0  1  0  0  0  0  0  0
  183.1160  176.5260  136.4740 C   0  0  2  0  0  3  0  0  0  0  0  0
  184.0300  175.5400  137.2390 C   0  0  1  0  0  0  0  0  0  0  0  0
  185.2250  172.8150  134.8060 O   0  0  0  0  0  0  0  0  0  0  0  0
  187.1690  173.6130  136.7850 C   0  0  0  0  0  2  0  0  0  0  0  0
  181.5730  178.4230  137.2810 C   0  0  1  0  0  3  0  0  0  0  0  0
  181.5500  179.8500  137.8160 C   0  0  0  0  0  2  0  0  0  0  0  0
  186.5370  174.6050  135.8070 C   0  0  2  0  0  3  0  0  0  0  0  0
  188.4390  176.0640  137.6890 O   0  0  0  0  0  0  0  0  0  0  0  0
  189.6330  176.6990  137.7740 N   0  0  0  0  0  2  0  0  0  0  0  0
  190.1320  176.4700  139.1170 C   0  0  0  0  0  2  0  0  0  0  0  0
  189.3600  177.3290  140.0950 C   0  0  0  0  0  1  0  0  0  0  0  0
  1  5  1  6  0  0  0
  1 18  1  0  0  0  0
  3 24  1  0  0  0  0
  4  1  1  0  0  0  0
  6 23  1  0  0  0  0
  7 10  1  0  0  0  0
  7 27  1  0  0  0  0
  8 21  1  0  0  0  0
  9 20  1  0  0  0  0
 10  5  1  0  0  0  0
 11  7  1  0  0  0  0
 11  4  1  0  0  0  0
 12  2  1  0  0  0  0
 13 26  1  0  0  0  0
 13  8  1  0  0  0  0
 14  6  1  0  0  0  0
 15  2  1  0  0  0  0
 16 24  1  0  0  0  0
 16 18  1  0  0  0  0
 17 12  1  0  0  0  0
 18 15  1  0  0  0  0
 20 16  1  0  0  0  0
 20 21  1  0  0  0  0
 21  4  1  0  0  0  0
 21 19  1  0  0  0  0
 22 13  1  0  0  0  0
 22 14  1  0  0  0  0
 24 25  1  0  0  0  0
 25 17  1  0  0  0  0
 26 11  1  0  0  0  0
 26 23  1  0  0  0  0
 27 28  1  0  0  0  0
 28 29  1  0  0  0  0
 29 30  1  0  0  0  0
M  END
>  <MODEL>
6

>  <REMARK>
 VINA RESULT:      -4.7      3.760      8.351
  Name = 
  3 active torsions:
  status: ('A' for Active; 'I' for Inactive)
    1  A    between atoms: O_6  and  C_8
    2  A    between atoms: O_6  and  N_21
    3  A    between atoms: C_9  and  N_21
                            x       y       z     vdW  Elec       q    Type
                         _______ _______ _______ _____ _____    ______ ____

>  <TORSDO>
F 3

$$$$
=
 OpenBabel10272414003D

 30 34  0  0  1  0  0  0  0  0999 V2000
  191.6050  173.6710  136.6630 C   0  0  1  0  0  3  0  0  0  0  0  0
  195.0470  173.8400  138.1670 C   0  0  0  0  0  2  0  0  0  0  0  0
  194.8800  176.8340  134.4340 C   0  0  0  0  0  1  0  0  0  0  0  0
  190.5560  174.8170  136.8460 C   0  0  2  0  0  3  0  0  0  0  0  0
  191.3380  172.7970  135.4340 C   0  0  0  0  0  2  0  0  0  0  0  0
  186.5570  176.8340  137.4020 C   0  0  0  0  0  2  0  0  0  0  0  0
  188.8330  173.2220  135.8170 C   0  0  2  0  0  3  0  0  0  0  0  0
  190.0890  177.3570  136.8290 C   0  0  0  0  0  2  0  0  0  0  0  0
  191.5800  176.5690  134.3560 C   0  0  0  0  0  1  0  0  0  0  0  0
  189.9290  172.2040  135.4690 C   0  0  0  0  0  2  0  0  0  0  0  0
  189.3760  174.6600  135.8650 C   0  0  1  0  0  3  0  0  0  0  0  0
  195.8930  174.9150  137.8780 O   0  0  0  0  0  0  0  0  0  0  0  0
  188.9320  177.1170  135.8460 C   0  0  2  0  0  3  0  0  0  0  0  0
  187.3330  178.1310  137.1820 C   0  0  0  0  0  2  0  0  0  0  0  0
  193.6000  174.2930  138.0600 C   0  0  0  0  0  2  0  0  0  0  0  0
  193.2820  175.3320  135.6820 C   0  0  1  0  0  3  0  0  0  0  0  0
  196.5840  174.5720  136.7050 C   0  0  0  0  0  2  0  0  0  0  0  0
  193.0650  174.1270  136.6370 C   0  0  2  0  0  3  0  0  0  0  0  0
  191.8150  176.4270  138.0850 O   0  0  0  0  0  1  0  0  0  0  0  0
  192.2060  176.4370  135.7380 C   0  0  2  0  0  3  0  0  0  0  0  0
  191.1620  176.2510  136.8650 C   0  0  1  0  0  0  0  0  0  0  0  0
  187.9540  178.1420  135.9110 O   0  0  0  0  0  0  0  0  0  0  0  0
  187.5270  175.6630  137.3270 C   0  0  0  0  0  2  0  0  0  0  0  0
  194.7170  175.8860  135.6090 C   0  0  1  0  0  3  0  0  0  0  0  0
  195.7230  174.7520  135.4500 C   0  0  0  0  0  2  0  0  0  0  0  0
  188.2970  175.7330  136.0080 C   0  0  2  0  0  3  0  0  0  0  0  0
  188.2590  172.8670  137.0410 O   0  0  0  0  0  0  0  0  0  0  0  0
  187.4100  171.8540  136.7420 N   0  0  0  0  0  2  0  0  0  0  0  0
  186.1890  172.4640  136.2520 C   0  0  0  0  0  2  0  0  0  0  0  0
  185.2860  172.7930  137.4220 C   0  0  0  0  0  1  0  0  0  0  0  0
  1  5  1  6  0  0  0
  1  4  1  0  0  0  0
  3 24  1  0  0  0  0
  4 21  1  0  0  0  0
  5 10  1  0  0  0  0
  7 11  1  0  0  0  0
  7 27  1  0  0  0  0
  8 21  1  0  0  0  0
  9 20  1  0  0  0  0
 10  7  1  0  0  0  0
 11 26  1  0  0  0  0
 11  4  1  0  0  0  0
 12  2  1  0  0  0  0
 13 22  1  0  0  0  0
 13 26  1  0  0  0  0
 13  8  1  0  0  0  0
 14  6  1  0  0  0  0
 15  2  1  0  0  0  0
 16 20  1  0  0  0  0
 16 18  1  0  0  0  0
 17 12  1  0  0  0  0
 18  1  1  0  0  0  0
 18 15  1  0  0  0  0
 20 21  1  0  0  0  0
 21 19  1  0  0  0  0
 22 14  1  0  0  0  0
 23  6  1  0  0  0  0
 24 16  1  0  0  0  0
 25 24  1  0  0  0  0
 25 17  1  0  0  0  0
 26 23  1  0  0  0  0
 28 27  1  0  0  0  0
 29 28  1  0  0  0  0
 29 30  1  0  0  0  0
M  END
>  <MODEL>
7

>  <REMARK>
 VINA RESULT:      -4.7      2.501      3.966
  Name = 
  3 active torsions:
  status: ('A' for Active; 'I' for Inactive)
    1  A    between atoms: O_6  and  C_8
    2  A    between atoms: O_6  and  N_21
    3  A    between atoms: C_9  and  N_21
                            x       y       z     vdW  Elec       q    Type
                         _______ _______ _______ _____ _____    ______ ____

>  <TORSDO>
F 3

$$$$
=
 OpenBabel10272414003D

 30 34  0  0  1  0  0  0  0  0999 V2000
  186.0300  177.5640  137.6760 C   0  0  1  0  0  3  0  0  0  0  0  0
  182.7280  177.9540  139.4300 C   0  0  0  0  0  2  0  0  0  0  0  0
  181.8880  177.2030  134.7770 C   0  0  0  0  0  1  0  0  0  0  0  0
  186.5530  176.1760  137.1770 C   0  0  2  0  0  3  0  0  0  0  0  0
  186.6620  178.7480  136.9380 C   0  0  0  0  0  2  0  0  0  0  0  0
  189.4510  172.8590  136.1940 C   0  0  0  0  0  2  0  0  0  0  0  0
  188.7950  177.3340  136.7250 C   0  0  2  0  0  3  0  0  0  0  0  0
  186.0140  173.9590  135.9670 C   0  0  0  0  0  2  0  0  0  0  0  0
  185.0390  176.2790  134.3460 C   0  0  0  0  0  1  0  0  0  0  0  0
  188.1870  178.7120  137.0270 C   0  0  0  0  0  2  0  0  0  0  0  0
  187.7420  176.3400  136.2080 C   0  0  1  0  0  3  0  0  0  0  0  0
  181.5480  177.5180  138.8210 O   0  0  0  0  0  0  0  0  0  0  0  0
  187.2140  174.1990  135.0360 C   0  0  2  0  0  3  0  0  0  0  0  0
  188.2470  172.1860  135.5370 C   0  0  0  0  0  2  0  0  0  0  0  0
  183.8950  177.1210  138.9250 C   0  0  0  0  0  2  0  0  0  0  0  0
  183.8870  177.2710  136.3150 C   0  0  1  0  0  3  0  0  0  0  0  0
  181.0890  178.5870  138.0360 C   0  0  0  0  0  2  0  0  0  0  0  0
  184.5100  177.7260  137.6620 C   0  0  2  0  0  3  0  0  0  0  0  0
  184.7250  174.7440  137.7410 O   0  0  0  0  0  1  0  0  0  0  0  0
  184.4560  175.9660  135.7180 C   0  0  2  0  0  3  0  0  0  0  0  0
  185.4450  175.2210  136.6460 C   0  0  1  0  0  0  0  0  0  0  0  0
  187.7210  172.9900  134.4980 O   0  0  0  0  0  0  0  0  0  0  0  0
  189.0070  174.1880  136.7870 C   0  0  0  0  0  2  0  0  0  0  0  0
  182.3540  177.3680  136.2130 C   0  0  1  0  0  3  0  0  0  0  0  0
  181.8650  178.7190  136.7210 C   0  0  0  0  0  2  0  0  0  0  0  0
  188.3220  175.0190  135.7020 C   0  0  2  0  0  3  0  0  0  0  0  0
  189.4120  176.8480  137.8820 O   0  0  0  0  0  0  0  0  0  0  0  0
  189.6480  177.9500  138.6340 N   0  0  0  0  0  2  0  0  0  0  0  0
  189.6080  177.5240  140.0210 C   0  0  0  0  0  2  0  0  0  0  0  0
  188.3350  178.0290  140.6660 C   0  0  0  0  0  1  0  0  0  0  0  0
  1  5  1  6  0  0  0
  3 24  1  0  0  0  0
  4  1  1  0  0  0  0
  5 10  1  0  0  0  0
  6 23  1  0  0  0  0
  7 10  1  0  0  0  0
  7 27  1  0  0  0  0
  8 21  1  0  0  0  0
  9 20  1  0  0  0  0
 11  7  1  0  0  0  0
 11  4  1  0  0  0  0
 12  2  1  0  0  0  0
 13 26  1  0  0  0  0
 13  8  1  0  0  0  0
 14  6  1  0  0  0  0
 15  2  1  0  0  0  0
 16 18  1  0  0  0  0
 17 12  1  0  0  0  0
 18  1  1  0  0  0  0
 18 15  1  0  0  0  0
 20 16  1  0  0  0  0
 20 21  1  0  0  0  0
 21  4  1  0  0  0  0
 21 19  1  0  0  0  0
 22 13  1  0  0  0  0
 22 14  1  0  0  0  0
 24 16  1  0  0  0  0
 24 25  1  0  0  0  0
 25 17  1  0  0  0  0
 26 11  1  0  0  0  0
 26 23  1  0  0  0  0
 27 28  1  0  0  0  0
 28 29  1  0  0  0  0
 29 30  1  0  0  0  0
M  END
>  <MODEL>
8

>  <REMARK>
 VINA RESULT:      -4.7      3.217      7.603
  Name = 
  3 active torsions:
  status: ('A' for Active; 'I' for Inactive)
    1  A    between atoms: O_6  and  C_8
    2  A    between atoms: O_6  and  N_21
    3  A    between atoms: C_9  and  N_21
                            x       y       z     vdW  Elec       q    Type
                         _______ _______ _______ _____ _____    ______ ____

>  <TORSDO>
F 3

$$$$
=
 OpenBabel10272414003D

 30 34  0  0  1  0  0  0  0  0999 V2000
  184.1980  176.5790  137.9750 C   0  0  1  0  0  3  0  0  0  0  0  0
  182.5200  178.8210  140.4840 C   0  0  0  0  0  2  0  0  0  0  0  0
  179.9830  178.9280  136.4240 C   0  0  0  0  0  1  0  0  0  0  0  0
  183.6160  175.1810  137.5820 C   0  0  2  0  0  3  0  0  0  0  0  0
  185.1310  177.1660  136.9120 C   0  0  0  0  0  2  0  0  0  0  0  0
  183.5180  170.8300  136.3870 C   0  0  0  0  0  2  0  0  0  0  0  0
  185.8240  174.7570  136.3510 C   0  0  2  0  0  3  0  0  0  0  0  0
  181.5310  173.7990  136.9400 C   0  0  0  0  0  2  0  0  0  0  0  0
  181.6530  176.3000  135.2980 C   0  0  0  0  0  1  0  0  0  0  0  0
  186.2750  176.2070  136.5830 C   0  0  0  0  0  2  0  0  0  0  0  0
  184.2920  174.6290  136.3100 C   0  0  1  0  0  3  0  0  0  0  0  0
  181.1910  179.2170  140.3010 O   0  0  0  0  0  0  0  0  0  0  0  0
  182.2720  173.3000  135.6890 C   0  0  2  0  0  3  0  0  0  0  0  0
  182.0190  171.0550  136.2020 C   0  0  0  0  0  2  0  0  0  0  0  0
  182.7400  177.4720  139.8180 C   0  0  0  0  0  2  0  0  0  0  0  0
  181.9990  177.7050  137.3220 C   0  0  1  0  0  3  0  0  0  0  0  0
  181.2290  180.3760  139.5110 C   0  0  0  0  0  2  0  0  0  0  0  0
  183.1560  177.6310  138.3550 C   0  0  2  0  0  3  0  0  0  0  0  0
  181.5900  175.1300  138.8490 O   0  0  0  0  0  1  0  0  0  0  0  0
  181.4680  176.3480  136.8100 C   0  0  2  0  0  3  0  0  0  0  0  0
  182.0610  175.1180  137.5370 C   0  0  1  0  0  0  0  0  0  0  0  0
  181.7700  172.0550  135.2330 O   0  0  0  0  0  0  0  0  0  0  0  0
  184.1550  172.1300  136.8580 C   0  0  0  0  0  2  0  0  0  0  0  0
  180.8810  178.7160  137.6310 C   0  0  1  0  0  3  0  0  0  0  0  0
  181.4700  180.0640  138.0300 C   0  0  0  0  0  2  0  0  0  0  0  0
  183.7900  173.2500  135.8830 C   0  0  2  0  0  3  0  0  0  0  0  0
  186.3640  173.9490  137.3560 O   0  0  0  0  0  0  0  0  0  0  0  0
  187.6440  173.7280  136.9690 N   0  0  0  0  0  2  0  0  0  0  0  0
  187.7580  172.3070  136.7010 C   0  0  0  0  0  2  0  0  0  0  0  0
  188.4780  172.0990  135.3850 C   0  0  0  0  0  1  0  0  0  0  0  0
  1  5  1  6  0  0  0
  1 18  1  0  0  0  0
  3 24  1  0  0  0  0
  4  1  1  0  0  0  0
  6 23  1  0  0  0  0
  7 10  1  0  0  0  0
  7 27  1  0  0  0  0
  8 21  1  0  0  0  0
  9 20  1  0  0  0  0
 10  5  1  0  0  0  0
 11  7  1  0  0  0  0
 11  4  1  0  0  0  0
 12  2  1  0  0  0  0
 13 26  1  0  0  0  0
 13  8  1  0  0  0  0
 14  6  1  0  0  0  0
 15  2  1  0  0  0  0
 16 24  1  0  0  0  0
 16 18  1  0  0  0  0
 17 12  1  0  0  0  0
 18 15  1  0  0  0  0
 20 16  1  0  0  0  0
 20 21  1  0  0  0  0
 21  4  1  0  0  0  0
 21 19  1  0  0  0  0
 22 13  1  0  0  0  0
 22 14  1  0  0  0  0
 24 25  1  0  0  0  0
 25 17  1  0  0  0  0
 26 11  1  0  0  0  0
 26 23  1  0  0  0  0
 28 27  1  0  0  0  0
 29 28  1  0  0  0  0
 30 29  1  0  0  0  0
M  END
>  <MODEL>
9

>  <REMARK>
 VINA RESULT:      -4.5      4.867      9.575
  Name = 
  3 active torsions:
  status: ('A' for Active; 'I' for Inactive)
    1  A    between atoms: O_6  and  C_8
    2  A    between atoms: O_6  and  N_21
    3  A    between atoms: C_9  and  N_21
                            x       y       z     vdW  Elec       q    Type
                         _______ _______ _______ _____ _____    ______ ____

>  <TORSDO>
F 3

$$$$
