=
 OpenBabel10272413263D

 32 36  0  0  1  0  0  0  0  0999 V2000
  185.7590  178.9910  140.0460 C   0  0  0  0  0  2  0  0  0  0  0  0
  183.0730  178.9790  145.1650 C   0  0  0  0  0  3  0  0  0  0  0  0
  184.3870  178.9940  145.6690 C   0  0  0  0  0  3  0  0  0  0  0  0
  183.8870  177.8920  138.6180 C   0  0  2  0  0  3  0  0  0  0  0  0
  182.9850  177.5120  140.8780 C   0  0  0  0  0  2  0  0  0  0  0  0
  182.4860  176.0170  139.1220 C   0  0  0  0  0  1  0  0  0  0  0  0
  182.8430  178.7760  143.7960 C   0  0  0  0  0  3  0  0  0  0  0  0
  183.9870  178.4860  141.4940 C   0  0  1  0  0  3  0  0  0  0  0  0
  183.9440  178.5490  142.9680 C   0  0  0  0  0  0  0  0  0  0  0  0
  186.1860  178.4150  142.3340 C   0  0  2  0  0  3  0  0  0  0  0  0
  183.5080  176.9050  139.6510 N   0  0  0  0  0  0  0  0  0  0  0  0
  185.4780  178.8010  144.8050 C   0  0  0  0  0  3  0  0  0  0  0  0
  185.2200  178.5550  143.4560 C   0  0  0  0  0  0  0  0  0  0  0  0
  185.3500  178.3700  138.7030 C   0  0  0  0  0  2  0  0  0  0  0  0
  185.3690  178.1230  141.1470 N   0  0  2  0  0  0  0  0  0  0  0  0
  180.9230  180.8360  137.4970 C   0  0  0  0  0  0  0  0  0  0  0  0
  181.8980  177.4880  136.4440 F   0  0  0  0  0  0  0  0  0  0  0  0
  180.9680  179.6280  136.8000 C   0  0  0  0  0  3  0  0  0  0  0  0
  181.8180  181.0710  138.5410 C   0  0  0  0  0  3  0  0  0  0  0  0
  182.8240  178.8840  138.1860 C   0  0  0  0  0  0  0  0  0  0  0  0
  180.0070  181.7770  137.1650 F   0  0  0  0  0  0  0  0  0  0  0  0
  182.7620  180.0990  138.8810 C   0  0  0  0  0  3  0  0  0  0  0  0
  181.9100  178.6510  137.1360 C   0  0  0  0  0  0  0  0  0  0  0  0
  187.2570  177.3250  142.5460 C   0  0  0  0  0  2  0  0  0  0  0  0
  189.6870  177.4620  141.6870 C   0  0  0  0  0  2  0  0  0  0  0  0
  191.1290  177.6020  142.0920 C   0  0  0  0  0  0  0  0  0  0  0  0
  189.2070  177.3740  144.1920 C   0  0  0  0  0  0  0  0  0  0  0  0
  190.5070  177.4520  144.4820 C   0  0  0  0  0  3  0  0  0  0  0  0
  191.5040  177.9790  143.4950 C   0  0  0  0  0  2  0  0  0  0  0  0
  192.0040  177.4340  141.2600 O   0  0  0  0  0  0  0  0  0  0  0  0
  188.3200  176.9780  145.1850 O   0  0  0  0  0  1  0  0  0  0  0  0
  188.7050  177.7790  142.8260 C   0  0  2  0  0  3  0  0  0  0  0  0
  2  3  1  0  0  0  0
  4 20  1  1  0  0  0
  4 14  1  0  0  0  0
  4 11  1  0  0  0  0
  6 11  1  0  0  0  0
  7  2  2  0  0  0  0
  8  5  1  1  0  0  0
  8  9  1  0  0  0  0
  9 13  2  0  0  0  0
  9  7  1  0  0  0  0
 10 24  1  1  0  0  0
 10 13  1  0  0  0  0
 11  5  1  0  0  0  0
 12  3  2  0  0  0  0
 13 12  1  0  0  0  0
 14  1  1  0  0  0  0
 15  1  1  6  0  0  0
 15  8  1  0  0  0  0
 15 10  1  0  0  0  0
 16 19  1  0  0  0  0
 17 23  1  0  0  0  0
 18 23  1  0  0  0  0
 18 16  2  0  0  0  0
 19 22  2  0  0  0  0
 20 22  1  0  0  0  0
 21 16  1  0  0  0  0
 23 20  2  0  0  0  0
 25 26  1  0  0  0  0
 25 32  1  0  0  0  0
 26 29  1  0  0  0  0
 27 28  2  0  0  0  0
 27 31  1  0  0  0  0
 29 28  1  0  0  0  0
 30 26  2  0  0  0  0
 32 24  1  6  0  0  0
 32 27  1  0  0  0  0
M  END
>  <MODEL>
1

>  <REMARK>
 VINA RESULT:      -8.8      0.000      0.000
  Name = 
  3 active torsions:
  status: ('A' for Active; 'I' for Inactive)
    1  A    between atoms: C_8  and  C_19
    2  A    between atoms: C_16  and  C_27
    3  A    between atoms: C_27  and  C_32
                            x       y       z     vdW  Elec       q    Type
                         _______ _______ _______ _____ _____    ______ ____

>  <TORSDO>
F 3

$$$$
=
 OpenBabel10272413263D

 32 36  0  0  1  0  0  0  0  0999 V2000
  190.4680  176.0320  142.1270 C   0  0  0  0  0  2  0  0  0  0  0  0
  185.8650  178.9780  140.2400 C   0  0  0  0  0  3  0  0  0  0  0  0
  186.1590  178.3340  139.0230 C   0  0  0  0  0  3  0  0  0  0  0  0
  191.1470  177.5850  144.0980 C   0  0  2  0  0  3  0  0  0  0  0  0
  189.4720  179.0070  142.9840 C   0  0  0  0  0  2  0  0  0  0  0  0
  191.2560  179.9750  144.1880 C   0  0  0  0  0  1  0  0  0  0  0  0
  186.7640  178.9010  141.3160 C   0  0  0  0  0  3  0  0  0  0  0  0
  188.9780  177.8400  142.1320 C   0  0  1  0  0  3  0  0  0  0  0  0
  187.9620  178.2120  141.1260 C   0  0  0  0  0  0  0  0  0  0  0  0
  189.5280  176.8370  140.0730 C   0  0  2  0  0  3  0  0  0  0  0  0
  190.8780  178.8390  143.3630 N   0  0  0  0  0  0  0  0  0  0  0  0
  187.3560  177.6150  138.8750 C   0  0  0  0  0  3  0  0  0  0  0  0
  188.2540  177.5940  139.9440 C   0  0  0  0  0  0  0  0  0  0  0  0
  191.5100  176.3870  143.1970 C   0  0  0  0  0  2  0  0  0  0  0  0
  190.0800  177.2200  141.3820 N   0  0  2  0  0  0  0  0  0  0  0  0
  188.6800  176.8930  147.5820 C   0  0  0  0  0  0  0  0  0  0  0  0
  192.1930  176.5560  146.6830 F   0  0  0  0  0  0  0  0  0  0  0  0
  190.0440  176.6100  147.6580 C   0  0  0  0  0  3  0  0  0  0  0  0
  188.1370  177.3970  146.4000 C   0  0  0  0  0  3  0  0  0  0  0  0
  190.3320  177.3280  145.3510 C   0  0  0  0  0  0  0  0  0  0  0  0
  187.8830  176.6820  148.6570 F   0  0  0  0  0  0  0  0  0  0  0  0
  188.9610  177.6130  145.2920 C   0  0  0  0  0  3  0  0  0  0  0  0
  190.8740  176.8240  146.5530 C   0  0  0  0  0  0  0  0  0  0  0  0
  190.5470  177.1050  138.9470 C   0  0  0  0  0  2  0  0  0  0  0  0
  192.9400  176.4560  138.2290 C   0  0  0  0  0  2  0  0  0  0  0  0
  193.7780  175.4060  137.5520 C   0  0  0  0  0  0  0  0  0  0  0  0
  190.9520  175.0030  137.5580 C   0  0  0  0  0  0  0  0  0  0  0  0
  191.7480  174.1350  136.9330 C   0  0  0  0  0  3  0  0  0  0  0  0
  193.2150  174.0530  137.2340 C   0  0  0  0  0  2  0  0  0  0  0  0
  194.9420  175.6500  137.2840 O   0  0  0  0  0  0  0  0  0  0  0  0
  189.5850  174.9570  137.3130 O   0  0  0  0  0  1  0  0  0  0  0  0
  191.5210  175.9700  138.5690 C   0  0  2  0  0  3  0  0  0  0  0  0
  1 14  1  0  0  0  0
  2  7  1  0  0  0  0
  3  2  2  0  0  0  0
  4 20  1  6  0  0  0
  5 11  1  0  0  0  0
  8  5  1  6  0  0  0
  9  7  2  0  0  0  0
  9  8  1  0  0  0  0
 10 24  1  6  0  0  0
 10 15  1  0  0  0  0
 11  4  1  0  0  0  0
 11  6  1  0  0  0  0
 12  3  1  0  0  0  0
 12 13  2  0  0  0  0
 13 10  1  0  0  0  0
 13  9  1  0  0  0  0
 14  4  1  0  0  0  0
 15  1  1  1  0  0  0
 15  8  1  0  0  0  0
 16 18  1  0  0  0  0
 16 21  1  0  0  0  0
 19 16  2  0  0  0  0
 20 23  1  0  0  0  0
 22 20  2  0  0  0  0
 22 19  1  0  0  0  0
 23 17  1  0  0  0  0
 23 18  2  0  0  0  0
 25 32  1  0  0  0  0
 26 25  1  0  0  0  0
 27 32  1  0  0  0  0
 28 29  1  0  0  0  0
 28 27  2  0  0  0  0
 29 26  1  0  0  0  0
 30 26  2  0  0  0  0
 31 27  1  0  0  0  0
 32 24  1  6  0  0  0
M  END
>  <MODEL>
2

>  <REMARK>
 VINA RESULT:      -8.2      5.182      8.581
  Name = 
  3 active torsions:
  status: ('A' for Active; 'I' for Inactive)
    1  A    between atoms: C_8  and  C_19
    2  A    between atoms: C_16  and  C_27
    3  A    between atoms: C_27  and  C_32
                            x       y       z     vdW  Elec       q    Type
                         _______ _______ _______ _____ _____    ______ ____

>  <TORSDO>
F 3

$$$$
=
 OpenBabel10272413263D

 32 36  0  0  1  0  0  0  0  0999 V2000
  190.6440  176.2020  141.9640 C   0  0  0  0  0  2  0  0  0  0  0  0
  185.8520  178.9260  140.2190 C   0  0  0  0  0  3  0  0  0  0  0  0
  186.1820  178.3590  138.9740 C   0  0  0  0  0  3  0  0  0  0  0  0
  191.2280  177.7040  144.0030 C   0  0  2  0  0  3  0  0  0  0  0  0
  189.4610  179.0640  142.9580 C   0  0  0  0  0  2  0  0  0  0  0  0
  191.1830  180.0900  144.2030 C   0  0  0  0  0  1  0  0  0  0  0  0
  186.7580  178.8580  141.2890 C   0  0  0  0  0  3  0  0  0  0  0  0
  189.0390  177.9070  142.0540 C   0  0  1  0  0  3  0  0  0  0  0  0
  187.9980  178.2570  141.0670 C   0  0  0  0  0  0  0  0  0  0  0  0
  189.6450  177.0370  139.9510 C   0  0  2  0  0  3  0  0  0  0  0  0
  190.8760  178.9700  143.3270 N   0  0  0  0  0  0  0  0  0  0  0  0
  187.4230  177.7270  138.7910 C   0  0  0  0  0  3  0  0  0  0  0  0
  188.3250  177.7140  139.8570 C   0  0  0  0  0  0  0  0  0  0  0  0
  191.6650  176.5750  143.0480 C   0  0  0  0  0  2  0  0  0  0  0  0
  190.1760  177.3950  141.2750 N   0  0  2  0  0  0  0  0  0  0  0  0
  188.8270  176.7070  147.4590 C   0  0  0  0  0  0  0  0  0  0  0  0
  192.3220  176.4500  146.4670 F   0  0  0  0  0  0  0  0  0  0  0  0
  190.1920  176.4190  147.4830 C   0  0  0  0  0  3  0  0  0  0  0  0
  188.2630  177.3150  146.3380 C   0  0  0  0  0  3  0  0  0  0  0  0
  190.4370  177.3370  145.2440 C   0  0  0  0  0  0  0  0  0  0  0  0
  188.0500  176.4030  148.5270 F   0  0  0  0  0  0  0  0  0  0  0  0
  189.0660  177.6280  145.2370 C   0  0  0  0  0  3  0  0  0  0  0  0
  191.0000  176.7290  146.3860 C   0  0  0  0  0  0  0  0  0  0  0  0
  190.6410  177.4220  138.8370 C   0  0  0  0  0  2  0  0  0  0  0  0
  190.0130  175.2050  137.6740 C   0  0  0  0  0  2  0  0  0  0  0  0
  190.5510  174.0000  136.9520 C   0  0  0  0  0  0  0  0  0  0  0  0
  192.4630  175.8370  138.0110 C   0  0  0  0  0  0  0  0  0  0  0  0
  192.8730  174.7240  137.4020 C   0  0  0  0  0  3  0  0  0  0  0  0
  191.9750  173.9520  136.4830 C   0  0  0  0  0  2  0  0  0  0  0  0
  189.8090  173.0620  136.7170 O   0  0  0  0  0  0  0  0  0  0  0  0
  193.3740  176.5650  138.7660 O   0  0  0  0  0  1  0  0  0  0  0  0
  191.0480  176.3320  137.8240 C   0  0  2  0  0  3  0  0  0  0  0  0
  1 14  1  0  0  0  0
  2  7  1  0  0  0  0
  3  2  2  0  0  0  0
  4 20  1  6  0  0  0
  5 11  1  0  0  0  0
  8  5  1  6  0  0  0
  9  7  2  0  0  0  0
  9  8  1  0  0  0  0
 10 24  1  6  0  0  0
 10 15  1  0  0  0  0
 11  4  1  0  0  0  0
 11  6  1  0  0  0  0
 12  3  1  0  0  0  0
 12 13  2  0  0  0  0
 13 10  1  0  0  0  0
 13  9  1  0  0  0  0
 14  4  1  0  0  0  0
 15  1  1  1  0  0  0
 15  8  1  0  0  0  0
 16 18  1  0  0  0  0
 16 21  1  0  0  0  0
 19 16  2  0  0  0  0
 20 23  1  0  0  0  0
 22 20  2  0  0  0  0
 22 19  1  0  0  0  0
 23 17  1  0  0  0  0
 23 18  2  0  0  0  0
 25 32  1  0  0  0  0
 26 25  1  0  0  0  0
 27 31  1  0  0  0  0
 28 27  2  0  0  0  0
 29 26  1  0  0  0  0
 29 28  1  0  0  0  0
 30 26  2  0  0  0  0
 32 27  1  0  0  0  0
 32 24  1  1  0  0  0
M  END
>  <MODEL>
3

>  <REMARK>
 VINA RESULT:      -8.0      5.139      8.645
  Name = 
  3 active torsions:
  status: ('A' for Active; 'I' for Inactive)
    1  A    between atoms: C_8  and  C_19
    2  A    between atoms: C_16  and  C_27
    3  A    between atoms: C_27  and  C_32
                            x       y       z     vdW  Elec       q    Type
                         _______ _______ _______ _____ _____    ______ ____

>  <TORSDO>
F 3

$$$$
=
 OpenBabel10272413263D

 32 36  0  0  1  0  0  0  0  0999 V2000
  189.1760  176.4630  142.4490 C   0  0  0  0  0  2  0  0  0  0  0  0
  184.8630  178.7880  145.5170 C   0  0  0  0  0  3  0  0  0  0  0  0
  184.1410  178.6170  144.3210 C   0  0  0  0  0  3  0  0  0  0  0  0
  191.1790  177.4600  143.7710 C   0  0  2  0  0  3  0  0  0  0  0  0
  189.3290  178.7600  144.7460 C   0  0  0  0  0  2  0  0  0  0  0  0
  191.4990  179.6790  144.6130 C   0  0  0  0  0  1  0  0  0  0  0  0
  186.2510  178.5850  145.5400 C   0  0  0  0  0  3  0  0  0  0  0  0
  188.2870  177.8260  144.1350 C   0  0  1  0  0  3  0  0  0  0  0  0
  186.8900  178.2560  144.3430 C   0  0  0  0  0  0  0  0  0  0  0  0
  187.1090  177.6280  142.1050 C   0  0  2  0  0  3  0  0  0  0  0  0
  190.5590  178.7890  143.9490 N   0  0  0  0  0  0  0  0  0  0  0  0
  184.8060  178.2480  143.1400 C   0  0  0  0  0  3  0  0  0  0  0  0
  186.1930  178.0990  143.1790 C   0  0  0  0  0  0  0  0  0  0  0  0
  190.6920  176.6940  142.5240 C   0  0  0  0  0  2  0  0  0  0  0  0
  188.4600  177.7090  142.6800 N   0  0  2  0  0  0  0  0  0  0  0  0
  192.0260  175.3390  147.4430 C   0  0  0  0  0  0  0  0  0  0  0  0
  192.3570  174.7320  143.8670 F   0  0  0  0  0  0  0  0  0  0  0  0
  192.3050  174.7150  146.2270 C   0  0  0  0  0  3  0  0  0  0  0  0
  191.4920  176.6270  147.4590 C   0  0  0  0  0  3  0  0  0  0  0  0
  191.5010  176.6720  145.0260 C   0  0  0  0  0  0  0  0  0  0  0  0
  192.2780  174.6960  148.6090 F   0  0  0  0  0  0  0  0  0  0  0  0
  191.2320  177.2880  146.2560 C   0  0  0  0  0  3  0  0  0  0  0  0
  192.0480  175.3710  145.0200 C   0  0  0  0  0  0  0  0  0  0  0  0
  187.0200  178.4320  140.7920 C   0  0  0  0  0  2  0  0  0  0  0  0
  188.9460  177.7480  139.2160 C   0  0  0  0  0  2  0  0  0  0  0  0
  189.3030  177.3620  137.8070 C   0  0  0  0  0  0  0  0  0  0  0  0
  186.5980  178.1360  138.2930 C   0  0  0  0  0  0  0  0  0  0  0  0
  186.9920  177.8280  137.0560 C   0  0  0  0  0  3  0  0  0  0  0  0
  188.2390  177.0350  136.8010 C   0  0  0  0  0  2  0  0  0  0  0  0
  190.4770  177.2840  137.4860 O   0  0  0  0  0  0  0  0  0  0  0  0
  185.3800  178.7800  138.4690 O   0  0  0  0  0  1  0  0  0  0  0  0
  187.4320  177.7260  139.4840 C   0  0  2  0  0  3  0  0  0  0  0  0
  1 14  1  0  0  0  0
  2  7  1  0  0  0  0
  3  2  2  0  0  0  0
  4 11  1  0  0  0  0
  4 20  1  1  0  0  0
  8  9  1  0  0  0  0
  8  5  1  6  0  0  0
  9  7  2  0  0  0  0
 10 24  1  6  0  0  0
 10 15  1  0  0  0  0
 10 13  1  0  0  0  0
 11  6  1  0  0  0  0
 11  5  1  0  0  0  0
 12 13  2  0  0  0  0
 12  3  1  0  0  0  0
 13  9  1  0  0  0  0
 14  4  1  0  0  0  0
 15  1  1  1  0  0  0
 15  8  1  0  0  0  0
 16 19  1  0  0  0  0
 16 21  1  0  0  0  0
 17 23  1  0  0  0  0
 18 16  2  0  0  0  0
 20 22  1  0  0  0  0
 22 19  2  0  0  0  0
 23 20  2  0  0  0  0
 23 18  1  0  0  0  0
 25 32  1  0  0  0  0
 26 25  1  0  0  0  0
 27 31  1  0  0  0  0
 27 32  1  0  0  0  0
 28 27  2  0  0  0  0
 29 28  1  0  0  0  0
 29 26  1  0  0  0  0
 30 26  2  0  0  0  0
 32 24  1  1  0  0  0
M  END
>  <MODEL>
4

>  <REMARK>
 VINA RESULT:      -7.5      4.891      8.644
  Name = 
  3 active torsions:
  status: ('A' for Active; 'I' for Inactive)
    1  A    between atoms: C_8  and  C_19
    2  A    between atoms: C_16  and  C_27
    3  A    between atoms: C_27  and  C_32
                            x       y       z     vdW  Elec       q    Type
                         _______ _______ _______ _____ _____    ______ ____

>  <TORSDO>
F 3

$$$$
=
 OpenBabel10272413263D

 32 36  0  0  1  0  0  0  0  0999 V2000
  185.8010  178.7230  140.1820 C   0  0  0  0  0  2  0  0  0  0  0  0
  183.3100  178.9950  145.3920 C   0  0  0  0  0  3  0  0  0  0  0  0
  184.6340  178.8590  145.8490 C   0  0  0  0  0  3  0  0  0  0  0  0
  183.7670  177.8500  138.8200 C   0  0  2  0  0  3  0  0  0  0  0  0
  182.9070  177.5660  141.1100 C   0  0  0  0  0  2  0  0  0  0  0  0
  182.1800  176.1440  139.3710 C   0  0  0  0  0  1  0  0  0  0  0  0
  183.0110  178.8260  144.0310 C   0  0  0  0  0  3  0  0  0  0  0  0
  184.0340  178.4170  141.6900 C   0  0  1  0  0  3  0  0  0  0  0  0
  184.0490  178.4790  143.1650 C   0  0  0  0  0  0  0  0  0  0  0  0
  186.2390  178.0930  142.4540 C   0  0  2  0  0  3  0  0  0  0  0  0
  183.3150  176.9090  139.8650 N   0  0  0  0  0  0  0  0  0  0  0  0
  185.6640  178.5470  144.9480 C   0  0  0  0  0  3  0  0  0  0  0  0
  185.3340  178.3370  143.6080 C   0  0  0  0  0  0  0  0  0  0  0  0
  185.2780  178.1590  138.8540 C   0  0  0  0  0  2  0  0  0  0  0  0
  185.3530  177.9000  141.2950 N   0  0  2  0  0  0  0  0  0  0  0  0
  180.9300  180.8910  137.6320 C   0  0  0  0  0  0  0  0  0  0  0  0
  184.1140  180.7470  139.3950 F   0  0  0  0  0  0  0  0  0  0  0  0
  182.0720  181.2750  138.3360 C   0  0  0  0  0  3  0  0  0  0  0  0
  180.7260  179.5480  137.3160 C   0  0  0  0  0  3  0  0  0  0  0  0
  182.8110  178.9590  138.4250 C   0  0  0  0  0  0  0  0  0  0  0  0
  180.0230  181.8220  137.2510 F   0  0  0  0  0  0  0  0  0  0  0  0
  181.6620  178.5890  137.7110 C   0  0  0  0  0  3  0  0  0  0  0  0
  183.0130  180.3210  138.7340 C   0  0  0  0  0  0  0  0  0  0  0  0
  187.1850  176.8870  142.6280 C   0  0  0  0  0  2  0  0  0  0  0  0
  188.4270  177.1980  144.8700 C   0  0  0  0  0  2  0  0  0  0  0  0
  189.6630  177.7510  145.5240 C   0  0  0  0  0  0  0  0  0  0  0  0
  189.3420  178.2480  142.7310 C   0  0  0  0  0  0  0  0  0  0  0  0
  190.3920  178.7510  143.3820 C   0  0  0  0  0  3  0  0  0  0  0  0
  190.8360  178.2030  144.7040 C   0  0  0  0  0  2  0  0  0  0  0  0
  189.7240  177.8040  146.7400 O   0  0  0  0  0  0  0  0  0  0  0  0
  189.0450  178.7290  141.4620 O   0  0  0  0  0  1  0  0  0  0  0  0
  188.5350  177.1250  143.3380 C   0  0  2  0  0  3  0  0  0  0  0  0
  2  3  1  0  0  0  0
  4 20  1  1  0  0  0
  4 14  1  0  0  0  0
  4 11  1  0  0  0  0
  6 11  1  0  0  0  0
  7  2  2  0  0  0  0
  8  5  1  1  0  0  0
  8  9  1  0  0  0  0
  9 13  2  0  0  0  0
  9  7  1  0  0  0  0
 10 24  1  1  0  0  0
 10 13  1  0  0  0  0
 11  5  1  0  0  0  0
 12  3  2  0  0  0  0
 13 12  1  0  0  0  0
 14  1  1  0  0  0  0
 15  1  1  6  0  0  0
 15  8  1  0  0  0  0
 15 10  1  0  0  0  0
 16 18  1  0  0  0  0
 18 23  2  0  0  0  0
 19 16  2  0  0  0  0
 19 22  1  0  0  0  0
 20 23  1  0  0  0  0
 21 16  1  0  0  0  0
 22 20  2  0  0  0  0
 23 17  1  0  0  0  0
 25 26  1  0  0  0  0
 26 30  2  0  0  0  0
 27 32  1  0  0  0  0
 27 28  2  0  0  0  0
 28 29  1  0  0  0  0
 29 26  1  0  0  0  0
 31 27  1  0  0  0  0
 32 24  1  6  0  0  0
 32 25  1  0  0  0  0
M  END
>  <MODEL>
5

>  <REMARK>
 VINA RESULT:      -7.1      1.260      2.059
  Name = 
  3 active torsions:
  status: ('A' for Active; 'I' for Inactive)
    1  A    between atoms: C_8  and  C_19
    2  A    between atoms: C_16  and  C_27
    3  A    between atoms: C_27  and  C_32
                            x       y       z     vdW  Elec       q    Type
                         _______ _______ _______ _____ _____    ______ ____

>  <TORSDO>
F 3

$$$$
=
 OpenBabel10272413263D

 32 36  0  0  1  0  0  0  0  0999 V2000
  185.8350  177.7080  139.4550 C   0  0  0  0  0  2  0  0  0  0  0  0
  190.2770  176.5740  142.9770 C   0  0  0  0  0  3  0  0  0  0  0  0
  189.3640  176.9510  143.9790 C   0  0  0  0  0  3  0  0  0  0  0  0
  187.1750  178.2300  137.2900 C   0  0  2  0  0  3  0  0  0  0  0  0
  189.0110  178.1750  138.9310 C   0  0  0  0  0  2  0  0  0  0  0  0
  189.1660  179.5280  137.0040 C   0  0  0  0  0  1  0  0  0  0  0  0
  189.9620  176.7690  141.6230 C   0  0  0  0  0  3  0  0  0  0  0  0
  188.1110  177.5390  139.9880 C   0  0  1  0  0  3  0  0  0  0  0  0
  188.7470  177.3820  141.3110 C   0  0  0  0  0  0  0  0  0  0  0  0
  186.6120  178.2610  141.6550 C   0  0  2  0  0  3  0  0  0  0  0  0
  188.2390  178.9850  137.9830 N   0  0  0  0  0  0  0  0  0  0  0  0
  188.1330  177.5300  143.6330 C   0  0  0  0  0  3  0  0  0  0  0  0
  187.8630  177.7560  142.2820 C   0  0  0  0  0  0  0  0  0  0  0  0
  185.8140  178.2400  138.0150 C   0  0  0  0  0  2  0  0  0  0  0  0
  186.9010  178.3430  140.2150 N   0  0  2  0  0  0  0  0  0  0  0  0
  188.3290  174.5650  135.3060 C   0  0  0  0  0  0  0  0  0  0  0  0
  187.8110  178.0520  134.3910 F   0  0  0  0  0  0  0  0  0  0  0  0
  188.2340  175.7350  134.5520 C   0  0  0  0  0  3  0  0  0  0  0  0
  188.0630  174.5930  136.6740 C   0  0  0  0  0  3  0  0  0  0  0  0
  187.5890  176.9760  136.5430 C   0  0  0  0  0  0  0  0  0  0  0  0
  188.6850  173.4020  134.7090 F   0  0  0  0  0  0  0  0  0  0  0  0
  187.6950  175.7930  137.2870 C   0  0  0  0  0  3  0  0  0  0  0  0
  187.8680  176.9400  135.1600 C   0  0  0  0  0  0  0  0  0  0  0  0
  186.1290  179.6210  142.1980 C   0  0  0  0  0  2  0  0  0  0  0  0
  185.3830  179.1120  144.6150 C   0  0  0  0  0  2  0  0  0  0  0  0
  184.2050  178.8060  145.5000 C   0  0  0  0  0  0  0  0  0  0  0  0
  183.7040  179.0030  142.6960 C   0  0  0  0  0  0  0  0  0  0  0  0
  182.7130  178.6860  143.5300 C   0  0  0  0  0  3  0  0  0  0  0  0
  182.8000  178.9680  145.0000 C   0  0  0  0  0  2  0  0  0  0  0  0
  184.3970  178.4500  146.6500 O   0  0  0  0  0  0  0  0  0  0  0  0
  183.5200  178.8130  141.3320 O   0  0  0  0  0  1  0  0  0  0  0  0
  184.9760  179.6230  143.2230 C   0  0  2  0  0  3  0  0  0  0  0  0
  2  3  1  0  0  0  0
  4 20  1  1  0  0  0
  4 11  1  0  0  0  0
  4 14  1  0  0  0  0
  6 11  1  0  0  0  0
  7  2  2  0  0  0  0
  8  5  1  6  0  0  0
  8 15  1  0  0  0  0
  8  9  1  0  0  0  0
  9  7  1  0  0  0  0
  9 13  2  0  0  0  0
 10 24  1  1  0  0  0
 10 13  1  0  0  0  0
 11  5  1  0  0  0  0
 12  3  2  0  0  0  0
 13 12  1  0  0  0  0
 14  1  1  0  0  0  0
 15  1  1  6  0  0  0
 15 10  1  0  0  0  0
 16 19  1  0  0  0  0
 17 23  1  0  0  0  0
 18 23  1  0  0  0  0
 18 16  2  0  0  0  0
 19 22  2  0  0  0  0
 20 22  1  0  0  0  0
 21 16  1  0  0  0  0
 23 20  2  0  0  0  0
 25 26  1  0  0  0  0
 26 30  2  0  0  0  0
 27 32  1  0  0  0  0
 27 28  2  0  0  0  0
 28 29  1  0  0  0  0
 29 26  1  0  0  0  0
 31 27  1  0  0  0  0
 32 24  1  6  0  0  0
 32 25  1  0  0  0  0
M  END
>  <MODEL>
6

>  <REMARK>
 VINA RESULT:      -7.1      3.517      6.511
  Name = 
  3 active torsions:
  status: ('A' for Active; 'I' for Inactive)
    1  A    between atoms: C_8  and  C_19
    2  A    between atoms: C_16  and  C_27
    3  A    between atoms: C_27  and  C_32
                            x       y       z     vdW  Elec       q    Type
                         _______ _______ _______ _____ _____    ______ ____

>  <TORSDO>
F 3

$$$$
=
 OpenBabel10272413263D

 32 36  0  0  1  0  0  0  0  0999 V2000
  190.4400  175.8410  142.3520 C   0  0  0  0  0  2  0  0  0  0  0  0
  186.1730  178.8840  139.9110 C   0  0  0  0  0  3  0  0  0  0  0  0
  186.5320  178.1530  138.7640 C   0  0  0  0  0  3  0  0  0  0  0  0
  191.0350  177.4780  144.2820 C   0  0  2  0  0  3  0  0  0  0  0  0
  189.5360  178.9080  142.9490 C   0  0  0  0  0  2  0  0  0  0  0  0
  191.2630  179.8610  144.2450 C   0  0  0  0  0  1  0  0  0  0  0  0
  186.9740  178.8300  141.0630 C   0  0  0  0  0  3  0  0  0  0  0  0
  189.0530  177.7160  142.1260 C   0  0  1  0  0  3  0  0  0  0  0  0
  188.1450  178.0730  141.0170 C   0  0  0  0  0  0  0  0  0  0  0  0
  189.7180  176.5630  140.1830 C   0  0  2  0  0  3  0  0  0  0  0  0
  190.8950  178.6960  143.4560 N   0  0  0  0  0  0  0  0  0  0  0  0
  187.6970  177.3690  138.7600 C   0  0  0  0  0  3  0  0  0  0  0  0
  188.5010  177.3700  139.9010 C   0  0  0  0  0  0  0  0  0  0  0  0
  191.4080  176.2110  143.4860 C   0  0  0  0  0  2  0  0  0  0  0  0
  190.1780  176.9980  141.5100 N   0  0  2  0  0  0  0  0  0  0  0  0
  188.5170  177.1280  147.7810 C   0  0  0  0  0  0  0  0  0  0  0  0
  188.1400  176.8080  144.1720 F   0  0  0  0  0  0  0  0  0  0  0  0
  187.9490  176.9300  146.5220 C   0  0  0  0  0  3  0  0  0  0  0  0
  189.8750  177.4240  147.8940 C   0  0  0  0  0  3  0  0  0  0  0  0
  190.1060  177.3380  145.4730 C   0  0  0  0  0  0  0  0  0  0  0  0
  187.7510  177.0290  148.8940 F   0  0  0  0  0  0  0  0  0  0  0  0
  190.6630  177.5270  146.7450 C   0  0  0  0  0  3  0  0  0  0  0  0
  188.7320  177.0310  145.3680 C   0  0  0  0  0  0  0  0  0  0  0  0
  190.8400  176.7120  139.1350 C   0  0  0  0  0  2  0  0  0  0  0  0
  192.2140  174.8540  137.9850 C   0  0  0  0  0  2  0  0  0  0  0  0
  192.4190  174.0890  136.7070 C   0  0  0  0  0  0  0  0  0  0  0  0
  190.5280  176.2270  136.6490 C   0  0  0  0  0  0  0  0  0  0  0  0
  190.7930  175.5400  135.5370 C   0  0  0  0  0  3  0  0  0  0  0  0
  191.4310  174.1850  135.5810 C   0  0  0  0  0  2  0  0  0  0  0  0
  193.3870  173.3560  136.5950 O   0  0  0  0  0  0  0  0  0  0  0  0
  189.8390  177.4300  136.5480 O   0  0  0  0  0  1  0  0  0  0  0  0
  190.9110  175.6700  137.9990 C   0  0  2  0  0  3  0  0  0  0  0  0
  1 14  1  0  0  0  0
  2  7  1  0  0  0  0
  3  2  2  0  0  0  0
  4 20  1  6  0  0  0
  5 11  1  0  0  0  0
  8  5  1  6  0  0  0
  9  7  2  0  0  0  0
  9  8  1  0  0  0  0
 10 24  1  6  0  0  0
 10 15  1  0  0  0  0
 11  6  1  0  0  0  0
 11  4  1  0  0  0  0
 12  3  1  0  0  0  0
 12 13  2  0  0  0  0
 13 10  1  0  0  0  0
 13  9  1  0  0  0  0
 14  4  1  0  0  0  0
 15  8  1  0  0  0  0
 15  1  1  1  0  0  0
 16 19  1  0  0  0  0
 16 21  1  0  0  0  0
 17 23  1  0  0  0  0
 18 16  2  0  0  0  0
 20 22  1  0  0  0  0
 22 19  2  0  0  0  0
 23 20  2  0  0  0  0
 23 18  1  0  0  0  0
 25 32  1  0  0  0  0
 26 25  1  0  0  0  0
 27 32  1  0  0  0  0
 28 29  1  0  0  0  0
 28 27  2  0  0  0  0
 29 26  1  0  0  0  0
 30 26  2  0  0  0  0
 31 27  1  0  0  0  0
 32 24  1  1  0  0  0
M  END
>  <MODEL>
7

>  <REMARK>
 VINA RESULT:      -6.6      4.804      8.542
  Name = 
  3 active torsions:
  status: ('A' for Active; 'I' for Inactive)
    1  A    between atoms: C_8  and  C_19
    2  A    between atoms: C_16  and  C_27
    3  A    between atoms: C_27  and  C_32
                            x       y       z     vdW  Elec       q    Type
                         _______ _______ _______ _____ _____    ______ ____

>  <TORSDO>
F 3

$$$$
=
 OpenBabel10272413263D

 32 36  0  0  1  0  0  0  0  0999 V2000
  182.9560  177.7610  141.6110 C   0  0  0  0  0  2  0  0  0  0  0  0
  188.1240  178.2670  139.0690 C   0  0  0  0  0  3  0  0  0  0  0  0
  188.5880  178.3180  140.3970 C   0  0  0  0  0  3  0  0  0  0  0  0
  181.4790  178.6860  139.6830 C   0  0  2  0  0  3  0  0  0  0  0  0
  183.7140  179.2860  138.8400 C   0  0  0  0  0  2  0  0  0  0  0  0
  181.8300  180.5880  138.2700 C   0  0  0  0  0  1  0  0  0  0  0  0
  186.7480  178.3260  138.7970 C   0  0  0  0  0  3  0  0  0  0  0  0
  184.3960  178.3920  139.8730 C   0  0  1  0  0  3  0  0  0  0  0  0
  185.8700  178.4790  139.8710 C   0  0  0  0  0  0  0  0  0  0  0  0
  185.1600  178.5730  142.0930 C   0  0  2  0  0  3  0  0  0  0  0  0
  182.4160  179.7700  139.3200 N   0  0  0  0  0  0  0  0  0  0  0  0
  187.6780  178.4340  141.4600 C   0  0  0  0  0  3  0  0  0  0  0  0
  186.3180  178.5380  141.1600 C   0  0  0  0  0  0  0  0  0  0  0  0
  181.5690  178.2360  141.1550 C   0  0  0  0  0  2  0  0  0  0  0  0
  183.9740  178.7330  141.2390 N   0  0  2  0  0  0  0  0  0  0  0  0
  180.5410  175.8310  136.5740 C   0  0  0  0  0  0  0  0  0  0  0  0
  182.5500  175.9140  139.6100 F   0  0  0  0  0  0  0  0  0  0  0  0
  181.4030  175.4470  137.6010 C   0  0  0  0  0  3  0  0  0  0  0  0
  179.9920  177.1130  136.5680 C   0  0  0  0  0  3  0  0  0  0  0  0
  181.1820  177.6430  138.6230 C   0  0  0  0  0  0  0  0  0  0  0  0
  180.2320  174.9580  135.5850 F   0  0  0  0  0  0  0  0  0  0  0  0
  180.3110  178.0120  137.5880 C   0  0  0  0  0  3  0  0  0  0  0  0
  181.7270  176.3410  138.6250 C   0  0  0  0  0  0  0  0  0  0  0  0
  185.2290  179.6910  143.1540 C   0  0  0  0  0  2  0  0  0  0  0  0
  186.8980  178.3400  144.5870 C   0  0  0  0  0  2  0  0  0  0  0  0
  187.1420  177.7270  145.9380 C   0  0  0  0  0  0  0  0  0  0  0  0
  184.5830  178.9130  145.4970 C   0  0  0  0  0  0  0  0  0  0  0  0
  184.8470  178.3090  146.6570 C   0  0  0  0  0  3  0  0  0  0  0  0
  186.2530  178.0450  147.1050 C   0  0  0  0  0  2  0  0  0  0  0  0
  188.0950  176.9830  146.0950 O   0  0  0  0  0  0  0  0  0  0  0  0
  183.2650  179.2250  145.1880 O   0  0  0  0  0  1  0  0  0  0  0  0
  185.7070  179.3140  144.5710 C   0  0  2  0  0  3  0  0  0  0  0  0
  2  3  1  0  0  0  0
  3 12  2  0  0  0  0
  4 20  1  6  0  0  0
  4 14  1  0  0  0  0
  5 11  1  0  0  0  0
  6 11  1  0  0  0  0
  7  2  2  0  0  0  0
  7  9  1  0  0  0  0
  8  5  1  6  0  0  0
  8 15  1  0  0  0  0
  9  8  1  0  0  0  0
  9 13  2  0  0  0  0
 10 24  1  1  0  0  0
 11  4  1  0  0  0  0
 13 12  1  0  0  0  0
 13 10  1  0  0  0  0
 14  1  1  0  0  0  0
 15  1  1  1  0  0  0
 15 10  1  0  0  0  0
 16 18  1  0  0  0  0
 18 23  2  0  0  0  0
 19 16  2  0  0  0  0
 19 22  1  0  0  0  0
 20 23  1  0  0  0  0
 21 16  1  0  0  0  0
 22 20  2  0  0  0  0
 23 17  1  0  0  0  0
 25 26  1  0  0  0  0
 26 30  2  0  0  0  0
 26 29  1  0  0  0  0
 27 28  2  0  0  0  0
 28 29  1  0  0  0  0
 31 27  1  0  0  0  0
 32 24  1  6  0  0  0
 32 25  1  0  0  0  0
 32 27  1  0  0  0  0
M  END
>  <MODEL>
8

>  <REMARK>
 VINA RESULT:      -6.6      2.465      4.573
  Name = 
  3 active torsions:
  status: ('A' for Active; 'I' for Inactive)
    1  A    between atoms: C_8  and  C_19
    2  A    between atoms: C_16  and  C_27
    3  A    between atoms: C_27  and  C_32
                            x       y       z     vdW  Elec       q    Type
                         _______ _______ _______ _____ _____    ______ ____

>  <TORSDO>
F 3

$$$$
=
 OpenBabel10272413263D

 32 36  0  0  1  0  0  0  0  0999 V2000
  190.8190  175.7880  142.1980 C   0  0  0  0  0  2  0  0  0  0  0  0
  188.0240  178.7980  138.1290 C   0  0  0  0  0  3  0  0  0  0  0  0
  188.7780  177.9950  137.2520 C   0  0  0  0  0  3  0  0  0  0  0  0
  190.6670  177.5140  144.1350 C   0  0  2  0  0  3  0  0  0  0  0  0
  189.8930  178.9050  142.2560 C   0  0  0  0  0  2  0  0  0  0  0  0
  191.0000  179.8850  144.0960 C   0  0  0  0  0  1  0  0  0  0  0  0
  188.2950  178.7880  139.5060 C   0  0  0  0  0  3  0  0  0  0  0  0
  189.7240  177.6820  141.3580 C   0  0  1  0  0  3  0  0  0  0  0  0
  189.3520  178.0000  139.9650 C   0  0  0  0  0  0  0  0  0  0  0  0
  191.0560  176.4060  139.8930 C   0  0  2  0  0  3  0  0  0  0  0  0
  190.9250  178.6870  143.2740 N   0  0  0  0  0  0  0  0  0  0  0  0
  189.8110  177.1830  137.7480 C   0  0  0  0  0  3  0  0  0  0  0  0
  190.0910  177.2270  139.1150 C   0  0  0  0  0  0  0  0  0  0  0  0
  191.2690  176.1960  143.6080 C   0  0  0  0  0  2  0  0  0  0  0  0
  190.9680  176.9030  141.2750 N   0  0  2  0  0  0  0  0  0  0  0  0
  186.7910  177.3440  146.0460 C   0  0  0  0  0  0  0  0  0  0  0  0
  190.2690  177.6650  147.0780 F   0  0  0  0  0  0  0  0  0  0  0  0
  187.9290  177.4640  146.8440 C   0  0  0  0  0  3  0  0  0  0  0  0
  186.9160  177.2890  144.6580 C   0  0  0  0  0  3  0  0  0  0  0  0
  189.3350  177.4640  144.8590 C   0  0  0  0  0  0  0  0  0  0  0  0
  185.5650  177.2850  146.6180 F   0  0  0  0  0  0  0  0  0  0  0  0
  188.1820  177.3500  144.0700 C   0  0  0  0  0  3  0  0  0  0  0  0
  189.1990  177.5260  146.2620 C   0  0  0  0  0  0  0  0  0  0  0  0
  192.5090  176.4680  139.3780 C   0  0  0  0  0  2  0  0  0  0  0  0
  191.7550  174.6710  137.6850 C   0  0  0  0  0  2  0  0  0  0  0  0
  192.2250  173.6390  136.6970 C   0  0  0  0  0  0  0  0  0  0  0  0
  194.2300  174.9790  138.2250 C   0  0  0  0  0  0  0  0  0  0  0  0
  194.5760  174.0180  137.3660 C   0  0  0  0  0  3  0  0  0  0  0  0
  193.6600  173.5800  136.2640 C   0  0  0  0  0  2  0  0  0  0  0  0
  191.4200  172.8580  136.2190 O   0  0  0  0  0  0  0  0  0  0  0  0
  195.1640  175.4130  139.1570 O   0  0  0  0  0  1  0  0  0  0  0  0
  192.8700  175.6290  138.1340 C   0  0  2  0  0  3  0  0  0  0  0  0
  1 14  1  0  0  0  0
  2  7  1  0  0  0  0
  3 12  1  0  0  0  0
  3  2  2  0  0  0  0
  4 20  1  6  0  0  0
  5 11  1  0  0  0  0
  7  9  2  0  0  0  0
  8  5  1  1  0  0  0
  9  8  1  0  0  0  0
 10 24  1  6  0  0  0
 10 15  1  0  0  0  0
 11  6  1  0  0  0  0
 11  4  1  0  0  0  0
 12 13  2  0  0  0  0
 13 10  1  0  0  0  0
 13  9  1  0  0  0  0
 14  4  1  0  0  0  0
 15  8  1  0  0  0  0
 15  1  1  1  0  0  0
 16 21  1  0  0  0  0
 16 18  1  0  0  0  0
 19 16  2  0  0  0  0
 20 23  1  0  0  0  0
 22 19  1  0  0  0  0
 22 20  2  0  0  0  0
 23 18  2  0  0  0  0
 23 17  1  0  0  0  0
 25 32  1  0  0  0  0
 26 25  1  0  0  0  0
 27 31  1  0  0  0  0
 28 27  2  0  0  0  0
 29 26  1  0  0  0  0
 29 28  1  0  0  0  0
 30 26  2  0  0  0  0
 32 27  1  0  0  0  0
 32 24  1  1  0  0  0
M  END
>  <MODEL>
9

>  <REMARK>
 VINA RESULT:      -6.5      5.324      8.587
  Name = 
  3 active torsions:
  status: ('A' for Active; 'I' for Inactive)
    1  A    between atoms: C_8  and  C_19
    2  A    between atoms: C_16  and  C_27
    3  A    between atoms: C_27  and  C_32
                            x       y       z     vdW  Elec       q    Type
                         _______ _______ _______ _____ _____    ______ ____

>  <TORSDO>
F 3

$$$$
