=
 OpenBabel10272413323D

 32 37  0  0  1  0  0  0  0  0999 V2000
  190.7270  176.0830  143.3640 C   0  0  0  0  0  0  0  0  0  0  0  0
  187.3710  176.9530  144.1960 O   0  0  0  0  0  0  0  0  0  0  0  0
  185.1270  178.7750  140.1160 C   0  0  0  0  0  0  0  0  0  0  0  0
  180.4590  178.6410  141.6180 C   0  0  0  0  0  3  0  0  0  0  0  0
  180.0250  178.7450  140.2950 C   0  0  0  0  0  3  0  0  0  0  0  0
  186.9590  178.6150  141.6220 C   0  0  0  0  0  0  0  0  0  0  0  0
  184.7080  178.3230  142.4480 C   0  0  0  0  0  3  0  0  0  0  0  0
  189.5580  176.1530  144.1570 N   0  0  0  0  0  0  0  0  0  0  0  0
  186.5950  178.1450  144.0760 C   0  0  0  0  0  2  0  0  0  0  0  0
  181.8240  178.5540  141.9020 C   0  0  0  0  0  3  0  0  0  0  0  0
  184.2180  178.5330  141.1550 C   0  0  0  0  0  0  0  0  0  0  0  0
  182.7680  178.5650  140.8630 C   0  0  0  0  0  0  0  0  0  0  0  0
  183.3010  178.5880  138.3770 C   0  0  1  0  0  3  0  0  0  0  0  0
  190.6610  176.9650  141.8210 S   0  0  0  0  0  0  0  0  0  0  0  0
  188.8710  177.1730  142.1250 C   0  0  2  0  0  3  0  0  0  0  0  0
  191.7360  175.4240  143.7260 O   0  0  0  0  0  0  0  0  0  0  0  0
  186.0830  178.3490  142.6860 C   0  0  0  0  0  0  0  0  0  0  0  0
  188.4370  178.5970  141.8280 C   0  0  0  0  0  2  0  0  0  0  0  0
  188.6000  176.7640  143.5510 C   0  0  0  0  0  0  0  0  0  0  0  0
  180.9550  178.7520  139.2520 C   0  0  0  0  0  3  0  0  0  0  0  0
  182.3250  178.6630  139.5250 C   0  0  0  0  0  0  0  0  0  0  0  0
  186.4630  178.8140  140.3710 N   0  0  0  0  0  0  0  0  0  0  0  0
  184.6460  178.9910  138.7860 N   0  0  0  0  0  2  0  0  0  0  0  0
  184.8970  175.2520  136.1520 C   0  0  2  0  0  3  0  0  0  0  0  0
  183.8610  175.3810  135.0360 C   0  0  0  0  0  2  0  0  0  0  0  0
  182.1660  176.7060  136.3510 C   0  0  0  0  0  2  0  0  0  0  0  0
  181.5250  175.2690  134.5650 O   0  0  0  0  0  1  0  0  0  0  0  0
  182.4430  175.4050  135.6050 C   0  0  1  0  0  3  0  0  0  0  0  0
  184.9810  176.5300  136.9790 C   0  0  0  0  0  2  0  0  0  0  0  0
  186.1340  174.9890  135.5990 F   0  0  0  0  0  0  0  0  0  0  0  0
  183.0490  175.8910  138.7970 O   0  0  0  0  0  0  0  0  0  0  0  0
  183.3570  176.8940  137.7080 P   0  0  1  0  0  0  0  0  0  0  0  0
  1 16  2  0  0  0  0
  1  8  1  0  0  0  0
  3 22  2  0  0  0  0
  3 11  1  0  0  0  0
  4 10  1  0  0  0  0
  5  4  2  0  0  0  0
  6 18  1  0  0  0  0
  6 17  2  0  0  0  0
  7 17  1  0  0  0  0
  9  2  1  0  0  0  0
 11  7  2  0  0  0  0
 12 11  1  0  0  0  0
 12 10  2  0  0  0  0
 13 23  1  1  0  0  0
 13 21  1  0  0  0  0
 14 15  1  0  0  0  0
 14  1  1  0  0  0  0
 15 18  1  1  0  0  0
 15 19  1  0  0  0  0
 17  9  1  0  0  0  0
 19  8  2  0  0  0  0
 19  2  1  0  0  0  0
 20 21  2  0  0  0  0
 20  5  1  0  0  0  0
 21 12  1  0  0  0  0
 22  6  1  0  0  0  0
 23  3  1  0  0  0  0
 24 30  1  6  0  0  0
 24 29  1  0  0  0  0
 25 28  1  0  0  0  0
 25 24  1  0  0  0  0
 26 32  1  0  0  0  0
 28 27  1  6  0  0  0
 28 26  1  0  0  0  0
 29 32  1  0  0  0  0
 32 13  1  0  0  0  0
 32 31  2  1  0  0  0
M  END
>  <MODEL>
1

>  <REMARK>
 VINA RESULT:      -8.3      0.000      0.000
  Name = 
  1 active torsions:
  status: ('A' for Active; 'I' for Inactive)
    1  A    between atoms: C_16  and  P_32
                            x       y       z     vdW  Elec       q    Type
                         _______ _______ _______ _____ _____    ______ ____

>  <TORSDO>
F 1

$$$$
=
 OpenBabel10272413323D

 32 37  0  0  1  0  0  0  0  0999 V2000
  181.1770  176.1430  138.6390 C   0  0  0  0  0  0  0  0  0  0  0  0
  184.2530  175.2210  137.0900 O   0  0  0  0  0  0  0  0  0  0  0  0
  187.9170  178.0380  138.9960 C   0  0  0  0  0  0  0  0  0  0  0  0
  191.8090  175.5310  137.3710 C   0  0  0  0  0  3  0  0  0  0  0  0
  192.6190  176.1690  138.3120 C   0  0  0  0  0  3  0  0  0  0  0  0
  185.7390  177.7380  138.0960 C   0  0  0  0  0  0  0  0  0  0  0  0
  187.5360  176.2990  137.3680 C   0  0  0  0  0  3  0  0  0  0  0  0
  182.0530  175.3730  137.8390 N   0  0  0  0  0  0  0  0  0  0  0  0
  185.2660  175.9380  136.3880 C   0  0  0  0  0  2  0  0  0  0  0  0
  190.4350  175.7800  137.3460 C   0  0  0  0  0  3  0  0  0  0  0  0
  188.4140  176.9840  138.2150 C   0  0  0  0  0  0  0  0  0  0  0  0
  189.8580  176.6670  138.2690 C   0  0  0  0  0  0  0  0  0  0  0  0
  190.0850  178.1960  140.2880 C   0  0  1  0  0  3  0  0  0  0  0  0
  181.8740  177.6260  139.3290 S   0  0  0  0  0  0  0  0  0  0  0  0
  183.5010  177.0110  138.7680 C   0  0  2  0  0  3  0  0  0  0  0  0
  179.9900  175.7860  138.8550 O   0  0  0  0  0  0  0  0  0  0  0  0
  186.1910  176.6640  137.3130 C   0  0  0  0  0  0  0  0  0  0  0  0
  184.2960  178.1200  138.1050 C   0  0  0  0  0  2  0  0  0  0  0  0
  183.2530  175.8400  137.8500 C   0  0  0  0  0  0  0  0  0  0  0  0
  192.0560  177.0510  139.2380 C   0  0  0  0  0  3  0  0  0  0  0  0
  190.6790  177.3060  139.2250 C   0  0  0  0  0  0  0  0  0  0  0  0
  186.6060  178.3900  138.9160 N   0  0  0  0  0  0  0  0  0  0  0  0
  188.7980  178.7500  139.8700 N   0  0  0  0  0  2  0  0  0  0  0  0
  188.2040  177.0650  144.0040 C   0  0  2  0  0  3  0  0  0  0  0  0
  189.2840  177.7270  144.8600 C   0  0  0  0  0  2  0  0  0  0  0  0
  191.0710  177.8020  143.0820 C   0  0  0  0  0  2  0  0  0  0  0  0
  191.6070  177.6710  145.3980 O   0  0  0  0  0  1  0  0  0  0  0  0
  190.6770  177.2520  144.4490 C   0  0  1  0  0  3  0  0  0  0  0  0
  188.2350  177.5890  142.5720 C   0  0  0  0  0  2  0  0  0  0  0  0
  186.9640  177.3220  144.5540 F   0  0  0  0  0  0  0  0  0  0  0  0
  190.0250  175.7810  141.5840 O   0  0  0  0  0  0  0  0  0  0  0  0
  189.8640  177.2630  141.8380 P   0  0  1  0  0  0  0  0  0  0  0  0
  1 16  2  0  0  0  0
  1 14  1  0  0  0  0
  2 19  1  0  0  0  0
  3 23  1  0  0  0  0
  4  5  1  0  0  0  0
  5 20  2  0  0  0  0
  6 18  1  0  0  0  0
  6 22  1  0  0  0  0
  7 11  2  0  0  0  0
  8 19  2  0  0  0  0
  8  1  1  0  0  0  0
  9  2  1  0  0  0  0
  9 17  1  0  0  0  0
 10  4  2  0  0  0  0
 10 12  1  0  0  0  0
 11 12  1  0  0  0  0
 11  3  1  0  0  0  0
 12 21  2  0  0  0  0
 13 21  1  6  0  0  0
 13 32  1  0  0  0  0
 15 18  1  6  0  0  0
 15 14  1  0  0  0  0
 17  7  1  0  0  0  0
 17  6  2  0  0  0  0
 19 15  1  0  0  0  0
 21 20  1  0  0  0  0
 22  3  2  0  0  0  0
 23 13  1  0  0  0  0
 24 30  1  1  0  0  0
 24 25  1  0  0  0  0
 26 28  1  0  0  0  0
 28 25  1  0  0  0  0
 28 27  1  1  0  0  0
 29 24  1  0  0  0  0
 32 31  2  6  0  0  0
 32 29  1  0  0  0  0
 32 26  1  0  0  0  0
M  END
>  <MODEL>
2

>  <REMARK>
 VINA RESULT:      -8.2      3.907      8.928
  Name = 
  1 active torsions:
  status: ('A' for Active; 'I' for Inactive)
    1  A    between atoms: C_16  and  P_32
                            x       y       z     vdW  Elec       q    Type
                         _______ _______ _______ _____ _____    ______ ____

>  <TORSDO>
F 1

$$$$
=
 OpenBabel10272413323D

 32 37  0  0  1  0  0  0  0  0999 V2000
  190.6740  176.2080  143.2380 C   0  0  0  0  0  0  0  0  0  0  0  0
  187.2040  176.6450  143.9310 O   0  0  0  0  0  0  0  0  0  0  0  0
  185.0580  178.9000  140.0190 C   0  0  0  0  0  0  0  0  0  0  0  0
  180.3390  178.1300  141.1150 C   0  0  0  0  0  3  0  0  0  0  0  0
  179.9820  178.4080  139.7950 C   0  0  0  0  0  3  0  0  0  0  0  0
  186.7980  178.6570  141.6200 C   0  0  0  0  0  0  0  0  0  0  0  0
  184.5380  178.0450  142.2140 C   0  0  0  0  0  3  0  0  0  0  0  0
  189.4570  176.0500  143.9390 N   0  0  0  0  0  0  0  0  0  0  0  0
  186.3260  177.7690  143.9370 C   0  0  0  0  0  2  0  0  0  0  0  0
  181.6850  178.1150  141.4880 C   0  0  0  0  0  3  0  0  0  0  0  0
  184.1120  178.4180  140.9350 C   0  0  0  0  0  0  0  0  0  0  0  0
  182.6870  178.3730  140.5400 C   0  0  0  0  0  0  0  0  0  0  0  0
  183.3720  178.8410  138.1360 C   0  0  1  0  0  3  0  0  0  0  0  0
  190.6210  177.3190  141.8500 S   0  0  0  0  0  0  0  0  0  0  0  0
  188.8040  177.3220  142.0420 C   0  0  2  0  0  3  0  0  0  0  0  0
  191.7170  175.5880  143.5720 O   0  0  0  0  0  0  0  0  0  0  0  0
  185.8850  178.1500  142.5600 C   0  0  0  0  0  0  0  0  0  0  0  0
  188.2540  178.7320  141.9360 C   0  0  0  0  0  2  0  0  0  0  0  0
  188.4840  176.6670  143.3630 C   0  0  0  0  0  0  0  0  0  0  0  0
  180.9700  178.6620  138.8410 C   0  0  0  0  0  3  0  0  0  0  0  0
  182.3230  178.6470  139.2020 C   0  0  0  0  0  0  0  0  0  0  0  0
  186.3650  179.0120  140.3810 N   0  0  0  0  0  0  0  0  0  0  0  0
  184.6440  179.2860  138.7060 N   0  0  0  0  0  2  0  0  0  0  0  0
  184.1340  174.6260  137.6100 C   0  0  2  0  0  3  0  0  0  0  0  0
  185.5660  174.8500  137.1250 C   0  0  0  0  0  2  0  0  0  0  0  0
  185.2830  177.2670  136.4620 C   0  0  0  0  0  2  0  0  0  0  0  0
  186.8720  175.8500  135.3960 O   0  0  0  0  0  1  0  0  0  0  0  0
  185.6040  175.8570  135.9760 C   0  0  1  0  0  3  0  0  0  0  0  0
  183.5970  175.8550  138.3350 C   0  0  0  0  0  2  0  0  0  0  0  0
  184.1060  173.5450  138.4680 F   0  0  0  0  0  0  0  0  0  0  0  0
  182.5800  177.1290  136.1470 O   0  0  0  0  0  0  0  0  0  0  0  0
  183.6340  177.2880  137.2200 P   0  0  1  0  0  0  0  0  0  0  0  0
  1 16  2  0  0  0  0
  1  8  1  0  0  0  0
  2  9  1  0  0  0  0
  3 22  2  0  0  0  0
  3 11  1  0  0  0  0
  4 10  1  0  0  0  0
  5  4  2  0  0  0  0
  6 18  1  0  0  0  0
  6 17  2  0  0  0  0
  7 17  1  0  0  0  0
 11  7  2  0  0  0  0
 12 11  1  0  0  0  0
 12 10  2  0  0  0  0
 13 23  1  1  0  0  0
 13 21  1  0  0  0  0
 14 15  1  0  0  0  0
 14  1  1  0  0  0  0
 15 18  1  1  0  0  0
 15 19  1  0  0  0  0
 17  9  1  0  0  0  0
 19  2  1  0  0  0  0
 19  8  2  0  0  0  0
 20 21  2  0  0  0  0
 20  5  1  0  0  0  0
 21 12  1  0  0  0  0
 22  6  1  0  0  0  0
 23  3  1  0  0  0  0
 24 29  1  0  0  0  0
 24 30  1  1  0  0  0
 25 24  1  0  0  0  0
 26 32  1  0  0  0  0
 28 27  1  1  0  0  0
 28 26  1  0  0  0  0
 28 25  1  0  0  0  0
 32 31  2  6  0  0  0
 32 13  1  0  0  0  0
 32 29  1  0  0  0  0
M  END
>  <MODEL>
3

>  <REMARK>
 VINA RESULT:      -8.0      1.392      1.693
  Name = 
  1 active torsions:
  status: ('A' for Active; 'I' for Inactive)
    1  A    between atoms: C_16  and  P_32
                            x       y       z     vdW  Elec       q    Type
                         _______ _______ _______ _____ _____    ______ ____

>  <TORSDO>
F 1

$$$$
=
 OpenBabel10272413323D

 32 37  0  0  1  0  0  0  0  0999 V2000
  187.4380  176.2750  135.3820 C   0  0  0  0  0  0  0  0  0  0  0  0
  189.7630  175.1430  137.8370 O   0  0  0  0  0  0  0  0  0  0  0  0
  189.5510  178.2100  141.7800 C   0  0  0  0  0  0  0  0  0  0  0  0
  191.9970  175.5010  145.0590 C   0  0  0  0  0  3  0  0  0  0  0  0
  191.4660  176.2690  146.0960 C   0  0  0  0  0  3  0  0  0  0  0  0
  189.6440  177.7810  139.4450 C   0  0  0  0  0  0  0  0  0  0  0  0
  190.7150  176.2550  140.9800 C   0  0  0  0  0  3  0  0  0  0  0  0
  188.3670  175.3990  135.9890 N   0  0  0  0  0  0  0  0  0  0  0  0
  190.8460  175.7540  138.5350 C   0  0  0  0  0  2  0  0  0  0  0  0
  191.6070  175.7420  143.7390 C   0  0  0  0  0  3  0  0  0  0  0  0
  190.3000  177.0550  142.0490 C   0  0  0  0  0  0  0  0  0  0  0  0
  190.6770  176.7520  143.4470 C   0  0  0  0  0  0  0  0  0  0  0  0
  189.0670  178.5550  144.2380 C   0  0  1  0  0  3  0  0  0  0  0  0
  187.2200  177.8430  136.1920 S   0  0  0  0  0  0  0  0  0  0  0  0
  188.1900  177.1550  137.5790 C   0  0  2  0  0  3  0  0  0  0  0  0
  186.8010  175.9510  134.3460 O   0  0  0  0  0  0  0  0  0  0  0  0
  190.3790  176.6060  139.6720 C   0  0  0  0  0  0  0  0  0  0  0  0
  189.2200  178.1590  138.0650 C   0  0  0  0  0  2  0  0  0  0  0  0
  188.8100  175.8640  137.1050 C   0  0  0  0  0  0  0  0  0  0  0  0
  190.5360  177.2730  145.8190 C   0  0  0  0  0  3  0  0  0  0  0  0
  190.1350  177.5220  144.5010 C   0  0  0  0  0  0  0  0  0  0  0  0
  189.2470  178.5450  140.4970 N   0  0  0  0  0  0  0  0  0  0  0  0
  189.1160  179.0410  142.8590 N   0  0  0  0  0  2  0  0  0  0  0  0
  184.7990  178.0800  143.8150 C   0  0  2  0  0  3  0  0  0  0  0  0
  184.4970  178.7560  145.1520 C   0  0  0  0  0  2  0  0  0  0  0  0
  186.7850  178.4490  146.1660 C   0  0  0  0  0  2  0  0  0  0  0  0
  184.8240  178.5770  147.5080 O   0  0  0  0  0  1  0  0  0  0  0  0
  185.3020  178.1170  146.2830 C   0  0  1  0  0  3  0  0  0  0  0  0
  186.2090  178.4070  143.3350 C   0  0  0  0  0  2  0  0  0  0  0  0
  183.8880  178.5090  142.8700 F   0  0  0  0  0  0  0  0  0  0  0  0
  187.4850  176.3430  144.5840 O   0  0  0  0  0  0  0  0  0  0  0  0
  187.4190  177.8550  144.5720 P   0  0  1  0  0  0  0  0  0  0  0  0
  1  8  1  0  0  0  0
  1 14  1  0  0  0  0
  2  9  1  0  0  0  0
  3 11  1  0  0  0  0
  3 23  1  0  0  0  0
  4  5  1  0  0  0  0
  6 17  2  0  0  0  0
  6 22  1  0  0  0  0
  7 11  2  0  0  0  0
  8 19  2  0  0  0  0
  9 17  1  0  0  0  0
 10  4  2  0  0  0  0
 11 12  1  0  0  0  0
 12 10  1  0  0  0  0
 12 21  2  0  0  0  0
 13 23  1  6  0  0  0
 13 21  1  0  0  0  0
 13 32  1  0  0  0  0
 14 15  1  0  0  0  0
 15 18  1  6  0  0  0
 16  1  2  0  0  0  0
 17  7  1  0  0  0  0
 18  6  1  0  0  0  0
 19 15  1  0  0  0  0
 19  2  1  0  0  0  0
 20  5  2  0  0  0  0
 21 20  1  0  0  0  0
 22  3  2  0  0  0  0
 24 30  1  6  0  0  0
 24 25  1  0  0  0  0
 25 28  1  0  0  0  0
 26 28  1  0  0  0  0
 28 27  1  1  0  0  0
 29 24  1  0  0  0  0
 29 32  1  0  0  0  0
 32 31  2  1  0  0  0
 32 26  1  0  0  0  0
M  END
>  <MODEL>
4

>  <REMARK>
 VINA RESULT:      -7.9      4.313      8.526
  Name = 
  1 active torsions:
  status: ('A' for Active; 'I' for Inactive)
    1  A    between atoms: C_16  and  P_32
                            x       y       z     vdW  Elec       q    Type
                         _______ _______ _______ _____ _____    ______ ____

>  <TORSDO>
F 1

$$$$
=
 OpenBabel10272413323D

 32 37  0  0  1  0  0  0  0  0999 V2000
  188.8920  177.0450  145.8450 C   0  0  0  0  0  0  0  0  0  0  0  0
  186.7180  177.7300  143.1020 O   0  0  0  0  0  0  0  0  0  0  0  0
  189.4090  177.7540  138.8890 C   0  0  0  0  0  0  0  0  0  0  0  0
  185.7780  177.5730  135.5950 C   0  0  0  0  0  3  0  0  0  0  0  0
  186.6820  177.1630  134.6140 C   0  0  0  0  0  3  0  0  0  0  0  0
  189.0440  178.3450  141.1610 C   0  0  0  0  0  0  0  0  0  0  0  0
  187.1540  178.0810  139.6810 C   0  0  0  0  0  3  0  0  0  0  0  0
  187.6620  177.2390  145.1750 N   0  0  0  0  0  0  0  0  0  0  0  0
  186.7110  178.7040  142.0600 C   0  0  0  0  0  2  0  0  0  0  0  0
  186.2090  177.7560  136.9120 C   0  0  0  0  0  3  0  0  0  0  0  0
  188.0300  177.7730  138.6350 C   0  0  0  0  0  0  0  0  0  0  0  0
  187.5490  177.5260  137.2580 C   0  0  0  0  0  0  0  0  0  0  0  0
  189.8870  176.7600  136.6130 C   0  0  1  0  0  3  0  0  0  0  0  0
  190.3500  177.3310  144.8670 S   0  0  0  0  0  0  0  0  0  0  0  0
  189.2460  177.4090  143.4130 C   0  0  2  0  0  3  0  0  0  0  0  0
  188.9420  176.6790  147.0470 O   0  0  0  0  0  0  0  0  0  0  0  0
  187.6550  178.3560  140.9540 C   0  0  0  0  0  0  0  0  0  0  0  0
  189.6130  178.5810  142.5210 C   0  0  0  0  0  2  0  0  0  0  0  0
  187.8280  177.4840  143.9220 C   0  0  0  0  0  0  0  0  0  0  0  0
  188.0170  176.9260  134.9470 C   0  0  0  0  0  3  0  0  0  0  0  0
  188.4600  177.1040  136.2630 C   0  0  0  0  0  0  0  0  0  0  0  0
  189.8800  178.0420  140.1320 N   0  0  0  0  0  0  0  0  0  0  0  0
  190.3210  177.4410  137.8330 N   0  0  0  0  0  2  0  0  0  0  0  0
  190.7000  172.6850  135.4520 C   0  0  2  0  0  3  0  0  0  0  0  0
  189.2260  172.2810  135.4900 C   0  0  0  0  0  2  0  0  0  0  0  0
  188.4360  174.1700  136.9610 C   0  0  0  0  0  2  0  0  0  0  0  0
  187.3340  172.0610  136.9250 O   0  0  0  0  0  1  0  0  0  0  0  0
  188.5890  172.6590  136.8260 C   0  0  1  0  0  3  0  0  0  0  0  0
  190.8580  174.1990  135.3850 C   0  0  0  0  0  2  0  0  0  0  0  0
  191.3010  172.1170  134.3460 F   0  0  0  0  0  0  0  0  0  0  0  0
  190.8740  174.6620  138.0750 O   0  0  0  0  0  0  0  0  0  0  0  0
  190.0650  174.9610  136.8320 P   0  0  1  0  0  0  0  0  0  0  0  0
  1 16  2  0  0  0  0
  2 19  1  0  0  0  0
  3 22  2  0  0  0  0
  4 10  1  0  0  0  0
  5 20  1  0  0  0  0
  5  4  2  0  0  0  0
  6 18  1  0  0  0  0
  7 17  1  0  0  0  0
  8  1  1  0  0  0  0
  9  2  1  0  0  0  0
 10 12  2  0  0  0  0
 11  3  1  0  0  0  0
 11  7  2  0  0  0  0
 12 11  1  0  0  0  0
 13 21  1  1  0  0  0
 13 32  1  0  0  0  0
 13 23  1  0  0  0  0
 14  1  1  0  0  0  0
 15 18  1  1  0  0  0
 15 19  1  0  0  0  0
 15 14  1  0  0  0  0
 17  6  2  0  0  0  0
 17  9  1  0  0  0  0
 19  8  2  0  0  0  0
 20 21  2  0  0  0  0
 21 12  1  0  0  0  0
 22  6  1  0  0  0  0
 23  3  1  0  0  0  0
 24 30  1  6  0  0  0
 24 25  1  0  0  0  0
 25 28  1  0  0  0  0
 28 27  1  6  0  0  0
 28 26  1  0  0  0  0
 29 24  1  0  0  0  0
 29 32  1  0  0  0  0
 32 26  1  0  0  0  0
 32 31  2  1  0  0  0
M  END
>  <MODEL>
5

>  <REMARK>
 VINA RESULT:      -7.4      4.042      5.546
  Name = 
  1 active torsions:
  status: ('A' for Active; 'I' for Inactive)
    1  A    between atoms: C_16  and  P_32
                            x       y       z     vdW  Elec       q    Type
                         _______ _______ _______ _____ _____    ______ ____

>  <TORSDO>
F 1

$$$$
=
 OpenBabel10272413323D

 32 37  0  0  1  0  0  0  0  0999 V2000
  189.0660  177.1370  144.3800 C   0  0  0  0  0  0  0  0  0  0  0  0
  185.8810  177.8320  142.9350 O   0  0  0  0  0  0  0  0  0  0  0  0
  186.3870  178.0500  137.9660 C   0  0  0  0  0  0  0  0  0  0  0  0
  181.6650  177.8510  136.6510 C   0  0  0  0  0  3  0  0  0  0  0  0
  182.0370  177.4950  135.3530 C   0  0  0  0  0  3  0  0  0  0  0  0
  187.0760  178.5680  140.1810 C   0  0  0  0  0  0  0  0  0  0  0  0
  184.7260  178.2880  139.6990 C   0  0  0  0  0  3  0  0  0  0  0  0
  187.6640  177.3120  144.3430 N   0  0  0  0  0  0  0  0  0  0  0  0
  185.3920  178.8330  142.0450 C   0  0  0  0  0  2  0  0  0  0  0  0
  182.6400  178.0110  137.6390 C   0  0  0  0  0  3  0  0  0  0  0  0
  185.0420  178.0350  138.3590 C   0  0  0  0  0  0  0  0  0  0  0  0
  183.9960  177.8110  137.3370 C   0  0  0  0  0  0  0  0  0  0  0  0
  185.8040  177.1330  135.6830 C   0  0  1  0  0  3  0  0  0  0  0  0
  189.9240  177.4920  142.8630 S   0  0  0  0  0  0  0  0  0  0  0  0
  188.2830  177.5770  142.0650 C   0  0  2  0  0  3  0  0  0  0  0  0
  189.6580  176.7400  145.4170 O   0  0  0  0  0  0  0  0  0  0  0  0
  185.7420  178.5430  140.6200 C   0  0  0  0  0  0  0  0  0  0  0  0
  188.1920  178.7830  141.1470 C   0  0  0  0  0  2  0  0  0  0  0  0
  187.2440  177.5960  143.1590 C   0  0  0  0  0  0  0  0  0  0  0  0
  183.3830  177.2890  135.0420 C   0  0  0  0  0  3  0  0  0  0  0  0
  184.3680  177.4440  136.0240 C   0  0  0  0  0  0  0  0  0  0  0  0
  187.3630  178.3170  138.8750 N   0  0  0  0  0  0  0  0  0  0  0  0
  186.7310  177.7930  136.6020 N   0  0  0  0  0  2  0  0  0  0  0  0
  185.4600  173.1010  137.1810 C   0  0  2  0  0  3  0  0  0  0  0  0
  186.8910  173.0790  137.7180 C   0  0  0  0  0  2  0  0  0  0  0  0
  187.7710  174.9700  136.3020 C   0  0  0  0  0  2  0  0  0  0  0  0
  189.1840  173.2160  137.0740 O   0  0  0  0  0  1  0  0  0  0  0  0
  187.8890  173.4870  136.6350 C   0  0  1  0  0  3  0  0  0  0  0  0
  184.9860  174.5280  136.9280 C   0  0  0  0  0  2  0  0  0  0  0  0
  184.6190  172.4990  138.0960 F   0  0  0  0  0  0  0  0  0  0  0  0
  185.8770  174.7350  134.3570 O   0  0  0  0  0  0  0  0  0  0  0  0
  186.0870  175.3340  135.7300 P   0  0  1  0  0  0  0  0  0  0  0  0
  1 16  2  0  0  0  0
  2 19  1  0  0  0  0
  3 11  1  0  0  0  0
  3 22  2  0  0  0  0
  4 10  1  0  0  0  0
  5  4  2  0  0  0  0
  6 17  2  0  0  0  0
  6 18  1  0  0  0  0
  7 17  1  0  0  0  0
  8  1  1  0  0  0  0
  9  2  1  0  0  0  0
 11  7  2  0  0  0  0
 12 10  2  0  0  0  0
 12 11  1  0  0  0  0
 13 32  1  0  0  0  0
 13 21  1  1  0  0  0
 13 23  1  0  0  0  0
 14  1  1  0  0  0  0
 15 18  1  1  0  0  0
 15 14  1  0  0  0  0
 15 19  1  0  0  0  0
 17  9  1  0  0  0  0
 19  8  2  0  0  0  0
 20  5  1  0  0  0  0
 20 21  2  0  0  0  0
 21 12  1  0  0  0  0
 22  6  1  0  0  0  0
 23  3  1  0  0  0  0
 24 25  1  0  0  0  0
 24 30  1  1  0  0  0
 26 28  1  0  0  0  0
 28 27  1  1  0  0  0
 28 25  1  0  0  0  0
 29 24  1  0  0  0  0
 32 31  2  6  0  0  0
 32 26  1  0  0  0  0
 32 29  1  0  0  0  0
M  END
>  <MODEL>
6

>  <REMARK>
 VINA RESULT:      -7.4      2.510      3.773
  Name = 
  1 active torsions:
  status: ('A' for Active; 'I' for Inactive)
    1  A    between atoms: C_16  and  P_32
                            x       y       z     vdW  Elec       q    Type
                         _______ _______ _______ _____ _____    ______ ____

>  <TORSDO>
F 1

$$$$
=
 OpenBabel10272413323D

 32 37  0  0  1  0  0  0  0  0999 V2000
  189.8890  175.8660  135.6640 C   0  0  0  0  0  0  0  0  0  0  0  0
  190.1230  175.5470  139.2070 O   0  0  0  0  0  0  0  0  0  0  0  0
  187.2160  179.0190  141.3270 C   0  0  0  0  0  0  0  0  0  0  0  0
  187.1030  177.3010  145.9210 C   0  0  0  0  0  3  0  0  0  0  0  0
  185.9800  178.0850  146.1910 C   0  0  0  0  0  3  0  0  0  0  0  0
  188.8300  178.3040  139.7350 C   0  0  0  0  0  0  0  0  0  0  0  0
  188.7360  177.2350  141.8990 C   0  0  0  0  0  3  0  0  0  0  0  0
  190.2500  175.2760  136.8970 N   0  0  0  0  0  0  0  0  0  0  0  0
  190.4540  176.4440  140.2660 C   0  0  0  0  0  2  0  0  0  0  0  0
  187.6500  177.2820  144.6350 C   0  0  0  0  0  3  0  0  0  0  0  0
  187.6790  178.0780  142.2580 C   0  0  0  0  0  0  0  0  0  0  0  0
  187.0740  178.0440  143.6070 C   0  0  0  0  0  0  0  0  0  0  0  0
  185.2320  179.5930  142.7850 C   0  0  1  0  0  3  0  0  0  0  0  0
  189.1030  177.4570  135.7770 S   0  0  0  0  0  0  0  0  0  0  0  0
  188.9780  177.1640  137.5760 C   0  0  2  0  0  3  0  0  0  0  0  0
  190.0990  175.2890  134.5660 O   0  0  0  0  0  0  0  0  0  0  0  0
  189.3100  177.3350  140.6310 C   0  0  0  0  0  0  0  0  0  0  0  0
  189.3820  178.4030  138.3520 C   0  0  0  0  0  2  0  0  0  0  0  0
  189.8330  175.9650  137.9020 C   0  0  0  0  0  0  0  0  0  0  0  0
  185.3950  178.8440  145.1750 C   0  0  0  0  0  3  0  0  0  0  0  0
  185.9330  178.8310  143.8830 C   0  0  0  0  0  0  0  0  0  0  0  0
  187.8000  179.1120  140.1010 N   0  0  0  0  0  0  0  0  0  0  0  0
  186.1360  179.8890  141.6730 N   0  0  0  0  0  2  0  0  0  0  0  0
  181.9790  178.5920  140.1330 C   0  0  2  0  0  3  0  0  0  0  0  0
  180.9080  179.0580  141.1190 C   0  0  0  0  0  2  0  0  0  0  0  0
  182.3410  178.9490  143.1900 C   0  0  0  0  0  2  0  0  0  0  0  0
  179.9820  178.6490  143.2790 O   0  0  0  0  0  1  0  0  0  0  0  0
  181.1030  178.4050  142.4870 C   0  0  1  0  0  3  0  0  0  0  0  0
  183.3460  179.1630  140.4900 C   0  0  0  0  0  2  0  0  0  0  0  0
  181.6360  179.0010  138.8590 F   0  0  0  0  0  0  0  0  0  0  0  0
  184.1270  177.1600  142.1710 O   0  0  0  0  0  0  0  0  0  0  0  0
  183.8080  178.6390  142.1670 P   0  0  1  0  0  0  0  0  0  0  0  0
  1 14  1  0  0  0  0
  1  8  1  0  0  0  0
  2  9  1  0  0  0  0
  3 23  1  0  0  0  0
  3 11  1  0  0  0  0
  4  5  1  0  0  0  0
  6 22  1  0  0  0  0
  6 17  2  0  0  0  0
  7 11  2  0  0  0  0
  8 19  2  0  0  0  0
  9 17  1  0  0  0  0
 10  4  2  0  0  0  0
 11 12  1  0  0  0  0
 12 21  2  0  0  0  0
 12 10  1  0  0  0  0
 13 23  1  6  0  0  0
 13 21  1  0  0  0  0
 14 15  1  0  0  0  0
 15 19  1  0  0  0  0
 15 18  1  1  0  0  0
 16  1  2  0  0  0  0
 17  7  1  0  0  0  0
 18  6  1  0  0  0  0
 19  2  1  0  0  0  0
 20  5  2  0  0  0  0
 21 20  1  0  0  0  0
 22  3  2  0  0  0  0
 24 30  1  6  0  0  0
 24 29  1  0  0  0  0
 24 25  1  0  0  0  0
 25 28  1  0  0  0  0
 28 26  1  0  0  0  0
 28 27  1  1  0  0  0
 29 32  1  0  0  0  0
 32 31  2  1  0  0  0
 32 13  1  0  0  0  0
 32 26  1  0  0  0  0
M  END
>  <MODEL>
7

>  <REMARK>
 VINA RESULT:      -7.3      3.649      6.030
  Name = 
  1 active torsions:
  status: ('A' for Active; 'I' for Inactive)
    1  A    between atoms: C_16  and  P_32
                            x       y       z     vdW  Elec       q    Type
                         _______ _______ _______ _____ _____    ______ ____

>  <TORSDO>
F 1

$$$$
=
 OpenBabel10272413323D

 32 37  0  0  1  0  0  0  0  0999 V2000
  184.4540  174.8860  135.1750 C   0  0  0  0  0  0  0  0  0  0  0  0
  187.6570  174.6890  136.7310 O   0  0  0  0  0  0  0  0  0  0  0  0
  188.0150  178.3350  140.1330 C   0  0  0  0  0  0  0  0  0  0  0  0
  191.9810  176.7920  142.5750 C   0  0  0  0  0  3  0  0  0  0  0  0
  191.6510  177.6230  143.6460 C   0  0  0  0  0  3  0  0  0  0  0  0
  187.4380  177.5080  137.9820 C   0  0  0  0  0  0  0  0  0  0  0  0
  189.2890  176.5220  139.1790 C   0  0  0  0  0  3  0  0  0  0  0  0
  185.7140  174.3300  135.4960 N   0  0  0  0  0  0  0  0  0  0  0  0
  188.7270  175.6120  136.9210 C   0  0  0  0  0  2  0  0  0  0  0  0
  191.1330  176.7060  141.4670 C   0  0  0  0  0  3  0  0  0  0  0  0
  189.0670  177.4130  140.2350 C   0  0  0  0  0  0  0  0  0  0  0  0
  189.9430  177.4500  141.4260 C   0  0  0  0  0  0  0  0  0  0  0  0
  188.2970  179.0300  142.5480 C   0  0  1  0  0  3  0  0  0  0  0  0
  184.1410  176.5070  135.8380 S   0  0  0  0  0  0  0  0  0  0  0  0
  185.6490  176.2840  136.8450 C   0  0  2  0  0  3  0  0  0  0  0  0
  183.6110  174.2630  134.4810 O   0  0  0  0  0  0  0  0  0  0  0  0
  188.4670  176.5550  138.0520 C   0  0  0  0  0  0  0  0  0  0  0  0
  186.5050  177.5370  136.8170 C   0  0  0  0  0  2  0  0  0  0  0  0
  186.3720  175.0690  136.3200 C   0  0  0  0  0  0  0  0  0  0  0  0
  190.4670  178.3640  143.6180 C   0  0  0  0  0  3  0  0  0  0  0  0
  189.6080  178.2850  142.5150 C   0  0  0  0  0  0  0  0  0  0  0  0
  187.2360  178.3640  139.0190 N   0  0  0  0  0  0  0  0  0  0  0  0
  187.7710  179.2540  141.2010 N   0  0  0  0  0  2  0  0  0  0  0  0
  184.4390  178.1570  144.2720 C   0  0  2  0  0  3  0  0  0  0  0  0
  184.8710  178.5640  145.6800 C   0  0  0  0  0  2  0  0  0  0  0  0
  187.3550  178.3530  145.3030 C   0  0  0  0  0  2  0  0  0  0  0  0
  186.3800  178.0370  147.4510 O   0  0  0  0  0  1  0  0  0  0  0  0
  186.1540  177.8420  146.0900 C   0  0  1  0  0  3  0  0  0  0  0  0
  185.3880  178.7140  143.2180 C   0  0  0  0  0  2  0  0  0  0  0  0
  183.1640  178.6310  144.0300 F   0  0  0  0  0  0  0  0  0  0  0  0
  187.1480  176.6290  143.2030 O   0  0  0  0  0  0  0  0  0  0  0  0
  187.0710  178.1040  143.5270 P   0  0  1  0  0  0  0  0  0  0  0  0
  1  8  1  0  0  0  0
  1 14  1  0  0  0  0
  2  9  1  0  0  0  0
  3 11  1  0  0  0  0
  3 23  1  0  0  0  0
  4  5  1  0  0  0  0
  6 17  2  0  0  0  0
  6 22  1  0  0  0  0
  7 11  2  0  0  0  0
  8 19  2  0  0  0  0
  9 17  1  0  0  0  0
 10  4  2  0  0  0  0
 11 12  1  0  0  0  0
 12 10  1  0  0  0  0
 12 21  2  0  0  0  0
 13 23  1  6  0  0  0
 13 32  1  0  0  0  0
 14 15  1  0  0  0  0
 15 18  1  6  0  0  0
 16  1  2  0  0  0  0
 17  7  1  0  0  0  0
 18  6  1  0  0  0  0
 19  2  1  0  0  0  0
 19 15  1  0  0  0  0
 20  5  2  0  0  0  0
 21 13  1  0  0  0  0
 21 20  1  0  0  0  0
 22  3  2  0  0  0  0
 24 30  1  6  0  0  0
 24 25  1  0  0  0  0
 25 28  1  0  0  0  0
 26 28  1  0  0  0  0
 28 27  1  1  0  0  0
 29 32  1  0  0  0  0
 29 24  1  0  0  0  0
 32 31  2  6  0  0  0
 32 26  1  0  0  0  0
M  END
>  <MODEL>
8

>  <REMARK>
 VINA RESULT:      -7.2      3.971      8.511
  Name = 
  1 active torsions:
  status: ('A' for Active; 'I' for Inactive)
    1  A    between atoms: C_16  and  P_32
                            x       y       z     vdW  Elec       q    Type
                         _______ _______ _______ _____ _____    ______ ____

>  <TORSDO>
F 1

$$$$
=
 OpenBabel10272413323D

 32 37  0  0  1  0  0  0  0  0999 V2000
  191.3120  175.4980  136.5330 C   0  0  0  0  0  0  0  0  0  0  0  0
  190.2260  176.2200  139.8520 O   0  0  0  0  0  0  0  0  0  0  0  0
  185.9510  178.8010  139.6140 C   0  0  0  0  0  0  0  0  0  0  0  0
  184.5010  178.4190  144.2860 C   0  0  0  0  0  3  0  0  0  0  0  0
  183.2030  178.7760  143.9170 C   0  0  0  0  0  3  0  0  0  0  0  0
  188.1790  178.3430  138.9270 C   0  0  0  0  0  0  0  0  0  0  0  0
  187.5260  177.9160  141.2120 C   0  0  0  0  0  3  0  0  0  0  0  0
  191.3030  175.4250  137.9450 N   0  0  0  0  0  0  0  0  0  0  0  0
  189.8820  177.4180  140.5460 C   0  0  0  0  0  2  0  0  0  0  0  0
  185.4900  178.2690  143.3100 C   0  0  0  0  0  3  0  0  0  0  0  0
  186.2370  178.3730  140.9180 C   0  0  0  0  0  0  0  0  0  0  0  0
  185.1860  178.4710  141.9550 C   0  0  0  0  0  0  0  0  0  0  0  0
  183.4810  178.9620  140.1330 C   0  0  1  0  0  3  0  0  0  0  0  0
  190.1700  176.6590  135.8190 S   0  0  0  0  0  0  0  0  0  0  0  0
  189.4360  176.8180  137.4840 C   0  0  2  0  0  3  0  0  0  0  0  0
  192.0700  174.7750  135.8360 O   0  0  0  0  0  0  0  0  0  0  0  0
  188.5010  177.8870  140.2150 C   0  0  0  0  0  0  0  0  0  0  0  0
  189.1800  178.2760  137.8220 C   0  0  0  0  0  2  0  0  0  0  0  0
  190.3700  176.1470  138.4600 C   0  0  0  0  0  0  0  0  0  0  0  0
  182.8870  178.9740  142.5710 C   0  0  0  0  0  3  0  0  0  0  0  0
  183.8690  178.8250  141.5840 C   0  0  0  0  0  0  0  0  0  0  0  0
  186.9190  178.7810  138.6600 N   0  0  0  0  0  0  0  0  0  0  0  0
  184.6380  179.2700  139.2930 N   0  0  0  0  0  2  0  0  0  0  0  0
  183.1920  175.2290  137.9870 C   0  0  2  0  0  3  0  0  0  0  0  0
  182.2610  175.8060  136.9210 C   0  0  0  0  0  2  0  0  0  0  0  0
  181.4680  177.7910  138.2590 C   0  0  0  0  0  2  0  0  0  0  0  0
  180.1150  176.7890  136.5770 O   0  0  0  0  0  1  0  0  0  0  0  0
  181.0580  176.4990  137.5610 C   0  0  1  0  0  3  0  0  0  0  0  0
  183.9150  176.3350  138.7480 C   0  0  0  0  0  2  0  0  0  0  0  0
  184.1250  174.4090  137.3840 F   0  0  0  0  0  0  0  0  0  0  0  0
  182.0340  176.7010  140.6910 O   0  0  0  0  0  0  0  0  0  0  0  0
  182.6990  177.4260  139.5420 P   0  0  1  0  0  0  0  0  0  0  0  0
  1  8  1  0  0  0  0
  2  9  1  0  0  0  0
  3 11  1  0  0  0  0
  5  4  1  0  0  0  0
  6 17  2  0  0  0  0
  8 19  2  0  0  0  0
 10  4  2  0  0  0  0
 11  7  2  0  0  0  0
 11 12  1  0  0  0  0
 12 10  1  0  0  0  0
 13 23  1  6  0  0  0
 13 21  1  0  0  0  0
 14  1  1  0  0  0  0
 14 15  1  0  0  0  0
 15 18  1  1  0  0  0
 15 19  1  0  0  0  0
 16  1  2  0  0  0  0
 17  9  1  0  0  0  0
 17  7  1  0  0  0  0
 18  6  1  0  0  0  0
 19  2  1  0  0  0  0
 20  5  2  0  0  0  0
 21 12  2  0  0  0  0
 21 20  1  0  0  0  0
 22  6  1  0  0  0  0
 22  3  2  0  0  0  0
 23  3  1  0  0  0  0
 24 30  1  6  0  0  0
 24 29  1  0  0  0  0
 25 28  1  0  0  0  0
 25 24  1  0  0  0  0
 26 32  1  0  0  0  0
 28 27  1  6  0  0  0
 28 26  1  0  0  0  0
 29 32  1  0  0  0  0
 32 13  1  0  0  0  0
 32 31  2  1  0  0  0
M  END
>  <MODEL>
9

>  <REMARK>
 VINA RESULT:      -6.8      3.198      3.936
  Name = 
  1 active torsions:
  status: ('A' for Active; 'I' for Inactive)
    1  A    between atoms: C_16  and  P_32
                            x       y       z     vdW  Elec       q    Type
                         _______ _______ _______ _____ _____    ______ ____

>  <TORSDO>
F 1

$$$$
