=
 OpenBabel10272400273D

 31 34  0  0  1  0  0  0  0  0999 V2000
  190.7800  177.3510  146.1450 C   0  0  2  0  0  3  0  0  0  0  0  0
  188.9530  177.4180  144.4180 C   0  0  1  0  0  3  0  0  0  0  0  0
  191.7680  176.9120  145.0730 C   0  0  0  0  0  2  0  0  0  0  0  0
  191.1840  176.7600  147.4780 C   0  0  0  0  0  1  0  0  0  0  0  0
  189.3770  176.8750  145.7850 C   0  0  0  0  0  2  0  0  0  0  0  0
  189.9780  177.0660  143.3190 C   0  0  2  0  0  3  0  0  0  0  0  0
  191.3760  177.5190  143.7320 C   0  0  0  0  0  2  0  0  0  0  0  0
  187.5570  176.9610  144.0890 C   0  0  0  0  0  0  0  0  0  0  0  0
  187.4370  175.9680  143.3250 O   0  0  0  0  0  0  0  0  0  0  0  0
  186.3450  177.6540  144.6150 C   0  0  0  0  0  0  0  0  0  0  0  0
  185.0470  178.3680  146.5530 C   0  0  0  0  0  3  0  0  0  0  0  0
  186.1610  177.7320  146.0060 C   0  0  0  0  0  3  0  0  0  0  0  0
  184.0900  178.9360  145.7170 C   0  0  0  0  0  3  0  0  0  0  0  0
  184.2450  178.8650  144.3330 C   0  0  0  0  0  3  0  0  0  0  0  0
  185.3640  178.2310  143.7650 C   0  0  0  0  0  0  0  0  0  0  0  0
  186.2320  179.2970  141.6790 C   0  0  0  0  0  1  0  0  0  0  0  0
  184.0810  178.0370  141.6350 C   0  0  0  0  0  1  0  0  0  0  0  0
  185.4580  178.1310  142.2670 C   0  0  0  0  0  3  0  0  0  0  0  0
  189.6300  177.7480  142.0060 C   0  0  0  0  0  2  0  0  0  0  0  0
  190.4330  177.1370  140.8700 C   0  0  0  0  0  2  0  0  0  0  0  0
  190.0080  177.7020  139.5990 N   0  0  0  0  0  2  0  0  0  0  0  0
  185.5700  177.1220  136.9520 C   0  0  0  0  0  0  0  0  0  0  0  0
  187.1820  178.0210  138.5450 C   0  0  0  0  0  3  0  0  0  0  0  0
  188.7810  175.2580  136.7490 C   0  0  0  0  0  3  0  0  0  0  0  0
  190.1040  175.6420  137.7320 S   0  0  0  0  0  0  0  0  0  0  0  0
  183.9730  177.1670  136.2370 Cl  0  0  0  0  0  0  0  0  0  0  0  0
  189.3970  176.9170  138.5720 C   0  0  0  0  0  0  0  0  0  0  0  0
  185.9070  178.0410  137.9620 C   0  0  0  0  0  3  0  0  0  0  0  0
  187.7700  176.1520  137.0960 C   0  0  0  0  0  0  0  0  0  0  0  0
  188.1060  177.0710  138.1040 C   0  0  0  0  0  0  0  0  0  0  0  0
  186.5030  176.1710  136.5140 C   0  0  0  0  0  3  0  0  0  0  0  0
  1  4  1  1  0  0  0
  2  8  1  6  0  0  0
  2  5  1  0  0  0  0
  3  1  1  0  0  0  0
  5  1  1  0  0  0  0
  6 19  1  6  0  0  0
  6  7  1  0  0  0  0
  6  2  1  0  0  0  0
  7  3  1  0  0  0  0
  8 10  1  0  0  0  0
  9  8  2  0  0  0  0
 10 12  1  0  0  0  0
 12 11  2  0  0  0  0
 13 11  1  0  0  0  0
 14 13  2  0  0  0  0
 15 14  1  0  0  0  0
 15 10  2  0  0  0  0
 16 18  1  0  0  0  0
 17 18  1  0  0  0  0
 18 15  1  0  0  0  0
 20 19  1  0  0  0  0
 21 20  1  0  0  0  0
 22 28  1  0  0  0  0
 24 29  2  0  0  0  0
 24 25  1  0  0  0  0
 25 27  1  0  0  0  0
 26 22  1  0  0  0  0
 27 21  1  0  0  0  0
 28 23  2  0  0  0  0
 29 30  1  0  0  0  0
 30 23  1  0  0  0  0
 30 27  2  0  0  0  0
 31 22  2  0  0  0  0
 31 29  1  0  0  0  0
M  END
>  <MODEL>
1

>  <REMARK>
 VINA RESULT:      -9.2      0.000      0.000
  Name = 
  7 active torsions:
  status: ('A' for Active; 'I' for Inactive)
    1  A    between atoms: C_4  and  C_5
    2  A    between atoms: C_4  and  C_12
    3  A    between atoms: C_9  and  N_23
    4  A    between atoms: C_15  and  C_20
    5  A    between atoms: C_15  and  N_23
    6  A    between atoms: C_20  and  C_27
    7  A    between atoms: C_30  and  C_31
                            x       y       z     vdW  Elec       q    Type
                         _______ _______ _______ _____ _____    ______ ____

>  <TORSDO>
F 7

$$$$
=
 OpenBabel10272400273D

 31 34  0  0  1  0  0  0  0  0999 V2000
  185.6220  176.6650  137.0330 C   0  0  2  0  0  3  0  0  0  0  0  0
  185.5250  178.0720  139.1150 C   0  0  1  0  0  3  0  0  0  0  0  0
  187.0950  177.0150  136.8720 C   0  0  0  0  0  2  0  0  0  0  0  0
  185.0010  176.4490  135.6700 C   0  0  0  0  0  1  0  0  0  0  0  0
  184.8930  177.7970  137.7480 C   0  0  0  0  0  2  0  0  0  0  0  0
  187.0400  178.3460  139.0000 C   0  0  2  0  0  3  0  0  0  0  0  0
  187.7290  177.2140  138.2430 C   0  0  0  0  0  2  0  0  0  0  0  0
  184.7790  179.1740  139.8180 C   0  0  0  0  0  0  0  0  0  0  0  0
  184.6310  180.2610  139.1990 O   0  0  0  0  0  0  0  0  0  0  0  0
  184.2460  179.0200  141.2030 C   0  0  0  0  0  0  0  0  0  0  0  0
  184.6630  179.1350  143.6040 C   0  0  0  0  0  3  0  0  0  0  0  0
  185.1060  179.2630  142.2880 C   0  0  0  0  0  3  0  0  0  0  0  0
  183.3480  178.7550  143.8610 C   0  0  0  0  0  3  0  0  0  0  0  0
  182.4780  178.4990  142.8020 C   0  0  0  0  0  3  0  0  0  0  0  0
  182.9080  178.6280  141.4700 C   0  0  0  0  0  0  0  0  0  0  0  0
  180.5180  178.6230  140.7420 C   0  0  0  0  0  1  0  0  0  0  0  0
  182.0620  176.8260  139.9670 C   0  0  0  0  0  1  0  0  0  0  0  0
  181.9490  178.2870  140.3630 C   0  0  0  0  0  3  0  0  0  0  0  0
  187.6820  178.4550  140.3730 C   0  0  0  0  0  2  0  0  0  0  0  0
  189.0660  177.8300  140.3550 C   0  0  0  0  0  2  0  0  0  0  0  0
  189.1790  176.8350  141.4100 N   0  0  0  0  0  2  0  0  0  0  0  0
  188.2010  177.6790  146.4470 C   0  0  0  0  0  0  0  0  0  0  0  0
  187.8040  177.2150  144.0870 C   0  0  0  0  0  3  0  0  0  0  0  0
  191.4150  177.5810  144.5790 C   0  0  0  0  0  3  0  0  0  0  0  0
  191.4760  177.2810  142.9150 S   0  0  0  0  0  0  0  0  0  0  0  0
  187.5710  177.9270  148.0610 Cl  0  0  0  0  0  0  0  0  0  0  0  0
  189.8220  177.1050  142.6590 C   0  0  0  0  0  0  0  0  0  0  0  0
  187.3170  177.4170  145.3860 C   0  0  0  0  0  3  0  0  0  0  0  0
  190.0680  177.5420  144.9300 C   0  0  0  0  0  0  0  0  0  0  0  0
  189.1820  177.2790  143.8700 C   0  0  0  0  0  0  0  0  0  0  0  0
  189.5840  177.7420  146.2220 C   0  0  0  0  0  3  0  0  0  0  0  0
  1  4  1  6  0  0  0
  1  5  1  0  0  0  0
  2  8  1  6  0  0  0
  3  1  1  0  0  0  0
  3  7  1  0  0  0  0
  5  2  1  0  0  0  0
  6  2  1  0  0  0  0
  6 19  1  1  0  0  0
  7  6  1  0  0  0  0
  8 10  1  0  0  0  0
  9  8  2  0  0  0  0
 10 15  2  0  0  0  0
 10 12  1  0  0  0  0
 11 13  1  0  0  0  0
 12 11  2  0  0  0  0
 14 13  2  0  0  0  0
 15 14  1  0  0  0  0
 17 18  1  0  0  0  0
 18 16  1  0  0  0  0
 18 15  1  0  0  0  0
 20 19  1  0  0  0  0
 20 21  1  0  0  0  0
 21 27  1  0  0  0  0
 22 26  1  0  0  0  0
 23 28  2  0  0  0  0
 24 29  2  0  0  0  0
 25 24  1  0  0  0  0
 27 25  1  0  0  0  0
 27 30  2  0  0  0  0
 28 22  1  0  0  0  0
 29 31  1  0  0  0  0
 30 23  1  0  0  0  0
 30 29  1  0  0  0  0
 31 22  2  0  0  0  0
M  END
>  <MODEL>
2

>  <REMARK>
 VINA RESULT:      -8.9      3.101      6.860
  Name = 
  7 active torsions:
  status: ('A' for Active; 'I' for Inactive)
    1  A    between atoms: C_4  and  C_5
    2  A    between atoms: C_4  and  C_12
    3  A    between atoms: C_9  and  N_23
    4  A    between atoms: C_15  and  C_20
    5  A    between atoms: C_15  and  N_23
    6  A    between atoms: C_20  and  C_27
    7  A    between atoms: C_30  and  C_31
                            x       y       z     vdW  Elec       q    Type
                         _______ _______ _______ _____ _____    ______ ____

>  <TORSDO>
F 7

$$$$
=
 OpenBabel10272400273D

 31 34  0  0  1  0  0  0  0  0999 V2000
  190.7940  177.3420  146.1040 C   0  0  2  0  0  3  0  0  0  0  0  0
  188.9710  177.3630  144.3710 C   0  0  1  0  0  3  0  0  0  0  0  0
  191.7740  176.8300  145.0580 C   0  0  0  0  0  2  0  0  0  0  0  0
  191.1830  176.8100  147.4660 C   0  0  0  0  0  1  0  0  0  0  0  0
  189.3820  176.8800  145.7640 C   0  0  0  0  0  2  0  0  0  0  0  0
  189.9910  176.9360  143.2940 C   0  0  2  0  0  3  0  0  0  0  0  0
  191.3980  177.3790  143.6880 C   0  0  0  0  0  2  0  0  0  0  0  0
  187.5670  176.9200  144.0610 C   0  0  0  0  0  0  0  0  0  0  0  0
  187.4270  175.9180  143.3120 O   0  0  0  0  0  0  0  0  0  0  0  0
  186.3690  177.6360  144.5880 C   0  0  0  0  0  0  0  0  0  0  0  0
  185.0990  178.3950  146.5290 C   0  0  0  0  0  3  0  0  0  0  0  0
  186.2000  177.7370  145.9800 C   0  0  0  0  0  3  0  0  0  0  0  0
  184.1410  178.9630  145.6930 C   0  0  0  0  0  3  0  0  0  0  0  0
  184.2820  178.8690  144.3090 C   0  0  0  0  0  3  0  0  0  0  0  0
  185.3870  178.2120  143.7400 C   0  0  0  0  0  0  0  0  0  0  0  0
  186.2990  179.2010  141.6350 C   0  0  0  0  0  1  0  0  0  0  0  0
  184.0800  178.0660  141.6200 C   0  0  0  0  0  1  0  0  0  0  0  0
  185.4650  178.0890  142.2430 C   0  0  0  0  0  3  0  0  0  0  0  0
  189.6600  177.5590  141.9480 C   0  0  0  0  0  2  0  0  0  0  0  0
  190.7720  177.2780  140.9530 C   0  0  0  0  0  2  0  0  0  0  0  0
  190.3660  177.6940  139.6200 N   0  0  0  0  0  2  0  0  0  0  0  0
  191.4880  173.6730  136.5200 C   0  0  0  0  0  0  0  0  0  0  0  0
  191.7960  175.4580  138.1520 C   0  0  0  0  0  3  0  0  0  0  0  0
  188.2920  175.4880  137.0840 C   0  0  0  0  0  3  0  0  0  0  0  0
  188.1770  176.7860  138.1630 S   0  0  0  0  0  0  0  0  0  0  0  0
  192.1570  172.3490  135.5910 Cl  0  0  0  0  0  0  0  0  0  0  0  0
  189.7800  176.7950  138.6750 C   0  0  0  0  0  0  0  0  0  0  0  0
  192.3150  174.3950  137.3990 C   0  0  0  0  0  3  0  0  0  0  0  0
  189.6180  175.0620  137.1320 C   0  0  0  0  0  0  0  0  0  0  0  0
  190.4450  175.7820  138.0100 C   0  0  0  0  0  0  0  0  0  0  0  0
  190.1320  174.0040  136.3830 C   0  0  0  0  0  3  0  0  0  0  0  0
  1  4  1  1  0  0  0
  2  8  1  6  0  0  0
  2  5  1  0  0  0  0
  3  1  1  0  0  0  0
  5  1  1  0  0  0  0
  6 19  1  6  0  0  0
  6  7  1  0  0  0  0
  6  2  1  0  0  0  0
  7  3  1  0  0  0  0
  8 10  1  0  0  0  0
  9  8  2  0  0  0  0
 10 12  1  0  0  0  0
 12 11  2  0  0  0  0
 13 11  1  0  0  0  0
 14 13  2  0  0  0  0
 15 14  1  0  0  0  0
 15 10  2  0  0  0  0
 16 18  1  0  0  0  0
 17 18  1  0  0  0  0
 18 15  1  0  0  0  0
 20 19  1  0  0  0  0
 21 20  1  0  0  0  0
 22 28  1  0  0  0  0
 24 29  2  0  0  0  0
 24 25  1  0  0  0  0
 25 27  1  0  0  0  0
 26 22  1  0  0  0  0
 27 21  1  0  0  0  0
 28 23  2  0  0  0  0
 29 30  1  0  0  0  0
 30 23  1  0  0  0  0
 30 27  2  0  0  0  0
 31 22  2  0  0  0  0
 31 29  1  0  0  0  0
M  END
>  <MODEL>
3

>  <REMARK>
 VINA RESULT:      -8.7      2.095      2.875
  Name = 
  7 active torsions:
  status: ('A' for Active; 'I' for Inactive)
    1  A    between atoms: C_4  and  C_5
    2  A    between atoms: C_4  and  C_12
    3  A    between atoms: C_9  and  N_23
    4  A    between atoms: C_15  and  C_20
    5  A    between atoms: C_15  and  N_23
    6  A    between atoms: C_20  and  C_27
    7  A    between atoms: C_30  and  C_31
                            x       y       z     vdW  Elec       q    Type
                         _______ _______ _______ _____ _____    ______ ____

>  <TORSDO>
F 7

$$$$
=
 OpenBabel10272400273D

 31 34  0  0  1  0  0  0  0  0999 V2000
  190.6280  177.4620  140.5090 C   0  0  2  0  0  3  0  0  0  0  0  0
  188.9520  177.4530  142.3850 C   0  0  1  0  0  3  0  0  0  0  0  0
  189.5380  177.9160  139.5470 C   0  0  0  0  0  2  0  0  0  0  0  0
  191.6390  176.6170  139.7660 C   0  0  0  0  0  1  0  0  0  0  0  0
  190.0150  176.6420  141.6390 C   0  0  0  0  0  2  0  0  0  0  0  0
  187.8760  178.0050  141.4270 C   0  0  2  0  0  3  0  0  0  0  0  0
  188.5280  178.7840  140.2870 C   0  0  0  0  0  2  0  0  0  0  0  0
  188.3760  176.6390  143.5120 C   0  0  0  0  0  0  0  0  0  0  0  0
  187.9500  175.4860  143.2360 O   0  0  0  0  0  0  0  0  0  0  0  0
  188.2790  177.1610  144.9060 C   0  0  0  0  0  0  0  0  0  0  0  0
  186.8740  178.0670  146.6830 C   0  0  0  0  0  3  0  0  0  0  0  0
  187.0240  177.5700  145.3890 C   0  0  0  0  0  3  0  0  0  0  0  0
  187.9810  178.1680  147.5220 C   0  0  0  0  0  3  0  0  0  0  0  0
  189.2390  177.7770  147.0640 C   0  0  0  0  0  3  0  0  0  0  0  0
  189.4070  177.2710  145.7630 C   0  0  0  0  0  0  0  0  0  0  0  0
  191.5990  176.2570  146.4000 C   0  0  0  0  0  1  0  0  0  0  0  0
  191.5220  178.1340  144.7620 C   0  0  0  0  0  1  0  0  0  0  0  0
  190.7910  176.9150  145.2970 C   0  0  0  0  0  3  0  0  0  0  0  0
  186.9230  178.9400  142.1530 C   0  0  0  0  0  2  0  0  0  0  0  0
  185.4880  178.4830  141.9540 C   0  0  0  0  0  2  0  0  0  0  0  0
  184.8360  179.3090  140.9500 N   0  0  0  0  0  2  0  0  0  0  0  0
  185.1220  177.2400  136.1880 C   0  0  0  0  0  0  0  0  0  0  0  0
  185.8370  178.2360  138.2960 C   0  0  0  0  0  3  0  0  0  0  0  0
  182.1890  177.9080  138.3750 C   0  0  0  0  0  3  0  0  0  0  0  0
  182.3550  178.5990  139.9110 S   0  0  0  0  0  0  0  0  0  0  0  0
  185.5280  176.5900  134.6150 Cl  0  0  0  0  0  0  0  0  0  0  0  0
  184.0310  178.7600  139.9040 C   0  0  0  0  0  0  0  0  0  0  0  0
  186.1430  177.7120  137.0320 C   0  0  0  0  0  3  0  0  0  0  0  0
  183.4780  177.8080  137.8550 C   0  0  0  0  0  0  0  0  0  0  0  0
  184.5000  178.2780  138.6970 C   0  0  0  0  0  0  0  0  0  0  0  0
  183.7820  177.2860  136.5980 C   0  0  0  0  0  3  0  0  0  0  0  0
  1  4  1  6  0  0  0
  1  5  1  0  0  0  0
  2  8  1  1  0  0  0
  3  7  1  0  0  0  0
  3  1  1  0  0  0  0
  5  2  1  0  0  0  0
  6 19  1  1  0  0  0
  6  2  1  0  0  0  0
  7  6  1  0  0  0  0
  8 10  1  0  0  0  0
  9  8  2  0  0  0  0
 10 12  2  0  0  0  0
 10 15  1  0  0  0  0
 11 13  2  0  0  0  0
 12 11  1  0  0  0  0
 14 13  1  0  0  0  0
 15 14  2  0  0  0  0
 17 18  1  0  0  0  0
 18 15  1  0  0  0  0
 18 16  1  0  0  0  0
 20 19  1  0  0  0  0
 21 20  1  0  0  0  0
 22 31  2  0  0  0  0
 22 28  1  0  0  0  0
 23 30  1  0  0  0  0
 24 25  1  0  0  0  0
 26 22  1  0  0  0  0
 27 25  1  0  0  0  0
 27 21  1  0  0  0  0
 28 23  2  0  0  0  0
 29 24  2  0  0  0  0
 29 30  1  0  0  0  0
 30 27  2  0  0  0  0
 31 29  1  0  0  0  0
M  END
>  <MODEL>
4

>  <REMARK>
 VINA RESULT:      -8.6      2.411      4.790
  Name = 
  7 active torsions:
  status: ('A' for Active; 'I' for Inactive)
    1  A    between atoms: C_4  and  C_5
    2  A    between atoms: C_4  and  C_12
    3  A    between atoms: C_9  and  N_23
    4  A    between atoms: C_15  and  C_20
    5  A    between atoms: C_15  and  N_23
    6  A    between atoms: C_20  and  C_27
    7  A    between atoms: C_30  and  C_31
                            x       y       z     vdW  Elec       q    Type
                         _______ _______ _______ _____ _____    ______ ____

>  <TORSDO>
F 7

$$$$
=
 OpenBabel10272400273D

 31 34  0  0  1  0  0  0  0  0999 V2000
  191.1580  176.2210  138.4420 C   0  0  2  0  0  3  0  0  0  0  0  0
  188.9490  177.4110  138.6210 C   0  0  1  0  0  3  0  0  0  0  0  0
  191.6550  176.9730  139.6690 C   0  0  0  0  0  2  0  0  0  0  0  0
  192.3220  175.9320  137.5190 C   0  0  0  0  0  1  0  0  0  0  0  0
  190.1220  177.0610  137.7020 C   0  0  0  0  0  2  0  0  0  0  0  0
  189.4240  178.0980  139.9190 C   0  0  2  0  0  3  0  0  0  0  0  0
  190.4900  177.2500  140.6100 C   0  0  0  0  0  2  0  0  0  0  0  0
  187.9250  178.2180  137.8690 C   0  0  0  0  0  0  0  0  0  0  0  0
  188.3090  179.2940  137.3400 O   0  0  0  0  0  0  0  0  0  0  0  0
  186.4990  177.7940  137.7590 C   0  0  0  0  0  0  0  0  0  0  0  0
  184.1970  178.0590  138.5210 C   0  0  0  0  0  3  0  0  0  0  0  0
  185.5440  178.4150  138.5810 C   0  0  0  0  0  3  0  0  0  0  0  0
  183.7780  177.0680  137.6380 C   0  0  0  0  0  3  0  0  0  0  0  0
  184.7080  176.4290  136.8180 C   0  0  0  0  0  3  0  0  0  0  0  0
  186.0690  176.7790  136.8630 C   0  0  0  0  0  0  0  0  0  0  0  0
  186.5130  175.8490  134.5870 C   0  0  0  0  0  1  0  0  0  0  0  0
  187.3820  174.6740  136.6060 C   0  0  0  0  0  1  0  0  0  0  0  0
  187.0410  176.0230  135.9990 C   0  0  0  0  0  3  0  0  0  0  0  0
  188.2720  178.2910  140.8900 C   0  0  0  0  0  2  0  0  0  0  0  0
  188.7410  178.0480  142.3140 C   0  0  0  0  0  2  0  0  0  0  0  0
  187.7950  177.1920  143.0130 N   0  0  0  0  0  2  0  0  0  0  0  0
  182.9330  178.9930  143.4060 C   0  0  0  0  0  0  0  0  0  0  0  0
  184.9600  178.0820  142.4040 C   0  0  0  0  0  3  0  0  0  0  0  0
  185.5710  178.5370  145.9870 C   0  0  0  0  0  3  0  0  0  0  0  0
  187.1010  177.9200  145.6060 S   0  0  0  0  0  0  0  0  0  0  0  0
  181.2830  179.5490  143.2290 Cl  0  0  0  0  0  0  0  0  0  0  0  0
  186.8480  177.6980  143.9570 C   0  0  0  0  0  0  0  0  0  0  0  0
  183.6380  178.5310  142.2810 C   0  0  0  0  0  3  0  0  0  0  0  0
  184.8580  178.5660  144.7910 C   0  0  0  0  0  0  0  0  0  0  0  0
  185.5610  178.1030  143.6650 C   0  0  0  0  0  0  0  0  0  0  0  0
  183.5430  179.0120  144.6690 C   0  0  0  0  0  3  0  0  0  0  0  0
  1  4  1  6  0  0  0
  1  3  1  0  0  0  0
  2  8  1  6  0  0  0
  2  6  1  0  0  0  0
  3  7  1  0  0  0  0
  5  1  1  0  0  0  0
  5  2  1  0  0  0  0
  6  7  1  0  0  0  0
  6 19  1  1  0  0  0
  9  8  2  0  0  0  0
 10  8  1  0  0  0  0
 10 12  1  0  0  0  0
 11 12  2  0  0  0  0
 13 11  1  0  0  0  0
 14 15  1  0  0  0  0
 14 13  2  0  0  0  0
 15 10  2  0  0  0  0
 16 18  1  0  0  0  0
 18 17  1  0  0  0  0
 18 15  1  0  0  0  0
 19 20  1  0  0  0  0
 20 21  1  0  0  0  0
 21 27  1  0  0  0  0
 22 31  2  0  0  0  0
 23 30  1  0  0  0  0
 25 24  1  0  0  0  0
 26 22  1  0  0  0  0
 27 25  1  0  0  0  0
 28 23  2  0  0  0  0
 28 22  1  0  0  0  0
 29 24  2  0  0  0  0
 30 27  2  0  0  0  0
 30 29  1  0  0  0  0
 31 29  1  0  0  0  0
M  END
>  <MODEL>
5

>  <REMARK>
 VINA RESULT:      -8.6      3.208      6.970
  Name = 
  7 active torsions:
  status: ('A' for Active; 'I' for Inactive)
    1  A    between atoms: C_4  and  C_5
    2  A    between atoms: C_4  and  C_12
    3  A    between atoms: C_9  and  N_23
    4  A    between atoms: C_15  and  C_20
    5  A    between atoms: C_15  and  N_23
    6  A    between atoms: C_20  and  C_27
    7  A    between atoms: C_30  and  C_31
                            x       y       z     vdW  Elec       q    Type
                         _______ _______ _______ _____ _____    ______ ____

>  <TORSDO>
F 7

$$$$
=
 OpenBabel10272400273D

 31 34  0  0  1  0  0  0  0  0999 V2000
  184.4820  178.4350  143.4320 C   0  0  2  0  0  3  0  0  0  0  0  0
  186.7100  177.3050  143.1460 C   0  0  1  0  0  3  0  0  0  0  0  0
  184.9940  179.6310  142.6410 C   0  0  0  0  0  2  0  0  0  0  0  0
  183.4660  178.9010  144.4520 C   0  0  0  0  0  1  0  0  0  0  0  0
  185.6410  177.7500  144.1470 C   0  0  0  0  0  2  0  0  0  0  0  0
  187.1920  178.4760  142.2650 C   0  0  2  0  0  3  0  0  0  0  0  0
  186.0030  179.1640  141.5980 C   0  0  0  0  0  2  0  0  0  0  0  0
  187.8340  176.6080  143.8650 C   0  0  0  0  0  0  0  0  0  0  0  0
  188.2880  175.5540  143.3470 O   0  0  0  0  0  0  0  0  0  0  0  0
  188.3900  177.1100  145.1550 C   0  0  0  0  0  0  0  0  0  0  0  0
  188.0170  177.6120  147.5130 C   0  0  0  0  0  3  0  0  0  0  0  0
  187.5510  177.1510  146.2820 C   0  0  0  0  0  3  0  0  0  0  0  0
  189.3340  178.0460  147.6400 C   0  0  0  0  0  3  0  0  0  0  0  0
  190.1840  178.0240  146.5350 C   0  0  0  0  0  3  0  0  0  0  0  0
  189.7310  177.5600  145.2880 C   0  0  0  0  0  0  0  0  0  0  0  0
  191.6100  176.4170  144.1020 C   0  0  0  0  0  1  0  0  0  0  0  0
  191.4560  178.9050  144.0900 C   0  0  0  0  0  1  0  0  0  0  0  0
  190.6680  177.6070  144.1130 C   0  0  0  0  0  3  0  0  0  0  0  0
  188.1290  177.9900  141.1710 C   0  0  0  0  0  2  0  0  0  0  0  0
  187.5320  178.2780  139.8040 C   0  0  0  0  0  2  0  0  0  0  0  0
  188.5580  178.7880  138.9090 N   0  0  0  0  0  2  0  0  0  0  0  0
  192.3290  175.5500  137.3800 C   0  0  0  0  0  0  0  0  0  0  0  0
  191.0030  176.9950  138.8290 C   0  0  0  0  0  3  0  0  0  0  0  0
  189.4500  176.9810  135.5110 C   0  0  0  0  0  3  0  0  0  0  0  0
  188.3390  178.0290  136.2410 S   0  0  0  0  0  0  0  0  0  0  0  0
  193.7020  174.4880  137.1600 Cl  0  0  0  0  0  0  0  0  0  0  0  0
  189.0290  178.0520  137.7760 C   0  0  0  0  0  0  0  0  0  0  0  0
  192.0990  176.1420  138.6340 C   0  0  0  0  0  3  0  0  0  0  0  0
  190.3760  176.6520  136.4990 C   0  0  0  0  0  0  0  0  0  0  0  0
  190.1480  177.2420  137.7530 C   0  0  0  0  0  0  0  0  0  0  0  0
  191.4650  175.8030  136.3040 C   0  0  0  0  0  3  0  0  0  0  0  0
  1  5  1  0  0  0  0
  1  4  1  1  0  0  0
  2  8  1  1  0  0  0
  2  5  1  0  0  0  0
  3  1  1  0  0  0  0
  6 19  1  6  0  0  0
  6  2  1  0  0  0  0
  7  6  1  0  0  0  0
  7  3  1  0  0  0  0
  8 10  1  0  0  0  0
  9  8  2  0  0  0  0
 10 15  2  0  0  0  0
 10 12  1  0  0  0  0
 11 13  1  0  0  0  0
 12 11  2  0  0  0  0
 14 13  2  0  0  0  0
 15 14  1  0  0  0  0
 16 18  1  0  0  0  0
 17 18  1  0  0  0  0
 18 15  1  0  0  0  0
 20 19  1  0  0  0  0
 21 20  1  0  0  0  0
 22 28  1  0  0  0  0
 24 25  1  0  0  0  0
 24 29  2  0  0  0  0
 25 27  1  0  0  0  0
 26 22  1  0  0  0  0
 27 21  1  0  0  0  0
 28 23  2  0  0  0  0
 29 30  1  0  0  0  0
 30 27  2  0  0  0  0
 30 23  1  0  0  0  0
 31 29  1  0  0  0  0
 31 22  2  0  0  0  0
M  END
>  <MODEL>
6

>  <REMARK>
 VINA RESULT:      -8.5      2.532      5.021
  Name = 
  7 active torsions:
  status: ('A' for Active; 'I' for Inactive)
    1  A    between atoms: C_4  and  C_5
    2  A    between atoms: C_4  and  C_12
    3  A    between atoms: C_9  and  N_23
    4  A    between atoms: C_15  and  C_20
    5  A    between atoms: C_15  and  N_23
    6  A    between atoms: C_20  and  C_27
    7  A    between atoms: C_30  and  C_31
                            x       y       z     vdW  Elec       q    Type
                         _______ _______ _______ _____ _____    ______ ____

>  <TORSDO>
F 7

$$$$
=
 OpenBabel10272400273D

 31 34  0  0  1  0  0  0  0  0999 V2000
  190.8510  175.7830  136.4300 C   0  0  2  0  0  3  0  0  0  0  0  0
  189.1590  177.1430  137.7000 C   0  0  1  0  0  3  0  0  0  0  0  0
  191.8810  176.0640  137.5150 C   0  0  0  0  0  2  0  0  0  0  0  0
  191.5490  175.6330  135.0960 C   0  0  0  0  0  1  0  0  0  0  0  0
  189.8520  176.9320  136.3520 C   0  0  0  0  0  2  0  0  0  0  0  0
  190.1770  177.3430  138.8420 C   0  0  2  0  0  3  0  0  0  0  0  0
  191.1850  176.1970  138.8640 C   0  0  0  0  0  2  0  0  0  0  0  0
  188.1580  178.2630  137.5990 C   0  0  0  0  0  0  0  0  0  0  0  0
  188.6080  179.4290  137.4420 O   0  0  0  0  0  0  0  0  0  0  0  0
  186.6880  178.0320  137.7020 C   0  0  0  0  0  0  0  0  0  0  0  0
  184.6500  178.2380  139.0270 C   0  0  0  0  0  3  0  0  0  0  0  0
  186.0230  178.4290  138.8750 C   0  0  0  0  0  3  0  0  0  0  0  0
  183.9140  177.6400  138.0070 C   0  0  0  0  0  3  0  0  0  0  0  0
  184.5520  177.2290  136.8370 C   0  0  0  0  0  3  0  0  0  0  0  0
  185.9350  177.4180  136.6670 C   0  0  0  0  0  0  0  0  0  0  0  0
  186.6650  177.9860  134.3460 C   0  0  0  0  0  1  0  0  0  0  0  0
  185.8640  175.6850  134.8740 C   0  0  0  0  0  1  0  0  0  0  0  0
  186.5870  176.9080  135.4110 C   0  0  0  0  0  3  0  0  0  0  0  0
  189.4830  177.3860  140.1940 C   0  0  0  0  0  2  0  0  0  0  0  0
  190.5100  177.3250  141.3110 C   0  0  0  0  0  2  0  0  0  0  0  0
  190.0870  176.3730  142.3260 N   0  0  0  0  0  2  0  0  0  0  0  0
  186.4920  177.9120  145.7520 C   0  0  0  0  0  0  0  0  0  0  0  0
  187.4830  177.2000  143.6420 C   0  0  0  0  0  3  0  0  0  0  0  0
  190.1350  177.2950  146.1660 C   0  0  0  0  0  3  0  0  0  0  0  0
  191.1110  176.7890  144.8790 S   0  0  0  0  0  0  0  0  0  0  0  0
  185.0830  178.4120  146.6620 Cl  0  0  0  0  0  0  0  0  0  0  0  0
  189.9120  176.7330  143.6980 C   0  0  0  0  0  0  0  0  0  0  0  0
  186.3650  177.6030  144.3860 C   0  0  0  0  0  3  0  0  0  0  0  0
  188.8480  177.4210  145.6480 C   0  0  0  0  0  0  0  0  0  0  0  0
  188.7200  177.1120  144.2830 C   0  0  0  0  0  0  0  0  0  0  0  0
  187.7370  177.8210  146.3900 C   0  0  0  0  0  3  0  0  0  0  0  0
  1  4  1  6  0  0  0
  1  3  1  0  0  0  0
  2  8  1  6  0  0  0
  2  6  1  0  0  0  0
  3  7  1  0  0  0  0
  5  1  1  0  0  0  0
  5  2  1  0  0  0  0
  6  7  1  0  0  0  0
  6 19  1  1  0  0  0
  8 10  1  0  0  0  0
  9  8  2  0  0  0  0
 10 12  1  0  0  0  0
 12 11  2  0  0  0  0
 13 11  1  0  0  0  0
 14 13  2  0  0  0  0
 15 14  1  0  0  0  0
 15 10  2  0  0  0  0
 16 18  1  0  0  0  0
 17 18  1  0  0  0  0
 18 15  1  0  0  0  0
 19 20  1  0  0  0  0
 20 21  1  0  0  0  0
 21 27  1  0  0  0  0
 22 31  2  0  0  0  0
 22 26  1  0  0  0  0
 23 30  1  0  0  0  0
 23 28  2  0  0  0  0
 25 24  1  0  0  0  0
 27 30  2  0  0  0  0
 27 25  1  0  0  0  0
 28 22  1  0  0  0  0
 29 24  2  0  0  0  0
 29 31  1  0  0  0  0
 30 29  1  0  0  0  0
M  END
>  <MODEL>
7

>  <REMARK>
 VINA RESULT:      -8.4      3.047      7.474
  Name = 
  7 active torsions:
  status: ('A' for Active; 'I' for Inactive)
    1  A    between atoms: C_4  and  C_5
    2  A    between atoms: C_4  and  C_12
    3  A    between atoms: C_9  and  N_23
    4  A    between atoms: C_15  and  C_20
    5  A    between atoms: C_15  and  N_23
    6  A    between atoms: C_20  and  C_27
    7  A    between atoms: C_30  and  C_31
                            x       y       z     vdW  Elec       q    Type
                         _______ _______ _______ _____ _____    ______ ____

>  <TORSDO>
F 7

$$$$
=
 OpenBabel10272400273D

 31 34  0  0  1  0  0  0  0  0999 V2000
  189.1610  175.1260  136.8870 C   0  0  2  0  0  3  0  0  0  0  0  0
  188.1160  176.9990  138.2010 C   0  0  1  0  0  3  0  0  0  0  0  0
  190.5370  175.5630  137.3690 C   0  0  0  0  0  2  0  0  0  0  0  0
  189.2790  174.5150  135.5070 C   0  0  0  0  0  1  0  0  0  0  0  0
  188.2240  176.3270  136.8300 C   0  0  0  0  0  2  0  0  0  0  0  0
  189.5030  177.3780  138.7630 C   0  0  2  0  0  3  0  0  0  0  0  0
  190.4260  176.1620  138.7660 C   0  0  0  0  0  2  0  0  0  0  0  0
  187.1690  178.1660  138.1340 C   0  0  0  0  0  0  0  0  0  0  0  0
  187.4720  179.1150  137.3630 O   0  0  0  0  0  0  0  0  0  0  0  0
  185.9250  178.2340  138.9550 C   0  0  0  0  0  0  0  0  0  0  0  0
  184.8710  178.8520  141.0670 C   0  0  0  0  0  3  0  0  0  0  0  0
  186.0010  178.7650  140.2540 C   0  0  0  0  0  3  0  0  0  0  0  0
  183.6400  178.4040  140.5960 C   0  0  0  0  0  3  0  0  0  0  0  0
  183.5400  177.8640  139.3140 C   0  0  0  0  0  3  0  0  0  0  0  0
  184.6680  177.7720  138.4810 C   0  0  0  0  0  0  0  0  0  0  0  0
  183.2370  177.5640  136.4440 C   0  0  0  0  0  1  0  0  0  0  0  0
  184.5830  175.6180  137.2270 C   0  0  0  0  0  1  0  0  0  0  0  0
  184.5210  177.1320  137.1280 C   0  0  0  0  0  3  0  0  0  0  0  0
  189.3950  177.8910  140.1900 C   0  0  0  0  0  2  0  0  0  0  0  0
  190.5200  177.3230  141.0370 C   0  0  0  0  0  2  0  0  0  0  0  0
  189.9830  176.4040  142.0290 N   0  0  0  0  0  2  0  0  0  0  0  0
  186.5730  177.9230  145.6490 C   0  0  0  0  0  0  0  0  0  0  0  0
  187.4550  177.2400  143.4810 C   0  0  0  0  0  3  0  0  0  0  0  0
  190.2230  177.2510  145.8790 C   0  0  0  0  0  3  0  0  0  0  0  0
  191.1300  176.7580  144.5380 S   0  0  0  0  0  0  0  0  0  0  0  0
  185.2160  178.4230  146.6330 Cl  0  0  0  0  0  0  0  0  0  0  0  0
  189.8770  176.7410  143.4150 C   0  0  0  0  0  0  0  0  0  0  0  0
  186.3790  177.6420  144.2850 C   0  0  0  0  0  3  0  0  0  0  0  0
  188.9150  177.4040  145.4250 C   0  0  0  0  0  0  0  0  0  0  0  0
  188.7190  177.1240  144.0620 C   0  0  0  0  0  0  0  0  0  0  0  0
  187.8460  177.8040  146.2260 C   0  0  0  0  0  3  0  0  0  0  0  0
  1  4  1  6  0  0  0
  1  3  1  0  0  0  0
  2  8  1  6  0  0  0
  2  6  1  0  0  0  0
  3  7  1  0  0  0  0
  5  1  1  0  0  0  0
  5  2  1  0  0  0  0
  6  7  1  0  0  0  0
  6 19  1  1  0  0  0
  8 10  1  0  0  0  0
  9  8  2  0  0  0  0
 10 12  1  0  0  0  0
 12 11  2  0  0  0  0
 13 11  1  0  0  0  0
 14 13  2  0  0  0  0
 15 10  2  0  0  0  0
 15 14  1  0  0  0  0
 16 18  1  0  0  0  0
 18 17  1  0  0  0  0
 18 15  1  0  0  0  0
 19 20  1  0  0  0  0
 20 21  1  0  0  0  0
 21 27  1  0  0  0  0
 22 31  2  0  0  0  0
 22 26  1  0  0  0  0
 23 30  1  0  0  0  0
 23 28  2  0  0  0  0
 25 24  1  0  0  0  0
 27 30  2  0  0  0  0
 27 25  1  0  0  0  0
 28 22  1  0  0  0  0
 29 24  2  0  0  0  0
 29 31  1  0  0  0  0
 30 29  1  0  0  0  0
M  END
>  <MODEL>
8

>  <REMARK>
 VINA RESULT:      -8.4      2.882      6.877
  Name = 
  7 active torsions:
  status: ('A' for Active; 'I' for Inactive)
    1  A    between atoms: C_4  and  C_5
    2  A    between atoms: C_4  and  C_12
    3  A    between atoms: C_9  and  N_23
    4  A    between atoms: C_15  and  C_20
    5  A    between atoms: C_15  and  N_23
    6  A    between atoms: C_20  and  C_27
    7  A    between atoms: C_30  and  C_31
                            x       y       z     vdW  Elec       q    Type
                         _______ _______ _______ _____ _____    ______ ____

>  <TORSDO>
F 7

$$$$
=
 OpenBabel10272400273D

 31 34  0  0  1  0  0  0  0  0999 V2000
  184.5400  178.5770  143.5870 C   0  0  2  0  0  3  0  0  0  0  0  0
  186.6620  177.2870  143.1920 C   0  0  1  0  0  3  0  0  0  0  0  0
  185.0290  179.6600  142.6350 C   0  0  0  0  0  2  0  0  0  0  0  0
  183.6650  179.1980  144.6540 C   0  0  0  0  0  1  0  0  0  0  0  0
  185.7300  177.8880  144.2460 C   0  0  0  0  0  2  0  0  0  0  0  0
  187.1090  178.3390  142.1550 C   0  0  2  0  0  3  0  0  0  0  0  0
  185.8950  179.0370  141.5480 C   0  0  0  0  0  2  0  0  0  0  0  0
  187.8180  176.5890  143.8590 C   0  0  0  0  0  0  0  0  0  0  0  0
  188.2740  175.5580  143.2990 O   0  0  0  0  0  0  0  0  0  0  0  0
  188.4020  177.0660  145.1460 C   0  0  0  0  0  0  0  0  0  0  0  0
  188.1460  177.3490  147.5560 C   0  0  0  0  0  3  0  0  0  0  0  0
  187.6500  176.9210  146.3240 C   0  0  0  0  0  3  0  0  0  0  0  0
  189.4060  177.9360  147.6310 C   0  0  0  0  0  3  0  0  0  0  0  0
  190.1690  178.0990  146.4750 C   0  0  0  0  0  3  0  0  0  0  0  0
  189.6850  177.6700  145.2270 C   0  0  0  0  0  0  0  0  0  0  0  0
  191.5720  176.8400  143.8160 C   0  0  0  0  0  1  0  0  0  0  0  0
  191.1710  179.2890  144.0480 C   0  0  0  0  0  1  0  0  0  0  0  0
  190.5200  177.9190  144.0010 C   0  0  0  0  0  3  0  0  0  0  0  0
  187.8980  177.6970  141.0260 C   0  0  0  0  0  2  0  0  0  0  0  0
  188.7970  178.7260  140.3630 C   0  0  0  0  0  2  0  0  0  0  0  0
  188.5340  178.7720  138.9340 N   0  0  0  0  0  2  0  0  0  0  0  0
  184.5080  176.3370  136.7200 C   0  0  0  0  0  0  0  0  0  0  0  0
  185.7630  178.0250  137.9530 C   0  0  0  0  0  3  0  0  0  0  0  0
  188.1100  175.4260  136.8780 C   0  0  0  0  0  3  0  0  0  0  0  0
  189.2460  176.3990  137.6690 S   0  0  0  0  0  0  0  0  0  0  0  0
  182.9830  175.7580  136.0860 Cl  0  0  0  0  0  0  0  0  0  0  0  0
  188.1920  177.6090  138.1740 C   0  0  0  0  0  0  0  0  0  0  0  0
  184.5500  177.5450  137.4380 C   0  0  0  0  0  3  0  0  0  0  0  0
  186.8830  176.0720  137.0200 C   0  0  0  0  0  0  0  0  0  0  0  0
  186.9240  177.2800  137.7370 C   0  0  0  0  0  0  0  0  0  0  0  0
  185.6780  175.5940  136.5070 C   0  0  0  0  0  3  0  0  0  0  0  0
  1  5  1  0  0  0  0
  1  4  1  1  0  0  0
  2  8  1  1  0  0  0
  2  5  1  0  0  0  0
  3  1  1  0  0  0  0
  6 19  1  6  0  0  0
  6  2  1  0  0  0  0
  7  6  1  0  0  0  0
  7  3  1  0  0  0  0
  8 10  1  0  0  0  0
  9  8  2  0  0  0  0
 10 15  2  0  0  0  0
 10 12  1  0  0  0  0
 11 13  1  0  0  0  0
 12 11  2  0  0  0  0
 14 13  2  0  0  0  0
 15 14  1  0  0  0  0
 16 18  1  0  0  0  0
 18 17  1  0  0  0  0
 18 15  1  0  0  0  0
 20 19  1  0  0  0  0
 21 20  1  0  0  0  0
 22 28  1  0  0  0  0
 24 29  2  0  0  0  0
 24 25  1  0  0  0  0
 25 27  1  0  0  0  0
 26 22  1  0  0  0  0
 27 21  1  0  0  0  0
 28 23  2  0  0  0  0
 29 30  1  0  0  0  0
 30 23  1  0  0  0  0
 30 27  2  0  0  0  0
 31 22  2  0  0  0  0
 31 29  1  0  0  0  0
M  END
>  <MODEL>
9

>  <REMARK>
 VINA RESULT:      -8.3      1.318      4.090
  Name = 
  7 active torsions:
  status: ('A' for Active; 'I' for Inactive)
    1  A    between atoms: C_4  and  C_5
    2  A    between atoms: C_4  and  C_12
    3  A    between atoms: C_9  and  N_23
    4  A    between atoms: C_15  and  C_20
    5  A    between atoms: C_15  and  N_23
    6  A    between atoms: C_20  and  C_27
    7  A    between atoms: C_30  and  C_31
                            x       y       z     vdW  Elec       q    Type
                         _______ _______ _______ _____ _____    ______ ____

>  <TORSDO>
F 7

$$$$
