=
 OpenBabel10272400293D

 31 33  0  0  1  0  0  0  0  0999 V2000
  189.3870  176.8300  136.5930 C   0  0  0  0  0  0  0  0  0  0  0  0
  190.2900  176.4510  137.6510 N   0  0  0  0  0  0  0  0  0  0  0  0
  189.8410  177.1280  135.4570 O   0  0  0  0  0  0  0  0  0  0  0  0
  187.9310  176.9150  136.8200 C   0  0  0  0  0  0  0  0  0  0  0  0
  186.0270  178.2380  137.5270 C   0  0  0  0  0  3  0  0  0  0  0  0
  187.3910  178.1260  137.2640 C   0  0  0  0  0  3  0  0  0  0  0  0
  188.1150  174.3180  134.9240 C   0  0  0  0  0  1  0  0  0  0  0  0
  185.2060  177.1250  137.3480 C   0  0  0  0  0  3  0  0  0  0  0  0
  185.7380  175.9480  136.9240 N   0  0  0  0  0  0  0  0  0  0  0  0
  187.2730  173.3640  137.0690 C   0  0  0  0  0  1  0  0  0  0  0  0
  187.0670  175.8100  136.6460 C   0  0  0  0  0  0  0  0  0  0  0  0
  187.5640  174.5260  136.2540 N   0  0  0  0  0  0  0  0  0  0  0  0
  191.7350  176.4990  137.4440 C   0  0  0  0  0  2  0  0  0  0  0  0
  192.3520  175.1430  137.7300 C   0  0  1  0  0  3  0  0  0  0  0  0
  191.7990  174.1210  136.7520 C   0  0  0  0  0  1  0  0  0  0  0  0
  193.8560  175.2390  137.5750 C   0  0  0  0  0  2  0  0  0  0  0  0
  194.1980  176.4400  136.9540 O   0  0  0  0  0  1  0  0  0  0  0  0
  189.7860  176.1750  138.9940 C   0  0  0  0  0  2  0  0  0  0  0  0
  190.1670  177.2850  139.9560 C   0  0  0  0  0  2  0  0  0  0  0  0
  188.9300  177.9400  140.4660 C   0  0  0  0  0  3  0  0  0  0  0  0
  188.6800  178.1640  141.7230 N   0  0  0  0  0  0  0  0  0  0  0  0
  188.4540  177.4460  146.8630 C   0  0  0  0  0  0  0  0  0  0  0  0
  187.7270  177.7660  144.5560 C   0  0  0  0  0  3  0  0  0  0  0  0
  191.3890  177.5950  144.5810 C   0  0  0  0  0  3  0  0  0  0  0  0
  191.2080  177.8270  142.9150 S   0  0  0  0  0  0  0  0  0  0  0  0
  188.0580  177.2630  148.5580 Cl  0  0  0  0  0  0  0  0  0  0  0  0
  189.5200  177.8860  142.8570 C   0  0  0  0  0  0  0  0  0  0  0  0
  187.4250  177.6170  145.9170 C   0  0  0  0  0  3  0  0  0  0  0  0
  190.0960  177.5730  145.1010 C   0  0  0  0  0  0  0  0  0  0  0  0
  189.0650  177.7410  144.1560 C   0  0  0  0  0  0  0  0  0  0  0  0
  189.7970  177.4230  146.4550 C   0  0  0  0  0  3  0  0  0  0  0  0
  1  4  1  0  0  0  0
  1  2  1  0  0  0  0
  2 18  1  0  0  0  0
  3  1  2  0  0  0  0
  4  6  1  0  0  0  0
  6  5  2  0  0  0  0
  7 12  1  0  0  0  0
  8  5  1  0  0  0  0
  9  8  2  0  0  0  0
 11  4  2  0  0  0  0
 11  9  1  0  0  0  0
 12 11  1  0  0  0  0
 12 10  1  0  0  0  0
 13  2  1  0  0  0  0
 13 14  1  0  0  0  0
 14 15  1  6  0  0  0
 16 14  1  0  0  0  0
 17 16  1  0  0  0  0
 18 19  1  0  0  0  0
 19 20  1  0  0  0  0
 20 21  2  0  0  0  0
 21 27  1  0  0  0  0
 22 26  1  0  0  0  0
 23 28  2  0  0  0  0
 24 29  2  0  0  0  0
 25 24  1  0  0  0  0
 27 25  1  0  0  0  0
 27 30  2  0  0  0  0
 28 22  1  0  0  0  0
 29 31  1  0  0  0  0
 30 23  1  0  0  0  0
 30 29  1  0  0  0  0
 31 22  2  0  0  0  0
M  END
>  <MODEL>
1

>  <REMARK>
 VINA RESULT:      -7.3      0.000      0.000
  Name = 
  8 active torsions:
  status: ('A' for Active; 'I' for Inactive)
    1  A    between atoms: C_2  and  C_13
    2  A    between atoms: C_2  and  C_25
    3  A    between atoms: C_4  and  C_5
    4  A    between atoms: C_9  and  N_23
    5  A    between atoms: N_12  and  C_25
    6  A    between atoms: N_12  and  C_27
    7  A    between atoms: C_15  and  C_20
    8  A    between atoms: C_20  and  C_27
                            x       y       z     vdW  Elec       q    Type
                         _______ _______ _______ _____ _____    ______ ____

>  <TORSDO>
F 8

$$$$
=
 OpenBabel10272400293D

 31 33  0  0  1  0  0  0  0  0999 V2000
  189.5700  177.0030  136.5560 C   0  0  0  0  0  0  0  0  0  0  0  0
  188.6060  177.4230  137.5410 N   0  0  0  0  0  0  0  0  0  0  0  0
  189.4760  177.4160  135.3690 O   0  0  0  0  0  0  0  0  0  0  0  0
  190.6560  176.0630  136.8970 C   0  0  0  0  0  0  0  0  0  0  0  0
  192.8840  175.7200  137.7880 C   0  0  0  0  0  3  0  0  0  0  0  0
  191.8200  176.5680  137.4850 C   0  0  0  0  0  3  0  0  0  0  0  0
  188.1550  174.0520  136.6250 C   0  0  0  0  0  1  0  0  0  0  0  0
  192.7770  174.3620  137.4920 C   0  0  0  0  0  3  0  0  0  0  0  0
  191.6460  173.8780  136.9120 N   0  0  0  0  0  0  0  0  0  0  0  0
  189.6310  173.3380  134.7450 C   0  0  0  0  0  1  0  0  0  0  0  0
  190.5830  174.6800  136.6150 C   0  0  0  0  0  0  0  0  0  0  0  0
  189.4460  174.1090  135.9590 N   0  0  0  0  0  0  0  0  0  0  0  0
  187.4640  178.2490  137.1540 C   0  0  0  0  0  2  0  0  0  0  0  0
  186.1660  177.5400  137.4920 C   0  0  1  0  0  3  0  0  0  0  0  0
  185.3240  178.4290  138.3900 C   0  0  0  0  0  1  0  0  0  0  0  0
  185.4120  177.2460  136.2100 C   0  0  0  0  0  2  0  0  0  0  0  0
  186.1370  177.7100  135.1120 O   0  0  0  0  0  1  0  0  0  0  0  0
  188.6570  176.8970  138.9020 C   0  0  0  0  0  2  0  0  0  0  0  0
  189.1730  177.9450  139.8700 C   0  0  0  0  0  2  0  0  0  0  0  0
  190.1460  177.3130  140.8060 C   0  0  0  0  0  3  0  0  0  0  0  0
  189.9420  177.1500  142.0810 N   0  0  0  0  0  0  0  0  0  0  0  0
  188.2540  177.5510  146.9770 C   0  0  0  0  0  0  0  0  0  0  0  0
  189.7710  177.2530  145.0900 C   0  0  0  0  0  3  0  0  0  0  0  0
  186.4260  177.9480  143.7620 C   0  0  0  0  0  3  0  0  0  0  0  0
  187.2060  177.7820  142.2690 S   0  0  0  0  0  0  0  0  0  0  0  0
  187.9860  177.5830  148.7070 Cl  0  0  0  0  0  0  0  0  0  0  0  0
  188.7680  177.4840  142.8410 C   0  0  0  0  0  0  0  0  0  0  0  0
  189.5410  177.2840  146.4730 C   0  0  0  0  0  3  0  0  0  0  0  0
  187.4130  177.7550  144.7260 C   0  0  0  0  0  0  0  0  0  0  0  0
  188.7020  177.4920  144.2240 C   0  0  0  0  0  0  0  0  0  0  0  0
  187.1830  177.7880  146.1020 C   0  0  0  0  0  3  0  0  0  0  0  0
  1  4  1  0  0  0  0
  1  2  1  0  0  0  0
  2 18  1  0  0  0  0
  3  1  2  0  0  0  0
  4  6  1  0  0  0  0
  6  5  2  0  0  0  0
  8  5  1  0  0  0  0
  9  8  2  0  0  0  0
 10 12  1  0  0  0  0
 11  4  2  0  0  0  0
 11  9  1  0  0  0  0
 12 11  1  0  0  0  0
 12  7  1  0  0  0  0
 13 14  1  0  0  0  0
 13  2  1  0  0  0  0
 14 15  1  1  0  0  0
 16 14  1  0  0  0  0
 17 16  1  0  0  0  0
 18 19  1  0  0  0  0
 19 20  1  0  0  0  0
 20 21  2  0  0  0  0
 21 27  1  0  0  0  0
 22 26  1  0  0  0  0
 23 28  2  0  0  0  0
 24 29  2  0  0  0  0
 25 27  1  0  0  0  0
 25 24  1  0  0  0  0
 27 30  2  0  0  0  0
 28 22  1  0  0  0  0
 29 31  1  0  0  0  0
 30 29  1  0  0  0  0
 30 23  1  0  0  0  0
 31 22  2  0  0  0  0
M  END
>  <MODEL>
2

>  <REMARK>
 VINA RESULT:      -7.2      1.676      4.303
  Name = 
  8 active torsions:
  status: ('A' for Active; 'I' for Inactive)
    1  A    between atoms: C_2  and  C_13
    2  A    between atoms: C_2  and  C_25
    3  A    between atoms: C_4  and  C_5
    4  A    between atoms: C_9  and  N_23
    5  A    between atoms: N_12  and  C_25
    6  A    between atoms: N_12  and  C_27
    7  A    between atoms: C_15  and  C_20
    8  A    between atoms: C_20  and  C_27
                            x       y       z     vdW  Elec       q    Type
                         _______ _______ _______ _____ _____    ______ ____

>  <TORSDO>
F 8

$$$$
=
 OpenBabel10272400293D

 31 33  0  0  1  0  0  0  0  0999 V2000
  188.7010  177.0270  136.7050 C   0  0  0  0  0  0  0  0  0  0  0  0
  189.6980  176.6760  137.6840 N   0  0  0  0  0  0  0  0  0  0  0  0
  189.0500  177.3320  135.5340 O   0  0  0  0  0  0  0  0  0  0  0  0
  187.2670  177.0750  137.0530 C   0  0  0  0  0  0  0  0  0  0  0  0
  185.4130  178.3180  137.9980 C   0  0  0  0  0  3  0  0  0  0  0  0
  186.7530  178.2450  137.6200 C   0  0  0  0  0  3  0  0  0  0  0  0
  187.3210  174.6140  134.9760 C   0  0  0  0  0  1  0  0  0  0  0  0
  184.5910  177.2080  137.8100 C   0  0  0  0  0  3  0  0  0  0  0  0
  185.0990  176.0700  137.2660 N   0  0  0  0  0  0  0  0  0  0  0  0
  186.6650  173.5050  137.1120 C   0  0  0  0  0  1  0  0  0  0  0  0
  186.4020  175.9710  136.8740 C   0  0  0  0  0  0  0  0  0  0  0  0
  186.8780  174.7240  136.3570 N   0  0  0  0  0  0  0  0  0  0  0  0
  191.1190  176.7620  137.3560 C   0  0  0  0  0  2  0  0  0  0  0  0
  191.8310  175.4880  137.7710 C   0  0  1  0  0  3  0  0  0  0  0  0
  191.6260  174.4250  136.7060 C   0  0  0  0  0  1  0  0  0  0  0  0
  193.3100  175.7740  137.9310 C   0  0  0  0  0  2  0  0  0  0  0  0
  193.4960  176.8840  138.7560 O   0  0  0  0  0  1  0  0  0  0  0  0
  189.3160  176.3920  139.0640 C   0  0  0  0  0  2  0  0  0  0  0  0
  189.6910  177.5440  139.9790 C   0  0  0  0  0  2  0  0  0  0  0  0
  190.6540  177.0600  141.0090 C   0  0  0  0  0  3  0  0  0  0  0  0
  190.4030  177.0080  142.2850 N   0  0  0  0  0  0  0  0  0  0  0  0
  188.4350  177.5980  147.0560 C   0  0  0  0  0  0  0  0  0  0  0  0
  190.0620  177.2500  145.2710 C   0  0  0  0  0  3  0  0  0  0  0  0
  186.7800  177.7920  143.7300 C   0  0  0  0  0  3  0  0  0  0  0  0
  187.6460  177.5760  142.2930 S   0  0  0  0  0  0  0  0  0  0  0  0
  188.0710  177.7060  148.7650 Cl  0  0  0  0  0  0  0  0  0  0  0  0
  189.1800  177.3470  142.9620 C   0  0  0  0  0  0  0  0  0  0  0  0
  189.7540  177.3410  146.6360 C   0  0  0  0  0  3  0  0  0  0  0  0
  187.7170  177.6720  144.7550 C   0  0  0  0  0  0  0  0  0  0  0  0
  189.0370  177.4200  144.3370 C   0  0  0  0  0  0  0  0  0  0  0  0
  187.4100  177.7650  146.1140 C   0  0  0  0  0  3  0  0  0  0  0  0
  1  4  1  0  0  0  0
  1  2  1  0  0  0  0
  2 18  1  0  0  0  0
  3  1  2  0  0  0  0
  4  6  1  0  0  0  0
  6  5  2  0  0  0  0
  7 12  1  0  0  0  0
  8  5  1  0  0  0  0
  9  8  2  0  0  0  0
 11  4  2  0  0  0  0
 11  9  1  0  0  0  0
 12 11  1  0  0  0  0
 12 10  1  0  0  0  0
 13  2  1  0  0  0  0
 13 14  1  0  0  0  0
 14 15  1  6  0  0  0
 14 16  1  0  0  0  0
 16 17  1  0  0  0  0
 18 19  1  0  0  0  0
 19 20  1  0  0  0  0
 20 21  2  0  0  0  0
 21 27  1  0  0  0  0
 22 26  1  0  0  0  0
 23 28  2  0  0  0  0
 24 29  2  0  0  0  0
 25 27  1  0  0  0  0
 25 24  1  0  0  0  0
 27 30  2  0  0  0  0
 28 22  1  0  0  0  0
 29 31  1  0  0  0  0
 30 29  1  0  0  0  0
 30 23  1  0  0  0  0
 31 22  2  0  0  0  0
M  END
>  <MODEL>
3

>  <REMARK>
 VINA RESULT:      -7.2      1.061      1.620
  Name = 
  8 active torsions:
  status: ('A' for Active; 'I' for Inactive)
    1  A    between atoms: C_2  and  C_13
    2  A    between atoms: C_2  and  C_25
    3  A    between atoms: C_4  and  C_5
    4  A    between atoms: C_9  and  N_23
    5  A    between atoms: N_12  and  C_25
    6  A    between atoms: N_12  and  C_27
    7  A    between atoms: C_15  and  C_20
    8  A    between atoms: C_20  and  C_27
                            x       y       z     vdW  Elec       q    Type
                         _______ _______ _______ _____ _____    ______ ____

>  <TORSDO>
F 8

$$$$
=
 OpenBabel10272400293D

 31 33  0  0  1  0  0  0  0  0999 V2000
  187.7620  177.1200  143.1080 C   0  0  0  0  0  0  0  0  0  0  0  0
  186.5100  177.8100  142.9270 N   0  0  0  0  0  0  0  0  0  0  0  0
  187.9400  176.3970  144.1240 O   0  0  0  0  0  0  0  0  0  0  0  0
  188.8680  177.2710  142.1420 C   0  0  0  0  0  0  0  0  0  0  0  0
  189.5960  177.3120  139.8300 C   0  0  0  0  0  3  0  0  0  0  0  0
  188.5770  177.2120  140.7750 C   0  0  0  0  0  3  0  0  0  0  0  0
  190.1880  178.5280  144.7970 C   0  0  0  0  0  1  0  0  0  0  0  0
  190.9130  177.4650  140.2630 C   0  0  0  0  0  3  0  0  0  0  0  0
  191.1910  177.5120  141.5930 N   0  0  0  0  0  0  0  0  0  0  0  0
  191.5920  176.5050  144.4000 C   0  0  0  0  0  1  0  0  0  0  0  0
  190.2140  177.4300  142.5430 C   0  0  0  0  0  0  0  0  0  0  0  0
  190.5880  177.4360  143.9240 N   0  0  0  0  0  0  0  0  0  0  0  0
  185.4770  177.7520  143.9590 C   0  0  0  0  0  2  0  0  0  0  0  0
  185.2270  179.1360  144.5280 C   0  0  1  0  0  3  0  0  0  0  0  0
  183.7560  179.4820  144.3840 C   0  0  0  0  0  1  0  0  0  0  0  0
  185.6150  179.1490  145.9930 C   0  0  0  0  0  2  0  0  0  0  0  0
  184.6010  178.5770  146.7610 O   0  0  0  0  0  1  0  0  0  0  0  0
  186.3140  178.7100  141.7940 C   0  0  0  0  0  2  0  0  0  0  0  0
  185.0560  178.3510  141.0260 C   0  0  0  0  0  2  0  0  0  0  0  0
  184.7800  179.4070  140.0120 C   0  0  0  0  0  3  0  0  0  0  0  0
  184.8350  179.2250  138.7240 N   0  0  0  0  0  0  0  0  0  0  0  0
  188.4920  176.9960  135.7850 C   0  0  0  0  0  0  0  0  0  0  0  0
  187.3890  178.6110  137.2440 C   0  0  0  0  0  3  0  0  0  0  0  0
  185.1060  175.7880  136.7390 C   0  0  0  0  0  3  0  0  0  0  0  0
  184.0850  176.6990  137.7350 S   0  0  0  0  0  0  0  0  0  0  0  0
  189.8840  176.5290  134.8300 Cl  0  0  0  0  0  0  0  0  0  0  0  0
  185.1170  178.0070  138.0130 C   0  0  0  0  0  0  0  0  0  0  0  0
  188.4960  178.2220  136.4760 C   0  0  0  0  0  3  0  0  0  0  0  0
  186.2770  176.5340  136.6170 C   0  0  0  0  0  0  0  0  0  0  0  0
  186.2840  177.7590  137.3110 C   0  0  0  0  0  0  0  0  0  0  0  0
  187.3790  176.1450  135.8550 C   0  0  0  0  0  3  0  0  0  0  0  0
  1  3  2  0  0  0  0
  2  1  1  0  0  0  0
  2 13  1  0  0  0  0
  4 11  1  0  0  0  0
  4  1  1  0  0  0  0
  5  8  2  0  0  0  0
  5  6  1  0  0  0  0
  6  4  2  0  0  0  0
  8  9  1  0  0  0  0
  9 11  2  0  0  0  0
 11 12  1  0  0  0  0
 12 10  1  0  0  0  0
 12  7  1  0  0  0  0
 13 14  1  0  0  0  0
 14 15  1  1  0  0  0
 14 16  1  0  0  0  0
 16 17  1  0  0  0  0
 18  2  1  0  0  0  0
 19 18  1  0  0  0  0
 20 19  1  0  0  0  0
 21 20  2  0  0  0  0
 22 31  2  0  0  0  0
 22 28  1  0  0  0  0
 23 30  1  0  0  0  0
 24 25  1  0  0  0  0
 25 27  1  0  0  0  0
 26 22  1  0  0  0  0
 27 21  1  0  0  0  0
 28 23  2  0  0  0  0
 29 24  2  0  0  0  0
 29 30  1  0  0  0  0
 30 27  2  0  0  0  0
 31 29  1  0  0  0  0
M  END
>  <MODEL>
4

>  <REMARK>
 VINA RESULT:      -6.9      4.514      8.788
  Name = 
  8 active torsions:
  status: ('A' for Active; 'I' for Inactive)
    1  A    between atoms: C_2  and  C_13
    2  A    between atoms: C_2  and  C_25
    3  A    between atoms: C_4  and  C_5
    4  A    between atoms: C_9  and  N_23
    5  A    between atoms: N_12  and  C_25
    6  A    between atoms: N_12  and  C_27
    7  A    between atoms: C_15  and  C_20
    8  A    between atoms: C_20  and  C_27
                            x       y       z     vdW  Elec       q    Type
                         _______ _______ _______ _____ _____    ______ ____

>  <TORSDO>
F 8

$$$$
=
 OpenBabel10272400293D

 31 33  0  0  1  0  0  0  0  0999 V2000
  189.1890  178.3550  139.1860 C   0  0  0  0  0  0  0  0  0  0  0  0
  188.6760  178.2610  140.5300 N   0  0  0  0  0  0  0  0  0  0  0  0
  188.8450  179.3150  138.4480 O   0  0  0  0  0  0  0  0  0  0  0  0
  190.0900  177.3230  138.6350 C   0  0  0  0  0  0  0  0  0  0  0  0
  192.2820  176.2880  138.6280 C   0  0  0  0  0  3  0  0  0  0  0  0
  191.3880  177.2230  139.1460 C   0  0  0  0  0  3  0  0  0  0  0  0
  187.2160  176.1940  137.7180 C   0  0  0  0  0  1  0  0  0  0  0  0
  191.8690  175.4560  137.5880 C   0  0  0  0  0  3  0  0  0  0  0  0
  190.6080  175.5630  137.0890 N   0  0  0  0  0  0  0  0  0  0  0  0
  188.3090  176.7290  135.5390 C   0  0  0  0  0  1  0  0  0  0  0  0
  189.7060  176.4590  137.5840 C   0  0  0  0  0  0  0  0  0  0  0  0
  188.4140  176.5500  136.9740 N   0  0  0  0  0  0  0  0  0  0  0  0
  187.6850  179.2200  141.0110 C   0  0  0  0  0  2  0  0  0  0  0  0
  186.3200  178.5630  141.1010 C   0  0  1  0  0  3  0  0  0  0  0  0
  185.5370  179.1800  142.2460 C   0  0  0  0  0  1  0  0  0  0  0  0
  185.5780  178.7800  139.7970 C   0  0  0  0  0  2  0  0  0  0  0  0
  184.4820  179.6170  140.0040 O   0  0  0  0  0  1  0  0  0  0  0  0
  189.0070  177.1150  141.3730 C   0  0  0  0  0  2  0  0  0  0  0  0
  190.0420  177.4910  142.4170 C   0  0  0  0  0  2  0  0  0  0  0  0
  190.7780  176.2670  142.8420 C   0  0  0  0  0  3  0  0  0  0  0  0
  190.9200  175.8850  144.0780 N   0  0  0  0  0  0  0  0  0  0  0  0
  186.5110  177.8460  146.0000 C   0  0  0  0  0  0  0  0  0  0  0  0
  188.0480  176.7030  144.4870 C   0  0  0  0  0  3  0  0  0  0  0  0
  189.9300  177.7310  147.4600 C   0  0  0  0  0  3  0  0  0  0  0  0
  191.2240  177.0150  146.6380 S   0  0  0  0  0  0  0  0  0  0  0  0
  184.9010  178.4350  146.3530 Cl  0  0  0  0  0  0  0  0  0  0  0  0
  190.3880  176.5020  145.2630 C   0  0  0  0  0  0  0  0  0  0  0  0
  186.7630  177.1800  144.7850 C   0  0  0  0  0  3  0  0  0  0  0  0
  188.8220  177.5710  146.6300 C   0  0  0  0  0  0  0  0  0  0  0  0
  189.0710  176.9010  145.4170 C   0  0  0  0  0  0  0  0  0  0  0  0
  187.5440  178.0430  146.9290 C   0  0  0  0  0  3  0  0  0  0  0  0
  1  2  1  0  0  0  0
  2 13  1  0  0  0  0
  2 18  1  0  0  0  0
  3  1  2  0  0  0  0
  4  6  1  0  0  0  0
  4  1  1  0  0  0  0
  5  6  2  0  0  0  0
  8  5  1  0  0  0  0
  9 11  1  0  0  0  0
  9  8  2  0  0  0  0
 10 12  1  0  0  0  0
 11  4  2  0  0  0  0
 12 11  1  0  0  0  0
 12  7  1  0  0  0  0
 13 14  1  0  0  0  0
 14 15  1  1  0  0  0
 16 17  1  0  0  0  0
 16 14  1  0  0  0  0
 18 19  1  0  0  0  0
 19 20  1  0  0  0  0
 20 21  2  0  0  0  0
 21 27  1  0  0  0  0
 22 26  1  0  0  0  0
 22 31  2  0  0  0  0
 23 28  2  0  0  0  0
 23 30  1  0  0  0  0
 25 24  1  0  0  0  0
 27 30  2  0  0  0  0
 27 25  1  0  0  0  0
 28 22  1  0  0  0  0
 29 31  1  0  0  0  0
 29 24  2  0  0  0  0
 30 29  1  0  0  0  0
M  END
>  <MODEL>
5

>  <REMARK>
 VINA RESULT:      -6.9      2.406      4.830
  Name = 
  8 active torsions:
  status: ('A' for Active; 'I' for Inactive)
    1  A    between atoms: C_2  and  C_13
    2  A    between atoms: C_2  and  C_25
    3  A    between atoms: C_4  and  C_5
    4  A    between atoms: C_9  and  N_23
    5  A    between atoms: N_12  and  C_25
    6  A    between atoms: N_12  and  C_27
    7  A    between atoms: C_15  and  C_20
    8  A    between atoms: C_20  and  C_27
                            x       y       z     vdW  Elec       q    Type
                         _______ _______ _______ _____ _____    ______ ____

>  <TORSDO>
F 8

$$$$
=
 OpenBabel10272400293D

 31 33  0  0  1  0  0  0  0  0999 V2000
  184.2130  177.1130  136.8360 C   0  0  0  0  0  0  0  0  0  0  0  0
  183.2750  177.1130  137.9310 N   0  0  0  0  0  0  0  0  0  0  0  0
  183.8010  177.2700  135.6570 O   0  0  0  0  0  0  0  0  0  0  0  0
  185.6560  176.8960  137.0620 C   0  0  0  0  0  0  0  0  0  0  0  0
  187.8310  177.8420  137.5630 C   0  0  0  0  0  3  0  0  0  0  0  0
  186.4580  177.9970  137.3800 C   0  0  0  0  0  3  0  0  0  0  0  0
  184.5120  173.9090  137.4360 C   0  0  0  0  0  1  0  0  0  0  0  0
  188.3970  176.5760  137.4200 C   0  0  0  0  0  3  0  0  0  0  0  0
  187.6140  175.5110  137.1020 N   0  0  0  0  0  0  0  0  0  0  0  0
  185.9300  173.6940  135.3950 C   0  0  0  0  0  1  0  0  0  0  0  0
  186.2650  175.6280  136.9290 C   0  0  0  0  0  0  0  0  0  0  0  0
  185.5130  174.4730  136.5450 N   0  0  0  0  0  0  0  0  0  0  0  0
  181.8390  177.1980  137.6750 C   0  0  0  0  0  2  0  0  0  0  0  0
  181.2310  175.8090  137.6320 C   0  0  1  0  0  3  0  0  0  0  0  0
  180.1000  175.7210  138.6410 C   0  0  0  0  0  1  0  0  0  0  0  0
  180.6970  175.5440  136.2380 C   0  0  0  0  0  2  0  0  0  0  0  0
  181.3420  174.4400  135.6810 O   0  0  0  0  0  1  0  0  0  0  0  0
  183.7270  176.8590  139.2960 C   0  0  0  0  0  2  0  0  0  0  0  0
  183.3690  178.0170  140.2100 C   0  0  0  0  0  2  0  0  0  0  0  0
  184.2820  179.1610  139.9340 C   0  0  0  0  0  3  0  0  0  0  0  0
  185.2510  179.5380  140.7180 N   0  0  0  0  0  0  0  0  0  0  0  0
  189.1140  176.7200  142.7460 C   0  0  0  0  0  0  0  0  0  0  0  0
  187.8380  178.0510  141.1480 C   0  0  0  0  0  3  0  0  0  0  0  0
  185.9240  177.8760  144.2700 C   0  0  0  0  0  3  0  0  0  0  0  0
  184.8120  178.8100  143.4020 S   0  0  0  0  0  0  0  0  0  0  0  0
  190.5390  175.7750  143.1260 Cl  0  0  0  0  0  0  0  0  0  0  0  0
  185.6740  178.9360  141.9540 C   0  0  0  0  0  0  0  0  0  0  0  0
  188.9740  177.2920  141.4680 C   0  0  0  0  0  3  0  0  0  0  0  0
  186.9890  177.6520  143.3990 C   0  0  0  0  0  0  0  0  0  0  0  0
  186.8520  178.2280  142.1210 C   0  0  0  0  0  0  0  0  0  0  0  0
  188.1190  176.8990  143.7190 C   0  0  0  0  0  3  0  0  0  0  0  0
  1  4  1  0  0  0  0
  1  2  1  0  0  0  0
  2 18  1  0  0  0  0
  3  1  2  0  0  0  0
  4  6  1  0  0  0  0
  6  5  2  0  0  0  0
  8  5  1  0  0  0  0
  9  8  2  0  0  0  0
 10 12  1  0  0  0  0
 11  4  2  0  0  0  0
 11  9  1  0  0  0  0
 12 11  1  0  0  0  0
 12  7  1  0  0  0  0
 13  2  1  0  0  0  0
 14 13  1  0  0  0  0
 14 15  1  1  0  0  0
 16 14  1  0  0  0  0
 17 16  1  0  0  0  0
 18 19  1  0  0  0  0
 20 19  1  0  0  0  0
 20 21  2  0  0  0  0
 21 27  1  0  0  0  0
 22 26  1  0  0  0  0
 22 31  2  0  0  0  0
 23 28  2  0  0  0  0
 23 30  1  0  0  0  0
 25 24  1  0  0  0  0
 27 30  2  0  0  0  0
 27 25  1  0  0  0  0
 28 22  1  0  0  0  0
 29 31  1  0  0  0  0
 29 24  2  0  0  0  0
 30 29  1  0  0  0  0
M  END
>  <MODEL>
6

>  <REMARK>
 VINA RESULT:      -6.7      3.606      6.250
  Name = 
  8 active torsions:
  status: ('A' for Active; 'I' for Inactive)
    1  A    between atoms: C_2  and  C_13
    2  A    between atoms: C_2  and  C_25
    3  A    between atoms: C_4  and  C_5
    4  A    between atoms: C_9  and  N_23
    5  A    between atoms: N_12  and  C_25
    6  A    between atoms: N_12  and  C_27
    7  A    between atoms: C_15  and  C_20
    8  A    between atoms: C_20  and  C_27
                            x       y       z     vdW  Elec       q    Type
                         _______ _______ _______ _____ _____    ______ ____

>  <TORSDO>
F 8

$$$$
=
 OpenBabel10272400293D

 31 33  0  0  1  0  0  0  0  0999 V2000
  185.7990  178.7890  139.2170 C   0  0  0  0  0  0  0  0  0  0  0  0
  187.1290  178.2510  139.0740 N   0  0  0  0  0  0  0  0  0  0  0  0
  185.2310  179.3320  138.2340 O   0  0  0  0  0  0  0  0  0  0  0  0
  185.0920  178.7500  140.5130 C   0  0  0  0  0  0  0  0  0  0  0  0
  185.1290  179.1860  142.8970 C   0  0  0  0  0  3  0  0  0  0  0  0
  185.7460  179.2390  141.6480 C   0  0  0  0  0  3  0  0  0  0  0  0
  182.6320  178.4650  138.4530 C   0  0  0  0  0  1  0  0  0  0  0  0
  183.8530  178.6350  143.0030 C   0  0  0  0  0  3  0  0  0  0  0  0
  183.2250  178.1540  141.8960 N   0  0  0  0  0  0  0  0  0  0  0  0
  182.6070  176.2680  139.6350 C   0  0  0  0  0  1  0  0  0  0  0  0
  183.7970  178.2020  140.6580 C   0  0  0  0  0  0  0  0  0  0  0  0
  183.0980  177.6290  139.5490 N   0  0  0  0  0  0  0  0  0  0  0  0
  187.8610  178.4150  137.8200 C   0  0  0  0  0  2  0  0  0  0  0  0
  187.4920  177.3110  136.8480 C   0  0  1  0  0  3  0  0  0  0  0  0
  187.1540  177.9180  135.4990 C   0  0  0  0  0  1  0  0  0  0  0  0
  188.6650  176.3620  136.7040 C   0  0  0  0  0  2  0  0  0  0  0  0
  188.2590  175.0550  136.9710 O   0  0  0  0  0  1  0  0  0  0  0  0
  187.8300  177.6850  140.2230 C   0  0  0  0  0  2  0  0  0  0  0  0
  189.3310  177.8480  140.0770 C   0  0  0  0  0  2  0  0  0  0  0  0
  189.9950  176.5380  140.3300 C   0  0  0  0  0  3  0  0  0  0  0  0
  190.4820  176.1680  141.4790 N   0  0  0  0  0  0  0  0  0  0  0  0
  187.2820  177.4040  145.3790 C   0  0  0  0  0  0  0  0  0  0  0  0
  188.1190  176.3540  143.3420 C   0  0  0  0  0  3  0  0  0  0  0  0
  190.8020  178.4230  144.7410 C   0  0  0  0  0  3  0  0  0  0  0  0
  191.6560  177.8700  143.3890 S   0  0  0  0  0  0  0  0  0  0  0  0
  185.9780  177.6590  146.5190 Cl  0  0  0  0  0  0  0  0  0  0  0  0
  190.4540  176.8860  142.7250 C   0  0  0  0  0  0  0  0  0  0  0  0
  187.0840  176.5670  144.2650 C   0  0  0  0  0  3  0  0  0  0  0  0
  189.5450  177.8280  144.6610 C   0  0  0  0  0  0  0  0  0  0  0  0
  189.3460  176.9870  143.5490 C   0  0  0  0  0  0  0  0  0  0  0  0
  188.5170  178.0390  145.5810 C   0  0  0  0  0  3  0  0  0  0  0  0
  1  4  1  0  0  0  0
  2  1  1  0  0  0  0
  2 18  1  0  0  0  0
  3  1  2  0  0  0  0
  4 11  2  0  0  0  0
  4  6  1  0  0  0  0
  5  8  1  0  0  0  0
  6  5  2  0  0  0  0
  7 12  1  0  0  0  0
  9  8  2  0  0  0  0
 11  9  1  0  0  0  0
 12 10  1  0  0  0  0
 12 11  1  0  0  0  0
 13  2  1  0  0  0  0
 14 15  1  6  0  0  0
 14 13  1  0  0  0  0
 16 14  1  0  0  0  0
 16 17  1  0  0  0  0
 19 18  1  0  0  0  0
 19 20  1  0  0  0  0
 20 21  2  0  0  0  0
 21 27  1  0  0  0  0
 22 31  2  0  0  0  0
 22 26  1  0  0  0  0
 23 30  1  0  0  0  0
 23 28  2  0  0  0  0
 25 24  1  0  0  0  0
 27 25  1  0  0  0  0
 27 30  2  0  0  0  0
 28 22  1  0  0  0  0
 29 24  2  0  0  0  0
 29 31  1  0  0  0  0
 30 29  1  0  0  0  0
M  END
>  <MODEL>
7

>  <REMARK>
 VINA RESULT:      -6.7      2.705      4.367
  Name = 
  8 active torsions:
  status: ('A' for Active; 'I' for Inactive)
    1  A    between atoms: C_2  and  C_13
    2  A    between atoms: C_2  and  C_25
    3  A    between atoms: C_4  and  C_5
    4  A    between atoms: C_9  and  N_23
    5  A    between atoms: N_12  and  C_25
    6  A    between atoms: N_12  and  C_27
    7  A    between atoms: C_15  and  C_20
    8  A    between atoms: C_20  and  C_27
                            x       y       z     vdW  Elec       q    Type
                         _______ _______ _______ _____ _____    ______ ____

>  <TORSDO>
F 8

$$$$
=
 OpenBabel10272400293D

 31 33  0  0  1  0  0  0  0  0999 V2000
  189.0210  178.1650  139.4620 C   0  0  0  0  0  0  0  0  0  0  0  0
  189.8590  177.2600  140.2080 N   0  0  0  0  0  0  0  0  0  0  0  0
  189.4940  178.7880  138.4750 O   0  0  0  0  0  0  0  0  0  0  0  0
  187.6190  178.4100  139.8510 C   0  0  0  0  0  0  0  0  0  0  0  0
  186.0330  179.0070  141.5850 C   0  0  0  0  0  3  0  0  0  0  0  0
  187.3460  178.8020  141.1660 C   0  0  0  0  0  3  0  0  0  0  0  0
  187.4170  178.6060  136.6430 C   0  0  0  0  0  1  0  0  0  0  0  0
  184.9920  178.8110  140.6790 C   0  0  0  0  0  3  0  0  0  0  0  0
  185.2620  178.4220  139.4040 N   0  0  0  0  0  0  0  0  0  0  0  0
  186.0400  176.5880  137.1500 C   0  0  0  0  0  1  0  0  0  0  0  0
  186.5370  178.2260  138.9600 C   0  0  0  0  0  0  0  0  0  0  0  0
  186.7410  177.7670  137.6200 N   0  0  0  0  0  0  0  0  0  0  0  0
  191.2780  177.1300  139.8870 C   0  0  0  0  0  2  0  0  0  0  0  0
  191.4510  176.6890  138.4460 C   0  0  1  0  0  3  0  0  0  0  0  0
  192.9300  176.5400  138.1380 C   0  0  0  0  0  1  0  0  0  0  0  0
  190.7490  175.3610  138.2440 C   0  0  0  0  0  2  0  0  0  0  0  0
  189.7040  175.5060  137.3320 O   0  0  0  0  0  1  0  0  0  0  0  0
  189.3480  176.5860  141.3990 C   0  0  0  0  0  2  0  0  0  0  0  0
  190.4840  176.1420  142.3010 C   0  0  0  0  0  2  0  0  0  0  0  0
  191.3340  177.3190  142.6370 C   0  0  0  0  0  3  0  0  0  0  0  0
  191.4500  177.8270  143.8300 N   0  0  0  0  0  0  0  0  0  0  0  0
  186.9300  177.8450  146.3890 C   0  0  0  0  0  0  0  0  0  0  0  0
  188.5540  178.1690  144.5980 C   0  0  0  0  0  3  0  0  0  0  0  0
  190.2630  176.5440  147.4040 C   0  0  0  0  0  3  0  0  0  0  0  0
  191.6050  176.6390  146.3770 S   0  0  0  0  0  0  0  0  0  0  0  0
  185.2990  178.0300  146.9990 Cl  0  0  0  0  0  0  0  0  0  0  0  0
  190.8490  177.3650  145.0520 C   0  0  0  0  0  0  0  0  0  0  0  0
  187.2520  178.3080  145.1000 C   0  0  0  0  0  3  0  0  0  0  0  0
  189.2040  177.1030  146.6920 C   0  0  0  0  0  0  0  0  0  0  0  0
  189.5230  177.5630  145.4000 C   0  0  0  0  0  0  0  0  0  0  0  0
  187.9080  177.2390  147.1920 C   0  0  0  0  0  3  0  0  0  0  0  0
  1  4  1  0  0  0  0
  1  2  1  0  0  0  0
  2 18  1  0  0  0  0
  3  1  2  0  0  0  0
  4  6  1  0  0  0  0
  6  5  2  0  0  0  0
  7 12  1  0  0  0  0
  8  5  1  0  0  0  0
  9  8  2  0  0  0  0
 10 12  1  0  0  0  0
 11  9  1  0  0  0  0
 11  4  2  0  0  0  0
 12 11  1  0  0  0  0
 13  2  1  0  0  0  0
 14 15  1  1  0  0  0
 14 13  1  0  0  0  0
 16 14  1  0  0  0  0
 17 16  1  0  0  0  0
 18 19  1  0  0  0  0
 19 20  1  0  0  0  0
 20 21  2  0  0  0  0
 21 27  1  0  0  0  0
 22 26  1  0  0  0  0
 22 31  2  0  0  0  0
 23 28  2  0  0  0  0
 23 30  1  0  0  0  0
 25 24  1  0  0  0  0
 27 30  2  0  0  0  0
 27 25  1  0  0  0  0
 28 22  1  0  0  0  0
 29 31  1  0  0  0  0
 29 24  2  0  0  0  0
 30 29  1  0  0  0  0
M  END
>  <MODEL>
8

>  <REMARK>
 VINA RESULT:      -6.7      2.176      3.116
  Name = 
  8 active torsions:
  status: ('A' for Active; 'I' for Inactive)
    1  A    between atoms: C_2  and  C_13
    2  A    between atoms: C_2  and  C_25
    3  A    between atoms: C_4  and  C_5
    4  A    between atoms: C_9  and  N_23
    5  A    between atoms: N_12  and  C_25
    6  A    between atoms: N_12  and  C_27
    7  A    between atoms: C_15  and  C_20
    8  A    between atoms: C_20  and  C_27
                            x       y       z     vdW  Elec       q    Type
                         _______ _______ _______ _____ _____    ______ ____

>  <TORSDO>
F 8

$$$$
=
 OpenBabel10272400293D

 31 33  0  0  1  0  0  0  0  0999 V2000
  190.3250  175.7750  136.3290 C   0  0  0  0  0  0  0  0  0  0  0  0
  191.2280  175.9580  137.4370 N   0  0  0  0  0  0  0  0  0  0  0  0
  190.7060  176.0400  135.1580 O   0  0  0  0  0  0  0  0  0  0  0  0
  188.9380  175.3140  136.5370 C   0  0  0  0  0  0  0  0  0  0  0  0
  187.4230  173.4850  137.0220 C   0  0  0  0  0  3  0  0  0  0  0  0
  188.7190  173.9700  136.8540 C   0  0  0  0  0  3  0  0  0  0  0  0
  188.5970  178.4960  136.9020 C   0  0  0  0  0  1  0  0  0  0  0  0
  186.3460  174.3550  136.8630 C   0  0  0  0  0  3  0  0  0  0  0  0
  186.5650  175.6600  136.5460 N   0  0  0  0  0  0  0  0  0  0  0  0
  187.2630  178.0400  134.8440 C   0  0  0  0  0  1  0  0  0  0  0  0
  187.8210  176.1670  136.3880 C   0  0  0  0  0  0  0  0  0  0  0  0
  187.9720  177.5370  136.0040 N   0  0  0  0  0  0  0  0  0  0  0  0
  192.5520  176.5380  137.2250 C   0  0  0  0  0  2  0  0  0  0  0  0
  193.4810  175.5120  136.6050 C   0  0  1  0  0  3  0  0  0  0  0  0
  194.5970  176.2260  135.8630 C   0  0  0  0  0  1  0  0  0  0  0  0
  194.0670  174.6450  137.7010 C   0  0  0  0  0  2  0  0  0  0  0  0
  194.8780  175.4130  138.5360 O   0  0  0  0  0  1  0  0  0  0  0  0
  190.7790  175.7250  138.8070 C   0  0  0  0  0  2  0  0  0  0  0  0
  190.7770  177.0170  139.6040 C   0  0  0  0  0  2  0  0  0  0  0  0
  189.3830  177.3310  140.0260 C   0  0  0  0  0  3  0  0  0  0  0  0
  189.0000  177.4690  141.2630 N   0  0  0  0  0  0  0  0  0  0  0  0
  188.5890  177.3170  146.4380 C   0  0  0  0  0  0  0  0  0  0  0  0
  187.9490  177.3100  144.0840 C   0  0  0  0  0  3  0  0  0  0  0  0
  191.6070  177.4700  144.2680 C   0  0  0  0  0  3  0  0  0  0  0  0
  191.4870  177.4950  142.5810 S   0  0  0  0  0  0  0  0  0  0  0  0
  188.1290  177.2930  148.1270 Cl  0  0  0  0  0  0  0  0  0  0  0  0
  189.8060  177.3970  142.4520 C   0  0  0  0  0  0  0  0  0  0  0  0
  187.5960  177.2890  145.4410 C   0  0  0  0  0  3  0  0  0  0  0  0
  190.2970  177.3920  144.7370 C   0  0  0  0  0  0  0  0  0  0  0  0
  189.3020  177.3590  143.7410 C   0  0  0  0  0  0  0  0  0  0  0  0
  189.9470  177.3690  146.0880 C   0  0  0  0  0  3  0  0  0  0  0  0
  1  4  1  0  0  0  0
  1  2  1  0  0  0  0
  2 18  1  0  0  0  0
  3  1  2  0  0  0  0
  4  6  1  0  0  0  0
  6  5  2  0  0  0  0
  8  5  1  0  0  0  0
  9  8  2  0  0  0  0
 10 12  1  0  0  0  0
 11  4  2  0  0  0  0
 11  9  1  0  0  0  0
 12 11  1  0  0  0  0
 12  7  1  0  0  0  0
 13  2  1  0  0  0  0
 14 15  1  1  0  0  0
 14 13  1  0  0  0  0
 14 16  1  0  0  0  0
 16 17  1  0  0  0  0
 18 19  1  0  0  0  0
 19 20  1  0  0  0  0
 20 21  2  0  0  0  0
 21 27  1  0  0  0  0
 22 26  1  0  0  0  0
 23 28  2  0  0  0  0
 24 29  2  0  0  0  0
 25 24  1  0  0  0  0
 27 25  1  0  0  0  0
 27 30  2  0  0  0  0
 28 22  1  0  0  0  0
 29 31  1  0  0  0  0
 30 23  1  0  0  0  0
 30 29  1  0  0  0  0
 31 22  2  0  0  0  0
M  END
>  <MODEL>
9

>  <REMARK>
 VINA RESULT:      -6.7      1.273      2.190
  Name = 
  8 active torsions:
  status: ('A' for Active; 'I' for Inactive)
    1  A    between atoms: C_2  and  C_13
    2  A    between atoms: C_2  and  C_25
    3  A    between atoms: C_4  and  C_5
    4  A    between atoms: C_9  and  N_23
    5  A    between atoms: N_12  and  C_25
    6  A    between atoms: N_12  and  C_27
    7  A    between atoms: C_15  and  C_20
    8  A    between atoms: C_20  and  C_27
                            x       y       z     vdW  Elec       q    Type
                         _______ _______ _______ _____ _____    ______ ____

>  <TORSDO>
F 8

$$$$
