=
 OpenBabel10272400223D

 31 35  0  0  1  0  0  0  0  0999 V2000
  192.5180  177.2940  140.0810 C   0  0  0  0  0  0  0  0  0  0  0  0
  190.5580  177.5180  143.3420 C   0  0  1  0  0  3  0  0  0  0  0  0
  191.2070  176.4870  144.2370 C   0  0  0  0  0  0  0  0  0  0  0  0
  192.1340  174.2650  144.5870 C   0  0  0  0  0  3  0  0  0  0  0  0
  190.8740  177.3460  141.8690 C   0  0  0  0  0  0  0  0  0  0  0  0
  191.5040  177.0660  139.1490 C   0  0  0  0  0  3  0  0  0  0  0  0
  191.5770  175.2250  143.7410 C   0  0  0  0  0  3  0  0  0  0  0  0
  188.1830  178.0360  142.5040 C   0  0  2  0  0  3  0  0  0  0  0  0
  193.8080  177.3730  139.6730 F   0  0  0  0  0  0  0  0  0  0  0  0
  189.3810  178.1430  146.1680 C   0  0  0  0  0  2  0  0  0  0  0  0
  192.3120  174.5470  145.9430 C   0  0  0  0  0  3  0  0  0  0  0  0
  188.4260  177.0730  141.3480 C   0  0  0  0  0  2  0  0  0  0  0  0
  189.0600  177.6460  143.6980 C   0  0  2  0  0  3  0  0  0  0  0  0
  192.2050  177.4370  141.4360 C   0  0  0  0  0  3  0  0  0  0  0  0
  191.9220  175.7870  146.4550 C   0  0  0  0  0  3  0  0  0  0  0  0
  189.8530  177.1450  140.9200 C   0  0  0  0  0  0  0  0  0  0  0  0
  190.1720  176.9920  139.5680 C   0  0  0  0  0  3  0  0  0  0  0  0
  188.8930  178.6710  144.8200 C   0  0  0  0  0  2  0  0  0  0  0  0
  191.3660  176.7570  145.6130 C   0  0  0  0  0  0  0  0  0  0  0  0
  190.9010  178.0450  146.2150 C   0  0  0  0  0  2  0  0  0  0  0  0
  186.1580  179.7970  141.5530 O   0  0  0  0  0  0  0  0  0  0  0  0
  185.8020  178.8970  142.3620 C   0  0  0  0  0  0  0  0  0  0  0  0
  186.7770  177.9890  142.8850 N   0  0  0  0  0  2  0  0  0  0  0  0
  181.6700  178.5220  143.4720 C   0  0  0  0  0  0  0  0  0  0  0  0
  183.4110  178.5440  141.7940 C   0  0  0  0  0  3  0  0  0  0  0  0
  184.8970  179.1040  145.1470 O   0  0  0  0  0  1  0  0  0  0  0  0
  180.2360  178.3910  143.8370 C   0  0  0  0  0  1  0  0  0  0  0  0
  182.0620  178.4190  142.1370 C   0  0  0  0  0  3  0  0  0  0  0  0
  183.9780  178.8760  144.1290 C   0  0  0  0  0  0  0  0  0  0  0  0
  184.3850  178.7730  142.7790 C   0  0  0  0  0  0  0  0  0  0  0  0
  182.6260  178.7510  144.4630 C   0  0  0  0  0  3  0  0  0  0  0  0
  1 14  1  0  0  0  0
  2  5  1  6  0  0  0
  2 13  1  0  0  0  0
  2  3  1  0  0  0  0
  3 19  1  0  0  0  0
  4 11  2  0  0  0  0
  6 17  1  0  0  0  0
  6  1  2  0  0  0  0
  7  3  2  0  0  0  0
  7  4  1  0  0  0  0
  8 23  1  1  0  0  0
  8 13  1  0  0  0  0
  9  1  1  0  0  0  0
 10 20  1  0  0  0  0
 11 15  1  0  0  0  0
 12  8  1  0  0  0  0
 13 18  1  1  0  0  0
 14  5  2  0  0  0  0
 16 12  1  0  0  0  0
 16  5  1  0  0  0  0
 17 16  2  0  0  0  0
 18 10  1  0  0  0  0
 19 20  1  0  0  0  0
 19 15  2  0  0  0  0
 21 22  2  0  0  0  0
 22 30  1  0  0  0  0
 22 23  1  0  0  0  0
 24 27  1  0  0  0  0
 24 31  1  0  0  0  0
 25 28  1  0  0  0  0
 25 30  2  0  0  0  0
 28 24  2  0  0  0  0
 29 31  2  0  0  0  0
 29 26  1  0  0  0  0
 30 29  1  0  0  0  0
M  END
>  <MODEL>
1

>  <REMARK>
 VINA RESULT:      -8.3      0.000      0.000
  Name = 
  2 active torsions:
  status: ('A' for Active; 'I' for Inactive)
    1  A    between atoms: C_9  and  C_22
    2  A    between atoms: C_15  and  N_23
                            x       y       z     vdW  Elec       q    Type
                         _______ _______ _______ _____ _____    ______ ____

>  <TORSDO>
F 2

$$$$
=
 OpenBabel10272400223D

 31 35  0  0  1  0  0  0  0  0999 V2000
  180.7400  179.4390  137.9670 C   0  0  0  0  0  0  0  0  0  0  0  0
  184.3460  178.3760  138.5920 C   0  0  1  0  0  3  0  0  0  0  0  0
  184.5910  177.2820  137.5780 C   0  0  0  0  0  0  0  0  0  0  0  0
  183.8740  175.2700  136.4140 C   0  0  0  0  0  3  0  0  0  0  0  0
  182.8790  178.6810  138.8310 C   0  0  0  0  0  0  0  0  0  0  0  0
  180.1700  179.2880  139.2330 C   0  0  0  0  0  3  0  0  0  0  0  0
  183.6190  176.3020  137.3190 C   0  0  0  0  0  3  0  0  0  0  0  0
  184.5470  178.6410  141.1420 C   0  0  2  0  0  3  0  0  0  0  0  0
  179.9820  179.8740  136.9310 F   0  0  0  0  0  0  0  0  0  0  0  0
  187.4410  177.9600  138.6850 C   0  0  0  0  0  2  0  0  0  0  0  0
  185.1110  175.1960  135.7700 C   0  0  0  0  0  3  0  0  0  0  0  0
  183.1290  178.0990  141.2680 C   0  0  0  0  0  2  0  0  0  0  0  0
  185.1930  178.1120  139.8570 C   0  0  2  0  0  3  0  0  0  0  0  0
  182.0900  179.1400  137.7670 C   0  0  0  0  0  3  0  0  0  0  0  0
  186.0970  176.1480  136.0400 C   0  0  0  0  0  3  0  0  0  0  0  0
  182.3060  178.5580  140.1110 C   0  0  0  0  0  0  0  0  0  0  0  0
  180.9530  178.8490  140.3040 C   0  0  0  0  0  3  0  0  0  0  0  0
  186.5770  178.7370  139.6770 C   0  0  0  0  0  2  0  0  0  0  0  0
  185.8480  177.1870  136.9430 C   0  0  0  0  0  0  0  0  0  0  0  0
  186.9540  178.1460  137.2530 C   0  0  0  0  0  2  0  0  0  0  0  0
  184.5550  179.9310  143.6800 O   0  0  0  0  0  0  0  0  0  0  0  0
  185.2820  178.9070  143.5540 C   0  0  0  0  0  0  0  0  0  0  0  0
  185.3290  178.2230  142.2980 N   0  0  0  0  0  2  0  0  0  0  0  0
  187.6910  177.4360  146.7900 C   0  0  0  0  0  0  0  0  0  0  0  0
  187.3290  177.8100  144.4290 C   0  0  0  0  0  3  0  0  0  0  0  0
  184.4350  179.0980  146.3580 O   0  0  0  0  0  1  0  0  0  0  0  0
  188.5380  176.9210  147.8970 C   0  0  0  0  0  1  0  0  0  0  0  0
  188.1270  177.3260  145.4690 C   0  0  0  0  0  3  0  0  0  0  0  0
  185.6550  178.5160  146.0350 C   0  0  0  0  0  0  0  0  0  0  0  0
  186.0880  178.4090  144.6940 C   0  0  0  0  0  0  0  0  0  0  0  0
  186.4590  178.0290  147.0700 C   0  0  0  0  0  3  0  0  0  0  0  0
  1  6  1  0  0  0  0
  2  3  1  6  0  0  0
  2  5  1  0  0  0  0
  2 13  1  0  0  0  0
  4  7  2  0  0  0  0
  5 16  2  0  0  0  0
  6 17  2  0  0  0  0
  7  3  1  0  0  0  0
  8 12  1  0  0  0  0
  8 23  1  1  0  0  0
  9  1  1  0  0  0  0
 10 18  1  0  0  0  0
 11 15  2  0  0  0  0
 11  4  1  0  0  0  0
 13 18  1  6  0  0  0
 13  8  1  0  0  0  0
 14  1  2  0  0  0  0
 14  5  1  0  0  0  0
 15 19  1  0  0  0  0
 16 17  1  0  0  0  0
 16 12  1  0  0  0  0
 19 20  1  0  0  0  0
 19  3  2  0  0  0  0
 20 10  1  0  0  0  0
 22 21  2  0  0  0  0
 22 30  1  0  0  0  0
 23 22  1  0  0  0  0
 24 31  1  0  0  0  0
 24 27  1  0  0  0  0
 25 30  2  0  0  0  0
 25 28  1  0  0  0  0
 28 24  2  0  0  0  0
 29 26  1  0  0  0  0
 29 31  2  0  0  0  0
 30 29  1  0  0  0  0
M  END
>  <MODEL>
2

>  <REMARK>
 VINA RESULT:      -8.0      4.240      8.314
  Name = 
  2 active torsions:
  status: ('A' for Active; 'I' for Inactive)
    1  A    between atoms: C_9  and  C_22
    2  A    between atoms: C_15  and  N_23
                            x       y       z     vdW  Elec       q    Type
                         _______ _______ _______ _____ _____    ______ ____

>  <TORSDO>
F 2

$$$$
=
 OpenBabel10272400223D

 31 35  0  0  1  0  0  0  0  0999 V2000
  187.4200  178.1010  135.6200 C   0  0  0  0  0  0  0  0  0  0  0  0
  190.4990  176.8740  137.5000 C   0  0  1  0  0  3  0  0  0  0  0  0
  190.8920  175.6040  136.7810 C   0  0  0  0  0  0  0  0  0  0  0  0
  190.3010  173.4850  135.7430 C   0  0  0  0  0  3  0  0  0  0  0  0
  189.0820  177.3340  137.2160 C   0  0  0  0  0  0  0  0  0  0  0  0
  186.4810  178.2190  136.6470 C   0  0  0  0  0  3  0  0  0  0  0  0
  189.9230  174.6760  136.3660 C   0  0  0  0  0  3  0  0  0  0  0  0
  189.9590  177.5620  139.9180 C   0  0  2  0  0  3  0  0  0  0  0  0
  187.0720  178.4080  134.3470 F   0  0  0  0  0  0  0  0  0  0  0  0
  193.3420  176.2320  138.6280 C   0  0  0  0  0  2  0  0  0  0  0  0
  191.6530  173.1990  135.5420 C   0  0  0  0  0  3  0  0  0  0  0  0
  188.5100  177.1670  139.6620 C   0  0  0  0  0  2  0  0  0  0  0  0
  190.8860  176.7670  138.9920 C   0  0  2  0  0  3  0  0  0  0  0  0
  188.7170  177.6630  135.9030 C   0  0  0  0  0  3  0  0  0  0  0  0
  192.6280  174.1010  135.9740 C   0  0  0  0  0  3  0  0  0  0  0  0
  188.1400  177.4830  138.2520 C   0  0  0  0  0  0  0  0  0  0  0  0
  186.8420  177.9110  137.9620 C   0  0  0  0  0  3  0  0  0  0  0  0
  192.3290  177.2370  139.1750 C   0  0  0  0  0  2  0  0  0  0  0  0
  192.2580  175.2980  136.5970 C   0  0  0  0  0  0  0  0  0  0  0  0
  193.3360  176.2040  137.1040 C   0  0  0  0  0  2  0  0  0  0  0  0
  188.7170  178.7640  142.1800 O   0  0  0  0  0  0  0  0  0  0  0  0
  189.6260  177.9190  142.4060 C   0  0  0  0  0  0  0  0  0  0  0  0
  190.2960  177.2900  141.3090 N   0  0  0  0  0  2  0  0  0  0  0  0
  190.8300  176.9170  146.4050 C   0  0  0  0  0  0  0  0  0  0  0  0
  191.3630  177.3560  144.0880 C   0  0  0  0  0  3  0  0  0  0  0  0
  187.7030  177.6610  144.6090 O   0  0  0  0  0  1  0  0  0  0  0  0
  191.2640  176.5700  147.7820 C   0  0  0  0  0  1  0  0  0  0  0  0
  191.7730  177.0300  145.3830 C   0  0  0  0  0  3  0  0  0  0  0  0
  189.0590  177.4580  144.8380 C   0  0  0  0  0  0  0  0  0  0  0  0
  190.0080  177.5740  143.7960 C   0  0  0  0  0  0  0  0  0  0  0  0
  189.4770  177.1310  146.1320 C   0  0  0  0  0  3  0  0  0  0  0  0
  1 14  2  0  0  0  0
  1  6  1  0  0  0  0
  2  3  1  1  0  0  0
  2 13  1  0  0  0  0
  4  7  1  0  0  0  0
  5  2  1  0  0  0  0
  5 16  2  0  0  0  0
  6 17  2  0  0  0  0
  7  3  2  0  0  0  0
  8 23  1  1  0  0  0
  9  1  1  0  0  0  0
 10 18  1  0  0  0  0
 11  4  2  0  0  0  0
 11 15  1  0  0  0  0
 12  8  1  0  0  0  0
 13 18  1  6  0  0  0
 13  8  1  0  0  0  0
 14  5  1  0  0  0  0
 15 19  2  0  0  0  0
 16 12  1  0  0  0  0
 17 16  1  0  0  0  0
 19  3  1  0  0  0  0
 19 20  1  0  0  0  0
 20 10  1  0  0  0  0
 21 22  2  0  0  0  0
 22 30  1  0  0  0  0
 23 22  1  0  0  0  0
 24 27  1  0  0  0  0
 25 28  1  0  0  0  0
 26 29  1  0  0  0  0
 28 24  2  0  0  0  0
 29 31  2  0  0  0  0
 30 25  2  0  0  0  0
 30 29  1  0  0  0  0
 31 24  1  0  0  0  0
M  END
>  <MODEL>
3

>  <REMARK>
 VINA RESULT:      -8.0      3.897      7.217
  Name = 
  2 active torsions:
  status: ('A' for Active; 'I' for Inactive)
    1  A    between atoms: C_9  and  C_22
    2  A    between atoms: C_15  and  N_23
                            x       y       z     vdW  Elec       q    Type
                         _______ _______ _______ _____ _____    ______ ____

>  <TORSDO>
F 2

$$$$
=
 OpenBabel10272400223D

 31 35  0  0  1  0  0  0  0  0999 V2000
  182.8870  179.4230  139.1720 C   0  0  0  0  0  0  0  0  0  0  0  0
  186.5760  178.4770  139.0390 C   0  0  1  0  0  3  0  0  0  0  0  0
  186.6640  177.4850  137.9020 C   0  0  0  0  0  0  0  0  0  0  0  0
  185.8060  175.5470  136.7080 C   0  0  0  0  0  3  0  0  0  0  0  0
  185.1700  178.6930  139.5650 C   0  0  0  0  0  0  0  0  0  0  0  0
  182.5630  179.1400  140.5010 C   0  0  0  0  0  3  0  0  0  0  0  0
  185.6900  176.4860  137.7340 C   0  0  0  0  0  3  0  0  0  0  0  0
  187.2330  178.5350  141.5240 C   0  0  2  0  0  3  0  0  0  0  0  0
  181.9390  179.9080  138.3320 F   0  0  0  0  0  0  0  0  0  0  0  0
  189.6470  178.1970  138.5360 C   0  0  0  0  0  2  0  0  0  0  0  0
  186.9060  175.5830  135.8480 C   0  0  0  0  0  3  0  0  0  0  0  0
  185.8780  177.9210  141.8530 C   0  0  0  0  0  2  0  0  0  0  0  0
  187.6480  178.1470  140.1020 C   0  0  2  0  0  3  0  0  0  0  0  0
  184.1860  179.2040  138.7060 C   0  0  0  0  0  3  0  0  0  0  0  0
  187.8950  176.5540  136.0210 C   0  0  0  0  0  3  0  0  0  0  0  0
  184.8440  178.4370  140.9110 C   0  0  0  0  0  0  0  0  0  0  0  0
  183.5410  178.6480  141.3690 C   0  0  0  0  0  3  0  0  0  0  0  0
  188.9560  178.8470  139.7340 C   0  0  0  0  0  2  0  0  0  0  0  0
  187.7860  177.5010  137.0450 C   0  0  0  0  0  0  0  0  0  0  0  0
  188.9010  178.4800  137.2370 C   0  0  0  0  0  2  0  0  0  0  0  0
  186.8400  178.3050  144.3350 O   0  0  0  0  0  0  0  0  0  0  0  0
  187.9640  177.9530  143.8820 C   0  0  0  0  0  0  0  0  0  0  0  0
  188.2250  178.0580  142.4780 N   0  0  0  0  0  2  0  0  0  0  0  0
  191.0760  176.4510  146.4310 C   0  0  0  0  0  0  0  0  0  0  0  0
  190.2730  177.1200  144.2510 C   0  0  0  0  0  3  0  0  0  0  0  0
  187.5770  177.5460  146.7630 O   0  0  0  0  0  1  0  0  0  0  0  0
  192.1640  175.9290  147.2980 C   0  0  0  0  0  1  0  0  0  0  0  0
  191.2970  176.6300  145.0650 C   0  0  0  0  0  3  0  0  0  0  0  0
  188.8010  177.2510  146.1740 C   0  0  0  0  0  0  0  0  0  0  0  0
  189.0160  177.4360  144.7890 C   0  0  0  0  0  0  0  0  0  0  0  0
  189.8310  176.7600  146.9820 C   0  0  0  0  0  3  0  0  0  0  0  0
  1  6  1  0  0  0  0
  2  3  1  6  0  0  0
  2  5  1  0  0  0  0
  2 13  1  0  0  0  0
  4  7  2  0  0  0  0
  5 16  2  0  0  0  0
  6 17  2  0  0  0  0
  7  3  1  0  0  0  0
  8 12  1  0  0  0  0
  8 23  1  1  0  0  0
  9  1  1  0  0  0  0
 10 18  1  0  0  0  0
 11 15  2  0  0  0  0
 11  4  1  0  0  0  0
 13 18  1  6  0  0  0
 13  8  1  0  0  0  0
 14  1  2  0  0  0  0
 14  5  1  0  0  0  0
 15 19  1  0  0  0  0
 16 17  1  0  0  0  0
 16 12  1  0  0  0  0
 19 20  1  0  0  0  0
 19  3  2  0  0  0  0
 20 10  1  0  0  0  0
 22 21  2  0  0  0  0
 22 30  1  0  0  0  0
 23 22  1  0  0  0  0
 24 31  1  0  0  0  0
 24 27  1  0  0  0  0
 25 30  2  0  0  0  0
 25 28  1  0  0  0  0
 28 24  2  0  0  0  0
 29 26  1  0  0  0  0
 29 31  2  0  0  0  0
 30 29  1  0  0  0  0
M  END
>  <MODEL>
4

>  <REMARK>
 VINA RESULT:      -7.5      3.441      7.834
  Name = 
  2 active torsions:
  status: ('A' for Active; 'I' for Inactive)
    1  A    between atoms: C_9  and  C_22
    2  A    between atoms: C_15  and  N_23
                            x       y       z     vdW  Elec       q    Type
                         _______ _______ _______ _____ _____    ______ ____

>  <TORSDO>
F 2

$$$$
=
 OpenBabel10272400223D

 31 35  0  0  1  0  0  0  0  0999 V2000
  191.5630  178.6610  143.8640 C   0  0  0  0  0  0  0  0  0  0  0  0
  187.8960  178.5580  144.8960 C   0  0  1  0  0  3  0  0  0  0  0  0
  187.9120  177.9010  146.2570 C   0  0  0  0  0  0  0  0  0  0  0  0
  188.7050  176.1620  147.7640 C   0  0  0  0  0  3  0  0  0  0  0  0
  189.1650  178.3490  144.0930 C   0  0  0  0  0  0  0  0  0  0  0  0
  191.5340  178.0140  142.6270 C   0  0  0  0  0  3  0  0  0  0  0  0
  188.7330  176.7900  146.5170 C   0  0  0  0  0  3  0  0  0  0  0  0
  186.7170  178.1670  142.6450 C   0  0  2  0  0  3  0  0  0  0  0  0
  192.7370  179.1230  144.3590 F   0  0  0  0  0  0  0  0  0  0  0  0
  185.0100  179.0460  145.9890 C   0  0  0  0  0  2  0  0  0  0  0  0
  187.8450  176.6270  148.7610 C   0  0  0  0  0  3  0  0  0  0  0  0
  187.8520  177.2260  142.2620 C   0  0  0  0  0  2  0  0  0  0  0  0
  186.5760  178.2180  144.1700 C   0  0  2  0  0  3  0  0  0  0  0  0
  190.3830  178.8320  144.5930 C   0  0  0  0  0  3  0  0  0  0  0  0
  187.0040  177.7130  148.5070 C   0  0  0  0  0  3  0  0  0  0  0  0
  189.1380  177.7230  142.8320 C   0  0  0  0  0  0  0  0  0  0  0  0
  190.3220  177.5460  142.1110 C   0  0  0  0  0  3  0  0  0  0  0  0
  185.5070  179.2400  144.5580 C   0  0  0  0  0  2  0  0  0  0  0  0
  187.0270  178.3490  147.2610 C   0  0  0  0  0  0  0  0  0  0  0  0
  186.0620  179.4650  147.0100 C   0  0  0  0  0  2  0  0  0  0  0  0
  185.1840  179.5760  140.7030 O   0  0  0  0  0  0  0  0  0  0  0  0
  184.7540  178.4460  141.0640 C   0  0  0  0  0  0  0  0  0  0  0  0
  185.4750  177.6950  142.0470 N   0  0  0  0  0  2  0  0  0  0  0  0
  181.2010  176.7940  139.3070 C   0  0  0  0  0  0  0  0  0  0  0  0
  183.5950  177.1290  139.3080 C   0  0  0  0  0  3  0  0  0  0  0  0
  182.0910  178.8450  142.2320 O   0  0  0  0  0  1  0  0  0  0  0  0
  179.9820  176.2160  138.6860 C   0  0  0  0  0  1  0  0  0  0  0  0
  182.4500  176.5840  138.7230 C   0  0  0  0  0  3  0  0  0  0  0  0
  182.2390  178.0990  141.0690 C   0  0  0  0  0  0  0  0  0  0  0  0
  183.5090  177.8910  140.4840 C   0  0  0  0  0  0  0  0  0  0  0  0
  181.0970  177.5500  140.4770 C   0  0  0  0  0  3  0  0  0  0  0  0
  1  9  1  0  0  0  0
  1 14  1  0  0  0  0
  2  5  1  6  0  0  0
  2  3  1  0  0  0  0
  3  7  2  0  0  0  0
  3 19  1  0  0  0  0
  4 11  2  0  0  0  0
  5 14  2  0  0  0  0
  6  1  2  0  0  0  0
  7  4  1  0  0  0  0
  8 23  1  6  0  0  0
  8 13  1  0  0  0  0
 10 20  1  0  0  0  0
 12  8  1  0  0  0  0
 12 16  1  0  0  0  0
 13 18  1  6  0  0  0
 13  2  1  0  0  0  0
 15 11  1  0  0  0  0
 16  5  1  0  0  0  0
 17  6  1  0  0  0  0
 17 16  2  0  0  0  0
 18 10  1  0  0  0  0
 19 15  2  0  0  0  0
 20 19  1  0  0  0  0
 21 22  2  0  0  0  0
 22 23  1  0  0  0  0
 24 31  1  0  0  0  0
 25 30  2  0  0  0  0
 27 24  1  0  0  0  0
 28 24  2  0  0  0  0
 28 25  1  0  0  0  0
 29 26  1  0  0  0  0
 30 22  1  0  0  0  0
 30 29  1  0  0  0  0
 31 29  2  0  0  0  0
M  END
>  <MODEL>
5

>  <REMARK>
 VINA RESULT:      -7.3      2.487      3.842
  Name = 
  2 active torsions:
  status: ('A' for Active; 'I' for Inactive)
    1  A    between atoms: C_9  and  C_22
    2  A    between atoms: C_15  and  N_23
                            x       y       z     vdW  Elec       q    Type
                         _______ _______ _______ _____ _____    ______ ____

>  <TORSDO>
F 2

$$$$
=
 OpenBabel10272400223D

 31 35  0  0  1  0  0  0  0  0999 V2000
  187.8110  178.1050  148.3940 C   0  0  0  0  0  0  0  0  0  0  0  0
  188.3750  177.3740  144.6970 C   0  0  1  0  0  3  0  0  0  0  0  0
  189.7680  177.8950  144.4230 C   0  0  0  0  0  0  0  0  0  0  0  0
  191.4740  179.6130  144.6620 C   0  0  0  0  0  3  0  0  0  0  0  0
  187.7540  177.9060  145.9740 C   0  0  0  0  0  0  0  0  0  0  0  0
  186.6250  178.8420  148.3660 C   0  0  0  0  0  3  0  0  0  0  0  0
  190.2010  179.1200  144.9580 C   0  0  0  0  0  3  0  0  0  0  0  0
  186.0230  177.7220  143.7170 C   0  0  2  0  0  3  0  0  0  0  0  0
  188.4200  177.8460  149.5770 F   0  0  0  0  0  0  0  0  0  0  0  0
  189.0590  176.2180  141.8750 C   0  0  0  0  0  2  0  0  0  0  0  0
  192.3210  178.8970  143.8140 C   0  0  0  0  0  3  0  0  0  0  0  0
  185.8500  178.9030  144.6640 C   0  0  0  0  0  2  0  0  0  0  0  0
  187.5110  177.5060  143.4230 C   0  0  2  0  0  3  0  0  0  0  0  0
  188.3720  177.6350  147.2030 C   0  0  0  0  0  3  0  0  0  0  0  0
  191.8910  177.6910  143.2540 C   0  0  0  0  0  3  0  0  0  0  0  0
  186.5440  178.6250  145.9550 C   0  0  0  0  0  0  0  0  0  0  0  0
  185.9930  179.1020  147.1470 C   0  0  0  0  0  3  0  0  0  0  0  0
  187.6930  176.2590  142.5570 C   0  0  0  0  0  2  0  0  0  0  0  0
  190.6200  177.1880  143.5470 C   0  0  0  0  0  0  0  0  0  0  0  0
  190.1750  175.9280  142.8730 C   0  0  0  0  0  2  0  0  0  0  0  0
  183.2940  178.5090  143.5290 O   0  0  0  0  0  0  0  0  0  0  0  0
  183.9330  178.3910  142.4470 C   0  0  0  0  0  0  0  0  0  0  0  0
  185.3060  177.9860  142.4770 N   0  0  0  0  0  2  0  0  0  0  0  0
  181.9400  179.1510  138.7200 C   0  0  0  0  0  0  0  0  0  0  0  0
  181.9140  178.3560  141.0030 C   0  0  0  0  0  3  0  0  0  0  0  0
  185.3160  179.5520  140.1330 O   0  0  0  0  0  1  0  0  0  0  0  0
  181.2350  179.4060  137.4380 C   0  0  0  0  0  1  0  0  0  0  0  0
  181.2490  178.5970  139.7980 C   0  0  0  0  0  3  0  0  0  0  0  0
  183.9670  179.2260  140.0500 C   0  0  0  0  0  0  0  0  0  0  0  0
  183.2750  178.6650  141.1480 C   0  0  0  0  0  0  0  0  0  0  0  0
  183.2940  179.4640  138.8470 C   0  0  0  0  0  3  0  0  0  0  0  0
  1  9  1  0  0  0  0
  2  3  1  6  0  0  0
  2  5  1  0  0  0  0
  3  7  1  0  0  0  0
  4  7  2  0  0  0  0
  5 14  1  0  0  0  0
  6  1  1  0  0  0  0
  8 23  1  6  0  0  0
  8 12  1  0  0  0  0
 10 18  1  0  0  0  0
 10 20  1  0  0  0  0
 11  4  1  0  0  0  0
 12 16  1  0  0  0  0
 13 18  1  6  0  0  0
 13  8  1  0  0  0  0
 13  2  1  0  0  0  0
 14  1  2  0  0  0  0
 15 19  1  0  0  0  0
 15 11  2  0  0  0  0
 16  5  2  0  0  0  0
 16 17  1  0  0  0  0
 17  6  2  0  0  0  0
 19  3  2  0  0  0  0
 20 19  1  0  0  0  0
 22 23  1  0  0  0  0
 22 21  2  0  0  0  0
 24 31  2  0  0  0  0
 24 28  1  0  0  0  0
 25 30  1  0  0  0  0
 27 24  1  0  0  0  0
 28 25  2  0  0  0  0
 29 26  1  0  0  0  0
 29 30  2  0  0  0  0
 30 22  1  0  0  0  0
 31 29  1  0  0  0  0
M  END
>  <MODEL>
6

>  <REMARK>
 VINA RESULT:      -7.1      2.970      5.324
  Name = 
  2 active torsions:
  status: ('A' for Active; 'I' for Inactive)
    1  A    between atoms: C_9  and  C_22
    2  A    between atoms: C_15  and  N_23
                            x       y       z     vdW  Elec       q    Type
                         _______ _______ _______ _____ _____    ______ ____

>  <TORSDO>
F 2

$$$$
=
 OpenBabel10272400223D

 31 35  0  0  1  0  0  0  0  0999 V2000
  185.4710  177.7830  136.4610 C   0  0  0  0  0  0  0  0  0  0  0  0
  183.6210  178.3630  139.7430 C   0  0  1  0  0  3  0  0  0  0  0  0
  182.6640  179.4910  139.4350 C   0  0  0  0  0  0  0  0  0  0  0  0
  182.1890  181.6540  138.4280 C   0  0  0  0  0  3  0  0  0  0  0  0
  184.7490  178.2170  138.7400 C   0  0  0  0  0  0  0  0  0  0  0  0
  186.8050  177.9080  136.8550 C   0  0  0  0  0  3  0  0  0  0  0  0
  183.0680  180.5970  138.6670 C   0  0  0  0  0  3  0  0  0  0  0  0
  185.4550  177.8890  141.4810 C   0  0  2  0  0  3  0  0  0  0  0  0
  185.1680  177.5190  135.1670 F   0  0  0  0  0  0  0  0  0  0  0  0
  181.7030  178.4010  142.2090 C   0  0  0  0  0  2  0  0  0  0  0  0
  180.9010  181.6290  138.9670 C   0  0  0  0  0  3  0  0  0  0  0  0
  186.4490  178.5850  140.5600 C   0  0  0  0  0  2  0  0  0  0  0  0
  184.0450  178.4300  141.2270 C   0  0  2  0  0  3  0  0  0  0  0  0
  184.4460  177.9340  137.4000 C   0  0  0  0  0  3  0  0  0  0  0  0
  180.4960  180.5490  139.7550 C   0  0  0  0  0  3  0  0  0  0  0  0
  186.0970  178.3120  139.1360 C   0  0  0  0  0  0  0  0  0  0  0  0
  187.1170  178.1710  138.1910 C   0  0  0  0  0  3  0  0  0  0  0  0
  183.0330  177.6610  142.0770 C   0  0  0  0  0  2  0  0  0  0  0  0
  181.3690  179.4830  139.9980 C   0  0  0  0  0  0  0  0  0  0  0  0
  180.9180  178.3790  140.9020 C   0  0  0  0  0  2  0  0  0  0  0  0
  187.3850  176.3890  142.9410 O   0  0  0  0  0  0  0  0  0  0  0  0
  186.8230  177.3420  143.5460 C   0  0  0  0  0  0  0  0  0  0  0  0
  185.8340  178.1250  142.8680 N   0  0  0  0  0  2  0  0  0  0  0  0
  187.9340  178.2240  147.5990 C   0  0  0  0  0  0  0  0  0  0  0  0
  188.4870  177.4240  145.3860 C   0  0  0  0  0  3  0  0  0  0  0  0
  184.9190  178.4320  145.4960 O   0  0  0  0  0  1  0  0  0  0  0  0
  188.3360  178.5220  148.9980 C   0  0  0  0  0  1  0  0  0  0  0  0
  188.8670  177.7050  146.7000 C   0  0  0  0  0  3  0  0  0  0  0  0
  186.2350  178.1820  145.8690 C   0  0  0  0  0  0  0  0  0  0  0  0
  187.1730  177.6570  144.9510 C   0  0  0  0  0  0  0  0  0  0  0  0
  186.6220  178.4610  147.1830 C   0  0  0  0  0  3  0  0  0  0  0  0
  1  6  2  0  0  0  0
  1 14  1  0  0  0  0
  2  5  1  6  0  0  0
  2 13  1  0  0  0  0
  3  2  1  0  0  0  0
  3 19  1  0  0  0  0
  4  7  1  0  0  0  0
  4 11  2  0  0  0  0
  5 16  1  0  0  0  0
  6 17  1  0  0  0  0
  7  3  2  0  0  0  0
  8 23  1  1  0  0  0
  9  1  1  0  0  0  0
 11 15  1  0  0  0  0
 12  8  1  0  0  0  0
 13  8  1  0  0  0  0
 13 18  1  1  0  0  0
 14  5  2  0  0  0  0
 15 19  2  0  0  0  0
 16 12  1  0  0  0  0
 17 16  2  0  0  0  0
 18 10  1  0  0  0  0
 19 20  1  0  0  0  0
 20 10  1  0  0  0  0
 21 22  2  0  0  0  0
 22 30  1  0  0  0  0
 23 22  1  0  0  0  0
 24 27  1  0  0  0  0
 25 28  1  0  0  0  0
 26 29  1  0  0  0  0
 28 24  2  0  0  0  0
 29 31  2  0  0  0  0
 30 25  2  0  0  0  0
 30 29  1  0  0  0  0
 31 24  1  0  0  0  0
M  END
>  <MODEL>
7

>  <REMARK>
 VINA RESULT:      -6.7      3.540      8.051
  Name = 
  2 active torsions:
  status: ('A' for Active; 'I' for Inactive)
    1  A    between atoms: C_9  and  C_22
    2  A    between atoms: C_15  and  N_23
                            x       y       z     vdW  Elec       q    Type
                         _______ _______ _______ _____ _____    ______ ____

>  <TORSDO>
F 2

$$$$
=
 OpenBabel10272400223D

 31 35  0  0  1  0  0  0  0  0999 V2000
  181.0210  178.4450  135.5760 C   0  0  0  0  0  0  0  0  0  0  0  0
  184.3920  177.6730  137.1790 C   0  0  1  0  0  3  0  0  0  0  0  0
  184.9300  176.5140  136.3710 C   0  0  0  0  0  0  0  0  0  0  0  0
  184.6120  174.3670  135.2720 C   0  0  0  0  0  3  0  0  0  0  0  0
  182.9010  177.9020  137.0150 C   0  0  0  0  0  0  0  0  0  0  0  0
  180.1560  178.3670  136.6700 C   0  0  0  0  0  3  0  0  0  0  0  0
  184.0950  175.4540  135.9780 C   0  0  0  0  0  3  0  0  0  0  0  0
  183.9310  178.1690  139.6590 C   0  0  2  0  0  3  0  0  0  0  0  0
  180.5330  178.7390  134.3460 F   0  0  0  0  0  0  0  0  0  0  0  0
  187.3770  177.4660  138.0770 C   0  0  0  0  0  2  0  0  0  0  0  0
  185.9740  174.3160  134.9650 C   0  0  0  0  0  3  0  0  0  0  0  0
  182.5500  177.5500  139.4830 C   0  0  0  0  0  2  0  0  0  0  0  0
  184.9010  177.5740  138.6330 C   0  0  2  0  0  3  0  0  0  0  0  0
  182.3890  178.2170  135.7480 C   0  0  0  0  0  3  0  0  0  0  0  0
  186.8200  175.3500  135.3750 C   0  0  0  0  0  3  0  0  0  0  0  0
  182.0280  177.8540  138.1190 C   0  0  0  0  0  0  0  0  0  0  0  0
  180.6600  178.0730  137.9400 C   0  0  0  0  0  3  0  0  0  0  0  0
  186.2590  178.2680  138.7410 C   0  0  0  0  0  2  0  0  0  0  0  0
  186.3090  176.4450  136.0800 C   0  0  0  0  0  0  0  0  0  0  0  0
  187.2610  177.4960  136.5570 C   0  0  0  0  0  2  0  0  0  0  0  0
  185.5900  179.9050  141.1890 O   0  0  0  0  0  0  0  0  0  0  0  0
  185.2360  178.8230  141.7330 C   0  0  0  0  0  0  0  0  0  0  0  0
  184.4120  177.9030  141.0090 N   0  0  0  0  0  2  0  0  0  0  0  0
  186.4040  177.9200  145.7650 C   0  0  0  0  0  0  0  0  0  0  0  0
  184.9010  178.9680  144.1880 C   0  0  0  0  0  3  0  0  0  0  0  0
  187.6180  177.2260  142.3600 O   0  0  0  0  0  1  0  0  0  0  0  0
  186.7940  177.6180  147.1670 C   0  0  0  0  0  1  0  0  0  0  0  0
  185.2660  178.6840  145.5070 C   0  0  0  0  0  3  0  0  0  0  0  0
  186.8190  177.7220  143.3840 C   0  0  0  0  0  0  0  0  0  0  0  0
  185.6670  178.4940  143.1120 C   0  0  0  0  0  0  0  0  0  0  0  0
  187.1780  177.4420  144.7060 C   0  0  0  0  0  3  0  0  0  0  0  0
  1 14  2  0  0  0  0
  1  6  1  0  0  0  0
  2  3  1  6  0  0  0
  2 13  1  0  0  0  0
  4  7  1  0  0  0  0
  5  2  1  0  0  0  0
  5 16  2  0  0  0  0
  6 17  2  0  0  0  0
  7  3  2  0  0  0  0
  8 23  1  1  0  0  0
  9  1  1  0  0  0  0
 10 18  1  0  0  0  0
 11  4  2  0  0  0  0
 11 15  1  0  0  0  0
 12  8  1  0  0  0  0
 13 18  1  6  0  0  0
 13  8  1  0  0  0  0
 14  5  1  0  0  0  0
 15 19  2  0  0  0  0
 16 12  1  0  0  0  0
 17 16  1  0  0  0  0
 19  3  1  0  0  0  0
 19 20  1  0  0  0  0
 20 10  1  0  0  0  0
 21 22  2  0  0  0  0
 22 30  1  0  0  0  0
 23 22  1  0  0  0  0
 24 27  1  0  0  0  0
 25 28  2  0  0  0  0
 26 29  1  0  0  0  0
 28 24  1  0  0  0  0
 29 31  1  0  0  0  0
 30 29  2  0  0  0  0
 30 25  1  0  0  0  0
 31 24  2  0  0  0  0
M  END
>  <MODEL>
8

>  <REMARK>
 VINA RESULT:      -6.5      4.947      8.509
  Name = 
  2 active torsions:
  status: ('A' for Active; 'I' for Inactive)
    1  A    between atoms: C_9  and  C_22
    2  A    between atoms: C_15  and  N_23
                            x       y       z     vdW  Elec       q    Type
                         _______ _______ _______ _____ _____    ______ ____

>  <TORSDO>
F 2

$$$$
=
 OpenBabel10272400223D

 31 35  0  0  1  0  0  0  0  0999 V2000
  191.5690  178.8220  143.6690 C   0  0  0  0  0  0  0  0  0  0  0  0
  187.8360  178.7120  142.9090 C   0  0  1  0  0  3  0  0  0  0  0  0
  187.2040  178.2830  144.2130 C   0  0  0  0  0  0  0  0  0  0  0  0
  187.1600  176.8480  146.1770 C   0  0  0  0  0  3  0  0  0  0  0  0
  189.3250  178.4380  142.8220 C   0  0  0  0  0  0  0  0  0  0  0  0
  192.0900  177.9840  142.6810 C   0  0  0  0  0  3  0  0  0  0  0  0
  187.7770  177.2680  144.9970 C   0  0  0  0  0  3  0  0  0  0  0  0
  187.8110  177.9100  140.4660 C   0  0  2  0  0  3  0  0  0  0  0  0
  192.3980  179.4120  144.5640 F   0  0  0  0  0  0  0  0  0  0  0  0
  184.7870  179.2320  142.4620 C   0  0  0  0  0  2  0  0  0  0  0  0
  185.9530  177.4250  146.5780 C   0  0  0  0  0  3  0  0  0  0  0  0
  188.9640  176.9740  140.8060 C   0  0  0  0  0  2  0  0  0  0  0  0
  186.9870  178.1980  141.7250 C   0  0  2  0  0  3  0  0  0  0  0  0
  190.1920  179.0510  143.7380 C   0  0  0  0  0  3  0  0  0  0  0  0
  185.3580  178.4150  145.7930 C   0  0  0  0  0  3  0  0  0  0  0  0
  189.8600  177.6170  141.8110 C   0  0  0  0  0  0  0  0  0  0  0  0
  191.2360  177.3830  141.7530 C   0  0  0  0  0  3  0  0  0  0  0  0
  185.8920  179.2170  141.4070 C   0  0  0  0  0  2  0  0  0  0  0  0
  185.9710  178.8440  144.6110 C   0  0  0  0  0  0  0  0  0  0  0  0
  185.2660  179.8590  143.7670 C   0  0  0  0  0  2  0  0  0  0  0  0
  187.4410  178.8770  137.8140 O   0  0  0  0  0  0  0  0  0  0  0  0
  186.8310  177.8190  138.1290 C   0  0  0  0  0  0  0  0  0  0  0  0
  186.9670  177.2910  139.4520 N   0  0  0  0  0  2  0  0  0  0  0  0
  184.2620  175.8420  135.3130 C   0  0  0  0  0  0  0  0  0  0  0  0
  184.5870  177.3420  137.1810 C   0  0  0  0  0  3  0  0  0  0  0  0
  187.8590  175.9830  136.0830 O   0  0  0  0  0  1  0  0  0  0  0  0
  183.3580  175.1660  134.3470 C   0  0  0  0  0  1  0  0  0  0  0  0
  183.7360  176.7070  136.2720 C   0  0  0  0  0  3  0  0  0  0  0  0
  186.4960  176.2420  136.1680 C   0  0  0  0  0  0  0  0  0  0  0  0
  185.9720  177.1210  137.1430 C   0  0  0  0  0  0  0  0  0  0  0  0
  185.6380  175.6110  135.2620 C   0  0  0  0  0  3  0  0  0  0  0  0
  1 14  1  0  0  0  0
  1  9  1  0  0  0  0
  2  5  1  6  0  0  0
  2  3  1  0  0  0  0
  3 19  2  0  0  0  0
  3  7  1  0  0  0  0
  4 11  1  0  0  0  0
  5 14  2  0  0  0  0
  6  1  2  0  0  0  0
  7  4  2  0  0  0  0
  8 23  1  6  0  0  0
  8 12  1  0  0  0  0
  8 13  1  0  0  0  0
 10 20  1  0  0  0  0
 12 16  1  0  0  0  0
 13 18  1  6  0  0  0
 13  2  1  0  0  0  0
 15 11  2  0  0  0  0
 16  5  1  0  0  0  0
 17 16  2  0  0  0  0
 17  6  1  0  0  0  0
 18 10  1  0  0  0  0
 19 15  1  0  0  0  0
 20 19  1  0  0  0  0
 21 22  2  0  0  0  0
 22 23  1  0  0  0  0
 24 28  1  0  0  0  0
 26 29  1  0  0  0  0
 27 24  1  0  0  0  0
 28 25  2  0  0  0  0
 29 30  2  0  0  0  0
 30 25  1  0  0  0  0
 30 22  1  0  0  0  0
 31 24  2  0  0  0  0
 31 29  1  0  0  0  0
M  END
>  <MODEL>
9

>  <REMARK>
 VINA RESULT:      -6.3      3.762      5.773
  Name = 
  2 active torsions:
  status: ('A' for Active; 'I' for Inactive)
    1  A    between atoms: C_9  and  C_22
    2  A    between atoms: C_15  and  N_23
                            x       y       z     vdW  Elec       q    Type
                         _______ _______ _______ _____ _____    ______ ____

>  <TORSDO>
F 2

$$$$
