=
 OpenBabel10272401273D

 55 60  0  0  1  0  0  0  0  0999 V2000
  186.9960  177.6770  143.1210 C   0  0  2  0  0  3  0  0  0  0  0  0
  185.3160  177.6430  137.6530 C   0  0  0  0  0  2  0  0  0  0  0  0
  187.5730  175.8810  137.4640 O   0  0  0  0  0  1  0  0  0  0  0  0
  182.9460  177.9420  138.3060 C   0  0  1  0  0  3  0  0  0  0  0  0
  191.9330  176.8750  139.0440 C   0  0  0  0  0  2  0  0  0  0  0  0
  193.2010  177.1810  139.6000 O   0  0  0  0  0  0  0  0  0  0  0  0
  190.8790  177.1440  141.2700 C   0  0  2  0  0  3  0  0  0  0  0  0
  192.1220  176.5540  141.6020 O   0  0  0  0  0  0  0  0  0  0  0  0
  189.1670  177.6350  137.8640 C   0  0  0  0  0  2  0  0  0  0  0  0
  193.1490  177.3260  141.0120 C   0  0  0  0  0  2  0  0  0  0  0  0
  185.4370  178.5550  144.8940 C   0  0  0  0  0  2  0  0  0  0  0  0
  190.7740  177.5360  139.7930 C   0  0  2  0  0  3  0  0  0  0  0  0
  183.3680  178.5220  142.8690 C   0  0  0  0  0  0  0  0  0  0  0  0
  187.4810  177.9220  141.7060 C   0  0  0  0  0  2  0  0  0  0  0  0
  184.5790  178.0170  142.6070 C   0  0  0  0  0  3  0  0  0  0  0  0
  189.4830  177.9000  143.1830 C   0  0  2  0  0  3  0  0  0  0  0  0
  184.2950  178.6270  138.1870 C   0  0  0  0  0  2  0  0  0  0  0  0
  190.5550  178.3150  142.1850 C   0  0  0  0  0  2  0  0  0  0  0  0
  186.7040  178.0270  138.1310 C   0  0  0  0  0  2  0  0  0  0  0  0
  187.7750  177.2610  137.3640 C   0  0  2  0  0  3  0  0  0  0  0  0
  184.0110  179.0570  145.2150 C   0  0  0  0  0  2  0  0  0  0  0  0
  182.6860  177.5760  139.7380 C   0  0  0  0  0  3  0  0  0  0  0  0
  185.7580  178.5150  143.3930 C   0  0  2  0  0  3  0  0  0  0  0  0
  189.4420  177.0560  139.2460 C   0  0  0  0  0  2  0  0  0  0  0  0
  188.1670  178.6090  142.8680 C   0  0  2  0  0  3  0  0  0  0  0  0
  182.3340  178.4880  140.6480 C   0  0  0  0  0  3  0  0  0  0  0  0
  182.1690  178.0950  142.0800 C   0  0  0  0  0  2  0  0  0  0  0  0
  183.2220  179.5210  143.9820 C   0  0  0  0  0  2  0  0  0  0  0  0
  191.4720  177.8910  144.7500 C   0  0  0  0  0  2  0  0  0  0  0  0
  191.3730  177.1490  146.8690 C   0  0  2  0  0  3  0  0  0  0  0  0
  189.1430  177.3850  145.6630 C   0  0  0  0  0  2  0  0  0  0  0  0
  189.8500  177.3480  147.0200 C   0  0  0  0  0  2  0  0  0  0  0  0
  191.7180  176.7680  145.5590 O   0  0  0  0  0  0  0  0  0  0  0  0
  189.9640  178.1570  144.6150 C   0  0  2  0  0  3  0  0  0  0  0  0
  191.9220  176.1350  147.8680 C   0  0  2  0  0  3  0  0  0  0  0  0
  192.8710  176.7250  148.7030 O   0  0  0  0  0  1  0  0  0  0  0  0
  192.5290  174.9400  147.1580 C   0  0  0  0  0  1  0  0  0  0  0  0
  181.8970  178.8120  137.7890 N   0  0  0  0  0  2  0  0  0  0  0  0
  180.0400  176.9300  137.5530 O   0  0  0  0  0  0  0  0  0  0  0  0
  180.8810  177.8760  136.7400 S   0  0  0  0  0  0  0  0  0  0  0  0
  179.9820  178.8180  135.9910 O   0  0  0  0  0  0  0  0  0  0  0  0
  181.8690  176.9620  135.5950 C   0  0  0  0  0  0  0  0  0  0  0  0
  182.8310  177.5010  135.0730 O   0  0  0  0  0  0  0  0  0  0  0  0
  180.0570  175.3260  135.1110 C   0  0  0  0  0  1  0  0  0  0  0  0
  181.5600  175.5330  135.2400 C   0  0  2  0  0  3  0  0  0  0  0  0
  181.0030  172.3370  136.3080 C   0  0  0  0  0  0  0  0  0  0  0  0
  182.9570  175.1690  137.1560 O   0  0  0  0  0  1  0  0  0  0  0  0
  179.9890  171.5260  137.0300 C   0  0  0  0  0  1  0  0  0  0  0  0
  183.3070  173.6560  135.3620 C   0  0  1  0  0  3  0  0  0  0  0  0
  181.6400  171.8090  135.2620 C   0  0  0  0  0  3  0  0  0  0  0  0
  182.2680  174.4920  136.1460 C   0  0  2  0  0  0  0  0  0  0  0  0
  182.6320  172.6090  134.4770 C   0  0  0  0  0  2  0  0  0  0  0  0
  181.3020  173.6300  136.7630 O   0  0  0  0  0  0  0  0  0  0  0  0
  184.1430  174.4720  134.5940 O   0  0  0  0  0  0  0  0  0  0  0  0
  185.4330  174.1930  135.0490 C   0  0  0  0  0  1  0  0  0  0  0  0
  1 14  1  6  0  0  0
  1 23  1  0  0  0  0
  2 19  1  0  0  0  0
  2 17  1  0  0  0  0
  4 38  1  1  0  0  0
  4 22  1  0  0  0  0
  5  6  1  0  0  0  0
  6 10  1  0  0  0  0
  7  8  1  0  0  0  0
  7 18  1  1  0  0  0
  9 24  1  0  0  0  0
 10  8  1  0  0  0  0
 11 21  1  0  0  0  0
 12  5  1  6  0  0  0
 12  7  1  0  0  0  0
 13 28  1  0  0  0  0
 15 13  2  0  0  0  0
 16 18  1  6  0  0  0
 16 34  1  0  0  0  0
 17  4  1  0  0  0  0
 20  3  1  1  0  0  0
 20  9  1  0  0  0  0
 20 19  1  0  0  0  0
 22 26  2  0  0  0  0
 23 15  1  6  0  0  0
 23 11  1  0  0  0  0
 24 12  1  0  0  0  0
 25 14  1  6  0  0  0
 25  1  1  0  0  0  0
 25 16  1  0  0  0  0
 26 27  1  0  0  0  0
 27 13  1  0  0  0  0
 28 21  1  0  0  0  0
 29 33  1  0  0  0  0
 30 32  1  0  0  0  0
 30 35  1  1  0  0  0
 31 32  1  0  0  0  0
 33 30  1  0  0  0  0
 34 29  1  6  0  0  0
 34 31  1  0  0  0  0
 35 37  1  6  0  0  0
 35 36  1  0  0  0  0
 40 39  2  0  0  0  0
 40 38  1  0  0  0  0
 41 40  2  0  0  0  0
 42 40  1  0  0  0  0
 43 42  2  0  0  0  0
 45 44  1  1  0  0  0
 45 42  1  0  0  0  0
 45 51  1  0  0  0  0
 46 53  1  0  0  0  0
 46 48  1  0  0  0  0
 49 54  1  6  0  0  0
 49 51  1  0  0  0  0
 50 46  2  0  0  0  0
 51 53  1  0  0  0  0
 51 47  1  1  0  0  0
 52 50  1  0  0  0  0
 52 49  1  0  0  0  0
 54 55  1  0  0  0  0
M  END
>  <MODEL>
1

>  <REMARK>
 VINA RESULT:      -8.7      0.000      0.000
  Name = 
  8 active torsions:
  status: ('A' for Active; 'I' for Inactive)
    1  A    between atoms: C_6  and  C_14
    2  A    between atoms: C_6  and  S_20
    3  A    between atoms: C_8  and  N_22
    4  A    between atoms: C_10  and  C_32
    5  A    between atoms: O_11  and  C_29
    6  A    between atoms: C_14  and  C_38
    7  A    between atoms: S_20  and  N_22
    8  A    between atoms: C_33  and  C_52
                            x       y       z     vdW  Elec       q    Type
                         _______ _______ _______ _____ _____    ______ ____

>  <TORSDO>
F 8

$$$$
=
 OpenBabel10272401273D

 55 60  0  0  1  0  0  0  0  0999 V2000
  187.3440  178.7250  140.9280 C   0  0  2  0  0  3  0  0  0  0  0  0
  188.3710  176.0540  135.9740 C   0  0  0  0  0  2  0  0  0  0  0  0
  186.2950  177.8440  135.1230 O   0  0  0  0  0  1  0  0  0  0  0  0
  190.7590  175.7470  136.5540 C   0  0  1  0  0  3  0  0  0  0  0  0
  182.0710  178.3010  137.2330 C   0  0  0  0  0  2  0  0  0  0  0  0
  180.8520  178.4620  137.9390 O   0  0  0  0  0  0  0  0  0  0  0  0
  183.3450  178.9160  139.2670 C   0  0  2  0  0  3  0  0  0  0  0  0
  182.2150  179.7620  139.3600 O   0  0  0  0  0  0  0  0  0  0  0  0
  184.5900  176.7050  136.3790 C   0  0  0  0  0  2  0  0  0  0  0  0
  181.0540  178.9620  139.2520 C   0  0  0  0  0  2  0  0  0  0  0  0
  189.0030  178.5260  142.8130 C   0  0  0  0  0  2  0  0  0  0  0  0
  183.2370  177.8900  138.1340 C   0  0  2  0  0  3  0  0  0  0  0  0
  190.8150  177.3490  140.8850 C   0  0  0  0  0  0  0  0  0  0  0  0
  186.6760  177.9420  139.8160 C   0  0  0  0  0  2  0  0  0  0  0  0
  189.6390  177.8500  140.4900 C   0  0  0  0  0  3  0  0  0  0  0  0
  184.8710  178.9110  141.2290 C   0  0  2  0  0  3  0  0  0  0  0  0
  189.3430  175.2820  136.8420 C   0  0  0  0  0  2  0  0  0  0  0  0
  183.6550  178.2490  140.5980 C   0  0  0  0  0  2  0  0  0  0  0  0
  187.0160  176.1290  136.6550 C   0  0  0  0  0  2  0  0  0  0  0  0
  185.9460  176.6110  135.6840 C   0  0  2  0  0  3  0  0  0  0  0  0
  190.3990  178.0250  143.2470 C   0  0  0  0  0  2  0  0  0  0  0  0
  191.2190  176.6770  137.6380 C   0  0  0  0  0  3  0  0  0  0  0  0
  188.5150  177.9320  141.4840 C   0  0  2  0  0  3  0  0  0  0  0  0
  184.5380  177.8770  137.3510 C   0  0  0  0  0  2  0  0  0  0  0  0
  186.0640  177.9560  141.2010 C   0  0  2  0  0  3  0  0  0  0  0  0
  191.5810  176.2320  138.8440 C   0  0  0  0  0  3  0  0  0  0  0  0
  191.9510  177.2000  139.9210 C   0  0  0  0  0  2  0  0  0  0  0  0
  190.9880  176.9490  142.3230 C   0  0  0  0  0  2  0  0  0  0  0  0
  185.8090  179.8190  143.3980 C   0  0  0  0  0  2  0  0  0  0  0  0
  185.0820  179.1760  145.4240 C   0  0  2  0  0  3  0  0  0  0  0  0
  183.7030  178.3790  143.4380 C   0  0  0  0  0  2  0  0  0  0  0  0
  183.6990  178.6960  144.9350 C   0  0  0  0  0  2  0  0  0  0  0  0
  186.0810  178.9420  144.4630 O   0  0  0  0  0  0  0  0  0  0  0  0
  184.5380  179.3970  142.6430 C   0  0  2  0  0  3  0  0  0  0  0  0
  185.4760  178.5350  146.7520 C   0  0  2  0  0  3  0  0  0  0  0  0
  185.7000  179.5090  147.7260 O   0  0  0  0  0  1  0  0  0  0  0  0
  186.7100  177.6660  146.5960 C   0  0  0  0  0  1  0  0  0  0  0  0
  191.6470  174.5980  136.4360 N   0  0  0  0  0  2  0  0  0  0  0  0
  193.3700  173.8380  134.5660 O   0  0  0  0  0  0  0  0  0  0  0  0
  192.9600  175.0280  135.3880 S   0  0  0  0  0  0  0  0  0  0  0  0
  192.4930  176.1240  134.4740 O   0  0  0  0  0  0  0  0  0  0  0  0
  194.3350  175.5960  136.3410 C   0  0  0  0  0  0  0  0  0  0  0  0
  194.4050  176.7760  136.6450 O   0  0  0  0  0  0  0  0  0  0  0  0
  195.3110  174.3820  138.2820 C   0  0  0  0  0  1  0  0  0  0  0  0
  195.4300  174.6680  136.7910 C   0  0  2  0  0  3  0  0  0  0  0  0
  198.6260  174.4370  137.9730 C   0  0  0  0  0  0  0  0  0  0  0  0
  196.7460  176.2860  135.6080 O   0  0  0  0  0  1  0  0  0  0  0  0
  199.4430  174.8020  139.1600 C   0  0  0  0  0  1  0  0  0  0  0  0
  197.5080  174.0480  135.4160 C   0  0  1  0  0  3  0  0  0  0  0  0
  198.8300  173.2630  137.3750 C   0  0  0  0  0  3  0  0  0  0  0  0
  196.8490  175.1000  136.3390 C   0  0  2  0  0  0  0  0  0  0  0  0
  197.9960  172.8350  136.2070 C   0  0  0  0  0  2  0  0  0  0  0  0
  197.6820  175.3490  137.4800 O   0  0  0  0  0  0  0  0  0  0  0  0
  196.6350  173.6420  134.4010 O   0  0  0  0  0  0  0  0  0  0  0  0
  196.7420  172.2510  134.3720 C   0  0  0  0  0  1  0  0  0  0  0  0
  1 14  1  6  0  0  0
  1 25  1  0  0  0  0
  1 23  1  0  0  0  0
  2 19  1  0  0  0  0
  2 17  1  0  0  0  0
  4 38  1  1  0  0  0
  4 17  1  0  0  0  0
  4 22  1  0  0  0  0
  5  6  1  0  0  0  0
  6 10  1  0  0  0  0
  7  8  1  0  0  0  0
  7 18  1  1  0  0  0
  9 24  1  0  0  0  0
 10  8  1  0  0  0  0
 11 21  1  0  0  0  0
 12  5  1  6  0  0  0
 12  7  1  0  0  0  0
 13 28  1  0  0  0  0
 15 13  2  0  0  0  0
 16 18  1  1  0  0  0
 16 34  1  0  0  0  0
 20  3  1  1  0  0  0
 20  9  1  0  0  0  0
 20 19  1  0  0  0  0
 22 26  2  0  0  0  0
 23 15  1  6  0  0  0
 23 11  1  0  0  0  0
 24 12  1  0  0  0  0
 25 14  1  6  0  0  0
 25 16  1  0  0  0  0
 26 27  1  0  0  0  0
 27 13  1  0  0  0  0
 28 21  1  0  0  0  0
 29 33  1  0  0  0  0
 30 35  1  1  0  0  0
 31 32  1  0  0  0  0
 32 30  1  0  0  0  0
 33 30  1  0  0  0  0
 34 29  1  1  0  0  0
 34 31  1  0  0  0  0
 35 37  1  6  0  0  0
 35 36  1  0  0  0  0
 39 40  2  0  0  0  0
 40 42  1  0  0  0  0
 40 38  1  0  0  0  0
 41 40  2  0  0  0  0
 42 43  2  0  0  0  0
 42 45  1  0  0  0  0
 45 44  1  1  0  0  0
 46 48  1  0  0  0  0
 49 54  1  6  0  0  0
 49 52  1  0  0  0  0
 49 51  1  0  0  0  0
 50 46  2  0  0  0  0
 51 47  1  6  0  0  0
 51 45  1  0  0  0  0
 51 53  1  0  0  0  0
 52 50  1  0  0  0  0
 53 46  1  0  0  0  0
 55 54  1  0  0  0  0
M  END
>  <MODEL>
2

>  <REMARK>
 VINA RESULT:      -8.4      4.413     10.111
  Name = 
  8 active torsions:
  status: ('A' for Active; 'I' for Inactive)
    1  A    between atoms: C_6  and  C_14
    2  A    between atoms: C_6  and  S_20
    3  A    between atoms: C_8  and  N_22
    4  A    between atoms: C_10  and  C_32
    5  A    between atoms: O_11  and  C_29
    6  A    between atoms: C_14  and  C_38
    7  A    between atoms: S_20  and  N_22
    8  A    between atoms: C_33  and  C_52
                            x       y       z     vdW  Elec       q    Type
                         _______ _______ _______ _____ _____    ______ ____

>  <TORSDO>
F 8

$$$$
=
 OpenBabel10272401273D

 55 60  0  0  1  0  0  0  0  0999 V2000
  185.4720  177.3450  138.4830 C   0  0  2  0  0  3  0  0  0  0  0  0
  190.8910  176.6340  140.1700 C   0  0  0  0  0  2  0  0  0  0  0  0
  189.5410  175.8240  142.5690 O   0  0  0  0  0  1  0  0  0  0  0  0
  191.6030  176.0470  137.8720 C   0  0  1  0  0  3  0  0  0  0  0  0
  186.2250  178.3710  144.8090 C   0  0  0  0  0  2  0  0  0  0  0  0
  185.1830  179.1280  145.4030 O   0  0  0  0  0  0  0  0  0  0  0  0
  184.9490  178.2580  142.6880 C   0  0  2  0  0  3  0  0  0  0  0  0
  183.9200  178.1710  143.6560 O   0  0  0  0  0  0  0  0  0  0  0  0
  188.7690  178.0460  143.0650 C   0  0  0  0  0  2  0  0  0  0  0  0
  184.0580  179.2590  144.5470 C   0  0  0  0  0  2  0  0  0  0  0  0
  184.9590  177.6090  136.0310 C   0  0  0  0  0  2  0  0  0  0  0  0
  186.3210  178.5670  143.2960 C   0  0  2  0  0  3  0  0  0  0  0  0
  187.6920  176.7930  135.5330 C   0  0  0  0  0  0  0  0  0  0  0  0
  186.4630  177.7350  139.5610 C   0  0  0  0  0  2  0  0  0  0  0  0
  187.1940  176.7660  136.7740 C   0  0  0  0  0  3  0  0  0  0  0  0
  184.2110  178.4690  140.3240 C   0  0  2  0  0  3  0  0  0  0  0  0
  191.1660  177.1790  138.7840 C   0  0  0  0  0  2  0  0  0  0  0  0
  184.5930  179.2380  141.5810 C   0  0  0  0  0  2  0  0  0  0  0  0
  189.8700  177.5070  140.8770 C   0  0  0  0  0  2  0  0  0  0  0  0
  189.8120  177.1810  142.3640 C   0  0  2  0  0  3  0  0  0  0  0  0
  185.5150  177.5540  134.5900 C   0  0  0  0  0  2  0  0  0  0  0  0
  190.4590  175.6270  136.9970 C   0  0  0  0  0  3  0  0  0  0  0  0
  186.0450  177.6720  137.1140 C   0  0  2  0  0  3  0  0  0  0  0  0
  187.3510  177.6240  142.6990 C   0  0  0  0  0  2  0  0  0  0  0  0
  185.2880  178.6400  139.2550 C   0  0  2  0  0  3  0  0  0  0  0  0
  190.0660  176.3560  135.9500 C   0  0  0  0  0  3  0  0  0  0  0  0
  188.8680  175.9460  135.1570 C   0  0  0  0  0  2  0  0  0  0  0  0
  187.0430  177.6810  134.5080 C   0  0  0  0  0  2  0  0  0  0  0  0
  181.9750  177.6850  139.4330 C   0  0  0  0  0  2  0  0  0  0  0  0
  180.8640  178.7350  137.7870 C   0  0  2  0  0  3  0  0  0  0  0  0
  182.8890  179.9590  138.7240 C   0  0  0  0  0  2  0  0  0  0  0  0
  181.5490  180.1010  137.9990 C   0  0  0  0  0  2  0  0  0  0  0  0
  181.7430  177.6680  138.0470 O   0  0  0  0  0  0  0  0  0  0  0  0
  182.8240  178.9010  139.8390 C   0  0  2  0  0  3  0  0  0  0  0  0
  180.2780  178.5970  136.3850 C   0  0  2  0  0  3  0  0  0  0  0  0
  179.9850  177.2630  136.0970 O   0  0  0  0  0  1  0  0  0  0  0  0
  181.2240  179.1560  135.3380 C   0  0  0  0  0  1  0  0  0  0  0  0
  192.7490  176.4640  137.0740 N   0  0  0  0  0  2  0  0  0  0  0  0
  192.7060  173.8430  136.6570 O   0  0  0  0  0  0  0  0  0  0  0  0
  193.6060  175.0440  136.5670 S   0  0  0  0  0  0  0  0  0  0  0  0
  194.0350  175.2360  135.1410 O   0  0  0  0  0  0  0  0  0  0  0  0
  195.0290  174.7990  137.5860 C   0  0  0  0  0  0  0  0  0  0  0  0
  195.0460  175.2680  138.7120 O   0  0  0  0  0  0  0  0  0  0  0  0
  196.5120  172.8500  138.0290 C   0  0  0  0  0  1  0  0  0  0  0  0
  196.2280  174.0280  137.1060 C   0  0  2  0  0  3  0  0  0  0  0  0
  199.3620  174.4830  138.3860 C   0  0  0  0  0  0  0  0  0  0  0  0
  197.0340  176.1330  136.2880 O   0  0  0  0  0  1  0  0  0  0  0  0
  200.0450  174.8390  139.6570 C   0  0  0  0  0  1  0  0  0  0  0  0
  198.3940  174.2660  135.7490 C   0  0  1  0  0  3  0  0  0  0  0  0
  199.8880  173.5390  137.6040 C   0  0  0  0  0  3  0  0  0  0  0  0
  197.4670  174.9110  136.8060 C   0  0  2  0  0  0  0  0  0  0  0  0
  199.2060  173.1150  136.3400 C   0  0  0  0  0  2  0  0  0  0  0  0
  198.1980  175.1710  138.0130 O   0  0  0  0  0  0  0  0  0  0  0  0
  197.6700  173.8250  134.6370 O   0  0  0  0  0  0  0  0  0  0  0  0
  198.1680  172.5490  134.3680 C   0  0  0  0  0  1  0  0  0  0  0  0
  1 25  1  0  0  0  0
  1 14  1  1  0  0  0
  2 19  1  0  0  0  0
  4 38  1  6  0  0  0
  4 17  1  0  0  0  0
  5  6  1  0  0  0  0
  7 18  1  6  0  0  0
  7 12  1  0  0  0  0
  7  8  1  0  0  0  0
  8 10  1  0  0  0  0
 10  6  1  0  0  0  0
 12 24  1  6  0  0  0
 12  5  1  0  0  0  0
 13 15  2  0  0  0  0
 15 23  1  0  0  0  0
 16 18  1  1  0  0  0
 17  2  1  0  0  0  0
 19 20  1  0  0  0  0
 20  3  1  6  0  0  0
 20  9  1  0  0  0  0
 21 11  1  0  0  0  0
 22  4  1  0  0  0  0
 23 11  1  6  0  0  0
 23  1  1  0  0  0  0
 24  9  1  0  0  0  0
 25 14  1  1  0  0  0
 25 16  1  0  0  0  0
 26 22  2  0  0  0  0
 27 13  1  0  0  0  0
 27 26  1  0  0  0  0
 28 21  1  0  0  0  0
 28 13  1  0  0  0  0
 29 34  1  0  0  0  0
 30 35  1  6  0  0  0
 30 32  1  0  0  0  0
 30 33  1  0  0  0  0
 32 31  1  0  0  0  0
 33 29  1  0  0  0  0
 34 31  1  6  0  0  0
 34 16  1  0  0  0  0
 35 37  1  6  0  0  0
 36 35  1  0  0  0  0
 40 39  2  0  0  0  0
 40 38  1  0  0  0  0
 40 42  1  0  0  0  0
 41 40  2  0  0  0  0
 42 43  2  0  0  0  0
 45 42  1  0  0  0  0
 45 44  1  1  0  0  0
 46 48  1  0  0  0  0
 49 54  1  6  0  0  0
 49 52  1  0  0  0  0
 49 51  1  0  0  0  0
 50 46  2  0  0  0  0
 51 47  1  6  0  0  0
 51 45  1  0  0  0  0
 51 53  1  0  0  0  0
 52 50  1  0  0  0  0
 53 46  1  0  0  0  0
 55 54  1  0  0  0  0
M  END
>  <MODEL>
3

>  <REMARK>
 VINA RESULT:      -7.9      4.648     11.631
  Name = 
  8 active torsions:
  status: ('A' for Active; 'I' for Inactive)
    1  A    between atoms: C_6  and  C_14
    2  A    between atoms: C_6  and  S_20
    3  A    between atoms: C_8  and  N_22
    4  A    between atoms: C_10  and  C_32
    5  A    between atoms: O_11  and  C_29
    6  A    between atoms: C_14  and  C_38
    7  A    between atoms: S_20  and  N_22
    8  A    between atoms: C_33  and  C_52
                            x       y       z     vdW  Elec       q    Type
                         _______ _______ _______ _____ _____    ______ ____

>  <TORSDO>
F 8

$$$$
=
 OpenBabel10272401273D

 55 60  0  0  1  0  0  0  0  0999 V2000
  185.1630  177.3800  138.3810 C   0  0  2  0  0  3  0  0  0  0  0  0
  190.5630  176.6380  140.1150 C   0  0  0  0  0  2  0  0  0  0  0  0
  189.1870  175.8330  142.5010 O   0  0  0  0  0  1  0  0  0  0  0  0
  191.2930  176.0500  137.8230 C   0  0  1  0  0  3  0  0  0  0  0  0
  185.8650  178.3940  144.7150 C   0  0  0  0  0  2  0  0  0  0  0  0
  184.8220  179.1560  145.3010 O   0  0  0  0  0  0  0  0  0  0  0  0
  184.6080  178.2900  142.5820 C   0  0  2  0  0  3  0  0  0  0  0  0
  183.5700  178.2080  143.5410 O   0  0  0  0  0  0  0  0  0  0  0  0
  188.4230  178.0580  142.9930 C   0  0  0  0  0  2  0  0  0  0  0  0
  183.7050  179.2940  144.4340 C   0  0  0  0  0  2  0  0  0  0  0  0
  184.6730  177.6480  135.9250 C   0  0  0  0  0  2  0  0  0  0  0  0
  185.9760  178.5910  143.2020 C   0  0  2  0  0  3  0  0  0  0  0  0
  187.4070  176.8200  135.4500 C   0  0  0  0  0  0  0  0  0  0  0  0
  186.1470  177.7630  139.4680 C   0  0  0  0  0  2  0  0  0  0  0  0
  186.8970  176.7930  136.6870 C   0  0  0  0  0  3  0  0  0  0  0  0
  183.8920  178.5080  140.2120 C   0  0  2  0  0  3  0  0  0  0  0  0
  190.8530  177.1840  138.7320 C   0  0  0  0  0  2  0  0  0  0  0  0
  184.2660  179.2730  141.4730 C   0  0  0  0  0  2  0  0  0  0  0  0
  189.5410  177.5160  140.8140 C   0  0  0  0  0  2  0  0  0  0  0  0
  189.4680  177.1880  142.3000 C   0  0  2  0  0  3  0  0  0  0  0  0
  185.2420  177.5930  134.4890 C   0  0  0  0  0  2  0  0  0  0  0  0
  190.1540  175.6380  136.9370 C   0  0  0  0  0  3  0  0  0  0  0  0
  185.7500  177.7050  137.0180 C   0  0  2  0  0  3  0  0  0  0  0  0
  187.0060  177.6440  142.6140 C   0  0  0  0  0  2  0  0  0  0  0  0
  184.9790  178.6750  139.1520 C   0  0  2  0  0  3  0  0  0  0  0  0
  189.7750  176.3700  135.8870 C   0  0  0  0  0  3  0  0  0  0  0  0
  188.5820  175.9670  135.0830 C   0  0  0  0  0  2  0  0  0  0  0  0
  186.7710  177.7120  134.4210 C   0  0  0  0  0  2  0  0  0  0  0  0
  181.7840  177.7930  139.0050 C   0  0  0  0  0  2  0  0  0  0  0  0
  180.7080  179.0940  137.5210 C   0  0  2  0  0  3  0  0  0  0  0  0
  182.5700  180.2160  138.8460 C   0  0  0  0  0  2  0  0  0  0  0  0
  181.2740  180.4250  138.0600 C   0  0  0  0  0  2  0  0  0  0  0  0
  181.6460  178.0510  137.6300 O   0  0  0  0  0  0  0  0  0  0  0  0
  182.5110  178.9480  139.7150 C   0  0  2  0  0  3  0  0  0  0  0  0
  180.2280  179.2150  136.0790 C   0  0  2  0  0  3  0  0  0  0  0  0
  180.9170  178.3280  135.2490 O   0  0  0  0  0  1  0  0  0  0  0  0
  180.3890  180.6340  135.5650 C   0  0  0  0  0  1  0  0  0  0  0  0
  192.4480  176.4620  137.0350 N   0  0  0  0  0  2  0  0  0  0  0  0
  193.0800  173.9210  137.4660 O   0  0  0  0  0  0  0  0  0  0  0  0
  193.2620  175.0370  136.4750 S   0  0  0  0  0  0  0  0  0  0  0  0
  192.6580  174.6350  135.1600 O   0  0  0  0  0  0  0  0  0  0  0  0
  194.9850  175.3690  136.2600 C   0  0  0  0  0  0  0  0  0  0  0  0
  195.3640  176.5240  136.1640 O   0  0  0  0  0  0  0  0  0  0  0  0
  195.5420  173.1680  135.2390 C   0  0  0  0  0  1  0  0  0  0  0  0
  196.0040  174.2650  136.1880 C   0  0  2  0  0  3  0  0  0  0  0  0
  196.4750  171.2490  137.7210 C   0  0  0  0  0  0  0  0  0  0  0  0
  196.0890  174.6710  138.5500 O   0  0  0  0  0  1  0  0  0  0  0  0
  195.7360  170.0090  138.0710 C   0  0  0  0  0  1  0  0  0  0  0  0
  198.0110  173.6110  137.6500 C   0  0  1  0  0  3  0  0  0  0  0  0
  197.7380  171.1610  137.3000 C   0  0  0  0  0  3  0  0  0  0  0  0
  196.4720  173.7490  137.5740 C   0  0  2  0  0  0  0  0  0  0  0  0
  198.5030  172.3810  136.8890 C   0  0  0  0  0  2  0  0  0  0  0  0
  195.8470  172.4930  137.8750 O   0  0  0  0  0  0  0  0  0  0  0  0
  198.6500  174.7600  137.1750 O   0  0  0  0  0  0  0  0  0  0  0  0
  199.6390  174.2880  136.3110 C   0  0  0  0  0  1  0  0  0  0  0  0
  1 25  1  0  0  0  0
  1 14  1  1  0  0  0
  2 19  1  0  0  0  0
  4 38  1  6  0  0  0
  4 17  1  0  0  0  0
  5  6  1  0  0  0  0
  7 18  1  6  0  0  0
  7 12  1  0  0  0  0
  7  8  1  0  0  0  0
  8 10  1  0  0  0  0
 10  6  1  0  0  0  0
 12 24  1  6  0  0  0
 12  5  1  0  0  0  0
 13 15  2  0  0  0  0
 15 23  1  0  0  0  0
 16 18  1  1  0  0  0
 17  2  1  0  0  0  0
 19 20  1  0  0  0  0
 20  3  1  6  0  0  0
 20  9  1  0  0  0  0
 21 11  1  0  0  0  0
 22  4  1  0  0  0  0
 23 11  1  6  0  0  0
 23  1  1  0  0  0  0
 24  9  1  0  0  0  0
 25 14  1  1  0  0  0
 25 16  1  0  0  0  0
 26 22  2  0  0  0  0
 27 13  1  0  0  0  0
 27 26  1  0  0  0  0
 28 21  1  0  0  0  0
 28 13  1  0  0  0  0
 29 34  1  0  0  0  0
 30 35  1  6  0  0  0
 30 33  1  0  0  0  0
 30 32  1  0  0  0  0
 32 31  1  0  0  0  0
 33 29  1  0  0  0  0
 34 31  1  6  0  0  0
 34 16  1  0  0  0  0
 35 37  1  6  0  0  0
 36 35  1  0  0  0  0
 40 38  1  0  0  0  0
 40 39  2  0  0  0  0
 41 40  2  0  0  0  0
 42 40  1  0  0  0  0
 43 42  2  0  0  0  0
 45 44  1  6  0  0  0
 45 42  1  0  0  0  0
 45 51  1  0  0  0  0
 46 53  1  0  0  0  0
 46 48  1  0  0  0  0
 49 54  1  6  0  0  0
 50 46  2  0  0  0  0
 51 49  1  0  0  0  0
 51 53  1  0  0  0  0
 51 47  1  1  0  0  0
 52 50  1  0  0  0  0
 52 49  1  0  0  0  0
 55 54  1  0  0  0  0
M  END
>  <MODEL>
4

>  <REMARK>
 VINA RESULT:      -7.6      4.596     11.281
  Name = 
  8 active torsions:
  status: ('A' for Active; 'I' for Inactive)
    1  A    between atoms: C_6  and  C_14
    2  A    between atoms: C_6  and  S_20
    3  A    between atoms: C_8  and  N_22
    4  A    between atoms: C_10  and  C_32
    5  A    between atoms: O_11  and  C_29
    6  A    between atoms: C_14  and  C_38
    7  A    between atoms: S_20  and  N_22
    8  A    between atoms: C_33  and  C_52
                            x       y       z     vdW  Elec       q    Type
                         _______ _______ _______ _____ _____    ______ ____

>  <TORSDO>
F 8

$$$$
=
 OpenBabel10272401273D

 55 60  0  0  1  0  0  0  0  0999 V2000
  189.1260  178.4340  141.7960 C   0  0  2  0  0  3  0  0  0  0  0  0
  184.2530  177.9960  138.8310 C   0  0  0  0  0  2  0  0  0  0  0  0
  183.3770  179.7560  140.9220 O   0  0  0  0  0  1  0  0  0  0  0  0
  185.4900  177.7330  136.7020 C   0  0  1  0  0  3  0  0  0  0  0  0
  183.9110  178.9360  145.5630 C   0  0  0  0  0  2  0  0  0  0  0  0
  184.1600  178.6890  146.9370 O   0  0  0  0  0  0  0  0  0  0  0  0
  186.3420  178.8440  145.0930 C   0  0  2  0  0  3  0  0  0  0  0  0
  186.3100  179.4700  146.3610 O   0  0  0  0  0  0  0  0  0  0  0  0
  183.5090  178.0560  142.6160 C   0  0  0  0  0  2  0  0  0  0  0  0
  185.5480  178.6620  147.2340 C   0  0  0  0  0  2  0  0  0  0  0  0
  191.2910  177.6920  140.7430 C   0  0  0  0  0  2  0  0  0  0  0  0
  184.9710  178.3300  144.6420 C   0  0  2  0  0  3  0  0  0  0  0  0
  189.8400  177.5380  138.2420 C   0  0  0  0  0  0  0  0  0  0  0  0
  187.6590  178.0760  141.9270 C   0  0  0  0  0  2  0  0  0  0  0  0
  189.2490  178.0310  139.3370 C   0  0  0  0  0  3  0  0  0  0  0  0
  188.5920  178.2380  144.2280 C   0  0  2  0  0  3  0  0  0  0  0  0
  185.0970  177.0510  138.0010 C   0  0  0  0  0  2  0  0  0  0  0  0
  187.3970  177.7510  145.0350 C   0  0  0  0  0  2  0  0  0  0  0  0
  184.4040  177.6660  140.3050 C   0  0  0  0  0  2  0  0  0  0  0  0
  183.3390  178.3740  141.1330 C   0  0  2  0  0  3  0  0  0  0  0  0
  191.9910  177.2060  139.4540 C   0  0  0  0  0  2  0  0  0  0  0  0
  186.9080  178.2140  136.7890 C   0  0  0  0  0  3  0  0  0  0  0  0
  189.7580  177.6100  140.6870 C   0  0  2  0  0  3  0  0  0  0  0  0
  184.7320  178.7510  143.2030 C   0  0  0  0  0  2  0  0  0  0  0  0
  188.6660  177.4940  142.8970 C   0  0  2  0  0  3  0  0  0  0  0  0
  187.9450  177.3780  136.6970 C   0  0  0  0  0  3  0  0  0  0  0  0
  189.3380  177.8870  136.8750 C   0  0  0  0  0  2  0  0  0  0  0  0
  191.0300  176.6350  138.4020 C   0  0  0  0  0  2  0  0  0  0  0  0
  191.0010  177.4580  144.2230 C   0  0  0  0  0  2  0  0  0  0  0  0
  191.9580  176.3910  145.9540 C   0  0  2  0  0  3  0  0  0  0  0  0
  189.6530  177.3800  146.3890 C   0  0  0  0  0  2  0  0  0  0  0  0
  190.9730  176.9250  147.0150 C   0  0  0  0  0  2  0  0  0  0  0  0
  191.3220  176.1820  144.7170 O   0  0  0  0  0  0  0  0  0  0  0  0
  189.8780  178.1050  145.0510 C   0  0  2  0  0  3  0  0  0  0  0  0
  192.6510  175.1100  146.4070 C   0  0  2  0  0  3  0  0  0  0  0  0
  192.3330  174.0460  145.5600 O   0  0  0  0  0  1  0  0  0  0  0  0
  192.2810  174.7620  147.8360 C   0  0  0  0  0  1  0  0  0  0  0  0
  185.3150  176.8130  135.5850 N   0  0  0  0  0  2  0  0  0  0  0  0
  182.9260  176.7530  136.7390 O   0  0  0  0  0  0  0  0  0  0  0  0
  183.6280  176.4360  135.4470 S   0  0  0  0  0  0  0  0  0  0  0  0
  183.0450  177.2760  134.3480 O   0  0  0  0  0  0  0  0  0  0  0  0
  183.4190  174.7240  135.0600 C   0  0  0  0  0  0  0  0  0  0  0  0
  182.4900  174.3820  134.3480 O   0  0  0  0  0  0  0  0  0  0  0  0
  184.7010  172.6690  134.4900 C   0  0  0  0  0  1  0  0  0  0  0  0
  184.3550  173.6700  135.5840 C   0  0  2  0  0  3  0  0  0  0  0  0
  181.4400  173.3150  137.3280 C   0  0  0  0  0  0  0  0  0  0  0  0
  184.9390  173.0900  137.8370 O   0  0  0  0  0  1  0  0  0  0  0  0
  180.3560  174.1310  137.9340 C   0  0  0  0  0  1  0  0  0  0  0  0
  183.5350  171.5270  136.7350 C   0  0  1  0  0  3  0  0  0  0  0  0
  181.1320  172.1770  136.7050 C   0  0  0  0  0  3  0  0  0  0  0  0
  183.8920  173.0210  136.9140 C   0  0  2  0  0  0  0  0  0  0  0  0
  182.1870  171.3510  136.0380 C   0  0  0  0  0  2  0  0  0  0  0  0
  182.7720  173.7360  137.4540 O   0  0  0  0  0  0  0  0  0  0  0  0
  184.5350  170.8450  136.0340 O   0  0  0  0  0  0  0  0  0  0  0  0
  183.9850  169.5920  135.7560 C   0  0  0  0  0  1  0  0  0  0  0  0
  1 14  1  6  0  0  0
  1 25  1  0  0  0  0
  2 19  1  0  0  0  0
  4 38  1  6  0  0  0
  4 22  1  0  0  0  0
  4 17  1  0  0  0  0
  5  6  1  0  0  0  0
  6 10  1  0  0  0  0
  7 18  1  1  0  0  0
  7  8  1  0  0  0  0
  8 10  1  0  0  0  0
  9 24  1  0  0  0  0
 12 24  1  6  0  0  0
 12  7  1  0  0  0  0
 12  5  1  0  0  0  0
 13 28  1  0  0  0  0
 13 15  2  0  0  0  0
 16 18  1  1  0  0  0
 16 34  1  0  0  0  0
 17  2  1  0  0  0  0
 19 20  1  0  0  0  0
 20  3  1  1  0  0  0
 20  9  1  0  0  0  0
 21 11  1  0  0  0  0
 23 15  1  6  0  0  0
 23 11  1  0  0  0  0
 23  1  1  0  0  0  0
 25 14  1  6  0  0  0
 25 16  1  0  0  0  0
 26 22  2  0  0  0  0
 26 27  1  0  0  0  0
 27 13  1  0  0  0  0
 28 21  1  0  0  0  0
 29 33  1  0  0  0  0
 30 35  1  1  0  0  0
 30 32  1  0  0  0  0
 31 32  1  0  0  0  0
 33 30  1  0  0  0  0
 34 29  1  6  0  0  0
 34 31  1  0  0  0  0
 35 37  1  1  0  0  0
 36 35  1  0  0  0  0
 40 38  1  0  0  0  0
 40 39  2  0  0  0  0
 41 40  2  0  0  0  0
 42 40  1  0  0  0  0
 42 45  1  0  0  0  0
 43 42  2  0  0  0  0
 45 44  1  6  0  0  0
 45 51  1  0  0  0  0
 46 53  1  0  0  0  0
 46 48  1  0  0  0  0
 49 54  1  6  0  0  0
 49 51  1  0  0  0  0
 50 46  2  0  0  0  0
 51 53  1  0  0  0  0
 51 47  1  1  0  0  0
 52 50  1  0  0  0  0
 52 49  1  0  0  0  0
 55 54  1  0  0  0  0
M  END
>  <MODEL>
5

>  <REMARK>
 VINA RESULT:      -6.2      2.240      5.197
  Name = 
  8 active torsions:
  status: ('A' for Active; 'I' for Inactive)
    1  A    between atoms: C_6  and  C_14
    2  A    between atoms: C_6  and  S_20
    3  A    between atoms: C_8  and  N_22
    4  A    between atoms: C_10  and  C_32
    5  A    between atoms: O_11  and  C_29
    6  A    between atoms: C_14  and  C_38
    7  A    between atoms: S_20  and  N_22
    8  A    between atoms: C_33  and  C_52
                            x       y       z     vdW  Elec       q    Type
                         _______ _______ _______ _____ _____    ______ ____

>  <TORSDO>
F 8

$$$$
=
 OpenBabel10272401273D

 55 60  0  0  1  0  0  0  0  0999 V2000
  186.6250  177.6840  140.3150 C   0  0  2  0  0  3  0  0  0  0  0  0
  192.1390  176.4480  141.2030 C   0  0  0  0  0  2  0  0  0  0  0  0
  191.0110  175.2960  143.5760 O   0  0  0  0  0  1  0  0  0  0  0  0
  192.5560  176.2370  138.7710 C   0  0  1  0  0  3  0  0  0  0  0  0
  188.1310  177.5620  146.5890 C   0  0  0  0  0  2  0  0  0  0  0  0
  187.2130  178.2500  147.4210 O   0  0  0  0  0  0  0  0  0  0  0  0
  186.6270  177.8760  144.6460 C   0  0  2  0  0  3  0  0  0  0  0  0
  185.7070  177.6690  145.7010 O   0  0  0  0  0  0  0  0  0  0  0  0
  190.4430  177.4300  144.5250 C   0  0  0  0  0  2  0  0  0  0  0  0
  186.0110  178.5790  146.7380 C   0  0  0  0  0  2  0  0  0  0  0  0
  185.8650  178.3910  138.0210 C   0  0  0  0  0  2  0  0  0  0  0  0
  188.0740  178.0130  145.1280 C   0  0  2  0  0  3  0  0  0  0  0  0
  188.4680  177.5530  137.0710 C   0  0  0  0  0  0  0  0  0  0  0  0
  187.7520  177.8360  141.3180 C   0  0  0  0  0  2  0  0  0  0  0  0
  188.1080  177.3330  138.3410 C   0  0  0  0  0  3  0  0  0  0  0  0
  185.6490  178.5270  142.4550 C   0  0  2  0  0  3  0  0  0  0  0  0
  192.2950  177.2130  139.9040 C   0  0  0  0  0  2  0  0  0  0  0  0
  186.2150  179.0480  143.7680 C   0  0  0  0  0  2  0  0  0  0  0  0
  191.2610  177.2300  142.1620 C   0  0  0  0  0  2  0  0  0  0  0  0
  191.3450  176.6540  143.5700 C   0  0  2  0  0  3  0  0  0  0  0  0
  186.2540  178.5620  136.5350 C   0  0  0  0  0  2  0  0  0  0  0  0
  191.2980  176.0280  137.9800 C   0  0  0  0  0  3  0  0  0  0  0  0
  187.0650  178.2170  138.9620 C   0  0  2  0  0  3  0  0  0  0  0  0
  188.9690  177.1430  144.2640 C   0  0  0  0  0  2  0  0  0  0  0  0
  186.6110  178.8320  141.3090 C   0  0  2  0  0  3  0  0  0  0  0  0
  190.8410  176.9440  137.1240 C   0  0  0  0  0  3  0  0  0  0  0  0
  189.5390  176.7320  136.4220 C   0  0  0  0  0  2  0  0  0  0  0  0
  187.7690  178.6330  136.2940 C   0  0  0  0  0  2  0  0  0  0  0  0
  183.6350  179.6260  143.5250 C   0  0  0  0  0  2  0  0  0  0  0  0
  181.5150  179.0990  143.0000 C   0  0  2  0  0  3  0  0  0  0  0  0
  183.3160  178.1050  141.5010 C   0  0  0  0  0  2  0  0  0  0  0  0
  181.8500  178.5280  141.6060 C   0  0  0  0  0  2  0  0  0  0  0  0
  182.5410  178.8400  143.9260 O   0  0  0  0  0  0  0  0  0  0  0  0
  184.2480  179.0980  142.2170 C   0  0  2  0  0  3  0  0  0  0  0  0
  180.1860  178.5720  143.5330 C   0  0  2  0  0  3  0  0  0  0  0  0
  179.9820  178.9820  144.8520 O   0  0  0  0  0  1  0  0  0  0  0  0
  180.1220  177.0590  143.4450 C   0  0  0  0  0  1  0  0  0  0  0  0
  193.6310  176.7340  137.9220 N   0  0  0  0  0  2  0  0  0  0  0  0
  192.9560  174.4630  136.7270 O   0  0  0  0  0  0  0  0  0  0  0  0
  194.0530  175.4900  136.7900 S   0  0  0  0  0  0  0  0  0  0  0  0
  194.2200  176.1200  135.4370 O   0  0  0  0  0  0  0  0  0  0  0  0
  195.5660  174.7170  137.2750 C   0  0  0  0  0  0  0  0  0  0  0  0
  196.1510  175.1180  138.2670 O   0  0  0  0  0  0  0  0  0  0  0  0
  195.6770  173.5980  135.0540 C   0  0  0  0  0  1  0  0  0  0  0  0
  196.1600  173.5730  136.4980 C   0  0  2  0  0  3  0  0  0  0  0  0
  195.3060  170.3880  135.6090 C   0  0  0  0  0  0  0  0  0  0  0  0
  195.5970  172.3980  138.5110 O   0  0  0  0  0  1  0  0  0  0  0  0
  194.1940  169.6270  134.9830 C   0  0  0  0  0  1  0  0  0  0  0  0
  197.3520  171.4250  137.2460 C   0  0  1  0  0  3  0  0  0  0  0  0
  196.5660  170.0640  135.3140 C   0  0  0  0  0  3  0  0  0  0  0  0
  196.0110  172.1950  137.1930 C   0  0  2  0  0  0  0  0  0  0  0  0
  197.7160  170.8370  135.8830 C   0  0  0  0  0  2  0  0  0  0  0  0
  195.0140  171.4060  136.5270 O   0  0  0  0  0  0  0  0  0  0  0  0
  198.3880  172.2400  137.7120 O   0  0  0  0  0  0  0  0  0  0  0  0
  199.5390  171.7430  137.0980 C   0  0  0  0  0  1  0  0  0  0  0  0
  1 25  1  0  0  0  0
  1 14  1  1  0  0  0
  2 19  1  0  0  0  0
  4 38  1  6  0  0  0
  4 17  1  0  0  0  0
  5  6  1  0  0  0  0
  7 18  1  1  0  0  0
  7 12  1  0  0  0  0
  7  8  1  0  0  0  0
  8 10  1  0  0  0  0
 10  6  1  0  0  0  0
 12 24  1  6  0  0  0
 12  5  1  0  0  0  0
 13 15  2  0  0  0  0
 15 23  1  0  0  0  0
 16 18  1  1  0  0  0
 17  2  1  0  0  0  0
 19 20  1  0  0  0  0
 20  3  1  6  0  0  0
 20  9  1  0  0  0  0
 21 11  1  0  0  0  0
 22  4  1  0  0  0  0
 23 11  1  6  0  0  0
 23  1  1  0  0  0  0
 24  9  1  0  0  0  0
 25 14  1  1  0  0  0
 25 16  1  0  0  0  0
 26 22  2  0  0  0  0
 27 13  1  0  0  0  0
 27 26  1  0  0  0  0
 28 21  1  0  0  0  0
 28 13  1  0  0  0  0
 29 33  1  0  0  0  0
 30 35  1  1  0  0  0
 30 33  1  0  0  0  0
 31 32  1  0  0  0  0
 32 30  1  0  0  0  0
 34 31  1  1  0  0  0
 34 16  1  0  0  0  0
 34 29  1  0  0  0  0
 35 37  1  1  0  0  0
 35 36  1  0  0  0  0
 39 40  2  0  0  0  0
 40 42  1  0  0  0  0
 40 38  1  0  0  0  0
 41 40  2  0  0  0  0
 42 43  2  0  0  0  0
 45 44  1  6  0  0  0
 45 51  1  0  0  0  0
 45 42  1  0  0  0  0
 46 53  1  0  0  0  0
 48 46  1  0  0  0  0
 49 54  1  6  0  0  0
 50 46  2  0  0  0  0
 50 52  1  0  0  0  0
 51 49  1  0  0  0  0
 51 47  1  1  0  0  0
 52 49  1  0  0  0  0
 53 51  1  0  0  0  0
 55 54  1  0  0  0  0
M  END
>  <MODEL>
6

>  <REMARK>
 VINA RESULT:      -6.2      5.007     10.487
  Name = 
  8 active torsions:
  status: ('A' for Active; 'I' for Inactive)
    1  A    between atoms: C_6  and  C_14
    2  A    between atoms: C_6  and  S_20
    3  A    between atoms: C_8  and  N_22
    4  A    between atoms: C_10  and  C_32
    5  A    between atoms: O_11  and  C_29
    6  A    between atoms: C_14  and  C_38
    7  A    between atoms: S_20  and  N_22
    8  A    between atoms: C_33  and  C_52
                            x       y       z     vdW  Elec       q    Type
                         _______ _______ _______ _____ _____    ______ ____

>  <TORSDO>
F 8

$$$$
=
 OpenBabel10272401273D

 55 60  0  0  1  0  0  0  0  0999 V2000
  186.5060  177.7030  140.2880 C   0  0  2  0  0  3  0  0  0  0  0  0
  192.0530  176.4030  140.7980 C   0  0  0  0  0  2  0  0  0  0  0  0
  191.0770  175.2750  143.2490 O   0  0  0  0  0  1  0  0  0  0  0  0
  192.2980  176.1770  138.3440 C   0  0  1  0  0  3  0  0  0  0  0  0
  188.4410  177.5900  146.4430 C   0  0  0  0  0  2  0  0  0  0  0  0
  187.5900  178.2930  147.3330 O   0  0  0  0  0  0  0  0  0  0  0  0
  186.8090  177.9140  144.6070 C   0  0  2  0  0  3  0  0  0  0  0  0
  185.9620  177.7230  145.7240 O   0  0  0  0  0  0  0  0  0  0  0  0
  190.6030  177.4210  144.2240 C   0  0  0  0  0  2  0  0  0  0  0  0
  186.3490  178.6330  146.7330 C   0  0  0  0  0  2  0  0  0  0  0  0
  185.5970  178.4100  138.0470 C   0  0  0  0  0  2  0  0  0  0  0  0
  188.2880  178.0350  144.9870 C   0  0  2  0  0  3  0  0  0  0  0  0
  188.1190  177.5360  136.9240 C   0  0  0  0  0  0  0  0  0  0  0  0
  187.7010  177.8460  141.2090 C   0  0  0  0  0  2  0  0  0  0  0  0
  187.8450  177.3260  138.2170 C   0  0  0  0  0  3  0  0  0  0  0  0
  185.6910  178.5680  142.4860 C   0  0  2  0  0  3  0  0  0  0  0  0
  192.1280  177.1600  139.4880 C   0  0  0  0  0  2  0  0  0  0  0  0
  186.3520  179.0870  143.7530 C   0  0  0  0  0  2  0  0  0  0  0  0
  191.2520  177.2000  141.8120 C   0  0  0  0  0  2  0  0  0  0  0  0
  191.4270  176.6290  143.2130 C   0  0  2  0  0  3  0  0  0  0  0  0
  185.8850  178.5700  136.5380 C   0  0  0  0  0  2  0  0  0  0  0  0
  190.9860  175.9800  137.6430 C   0  0  0  0  0  3  0  0  0  0  0  0
  186.8580  178.2260  138.9050 C   0  0  2  0  0  3  0  0  0  0  0  0
  189.1110  177.1500  144.0680 C   0  0  0  0  0  2  0  0  0  0  0  0
  186.5750  178.8560  141.2740 C   0  0  2  0  0  3  0  0  0  0  0  0
  190.4810  176.8980  136.8160 C   0  0  0  0  0  3  0  0  0  0  0  0
  189.1320  176.6990  136.2070 C   0  0  0  0  0  2  0  0  0  0  0  0
  187.3810  178.6210  136.1920 C   0  0  0  0  0  2  0  0  0  0  0  0
  183.5320  179.1300  143.6840 C   0  0  0  0  0  2  0  0  0  0  0  0
  181.4990  178.7960  142.7880 C   0  0  2  0  0  3  0  0  0  0  0  0
  183.4750  178.4910  141.2140 C   0  0  0  0  0  2  0  0  0  0  0  0
  181.9830  178.8090  141.3230 C   0  0  0  0  0  2  0  0  0  0  0  0
  182.4560  178.2260  143.6460 O   0  0  0  0  0  0  0  0  0  0  0  0
  184.2830  179.1550  142.3420 C   0  0  2  0  0  3  0  0  0  0  0  0
  180.1630  178.0760  142.9460 C   0  0  2  0  0  3  0  0  0  0  0  0
  180.0570  177.4980  144.2120 O   0  0  0  0  0  1  0  0  0  0  0  0
  179.9820  177.0160  141.8760 C   0  0  0  0  0  1  0  0  0  0  0  0
  193.3180  176.6570  137.4210 N   0  0  0  0  0  2  0  0  0  0  0  0
  192.9690  174.1600  136.5920 O   0  0  0  0  0  0  0  0  0  0  0  0
  193.4830  175.5000  136.1400 S   0  0  0  0  0  0  0  0  0  0  0  0
  192.6700  175.9730  134.9700 O   0  0  0  0  0  0  0  0  0  0  0  0
  195.1800  175.3580  135.6660 C   0  0  0  0  0  0  0  0  0  0  0  0
  195.4590  175.1880  134.4910 O   0  0  0  0  0  0  0  0  0  0  0  0
  197.6130  175.7730  135.9820 C   0  0  0  0  0  1  0  0  0  0  0  0
  196.2970  175.4400  136.6700 C   0  0  2  0  0  3  0  0  0  0  0  0
  197.1440  172.1370  136.4810 C   0  0  0  0  0  0  0  0  0  0  0  0
  195.3810  174.3580  138.6040 O   0  0  0  0  0  1  0  0  0  0  0  0
  196.7790  170.8960  135.7490 C   0  0  0  0  0  1  0  0  0  0  0  0
  197.7320  174.1500  138.3630 C   0  0  1  0  0  3  0  0  0  0  0  0
  198.4260  172.3850  136.7500 C   0  0  0  0  0  3  0  0  0  0  0  0
  196.3720  174.2240  137.6290 C   0  0  2  0  0  0  0  0  0  0  0  0
  198.8410  173.6470  137.4410 C   0  0  0  0  0  2  0  0  0  0  0  0
  196.1300  173.0060  136.9100 O   0  0  0  0  0  0  0  0  0  0  0  0
  198.0830  175.3880  138.9110 O   0  0  0  0  0  0  0  0  0  0  0  0
  197.7240  175.2980  140.2570 C   0  0  0  0  0  1  0  0  0  0  0  0
  1 14  1  1  0  0  0
  1 25  1  0  0  0  0
  2 19  1  0  0  0  0
  4 38  1  6  0  0  0
  4 17  1  0  0  0  0
  5  6  1  0  0  0  0
  7 18  1  1  0  0  0
  7 12  1  0  0  0  0
  7  8  1  0  0  0  0
  8 10  1  0  0  0  0
 10  6  1  0  0  0  0
 12 24  1  6  0  0  0
 12  5  1  0  0  0  0
 13 15  2  0  0  0  0
 15 23  1  0  0  0  0
 16 18  1  1  0  0  0
 17  2  1  0  0  0  0
 19 20  1  0  0  0  0
 20  3  1  6  0  0  0
 20  9  1  0  0  0  0
 21 11  1  0  0  0  0
 22  4  1  0  0  0  0
 23 11  1  6  0  0  0
 23  1  1  0  0  0  0
 24  9  1  0  0  0  0
 25 14  1  1  0  0  0
 25 16  1  0  0  0  0
 26 22  2  0  0  0  0
 27 26  1  0  0  0  0
 27 13  1  0  0  0  0
 28 21  1  0  0  0  0
 28 13  1  0  0  0  0
 30 35  1  6  0  0  0
 30 33  1  0  0  0  0
 31 32  1  0  0  0  0
 32 30  1  0  0  0  0
 33 29  1  0  0  0  0
 34 31  1  6  0  0  0
 34 16  1  0  0  0  0
 34 29  1  0  0  0  0
 35 37  1  6  0  0  0
 35 36  1  0  0  0  0
 40 39  2  0  0  0  0
 40 38  1  0  0  0  0
 41 40  2  0  0  0  0
 42 40  1  0  0  0  0
 42 45  1  0  0  0  0
 43 42  2  0  0  0  0
 45 44  1  6  0  0  0
 45 51  1  0  0  0  0
 46 50  2  0  0  0  0
 46 53  1  0  0  0  0
 48 46  1  0  0  0  0
 49 54  1  6  0  0  0
 50 52  1  0  0  0  0
 51 49  1  0  0  0  0
 51 47  1  1  0  0  0
 52 49  1  0  0  0  0
 53 51  1  0  0  0  0
 54 55  1  0  0  0  0
M  END
>  <MODEL>
7

>  <REMARK>
 VINA RESULT:      -5.8      4.801     10.607
  Name = 
  8 active torsions:
  status: ('A' for Active; 'I' for Inactive)
    1  A    between atoms: C_6  and  C_14
    2  A    between atoms: C_6  and  S_20
    3  A    between atoms: C_8  and  N_22
    4  A    between atoms: C_10  and  C_32
    5  A    between atoms: O_11  and  C_29
    6  A    between atoms: C_14  and  C_38
    7  A    between atoms: S_20  and  N_22
    8  A    between atoms: C_33  and  C_52
                            x       y       z     vdW  Elec       q    Type
                         _______ _______ _______ _____ _____    ______ ____

>  <TORSDO>
F 8

$$$$
