=
 OpenBabel10272415043D

 37 39  0  0  1  0  0  0  0  0999 V2000
  185.3000  173.3100  136.3880 O   0  0  0  0  0  0  0  0  0  0  0  0
  182.9660  176.7120  138.4240 C   0  0  0  0  0  0  0  0  0  0  0  0
  184.3670  173.9960  135.5340 C   0  0  2  0  0  0  0  0  0  0  0  0
  186.2210  178.2450  137.0370 C   0  0  0  0  0  2  0  0  0  0  0  0
  184.4600  176.7500  138.1140 C   0  0  0  0  0  2  0  0  0  0  0  0
  187.9410  175.5860  136.1050 C   0  0  1  0  0  3  0  0  0  0  0  0
  181.9130  177.1010  137.3820 C   0  0  2  0  0  3  0  0  0  0  0  0
  184.9920  178.1730  137.9550 C   0  0  1  0  0  3  0  0  0  0  0  0
  184.8570  175.3900  135.1330 C   0  0  0  0  0  1  0  0  0  0  0  0
  182.2400  176.5650  135.9870 C   0  0  0  0  0  2  0  0  0  0  0  0
  183.0690  174.1230  136.3510 C   0  0  0  0  0  2  0  0  0  0  0  0
  182.5800  176.9210  139.8740 C   0  0  0  0  0  2  0  0  0  0  0  0
  181.9530  175.0640  135.8520 C   0  0  2  0  0  3  0  0  0  0  0  0
  186.7000  173.4220  136.3900 C   0  0  0  0  0  0  0  0  0  0  0  0
  187.4550  177.5090  137.5630 C   0  0  0  0  0  2  0  0  0  0  0  0
  182.5660  175.5260  139.2700 C   0  0  0  0  0  2  0  0  0  0  0  0
  187.3690  172.6810  137.1560 O   0  0  0  0  0  0  0  0  0  0  0  0
  187.3010  176.0120  137.3750 C   0  0  2  0  0  3  0  0  0  0  0  0
  188.5610  175.3820  137.3540 O   0  0  0  0  0  0  0  0  0  0  0  0
  187.3600  174.3730  135.6010 O   0  0  0  0  0  0  0  0  0  0  0  0
  186.2550  178.3440  140.1500 N   0  0  0  0  0  2  0  0  0  0  0  0
  185.9420  179.8750  141.8970 O   0  0  0  0  0  0  0  0  0  0  0  0
  185.2340  178.8380  139.2740 C   0  0  0  0  0  0  0  0  0  0  0  0
  186.5770  178.8890  141.4340 C   0  0  0  0  0  0  0  0  0  0  0  0
  184.5430  179.8420  139.5890 O   0  0  0  0  0  0  0  0  0  0  0  0
  187.6700  178.2590  142.2330 C   0  0  2  0  0  3  0  0  0  0  0  0
  188.8140  177.8530  141.3230 C   0  0  0  0  0  1  0  0  0  0  0  0
  187.0750  177.5490  144.2440 C   0  0  0  0  0  1  0  0  0  0  0  0
  187.1860  177.1400  142.9140 O   0  0  0  0  0  0  0  0  0  0  0  0
  183.7940  171.8000  134.7110 C   0  0  0  0  0  1  0  0  0  0  0  0
  184.0870  173.1810  134.3460 N   0  0  0  0  0  2  0  0  0  0  0  0
  181.7660  178.6170  137.3270 C   0  0  0  0  0  2  0  0  0  0  0  0
  181.3680  179.0840  135.9350 C   0  0  0  0  0  2  0  0  0  0  0  0
  180.6940  180.4410  136.0060 C   0  0  0  0  0  1  0  0  0  0  0  0
  181.3740  174.6670  134.5640 N   0  0  0  0  0  2  0  0  0  0  0  0
  180.0560  174.0630  134.7320 C   0  0  0  0  0  2  0  0  0  0  0  0
  180.1260  172.5930  134.3790 C   0  0  0  0  0  1  0  0  0  0  0  0
  1 14  1  0  0  0  0
  2 16  1  0  0  0  0
  2 12  1  0  0  0  0
  3  9  1  6  0  0  0
  3 11  1  0  0  0  0
  3  1  1  0  0  0  0
  4 15  1  0  0  0  0
  4  8  1  0  0  0  0
  5  2  1  0  0  0  0
  6 20  1  1  0  0  0
  6 19  1  0  0  0  0
  6 18  1  0  0  0  0
  7 32  1  6  0  0  0
  7  2  1  0  0  0  0
  8  5  1  0  0  0  0
  8 23  1  1  0  0  0
 10  7  1  0  0  0  0
 13 35  1  6  0  0  0
 13 10  1  0  0  0  0
 13 11  1  0  0  0  0
 14 17  2  0  0  0  0
 16 12  1  0  0  0  0
 18 15  1  6  0  0  0
 19 18  1  0  0  0  0
 20 14  1  0  0  0  0
 21 24  1  0  0  0  0
 23 25  2  0  0  0  0
 23 21  1  0  0  0  0
 24 22  2  0  0  0  0
 24 26  1  0  0  0  0
 26 27  1  6  0  0  0
 26 29  1  0  0  0  0
 29 28  1  0  0  0  0
 31 30  1  0  0  0  0
 31  3  1  0  0  0  0
 33 34  1  0  0  0  0
 33 32  1  0  0  0  0
 35 36  1  0  0  0  0
 37 36  1  0  0  0  0
M  END
>  <MODEL>
1

>  <REMARK>
 VINA RESULT:      -5.2      0.000      0.000
  Name = 
  8 active torsions:
  status: ('A' for Active; 'I' for Inactive)
    1  A    between atoms: C_2  and  O_19
    2  A    between atoms: C_2  and  C_35
    3  A    between atoms: C_3  and  N_32
    4  A    between atoms: C_5  and  N_23
    5  A    between atoms: C_9  and  C_13
    6  A    between atoms: C_9  and  C_16
    7  A    between atoms: C_14  and  C_31
    8  A    between atoms: C_25  and  N_32
                            x       y       z     vdW  Elec       q    Type
                         _______ _______ _______ _____ _____    ______ ____

>  <TORSDO>
F 8

$$$$
=
 OpenBabel10272415043D

 37 39  0  0  1  0  0  0  0  0999 V2000
  184.2680  177.6460  141.9990 O   0  0  0  0  0  0  0  0  0  0  0  0
  188.7090  176.7960  142.8460 C   0  0  0  0  0  0  0  0  0  0  0  0
  184.9000  178.5790  142.8940 C   0  0  2  0  0  0  0  0  0  0  0  0
  188.5650  179.0420  139.7150 C   0  0  0  0  0  2  0  0  0  0  0  0
  188.1580  177.2740  141.5050 C   0  0  0  0  0  2  0  0  0  0  0  0
  185.3420  179.0890  138.9990 C   0  0  1  0  0  3  0  0  0  0  0  0
  189.0540  177.7740  143.9740 C   0  0  2  0  0  3  0  0  0  0  0  0
  189.1980  178.0250  140.6760 C   0  0  1  0  0  3  0  0  0  0  0  0
  185.8480  179.5360  142.1670 C   0  0  0  0  0  1  0  0  0  0  0  0
  188.0170  178.8880  144.1250 C   0  0  0  0  0  2  0  0  0  0  0  0
  185.6990  177.7230  143.8920 C   0  0  0  0  0  2  0  0  0  0  0  0
  189.4930  175.5000  142.8220 C   0  0  0  0  0  2  0  0  0  0  0  0
  186.7320  178.4050  144.8110 C   0  0  2  0  0  3  0  0  0  0  0  0
  183.9150  177.8550  140.6550 C   0  0  0  0  0  0  0  0  0  0  0  0
  187.6840  178.4270  138.6250 C   0  0  0  0  0  2  0  0  0  0  0  0
  188.0620  175.5200  143.3330 C   0  0  0  0  0  2  0  0  0  0  0  0
  183.2910  176.9510  140.0420 O   0  0  0  0  0  0  0  0  0  0  0  0
  186.3430  178.0110  139.1980 C   0  0  2  0  0  3  0  0  0  0  0  0
  185.3690  177.9410  138.1830 O   0  0  0  0  0  0  0  0  0  0  0  0
  184.2880  179.0190  139.9710 O   0  0  0  0  0  0  0  0  0  0  0  0
  189.6900  176.3280  138.8540 N   0  0  0  0  0  2  0  0  0  0  0  0
  191.6970  175.2010  138.4140 O   0  0  0  0  0  0  0  0  0  0  0  0
  190.1410  177.0990  139.9750 C   0  0  0  0  0  0  0  0  0  0  0  0
  190.4910  175.4070  138.1080 C   0  0  0  0  0  0  0  0  0  0  0  0
  191.3340  177.0240  140.3720 O   0  0  0  0  0  0  0  0  0  0  0  0
  189.8730  174.6720  136.9640 C   0  0  2  0  0  3  0  0  0  0  0  0
  188.5390  175.2990  136.6010 C   0  0  0  0  0  1  0  0  0  0  0  0
  188.3750  173.0430  136.9250 C   0  0  0  0  0  1  0  0  0  0  0  0
  189.6910  173.3280  137.2950 O   0  0  0  0  0  0  0  0  0  0  0  0
  182.8160  178.4400  144.1050 C   0  0  0  0  0  1  0  0  0  0  0  0
  183.8780  179.3240  143.6390 N   0  0  0  0  0  2  0  0  0  0  0  0
  190.4310  178.3840  143.7340 C   0  0  0  0  0  2  0  0  0  0  0  0
  191.4630  177.8190  144.6970 C   0  0  0  0  0  2  0  0  0  0  0  0
  190.7770  177.1740  145.8870 C   0  0  0  0  0  1  0  0  0  0  0  0
  186.1470  179.3650  145.7530 N   0  0  0  0  0  2  0  0  0  0  0  0
  185.9420  178.7690  147.0690 C   0  0  0  0  0  2  0  0  0  0  0  0
  187.2290  178.1220  147.5350 C   0  0  0  0  0  1  0  0  0  0  0  0
  1  3  1  0  0  0  0
  2 16  1  0  0  0  0
  2  7  1  0  0  0  0
  3  9  1  6  0  0  0
  3 31  1  0  0  0  0
  3 11  1  0  0  0  0
  4  8  1  0  0  0  0
  5  2  1  0  0  0  0
  6 19  1  6  0  0  0
  6 18  1  0  0  0  0
  6 20  1  0  0  0  0
  7 32  1  6  0  0  0
  7 10  1  0  0  0  0
  8 23  1  6  0  0  0
  8  5  1  0  0  0  0
 10 13  1  0  0  0  0
 11 13  1  0  0  0  0
 12  2  1  0  0  0  0
 12 16  1  0  0  0  0
 13 35  1  6  0  0  0
 14  1  1  0  0  0  0
 15  4  1  0  0  0  0
 17 14  2  0  0  0  0
 18 15  1  6  0  0  0
 19 18  1  0  0  0  0
 20 14  1  0  0  0  0
 21 23  1  0  0  0  0
 23 25  2  0  0  0  0
 24 22  2  0  0  0  0
 24 21  1  0  0  0  0
 26 27  1  1  0  0  0
 26 29  1  0  0  0  0
 26 24  1  0  0  0  0
 28 29  1  0  0  0  0
 31 30  1  0  0  0  0
 32 33  1  0  0  0  0
 33 34  1  0  0  0  0
 35 36  1  0  0  0  0
 36 37  1  0  0  0  0
M  END
>  <MODEL>
2

>  <REMARK>
 VINA RESULT:      -5.2      4.203      8.708
  Name = 
  8 active torsions:
  status: ('A' for Active; 'I' for Inactive)
    1  A    between atoms: C_2  and  O_19
    2  A    between atoms: C_2  and  C_35
    3  A    between atoms: C_3  and  N_32
    4  A    between atoms: C_5  and  N_23
    5  A    between atoms: C_9  and  C_13
    6  A    between atoms: C_9  and  C_16
    7  A    between atoms: C_14  and  C_31
    8  A    between atoms: C_25  and  N_32
                            x       y       z     vdW  Elec       q    Type
                         _______ _______ _______ _____ _____    ______ ____

>  <TORSDO>
F 8

$$$$
=
 OpenBabel10272415043D

 37 39  0  0  1  0  0  0  0  0999 V2000
  190.1220  175.7880  135.6940 O   0  0  0  0  0  0  0  0  0  0  0  0
  185.6700  176.9000  136.0350 C   0  0  0  0  0  0  0  0  0  0  0  0
  189.7520  176.4250  136.9310 C   0  0  2  0  0  0  0  0  0  0  0  0
  186.0400  173.2960  137.3530 C   0  0  0  0  0  2  0  0  0  0  0  0
  186.2100  175.4720  136.0380 C   0  0  0  0  0  2  0  0  0  0  0  0
  189.1490  172.5370  136.5430 C   0  0  1  0  0  3  0  0  0  0  0  0
  185.6060  177.7450  137.3100 C   0  0  2  0  0  3  0  0  0  0  0  0
  185.2860  174.4960  136.7630 C   0  0  1  0  0  3  0  0  0  0  0  0
  188.9650  175.4920  137.8560 C   0  0  0  0  0  1  0  0  0  0  0  0
  186.8530  177.5870  138.1830 C   0  0  0  0  0  2  0  0  0  0  0  0
  188.8700  177.6220  136.5360 C   0  0  0  0  0  2  0  0  0  0  0  0
  184.6450  177.2220  134.9670 C   0  0  0  0  0  2  0  0  0  0  0  0
  188.0610  178.3530  137.6260 C   0  0  2  0  0  3  0  0  0  0  0  0
  190.4150  174.4300  135.4850 C   0  0  0  0  0  0  0  0  0  0  0  0
  186.7020  172.3850  136.3160 C   0  0  0  0  0  2  0  0  0  0  0  0
  186.0830  177.6870  134.8120 C   0  0  0  0  0  2  0  0  0  0  0  0
  190.8010  174.0580  134.3470 O   0  0  0  0  0  0  0  0  0  0  0  0
  187.9700  173.0230  135.7830 C   0  0  2  0  0  3  0  0  0  0  0  0
  188.8370  172.0430  135.2610 O   0  0  0  0  0  0  0  0  0  0  0  0
  190.2340  173.4770  136.4950 O   0  0  0  0  0  0  0  0  0  0  0  0
  182.8060  174.0490  136.4590 N   0  0  0  0  0  2  0  0  0  0  0  0
  181.6850  173.2790  134.5490 O   0  0  0  0  0  0  0  0  0  0  0  0
  184.1300  174.0720  135.9120 C   0  0  0  0  0  0  0  0  0  0  0  0
  181.6250  173.6570  135.7510 C   0  0  0  0  0  0  0  0  0  0  0  0
  184.3380  173.7540  134.7110 O   0  0  0  0  0  0  0  0  0  0  0  0
  180.3130  173.6840  136.4620 C   0  0  2  0  0  3  0  0  0  0  0  0
  179.9860  175.1000  136.9000 C   0  0  0  0  0  1  0  0  0  0  0  0
  180.2480  171.5510  137.0510 C   0  0  0  0  0  1  0  0  0  0  0  0
  180.3500  172.8410  137.5750 O   0  0  0  0  0  0  0  0  0  0  0  0
  191.4410  175.9880  138.6000 C   0  0  0  0  0  1  0  0  0  0  0  0
  190.9510  176.9360  137.6050 N   0  0  0  0  0  2  0  0  0  0  0  0
  184.3660  177.3790  138.1180 C   0  0  0  0  0  2  0  0  0  0  0  0
  183.3400  178.5020  138.0940 C   0  0  0  0  0  2  0  0  0  0  0  0
  183.3460  179.2510  139.4130 C   0  0  0  0  0  1  0  0  0  0  0  0
  188.8900  179.0070  138.6440 N   0  0  0  0  0  2  0  0  0  0  0  0
  188.4380  178.6840  139.9930 C   0  0  0  0  0  2  0  0  0  0  0  0
  189.5150  177.8980  140.7110 C   0  0  0  0  0  1  0  0  0  0  0  0
  1  3  1  0  0  0  0
  2  5  1  0  0  0  0
  2  7  1  0  0  0  0
  3 31  1  0  0  0  0
  3  9  1  1  0  0  0
  5  8  1  0  0  0  0
  6 19  1  6  0  0  0
  7 32  1  1  0  0  0
  7 10  1  0  0  0  0
  8 23  1  6  0  0  0
  8  4  1  0  0  0  0
 11  3  1  0  0  0  0
 11 13  1  0  0  0  0
 12  2  1  0  0  0  0
 13 10  1  0  0  0  0
 13 35  1  1  0  0  0
 14  1  1  0  0  0  0
 14 20  1  0  0  0  0
 15  4  1  0  0  0  0
 16 12  1  0  0  0  0
 16  2  1  0  0  0  0
 17 14  2  0  0  0  0
 18 15  1  1  0  0  0
 18  6  1  0  0  0  0
 19 18  1  0  0  0  0
 20  6  1  0  0  0  0
 22 24  2  0  0  0  0
 23 21  1  0  0  0  0
 24 21  1  0  0  0  0
 24 26  1  0  0  0  0
 25 23  2  0  0  0  0
 26 27  1  1  0  0  0
 26 29  1  0  0  0  0
 28 29  1  0  0  0  0
 31 30  1  0  0  0  0
 33 32  1  0  0  0  0
 33 34  1  0  0  0  0
 35 36  1  0  0  0  0
 36 37  1  0  0  0  0
M  END
>  <MODEL>
3

>  <REMARK>
 VINA RESULT:      -4.7      3.135      7.014
  Name = 
  8 active torsions:
  status: ('A' for Active; 'I' for Inactive)
    1  A    between atoms: C_2  and  O_19
    2  A    between atoms: C_2  and  C_35
    3  A    between atoms: C_3  and  N_32
    4  A    between atoms: C_5  and  N_23
    5  A    between atoms: C_9  and  C_13
    6  A    between atoms: C_9  and  C_16
    7  A    between atoms: C_14  and  C_31
    8  A    between atoms: C_25  and  N_32
                            x       y       z     vdW  Elec       q    Type
                         _______ _______ _______ _____ _____    ______ ____

>  <TORSDO>
F 8

$$$$
=
 OpenBabel10272415043D

 37 39  0  0  1  0  0  0  0  0999 V2000
  191.5730  175.3600  136.3410 O   0  0  0  0  0  0  0  0  0  0  0  0
  188.0440  178.0970  137.4520 C   0  0  0  0  0  0  0  0  0  0  0  0
  191.3620  175.5290  137.7550 C   0  0  2  0  0  0  0  0  0  0  0  0
  186.6390  174.5230  137.1050 C   0  0  0  0  0  2  0  0  0  0  0  0
  187.9040  176.7160  136.8150 C   0  0  0  0  0  2  0  0  0  0  0  0
  189.1830  172.8590  135.8190 C   0  0  1  0  0  3  0  0  0  0  0  0
  188.1930  178.2800  138.9660 C   0  0  2  0  0  3  0  0  0  0  0  0
  186.5640  176.0570  137.1320 C   0  0  1  0  0  3  0  0  0  0  0  0
  190.1380  174.7620  138.2600 C   0  0  0  0  0  1  0  0  0  0  0  0
  189.1240  177.2420  139.5950 C   0  0  0  0  0  2  0  0  0  0  0  0
  191.1470  177.0380  137.9670 C   0  0  0  0  0  2  0  0  0  0  0  0
  187.4060  179.2460  136.6990 C   0  0  0  0  0  2  0  0  0  0  0  0
  190.6050  177.5390  139.3210 C   0  0  2  0  0  3  0  0  0  0  0  0
  191.2690  174.2320  135.5610 C   0  0  0  0  0  0  0  0  0  0  0  0
  186.9650  173.9240  135.7350 C   0  0  0  0  0  2  0  0  0  0  0  0
  188.9100  179.0370  136.6450 C   0  0  0  0  0  2  0  0  0  0  0  0
  191.5970  174.2270  134.3460 O   0  0  0  0  0  0  0  0  0  0  0  0
  188.4410  174.0820  135.4240 C   0  0  2  0  0  3  0  0  0  0  0  0
  188.8530  173.1270  134.4750 O   0  0  0  0  0  0  0  0  0  0  0  0
  190.5650  173.1430  136.0880 O   0  0  0  0  0  0  0  0  0  0  0  0
  184.1660  176.8370  136.8380 N   0  0  0  0  0  2  0  0  0  0  0  0
  183.0990  177.5700  134.8840 O   0  0  0  0  0  0  0  0  0  0  0  0
  185.4570  176.5810  136.2710 C   0  0  0  0  0  0  0  0  0  0  0  0
  183.0310  177.3310  136.1200 C   0  0  0  0  0  0  0  0  0  0  0  0
  185.6840  176.8080  135.0530 O   0  0  0  0  0  0  0  0  0  0  0  0
  181.7480  177.5440  136.8540 C   0  0  2  0  0  3  0  0  0  0  0  0
  181.3980  179.0210  136.8740 C   0  0  0  0  0  1  0  0  0  0  0  0
  180.6460  176.4080  138.4020 C   0  0  0  0  0  1  0  0  0  0  0  0
  181.8540  177.0650  138.1610 O   0  0  0  0  0  0  0  0  0  0  0  0
  193.7680  175.6840  137.8770 C   0  0  0  0  0  1  0  0  0  0  0  0
  192.5680  175.1270  138.4890 N   0  0  0  0  0  2  0  0  0  0  0  0
  186.8250  178.2140  139.6370 C   0  0  0  0  0  2  0  0  0  0  0  0
  186.8990  178.6620  141.0880 C   0  0  0  0  0  2  0  0  0  0  0  0
  185.5380  179.1310  141.5660 C   0  0  0  0  0  1  0  0  0  0  0  0
  191.4990  177.2750  140.4540 N   0  0  0  0  0  2  0  0  0  0  0  0
  190.8390  177.5300  141.7290 C   0  0  0  0  0  2  0  0  0  0  0  0
  191.5670  176.7900  142.8310 C   0  0  0  0  0  1  0  0  0  0  0  0
  1  3  1  0  0  0  0
  2  7  1  0  0  0  0
  3 11  1  0  0  0  0
  3  9  1  1  0  0  0
  3 31  1  0  0  0  0
  4  8  1  0  0  0  0
  5  8  1  0  0  0  0
  5  2  1  0  0  0  0
  6 19  1  6  0  0  0
  6 20  1  0  0  0  0
  7 10  1  0  0  0  0
  7 32  1  1  0  0  0
  8 23  1  6  0  0  0
 11 13  1  0  0  0  0
 12  2  1  0  0  0  0
 13 10  1  0  0  0  0
 13 35  1  1  0  0  0
 14 20  1  0  0  0  0
 14  1  1  0  0  0  0
 15  4  1  0  0  0  0
 16 12  1  0  0  0  0
 16  2  1  0  0  0  0
 17 14  2  0  0  0  0
 18 15  1  1  0  0  0
 18  6  1  0  0  0  0
 19 18  1  0  0  0  0
 22 24  2  0  0  0  0
 23 21  1  0  0  0  0
 24 21  1  0  0  0  0
 24 26  1  0  0  0  0
 25 23  2  0  0  0  0
 26 27  1  1  0  0  0
 26 29  1  0  0  0  0
 29 28  1  0  0  0  0
 30 31  1  0  0  0  0
 32 33  1  0  0  0  0
 33 34  1  0  0  0  0
 35 36  1  0  0  0  0
 36 37  1  0  0  0  0
M  END
>  <MODEL>
4

>  <REMARK>
 VINA RESULT:      -4.2      3.083      7.396
  Name = 
  8 active torsions:
  status: ('A' for Active; 'I' for Inactive)
    1  A    between atoms: C_2  and  O_19
    2  A    between atoms: C_2  and  C_35
    3  A    between atoms: C_3  and  N_32
    4  A    between atoms: C_5  and  N_23
    5  A    between atoms: C_9  and  C_13
    6  A    between atoms: C_9  and  C_16
    7  A    between atoms: C_14  and  C_31
    8  A    between atoms: C_25  and  N_32
                            x       y       z     vdW  Elec       q    Type
                         _______ _______ _______ _____ _____    ______ ____

>  <TORSDO>
F 8

$$$$
=
 OpenBabel10272415043D

 37 39  0  0  1  0  0  0  0  0999 V2000
  184.2940  177.7860  142.4600 O   0  0  0  0  0  0  0  0  0  0  0  0
  188.7450  176.6680  142.7870 C   0  0  0  0  0  0  0  0  0  0  0  0
  185.0810  178.6740  143.2750 C   0  0  2  0  0  0  0  0  0  0  0  0
  188.3740  178.9390  139.6930 C   0  0  0  0  0  2  0  0  0  0  0  0
  188.0720  177.1860  141.5180 C   0  0  0  0  0  2  0  0  0  0  0  0
  185.0990  179.1830  139.3550 C   0  0  1  0  0  3  0  0  0  0  0  0
  189.2770  177.6150  143.8670 C   0  0  2  0  0  3  0  0  0  0  0  0
  189.0520  177.8800  140.5750 C   0  0  1  0  0  3  0  0  0  0  0  0
  185.9940  179.5780  142.4430 C   0  0  0  0  0  1  0  0  0  0  0  0
  188.3320  178.7880  144.1360 C   0  0  0  0  0  2  0  0  0  0  0  0
  185.9370  177.7650  144.1740 C   0  0  0  0  0  2  0  0  0  0  0  0
  189.4420  175.3270  142.6720 C   0  0  0  0  0  2  0  0  0  0  0  0
  187.1090  178.3790  144.9680 C   0  0  2  0  0  3  0  0  0  0  0  0
  183.8020  178.0250  141.1660 C   0  0  0  0  0  0  0  0  0  0  0  0
  187.3380  178.3840  138.7120 C   0  0  0  0  0  2  0  0  0  0  0  0
  188.0830  175.4300  143.3460 C   0  0  0  0  0  2  0  0  0  0  0  0
  183.0580  177.1640  140.6290 O   0  0  0  0  0  0  0  0  0  0  0  0
  186.0500  178.0460  139.4370 C   0  0  2  0  0  3  0  0  0  0  0  0
  184.9630  178.0410  138.5410 O   0  0  0  0  0  0  0  0  0  0  0  0
  184.1620  179.1690  140.4430 O   0  0  0  0  0  0  0  0  0  0  0  0
  191.2170  177.1900  139.4430 N   0  0  0  0  0  2  0  0  0  0  0  0
  191.6640  175.2480  138.2090 O   0  0  0  0  0  0  0  0  0  0  0  0
  189.8510  176.9040  139.7690 C   0  0  0  0  0  0  0  0  0  0  0  0
  192.0790  176.3430  138.6760 C   0  0  0  0  0  0  0  0  0  0  0  0
  189.3110  175.8280  139.4000 O   0  0  0  0  0  0  0  0  0  0  0  0
  193.4820  176.7830  138.4180 C   0  0  2  0  0  3  0  0  0  0  0  0
  193.8480  176.5350  136.9660 C   0  0  0  0  0  1  0  0  0  0  0  0
  194.8630  175.0530  138.4660 C   0  0  0  0  0  1  0  0  0  0  0  0
  194.3650  176.0940  139.2520 O   0  0  0  0  0  0  0  0  0  0  0  0
  182.9260  178.7980  144.3560 C   0  0  0  0  0  1  0  0  0  0  0  0
  184.1990  179.4740  144.1330 N   0  0  0  0  0  2  0  0  0  0  0  0
  190.6500  178.1450  143.4680 C   0  0  0  0  0  2  0  0  0  0  0  0
  191.6560  177.9750  144.5960 C   0  0  0  0  0  2  0  0  0  0  0  0
  191.1750  176.9260  145.5800 C   0  0  0  0  0  1  0  0  0  0  0  0
  186.6950  179.3660  145.9710 N   0  0  0  0  0  2  0  0  0  0  0  0
  186.2920  178.7260  147.2180 C   0  0  0  0  0  2  0  0  0  0  0  0
  187.5150  178.1810  147.9240 C   0  0  0  0  0  1  0  0  0  0  0  0
  1  3  1  0  0  0  0
  2 16  1  0  0  0  0
  2  7  1  0  0  0  0
  3  9  1  6  0  0  0
  3 31  1  0  0  0  0
  3 11  1  0  0  0  0
  4  8  1  0  0  0  0
  5  2  1  0  0  0  0
  6 19  1  6  0  0  0
  6 18  1  0  0  0  0
  6 20  1  0  0  0  0
  7 32  1  6  0  0  0
  7 10  1  0  0  0  0
  8 23  1  6  0  0  0
  8  5  1  0  0  0  0
 10 13  1  0  0  0  0
 11 13  1  0  0  0  0
 12  2  1  0  0  0  0
 12 16  1  0  0  0  0
 13 35  1  6  0  0  0
 14  1  1  0  0  0  0
 15  4  1  0  0  0  0
 17 14  2  0  0  0  0
 18 15  1  6  0  0  0
 19 18  1  0  0  0  0
 20 14  1  0  0  0  0
 21 23  1  0  0  0  0
 22 24  2  0  0  0  0
 24 21  1  0  0  0  0
 25 23  2  0  0  0  0
 26 27  1  6  0  0  0
 26 24  1  0  0  0  0
 26 29  1  0  0  0  0
 28 29  1  0  0  0  0
 31 30  1  0  0  0  0
 32 33  1  0  0  0  0
 33 34  1  0  0  0  0
 35 36  1  0  0  0  0
 36 37  1  0  0  0  0
M  END
>  <MODEL>
5

>  <REMARK>
 VINA RESULT:      -3.8      4.937      8.983
  Name = 
  8 active torsions:
  status: ('A' for Active; 'I' for Inactive)
    1  A    between atoms: C_2  and  O_19
    2  A    between atoms: C_2  and  C_35
    3  A    between atoms: C_3  and  N_32
    4  A    between atoms: C_5  and  N_23
    5  A    between atoms: C_9  and  C_13
    6  A    between atoms: C_9  and  C_16
    7  A    between atoms: C_14  and  C_31
    8  A    between atoms: C_25  and  N_32
                            x       y       z     vdW  Elec       q    Type
                         _______ _______ _______ _____ _____    ______ ____

>  <TORSDO>
F 8

$$$$
=
 OpenBabel10272415043D

 37 39  0  0  1  0  0  0  0  0999 V2000
  185.6480  175.1200  136.7120 O   0  0  0  0  0  0  0  0  0  0  0  0
  181.9980  176.4450  139.1790 C   0  0  0  0  0  0  0  0  0  0  0  0
  184.5700  175.6800  135.9410 C   0  0  2  0  0  0  0  0  0  0  0  0
  184.4100  179.4490  139.0250 C   0  0  0  0  0  2  0  0  0  0  0  0
  183.3600  177.1340  139.2070 C   0  0  0  0  0  2  0  0  0  0  0  0
  187.1280  178.1350  137.6880 C   0  0  1  0  0  3  0  0  0  0  0  0
  180.9450  176.7740  138.1170 C   0  0  2  0  0  3  0  0  0  0  0  0
  183.2660  178.6050  139.6060 C   0  0  1  0  0  3  0  0  0  0  0  0
  184.4660  177.1990  136.0980 C   0  0  0  0  0  1  0  0  0  0  0  0
  181.5500  176.9420  136.7220 C   0  0  0  0  0  2  0  0  0  0  0  0
  183.2880  175.0180  136.4750 C   0  0  0  0  0  2  0  0  0  0  0  0
  181.4720  175.9550  140.5130 C   0  0  0  0  0  2  0  0  0  0  0  0
  181.9170  175.6000  136.0750 C   0  0  2  0  0  3  0  0  0  0  0  0
  186.8750  175.7250  137.0320 C   0  0  0  0  0  0  0  0  0  0  0  0
  185.8030  179.0760  139.5380 C   0  0  0  0  0  2  0  0  0  0  0  0
  182.0710  174.9740  139.5190 C   0  0  0  0  0  2  0  0  0  0  0  0
  187.7410  175.0550  137.6520 O   0  0  0  0  0  0  0  0  0  0  0  0
  186.2920  177.8060  138.8690 C   0  0  2  0  0  3  0  0  0  0  0  0
  187.6980  177.7320  138.9120 O   0  0  0  0  0  0  0  0  0  0  0  0
  187.1320  177.0680  136.7280 O   0  0  0  0  0  0  0  0  0  0  0  0
  184.2060  178.4070  141.9560 N   0  0  0  0  0  2  0  0  0  0  0  0
  183.1840  178.9730  143.9880 O   0  0  0  0  0  0  0  0  0  0  0  0
  183.1310  178.7840  141.0860 C   0  0  0  0  0  0  0  0  0  0  0  0
  184.1940  178.5220  143.3820 C   0  0  0  0  0  0  0  0  0  0  0  0
  182.0710  179.2840  141.5480 O   0  0  0  0  0  0  0  0  0  0  0  0
  185.3940  178.0820  144.1530 C   0  0  2  0  0  3  0  0  0  0  0  0
  185.3840  178.7070  145.5360 C   0  0  0  0  0  1  0  0  0  0  0  0
  187.2460  177.2470  143.2730 C   0  0  0  0  0  1  0  0  0  0  0  0
  186.5610  178.4460  143.4780 O   0  0  0  0  0  0  0  0  0  0  0  0
  184.8420  173.8670  134.3690 C   0  0  0  0  0  1  0  0  0  0  0  0
  184.7250  175.3120  134.5280 N   0  0  0  0  0  2  0  0  0  0  0  0
  180.1900  178.0410  138.5040 C   0  0  0  0  0  2  0  0  0  0  0  0
  179.9830  178.9500  137.3020 C   0  0  0  0  0  2  0  0  0  0  0  0
  180.8940  180.1590  137.3910 C   0  0  0  0  0  1  0  0  0  0  0  0
  181.6330  175.5180  134.6380 N   0  0  0  0  0  2  0  0  0  0  0  0
  180.5760  174.5540  134.3540 C   0  0  0  0  0  2  0  0  0  0  0  0
  180.2030  173.8250  135.6270 C   0  0  0  0  0  1  0  0  0  0  0  0
  1 14  1  0  0  0  0
  2  5  1  0  0  0  0
  2 16  1  0  0  0  0
  2 12  1  0  0  0  0
  3  9  1  1  0  0  0
  3 11  1  0  0  0  0
  3  1  1  0  0  0  0
  4 15  1  0  0  0  0
  4  8  1  0  0  0  0
  5  8  1  0  0  0  0
  6 20  1  6  0  0  0
  6 18  1  0  0  0  0
  6 19  1  0  0  0  0
  7 32  1  1  0  0  0
  7  2  1  0  0  0  0
  8 23  1  1  0  0  0
 10  7  1  0  0  0  0
 13 35  1  6  0  0  0
 13 11  1  0  0  0  0
 13 10  1  0  0  0  0
 14 17  2  0  0  0  0
 16 12  1  0  0  0  0
 18 19  1  0  0  0  0
 18 15  1  1  0  0  0
 20 14  1  0  0  0  0
 21 24  1  0  0  0  0
 23 25  2  0  0  0  0
 23 21  1  0  0  0  0
 24 22  2  0  0  0  0
 24 26  1  0  0  0  0
 26 27  1  1  0  0  0
 28 29  1  0  0  0  0
 29 26  1  0  0  0  0
 30 31  1  0  0  0  0
 31  3  1  0  0  0  0
 33 34  1  0  0  0  0
 33 32  1  0  0  0  0
 36 35  1  0  0  0  0
 36 37  1  0  0  0  0
M  END
>  <MODEL>
6

>  <REMARK>
 VINA RESULT:      -3.7      1.774      2.362
  Name = 
  8 active torsions:
  status: ('A' for Active; 'I' for Inactive)
    1  A    between atoms: C_2  and  O_19
    2  A    between atoms: C_2  and  C_35
    3  A    between atoms: C_3  and  N_32
    4  A    between atoms: C_5  and  N_23
    5  A    between atoms: C_9  and  C_13
    6  A    between atoms: C_9  and  C_16
    7  A    between atoms: C_14  and  C_31
    8  A    between atoms: C_25  and  N_32
                            x       y       z     vdW  Elec       q    Type
                         _______ _______ _______ _____ _____    ______ ____

>  <TORSDO>
F 8

$$$$
=
 OpenBabel10272415043D

 37 39  0  0  1  0  0  0  0  0999 V2000
  188.5500  176.9130  141.8990 O   0  0  0  0  0  0  0  0  0  0  0  0
  188.0880  176.0910  137.3960 C   0  0  0  0  0  0  0  0  0  0  0  0
  189.5030  177.5930  141.0610 C   0  0  2  0  0  0  0  0  0  0  0  0
  185.8350  179.1060  138.2320 C   0  0  0  0  0  2  0  0  0  0  0  0
  187.0980  176.8920  138.2370 C   0  0  0  0  0  2  0  0  0  0  0  0
  185.9150  179.1850  141.5310 C   0  0  1  0  0  3  0  0  0  0  0  0
  189.3360  176.7340  136.7830 C   0  0  2  0  0  3  0  0  0  0  0  0
  186.3000  177.8970  137.4080 C   0  0  1  0  0  3  0  0  0  0  0  0
  188.8780  178.7610  140.2940 C   0  0  0  0  0  1  0  0  0  0  0  0
  190.0260  177.7070  137.7390 C   0  0  0  0  0  2  0  0  0  0  0  0
  190.0090  176.5360  140.0650 C   0  0  0  0  0  2  0  0  0  0  0  0
  187.5220  174.8940  136.6600 C   0  0  0  0  0  2  0  0  0  0  0  0
  190.8230  176.9880  138.8360 C   0  0  2  0  0  3  0  0  0  0  0  0
  187.4370  177.4690  142.5520 C   0  0  0  0  0  0  0  0  0  0  0  0
  184.8460  178.7730  139.3520 C   0  0  0  0  0  2  0  0  0  0  0  0
  188.3300  174.6990  137.9320 C   0  0  0  0  0  2  0  0  0  0  0  0
  186.7520  176.7390  143.3160 O   0  0  0  0  0  0  0  0  0  0  0  0
  185.5690  178.1460  140.5290 C   0  0  2  0  0  3  0  0  0  0  0  0
  184.8240  178.3110  141.7130 O   0  0  0  0  0  0  0  0  0  0  0  0
  187.0420  178.7940  142.3310 O   0  0  0  0  0  0  0  0  0  0  0  0
  184.4240  176.1910  137.2810 N   0  0  0  0  0  2  0  0  0  0  0  0
  182.9500  175.7750  135.5070 O   0  0  0  0  0  0  0  0  0  0  0  0
  185.1700  177.2510  136.6680 C   0  0  0  0  0  0  0  0  0  0  0  0
  183.3310  175.4930  136.6750 C   0  0  0  0  0  0  0  0  0  0  0  0
  184.8790  177.6630  135.5150 O   0  0  0  0  0  0  0  0  0  0  0  0
  182.6530  174.4070  137.4430 C   0  0  2  0  0  3  0  0  0  0  0  0
  183.1350  173.0500  136.9620 C   0  0  0  0  0  1  0  0  0  0  0  0
  180.8210  175.1440  138.4440 C   0  0  0  0  0  1  0  0  0  0  0  0
  181.2690  174.4990  137.2890 O   0  0  0  0  0  0  0  0  0  0  0  0
  191.1840  176.9610  142.6740 C   0  0  0  0  0  1  0  0  0  0  0  0
  190.6390  178.0490  141.8700 N   0  0  0  0  0  2  0  0  0  0  0  0
  188.9700  177.4570  135.4910 C   0  0  0  0  0  2  0  0  0  0  0  0
  189.8810  177.0390  134.3470 C   0  0  0  0  0  2  0  0  0  0  0  0
  190.5960  175.7450  134.6860 C   0  0  0  0  0  1  0  0  0  0  0  0
  192.1050  177.6180  139.1710 N   0  0  0  0  0  2  0  0  0  0  0  0
  193.2260  176.7190  138.9230 C   0  0  0  0  0  2  0  0  0  0  0  0
  192.9920  175.9660  137.6310 C   0  0  0  0  0  1  0  0  0  0  0  0
  1 14  1  0  0  0  0
  2 16  1  0  0  0  0
  2  5  1  0  0  0  0
  3  9  1  6  0  0  0
  3 31  1  0  0  0  0
  3  1  1  0  0  0  0
  4 15  1  0  0  0  0
  6 19  1  1  0  0  0
  6 20  1  0  0  0  0
  7 32  1  6  0  0  0
  7  2  1  0  0  0  0
  7 10  1  0  0  0  0
  8 23  1  1  0  0  0
  8  4  1  0  0  0  0
  8  5  1  0  0  0  0
 10 13  1  0  0  0  0
 11  3  1  0  0  0  0
 12  2  1  0  0  0  0
 12 16  1  0  0  0  0
 13 35  1  1  0  0  0
 13 11  1  0  0  0  0
 14 17  2  0  0  0  0
 18 15  1  6  0  0  0
 18  6  1  0  0  0  0
 18 19  1  0  0  0  0
 20 14  1  0  0  0  0
 22 24  2  0  0  0  0
 23 21  1  0  0  0  0
 24 21  1  0  0  0  0
 24 26  1  0  0  0  0
 25 23  2  0  0  0  0
 26 27  1  6  0  0  0
 29 26  1  0  0  0  0
 29 28  1  0  0  0  0
 31 30  1  0  0  0  0
 33 34  1  0  0  0  0
 33 32  1  0  0  0  0
 36 35  1  0  0  0  0
 37 36  1  0  0  0  0
M  END
>  <MODEL>
7

>  <REMARK>
 VINA RESULT:      -3.7      2.836      7.998
  Name = 
  8 active torsions:
  status: ('A' for Active; 'I' for Inactive)
    1  A    between atoms: C_2  and  O_19
    2  A    between atoms: C_2  and  C_35
    3  A    between atoms: C_3  and  N_32
    4  A    between atoms: C_5  and  N_23
    5  A    between atoms: C_9  and  C_13
    6  A    between atoms: C_9  and  C_16
    7  A    between atoms: C_14  and  C_31
    8  A    between atoms: C_25  and  N_32
                            x       y       z     vdW  Elec       q    Type
                         _______ _______ _______ _____ _____    ______ ____

>  <TORSDO>
F 8

$$$$
=
 OpenBabel10272415043D

 37 39  0  0  1  0  0  0  0  0999 V2000
  181.2000  178.1710  138.0040 O   0  0  0  0  0  0  0  0  0  0  0  0
  184.1700  175.4780  135.7470 C   0  0  0  0  0  0  0  0  0  0  0  0
  181.2100  176.7960  138.4280 C   0  0  2  0  0  0  0  0  0  0  0  0
  186.0690  176.9960  138.7390 C   0  0  0  0  0  2  0  0  0  0  0  0
  184.5700  176.5840  136.7200 C   0  0  0  0  0  2  0  0  0  0  0  0
  183.9460  179.2500  139.8840 C   0  0  1  0  0  3  0  0  0  0  0  0
  183.8130  174.0680  136.2250 C   0  0  2  0  0  3  0  0  0  0  0  0
  185.9360  176.3410  137.3560 C   0  0  1  0  0  3  0  0  0  0  0  0
  182.4540  176.4460  139.2490 C   0  0  0  0  0  1  0  0  0  0  0  0
  182.9570  174.0760  137.4930 C   0  0  0  0  0  2  0  0  0  0  0  0
  181.1960  175.9610  137.1360 C   0  0  0  0  0  2  0  0  0  0  0  0
  184.7390  175.5850  134.3460 C   0  0  0  0  0  2  0  0  0  0  0  0
  181.4950  174.4500  137.2120 C   0  0  2  0  0  3  0  0  0  0  0  0
  181.7440  179.2780  138.6770 C   0  0  0  0  0  0  0  0  0  0  0  0
  185.9970  178.5250  138.7310 C   0  0  0  0  0  2  0  0  0  0  0  0
  183.2940  175.9700  134.6180 C   0  0  0  0  0  2  0  0  0  0  0  0
  181.5730  180.4280  138.1970 O   0  0  0  0  0  0  0  0  0  0  0  0
  184.5630  178.9880  138.5600 C   0  0  2  0  0  3  0  0  0  0  0  0
  184.4010  180.2960  139.0560 O   0  0  0  0  0  0  0  0  0  0  0  0
  182.5160  179.1250  139.8360 O   0  0  0  0  0  0  0  0  0  0  0  0
  188.3140  176.0270  136.5250 N   0  0  0  0  0  2  0  0  0  0  0  0
  189.4430  177.2170  134.8500 O   0  0  0  0  0  0  0  0  0  0  0  0
  187.0620  176.7190  136.4440 C   0  0  0  0  0  0  0  0  0  0  0  0
  189.4630  176.3000  135.7160 C   0  0  0  0  0  0  0  0  0  0  0  0
  186.8840  177.6360  135.6000 O   0  0  0  0  0  0  0  0  0  0  0  0
  190.7010  175.4910  135.9210 C   0  0  2  0  0  3  0  0  0  0  0  0
  190.4310  174.0330  135.6000 C   0  0  0  0  0  1  0  0  0  0  0  0
  192.3180  174.8610  137.2960 C   0  0  0  0  0  1  0  0  0  0  0  0
  191.1420  175.6110  137.2410 O   0  0  0  0  0  0  0  0  0  0  0  0
  180.2890  176.2010  140.5790 C   0  0  0  0  0  1  0  0  0  0  0  0
  179.9870  176.5000  139.1840 N   0  0  0  0  0  2  0  0  0  0  0  0
  185.0840  173.2620  136.4710 C   0  0  0  0  0  2  0  0  0  0  0  0
  184.9120  171.8140  136.0390 C   0  0  0  0  0  2  0  0  0  0  0  0
  185.6640  171.5550  134.7470 C   0  0  0  0  0  1  0  0  0  0  0  0
  180.5110  173.6870  137.9870 N   0  0  0  0  0  2  0  0  0  0  0  0
  180.2380  172.3900  137.3780 C   0  0  0  0  0  2  0  0  0  0  0  0
  180.1470  172.5470  135.8760 C   0  0  0  0  0  1  0  0  0  0  0  0
  1  3  1  0  0  0  0
  1 14  1  0  0  0  0
  2  7  1  0  0  0  0
  2  5  1  0  0  0  0
  3 31  1  0  0  0  0
  3  9  1  1  0  0  0
  5  8  1  0  0  0  0
  6 19  1  6  0  0  0
  7 32  1  1  0  0  0
  7 10  1  0  0  0  0
  8 23  1  6  0  0  0
  8  4  1  0  0  0  0
 11 13  1  0  0  0  0
 11  3  1  0  0  0  0
 12 16  1  0  0  0  0
 12  2  1  0  0  0  0
 13 10  1  0  0  0  0
 13 35  1  1  0  0  0
 14 20  1  0  0  0  0
 15  4  1  0  0  0  0
 16  2  1  0  0  0  0
 17 14  2  0  0  0  0
 18 15  1  1  0  0  0
 18 19  1  0  0  0  0
 18  6  1  0  0  0  0
 20  6  1  0  0  0  0
 22 24  2  0  0  0  0
 23 21  1  0  0  0  0
 24 26  1  0  0  0  0
 24 21  1  0  0  0  0
 25 23  2  0  0  0  0
 26 27  1  1  0  0  0
 26 29  1  0  0  0  0
 29 28  1  0  0  0  0
 31 30  1  0  0  0  0
 33 32  1  0  0  0  0
 34 33  1  0  0  0  0
 36 35  1  0  0  0  0
 37 36  1  0  0  0  0
M  END
>  <MODEL>
8

>  <REMARK>
 VINA RESULT:      -3.7      2.815      5.962
  Name = 
  8 active torsions:
  status: ('A' for Active; 'I' for Inactive)
    1  A    between atoms: C_2  and  O_19
    2  A    between atoms: C_2  and  C_35
    3  A    between atoms: C_3  and  N_32
    4  A    between atoms: C_5  and  N_23
    5  A    between atoms: C_9  and  C_13
    6  A    between atoms: C_9  and  C_16
    7  A    between atoms: C_14  and  C_31
    8  A    between atoms: C_25  and  N_32
                            x       y       z     vdW  Elec       q    Type
                         _______ _______ _______ _____ _____    ______ ____

>  <TORSDO>
F 8

$$$$
=
 OpenBabel10272415043D

 37 39  0  0  1  0  0  0  0  0999 V2000
  189.2650  176.5440  140.2420 O   0  0  0  0  0  0  0  0  0  0  0  0
  186.0360  176.0100  137.0080 C   0  0  0  0  0  0  0  0  0  0  0  0
  189.5870  177.1280  138.9660 C   0  0  2  0  0  0  0  0  0  0  0  0
  185.2050  179.2590  138.9100 C   0  0  0  0  0  2  0  0  0  0  0  0
  185.8890  176.8970  138.2410 C   0  0  0  0  0  2  0  0  0  0  0  0
  187.2980  179.1680  141.4610 C   0  0  1  0  0  3  0  0  0  0  0  0
  186.7200  176.5060  135.7300 C   0  0  2  0  0  3  0  0  0  0  0  0
  184.8980  178.0390  138.0290 C   0  0  1  0  0  3  0  0  0  0  0  0
  188.7900  178.4050  138.6890 C   0  0  0  0  0  1  0  0  0  0  0  0
  187.9760  177.3300  136.0180 C   0  0  0  0  0  2  0  0  0  0  0  0
  189.2270  176.0610  137.9170 C   0  0  0  0  0  2  0  0  0  0  0  0
  184.9810  174.9380  136.8280 C   0  0  0  0  0  2  0  0  0  0  0  0
  189.1700  176.4570  136.4280 C   0  0  2  0  0  3  0  0  0  0  0  0
  188.8730  177.2140  141.4130 C   0  0  0  0  0  0  0  0  0  0  0  0
  185.0750  179.0100  140.4140 C   0  0  0  0  0  2  0  0  0  0  0  0
  186.3630  174.5730  137.3460 C   0  0  0  0  0  2  0  0  0  0  0  0
  188.7080  176.5480  142.4680 O   0  0  0  0  0  0  0  0  0  0  0  0
  186.2730  178.2350  140.9290 C   0  0  2  0  0  3  0  0  0  0  0  0
  186.4400  178.4420  142.3120 O   0  0  0  0  0  0  0  0  0  0  0  0
  188.6110  178.5890  141.4200 O   0  0  0  0  0  0  0  0  0  0  0  0
  182.4170  178.3730  137.6040 N   0  0  0  0  0  2  0  0  0  0  0  0
  180.6270  177.0180  138.2760 O   0  0  0  0  0  0  0  0  0  0  0  0
  183.4770  177.5890  138.1670 C   0  0  0  0  0  0  0  0  0  0  0  0
  181.0240  178.0530  137.6750 C   0  0  0  0  0  0  0  0  0  0  0  0
  183.2320  176.5080  138.7660 O   0  0  0  0  0  0  0  0  0  0  0  0
  180.0370  178.9760  137.0390 C   0  0  2  0  0  3  0  0  0  0  0  0
  179.9820  178.7290  135.5420 C   0  0  0  0  0  1  0  0  0  0  0  0
  180.3250  180.9310  136.0420 C   0  0  0  0  0  1  0  0  0  0  0  0
  180.3890  180.3040  137.2880 O   0  0  0  0  0  0  0  0  0  0  0  0
  191.7940  176.1530  139.0370 C   0  0  0  0  0  1  0  0  0  0  0  0
  191.0290  177.3860  138.8860 N   0  0  0  0  0  2  0  0  0  0  0  0
  185.7430  177.3330  134.9020 C   0  0  0  0  0  2  0  0  0  0  0  0
  184.6190  176.4710  134.3480 C   0  0  0  0  0  2  0  0  0  0  0  0
  183.3140  177.2430  134.3460 C   0  0  0  0  0  1  0  0  0  0  0  0
  190.4600  176.8910  135.8790 N   0  0  0  0  0  2  0  0  0  0  0  0
  191.1650  175.7890  135.2330 C   0  0  0  0  0  2  0  0  0  0  0  0
  192.6580  175.9800  135.3980 C   0  0  0  0  0  1  0  0  0  0  0  0
  1 14  1  0  0  0  0
  2 16  1  0  0  0  0
  2  5  1  0  0  0  0
  3  9  1  6  0  0  0
  3  1  1  0  0  0  0
  4 15  1  0  0  0  0
  6 20  1  1  0  0  0
  6 19  1  0  0  0  0
  7 32  1  1  0  0  0
  7 10  1  0  0  0  0
  7  2  1  0  0  0  0
  8 23  1  1  0  0  0
  8  5  1  0  0  0  0
  8  4  1  0  0  0  0
 10 13  1  0  0  0  0
 11  3  1  0  0  0  0
 12  2  1  0  0  0  0
 12 16  1  0  0  0  0
 13 35  1  1  0  0  0
 13 11  1  0  0  0  0
 14 20  1  0  0  0  0
 14 17  2  0  0  0  0
 18 15  1  6  0  0  0
 18  6  1  0  0  0  0
 18 19  1  0  0  0  0
 21 24  1  0  0  0  0
 21 23  1  0  0  0  0
 23 25  2  0  0  0  0
 24 22  2  0  0  0  0
 26 27  1  6  0  0  0
 26 29  1  0  0  0  0
 26 24  1  0  0  0  0
 28 29  1  0  0  0  0
 31  3  1  0  0  0  0
 31 30  1  0  0  0  0
 33 32  1  0  0  0  0
 34 33  1  0  0  0  0
 36 37  1  0  0  0  0
 36 35  1  0  0  0  0
M  END
>  <MODEL>
9

>  <REMARK>
 VINA RESULT:      -3.6      2.972      6.942
  Name = 
  8 active torsions:
  status: ('A' for Active; 'I' for Inactive)
    1  A    between atoms: C_2  and  O_19
    2  A    between atoms: C_2  and  C_35
    3  A    between atoms: C_3  and  N_32
    4  A    between atoms: C_5  and  N_23
    5  A    between atoms: C_9  and  C_13
    6  A    between atoms: C_9  and  C_16
    7  A    between atoms: C_14  and  C_31
    8  A    between atoms: C_25  and  N_32
                            x       y       z     vdW  Elec       q    Type
                         _______ _______ _______ _____ _____    ______ ____

>  <TORSDO>
F 8

$$$$
