=
 OpenBabel10272414023D

 30 31  0  0  1  0  0  0  0  0999 V2000
  189.9430  177.6560  141.7880 C   0  0  1  0  0  3  0  0  0  0  0  0
  190.4850  178.1850  144.3190 C   0  0  1  0  0  3  0  0  0  0  0  0
  188.9720  176.1940  143.7620 C   0  0  0  0  0  1  0  0  0  0  0  0
  191.4290  177.1010  143.8180 C   0  0  2  0  0  3  0  0  0  0  0  0
  190.9410  179.5230  143.7580 C   0  0  0  0  0  1  0  0  0  0  0  0
  190.0100  177.1920  143.2560 C   0  0  1  0  0  0  0  0  0  0  0  0
  191.6080  176.0360  144.8950 C   0  0  0  0  0  2  0  0  0  0  0  0
  191.7020  176.6840  146.2670 C   0  0  0  0  0  2  0  0  0  0  0  0
  190.7410  176.1410  147.1220 O   0  0  0  0  0  0  0  0  0  0  0  0
  190.1470  177.2480  147.7330 C   0  0  0  0  0  2  0  0  0  0  0  0
  188.6740  177.3120  147.3710 C   0  0  0  0  0  2  0  0  0  0  0  0
  187.8770  177.9110  148.5140 C   0  0  0  0  0  1  0  0  0  0  0  0
  190.9400  176.8940  140.9050 C   0  0  1  0  0  3  0  0  0  0  0  0
  190.3750  176.5740  139.5250 C   0  0  0  0  0  1  0  0  0  0  0  0
  192.2470  177.6610  140.7880 C   0  0  0  0  0  2  0  0  0  0  0  0
  193.0580  177.1530  139.6090 C   0  0  0  0  0  2  0  0  0  0  0  0
  194.3540  176.8590  140.0290 O   0  0  0  0  0  1  0  0  0  0  0  0
  188.5200  177.6250  141.2230 C   0  0  0  0  0  2  0  0  0  0  0  0
  187.6690  178.7200  141.8440 C   0  0  0  0  0  2  0  0  0  0  0  0
  186.2900  178.2680  141.9870 N   0  0  0  0  0  0  0  0  0  0  0  0
  185.3790  179.2830  141.4370 C   0  0  0  0  0  2  0  0  0  0  0  0
  185.1660  179.0820  139.0610 O   0  0  0  0  0  0  0  0  0  0  0  0
  184.6570  178.8480  140.1890 C   0  0  0  0  0  0  0  0  0  0  0  0
  183.4150  178.1520  140.2940 N   0  0  0  0  0  2  0  0  0  0  0  0
  182.6990  177.6780  139.1200 C   0  0  0  0  0  2  0  0  0  0  0  0
  182.9590  176.1990  138.9330 C   0  0  0  0  0  1  0  0  0  0  0  0
  186.0140  178.0550  143.4040 C   0  0  0  0  0  2  0  0  0  0  0  0
  185.0990  179.1470  145.3980 C   0  0  0  0  0  2  0  0  0  0  0  0
  185.0930  179.1440  143.9220 C   0  0  2  0  0  3  0  0  0  0  0  0
  184.0570  178.5510  144.6650 O   0  0  0  0  0  0  0  0  0  0  0  0
  1 18  1  6  0  0  0
  1  6  1  0  0  0  0
  2  5  1  6  0  0  0
  4  2  1  0  0  0  0
  4  7  1  1  0  0  0
  6  3  1  1  0  0  0
  6  4  1  0  0  0  0
  6  2  1  0  0  0  0
  7  8  1  0  0  0  0
  8  9  1  0  0  0  0
  9 10  1  0  0  0  0
 11 10  1  0  0  0  0
 11 12  1  0  0  0  0
 13 14  1  6  0  0  0
 13  1  1  0  0  0  0
 15 13  1  0  0  0  0
 16 17  1  0  0  0  0
 16 15  1  0  0  0  0
 18 19  1  0  0  0  0
 19 20  1  0  0  0  0
 20 27  1  0  0  0  0
 21 20  1  0  0  0  0
 22 23  2  0  0  0  0
 23 24  1  0  0  0  0
 23 21  1  0  0  0  0
 25 24  1  0  0  0  0
 26 25  1  0  0  0  0
 29 27  1  6  0  0  0
 29 30  1  0  0  0  0
 29 28  1  0  0  0  0
 30 28  1  0  0  0  0
M  END
>  <MODEL>
1

>  <REMARK>
 VINA RESULT:      -5.9      0.000      0.000
  Name = 
  17 active torsions:
  status: ('A' for Active; 'I' for Inactive)
    1  A    between atoms: C_1  and  N_4
    2  A    between atoms: C_1  and  C_22
    3  A    between atoms: C_2  and  C_14
    4  A    between atoms: C_2  and  C_29
    5  A    between atoms: N_4  and  C_5
    6  A    between atoms: N_4  and  C_9
    7  A    between atoms: C_5  and  C_17
    8  A    between atoms: C_9  and  C_12
    9  A    between atoms: C_10  and  O_15
   10  A    between atoms: C_10  and  C_16
   11  A    between atoms: C_11  and  C_24
   12  A    between atoms: C_13  and  N_27
   13  A    between atoms: C_14  and  C_20
   14  A    between atoms: O_15  and  C_25
   15  A    between atoms: C_22  and  C_29
   16  A    between atoms: C_23  and  C_29
   17  A    between atoms: C_24  and  C_25
                            x       y       z     vdW  Elec       q    Type
                         _______ _______ _______ _____ _____    ______ ____

>  <TORSDO>
F 17

$$$$
=
 OpenBabel10272414023D

 30 31  0  0  1  0  0  0  0  0999 V2000
  190.0430  177.6650  142.1670 C   0  0  1  0  0  3  0  0  0  0  0  0
  187.4650  177.5160  142.7240 C   0  0  1  0  0  3  0  0  0  0  0  0
  188.9570  175.4880  143.1980 C   0  0  0  0  0  1  0  0  0  0  0  0
  188.2320  177.8800  143.9870 C   0  0  2  0  0  3  0  0  0  0  0  0
  187.3820  178.7480  141.8360 C   0  0  0  0  0  1  0  0  0  0  0  0
  188.8860  176.9900  142.9290 C   0  0  1  0  0  0  0  0  0  0  0  0
  187.6570  177.1180  145.1760 C   0  0  0  0  0  2  0  0  0  0  0  0
  187.1240  178.0890  146.2170 C   0  0  0  0  0  2  0  0  0  0  0  0
  185.7320  178.0050  146.2870 O   0  0  0  0  0  0  0  0  0  0  0  0
  185.2760  179.1380  145.6090 C   0  0  0  0  0  2  0  0  0  0  0  0
  183.8970  178.8770  145.0310 C   0  0  0  0  0  2  0  0  0  0  0  0
  183.9790  178.7120  143.5250 C   0  0  0  0  0  1  0  0  0  0  0  0
  191.2250  177.9820  143.0920 C   0  0  1  0  0  3  0  0  0  0  0  0
  190.9890  179.2300  143.9370 C   0  0  0  0  0  1  0  0  0  0  0  0
  191.5500  176.7870  143.9750 C   0  0  0  0  0  2  0  0  0  0  0  0
  191.5220  177.1850  145.4390 C   0  0  0  0  0  2  0  0  0  0  0  0
  192.0200  176.1400  146.2140 O   0  0  0  0  0  1  0  0  0  0  0  0
  190.4690  176.8780  140.9240 C   0  0  0  0  0  2  0  0  0  0  0  0
  189.6790  177.3270  139.7050 C   0  0  0  0  0  2  0  0  0  0  0  0
  190.1730  176.6550  138.5090 N   0  0  0  0  0  0  0  0  0  0  0  0
  191.6220  176.8730  138.3850 C   0  0  0  0  0  2  0  0  0  0  0  0
  191.8030  174.5310  137.9260 O   0  0  0  0  0  0  0  0  0  0  0  0
  192.4090  175.6210  138.1000 C   0  0  0  0  0  0  0  0  0  0  0  0
  193.8330  175.6820  138.0060 N   0  0  0  0  0  2  0  0  0  0  0  0
  194.6330  174.5090  137.6950 C   0  0  0  0  0  2  0  0  0  0  0  0
  195.5040  174.1620  138.8830 C   0  0  0  0  0  1  0  0  0  0  0  0
  189.4790  177.2000  137.3470 C   0  0  0  0  0  2  0  0  0  0  0  0
  187.7260  178.7480  136.6170 C   0  0  0  0  0  2  0  0  0  0  0  0
  188.4350  178.2060  137.7930 C   0  0  2  0  0  3  0  0  0  0  0  0
  188.7550  179.4650  137.2530 O   0  0  0  0  0  0  0  0  0  0  0  0
  1 18  1  6  0  0  0
  1  6  1  0  0  0  0
  1 13  1  0  0  0  0
  2  5  1  6  0  0  0
  2  6  1  0  0  0  0
  2  4  1  0  0  0  0
  4  7  1  1  0  0  0
  6  3  1  1  0  0  0
  6  4  1  0  0  0  0
  7  8  1  0  0  0  0
  8  9  1  0  0  0  0
 10  9  1  0  0  0  0
 11 10  1  0  0  0  0
 12 11  1  0  0  0  0
 13 14  1  1  0  0  0
 13 15  1  0  0  0  0
 15 16  1  0  0  0  0
 16 17  1  0  0  0  0
 19 18  1  0  0  0  0
 20 19  1  0  0  0  0
 21 20  1  0  0  0  0
 22 23  2  0  0  0  0
 23 21  1  0  0  0  0
 24 23  1  0  0  0  0
 25 24  1  0  0  0  0
 25 26  1  0  0  0  0
 27 20  1  0  0  0  0
 28 30  1  0  0  0  0
 28 29  1  0  0  0  0
 29 27  1  6  0  0  0
 30 29  1  0  0  0  0
M  END
>  <MODEL>
2

>  <REMARK>
 VINA RESULT:      -5.9      2.866      6.523
  Name = 
  17 active torsions:
  status: ('A' for Active; 'I' for Inactive)
    1  A    between atoms: C_1  and  N_4
    2  A    between atoms: C_1  and  C_22
    3  A    between atoms: C_2  and  C_14
    4  A    between atoms: C_2  and  C_29
    5  A    between atoms: N_4  and  C_5
    6  A    between atoms: N_4  and  C_9
    7  A    between atoms: C_5  and  C_17
    8  A    between atoms: C_9  and  C_12
    9  A    between atoms: C_10  and  O_15
   10  A    between atoms: C_10  and  C_16
   11  A    between atoms: C_11  and  C_24
   12  A    between atoms: C_13  and  N_27
   13  A    between atoms: C_14  and  C_20
   14  A    between atoms: O_15  and  C_25
   15  A    between atoms: C_22  and  C_29
   16  A    between atoms: C_23  and  C_29
   17  A    between atoms: C_24  and  C_25
                            x       y       z     vdW  Elec       q    Type
                         _______ _______ _______ _____ _____    ______ ____

>  <TORSDO>
F 17

$$$$
=
 OpenBabel10272414023D

 30 31  0  0  1  0  0  0  0  0999 V2000
  190.1230  176.9070  142.3940 C   0  0  1  0  0  3  0  0  0  0  0  0
  191.5070  176.7870  144.6410 C   0  0  1  0  0  3  0  0  0  0  0  0
  190.8070  179.0790  143.7340 C   0  0  0  0  0  1  0  0  0  0  0  0
  190.0260  176.9040  144.9690 C   0  0  2  0  0  3  0  0  0  0  0  0
  191.7920  175.3650  144.1840 C   0  0  0  0  0  1  0  0  0  0  0  0
  190.5800  177.5690  143.7090 C   0  0  1  0  0  0  0  0  0  0  0  0
  189.8310  177.8550  146.1450 C   0  0  0  0  0  2  0  0  0  0  0  0
  188.9550  177.2100  147.2060 C   0  0  0  0  0  2  0  0  0  0  0  0
  187.6150  177.2590  146.8200 O   0  0  0  0  0  0  0  0  0  0  0  0
  187.0540  178.2630  147.6130 C   0  0  0  0  0  2  0  0  0  0  0  0
  185.8810  178.9020  146.8920 C   0  0  0  0  0  2  0  0  0  0  0  0
  185.7490  178.3310  145.4930 C   0  0  0  0  0  1  0  0  0  0  0  0
  188.6040  177.0090  142.2050 C   0  0  1  0  0  3  0  0  0  0  0  0
  187.8270  176.3100  143.3160 C   0  0  0  0  0  1  0  0  0  0  0  0
  188.1760  178.4630  142.0810 C   0  0  0  0  0  2  0  0  0  0  0  0
  187.0170  178.5950  141.1100 C   0  0  0  0  0  2  0  0  0  0  0  0
  186.0490  179.4360  141.6540 O   0  0  0  0  0  1  0  0  0  0  0  0
  190.8990  177.4160  141.1770 C   0  0  0  0  0  2  0  0  0  0  0  0
  190.5160  176.6370  139.9280 C   0  0  0  0  0  2  0  0  0  0  0  0
  191.1760  177.2040  138.7580 N   0  0  0  0  0  0  0  0  0  0  0  0
  190.3680  176.9350  137.5590 C   0  0  0  0  0  2  0  0  0  0  0  0
  189.2540  179.0240  137.2120 O   0  0  0  0  0  0  0  0  0  0  0  0
  189.1360  177.7920  137.4450 C   0  0  0  0  0  0  0  0  0  0  0  0
  187.8430  177.2000  137.5760 N   0  0  0  0  0  2  0  0  0  0  0  0
  186.6230  177.9790  137.4350 C   0  0  0  0  0  2  0  0  0  0  0  0
  185.7240  177.3290  136.4050 C   0  0  0  0  0  1  0  0  0  0  0  0
  192.4950  176.5940  138.6260 C   0  0  0  0  0  2  0  0  0  0  0  0
  193.9260  175.3610  137.0650 C   0  0  0  0  0  2  0  0  0  0  0  0
  192.7810  176.2880  137.1690 C   0  0  2  0  0  3  0  0  0  0  0  0
  194.0730  176.7430  136.8520 O   0  0  0  0  0  0  0  0  0  0  0  0
  1 18  1  6  0  0  0
  1  6  1  0  0  0  0
  2  5  1  6  0  0  0
  2  4  1  0  0  0  0
  4  7  1  1  0  0  0
  6  3  1  1  0  0  0
  6  2  1  0  0  0  0
  6  4  1  0  0  0  0
  7  8  1  0  0  0  0
  9  8  1  0  0  0  0
  9 10  1  0  0  0  0
 11 10  1  0  0  0  0
 12 11  1  0  0  0  0
 13  1  1  0  0  0  0
 13 14  1  1  0  0  0
 15 13  1  0  0  0  0
 16 17  1  0  0  0  0
 16 15  1  0  0  0  0
 19 18  1  0  0  0  0
 20 19  1  0  0  0  0
 21 20  1  0  0  0  0
 22 23  2  0  0  0  0
 23 21  1  0  0  0  0
 23 24  1  0  0  0  0
 25 24  1  0  0  0  0
 26 25  1  0  0  0  0
 27 20  1  0  0  0  0
 28 29  1  0  0  0  0
 29 27  1  1  0  0  0
 30 28  1  0  0  0  0
 30 29  1  0  0  0  0
M  END
>  <MODEL>
3

>  <REMARK>
 VINA RESULT:      -5.9      2.478      5.733
  Name = 
  17 active torsions:
  status: ('A' for Active; 'I' for Inactive)
    1  A    between atoms: C_1  and  N_4
    2  A    between atoms: C_1  and  C_22
    3  A    between atoms: C_2  and  C_14
    4  A    between atoms: C_2  and  C_29
    5  A    between atoms: N_4  and  C_5
    6  A    between atoms: N_4  and  C_9
    7  A    between atoms: C_5  and  C_17
    8  A    between atoms: C_9  and  C_12
    9  A    between atoms: C_10  and  O_15
   10  A    between atoms: C_10  and  C_16
   11  A    between atoms: C_11  and  C_24
   12  A    between atoms: C_13  and  N_27
   13  A    between atoms: C_14  and  C_20
   14  A    between atoms: O_15  and  C_25
   15  A    between atoms: C_22  and  C_29
   16  A    between atoms: C_23  and  C_29
   17  A    between atoms: C_24  and  C_25
                            x       y       z     vdW  Elec       q    Type
                         _______ _______ _______ _____ _____    ______ ____

>  <TORSDO>
F 17

$$$$
=
 OpenBabel10272414023D

 30 31  0  0  1  0  0  0  0  0999 V2000
  190.0830  176.8190  142.4530 C   0  0  1  0  0  3  0  0  0  0  0  0
  191.5410  176.7130  144.6540 C   0  0  1  0  0  3  0  0  0  0  0  0
  190.8450  179.0010  143.7330 C   0  0  0  0  0  1  0  0  0  0  0  0
  190.0730  176.8580  145.0300 C   0  0  2  0  0  3  0  0  0  0  0  0
  191.7880  175.2800  144.2110 C   0  0  0  0  0  1  0  0  0  0  0  0
  190.5940  177.4940  143.7410 C   0  0  1  0  0  0  0  0  0  0  0  0
  189.9330  177.8310  146.1950 C   0  0  0  0  0  2  0  0  0  0  0  0
  189.3920  177.1130  147.4210 C   0  0  0  0  0  2  0  0  0  0  0  0
  188.0010  177.0220  147.3510 O   0  0  0  0  0  0  0  0  0  0  0  0
  187.5420  178.2530  147.8250 C   0  0  0  0  0  2  0  0  0  0  0  0
  186.1980  178.5830  147.2020 C   0  0  0  0  0  2  0  0  0  0  0  0
  186.2750  178.4680  145.6920 C   0  0  0  0  0  1  0  0  0  0  0  0
  188.5570  176.9200  142.3260 C   0  0  1  0  0  3  0  0  0  0  0  0
  187.8260  176.1430  143.4150 C   0  0  0  0  0  1  0  0  0  0  0  0
  188.1160  178.3760  142.3150 C   0  0  0  0  0  2  0  0  0  0  0  0
  186.6510  178.4840  141.9330 C   0  0  0  0  0  2  0  0  0  0  0  0
  186.5460  178.8570  140.5950 O   0  0  0  0  0  1  0  0  0  0  0  0
  190.8070  177.3140  141.1990 C   0  0  0  0  0  2  0  0  0  0  0  0
  189.8870  177.2690  139.9900 C   0  0  0  0  0  2  0  0  0  0  0  0
  190.5940  176.7220  138.8380 N   0  0  0  0  0  0  0  0  0  0  0  0
  192.0350  176.9770  138.9790 C   0  0  0  0  0  2  0  0  0  0  0  0
  193.8230  176.7840  137.3990 O   0  0  0  0  0  0  0  0  0  0  0  0
  192.8920  176.2000  138.0160 C   0  0  0  0  0  0  0  0  0  0  0  0
  192.6620  174.8030  137.8260 N   0  0  0  0  0  2  0  0  0  0  0  0
  193.4870  174.0020  136.9360 C   0  0  0  0  0  2  0  0  0  0  0  0
  194.6320  173.3960  137.7180 C   0  0  0  0  0  1  0  0  0  0  0  0
  190.0820  177.3620  137.6300 C   0  0  0  0  0  2  0  0  0  0  0  0
  188.1840  178.6120  136.7150 C   0  0  0  0  0  2  0  0  0  0  0  0
  188.8480  178.1810  137.9610 C   0  0  2  0  0  3  0  0  0  0  0  0
  189.0120  179.4800  137.4480 O   0  0  0  0  0  0  0  0  0  0  0  0
  1 18  1  6  0  0  0
  1  6  1  0  0  0  0
  2  5  1  6  0  0  0
  2  4  1  0  0  0  0
  4  7  1  1  0  0  0
  6  3  1  6  0  0  0
  6  2  1  0  0  0  0
  6  4  1  0  0  0  0
  7  8  1  0  0  0  0
  9  8  1  0  0  0  0
  9 10  1  0  0  0  0
 11 10  1  0  0  0  0
 12 11  1  0  0  0  0
 13  1  1  0  0  0  0
 13 14  1  1  0  0  0
 15 13  1  0  0  0  0
 16 15  1  0  0  0  0
 17 16  1  0  0  0  0
 19 18  1  0  0  0  0
 20 21  1  0  0  0  0
 20 19  1  0  0  0  0
 22 23  2  0  0  0  0
 23 21  1  0  0  0  0
 24 23  1  0  0  0  0
 25 26  1  0  0  0  0
 25 24  1  0  0  0  0
 27 20  1  0  0  0  0
 28 30  1  0  0  0  0
 28 29  1  0  0  0  0
 29 27  1  6  0  0  0
 30 29  1  0  0  0  0
M  END
>  <MODEL>
4

>  <REMARK>
 VINA RESULT:      -5.8      2.778      6.225
  Name = 
  17 active torsions:
  status: ('A' for Active; 'I' for Inactive)
    1  A    between atoms: C_1  and  N_4
    2  A    between atoms: C_1  and  C_22
    3  A    between atoms: C_2  and  C_14
    4  A    between atoms: C_2  and  C_29
    5  A    between atoms: N_4  and  C_5
    6  A    between atoms: N_4  and  C_9
    7  A    between atoms: C_5  and  C_17
    8  A    between atoms: C_9  and  C_12
    9  A    between atoms: C_10  and  O_15
   10  A    between atoms: C_10  and  C_16
   11  A    between atoms: C_11  and  C_24
   12  A    between atoms: C_13  and  N_27
   13  A    between atoms: C_14  and  C_20
   14  A    between atoms: O_15  and  C_25
   15  A    between atoms: C_22  and  C_29
   16  A    between atoms: C_23  and  C_29
   17  A    between atoms: C_24  and  C_25
                            x       y       z     vdW  Elec       q    Type
                         _______ _______ _______ _____ _____    ______ ____

>  <TORSDO>
F 17

$$$$
=
 OpenBabel10272414023D

 30 31  0  0  1  0  0  0  0  0999 V2000
  190.1860  177.4940  142.1650 C   0  0  1  0  0  3  0  0  0  0  0  0
  187.5820  177.5070  142.6080 C   0  0  1  0  0  3  0  0  0  0  0  0
  188.9320  175.4110  143.1990 C   0  0  0  0  0  1  0  0  0  0  0  0
  188.3120  177.8600  143.8950 C   0  0  2  0  0  3  0  0  0  0  0  0
  187.6090  178.7170  141.6870 C   0  0  0  0  0  1  0  0  0  0  0  0
  188.9600  176.9060  142.8900 C   0  0  1  0  0  0  0  0  0  0  0  0
  187.6420  177.1650  145.0750 C   0  0  0  0  0  2  0  0  0  0  0  0
  187.0440  178.1920  146.0230 C   0  0  0  0  0  2  0  0  0  0  0  0
  185.7240  177.8560  146.3260 O   0  0  0  0  0  0  0  0  0  0  0  0
  184.9740  178.9570  145.9060 C   0  0  0  0  0  2  0  0  0  0  0  0
  184.2410  178.6270  144.6180 C   0  0  0  0  0  2  0  0  0  0  0  0
  184.6070  179.6220  143.5340 C   0  0  0  0  0  1  0  0  0  0  0  0
  191.3220  177.8210  143.1430 C   0  0  1  0  0  3  0  0  0  0  0  0
  191.0650  179.1010  143.9310 C   0  0  0  0  0  1  0  0  0  0  0  0
  191.5740  176.6520  144.0810 C   0  0  0  0  0  2  0  0  0  0  0  0
  191.5420  177.1140  145.5270 C   0  0  0  0  0  2  0  0  0  0  0  0
  192.0750  176.1200  146.3440 O   0  0  0  0  0  1  0  0  0  0  0  0
  190.6540  176.6220  140.9970 C   0  0  0  0  0  2  0  0  0  0  0  0
  191.3790  177.4590  139.9540 C   0  0  0  0  0  2  0  0  0  0  0  0
  190.9280  177.0970  138.6160 N   0  0  0  0  0  0  0  0  0  0  0  0
  189.5360  176.6260  138.6750 C   0  0  0  0  0  2  0  0  0  0  0  0
  188.8380  178.8860  138.3110 O   0  0  0  0  0  0  0  0  0  0  0  0
  188.5190  177.6670  138.2930 C   0  0  0  0  0  0  0  0  0  0  0  0
  187.2090  177.2670  137.8900 N   0  0  0  0  0  2  0  0  0  0  0  0
  186.2040  178.2320  137.4750 C   0  0  0  0  0  2  0  0  0  0  0  0
  185.1920  178.4160  138.5840 C   0  0  0  0  0  1  0  0  0  0  0  0
  191.7980  176.0450  138.0990 C   0  0  0  0  0  2  0  0  0  0  0  0
  193.8180  175.7740  136.7400 C   0  0  0  0  0  2  0  0  0  0  0  0
  193.1580  176.6200  137.7540 C   0  0  2  0  0  3  0  0  0  0  0  0
  194.1500  175.6860  138.1030 O   0  0  0  0  0  0  0  0  0  0  0  0
  1 18  1  6  0  0  0
  1  6  1  0  0  0  0
  1 13  1  0  0  0  0
  2  5  1  6  0  0  0
  2  6  1  0  0  0  0
  2  4  1  0  0  0  0
  4  7  1  1  0  0  0
  6  3  1  1  0  0  0
  6  4  1  0  0  0  0
  7  8  1  0  0  0  0
  8  9  1  0  0  0  0
 10  9  1  0  0  0  0
 11 10  1  0  0  0  0
 12 11  1  0  0  0  0
 13 14  1  1  0  0  0
 13 15  1  0  0  0  0
 15 16  1  0  0  0  0
 16 17  1  0  0  0  0
 19 18  1  0  0  0  0
 20 21  1  0  0  0  0
 20 19  1  0  0  0  0
 23 22  2  0  0  0  0
 23 21  1  0  0  0  0
 24 23  1  0  0  0  0
 25 24  1  0  0  0  0
 25 26  1  0  0  0  0
 27 20  1  0  0  0  0
 28 29  1  0  0  0  0
 28 30  1  0  0  0  0
 29 27  1  1  0  0  0
 29 30  1  0  0  0  0
M  END
>  <MODEL>
5

>  <REMARK>
 VINA RESULT:      -5.7      2.188      5.773
  Name = 
  17 active torsions:
  status: ('A' for Active; 'I' for Inactive)
    1  A    between atoms: C_1  and  N_4
    2  A    between atoms: C_1  and  C_22
    3  A    between atoms: C_2  and  C_14
    4  A    between atoms: C_2  and  C_29
    5  A    between atoms: N_4  and  C_5
    6  A    between atoms: N_4  and  C_9
    7  A    between atoms: C_5  and  C_17
    8  A    between atoms: C_9  and  C_12
    9  A    between atoms: C_10  and  O_15
   10  A    between atoms: C_10  and  C_16
   11  A    between atoms: C_11  and  C_24
   12  A    between atoms: C_13  and  N_27
   13  A    between atoms: C_14  and  C_20
   14  A    between atoms: O_15  and  C_25
   15  A    between atoms: C_22  and  C_29
   16  A    between atoms: C_23  and  C_29
   17  A    between atoms: C_24  and  C_25
                            x       y       z     vdW  Elec       q    Type
                         _______ _______ _______ _____ _____    ______ ____

>  <TORSDO>
F 17

$$$$
=
 OpenBabel10272414023D

 30 31  0  0  1  0  0  0  0  0999 V2000
  188.7370  177.9520  142.8780 C   0  0  1  0  0  3  0  0  0  0  0  0
  191.3370  177.9590  143.3470 C   0  0  1  0  0  3  0  0  0  0  0  0
  190.2000  175.7600  142.6880 C   0  0  0  0  0  1  0  0  0  0  0  0
  191.0960  178.0750  141.8480 C   0  0  2  0  0  3  0  0  0  0  0  0
  191.0390  179.3040  143.9910 C   0  0  0  0  0  1  0  0  0  0  0  0
  190.1170  177.2850  142.7170 C   0  0  1  0  0  0  0  0  0  0  0  0
  192.1020  177.2110  141.0960 C   0  0  0  0  0  2  0  0  0  0  0  0
  191.7620  177.1740  139.6150 C   0  0  0  0  0  2  0  0  0  0  0  0
  191.1350  175.9690  139.2950 O   0  0  0  0  0  0  0  0  0  0  0  0
  191.0420  175.9790  137.9010 C   0  0  0  0  0  2  0  0  0  0  0  0
  191.3760  174.6050  137.3480 C   0  0  0  0  0  2  0  0  0  0  0  0
  192.8650  174.3390  137.4620 C   0  0  0  0  0  1  0  0  0  0  0  0
  188.2080  178.4920  141.5430 C   0  0  1  0  0  3  0  0  0  0  0  0
  188.3070  177.4680  140.4170 C   0  0  0  0  0  1  0  0  0  0  0  0
  186.7790  178.9900  141.6950 C   0  0  0  0  0  2  0  0  0  0  0  0
  185.9590  178.6330  140.4690 C   0  0  0  0  0  2  0  0  0  0  0  0
  185.0350  179.6440  140.2180 O   0  0  0  0  0  1  0  0  0  0  0  0
  187.7230  177.0480  143.5850 C   0  0  0  0  0  2  0  0  0  0  0  0
  188.0380  176.9410  145.0690 C   0  0  0  0  0  2  0  0  0  0  0  0
  187.2510  177.9090  145.8230 N   0  0  0  0  0  0  0  0  0  0  0  0
  187.4570  177.6940  147.2630 C   0  0  0  0  0  2  0  0  0  0  0  0
  189.2940  178.5820  148.5140 O   0  0  0  0  0  0  0  0  0  0  0  0
  188.9010  177.7170  147.6870 C   0  0  0  0  0  0  0  0  0  0  0  0
  189.8090  176.7440  147.1690 N   0  0  0  0  0  2  0  0  0  0  0  0
  191.2040  176.7000  147.5780 C   0  0  0  0  0  2  0  0  0  0  0  0
  192.0260  176.0340  146.4960 C   0  0  0  0  0  1  0  0  0  0  0  0
  185.8430  177.7340  145.4800 C   0  0  0  0  0  2  0  0  0  0  0  0
  183.7630  178.9610  145.0700 C   0  0  0  0  0  2  0  0  0  0  0  0
  185.0880  179.0280  145.7170 C   0  0  2  0  0  3  0  0  0  0  0  0
  184.8400  179.6440  144.4780 O   0  0  0  0  0  0  0  0  0  0  0  0
  1 18  1  6  0  0  0
  2  5  1  1  0  0  0
  4  7  1  6  0  0  0
  4  6  1  0  0  0  0
  4  2  1  0  0  0  0
  6  3  1  6  0  0  0
  6  1  1  0  0  0  0
  6  2  1  0  0  0  0
  8  7  1  0  0  0  0
  9  8  1  0  0  0  0
 10  9  1  0  0  0  0
 11 12  1  0  0  0  0
 11 10  1  0  0  0  0
 13 14  1  6  0  0  0
 13 15  1  0  0  0  0
 13  1  1  0  0  0  0
 16 15  1  0  0  0  0
 17 16  1  0  0  0  0
 18 19  1  0  0  0  0
 19 20  1  0  0  0  0
 20 21  1  0  0  0  0
 21 23  1  0  0  0  0
 23 22  2  0  0  0  0
 24 25  1  0  0  0  0
 24 23  1  0  0  0  0
 26 25  1  0  0  0  0
 27 20  1  0  0  0  0
 28 29  1  0  0  0  0
 29 27  1  6  0  0  0
 30 28  1  0  0  0  0
 30 29  1  0  0  0  0
M  END
>  <MODEL>
6

>  <REMARK>
 VINA RESULT:      -5.7      2.220      6.709
  Name = 
  17 active torsions:
  status: ('A' for Active; 'I' for Inactive)
    1  A    between atoms: C_1  and  N_4
    2  A    between atoms: C_1  and  C_22
    3  A    between atoms: C_2  and  C_14
    4  A    between atoms: C_2  and  C_29
    5  A    between atoms: N_4  and  C_5
    6  A    between atoms: N_4  and  C_9
    7  A    between atoms: C_5  and  C_17
    8  A    between atoms: C_9  and  C_12
    9  A    between atoms: C_10  and  O_15
   10  A    between atoms: C_10  and  C_16
   11  A    between atoms: C_11  and  C_24
   12  A    between atoms: C_13  and  N_27
   13  A    between atoms: C_14  and  C_20
   14  A    between atoms: O_15  and  C_25
   15  A    between atoms: C_22  and  C_29
   16  A    between atoms: C_23  and  C_29
   17  A    between atoms: C_24  and  C_25
                            x       y       z     vdW  Elec       q    Type
                         _______ _______ _______ _____ _____    ______ ____

>  <TORSDO>
F 17

$$$$
=
 OpenBabel10272414023D

 30 31  0  0  1  0  0  0  0  0999 V2000
  189.8670  177.4550  142.4170 C   0  0  1  0  0  3  0  0  0  0  0  0
  191.5110  176.6820  144.3350 C   0  0  1  0  0  3  0  0  0  0  0  0
  191.0990  179.1860  143.9860 C   0  0  0  0  0  1  0  0  0  0  0  0
  190.1330  176.9400  144.9270 C   0  0  2  0  0  3  0  0  0  0  0  0
  191.4770  175.3570  143.5880 C   0  0  0  0  0  1  0  0  0  0  0  0
  190.6120  177.7620  143.7300 C   0  0  1  0  0  0  0  0  0  0  0  0
  190.2740  177.6490  146.2700 C   0  0  0  0  0  2  0  0  0  0  0  0
  189.2040  177.1660  147.2360 C   0  0  0  0  0  2  0  0  0  0  0  0
  189.1610  177.9940  148.3590 O   0  0  0  0  0  0  0  0  0  0  0  0
  187.8210  178.3730  148.4680 C   0  0  0  0  0  2  0  0  0  0  0  0
  187.0620  177.9620  147.2190 C   0  0  0  0  0  2  0  0  0  0  0  0
  185.8520  178.8550  147.0200 C   0  0  0  0  0  1  0  0  0  0  0  0
  188.4810  178.1140  142.3820 C   0  0  1  0  0  3  0  0  0  0  0  0
  188.0940  178.5890  140.9850 C   0  0  0  0  0  1  0  0  0  0  0  0
  187.4270  177.1730  142.9430 C   0  0  0  0  0  2  0  0  0  0  0  0
  186.2610  177.9610  143.5130 C   0  0  0  0  0  2  0  0  0  0  0  0
  185.1750  177.8780  142.6440 O   0  0  0  0  0  1  0  0  0  0  0  0
  190.7000  177.7820  141.1750 C   0  0  0  0  0  2  0  0  0  0  0  0
  190.7310  176.6000  140.2190 C   0  0  0  0  0  2  0  0  0  0  0  0
  191.1640  177.0340  138.8960 N   0  0  0  0  0  0  0  0  0  0  0  0
  190.2900  176.4410  137.8730 C   0  0  0  0  0  2  0  0  0  0  0  0
  189.3300  178.6180  137.6210 O   0  0  0  0  0  0  0  0  0  0  0  0
  189.3130  177.4110  137.2640 C   0  0  0  0  0  0  0  0  0  0  0  0
  188.3930  176.9620  136.2680 N   0  0  0  0  0  2  0  0  0  0  0  0
  187.4570  177.8680  135.6230 C   0  0  0  0  0  2  0  0  0  0  0  0
  186.0420  177.3830  135.8530 C   0  0  0  0  0  1  0  0  0  0  0  0
  192.5440  176.6030  138.6920 C   0  0  0  0  0  2  0  0  0  0  0  0
  193.8870  175.3250  137.0910 C   0  0  0  0  0  2  0  0  0  0  0  0
  192.7790  176.2910  137.2270 C   0  0  2  0  0  3  0  0  0  0  0  0
  194.0770  176.7010  136.8750 O   0  0  0  0  0  0  0  0  0  0  0  0
  1 18  1  6  0  0  0
  1  6  1  0  0  0  0
  2  5  1  6  0  0  0
  2  4  1  0  0  0  0
  4  7  1  1  0  0  0
  6  3  1  1  0  0  0
  6  2  1  0  0  0  0
  6  4  1  0  0  0  0
  7  8  1  0  0  0  0
  8  9  1  0  0  0  0
  9 10  1  0  0  0  0
 11 10  1  0  0  0  0
 12 11  1  0  0  0  0
 13 14  1  6  0  0  0
 13  1  1  0  0  0  0
 13 15  1  0  0  0  0
 15 16  1  0  0  0  0
 17 16  1  0  0  0  0
 19 18  1  0  0  0  0
 20 19  1  0  0  0  0
 21 20  1  0  0  0  0
 23 22  2  0  0  0  0
 23 21  1  0  0  0  0
 24 23  1  0  0  0  0
 25 26  1  0  0  0  0
 25 24  1  0  0  0  0
 27 20  1  0  0  0  0
 28 29  1  0  0  0  0
 29 27  1  1  0  0  0
 30 28  1  0  0  0  0
 30 29  1  0  0  0  0
M  END
>  <MODEL>
7

>  <REMARK>
 VINA RESULT:      -5.6      2.656      5.876
  Name = 
  17 active torsions:
  status: ('A' for Active; 'I' for Inactive)
    1  A    between atoms: C_1  and  N_4
    2  A    between atoms: C_1  and  C_22
    3  A    between atoms: C_2  and  C_14
    4  A    between atoms: C_2  and  C_29
    5  A    between atoms: N_4  and  C_5
    6  A    between atoms: N_4  and  C_9
    7  A    between atoms: C_5  and  C_17
    8  A    between atoms: C_9  and  C_12
    9  A    between atoms: C_10  and  O_15
   10  A    between atoms: C_10  and  C_16
   11  A    between atoms: C_11  and  C_24
   12  A    between atoms: C_13  and  N_27
   13  A    between atoms: C_14  and  C_20
   14  A    between atoms: O_15  and  C_25
   15  A    between atoms: C_22  and  C_29
   16  A    between atoms: C_23  and  C_29
   17  A    between atoms: C_24  and  C_25
                            x       y       z     vdW  Elec       q    Type
                         _______ _______ _______ _____ _____    ______ ____

>  <TORSDO>
F 17

$$$$
=
 OpenBabel10272414023D

 30 31  0  0  1  0  0  0  0  0999 V2000
  189.7290  177.6460  142.4350 C   0  0  1  0  0  3  0  0  0  0  0  0
  187.0880  177.7040  142.4330 C   0  0  1  0  0  3  0  0  0  0  0  0
  188.2840  175.6340  143.3540 C   0  0  0  0  0  1  0  0  0  0  0  0
  187.5990  178.1230  143.8050 C   0  0  2  0  0  3  0  0  0  0  0  0
  187.2900  178.8600  141.4670 C   0  0  0  0  0  1  0  0  0  0  0  0
  188.3890  177.1100  142.9750 C   0  0  1  0  0  0  0  0  0  0  0  0
  186.7300  177.5000  144.8910 C   0  0  0  0  0  2  0  0  0  0  0  0
  185.7750  178.5360  145.4620 C   0  0  0  0  0  2  0  0  0  0  0  0
  186.0870  178.7940  146.7980 O   0  0  0  0  0  0  0  0  0  0  0  0
  187.1350  177.9180  147.0910 C   0  0  0  0  0  2  0  0  0  0  0  0
  187.8990  178.4100  148.3080 C   0  0  0  0  0  2  0  0  0  0  0  0
  189.3440  177.9540  148.2420 C   0  0  0  0  0  1  0  0  0  0  0  0
  190.7360  177.8990  143.5650 C   0  0  1  0  0  3  0  0  0  0  0  0
  190.8910  179.3820  143.8900 C   0  0  0  0  0  1  0  0  0  0  0  0
  190.3550  177.1120  144.8090 C   0  0  0  0  0  2  0  0  0  0  0  0
  191.5070  176.2280  145.2520 C   0  0  0  0  0  2  0  0  0  0  0  0
  191.9790  175.4990  144.1620 O   0  0  0  0  0  1  0  0  0  0  0  0
  190.3090  176.7700  141.3220 C   0  0  0  0  0  2  0  0  0  0  0  0
  191.1650  177.5970  140.3750 C   0  0  0  0  0  2  0  0  0  0  0  0
  190.7960  177.3220  138.9920 N   0  0  0  0  0  0  0  0  0  0  0  0
  189.3380  177.1590  138.8940 C   0  0  0  0  0  2  0  0  0  0  0  0
  188.9750  179.3110  137.9120 O   0  0  0  0  0  0  0  0  0  0  0  0
  188.6820  178.0860  137.9060 C   0  0  0  0  0  0  0  0  0  0  0  0
  187.7520  177.5680  136.9540 N   0  0  0  0  0  2  0  0  0  0  0  0
  187.1210  178.4160  135.9560 C   0  0  0  0  0  2  0  0  0  0  0  0
  186.9900  177.6530  134.6550 C   0  0  0  0  0  1  0  0  0  0  0  0
  191.4720  176.1020  138.5620 C   0  0  0  0  0  2  0  0  0  0  0  0
  193.6320  175.4890  137.5830 C   0  0  0  0  0  2  0  0  0  0  0  0
  192.4950  176.4260  137.4910 C   0  0  2  0  0  3  0  0  0  0  0  0
  193.7040  176.7900  138.1100 O   0  0  0  0  0  0  0  0  0  0  0  0
  1 18  1  6  0  0  0
  1  6  1  0  0  0  0
  1 13  1  0  0  0  0
  2  5  1  6  0  0  0
  2  6  1  0  0  0  0
  2  4  1  0  0  0  0
  4  7  1  1  0  0  0
  6  3  1  1  0  0  0
  6  4  1  0  0  0  0
  7  8  1  0  0  0  0
  8  9  1  0  0  0  0
  9 10  1  0  0  0  0
 10 11  1  0  0  0  0
 12 11  1  0  0  0  0
 13 14  1  1  0  0  0
 13 15  1  0  0  0  0
 15 16  1  0  0  0  0
 17 16  1  0  0  0  0
 19 18  1  0  0  0  0
 20 19  1  0  0  0  0
 21 20  1  0  0  0  0
 23 22  2  0  0  0  0
 23 21  1  0  0  0  0
 24 23  1  0  0  0  0
 25 24  1  0  0  0  0
 26 25  1  0  0  0  0
 27 20  1  0  0  0  0
 28 30  1  0  0  0  0
 29 28  1  0  0  0  0
 29 30  1  0  0  0  0
 29 27  1  1  0  0  0
M  END
>  <MODEL>
8

>  <REMARK>
 VINA RESULT:      -5.5      2.597      5.587
  Name = 
  17 active torsions:
  status: ('A' for Active; 'I' for Inactive)
    1  A    between atoms: C_1  and  N_4
    2  A    between atoms: C_1  and  C_22
    3  A    between atoms: C_2  and  C_14
    4  A    between atoms: C_2  and  C_29
    5  A    between atoms: N_4  and  C_5
    6  A    between atoms: N_4  and  C_9
    7  A    between atoms: C_5  and  C_17
    8  A    between atoms: C_9  and  C_12
    9  A    between atoms: C_10  and  O_15
   10  A    between atoms: C_10  and  C_16
   11  A    between atoms: C_11  and  C_24
   12  A    between atoms: C_13  and  N_27
   13  A    between atoms: C_14  and  C_20
   14  A    between atoms: O_15  and  C_25
   15  A    between atoms: C_22  and  C_29
   16  A    between atoms: C_23  and  C_29
   17  A    between atoms: C_24  and  C_25
                            x       y       z     vdW  Elec       q    Type
                         _______ _______ _______ _____ _____    ______ ____

>  <TORSDO>
F 17

$$$$
=
 OpenBabel10272414023D

 30 31  0  0  1  0  0  0  0  0999 V2000
  190.2630  177.5650  142.2910 C   0  0  1  0  0  3  0  0  0  0  0  0
  187.6580  177.5860  142.7280 C   0  0  1  0  0  3  0  0  0  0  0  0
  189.0050  175.4970  143.3490 C   0  0  0  0  0  1  0  0  0  0  0  0
  188.3860  177.9550  144.0130 C   0  0  2  0  0  3  0  0  0  0  0  0
  187.6880  178.7840  141.7920 C   0  0  0  0  0  1  0  0  0  0  0  0
  189.0350  176.9880  143.0220 C   0  0  1  0  0  0  0  0  0  0  0  0
  187.7130  177.2750  145.2000 C   0  0  0  0  0  2  0  0  0  0  0  0
  186.2020  177.4200  145.1050 C   0  0  0  0  0  2  0  0  0  0  0  0
  185.8360  178.7570  145.2680 O   0  0  0  0  0  0  0  0  0  0  0  0
  184.4980  178.8080  144.8700 C   0  0  0  0  0  2  0  0  0  0  0  0
  184.3770  179.5420  143.5470 C   0  0  0  0  0  2  0  0  0  0  0  0
  183.9890  178.5780  142.4430 C   0  0  0  0  0  1  0  0  0  0  0  0
  191.4150  177.8580  143.2610 C   0  0  1  0  0  3  0  0  0  0  0  0
  191.2280  179.1720  144.0130 C   0  0  0  0  0  1  0  0  0  0  0  0
  191.6040  176.7030  144.2330 C   0  0  0  0  0  2  0  0  0  0  0  0
  191.4780  177.1880  145.6660 C   0  0  0  0  0  2  0  0  0  0  0  0
  192.1810  176.3310  146.5090 O   0  0  0  0  0  1  0  0  0  0  0  0
  190.7030  176.7040  141.1050 C   0  0  0  0  0  2  0  0  0  0  0  0
  190.6460  177.4980  139.8100 C   0  0  0  0  0  2  0  0  0  0  0  0
  190.2250  176.6390  138.7090 N   0  0  0  0  0  0  0  0  0  0  0  0
  191.3460  175.7810  138.2980 C   0  0  0  0  0  2  0  0  0  0  0  0
  191.7760  174.5350  136.3010 O   0  0  0  0  0  0  0  0  0  0  0  0
  190.9850  174.7570  137.2560 C   0  0  0  0  0  0  0  0  0  0  0  0
  189.7620  174.0290  137.3690 N   0  0  0  0  0  2  0  0  0  0  0  0
  189.3870  173.0030  136.4090 C   0  0  0  0  0  2  0  0  0  0  0  0
  188.0310  172.4400  136.7740 C   0  0  0  0  0  1  0  0  0  0  0  0
  189.7980  177.4820  137.5970 C   0  0  0  0  0  2  0  0  0  0  0  0
  187.8380  178.7880  136.9220 C   0  0  0  0  0  2  0  0  0  0  0  0
  188.7120  178.4370  138.0580 C   0  0  2  0  0  3  0  0  0  0  0  0
  188.8520  179.6540  137.3680 O   0  0  0  0  0  0  0  0  0  0  0  0
  1 18  1  6  0  0  0
  1  6  1  0  0  0  0
  1 13  1  0  0  0  0
  2  5  1  6  0  0  0
  2  6  1  0  0  0  0
  2  4  1  0  0  0  0
  4  7  1  1  0  0  0
  6  3  1  1  0  0  0
  6  4  1  0  0  0  0
  8  7  1  0  0  0  0
  8  9  1  0  0  0  0
 10  9  1  0  0  0  0
 11 10  1  0  0  0  0
 12 11  1  0  0  0  0
 13 14  1  1  0  0  0
 13 15  1  0  0  0  0
 15 16  1  0  0  0  0
 16 17  1  0  0  0  0
 19 18  1  0  0  0  0
 20 19  1  0  0  0  0
 21 20  1  0  0  0  0
 22 23  2  0  0  0  0
 23 24  1  0  0  0  0
 23 21  1  0  0  0  0
 25 26  1  0  0  0  0
 25 24  1  0  0  0  0
 27 20  1  0  0  0  0
 28 30  1  0  0  0  0
 28 29  1  0  0  0  0
 29 27  1  6  0  0  0
 30 29  1  0  0  0  0
M  END
>  <MODEL>
9

>  <REMARK>
 VINA RESULT:      -5.4      2.887      5.971
  Name = 
  17 active torsions:
  status: ('A' for Active; 'I' for Inactive)
    1  A    between atoms: C_1  and  N_4
    2  A    between atoms: C_1  and  C_22
    3  A    between atoms: C_2  and  C_14
    4  A    between atoms: C_2  and  C_29
    5  A    between atoms: N_4  and  C_5
    6  A    between atoms: N_4  and  C_9
    7  A    between atoms: C_5  and  C_17
    8  A    between atoms: C_9  and  C_12
    9  A    between atoms: C_10  and  O_15
   10  A    between atoms: C_10  and  C_16
   11  A    between atoms: C_11  and  C_24
   12  A    between atoms: C_13  and  N_27
   13  A    between atoms: C_14  and  C_20
   14  A    between atoms: O_15  and  C_25
   15  A    between atoms: C_22  and  C_29
   16  A    between atoms: C_23  and  C_29
   17  A    between atoms: C_24  and  C_25
                            x       y       z     vdW  Elec       q    Type
                         _______ _______ _______ _____ _____    ______ ____

>  <TORSDO>
F 17

$$$$
