=
 OpenBabel10272400413D

 25 27  0  0  1  0  0  0  0  0999 V2000
  188.9520  177.5520  145.2720 C   0  0  0  0  0  0  0  0  0  0  0  0
  187.5710  177.8590  145.1990 C   0  0  0  0  0  0  0  0  0  0  0  0
  188.8300  177.6600  147.7010 C   0  0  0  0  0  3  0  0  0  0  0  0
  187.4720  177.9620  147.6330 C   0  0  0  0  0  3  0  0  0  0  0  0
  185.4580  178.3570  146.3280 C   0  0  0  0  0  0  0  0  0  0  0  0
  184.7170  178.5630  147.4870 O   0  0  0  0  0  1  0  0  0  0  0  0
  186.9050  177.9400  143.9670 C   0  0  0  0  0  3  0  0  0  0  0  0
  189.5630  177.4570  146.5320 C   0  0  0  0  0  3  0  0  0  0  0  0
  184.8210  178.4400  145.0880 C   0  0  0  0  0  3  0  0  0  0  0  0
  185.5420  178.2370  143.9090 C   0  0  0  0  0  0  0  0  0  0  0  0
  186.8310  178.0630  146.3940 C   0  0  0  0  0  0  0  0  0  0  0  0
  189.7890  177.3540  144.0620 C   0  0  0  0  0  0  0  0  0  0  0  0
  191.3080  176.9730  141.7600 C   0  0  0  0  0  3  0  0  0  0  0  0
  190.6650  178.3520  143.5870 C   0  0  0  0  0  0  0  0  0  0  0  0
  191.3970  178.1340  142.4610 N   0  0  0  0  0  0  0  0  0  0  0  0
  190.4520  175.9600  142.1900 C   0  0  0  0  0  3  0  0  0  0  0  0
  190.8260  179.5810  144.2900 N   0  0  0  0  0  1  0  0  0  0  0  0
  189.6920  176.1560  143.3420 C   0  0  0  0  0  3  0  0  0  0  0  0
  184.8500  178.3040  142.5920 C   0  0  0  0  0  2  0  0  0  0  0  0
  185.5920  179.2470  141.6610 C   0  0  0  0  0  2  0  0  0  0  0  0
  185.4490  178.7850  140.2200 C   0  0  1  0  0  3  0  0  0  0  0  0
  184.7870  179.7630  139.4720 O   0  0  0  0  0  1  0  0  0  0  0  0
  186.8030  178.4870  139.6400 C   0  0  0  0  0  0  0  0  0  0  0  0
  188.0030  178.3090  140.5120 C   0  0  0  0  0  1  0  0  0  0  0  0
  186.9310  178.4010  138.4310 O   0  0  0  0  0  0  0  0  0  0  0  0
  1  8  1  0  0  0  0
  2  1  2  0  0  0  0
  2 11  1  0  0  0  0
  4  3  1  0  0  0  0
  5 11  1  0  0  0  0
  5  6  1  0  0  0  0
  7  2  1  0  0  0  0
  8  3  2  0  0  0  0
  9  5  2  0  0  0  0
 10  7  2  0  0  0  0
 10  9  1  0  0  0  0
 11  4  2  0  0  0  0
 12  1  1  0  0  0  0
 13 16  2  0  0  0  0
 13 15  1  0  0  0  0
 14 12  1  0  0  0  0
 14 17  1  0  0  0  0
 15 14  2  0  0  0  0
 16 18  1  0  0  0  0
 18 12  2  0  0  0  0
 19 10  1  0  0  0  0
 20 19  1  0  0  0  0
 21 22  1  6  0  0  0
 21 20  1  0  0  0  0
 23 21  1  0  0  0  0
 23 24  1  0  0  0  0
 25 23  2  0  0  0  0
M  END
>  <MODEL>
1

>  <REMARK>
 VINA RESULT:      -9.4      0.000      0.000
  Name = 
  5 active torsions:
  status: ('A' for Active; 'I' for Inactive)
    1  A    between atoms: C_1  and  C_5
    2  A    between atoms: C_2  and  C_21
    3  A    between atoms: C_6  and  C_15
    4  A    between atoms: C_6  and  C_23
    5  A    between atoms: C_15  and  C_21
                            x       y       z     vdW  Elec       q    Type
                         _______ _______ _______ _____ _____    ______ ____

>  <TORSDO>
F 5

$$$$
=
 OpenBabel10272400413D

 25 27  0  0  1  0  0  0  0  0999 V2000
  187.5930  177.7830  145.9070 C   0  0  0  0  0  0  0  0  0  0  0  0
  188.9210  177.5560  145.4670 C   0  0  0  0  0  0  0  0  0  0  0  0
  188.2650  177.2110  148.1760 C   0  0  0  0  0  3  0  0  0  0  0  0
  189.5710  176.9870  147.7470 C   0  0  0  0  0  3  0  0  0  0  0  0
  191.2350  176.9410  145.9730 C   0  0  0  0  0  0  0  0  0  0  0  0
  192.2190  176.5460  146.8720 O   0  0  0  0  0  1  0  0  0  0  0  0
  189.2890  177.7460  144.1260 C   0  0  0  0  0  3  0  0  0  0  0  0
  187.2860  177.6050  147.2640 C   0  0  0  0  0  3  0  0  0  0  0  0
  191.5720  177.1280  144.6310 C   0  0  0  0  0  3  0  0  0  0  0  0
  190.6020  177.5250  143.7080 C   0  0  0  0  0  0  0  0  0  0  0  0
  189.9130  177.1570  146.4010 C   0  0  0  0  0  0  0  0  0  0  0  0
  186.5040  178.1760  144.9790 C   0  0  0  0  0  0  0  0  0  0  0  0
  184.4460  178.8550  143.2300 C   0  0  0  0  0  3  0  0  0  0  0  0
  185.4370  179.0050  145.3870 C   0  0  0  0  0  0  0  0  0  0  0  0
  184.4480  179.3210  144.5070 N   0  0  0  0  0  0  0  0  0  0  0  0
  185.4780  178.0310  142.7840 C   0  0  0  0  0  3  0  0  0  0  0  0
  185.3930  179.5480  146.7030 N   0  0  0  0  0  1  0  0  0  0  0  0
  186.5050  177.6920  143.6650 C   0  0  0  0  0  3  0  0  0  0  0  0
  190.9760  177.7450  142.2830 C   0  0  0  0  0  2  0  0  0  0  0  0
  190.1790  176.8140  141.3850 C   0  0  0  0  0  2  0  0  0  0  0  0
  190.4420  177.1390  139.9240 C   0  0  1  0  0  3  0  0  0  0  0  0
  190.5780  175.9560  139.1920 O   0  0  0  0  0  1  0  0  0  0  0  0
  189.3270  177.9860  139.3790 C   0  0  0  0  0  0  0  0  0  0  0  0
  188.1030  178.2780  140.1850 C   0  0  0  0  0  1  0  0  0  0  0  0
  189.4130  178.4360  138.2490 O   0  0  0  0  0  0  0  0  0  0  0  0
  1  8  1  0  0  0  0
  2  1  2  0  0  0  0
  2 11  1  0  0  0  0
  4  3  1  0  0  0  0
  5 11  1  0  0  0  0
  5  6  1  0  0  0  0
  7  2  1  0  0  0  0
  8  3  2  0  0  0  0
  9  5  2  0  0  0  0
 10  7  2  0  0  0  0
 10  9  1  0  0  0  0
 11  4  2  0  0  0  0
 12 14  1  0  0  0  0
 12  1  1  0  0  0  0
 13 15  1  0  0  0  0
 14 17  1  0  0  0  0
 15 14  2  0  0  0  0
 16 13  2  0  0  0  0
 16 18  1  0  0  0  0
 18 12  2  0  0  0  0
 19 10  1  0  0  0  0
 20 19  1  0  0  0  0
 21 22  1  6  0  0  0
 21 20  1  0  0  0  0
 23 21  1  0  0  0  0
 23 24  1  0  0  0  0
 25 23  2  0  0  0  0
M  END
>  <MODEL>
2

>  <REMARK>
 VINA RESULT:      -8.7      2.872      4.830
  Name = 
  5 active torsions:
  status: ('A' for Active; 'I' for Inactive)
    1  A    between atoms: C_1  and  C_5
    2  A    between atoms: C_2  and  C_21
    3  A    between atoms: C_6  and  C_15
    4  A    between atoms: C_6  and  C_23
    5  A    between atoms: C_15  and  C_21
                            x       y       z     vdW  Elec       q    Type
                         _______ _______ _______ _____ _____    ______ ____

>  <TORSDO>
F 5

$$$$
=
 OpenBabel10272400413D

 25 27  0  0  1  0  0  0  0  0999 V2000
  188.3380  177.5720  143.7960 C   0  0  0  0  0  0  0  0  0  0  0  0
  187.0100  177.9400  144.1280 C   0  0  0  0  0  0  0  0  0  0  0  0
  188.8790  177.4460  146.1660 C   0  0  0  0  0  3  0  0  0  0  0  0
  187.5750  177.8080  146.4970 C   0  0  0  0  0  3  0  0  0  0  0  0
  185.3140  178.4090  145.8280 C   0  0  0  0  0  0  0  0  0  0  0  0
  184.9260  178.5300  147.1580 O   0  0  0  0  0  1  0  0  0  0  0  0
  186.0450  178.1670  143.1350 C   0  0  0  0  0  3  0  0  0  0  0  0
  189.2560  177.3300  144.8280 C   0  0  0  0  0  3  0  0  0  0  0  0
  184.3760  178.6380  144.8200 C   0  0  0  0  0  3  0  0  0  0  0  0
  184.7390  178.5220  143.4770 C   0  0  0  0  0  0  0  0  0  0  0  0
  186.6330  178.0550  145.4920 C   0  0  0  0  0  0  0  0  0  0  0  0
  188.8040  177.4590  142.3910 C   0  0  0  0  0  0  0  0  0  0  0  0
  189.7030  177.3050  139.7600 C   0  0  0  0  0  3  0  0  0  0  0  0
  189.7040  176.4530  141.9800 C   0  0  0  0  0  0  0  0  0  0  0  0
  190.1220  176.4020  140.6870 N   0  0  0  0  0  0  0  0  0  0  0  0
  188.8160  178.3180  140.1210 C   0  0  0  0  0  3  0  0  0  0  0  0
  190.1610  175.4610  142.8950 N   0  0  0  0  0  1  0  0  0  0  0  0
  188.3710  178.3920  141.4400 C   0  0  0  0  0  3  0  0  0  0  0  0
  183.7250  178.7450  142.4090 C   0  0  0  0  0  2  0  0  0  0  0  0
  183.9650  177.7880  141.2540 C   0  0  0  0  0  2  0  0  0  0  0  0
  183.3390  178.3330  139.9810 C   0  0  1  0  0  3  0  0  0  0  0  0
  182.2640  179.1680  140.3010 O   0  0  0  0  0  1  0  0  0  0  0  0
  184.3720  179.0680  139.1750 C   0  0  0  0  0  0  0  0  0  0  0  0
  185.4470  178.3410  138.4350 C   0  0  0  0  0  1  0  0  0  0  0  0
  184.3440  180.2870  139.1330 O   0  0  0  0  0  0  0  0  0  0  0  0
  1  2  2  0  0  0  0
  1  8  1  0  0  0  0
  2 11  1  0  0  0  0
  3  4  1  0  0  0  0
  5  6  1  0  0  0  0
  7 10  2  0  0  0  0
  7  2  1  0  0  0  0
  8  3  2  0  0  0  0
  9  5  2  0  0  0  0
 10  9  1  0  0  0  0
 11  5  1  0  0  0  0
 11  4  2  0  0  0  0
 12  1  1  0  0  0  0
 13 16  2  0  0  0  0
 13 15  1  0  0  0  0
 14 12  1  0  0  0  0
 14 17  1  0  0  0  0
 15 14  2  0  0  0  0
 16 18  1  0  0  0  0
 18 12  2  0  0  0  0
 19 10  1  0  0  0  0
 20 19  1  0  0  0  0
 21 22  1  1  0  0  0
 21 20  1  0  0  0  0
 23 21  1  0  0  0  0
 24 23  1  0  0  0  0
 25 23  2  0  0  0  0
M  END
>  <MODEL>
3

>  <REMARK>
 VINA RESULT:      -8.6      1.654      2.271
  Name = 
  5 active torsions:
  status: ('A' for Active; 'I' for Inactive)
    1  A    between atoms: C_1  and  C_5
    2  A    between atoms: C_2  and  C_21
    3  A    between atoms: C_6  and  C_15
    4  A    between atoms: C_6  and  C_23
    5  A    between atoms: C_15  and  C_21
                            x       y       z     vdW  Elec       q    Type
                         _______ _______ _______ _____ _____    ______ ____

>  <TORSDO>
F 5

$$$$
=
 OpenBabel10272400413D

 25 27  0  0  1  0  0  0  0  0999 V2000
  188.1790  177.7870  145.0580 C   0  0  0  0  0  0  0  0  0  0  0  0
  186.9160  178.1790  144.5490 C   0  0  0  0  0  0  0  0  0  0  0  0
  187.2680  177.8400  147.3150 C   0  0  0  0  0  3  0  0  0  0  0  0
  186.0240  178.2260  146.8180 C   0  0  0  0  0  3  0  0  0  0  0  0
  184.5760  178.7740  144.9430 C   0  0  0  0  0  0  0  0  0  0  0  0
  183.5050  178.9950  145.8020 O   0  0  0  0  0  1  0  0  0  0  0  0
  186.6990  178.3310  143.1710 C   0  0  0  0  0  3  0  0  0  0  0  0
  188.3340  177.6240  146.4430 C   0  0  0  0  0  3  0  0  0  0  0  0
  184.3890  178.9270  143.5670 C   0  0  0  0  0  3  0  0  0  0  0  0
  185.4470  178.7100  142.6820 C   0  0  0  0  0  0  0  0  0  0  0  0
  185.8340  178.3960  145.4430 C   0  0  0  0  0  0  0  0  0  0  0  0
  189.3570  177.5690  144.1820 C   0  0  0  0  0  0  0  0  0  0  0  0
  191.6040  177.1600  142.5880 C   0  0  0  0  0  3  0  0  0  0  0  0
  189.4640  176.4440  143.3380 C   0  0  0  0  0  0  0  0  0  0  0  0
  190.5730  176.2740  142.5690 N   0  0  0  0  0  0  0  0  0  0  0  0
  191.5430  178.2860  143.4090 C   0  0  0  0  0  3  0  0  0  0  0  0
  188.4080  175.4910  143.2510 N   0  0  0  0  0  1  0  0  0  0  0  0
  190.4170  178.4850  144.2060 C   0  0  0  0  0  3  0  0  0  0  0  0
  185.2330  178.8520  141.2150 C   0  0  0  0  0  2  0  0  0  0  0  0
  183.7560  178.7220  140.8890 C   0  0  0  0  0  2  0  0  0  0  0  0
  183.5080  179.0620  139.4280 C   0  0  1  0  0  3  0  0  0  0  0  0
  184.3070  180.1450  139.0520 O   0  0  0  0  0  1  0  0  0  0  0  0
  183.7840  177.8620  138.5680 C   0  0  0  0  0  0  0  0  0  0  0  0
  183.1050  176.5540  138.8120 C   0  0  0  0  0  1  0  0  0  0  0  0
  184.5920  177.9500  137.6580 O   0  0  0  0  0  0  0  0  0  0  0  0
  1  8  1  0  0  0  0
  2  1  2  0  0  0  0
  2 11  1  0  0  0  0
  4  3  1  0  0  0  0
  5 11  1  0  0  0  0
  5  6  1  0  0  0  0
  7  2  1  0  0  0  0
  8  3  2  0  0  0  0
  9  5  2  0  0  0  0
 10  7  2  0  0  0  0
 10  9  1  0  0  0  0
 11  4  2  0  0  0  0
 12 18  1  0  0  0  0
 12  1  1  0  0  0  0
 13 16  1  0  0  0  0
 14 12  2  0  0  0  0
 15 13  2  0  0  0  0
 15 14  1  0  0  0  0
 16 18  2  0  0  0  0
 17 14  1  0  0  0  0
 19 10  1  0  0  0  0
 20 19  1  0  0  0  0
 21 22  1  6  0  0  0
 21 20  1  0  0  0  0
 23 24  1  0  0  0  0
 23 21  1  0  0  0  0
 25 23  2  0  0  0  0
M  END
>  <MODEL>
4

>  <REMARK>
 VINA RESULT:      -8.5      1.657      2.286
  Name = 
  5 active torsions:
  status: ('A' for Active; 'I' for Inactive)
    1  A    between atoms: C_1  and  C_5
    2  A    between atoms: C_2  and  C_21
    3  A    between atoms: C_6  and  C_15
    4  A    between atoms: C_6  and  C_23
    5  A    between atoms: C_15  and  C_21
                            x       y       z     vdW  Elec       q    Type
                         _______ _______ _______ _____ _____    ______ ____

>  <TORSDO>
F 5

$$$$
=
 OpenBabel10272400413D

 25 27  0  0  1  0  0  0  0  0999 V2000
  189.5940  177.2720  144.5890 C   0  0  0  0  0  0  0  0  0  0  0  0
  188.4860  177.6110  145.4040 C   0  0  0  0  0  0  0  0  0  0  0  0
  190.9430  176.9420  146.5880 C   0  0  0  0  0  3  0  0  0  0  0  0
  189.8550  177.2750  147.3930 C   0  0  0  0  0  3  0  0  0  0  0  0
  187.5250  177.9320  147.6310 C   0  0  0  0  0  0  0  0  0  0  0  0
  187.6420  177.9380  149.0170 O   0  0  0  0  0  1  0  0  0  0  0  0
  187.2370  177.9240  144.8450 C   0  0  0  0  0  3  0  0  0  0  0  0
  190.8130  176.9410  145.2000 C   0  0  0  0  0  3  0  0  0  0  0  0
  186.2960  178.2490  147.0490 C   0  0  0  0  0  3  0  0  0  0  0  0
  186.1510  178.2490  145.6600 C   0  0  0  0  0  0  0  0  0  0  0  0
  188.6240  177.6080  146.8170 C   0  0  0  0  0  0  0  0  0  0  0  0
  189.5240  177.2810  143.1060 C   0  0  0  0  0  0  0  0  0  0  0  0
  189.4260  177.3500  140.3240 C   0  0  0  0  0  3  0  0  0  0  0  0
  190.0310  176.2200  142.3270 C   0  0  0  0  0  0  0  0  0  0  0  0
  189.9650  176.2820  140.9700 N   0  0  0  0  0  0  0  0  0  0  0  0
  188.9150  178.4230  141.0530 C   0  0  0  0  0  3  0  0  0  0  0  0
  190.5850  175.0600  142.9410 N   0  0  0  0  0  1  0  0  0  0  0  0
  188.9690  178.3850  142.4460 C   0  0  0  0  0  3  0  0  0  0  0  0
  184.8300  178.5650  145.0490 C   0  0  0  0  0  2  0  0  0  0  0  0
  185.0260  179.1900  143.6790 C   0  0  0  0  0  2  0  0  0  0  0  0
  184.1510  178.4920  142.6510 C   0  0  1  0  0  3  0  0  0  0  0  0
  182.8070  178.7920  142.8910 O   0  0  0  0  0  1  0  0  0  0  0  0
  184.5580  178.9040  141.2650 C   0  0  0  0  0  0  0  0  0  0  0  0
  183.7550  178.5120  140.0680 C   0  0  0  0  0  1  0  0  0  0  0  0
  185.5730  179.5610  141.1090 O   0  0  0  0  0  0  0  0  0  0  0  0
  1  8  2  0  0  0  0
  1  2  1  0  0  0  0
  2 11  1  0  0  0  0
  3  4  2  0  0  0  0
  5  6  1  0  0  0  0
  7  2  2  0  0  0  0
  7 10  1  0  0  0  0
  8  3  1  0  0  0  0
  9  5  1  0  0  0  0
 10  9  2  0  0  0  0
 11  4  1  0  0  0  0
 11  5  2  0  0  0  0
 12  1  1  0  0  0  0
 13 15  2  0  0  0  0
 13 16  1  0  0  0  0
 14 17  1  0  0  0  0
 14 12  2  0  0  0  0
 15 14  1  0  0  0  0
 16 18  2  0  0  0  0
 18 12  1  0  0  0  0
 19 10  1  0  0  0  0
 20 19  1  0  0  0  0
 21 22  1  1  0  0  0
 21 20  1  0  0  0  0
 23 21  1  0  0  0  0
 24 23  1  0  0  0  0
 25 23  2  0  0  0  0
M  END
>  <MODEL>
5

>  <REMARK>
 VINA RESULT:      -8.5      1.781      2.683
  Name = 
  5 active torsions:
  status: ('A' for Active; 'I' for Inactive)
    1  A    between atoms: C_1  and  C_5
    2  A    between atoms: C_2  and  C_21
    3  A    between atoms: C_6  and  C_15
    4  A    between atoms: C_6  and  C_23
    5  A    between atoms: C_15  and  C_21
                            x       y       z     vdW  Elec       q    Type
                         _______ _______ _______ _____ _____    ______ ____

>  <TORSDO>
F 5

$$$$
=
 OpenBabel10272400413D

 25 27  0  0  1  0  0  0  0  0999 V2000
  187.3550  177.7900  145.5230 C   0  0  0  0  0  0  0  0  0  0  0  0
  188.4780  177.4520  144.7280 C   0  0  0  0  0  0  0  0  0  0  0  0
  188.6340  177.2610  147.5250 C   0  0  0  0  0  3  0  0  0  0  0  0
  189.7410  176.9270  146.7460 C   0  0  0  0  0  3  0  0  0  0  0  0
  190.7990  176.6940  144.5690 C   0  0  0  0  0  0  0  0  0  0  0  0
  191.9820  176.2660  145.1610 O   0  0  0  0  0  1  0  0  0  0  0  0
  188.4420  177.5630  143.3290 C   0  0  0  0  0  3  0  0  0  0  0  0
  187.4530  177.6870  146.9180 C   0  0  0  0  0  3  0  0  0  0  0  0
  190.7340  176.8040  143.1780 C   0  0  0  0  0  3  0  0  0  0  0  0
  189.5590  177.2330  142.5580 C   0  0  0  0  0  0  0  0  0  0  0  0
  189.6780  177.0200  145.3520 C   0  0  0  0  0  0  0  0  0  0  0  0
  186.0640  178.2230  144.9330 C   0  0  0  0  0  0  0  0  0  0  0  0
  183.6310  178.9790  143.8080 C   0  0  0  0  0  3  0  0  0  0  0  0
  185.0420  178.8020  145.7140 C   0  0  0  0  0  0  0  0  0  0  0  0
  183.8650  179.1640  145.1350 N   0  0  0  0  0  0  0  0  0  0  0  0
  184.6110  178.4090  142.9980 C   0  0  0  0  0  3  0  0  0  0  0  0
  185.2320  179.0480  147.1050 N   0  0  0  0  0  1  0  0  0  0  0  0
  185.8270  178.0300  143.5660 C   0  0  0  0  0  3  0  0  0  0  0  0
  189.5050  177.3700  141.0760 C   0  0  0  0  0  2  0  0  0  0  0  0
  188.4130  178.3490  140.6810 C   0  0  0  0  0  2  0  0  0  0  0  0
  187.7790  177.9280  139.3650 C   0  0  1  0  0  3  0  0  0  0  0  0
  186.4850  178.4490  139.2750 O   0  0  0  0  0  1  0  0  0  0  0  0
  188.6290  178.3890  138.2160 C   0  0  0  0  0  0  0  0  0  0  0  0
  189.0390  177.4550  137.1250 C   0  0  0  0  0  1  0  0  0  0  0  0
  189.0070  179.5480  138.1770 O   0  0  0  0  0  0  0  0  0  0  0  0
  1  8  1  0  0  0  0
  2 11  1  0  0  0  0
  2  1  2  0  0  0  0
  4  3  1  0  0  0  0
  5  6  1  0  0  0  0
  5 11  1  0  0  0  0
  7  2  1  0  0  0  0
  8  3  2  0  0  0  0
  9  5  2  0  0  0  0
 10  9  1  0  0  0  0
 10  7  2  0  0  0  0
 11  4  2  0  0  0  0
 12  1  1  0  0  0  0
 12 14  1  0  0  0  0
 13 15  1  0  0  0  0
 14 17  1  0  0  0  0
 15 14  2  0  0  0  0
 16 18  1  0  0  0  0
 16 13  2  0  0  0  0
 18 12  2  0  0  0  0
 19 10  1  0  0  0  0
 20 19  1  0  0  0  0
 21 22  1  6  0  0  0
 21 20  1  0  0  0  0
 23 21  1  0  0  0  0
 24 23  1  0  0  0  0
 25 23  2  0  0  0  0
M  END
>  <MODEL>
6

>  <REMARK>
 VINA RESULT:      -8.3      2.811      4.648
  Name = 
  5 active torsions:
  status: ('A' for Active; 'I' for Inactive)
    1  A    between atoms: C_1  and  C_5
    2  A    between atoms: C_2  and  C_21
    3  A    between atoms: C_6  and  C_15
    4  A    between atoms: C_6  and  C_23
    5  A    between atoms: C_15  and  C_21
                            x       y       z     vdW  Elec       q    Type
                         _______ _______ _______ _____ _____    ______ ____

>  <TORSDO>
F 5

$$$$
=
 OpenBabel10272400413D

 25 27  0  0  1  0  0  0  0  0999 V2000
  188.9850  177.4870  145.3130 C   0  0  0  0  0  0  0  0  0  0  0  0
  187.6170  177.8490  145.2320 C   0  0  0  0  0  0  0  0  0  0  0  0
  188.8160  177.4580  147.7420 C   0  0  0  0  0  3  0  0  0  0  0  0
  187.4710  177.8150  147.6660 C   0  0  0  0  0  3  0  0  0  0  0  0
  185.5000  178.3590  146.3470 C   0  0  0  0  0  0  0  0  0  0  0  0
  184.7430  178.5250  147.5020 O   0  0  0  0  0  1  0  0  0  0  0  0
  186.9810  178.0260  143.9940 C   0  0  0  0  0  3  0  0  0  0  0  0
  189.5650  177.2970  146.5770 C   0  0  0  0  0  3  0  0  0  0  0  0
  184.8940  178.5380  145.1020 C   0  0  0  0  0  3  0  0  0  0  0  0
  185.6310  178.3760  143.9270 C   0  0  0  0  0  0  0  0  0  0  0  0
  186.8600  178.0110  146.4220 C   0  0  0  0  0  0  0  0  0  0  0  0
  189.8390  177.3280  144.1100 C   0  0  0  0  0  0  0  0  0  0  0  0
  191.3920  177.0210  141.8190 C   0  0  0  0  0  3  0  0  0  0  0  0
  190.7250  178.3380  143.6830 C   0  0  0  0  0  0  0  0  0  0  0  0
  191.4730  178.1570  142.5610 N   0  0  0  0  0  0  0  0  0  0  0  0
  190.5280  175.9960  142.2010 C   0  0  0  0  0  3  0  0  0  0  0  0
  190.8780  179.5430  144.4300 N   0  0  0  0  0  1  0  0  0  0  0  0
  189.7510  176.1560  143.3480 C   0  0  0  0  0  3  0  0  0  0  0  0
  184.9710  178.5450  142.6030 C   0  0  0  0  0  2  0  0  0  0  0  0
  183.4770  178.7520  142.7880 C   0  0  0  0  0  2  0  0  0  0  0  0
  182.7760  178.7610  141.4400 C   0  0  1  0  0  3  0  0  0  0  0  0
  183.1460  177.6290  140.7070 O   0  0  0  0  0  1  0  0  0  0  0  0
  181.2880  178.8150  141.6360 C   0  0  0  0  0  0  0  0  0  0  0  0
  180.6830  179.4430  142.8490 C   0  0  0  0  0  1  0  0  0  0  0  0
  180.5540  178.3240  140.7950 O   0  0  0  0  0  0  0  0  0  0  0  0
  1  8  1  0  0  0  0
  2  1  2  0  0  0  0
  2 11  1  0  0  0  0
  4  3  1  0  0  0  0
  5 11  1  0  0  0  0
  5  6  1  0  0  0  0
  7  2  1  0  0  0  0
  8  3  2  0  0  0  0
  9  5  2  0  0  0  0
 10  7  2  0  0  0  0
 10  9  1  0  0  0  0
 11  4  2  0  0  0  0
 12  1  1  0  0  0  0
 13 16  2  0  0  0  0
 13 15  1  0  0  0  0
 14 12  1  0  0  0  0
 14 17  1  0  0  0  0
 15 14  2  0  0  0  0
 16 18  1  0  0  0  0
 18 12  2  0  0  0  0
 19 20  1  0  0  0  0
 19 10  1  0  0  0  0
 21 22  1  1  0  0  0
 21 23  1  0  0  0  0
 21 20  1  0  0  0  0
 23 24  1  0  0  0  0
 25 23  2  0  0  0  0
M  END
>  <MODEL>
7

>  <REMARK>
 VINA RESULT:      -8.3      1.690      2.567
  Name = 
  5 active torsions:
  status: ('A' for Active; 'I' for Inactive)
    1  A    between atoms: C_1  and  C_5
    2  A    between atoms: C_2  and  C_21
    3  A    between atoms: C_6  and  C_15
    4  A    between atoms: C_6  and  C_23
    5  A    between atoms: C_15  and  C_21
                            x       y       z     vdW  Elec       q    Type
                         _______ _______ _______ _____ _____    ______ ____

>  <TORSDO>
F 5

$$$$
=
 OpenBabel10272400413D

 25 27  0  0  1  0  0  0  0  0999 V2000
  187.8970  177.8260  144.9320 C   0  0  0  0  0  0  0  0  0  0  0  0
  186.7310  178.1790  144.2070 C   0  0  0  0  0  0  0  0  0  0  0  0
  186.6120  177.8950  146.9980 C   0  0  0  0  0  3  0  0  0  0  0  0
  185.4640  178.2430  146.2890 C   0  0  0  0  0  3  0  0  0  0  0  0
  184.3470  178.7250  144.1830 C   0  0  0  0  0  0  0  0  0  0  0  0
  183.1400  178.9350  144.8420 O   0  0  0  0  0  1  0  0  0  0  0  0
  186.7510  178.3030  142.8090 C   0  0  0  0  0  3  0  0  0  0  0  0
  187.8160  177.6900  146.3260 C   0  0  0  0  0  3  0  0  0  0  0  0
  184.3950  178.8510  142.7930 C   0  0  0  0  0  3  0  0  0  0  0  0
  185.5940  178.6450  142.1060 C   0  0  0  0  0  0  0  0  0  0  0  0
  185.5080  178.3860  144.8980 C   0  0  0  0  0  0  0  0  0  0  0  0
  189.2120  177.6220  144.2750 C   0  0  0  0  0  0  0  0  0  0  0  0
  191.7060  177.2380  143.0970 C   0  0  0  0  0  3  0  0  0  0  0  0
  189.4680  176.5120  143.4430 C   0  0  0  0  0  0  0  0  0  0  0  0
  190.6960  176.3540  142.8790 N   0  0  0  0  0  0  0  0  0  0  0  0
  191.4990  178.3480  143.9140 C   0  0  0  0  0  3  0  0  0  0  0  0
  188.4450  175.5630  143.1510 N   0  0  0  0  0  1  0  0  0  0  0  0
  190.2500  178.5350  144.5040 C   0  0  0  0  0  3  0  0  0  0  0  0
  185.6310  178.7580  140.6220 C   0  0  0  0  0  2  0  0  0  0  0  0
  187.0420  178.5140  140.1160 C   0  0  0  0  0  2  0  0  0  0  0  0
  187.0040  177.9070  138.7230 C   0  0  1  0  0  3  0  0  0  0  0  0
  186.5910  178.8700  137.7980 O   0  0  0  0  0  1  0  0  0  0  0  0
  188.3560  177.3590  138.3650 C   0  0  0  0  0  0  0  0  0  0  0  0
  189.4810  177.3520  139.3480 C   0  0  0  0  0  1  0  0  0  0  0  0
  188.5480  176.9230  137.2420 O   0  0  0  0  0  0  0  0  0  0  0  0
  1  8  1  0  0  0  0
  2 11  1  0  0  0  0
  2  1  2  0  0  0  0
  4  3  1  0  0  0  0
  5  6  1  0  0  0  0
  5 11  1  0  0  0  0
  7  2  1  0  0  0  0
  8  3  2  0  0  0  0
  9  5  2  0  0  0  0
 10  9  1  0  0  0  0
 10  7  2  0  0  0  0
 11  4  2  0  0  0  0
 12 18  1  0  0  0  0
 12  1  1  0  0  0  0
 13 16  1  0  0  0  0
 14 12  2  0  0  0  0
 15 13  2  0  0  0  0
 15 14  1  0  0  0  0
 16 18  2  0  0  0  0
 17 14  1  0  0  0  0
 19 10  1  0  0  0  0
 20 19  1  0  0  0  0
 21 22  1  6  0  0  0
 21 20  1  0  0  0  0
 23 21  1  0  0  0  0
 23 24  1  0  0  0  0
 25 23  2  0  0  0  0
M  END
>  <MODEL>
8

>  <REMARK>
 VINA RESULT:      -8.2      1.527      2.342
  Name = 
  5 active torsions:
  status: ('A' for Active; 'I' for Inactive)
    1  A    between atoms: C_1  and  C_5
    2  A    between atoms: C_2  and  C_21
    3  A    between atoms: C_6  and  C_15
    4  A    between atoms: C_6  and  C_23
    5  A    between atoms: C_15  and  C_21
                            x       y       z     vdW  Elec       q    Type
                         _______ _______ _______ _____ _____    ______ ____

>  <TORSDO>
F 5

$$$$
=
 OpenBabel10272400413D

 25 27  0  0  1  0  0  0  0  0999 V2000
  189.7120  177.5720  141.9440 C   0  0  0  0  0  0  0  0  0  0  0  0
  188.3340  177.8970  142.0220 C   0  0  0  0  0  0  0  0  0  0  0  0
  189.6820  178.0990  139.5670 C   0  0  0  0  0  3  0  0  0  0  0  0
  188.3280  178.4180  139.6410 C   0  0  0  0  0  3  0  0  0  0  0  0
  186.2810  178.6580  140.9320 C   0  0  0  0  0  0  0  0  0  0  0  0
  185.5860  179.0750  139.8020 O   0  0  0  0  0  1  0  0  0  0  0  0
  187.6380  177.8320  143.2390 C   0  0  0  0  0  3  0  0  0  0  0  0
  190.3660  177.6800  140.7070 C   0  0  0  0  0  3  0  0  0  0  0  0
  185.6090  178.5760  142.1540 C   0  0  0  0  0  3  0  0  0  0  0  0
  186.2820  178.1610  143.3040 C   0  0  0  0  0  0  0  0  0  0  0  0
  187.6440  178.3240  140.8580 C   0  0  0  0  0  0  0  0  0  0  0  0
  190.4850  177.0940  143.1160 C   0  0  0  0  0  0  0  0  0  0  0  0
  191.9770  176.1710  145.2790 C   0  0  0  0  0  3  0  0  0  0  0  0
  191.0370  177.9840  144.0610 C   0  0  0  0  0  0  0  0  0  0  0  0
  191.7590  177.5020  145.1090 N   0  0  0  0  0  0  0  0  0  0  0  0
  191.4530  175.2550  144.3680 C   0  0  0  0  0  3  0  0  0  0  0  0
  190.8230  179.3900  143.9570 N   0  0  0  0  0  1  0  0  0  0  0  0
  190.7090  175.7220  143.2860 C   0  0  0  0  0  3  0  0  0  0  0  0
  185.5640  178.1000  144.6080 C   0  0  0  0  0  2  0  0  0  0  0  0
  186.4470  177.4510  145.6600 C   0  0  0  0  0  2  0  0  0  0  0  0
  186.7840  178.4510  146.7530 C   0  0  1  0  0  3  0  0  0  0  0  0
  185.6270  178.7820  147.4650 O   0  0  0  0  0  1  0  0  0  0  0  0
  187.8340  177.8810  147.6640 C   0  0  0  0  0  0  0  0  0  0  0  0
  188.8660  176.9240  147.1620 C   0  0  0  0  0  1  0  0  0  0  0  0
  187.8380  178.1930  148.8430 O   0  0  0  0  0  0  0  0  0  0  0  0
  1  2  1  0  0  0  0
  1 12  1  0  0  0  0
  2  7  1  0  0  0  0
  3  4  2  0  0  0  0
  3  8  1  0  0  0  0
  4 11  1  0  0  0  0
  5  9  2  0  0  0  0
  6  5  1  0  0  0  0
  7 10  2  0  0  0  0
  8  1  2  0  0  0  0
  9 10  1  0  0  0  0
 10 19  1  0  0  0  0
 11  5  1  0  0  0  0
 11  2  2  0  0  0  0
 12 18  2  0  0  0  0
 12 14  1  0  0  0  0
 14 15  2  0  0  0  0
 15 13  1  0  0  0  0
 16 13  2  0  0  0  0
 17 14  1  0  0  0  0
 18 16  1  0  0  0  0
 19 20  1  0  0  0  0
 20 21  1  0  0  0  0
 21 22  1  1  0  0  0
 21 23  1  0  0  0  0
 23 25  2  0  0  0  0
 24 23  1  0  0  0  0
M  END
>  <MODEL>
9

>  <REMARK>
 VINA RESULT:      -8.1      1.486      5.324
  Name = 
  5 active torsions:
  status: ('A' for Active; 'I' for Inactive)
    1  A    between atoms: C_1  and  C_5
    2  A    between atoms: C_2  and  C_21
    3  A    between atoms: C_6  and  C_15
    4  A    between atoms: C_6  and  C_23
    5  A    between atoms: C_15  and  C_21
                            x       y       z     vdW  Elec       q    Type
                         _______ _______ _______ _____ _____    ______ ____

>  <TORSDO>
F 5

$$$$
