=
 OpenBabel10262423553D

 34 39  0  0  1  0  0  0  0  0999 V2000
  185.4410  178.6810  139.8550 C   0  0  1  0  0  3  0  0  0  0  0  0
  186.7740  178.3480  142.0310 C   0  0  0  0  0  0  0  0  0  0  0  0
  187.7760  177.9820  139.7540 C   0  0  0  0  0  0  0  0  0  0  0  0
  190.1930  177.5040  139.4490 C   0  0  0  0  0  0  0  0  0  0  0  0
  184.5580  179.4140  141.9730 N   0  0  0  0  0  0  0  0  0  0  0  0
  185.6140  179.0790  142.6530 C   0  0  0  0  0  3  0  0  0  0  0  0
  189.6110  177.6690  141.5800 C   0  0  0  0  0  3  0  0  0  0  0  0
  186.7210  178.3460  140.5210 C   0  0  0  0  0  0  0  0  0  0  0  0
  191.3210  177.3450  140.2220 C   0  0  0  0  0  3  0  0  0  0  0  0
  184.4300  179.1800  140.5640 C   0  0  0  0  0  3  0  0  0  0  0  0
  187.6180  177.8670  138.3140 N   0  0  0  0  0  0  0  0  0  0  0  0
  185.3090  178.5400  138.4030 C   0  0  0  0  0  3  0  0  0  0  0  0
  186.7700  177.0430  142.4890 F   0  0  0  0  0  0  0  0  0  0  0  0
  190.1010  177.6030  137.9620 C   0  0  0  0  0  2  0  0  0  0  0  0
  188.6750  177.2760  137.4720 C   0  0  1  0  0  3  0  0  0  0  0  0
  190.9370  177.4270  141.5130 N   0  0  0  0  0  0  0  0  0  0  0  0
  189.1290  177.7190  140.2860 C   0  0  0  0  0  0  0  0  0  0  0  0
  186.3580  178.1500  137.6850 C   0  0  0  0  0  3  0  0  0  0  0  0
  187.0320  173.8500  137.1680 C   0  0  0  0  0  0  0  0  0  0  0  0
  188.1520  173.0310  137.0040 C   0  0  0  0  0  3  0  0  0  0  0  0
  188.4750  175.7980  137.3050 C   0  0  0  0  0  0  0  0  0  0  0  0
  189.4330  173.5910  136.9930 C   0  0  0  0  0  3  0  0  0  0  0  0
  187.1920  175.2300  137.3190 C   0  0  0  0  0  3  0  0  0  0  0  0
  189.5940  174.9720  137.1440 C   0  0  0  0  0  3  0  0  0  0  0  0
  185.6700  173.2560  137.1830 C   0  0  0  0  0  1  0  0  0  0  0  0
  191.8300  177.3420  142.6560 C   0  0  0  0  0  2  0  0  0  0  0  0
  191.3310  176.2860  143.6270 C   0  0  0  0  0  2  0  0  0  0  0  0
  189.1660  178.1760  144.7840 F   0  0  0  0  0  0  0  0  0  0  0  0
  191.1560  176.8760  145.0160 C   0  0  1  0  0  3  0  0  0  0  0  0
  189.6670  177.0270  145.3670 C   0  0  1  0  0  3  0  0  0  0  0  0
  190.6330  177.4360  147.5510 O   0  0  0  0  0  0  0  0  0  0  0  0
  191.4590  176.3000  147.4770 C   0  0  0  0  0  2  0  0  0  0  0  0
  191.9050  176.0120  146.0340 C   0  0  0  0  0  2  0  0  0  0  0  0
  189.4450  177.0900  146.8840 C   0  0  0  0  0  2  0  0  0  0  0  0
  1 12  1  6  0  0  0
  1  8  1  0  0  0  0
  1 10  1  0  0  0  0
  2 13  1  0  0  0  0
  2  6  2  0  0  0  0
  3 17  1  0  0  0  0
  3  8  2  0  0  0  0
  4  9  2  0  0  0  0
  4 17  1  0  0  0  0
  5  6  1  0  0  0  0
  8  2  1  0  0  0  0
  9 16  1  0  0  0  0
 10  5  2  0  0  0  0
 11  3  1  0  0  0  0
 14  4  1  0  0  0  0
 15 21  1  1  0  0  0
 15 14  1  0  0  0  0
 15 11  1  0  0  0  0
 16  7  1  0  0  0  0
 16 26  1  0  0  0  0
 17  7  2  0  0  0  0
 18 11  1  0  0  0  0
 18 12  2  0  0  0  0
 19 25  1  0  0  0  0
 19 23  1  0  0  0  0
 20 19  2  0  0  0  0
 21 23  2  0  0  0  0
 22 20  1  0  0  0  0
 22 24  2  0  0  0  0
 24 21  1  0  0  0  0
 26 27  1  0  0  0  0
 29 27  1  6  0  0  0
 29 30  1  0  0  0  0
 29 33  1  0  0  0  0
 30 28  1  6  0  0  0
 30 34  1  0  0  0  0
 32 31  1  0  0  0  0
 33 32  1  0  0  0  0
 34 31  1  0  0  0  0
M  END
>  <MODEL>
1

>  <REMARK>
 VINA RESULT:      -9.2      0.000      0.000
  Name = 
  4 active torsions:
  status: ('A' for Active; 'I' for Inactive)
    1  A    between atoms: C_3  and  C_13
    2  A    between atoms: C_3  and  C_17
    3  A    between atoms: C_12  and  C_28
    4  A    between atoms: C_17  and  N_29
                            x       y       z     vdW  Elec       q    Type
                         _______ _______ _______ _____ _____    ______ ____

>  <TORSDO>
F 4

$$$$
=
 OpenBabel10262423553D

 34 39  0  0  1  0  0  0  0  0999 V2000
  185.0070  178.7040  141.1940 C   0  0  1  0  0  3  0  0  0  0  0  0
  186.6560  177.9820  143.0340 C   0  0  0  0  0  0  0  0  0  0  0  0
  187.3210  178.1900  140.6170 C   0  0  0  0  0  0  0  0  0  0  0  0
  189.6790  177.9400  139.8830 C   0  0  0  0  0  0  0  0  0  0  0  0
  184.4260  178.8970  143.5240 N   0  0  0  0  0  0  0  0  0  0  0  0
  185.5800  178.4850  143.9580 C   0  0  0  0  0  3  0  0  0  0  0  0
  189.4140  177.5950  142.0540 C   0  0  0  0  0  3  0  0  0  0  0  0
  186.3810  178.3100  141.5840 C   0  0  0  0  0  0  0  0  0  0  0  0
  190.9130  177.6840  140.4360 C   0  0  0  0  0  3  0  0  0  0  0  0
  184.0980  178.9710  142.1300 C   0  0  0  0  0  3  0  0  0  0  0  0
  186.9560  178.3860  139.2240 N   0  0  0  0  0  0  0  0  0  0  0  0
  184.6670  178.8790  139.7810 C   0  0  0  0  0  3  0  0  0  0  0  0
  186.7580  176.6110  143.1790 F   0  0  0  0  0  0  0  0  0  0  0  0
  189.3660  178.3580  138.4830 C   0  0  0  0  0  2  0  0  0  0  0  0
  187.8940  178.0600  138.1330 C   0  0  1  0  0  3  0  0  0  0  0  0
  190.7210  177.4550  141.7520 N   0  0  0  0  0  0  0  0  0  0  0  0
  188.7450  177.8990  140.8850 C   0  0  0  0  0  0  0  0  0  0  0  0
  185.6090  178.7210  138.8550 C   0  0  0  0  0  3  0  0  0  0  0  0
  188.6170  174.4780  137.0520 C   0  0  0  0  0  0  0  0  0  0  0  0
  187.3270  174.0180  136.7710 C   0  0  0  0  0  3  0  0  0  0  0  0
  187.7130  176.6460  137.6640 C   0  0  0  0  0  0  0  0  0  0  0  0
  186.2310  174.8700  136.9330 C   0  0  0  0  0  3  0  0  0  0  0  0
  188.8110  175.7880  137.4960 C   0  0  0  0  0  3  0  0  0  0  0  0
  186.4240  176.1810  137.3780 C   0  0  0  0  0  3  0  0  0  0  0  0
  189.7840  173.5740  136.8780 C   0  0  0  0  0  1  0  0  0  0  0  0
  191.7760  177.1760  142.7120 C   0  0  0  0  0  2  0  0  0  0  0  0
  191.2990  176.1460  143.7220 C   0  0  0  0  0  2  0  0  0  0  0  0
  189.9290  178.4090  145.3360 F   0  0  0  0  0  0  0  0  0  0  0  0
  191.5250  176.6430  145.1400 C   0  0  1  0  0  3  0  0  0  0  0  0
  190.2090  177.1270  145.7720 C   0  0  1  0  0  3  0  0  0  0  0  0
  191.6110  177.1000  147.7470 O   0  0  0  0  0  0  0  0  0  0  0  0
  192.0900  175.8060  147.4770 C   0  0  0  0  0  2  0  0  0  0  0  0
  192.1900  175.5380  145.9660 C   0  0  0  0  0  2  0  0  0  0  0  0
  190.2770  177.1150  147.3050 C   0  0  0  0  0  2  0  0  0  0  0  0
  1 12  1  6  0  0  0
  1  8  1  0  0  0  0
  1 10  1  0  0  0  0
  2 13  1  0  0  0  0
  2  6  2  0  0  0  0
  3 17  1  0  0  0  0
  3  8  2  0  0  0  0
  4  9  2  0  0  0  0
  4 17  1  0  0  0  0
  5  6  1  0  0  0  0
  8  2  1  0  0  0  0
  9 16  1  0  0  0  0
 10  5  2  0  0  0  0
 11  3  1  0  0  0  0
 14  4  1  0  0  0  0
 15 21  1  1  0  0  0
 15 14  1  0  0  0  0
 15 11  1  0  0  0  0
 16  7  1  0  0  0  0
 16 26  1  0  0  0  0
 17  7  2  0  0  0  0
 18 11  1  0  0  0  0
 18 12  2  0  0  0  0
 19 23  1  0  0  0  0
 20 22  1  0  0  0  0
 20 19  2  0  0  0  0
 22 24  2  0  0  0  0
 23 21  2  0  0  0  0
 24 21  1  0  0  0  0
 25 19  1  0  0  0  0
 26 27  1  0  0  0  0
 29 27  1  6  0  0  0
 29 30  1  0  0  0  0
 29 33  1  0  0  0  0
 30 28  1  6  0  0  0
 30 34  1  0  0  0  0
 32 31  1  0  0  0  0
 33 32  1  0  0  0  0
 34 31  1  0  0  0  0
M  END
>  <MODEL>
2

>  <REMARK>
 VINA RESULT:      -9.1      0.932      1.522
  Name = 
  4 active torsions:
  status: ('A' for Active; 'I' for Inactive)
    1  A    between atoms: C_3  and  C_13
    2  A    between atoms: C_3  and  C_17
    3  A    between atoms: C_12  and  C_28
    4  A    between atoms: C_17  and  N_29
                            x       y       z     vdW  Elec       q    Type
                         _______ _______ _______ _____ _____    ______ ____

>  <TORSDO>
F 4

$$$$
=
 OpenBabel10262423553D

 34 39  0  0  1  0  0  0  0  0999 V2000
  183.4880  178.8040  144.3510 C   0  0  0  0  0  0  0  0  0  0  0  0
  185.9760  178.1710  144.1750 C   0  0  2  0  0  3  0  0  0  0  0  0
  184.5570  178.6800  142.1610 C   0  0  0  0  0  0  0  0  0  0  0  0
  185.5280  178.8360  139.8830 C   0  0  0  0  0  0  0  0  0  0  0  0
  184.8830  178.7100  146.3120 N   0  0  0  0  0  0  0  0  0  0  0  0
  185.9720  178.4330  145.6570 C   0  0  0  0  0  3  0  0  0  0  0  0
  187.0230  178.2710  141.4160 C   0  0  0  0  0  3  0  0  0  0  0  0
  184.6840  178.5800  143.5060 C   0  0  0  0  0  0  0  0  0  0  0  0
  186.7550  178.7130  139.2700 C   0  0  0  0  0  3  0  0  0  0  0  0
  183.6060  178.8560  145.6760 C   0  0  0  0  0  3  0  0  0  0  0  0
  183.2540  178.9400  141.5750 N   0  0  0  0  0  0  0  0  0  0  0  0
  182.1850  179.0490  143.7280 C   0  0  0  0  0  3  0  0  0  0  0  0
  186.1910  176.8210  143.9650 F   0  0  0  0  0  0  0  0  0  0  0  0
  184.2470  179.3240  139.2890 C   0  0  0  0  0  2  0  0  0  0  0  0
  183.0370  178.8480  140.1190 C   0  0  1  0  0  3  0  0  0  0  0  0
  187.6410  178.3470  140.2200 N   0  0  0  0  0  0  0  0  0  0  0  0
  185.6890  178.5750  141.2180 C   0  0  0  0  0  0  0  0  0  0  0  0
  182.0920  179.1090  142.4030 C   0  0  0  0  0  3  0  0  0  0  0  0
  182.9880  175.3680  138.5640 C   0  0  0  0  0  0  0  0  0  0  0  0
  181.7390  174.9050  138.9860 C   0  0  0  0  0  3  0  0  0  0  0  0
  182.6010  177.4680  139.7190 C   0  0  0  0  0  0  0  0  0  0  0  0
  180.9190  175.7210  139.7710 C   0  0  0  0  0  3  0  0  0  0  0  0
  183.4190  176.6470  138.9290 C   0  0  0  0  0  3  0  0  0  0  0  0
  181.3490  177.0010  140.1360 C   0  0  0  0  0  3  0  0  0  0  0  0
  183.8600  174.5030  137.7280 C   0  0  0  0  0  1  0  0  0  0  0  0
  189.0620  178.1410  139.9990 C   0  0  0  0  0  2  0  0  0  0  0  0
  189.4160  176.6810  140.2270 C   0  0  0  0  0  2  0  0  0  0  0  0
  192.2930  177.7150  140.7370 F   0  0  0  0  0  0  0  0  0  0  0  0
  190.3340  176.5360  141.4290 C   0  0  1  0  0  3  0  0  0  0  0  0
  191.2170  177.7830  141.6030 C   0  0  1  0  0  3  0  0  0  0  0  0
  191.6550  176.6890  143.7190 O   0  0  0  0  0  0  0  0  0  0  0  0
  190.2880  176.4770  143.9740 C   0  0  0  0  0  2  0  0  0  0  0  0
  189.4960  176.2430  142.6770 C   0  0  0  0  0  2  0  0  0  0  0  0
  191.7320  177.9180  143.0420 C   0  0  0  0  0  2  0  0  0  0  0  0
  1 10  2  0  0  0  0
  2 13  1  1  0  0  0
  2  6  1  0  0  0  0
  3  8  2  0  0  0  0
  4 17  1  0  0  0  0
  6  5  2  0  0  0  0
  8  2  1  0  0  0  0
  8  1  1  0  0  0  0
  9  4  2  0  0  0  0
  9 16  1  0  0  0  0
 10  5  1  0  0  0  0
 11  3  1  0  0  0  0
 11 18  1  0  0  0  0
 12  1  1  0  0  0  0
 14  4  1  0  0  0  0
 14 15  1  0  0  0  0
 15 21  1  1  0  0  0
 15 11  1  0  0  0  0
 16  7  1  0  0  0  0
 17  7  2  0  0  0  0
 17  3  1  0  0  0  0
 18 12  2  0  0  0  0
 19 23  2  0  0  0  0
 19 20  1  0  0  0  0
 20 22  2  0  0  0  0
 21 24  2  0  0  0  0
 22 24  1  0  0  0  0
 23 21  1  0  0  0  0
 25 19  1  0  0  0  0
 26 16  1  0  0  0  0
 26 27  1  0  0  0  0
 29 27  1  6  0  0  0
 29 30  1  0  0  0  0
 29 33  1  0  0  0  0
 30 28  1  6  0  0  0
 30 34  1  0  0  0  0
 31 32  1  0  0  0  0
 33 32  1  0  0  0  0
 34 31  1  0  0  0  0
M  END
>  <MODEL>
3

>  <REMARK>
 VINA RESULT:      -8.2      2.661      4.992
  Name = 
  4 active torsions:
  status: ('A' for Active; 'I' for Inactive)
    1  A    between atoms: C_3  and  C_13
    2  A    between atoms: C_3  and  C_17
    3  A    between atoms: C_12  and  C_28
    4  A    between atoms: C_17  and  N_29
                            x       y       z     vdW  Elec       q    Type
                         _______ _______ _______ _____ _____    ______ ____

>  <TORSDO>
F 4

$$$$
=
 OpenBabel10262423553D

 34 39  0  0  1  0  0  0  0  0999 V2000
  183.6650  178.7680  144.5570 C   0  0  0  0  0  0  0  0  0  0  0  0
  186.1370  178.1200  144.2480 C   0  0  2  0  0  3  0  0  0  0  0  0
  184.6310  178.6960  142.3170 C   0  0  0  0  0  0  0  0  0  0  0  0
  185.4960  178.9080  140.0010 C   0  0  0  0  0  0  0  0  0  0  0  0
  185.1490  178.6070  146.4470 N   0  0  0  0  0  0  0  0  0  0  0  0
  186.2030  178.3400  145.7350 C   0  0  0  0  0  3  0  0  0  0  0  0
  187.0550  178.2870  141.4470 C   0  0  0  0  0  3  0  0  0  0  0  0
  184.8190  178.5580  143.6510 C   0  0  0  0  0  0  0  0  0  0  0  0
  186.6920  178.7920  139.3300 C   0  0  0  0  0  3  0  0  0  0  0  0
  183.8450  178.7820  145.8770 C   0  0  0  0  0  3  0  0  0  0  0  0
  183.3040  178.9840  141.8000 N   0  0  0  0  0  0  0  0  0  0  0  0
  182.3370  179.0420  144.0030 C   0  0  0  0  0  3  0  0  0  0  0  0
  186.3280  176.7740  143.9910 F   0  0  0  0  0  0  0  0  0  0  0  0
  184.1940  179.4240  139.4820 C   0  0  0  0  0  2  0  0  0  0  0  0
  183.0190  178.9350  140.3540 C   0  0  1  0  0  3  0  0  0  0  0  0
  187.6180  178.3920  140.2260 N   0  0  0  0  0  0  0  0  0  0  0  0
  185.7170  178.6080  141.3200 C   0  0  0  0  0  0  0  0  0  0  0  0
  182.1840  179.1400  142.6860 C   0  0  0  0  0  3  0  0  0  0  0  0
  182.8830  175.4850  138.7410 C   0  0  0  0  0  0  0  0  0  0  0  0
  181.6300  175.0380  139.1720 C   0  0  0  0  0  3  0  0  0  0  0  0
  182.5520  177.5710  139.9370 C   0  0  0  0  0  0  0  0  0  0  0  0
  180.8380  175.8560  139.9830 C   0  0  0  0  0  3  0  0  0  0  0  0
  183.3430  176.7480  139.1210 C   0  0  0  0  0  3  0  0  0  0  0  0
  181.2970  177.1200  140.3630 C   0  0  0  0  0  3  0  0  0  0  0  0
  183.7260  174.6180  137.8780 C   0  0  0  0  0  1  0  0  0  0  0  0
  189.0250  178.1790  139.9330 C   0  0  0  0  0  2  0  0  0  0  0  0
  189.2100  177.8910  138.4530 C   0  0  0  0  0  2  0  0  0  0  0  0
  187.0370  175.8000  137.7390 F   0  0  0  0  0  0  0  0  0  0  0  0
  189.3020  176.3950  138.2080 C   0  0  1  0  0  3  0  0  0  0  0  0
  188.2790  175.9450  137.1510 C   0  0  1  0  0  3  0  0  0  0  0  0
  189.6160  173.9300  137.2920 O   0  0  0  0  0  0  0  0  0  0  0  0
  190.8250  174.6380  137.1710 C   0  0  0  0  0  2  0  0  0  0  0  0
  190.7370  176.0320  137.8140 C   0  0  0  0  0  2  0  0  0  0  0  0
  188.6870  174.6190  136.4940 C   0  0  0  0  0  2  0  0  0  0  0  0
  1 10  2  0  0  0  0
  2 13  1  1  0  0  0
  2  6  1  0  0  0  0
  3  8  2  0  0  0  0
  4 17  1  0  0  0  0
  6  5  2  0  0  0  0
  8  2  1  0  0  0  0
  8  1  1  0  0  0  0
  9  4  2  0  0  0  0
  9 16  1  0  0  0  0
 10  5  1  0  0  0  0
 11  3  1  0  0  0  0
 11 18  1  0  0  0  0
 12  1  1  0  0  0  0
 14  4  1  0  0  0  0
 14 15  1  0  0  0  0
 15 21  1  6  0  0  0
 15 11  1  0  0  0  0
 16  7  1  0  0  0  0
 17  7  2  0  0  0  0
 17  3  1  0  0  0  0
 18 12  2  0  0  0  0
 19 23  2  0  0  0  0
 19 20  1  0  0  0  0
 20 22  2  0  0  0  0
 21 24  2  0  0  0  0
 22 24  1  0  0  0  0
 23 21  1  0  0  0  0
 25 19  1  0  0  0  0
 26 16  1  0  0  0  0
 27 26  1  0  0  0  0
 29 27  1  6  0  0  0
 30 28  1  1  0  0  0
 30 29  1  0  0  0  0
 32 31  1  0  0  0  0
 32 33  1  0  0  0  0
 33 29  1  0  0  0  0
 34 30  1  0  0  0  0
 34 31  1  0  0  0  0
M  END
>  <MODEL>
4

>  <REMARK>
 VINA RESULT:      -7.7      3.258      6.335
  Name = 
  4 active torsions:
  status: ('A' for Active; 'I' for Inactive)
    1  A    between atoms: C_3  and  C_13
    2  A    between atoms: C_3  and  C_17
    3  A    between atoms: C_12  and  C_28
    4  A    between atoms: C_17  and  N_29
                            x       y       z     vdW  Elec       q    Type
                         _______ _______ _______ _____ _____    ______ ____

>  <TORSDO>
F 4

$$$$
=
 OpenBabel10262423553D

 34 39  0  0  1  0  0  0  0  0999 V2000
  184.0950  178.7930  144.3370 C   0  0  1  0  0  3  0  0  0  0  0  0
  186.3660  177.6220  144.6470 C   0  0  0  0  0  0  0  0  0  0  0  0
  185.5490  178.4340  142.4110 C   0  0  0  0  0  0  0  0  0  0  0  0
  186.9880  178.3700  140.3900 C   0  0  0  0  0  0  0  0  0  0  0  0
  184.9910  178.3910  146.5360 N   0  0  0  0  0  0  0  0  0  0  0  0
  186.1060  177.8780  146.1070 C   0  0  0  0  0  3  0  0  0  0  0  0
  187.9660  177.4850  142.1700 C   0  0  0  0  0  3  0  0  0  0  0  0
  185.3640  178.3080  143.7460 C   0  0  0  0  0  0  0  0  0  0  0  0
  188.2590  177.9760  140.0380 C   0  0  0  0  0  3  0  0  0  0  0  0
  183.9400  178.8180  145.6600 C   0  0  0  0  0  3  0  0  0  0  0  0
  184.4870  178.9790  141.5820 N   0  0  0  0  0  0  0  0  0  0  0  0
  183.0390  179.3240  143.4730 C   0  0  0  0  0  3  0  0  0  0  0  0
  186.3200  176.2580  144.4220 F   0  0  0  0  0  0  0  0  0  0  0  0
  185.9990  179.1310  139.5700 C   0  0  0  0  0  2  0  0  0  0  0  0
  184.5670  178.9370  140.1100 C   0  0  1  0  0  3  0  0  0  0  0  0
  188.8240  177.4220  141.1310 N   0  0  0  0  0  0  0  0  0  0  0  0
  186.8040  178.0790  141.7170 C   0  0  0  0  0  0  0  0  0  0  0  0
  183.2430  179.4030  142.1610 C   0  0  0  0  0  3  0  0  0  0  0  0
  182.2150  175.9780  139.6220 C   0  0  0  0  0  0  0  0  0  0  0  0
  182.8030  175.3500  138.5210 C   0  0  0  0  0  3  0  0  0  0  0  0
  183.9360  177.6900  139.5650 C   0  0  0  0  0  0  0  0  0  0  0  0
  183.9560  175.8870  137.9420 C   0  0  0  0  0  3  0  0  0  0  0  0
  182.7800  177.1450  140.1440 C   0  0  0  0  0  3  0  0  0  0  0  0
  184.5220  177.0540  138.4640 C   0  0  0  0  0  3  0  0  0  0  0  0
  180.9910  175.4070  140.2400 C   0  0  0  0  0  1  0  0  0  0  0  0
  190.1800  176.9030  141.1970 C   0  0  0  0  0  2  0  0  0  0  0  0
  191.1370  178.0050  141.6200 C   0  0  0  0  0  2  0  0  0  0  0  0
  190.9940  179.9470  144.0300 F   0  0  0  0  0  0  0  0  0  0  0  0
  191.5450  177.8300  143.0720 C   0  0  1  0  0  3  0  0  0  0  0  0
  190.6130  178.6190  144.0070 C   0  0  1  0  0  3  0  0  0  0  0  0
  191.7870  177.2840  145.6530 O   0  0  0  0  0  0  0  0  0  0  0  0
  191.5880  176.0920  144.9330 C   0  0  0  0  0  2  0  0  0  0  0  0
  191.5790  176.3380  143.4150 C   0  0  0  0  0  2  0  0  0  0  0  0
  190.6350  178.0590  145.4350 C   0  0  0  0  0  2  0  0  0  0  0  0
  1 12  1  1  0  0  0
  1 10  1  0  0  0  0
  2  6  2  0  0  0  0
  3  8  2  0  0  0  0
  4 17  1  0  0  0  0
  6  5  1  0  0  0  0
  8  1  1  0  0  0  0
  8  2  1  0  0  0  0
  9  4  2  0  0  0  0
  9 16  1  0  0  0  0
 10  5  2  0  0  0  0
 11 18  1  0  0  0  0
 11  3  1  0  0  0  0
 13  2  1  0  0  0  0
 14 15  1  0  0  0  0
 14  4  1  0  0  0  0
 15 21  1  1  0  0  0
 15 11  1  0  0  0  0
 16 26  1  0  0  0  0
 16  7  1  0  0  0  0
 17  7  2  0  0  0  0
 17  3  1  0  0  0  0
 18 12  2  0  0  0  0
 19 23  1  0  0  0  0
 19 25  1  0  0  0  0
 20 19  2  0  0  0  0
 21 23  2  0  0  0  0
 22 24  2  0  0  0  0
 22 20  1  0  0  0  0
 24 21  1  0  0  0  0
 26 27  1  0  0  0  0
 29 27  1  6  0  0  0
 29 33  1  0  0  0  0
 29 30  1  0  0  0  0
 30 28  1  1  0  0  0
 30 34  1  0  0  0  0
 32 31  1  0  0  0  0
 33 32  1  0  0  0  0
 34 31  1  0  0  0  0
M  END
>  <MODEL>
5

>  <REMARK>
 VINA RESULT:      -7.7      2.436      4.119
  Name = 
  4 active torsions:
  status: ('A' for Active; 'I' for Inactive)
    1  A    between atoms: C_3  and  C_13
    2  A    between atoms: C_3  and  C_17
    3  A    between atoms: C_12  and  C_28
    4  A    between atoms: C_17  and  N_29
                            x       y       z     vdW  Elec       q    Type
                         _______ _______ _______ _____ _____    ______ ____

>  <TORSDO>
F 4

$$$$
=
 OpenBabel10262423553D

 34 39  0  0  1  0  0  0  0  0999 V2000
  191.4180  174.6190  137.2240 C   0  0  0  0  0  0  0  0  0  0  0  0
  189.0850  174.0480  136.3000 C   0  0  2  0  0  3  0  0  0  0  0  0
  189.5200  176.0640  137.7400 C   0  0  0  0  0  0  0  0  0  0  0  0
  187.7670  177.7680  138.1680 C   0  0  0  0  0  0  0  0  0  0  0  0
  191.1350  172.9140  135.5480 N   0  0  0  0  0  0  0  0  0  0  0  0
  189.8540  173.0990  135.4200 C   0  0  0  0  0  3  0  0  0  0  0  0
  187.0340  176.0680  136.9520 C   0  0  0  0  0  3  0  0  0  0  0  0
  189.9850  174.9700  137.0900 C   0  0  0  0  0  0  0  0  0  0  0  0
  186.4520  178.0040  137.8370 C   0  0  0  0  0  3  0  0  0  0  0  0
  191.9380  173.6390  136.4880 C   0  0  0  0  0  3  0  0  0  0  0  0
  190.4100  176.8290  138.5950 N   0  0  0  0  0  0  0  0  0  0  0  0
  192.2860  175.4030  138.1070 C   0  0  0  0  0  3  0  0  0  0  0  0
  188.3090  173.3090  137.1740 F   0  0  0  0  0  0  0  0  0  0  0  0
  188.7220  178.6830  138.8630 C   0  0  0  0  0  2  0  0  0  0  0  0
  189.8960  177.8940  139.4770 C   0  0  1  0  0  3  0  0  0  0  0  0
  186.0240  176.9460  137.1180 N   0  0  0  0  0  0  0  0  0  0  0  0
  188.1390  176.5730  137.6100 C   0  0  0  0  0  0  0  0  0  0  0  0
  191.7870  176.4520  138.7540 C   0  0  0  0  0  3  0  0  0  0  0  0
  188.0700  177.2260  142.7560 C   0  0  0  0  0  0  0  0  0  0  0  0
  188.9540  176.3380  143.3760 C   0  0  0  0  0  3  0  0  0  0  0  0
  189.5500  177.3570  140.8350 C   0  0  0  0  0  0  0  0  0  0  0  0
  190.1350  175.9600  142.7300 C   0  0  0  0  0  3  0  0  0  0  0  0
  188.3670  177.7350  141.4890 C   0  0  0  0  0  3  0  0  0  0  0  0
  190.4320  176.4690  141.4630 C   0  0  0  0  0  3  0  0  0  0  0  0
  186.8160  177.6300  143.4420 C   0  0  0  0  0  1  0  0  0  0  0  0
  184.6960  176.8110  136.5450 C   0  0  0  0  0  2  0  0  0  0  0  0
  183.7960  176.0410  137.4960 C   0  0  0  0  0  2  0  0  0  0  0  0
  183.0010  176.6100  140.4370 F   0  0  0  0  0  0  0  0  0  0  0  0
  182.7370  176.9550  138.0880 C   0  0  1  0  0  3  0  0  0  0  0  0
  183.2010  177.5390  139.4330 C   0  0  1  0  0  3  0  0  0  0  0  0
  181.2550  178.9290  139.0480 O   0  0  0  0  0  0  0  0  0  0  0  0
  181.6380  179.2230  137.7270 C   0  0  0  0  0  2  0  0  0  0  0  0
  182.3850  178.0480  137.0750 C   0  0  0  0  0  2  0  0  0  0  0  0
  182.4510  178.8320  139.7800 C   0  0  0  0  0  2  0  0  0  0  0  0
  1 12  1  0  0  0  0
  2  8  1  0  0  0  0
  2 13  1  1  0  0  0
  3 11  1  0  0  0  0
  4 14  1  0  0  0  0
  5 10  1  0  0  0  0
  6  5  2  0  0  0  0
  6  2  1  0  0  0  0
  7 16  1  0  0  0  0
  7 17  2  0  0  0  0
  8  1  1  0  0  0  0
  8  3  2  0  0  0  0
  9  4  2  0  0  0  0
 10  1  2  0  0  0  0
 11 18  1  0  0  0  0
 11 15  1  0  0  0  0
 12 18  2  0  0  0  0
 14 15  1  0  0  0  0
 15 21  1  1  0  0  0
 16  9  1  0  0  0  0
 17  3  1  0  0  0  0
 17  4  1  0  0  0  0
 19 20  1  0  0  0  0
 19 25  1  0  0  0  0
 21 24  2  0  0  0  0
 21 23  1  0  0  0  0
 22 20  2  0  0  0  0
 23 19  2  0  0  0  0
 24 22  1  0  0  0  0
 26 16  1  0  0  0  0
 26 27  1  0  0  0  0
 29 27  1  6  0  0  0
 29 30  1  0  0  0  0
 30 34  1  0  0  0  0
 30 28  1  1  0  0  0
 31 34  1  0  0  0  0
 32 31  1  0  0  0  0
 33 32  1  0  0  0  0
 33 29  1  0  0  0  0
M  END
>  <MODEL>
6

>  <REMARK>
 VINA RESULT:      -7.5      3.462      7.876
  Name = 
  4 active torsions:
  status: ('A' for Active; 'I' for Inactive)
    1  A    between atoms: C_3  and  C_13
    2  A    between atoms: C_3  and  C_17
    3  A    between atoms: C_12  and  C_28
    4  A    between atoms: C_17  and  N_29
                            x       y       z     vdW  Elec       q    Type
                         _______ _______ _______ _____ _____    ______ ____

>  <TORSDO>
F 4

$$$$
=
 OpenBabel10262423553D

 34 39  0  0  1  0  0  0  0  0999 V2000
  191.5580  174.6500  137.2470 C   0  0  0  0  0  0  0  0  0  0  0  0
  189.2520  173.9570  136.3370 C   0  0  2  0  0  3  0  0  0  0  0  0
  189.6010  176.0280  137.7220 C   0  0  0  0  0  0  0  0  0  0  0  0
  187.7790  177.6690  138.1030 C   0  0  0  0  0  0  0  0  0  0  0  0
  191.3480  172.8890  135.6170 N   0  0  0  0  0  0  0  0  0  0  0  0
  190.0610  173.0180  135.4830 C   0  0  0  0  0  3  0  0  0  0  0  0
  187.1190  175.9080  136.9330 C   0  0  0  0  0  3  0  0  0  0  0  0
  190.1120  174.9370  137.1030 C   0  0  0  0  0  0  0  0  0  0  0  0
  186.4560  177.8420  137.7660 C   0  0  0  0  0  3  0  0  0  0  0  0
  192.1190  173.6720  136.5380 C   0  0  0  0  0  3  0  0  0  0  0  0
  190.4570  176.8520  138.5570 N   0  0  0  0  0  0  0  0  0  0  0  0
  192.3910  175.4920  138.1080 C   0  0  0  0  0  3  0  0  0  0  0  0
  188.5060  173.2110  137.2310 F   0  0  0  0  0  0  0  0  0  0  0  0
  188.6930  178.6410  138.7730 C   0  0  0  0  0  2  0  0  0  0  0  0
  189.8990  177.9180  139.4100 C   0  0  1  0  0  3  0  0  0  0  0  0
  186.0720  176.7480  137.0750 N   0  0  0  0  0  0  0  0  0  0  0  0
  188.2010  176.4750  137.5780 C   0  0  0  0  0  0  0  0  0  0  0  0
  191.8490  176.5370  138.7270 C   0  0  0  0  0  3  0  0  0  0  0  0
  188.1050  177.2780  142.7110 C   0  0  0  0  0  0  0  0  0  0  0  0
  189.0150  176.4300  143.3490 C   0  0  0  0  0  3  0  0  0  0  0  0
  189.5720  177.4040  140.7810 C   0  0  0  0  0  0  0  0  0  0  0  0
  190.2030  176.0700  142.7060 C   0  0  0  0  0  3  0  0  0  0  0  0
  188.3830  177.7650  141.4310 C   0  0  0  0  0  3  0  0  0  0  0  0
  190.4820  176.5570  141.4260 C   0  0  0  0  0  3  0  0  0  0  0  0
  186.8430  177.6630  143.3930 C   0  0  0  0  0  1  0  0  0  0  0  0
  184.7520  176.5420  136.5050 C   0  0  0  0  0  2  0  0  0  0  0  0
  184.0010  175.4880  137.3020 C   0  0  0  0  0  2  0  0  0  0  0  0
  185.6010  172.8820  137.8000 F   0  0  0  0  0  0  0  0  0  0  0  0
  184.0030  174.1590  136.5670 C   0  0  1  0  0  3  0  0  0  0  0  0
  184.2480  172.9920  137.5380 C   0  0  1  0  0  3  0  0  0  0  0  0
  183.5750  171.7410  135.5760 O   0  0  0  0  0  0  0  0  0  0  0  0
  182.4430  172.5480  135.3620 C   0  0  0  0  0  2  0  0  0  0  0  0
  182.6900  174.0030  135.7960 C   0  0  0  0  0  2  0  0  0  0  0  0
  183.7310  171.6630  136.9710 C   0  0  0  0  0  2  0  0  0  0  0  0
  1 12  1  0  0  0  0
  2  8  1  0  0  0  0
  2 13  1  1  0  0  0
  3 11  1  0  0  0  0
  4 14  1  0  0  0  0
  5 10  1  0  0  0  0
  6  5  2  0  0  0  0
  6  2  1  0  0  0  0
  7 16  1  0  0  0  0
  7 17  2  0  0  0  0
  8  1  1  0  0  0  0
  8  3  2  0  0  0  0
  9  4  2  0  0  0  0
 10  1  2  0  0  0  0
 11 18  1  0  0  0  0
 11 15  1  0  0  0  0
 12 18  2  0  0  0  0
 14 15  1  0  0  0  0
 15 21  1  1  0  0  0
 16  9  1  0  0  0  0
 17  3  1  0  0  0  0
 17  4  1  0  0  0  0
 19 20  1  0  0  0  0
 19 25  1  0  0  0  0
 21 24  2  0  0  0  0
 21 23  1  0  0  0  0
 22 20  2  0  0  0  0
 23 19  2  0  0  0  0
 24 22  1  0  0  0  0
 26 16  1  0  0  0  0
 26 27  1  0  0  0  0
 29 27  1  1  0  0  0
 29 30  1  0  0  0  0
 30 28  1  6  0  0  0
 31 34  1  0  0  0  0
 32 31  1  0  0  0  0
 32 33  1  0  0  0  0
 33 29  1  0  0  0  0
 34 30  1  0  0  0  0
M  END
>  <MODEL>
7

>  <REMARK>
 VINA RESULT:      -7.5      3.901      8.358
  Name = 
  4 active torsions:
  status: ('A' for Active; 'I' for Inactive)
    1  A    between atoms: C_3  and  C_13
    2  A    between atoms: C_3  and  C_17
    3  A    between atoms: C_12  and  C_28
    4  A    between atoms: C_17  and  N_29
                            x       y       z     vdW  Elec       q    Type
                         _______ _______ _______ _____ _____    ______ ____

>  <TORSDO>
F 4

$$$$
=
 OpenBabel10262423553D

 34 39  0  0  1  0  0  0  0  0999 V2000
  183.0330  178.0290  137.3360 C   0  0  1  0  0  3  0  0  0  0  0  0
  183.7060  178.5500  139.7650 C   0  0  0  0  0  0  0  0  0  0  0  0
  185.3650  177.8190  138.0220 C   0  0  0  0  0  0  0  0  0  0  0  0
  187.8050  177.7810  138.4740 C   0  0  0  0  0  0  0  0  0  0  0  0
  181.4880  179.0900  138.8480 N   0  0  0  0  0  0  0  0  0  0  0  0
  182.3330  179.1640  139.8330 C   0  0  0  0  0  3  0  0  0  0  0  0
  186.6130  178.3690  140.2450 C   0  0  0  0  0  3  0  0  0  0  0  0
  184.0960  178.1460  138.3610 C   0  0  0  0  0  0  0  0  0  0  0  0
  188.6700  178.0590  139.5080 C   0  0  0  0  0  3  0  0  0  0  0  0
  181.8060  178.4780  137.5910 C   0  0  0  0  0  3  0  0  0  0  0  0
  185.6490  177.3060  136.6930 N   0  0  0  0  0  0  0  0  0  0  0  0
  183.3490  177.4950  136.0090 C   0  0  0  0  0  3  0  0  0  0  0  0
  183.7310  177.4350  140.5830 F   0  0  0  0  0  0  0  0  0  0  0  0
  188.1400  177.4700  137.0520 C   0  0  0  0  0  2  0  0  0  0  0  0
  186.9710  176.7450  136.3550 C   0  0  1  0  0  3  0  0  0  0  0  0
  187.9190  178.3920  140.5790 N   0  0  0  0  0  0  0  0  0  0  0  0
  186.5260  177.9830  138.9210 C   0  0  0  0  0  0  0  0  0  0  0  0
  184.6020  177.1530  135.7210 C   0  0  0  0  0  3  0  0  0  0  0  0
  185.9170  173.1670  137.1420 C   0  0  0  0  0  0  0  0  0  0  0  0
  187.1460  172.5060  137.0710 C   0  0  0  0  0  3  0  0  0  0  0  0
  187.0140  175.2650  136.6020 C   0  0  0  0  0  0  0  0  0  0  0  0
  188.3090  173.2210  136.7680 C   0  0  0  0  0  3  0  0  0  0  0  0
  185.8500  174.5430  136.9090 C   0  0  0  0  0  3  0  0  0  0  0  0
  188.2430  174.5980  136.5350 C   0  0  0  0  0  3  0  0  0  0  0  0
  184.6810  172.4090  137.4650 C   0  0  0  0  0  1  0  0  0  0  0  0
  188.4440  178.7890  141.8740 C   0  0  0  0  0  2  0  0  0  0  0  0
  189.4330  177.7500  142.3750 C   0  0  0  0  0  2  0  0  0  0  0  0
  191.1890  177.1110  144.8470 F   0  0  0  0  0  0  0  0  0  0  0  0
  189.0620  177.2910  143.7750 C   0  0  1  0  0  3  0  0  0  0  0  0
  190.0320  177.8670  144.8200 C   0  0  1  0  0  3  0  0  0  0  0  0
  188.3210  177.0040  146.3010 O   0  0  0  0  0  0  0  0  0  0  0  0
  187.2820  177.6050  145.5670 C   0  0  0  0  0  2  0  0  0  0  0  0
  187.6080  177.6700  144.0660 C   0  0  0  0  0  2  0  0  0  0  0  0
  189.4080  177.8910  146.2210 C   0  0  0  0  0  2  0  0  0  0  0  0
  1 12  1  6  0  0  0
  1 10  1  0  0  0  0
  1  8  1  0  0  0  0
  2  6  2  0  0  0  0
  2 13  1  0  0  0  0
  3  8  2  0  0  0  0
  3 17  1  0  0  0  0
  4 17  1  0  0  0  0
  4  9  2  0  0  0  0
  5  6  1  0  0  0  0
  7 16  1  0  0  0  0
  8  2  1  0  0  0  0
  9 16  1  0  0  0  0
 10  5  2  0  0  0  0
 11  3  1  0  0  0  0
 14  4  1  0  0  0  0
 15 21  1  1  0  0  0
 15 11  1  0  0  0  0
 15 14  1  0  0  0  0
 16 26  1  0  0  0  0
 17  7  2  0  0  0  0
 18 12  2  0  0  0  0
 18 11  1  0  0  0  0
 19 25  1  0  0  0  0
 20 19  1  0  0  0  0
 21 23  1  0  0  0  0
 22 20  2  0  0  0  0
 23 19  2  0  0  0  0
 24 21  2  0  0  0  0
 24 22  1  0  0  0  0
 26 27  1  0  0  0  0
 29 27  1  6  0  0  0
 29 33  1  0  0  0  0
 29 30  1  0  0  0  0
 30 28  1  1  0  0  0
 30 34  1  0  0  0  0
 32 31  1  0  0  0  0
 33 32  1  0  0  0  0
 34 31  1  0  0  0  0
M  END
>  <MODEL>
8

>  <REMARK>
 VINA RESULT:      -7.4      2.025      2.965
  Name = 
  4 active torsions:
  status: ('A' for Active; 'I' for Inactive)
    1  A    between atoms: C_3  and  C_13
    2  A    between atoms: C_3  and  C_17
    3  A    between atoms: C_12  and  C_28
    4  A    between atoms: C_17  and  N_29
                            x       y       z     vdW  Elec       q    Type
                         _______ _______ _______ _____ _____    ______ ____

>  <TORSDO>
F 4

$$$$
=
 OpenBabel10262423553D

 34 39  0  0  1  0  0  0  0  0999 V2000
  192.0530  174.9340  137.5550 C   0  0  0  0  0  0  0  0  0  0  0  0
  189.9540  173.8330  136.5520 C   0  0  2  0  0  3  0  0  0  0  0  0
  189.8660  175.9680  137.8790 C   0  0  0  0  0  0  0  0  0  0  0  0
  187.7730  177.2810  138.1060 C   0  0  0  0  0  0  0  0  0  0  0  0
  192.2380  173.1210  135.9800 N   0  0  0  0  0  0  0  0  0  0  0  0
  190.9580  173.0240  135.7760 C   0  0  0  0  0  3  0  0  0  0  0  0
  187.4890  175.4030  136.9670 C   0  0  0  0  0  3  0  0  0  0  0  0
  190.5890  174.9650  137.3260 C   0  0  0  0  0  0  0  0  0  0  0  0
  186.4610  177.2160  137.6950 C   0  0  0  0  0  3  0  0  0  0  0  0
  192.8120  174.0490  136.9110 C   0  0  0  0  0  3  0  0  0  0  0  0
  190.5210  176.9490  138.7270 N   0  0  0  0  0  0  0  0  0  0  0  0
  192.6800  175.9290  138.4280 C   0  0  0  0  0  3  0  0  0  0  0  0
  189.2960  172.9930  137.4320 F   0  0  0  0  0  0  0  0  0  0  0  0
  188.4690  178.4130  138.7880 C   0  0  0  0  0  2  0  0  0  0  0  0
  189.7410  177.9250  139.5120 C   0  0  1  0  0  3  0  0  0  0  0  0
  186.3090  176.0540  137.0250 N   0  0  0  0  0  0  0  0  0  0  0  0
  188.4210  176.1650  137.6470 C   0  0  0  0  0  0  0  0  0  0  0  0
  191.9330  176.8810  138.9800 C   0  0  0  0  0  3  0  0  0  0  0  0
  187.9970  177.2790  142.8380 C   0  0  0  0  0  0  0  0  0  0  0  0
  188.8990  176.4000  143.4460 C   0  0  0  0  0  3  0  0  0  0  0  0
  189.4290  177.3990  140.8820 C   0  0  0  0  0  0  0  0  0  0  0  0
  190.0650  176.0210  142.7750 C   0  0  0  0  0  3  0  0  0  0  0  0
  188.2620  177.7780  141.5600 C   0  0  0  0  0  3  0  0  0  0  0  0
  190.3310  176.5210  141.4960 C   0  0  0  0  0  3  0  0  0  0  0  0
  186.7580  177.6840  143.5500 C   0  0  0  0  0  1  0  0  0  0  0  0
  185.0780  175.6100  136.3950 C   0  0  0  0  0  2  0  0  0  0  0  0
  184.6170  174.3040  137.0200 C   0  0  0  0  0  2  0  0  0  0  0  0
  183.0760  175.6350  139.3560 F   0  0  0  0  0  0  0  0  0  0  0  0
  183.1320  174.3580  137.3380 C   0  0  1  0  0  3  0  0  0  0  0  0
  182.7610  175.6900  138.0110 C   0  0  1  0  0  3  0  0  0  0  0  0
  180.5380  174.8500  137.5410 O   0  0  0  0  0  0  0  0  0  0  0  0
  180.8600  174.5420  136.2060 C   0  0  0  0  0  2  0  0  0  0  0  0
  182.3290  174.1140  136.0580 C   0  0  0  0  0  2  0  0  0  0  0  0
  181.2680  176.0090  137.8530 C   0  0  0  0  0  2  0  0  0  0  0  0
  1 12  1  0  0  0  0
  2  8  1  0  0  0  0
  2 13  1  1  0  0  0
  3 11  1  0  0  0  0
  4 14  1  0  0  0  0
  5 10  1  0  0  0  0
  6  5  2  0  0  0  0
  6  2  1  0  0  0  0
  7 16  1  0  0  0  0
  7 17  2  0  0  0  0
  8  1  1  0  0  0  0
  8  3  2  0  0  0  0
  9  4  2  0  0  0  0
 10  1  2  0  0  0  0
 11 18  1  0  0  0  0
 11 15  1  0  0  0  0
 12 18  2  0  0  0  0
 14 15  1  0  0  0  0
 15 21  1  1  0  0  0
 16  9  1  0  0  0  0
 17  3  1  0  0  0  0
 17  4  1  0  0  0  0
 19 20  1  0  0  0  0
 19 25  1  0  0  0  0
 21 24  2  0  0  0  0
 21 23  1  0  0  0  0
 22 20  2  0  0  0  0
 23 19  2  0  0  0  0
 24 22  1  0  0  0  0
 26 27  1  0  0  0  0
 26 16  1  0  0  0  0
 29 27  1  6  0  0  0
 29 30  1  0  0  0  0
 30 28  1  1  0  0  0
 31 34  1  0  0  0  0
 32 31  1  0  0  0  0
 33 32  1  0  0  0  0
 33 29  1  0  0  0  0
 34 30  1  0  0  0  0
M  END
>  <MODEL>
9

>  <REMARK>
 VINA RESULT:      -7.3      3.815      8.331
  Name = 
  4 active torsions:
  status: ('A' for Active; 'I' for Inactive)
    1  A    between atoms: C_3  and  C_13
    2  A    between atoms: C_3  and  C_17
    3  A    between atoms: C_12  and  C_28
    4  A    between atoms: C_17  and  N_29
                            x       y       z     vdW  Elec       q    Type
                         _______ _______ _______ _____ _____    ______ ____

>  <TORSDO>
F 4

$$$$
