=
 OpenBabel10272401383D

 55 61  0  0  1  0  0  0  0  0999 V2000
  190.6400  176.5040  141.4700 C   0  0  0  0  0  3  0  0  0  0  0  0
  188.1890  177.8030  141.9140 C   0  0  0  0  0  0  0  0  0  0  0  0
  188.7700  177.8020  140.6340 C   0  0  0  0  0  3  0  0  0  0  0  0
  190.0680  176.5030  142.7460 C   0  0  0  0  0  3  0  0  0  0  0  0
  189.9970  177.1630  140.4080 C   0  0  0  0  0  0  0  0  0  0  0  0
  188.8460  177.1520  142.9680 C   0  0  0  0  0  3  0  0  0  0  0  0
  190.5850  177.1610  139.0410 C   0  0  2  0  0  3  0  0  0  0  0  0
  188.6770  174.2360  136.8710 C   0  0  0  0  0  2  0  0  0  0  0  0
  190.9940  173.6270  136.1700 C   0  0  2  0  0  3  0  0  0  0  0  0
  189.5630  176.7190  138.0160 C   0  0  2  0  0  3  0  0  0  0  0  0
  189.9200  174.6230  136.6100 C   0  0  0  0  0  0  0  0  0  0  0  0
  191.6780  176.2830  138.9590 O   0  0  0  0  0  0  0  0  0  0  0  0
  192.4840  174.6840  137.4390 N   0  0  2  0  0  0  0  0  0  0  0  0
  192.2570  174.2610  136.1620 O   0  0  0  0  0  0  0  0  0  0  0  0
  190.4010  176.0120  136.9690 C   0  0  2  0  0  3  0  0  0  0  0  0
  191.8110  175.9860  137.6010 C   0  0  1  0  0  3  0  0  0  0  0  0
  194.5200  175.3980  136.2230 C   0  0  0  0  0  2  0  0  0  0  0  0
  196.7990  174.7170  137.0140 C   0  0  2  0  0  3  0  0  0  0  0  0
  194.7000  173.6540  137.9120 C   0  0  0  0  0  2  0  0  0  0  0  0
  195.8880  173.4960  136.9770 C   0  0  1  0  0  3  0  0  0  0  0  0
  195.7580  174.5720  135.9080 C   0  0  1  0  0  3  0  0  0  0  0  0
  193.9320  174.9190  137.5420 C   0  0  2  0  0  3  0  0  0  0  0  0
  198.2160  174.3450  136.5730 C   0  0  2  0  0  3  0  0  0  0  0  0
  199.0250  173.9490  137.7910 C   0  0  0  0  0  1  0  0  0  0  0  0
  198.8780  175.3640  135.8750 O   0  0  0  0  0  1  0  0  0  0  0  0
  187.8220  177.6710  136.4200 N   0  0  0  0  0  2  0  0  0  0  0  0
  189.0910  179.0480  137.8250 O   0  0  0  0  0  0  0  0  0  0  0  0
  187.0370  178.7640  135.8680 C   0  0  0  0  0  1  0  0  0  0  0  0
  188.8140  177.8770  137.4340 C   0  0  0  0  0  0  0  0  0  0  0  0
  191.3610  171.5080  134.7020 C   0  0  0  0  0  2  0  0  0  0  0  0
  190.7820  172.9190  134.8130 C   0  0  0  0  0  3  0  0  0  0  0  0
  189.8840  171.7000  134.9880 C   0  0  0  0  0  2  0  0  0  0  0  0
  186.8830  178.5180  142.0960 C   0  0  0  0  0  2  0  0  0  0  0  0
  185.9420  177.9110  143.1480 C   0  0  0  0  0  2  0  0  0  0  0  0
  184.5070  178.3690  142.9120 C   0  0  0  0  0  2  0  0  0  0  0  0
  184.4050  179.1650  141.6240 C   0  0  0  0  0  2  0  0  0  0  0  0
  183.6910  178.4200  140.6860 O   0  0  0  0  0  0  0  0  0  0  0  0
  184.0500  180.6060  138.9970 O   0  0  0  0  0  1  0  0  0  0  0  0
  184.1950  178.9240  139.1470 P   0  0  1  0  0  0  0  0  0  0  0  0
  185.6340  178.5370  138.8530 O   0  0  0  0  0  0  0  0  0  0  0  0
  183.1400  178.0930  137.9170 C   0  0  0  0  0  2  0  0  0  0  0  0
  183.7680  176.7770  137.4940 C   0  0  0  0  0  2  0  0  0  0  0  0
  183.0640  175.4820  137.9410 C   0  0  2  0  0  0  0  0  0  0  0  0
  183.5370  174.1160  134.9180 C   0  0  0  0  0  2  0  0  0  0  0  0
  184.6070  173.6360  137.1660 C   0  0  0  0  0  0  0  0  0  0  0  0
  185.5210  175.3080  135.6920 O   0  0  0  0  0  1  0  0  0  0  0  0
  184.8210  174.0930  135.7510 C   0  0  2  0  0  3  0  0  0  0  0  0
  182.0390  175.0140  136.8870 C   0  0  2  0  0  3  0  0  0  0  0  0
  182.3790  175.6950  139.1480 O   0  0  0  0  0  1  0  0  0  0  0  0
  182.4920  175.1000  135.4290 C   0  0  1  0  0  3  0  0  0  0  0  0
  184.8120  172.4260  137.4280 O   0  0  0  0  0  0  0  0  0  0  0  0
  180.8020  175.6430  137.0460 O   0  0  0  0  0  1  0  0  0  0  0  0
  184.0280  174.4490  138.1660 O   0  0  0  0  0  0  0  0  0  0  0  0
  182.1420  176.3280  134.5970 C   0  0  0  0  0  2  0  0  0  0  0  0
  183.2750  177.1060  134.3490 O   0  0  0  0  0  1  0  0  0  0  0  0
  1  4  1  0  0  0  0
  2 33  1  0  0  0  0
  2  6  1  0  0  0  0
  3  2  2  0  0  0  0
  4  6  2  0  0  0  0
  5  3  1  0  0  0  0
  5  1  2  0  0  0  0
  7  5  1  1  0  0  0
  9 31  1  6  0  0  0
  9 11  1  0  0  0  0
 10 29  1  6  0  0  0
 10  7  1  0  0  0  0
 11  8  2  0  0  0  0
 12  7  1  0  0  0  0
 13 14  1  6  0  0  0
 13 22  1  0  0  0  0
 13 16  1  0  0  0  0
 14  9  1  0  0  0  0
 15 11  1  1  0  0  0
 15 16  1  0  0  0  0
 15 10  1  0  0  0  0
 16 12  1  1  0  0  0
 18 23  1  6  0  0  0
 20 18  1  0  0  0  0
 20 19  1  1  0  0  0
 21 17  1  1  0  0  0
 21 20  1  0  0  0  0
 21 18  1  0  0  0  0
 22 17  1  6  0  0  0
 22 19  1  0  0  0  0
 23 24  1  1  0  0  0
 25 23  1  0  0  0  0
 26 29  1  0  0  0  0
 28 26  1  0  0  0  0
 29 27  2  0  0  0  0
 30 31  1  0  0  0  0
 30 32  1  0  0  0  0
 31 32  1  0  0  0  0
 33 34  1  0  0  0  0
 35 34  1  0  0  0  0
 36 35  1  0  0  0  0
 37 36  1  0  0  0  0
 38 39  1  0  0  0  0
 39 40  2  6  0  0  0
 39 37  1  0  0  0  0
 41 39  1  0  0  0  0
 42 41  1  0  0  0  0
 42 43  1  0  0  0  0
 43 53  1  0  0  0  0
 43 49  1  1  0  0  0
 44 50  1  0  0  0  0
 44 47  1  0  0  0  0
 45 51  2  0  0  0  0
 45 53  1  0  0  0  0
 47 46  1  1  0  0  0
 47 45  1  0  0  0  0
 48 52  1  6  0  0  0
 48 43  1  0  0  0  0
 50 54  1  1  0  0  0
 50 48  1  0  0  0  0
 55 54  1  0  0  0  0
M  END
>  <MODEL>
1

>  <REMARK>
 VINA RESULT:      -7.2      0.000      0.000
  Name = 
  15 active torsions:
  status: ('A' for Active; 'I' for Inactive)
    1  A    between atoms: C_1  and  C_21
    2  A    between atoms: C_2  and  C_44
    3  A    between atoms: O_8  and  P_20
    4  A    between atoms: O_8  and  C_43
    5  A    between atoms: C_10  and  C_32
    6  A    between atoms: C_11  and  C_38
    7  A    between atoms: C_16  and  C_17
    8  A    between atoms: C_19  and  C_40
    9  A    between atoms: P_20  and  C_42
   10  A    between atoms: C_21  and  C_42
   11  A    between atoms: C_27  and  C_54
   12  A    between atoms: N_33  and  C_52
   13  A    between atoms: C_35  and  C_43
   14  A    between atoms: C_35  and  C_51
   15  A    between atoms: C_51  and  C_54
                            x       y       z     vdW  Elec       q    Type
                         _______ _______ _______ _____ _____    ______ ____

>  <TORSDO>
F 15

$$$$
=
 OpenBabel10272401383D

 55 61  0  0  1  0  0  0  0  0999 V2000
  181.9920  178.8880  141.9760 C   0  0  0  0  0  3  0  0  0  0  0  0
  184.3480  178.7420  143.4990 C   0  0  0  0  0  0  0  0  0  0  0  0
  184.4090  178.7390  142.0940 C   0  0  0  0  0  3  0  0  0  0  0  0
  181.9240  178.8900  143.3730 C   0  0  0  0  0  3  0  0  0  0  0  0
  183.2360  178.8030  141.3290 C   0  0  0  0  0  0  0  0  0  0  0  0
  183.1000  178.8160  144.1320 C   0  0  0  0  0  3  0  0  0  0  0  0
  183.3270  178.8140  139.8440 C   0  0  2  0  0  3  0  0  0  0  0  0
  180.3830  176.3300  138.4030 C   0  0  0  0  0  2  0  0  0  0  0  0
  182.2130  175.4590  136.9440 C   0  0  2  0  0  3  0  0  0  0  0  0
  181.9670  178.5860  139.2200 C   0  0  2  0  0  3  0  0  0  0  0  0
  181.5110  176.5610  137.7410 C   0  0  0  0  0  0  0  0  0  0  0  0
  184.1820  177.8020  139.3790 O   0  0  0  0  0  0  0  0  0  0  0  0
  184.1830  176.2140  137.6480 N   0  0  2  0  0  0  0  0  0  0  0  0
  183.4810  175.9130  136.5180 O   0  0  0  0  0  0  0  0  0  0  0  0
  182.2890  177.8430  137.9390 C   0  0  2  0  0  3  0  0  0  0  0  0
  183.8080  177.5830  138.0520 C   0  0  1  0  0  3  0  0  0  0  0  0
  185.8190  177.0650  135.9950 C   0  0  0  0  0  2  0  0  0  0  0  0
  188.0200  175.9150  135.6510 C   0  0  2  0  0  3  0  0  0  0  0  0
  186.1440  174.8490  136.9520 C   0  0  0  0  0  2  0  0  0  0  0  0
  186.8980  174.8830  135.6330 C   0  0  1  0  0  3  0  0  0  0  0  0
  186.6720  176.2610  135.0260 C   0  0  1  0  0  3  0  0  0  0  0  0
  185.6000  176.2410  137.2570 C   0  0  2  0  0  3  0  0  0  0  0  0
  189.0970  175.5580  134.6260 C   0  0  2  0  0  3  0  0  0  0  0  0
  189.5720  174.1420  134.8780 C   0  0  0  0  0  1  0  0  0  0  0  0
  190.1920  176.4320  134.6270 O   0  0  0  0  0  1  0  0  0  0  0  0
  181.9800  181.0500  138.5760 N   0  0  0  0  0  2  0  0  0  0  0  0
  179.9940  179.9180  139.0840 O   0  0  0  0  0  0  0  0  0  0  0  0
  181.3170  182.3040  138.2540 C   0  0  0  0  0  1  0  0  0  0  0  0
  181.2510  179.8730  138.9480 C   0  0  0  0  0  0  0  0  0  0  0  0
  181.9310  173.5130  135.2380 C   0  0  0  0  0  2  0  0  0  0  0  0
  181.4540  174.8800  135.7280 C   0  0  0  0  0  3  0  0  0  0  0  0
  180.7060  173.6140  136.1260 C   0  0  0  0  0  2  0  0  0  0  0  0
  185.6370  178.6550  144.2610 C   0  0  0  0  0  2  0  0  0  0  0  0
  185.5250  178.0640  145.6750 C   0  0  0  0  0  2  0  0  0  0  0  0
  185.7790  179.1390  146.7270 C   0  0  0  0  0  2  0  0  0  0  0  0
  186.6770  178.6070  147.8290 C   0  0  0  0  0  2  0  0  0  0  0  0
  187.2980  177.4400  147.3840 O   0  0  0  0  0  0  0  0  0  0  0  0
  189.2850  178.2920  149.1400 O   0  0  0  0  0  1  0  0  0  0  0  0
  188.9670  177.6350  147.6090 P   0  0  1  0  0  0  0  0  0  0  0  0
  189.7270  176.3260  147.4810 O   0  0  0  0  0  0  0  0  0  0  0  0
  189.5770  178.7550  146.3090 C   0  0  0  0  0  2  0  0  0  0  0  0
  189.3390  178.1440  144.9400 C   0  0  0  0  0  2  0  0  0  0  0  0
  190.1690  178.6950  143.7660 C   0  0  2  0  0  0  0  0  0  0  0  0
  190.7600  175.5900  142.6540 C   0  0  0  0  0  2  0  0  0  0  0  0
  189.2940  177.4490  141.7470 C   0  0  0  0  0  0  0  0  0  0  0  0
  188.4400  175.8730  143.3550 O   0  0  0  0  0  1  0  0  0  0  0  0
  189.3440  176.0530  142.2980 C   0  0  2  0  0  3  0  0  0  0  0  0
  191.4980  177.9260  143.6150 C   0  0  2  0  0  3  0  0  0  0  0  0
  190.4730  180.0480  143.9800 O   0  0  0  0  0  1  0  0  0  0  0  0
  191.4120  176.4070  143.7620 C   0  0  1  0  0  3  0  0  0  0  0  0
  189.2930  177.5870  140.4990 O   0  0  0  0  0  0  0  0  0  0  0  0
  192.4940  178.4370  144.4500 O   0  0  0  0  0  1  0  0  0  0  0  0
  189.4210  178.6060  142.5480 O   0  0  0  0  0  0  0  0  0  0  0  0
  191.6880  175.7590  145.1140 C   0  0  0  0  0  2  0  0  0  0  0  0
  192.3390  174.5320  144.9590 O   0  0  0  0  0  1  0  0  0  0  0  0
  1  4  1  0  0  0  0
  2  6  1  0  0  0  0
  2 33  1  0  0  0  0
  3  2  2  0  0  0  0
  4  6  2  0  0  0  0
  5  1  2  0  0  0  0
  5  3  1  0  0  0  0
  7  5  1  1  0  0  0
  9 31  1  6  0  0  0
  9 11  1  0  0  0  0
 10 29  1  6  0  0  0
 10  7  1  0  0  0  0
 11  8  2  0  0  0  0
 12  7  1  0  0  0  0
 13 14  1  6  0  0  0
 13 16  1  0  0  0  0
 14  9  1  0  0  0  0
 15 11  1  1  0  0  0
 15 16  1  0  0  0  0
 15 10  1  0  0  0  0
 16 12  1  1  0  0  0
 18 23  1  6  0  0  0
 19 22  1  0  0  0  0
 20 18  1  0  0  0  0
 20 19  1  1  0  0  0
 21 20  1  0  0  0  0
 21 18  1  0  0  0  0
 21 17  1  1  0  0  0
 22 17  1  6  0  0  0
 22 13  1  0  0  0  0
 23 25  1  0  0  0  0
 23 24  1  1  0  0  0
 26 29  1  0  0  0  0
 28 26  1  0  0  0  0
 29 27  2  0  0  0  0
 30 31  1  0  0  0  0
 30 32  1  0  0  0  0
 31 32  1  0  0  0  0
 33 34  1  0  0  0  0
 34 35  1  0  0  0  0
 35 36  1  0  0  0  0
 37 39  1  0  0  0  0
 37 36  1  0  0  0  0
 39 40  2  6  0  0  0
 39 38  1  0  0  0  0
 41 39  1  0  0  0  0
 42 41  1  0  0  0  0
 43 49  1  1  0  0  0
 43 42  1  0  0  0  0
 44 50  1  0  0  0  0
 45 47  1  0  0  0  0
 45 53  1  0  0  0  0
 47 44  1  0  0  0  0
 47 46  1  1  0  0  0
 48 50  1  0  0  0  0
 48 43  1  0  0  0  0
 48 52  1  1  0  0  0
 50 54  1  1  0  0  0
 51 45  2  0  0  0  0
 53 43  1  0  0  0  0
 55 54  1  0  0  0  0
M  END
>  <MODEL>
2

>  <REMARK>
 VINA RESULT:      -7.0      3.999      8.975
  Name = 
  15 active torsions:
  status: ('A' for Active; 'I' for Inactive)
    1  A    between atoms: C_1  and  C_21
    2  A    between atoms: C_2  and  C_44
    3  A    between atoms: O_8  and  P_20
    4  A    between atoms: O_8  and  C_43
    5  A    between atoms: C_10  and  C_32
    6  A    between atoms: C_11  and  C_38
    7  A    between atoms: C_16  and  C_17
    8  A    between atoms: C_19  and  C_40
    9  A    between atoms: P_20  and  C_42
   10  A    between atoms: C_21  and  C_42
   11  A    between atoms: C_27  and  C_54
   12  A    between atoms: N_33  and  C_52
   13  A    between atoms: C_35  and  C_43
   14  A    between atoms: C_35  and  C_51
   15  A    between atoms: C_51  and  C_54
                            x       y       z     vdW  Elec       q    Type
                         _______ _______ _______ _____ _____    ______ ____

>  <TORSDO>
F 15

$$$$
=
 OpenBabel10272401383D

 55 61  0  0  1  0  0  0  0  0999 V2000
  181.8450  178.3440  140.2670 C   0  0  0  0  0  3  0  0  0  0  0  0
  184.0210  178.8400  141.9740 C   0  0  0  0  0  0  0  0  0  0  0  0
  184.2360  178.5580  140.6130 C   0  0  0  0  0  3  0  0  0  0  0  0
  181.6250  178.6220  141.6200 C   0  0  0  0  0  3  0  0  0  0  0  0
  183.1550  178.3010  139.7590 C   0  0  0  0  0  0  0  0  0  0  0  0
  182.7110  178.8680  142.4710 C   0  0  0  0  0  3  0  0  0  0  0  0
  183.4060  178.0200  138.3190 C   0  0  2  0  0  3  0  0  0  0  0  0
  181.7420  174.3590  137.4600 C   0  0  0  0  0  2  0  0  0  0  0  0
  183.9180  173.9470  136.3070 C   0  0  2  0  0  3  0  0  0  0  0  0
  182.3020  177.1660  137.7370 C   0  0  2  0  0  3  0  0  0  0  0  0
  182.7790  174.8480  136.7900 C   0  0  0  0  0  0  0  0  0  0  0  0
  184.6170  177.3300  138.1400 O   0  0  0  0  0  0  0  0  0  0  0  0
  185.3890  175.5230  136.8530 N   0  0  2  0  0  0  0  0  0  0  0  0
  184.9770  174.7400  135.8140 O   0  0  0  0  0  0  0  0  0  0  0  0
  183.0150  176.3380  136.6860 C   0  0  2  0  0  3  0  0  0  0  0  0
  184.5030  176.7020  136.8980 C   0  0  1  0  0  3  0  0  0  0  0  0
  187.3560  175.1580  135.3940 C   0  0  0  0  0  2  0  0  0  0  0  0
  189.6230  175.9980  136.0550 C   0  0  2  0  0  3  0  0  0  0  0  0
  187.7020  175.9200  137.6810 C   0  0  0  0  0  2  0  0  0  0  0  0
  188.9930  175.2590  137.2290 C   0  0  1  0  0  3  0  0  0  0  0  0
  188.7650  174.7610  135.8080 C   0  0  1  0  0  3  0  0  0  0  0  0
  186.7360  175.9960  136.5030 C   0  0  2  0  0  3  0  0  0  0  0  0
  191.1270  175.7230  135.9890 C   0  0  2  0  0  3  0  0  0  0  0  0
  191.7820  176.2540  137.2470 C   0  0  0  0  0  1  0  0  0  0  0  0
  191.7540  176.2700  134.8620 O   0  0  0  0  0  1  0  0  0  0  0  0
  181.4970  179.2640  136.5380 N   0  0  0  0  0  2  0  0  0  0  0  0
  180.0150  177.5750  137.1990 O   0  0  0  0  0  0  0  0  0  0  0  0
  180.4690  180.0730  135.9020 C   0  0  0  0  0  1  0  0  0  0  0  0
  181.2070  177.9940  137.1390 C   0  0  0  0  0  0  0  0  0  0  0  0
  184.7200  171.9810  134.8000 C   0  0  0  0  0  2  0  0  0  0  0  0
  183.5640  172.8740  135.2520 C   0  0  0  0  0  3  0  0  0  0  0  0
  183.7360  171.4780  135.8400 C   0  0  0  0  0  2  0  0  0  0  0  0
  185.2190  179.0910  142.8410 C   0  0  0  0  0  2  0  0  0  0  0  0
  185.2610  178.2890  144.1510 C   0  0  0  0  0  2  0  0  0  0  0  0
  185.5540  179.2080  145.3320 C   0  0  0  0  0  2  0  0  0  0  0  0
  185.8710  178.3970  146.5750 C   0  0  0  0  0  2  0  0  0  0  0  0
  186.7540  177.3720  146.2340 O   0  0  0  0  0  0  0  0  0  0  0  0
  187.8820  178.7550  148.3730 O   0  0  0  0  0  1  0  0  0  0  0  0
  188.1200  177.5290  147.2270 P   0  0  1  0  0  0  0  0  0  0  0  0
  188.4550  176.2420  147.9610 O   0  0  0  0  0  0  0  0  0  0  0  0
  189.5390  177.9370  146.1600 C   0  0  0  0  0  2  0  0  0  0  0  0
  189.1200  177.9080  144.7010 C   0  0  0  0  0  2  0  0  0  0  0  0
  190.0070  178.6670  143.6960 C   0  0  2  0  0  0  0  0  0  0  0  0
  189.9540  176.0570  141.5950 C   0  0  0  0  0  2  0  0  0  0  0  0
  188.8500  178.3360  141.4730 C   0  0  0  0  0  0  0  0  0  0  0  0
  187.7530  176.4870  142.5590 O   0  0  0  0  0  1  0  0  0  0  0  0
  188.6450  176.8490  141.5380 C   0  0  2  0  0  3  0  0  0  0  0  0
  191.1570  177.7750  143.1850 C   0  0  2  0  0  3  0  0  0  0  0  0
  190.5730  179.7970  144.3060 O   0  0  0  0  0  1  0  0  0  0  0  0
  190.7830  176.3320  142.8430 C   0  0  1  0  0  3  0  0  0  0  0  0
  188.8400  178.8790  140.3410 O   0  0  0  0  0  0  0  0  0  0  0  0
  192.2570  177.7970  144.0460 O   0  0  0  0  0  1  0  0  0  0  0  0
  189.2220  179.1190  142.5880 O   0  0  0  0  0  0  0  0  0  0  0  0
  190.9670  175.2330  143.8840 C   0  0  0  0  0  2  0  0  0  0  0  0
  192.3130  174.8770  144.0050 O   0  0  0  0  0  1  0  0  0  0  0  0
  1  4  1  0  0  0  0
  2  6  1  0  0  0  0
  2 33  1  0  0  0  0
  3  2  2  0  0  0  0
  4  6  2  0  0  0  0
  5  1  2  0  0  0  0
  5  3  1  0  0  0  0
  7  5  1  1  0  0  0
  9 31  1  6  0  0  0
  9 11  1  0  0  0  0
 10 29  1  6  0  0  0
 10  7  1  0  0  0  0
 11  8  2  0  0  0  0
 12  7  1  0  0  0  0
 13 14  1  6  0  0  0
 13 16  1  0  0  0  0
 14  9  1  0  0  0  0
 15 11  1  1  0  0  0
 15 16  1  0  0  0  0
 15 10  1  0  0  0  0
 16 12  1  1  0  0  0
 18 23  1  1  0  0  0
 18 20  1  0  0  0  0
 20 19  1  6  0  0  0
 21 17  1  6  0  0  0
 21 18  1  0  0  0  0
 21 20  1  0  0  0  0
 22 17  1  6  0  0  0
 22 13  1  0  0  0  0
 22 19  1  0  0  0  0
 23 24  1  1  0  0  0
 25 23  1  0  0  0  0
 26 29  1  0  0  0  0
 28 26  1  0  0  0  0
 29 27  2  0  0  0  0
 30 31  1  0  0  0  0
 30 32  1  0  0  0  0
 31 32  1  0  0  0  0
 33 34  1  0  0  0  0
 34 35  1  0  0  0  0
 35 36  1  0  0  0  0
 37 36  1  0  0  0  0
 37 39  1  0  0  0  0
 39 40  2  1  0  0  0
 39 38  1  0  0  0  0
 41 39  1  0  0  0  0
 42 41  1  0  0  0  0
 43 49  1  1  0  0  0
 43 42  1  0  0  0  0
 44 50  1  0  0  0  0
 45 47  1  0  0  0  0
 45 53  1  0  0  0  0
 47 44  1  0  0  0  0
 47 46  1  1  0  0  0
 48 43  1  0  0  0  0
 48 52  1  1  0  0  0
 50 48  1  0  0  0  0
 50 54  1  1  0  0  0
 51 45  2  0  0  0  0
 53 43  1  0  0  0  0
 54 55  1  0  0  0  0
M  END
>  <MODEL>
3

>  <REMARK>
 VINA RESULT:      -6.4      3.399      8.078
  Name = 
  15 active torsions:
  status: ('A' for Active; 'I' for Inactive)
    1  A    between atoms: C_1  and  C_21
    2  A    between atoms: C_2  and  C_44
    3  A    between atoms: O_8  and  P_20
    4  A    between atoms: O_8  and  C_43
    5  A    between atoms: C_10  and  C_32
    6  A    between atoms: C_11  and  C_38
    7  A    between atoms: C_16  and  C_17
    8  A    between atoms: C_19  and  C_40
    9  A    between atoms: P_20  and  C_42
   10  A    between atoms: C_21  and  C_42
   11  A    between atoms: C_27  and  C_54
   12  A    between atoms: N_33  and  C_52
   13  A    between atoms: C_35  and  C_43
   14  A    between atoms: C_35  and  C_51
   15  A    between atoms: C_51  and  C_54
                            x       y       z     vdW  Elec       q    Type
                         _______ _______ _______ _____ _____    ______ ____

>  <TORSDO>
F 15

$$$$
=
 OpenBabel10272401383D

 55 61  0  0  1  0  0  0  0  0999 V2000
  182.0890  178.6900  141.1580 C   0  0  0  0  0  3  0  0  0  0  0  0
  184.2740  178.9000  142.9110 C   0  0  0  0  0  0  0  0  0  0  0  0
  184.4770  178.9030  141.5200 C   0  0  0  0  0  3  0  0  0  0  0  0
  181.8800  178.6840  142.5410 C   0  0  0  0  0  3  0  0  0  0  0  0
  183.3920  178.7910  140.6400 C   0  0  0  0  0  0  0  0  0  0  0  0
  182.9710  178.7870  143.4150 C   0  0  0  0  0  3  0  0  0  0  0  0
  183.6300  178.8130  139.1710 C   0  0  2  0  0  3  0  0  0  0  0  0
  181.4820  175.7200  137.5180 C   0  0  0  0  0  2  0  0  0  0  0  0
  183.6000  175.2770  136.2740 C   0  0  2  0  0  3  0  0  0  0  0  0
  182.4270  178.2800  138.4230 C   0  0  2  0  0  3  0  0  0  0  0  0
  182.5910  176.1960  136.9650 C   0  0  0  0  0  0  0  0  0  0  0  0
  184.7340  178.0170  138.8230 O   0  0  0  0  0  0  0  0  0  0  0  0
  185.2680  176.4600  137.1470 N   0  0  2  0  0  0  0  0  0  0  0  0
  184.7710  176.0020  135.9630 O   0  0  0  0  0  0  0  0  0  0  0  0
  183.0380  177.6220  137.2020 C   0  0  2  0  0  3  0  0  0  0  0  0
  184.5570  177.7120  137.4720 C   0  0  1  0  0  3  0  0  0  0  0  0
  187.5310  175.5620  136.6930 C   0  0  0  0  0  2  0  0  0  0  0  0
  189.5800  176.9120  137.2040 C   0  0  2  0  0  3  0  0  0  0  0  0
  187.3030  177.5610  138.0640 C   0  0  0  0  0  2  0  0  0  0  0  0
  188.6440  176.9330  138.4070 C   0  0  1  0  0  3  0  0  0  0  0  0
  188.7710  175.6700  137.5660 C   0  0  1  0  0  3  0  0  0  0  0  0
  186.6760  176.8050  136.8980 C   0  0  2  0  0  3  0  0  0  0  0  0
  191.0390  176.8470  137.6580 C   0  0  2  0  0  3  0  0  0  0  0  0
  191.8330  176.0300  136.6600 C   0  0  0  0  0  1  0  0  0  0  0  0
  191.2090  176.3180  138.9450 O   0  0  0  0  0  1  0  0  0  0  0  0
  181.8680  180.7470  138.1230 N   0  0  0  0  0  2  0  0  0  0  0  0
  180.3000  179.0640  137.6850 O   0  0  0  0  0  0  0  0  0  0  0  0
  180.9890  181.8310  137.7150 C   0  0  0  0  0  1  0  0  0  0  0  0
  181.4740  179.3710  138.0440 C   0  0  0  0  0  0  0  0  0  0  0  0
  183.5230  173.0620  134.9060 C   0  0  0  0  0  2  0  0  0  0  0  0
  183.1200  174.5340  135.0060 C   0  0  0  0  0  3  0  0  0  0  0  0
  182.1310  173.4360  135.3790 C   0  0  0  0  0  2  0  0  0  0  0  0
  185.4770  179.0070  143.8000 C   0  0  0  0  0  2  0  0  0  0  0  0
  185.5090  178.0280  144.9840 C   0  0  0  0  0  2  0  0  0  0  0  0
  185.1540  178.7450  146.2820 C   0  0  0  0  0  2  0  0  0  0  0  0
  186.2650  178.5830  147.3030 C   0  0  0  0  0  2  0  0  0  0  0  0
  187.2960  177.8350  146.7360 O   0  0  0  0  0  0  0  0  0  0  0  0
  188.0290  178.1570  149.4040 O   0  0  0  0  0  1  0  0  0  0  0  0
  188.2360  177.2200  148.0070 P   0  0  1  0  0  0  0  0  0  0  0  0
  187.8900  175.7780  148.3390 O   0  0  0  0  0  0  0  0  0  0  0  0
  189.9790  177.2590  147.4800 C   0  0  0  0  0  2  0  0  0  0  0  0
  190.1360  176.5580  146.1430 C   0  0  0  0  0  2  0  0  0  0  0  0
  191.5240  176.6080  145.4770 C   0  0  2  0  0  0  0  0  0  0  0  0
  190.1820  177.7920  142.6440 C   0  0  0  0  0  2  0  0  0  0  0  0
  191.6200  178.8990  144.4130 C   0  0  0  0  0  0  0  0  0  0  0  0
  189.2210  178.8620  144.6150 O   0  0  0  0  0  1  0  0  0  0  0  0
  190.2930  178.8840  143.7110 C   0  0  2  0  0  3  0  0  0  0  0  0
  191.4830  175.9960  144.0610 C   0  0  2  0  0  3  0  0  0  0  0  0
  192.4520  175.8800  146.2370 O   0  0  0  0  0  1  0  0  0  0  0  0
  190.2780  176.3770  143.2010 C   0  0  1  0  0  3  0  0  0  0  0  0
  192.4990  179.6900  143.9900 O   0  0  0  0  0  0  0  0  0  0  0  0
  191.6380  174.6080  144.0870 O   0  0  0  0  0  1  0  0  0  0  0  0
  191.9870  177.9600  145.4030 O   0  0  0  0  0  0  0  0  0  0  0  0
  189.0560  175.4670  143.1630 C   0  0  0  0  0  2  0  0  0  0  0  0
  187.8750  176.2140  143.1160 O   0  0  0  0  0  1  0  0  0  0  0  0
  1  4  1  0  0  0  0
  2  6  1  0  0  0  0
  2 33  1  0  0  0  0
  3  2  2  0  0  0  0
  4  6  2  0  0  0  0
  5  1  2  0  0  0  0
  5  3  1  0  0  0  0
  7  5  1  1  0  0  0
  9 31  1  6  0  0  0
  9 11  1  0  0  0  0
 10 29  1  6  0  0  0
 10  7  1  0  0  0  0
 11  8  2  0  0  0  0
 12  7  1  0  0  0  0
 13 14  1  6  0  0  0
 13 16  1  0  0  0  0
 14  9  1  0  0  0  0
 15 11  1  1  0  0  0
 15 16  1  0  0  0  0
 15 10  1  0  0  0  0
 16 12  1  1  0  0  0
 18 21  1  0  0  0  0
 18 23  1  1  0  0  0
 18 20  1  0  0  0  0
 20 19  1  6  0  0  0
 21 17  1  6  0  0  0
 21 20  1  0  0  0  0
 22 17  1  1  0  0  0
 22 13  1  0  0  0  0
 22 19  1  0  0  0  0
 23 24  1  6  0  0  0
 23 25  1  0  0  0  0
 27 29  2  0  0  0  0
 28 26  1  0  0  0  0
 29 26  1  0  0  0  0
 30 31  1  0  0  0  0
 30 32  1  0  0  0  0
 31 32  1  0  0  0  0
 33 34  1  0  0  0  0
 34 35  1  0  0  0  0
 35 36  1  0  0  0  0
 37 36  1  0  0  0  0
 37 39  1  0  0  0  0
 39 40  2  1  0  0  0
 39 38  1  0  0  0  0
 41 39  1  0  0  0  0
 42 41  1  0  0  0  0
 43 42  1  0  0  0  0
 43 49  1  1  0  0  0
 44 50  1  0  0  0  0
 44 47  1  0  0  0  0
 45 53  1  0  0  0  0
 47 45  1  0  0  0  0
 47 46  1  1  0  0  0
 48 52  1  1  0  0  0
 48 43  1  0  0  0  0
 50 54  1  1  0  0  0
 50 48  1  0  0  0  0
 51 45  2  0  0  0  0
 53 43  1  0  0  0  0
 55 54  1  0  0  0  0
M  END
>  <MODEL>
4

>  <REMARK>
 VINA RESULT:      -6.2      3.836      8.694
  Name = 
  15 active torsions:
  status: ('A' for Active; 'I' for Inactive)
    1  A    between atoms: C_1  and  C_21
    2  A    between atoms: C_2  and  C_44
    3  A    between atoms: O_8  and  P_20
    4  A    between atoms: O_8  and  C_43
    5  A    between atoms: C_10  and  C_32
    6  A    between atoms: C_11  and  C_38
    7  A    between atoms: C_16  and  C_17
    8  A    between atoms: C_19  and  C_40
    9  A    between atoms: P_20  and  C_42
   10  A    between atoms: C_21  and  C_42
   11  A    between atoms: C_27  and  C_54
   12  A    between atoms: N_33  and  C_52
   13  A    between atoms: C_35  and  C_43
   14  A    between atoms: C_35  and  C_51
   15  A    between atoms: C_51  and  C_54
                            x       y       z     vdW  Elec       q    Type
                         _______ _______ _______ _____ _____    ______ ____

>  <TORSDO>
F 15

$$$$
=
 OpenBabel10272401383D

 55 61  0  0  1  0  0  0  0  0999 V2000
  182.9820  178.4360  139.2810 C   0  0  0  0  0  3  0  0  0  0  0  0
  184.5590  178.5390  141.6040 C   0  0  0  0  0  0  0  0  0  0  0  0
  185.1490  178.2710  140.3570 C   0  0  0  0  0  3  0  0  0  0  0  0
  182.3890  178.7020  140.5190 C   0  0  0  0  0  3  0  0  0  0  0  0
  184.3670  178.2100  139.1950 C   0  0  0  0  0  0  0  0  0  0  0  0
  183.1750  178.7520  141.6780 C   0  0  0  0  0  3  0  0  0  0  0  0
  185.0170  177.9400  137.8840 C   0  0  2  0  0  3  0  0  0  0  0  0
  183.9760  174.1270  136.7460 C   0  0  0  0  0  2  0  0  0  0  0  0
  186.4090  173.9140  136.2240 C   0  0  2  0  0  3  0  0  0  0  0  0
  184.1880  176.9770  137.0610 C   0  0  2  0  0  3  0  0  0  0  0  0
  185.1070  174.7060  136.3570 C   0  0  0  0  0  0  0  0  0  0  0  0
  186.2880  177.3670  138.0560 O   0  0  0  0  0  0  0  0  0  0  0  0
  187.5340  175.6290  137.0830 N   0  0  2  0  0  0  0  0  0  0  0  0
  187.4850  174.8000  136.0010 O   0  0  0  0  0  0  0  0  0  0  0  0
  185.2270  176.2110  136.2660 C   0  0  2  0  0  3  0  0  0  0  0  0
  186.5660  176.7180  136.8510 C   0  0  1  0  0  3  0  0  0  0  0  0
  189.8990  175.3120  136.4240 C   0  0  0  0  0  2  0  0  0  0  0  0
  191.7370  176.5670  137.5760 C   0  0  2  0  0  3  0  0  0  0  0  0
  189.3940  176.4860  138.4960 C   0  0  0  0  0  2  0  0  0  0  0  0
  190.8120  175.9510  138.6180 C   0  0  1  0  0  3  0  0  0  0  0  0
  191.1140  175.1960  137.3310 C   0  0  1  0  0  3  0  0  0  0  0  0
  188.8770  176.2260  137.0850 C   0  0  2  0  0  3  0  0  0  0  0  0
  193.1930  176.5030  138.0440 C   0  0  2  0  0  3  0  0  0  0  0  0
  193.2900  177.0840  139.4400 C   0  0  0  0  0  1  0  0  0  0  0  0
  194.0900  177.1620  137.1930 O   0  0  0  0  0  1  0  0  0  0  0  0
  182.1220  178.4250  136.7170 N   0  0  0  0  0  2  0  0  0  0  0  0
  183.3710  177.6100  134.9120 O   0  0  0  0  0  0  0  0  0  0  0  0
  181.1940  179.1730  135.8840 C   0  0  0  0  0  1  0  0  0  0  0  0
  183.2230  177.6910  136.1660 C   0  0  0  0  0  0  0  0  0  0  0  0
  187.7920  172.0980  134.9720 C   0  0  0  0  0  2  0  0  0  0  0  0
  186.4470  172.8010  135.1520 C   0  0  0  0  0  3  0  0  0  0  0  0
  186.7040  171.4470  135.8040 C   0  0  0  0  0  2  0  0  0  0  0  0
  185.4460  178.5760  142.8120 C   0  0  0  0  0  2  0  0  0  0  0  0
  184.7290  178.4050  144.1600 C   0  0  0  0  0  2  0  0  0  0  0  0
  185.0650  179.5610  145.0960 C   0  0  0  0  0  2  0  0  0  0  0  0
  185.0040  179.1110  146.5450 C   0  0  0  0  0  2  0  0  0  0  0  0
  185.4280  177.7840  146.6250 O   0  0  0  0  0  0  0  0  0  0  0  0
  187.5100  179.2120  147.8030 O   0  0  0  0  0  1  0  0  0  0  0  0
  187.0900  177.8020  146.9600 P   0  0  1  0  0  0  0  0  0  0  0  0
  187.5310  176.6020  147.7800 O   0  0  0  0  0  0  0  0  0  0  0  0
  187.9780  177.7370  145.3700 C   0  0  0  0  0  2  0  0  0  0  0  0
  189.1560  176.7850  145.4690 C   0  0  0  0  0  2  0  0  0  0  0  0
  190.4970  177.3670  145.9550 C   0  0  2  0  0  0  0  0  0  0  0  0
  191.7500  177.2120  142.8510 C   0  0  0  0  0  2  0  0  0  0  0  0
  191.0310  179.1810  144.2760 C   0  0  0  0  0  0  0  0  0  0  0  0
  189.4550  178.0390  142.8580 O   0  0  0  0  0  1  0  0  0  0  0  0
  190.8010  178.4020  143.0130 C   0  0  2  0  0  3  0  0  0  0  0  0
  191.6880  176.5580  145.4000 C   0  0  2  0  0  3  0  0  0  0  0  0
  190.5620  177.3290  147.3560 O   0  0  0  0  0  1  0  0  0  0  0  0
  191.5910  176.1480  143.9300 C   0  0  1  0  0  3  0  0  0  0  0  0
  191.7610  180.2000  144.2120 O   0  0  0  0  0  0  0  0  0  0  0  0
  191.9780  175.4460  146.1930 O   0  0  0  0  0  1  0  0  0  0  0  0
  190.6160  178.7350  145.5510 O   0  0  0  0  0  0  0  0  0  0  0  0
  191.0410  174.7760  143.5600 C   0  0  0  0  0  2  0  0  0  0  0  0
  189.7730  174.8820  142.9820 O   0  0  0  0  0  1  0  0  0  0  0  0
  1  4  1  0  0  0  0
  2  6  1  0  0  0  0
  2 33  1  0  0  0  0
  3  2  2  0  0  0  0
  4  6  2  0  0  0  0
  5  1  2  0  0  0  0
  5  3  1  0  0  0  0
  7 12  1  0  0  0  0
  7  5  1  1  0  0  0
  9 31  1  6  0  0  0
  9 11  1  0  0  0  0
 10 29  1  6  0  0  0
 10  7  1  0  0  0  0
 11  8  2  0  0  0  0
 13 14  1  6  0  0  0
 13 22  1  0  0  0  0
 14  9  1  0  0  0  0
 15 11  1  1  0  0  0
 15 16  1  0  0  0  0
 15 10  1  0  0  0  0
 16 13  1  0  0  0  0
 16 12  1  1  0  0  0
 18 23  1  1  0  0  0
 18 20  1  0  0  0  0
 20 19  1  6  0  0  0
 21 17  1  6  0  0  0
 21 18  1  0  0  0  0
 21 20  1  0  0  0  0
 22 17  1  1  0  0  0
 22 19  1  0  0  0  0
 23 24  1  1  0  0  0
 25 23  1  0  0  0  0
 27 29  2  0  0  0  0
 28 26  1  0  0  0  0
 29 26  1  0  0  0  0
 30 31  1  0  0  0  0
 30 32  1  0  0  0  0
 31 32  1  0  0  0  0
 33 34  1  0  0  0  0
 34 35  1  0  0  0  0
 35 36  1  0  0  0  0
 36 37  1  0  0  0  0
 37 39  1  0  0  0  0
 39 40  2  1  0  0  0
 39 38  1  0  0  0  0
 41 42  1  0  0  0  0
 41 39  1  0  0  0  0
 42 43  1  0  0  0  0
 43 49  1  1  0  0  0
 44 47  1  0  0  0  0
 44 50  1  0  0  0  0
 45 53  1  0  0  0  0
 47 46  1  1  0  0  0
 47 45  1  0  0  0  0
 48 43  1  0  0  0  0
 48 52  1  1  0  0  0
 50 54  1  1  0  0  0
 50 48  1  0  0  0  0
 51 45  2  0  0  0  0
 53 43  1  0  0  0  0
 55 54  1  0  0  0  0
M  END
>  <MODEL>
5

>  <REMARK>
 VINA RESULT:      -5.4      3.633      7.688
  Name = 
  15 active torsions:
  status: ('A' for Active; 'I' for Inactive)
    1  A    between atoms: C_1  and  C_21
    2  A    between atoms: C_2  and  C_44
    3  A    between atoms: O_8  and  P_20
    4  A    between atoms: O_8  and  C_43
    5  A    between atoms: C_10  and  C_32
    6  A    between atoms: C_11  and  C_38
    7  A    between atoms: C_16  and  C_17
    8  A    between atoms: C_19  and  C_40
    9  A    between atoms: P_20  and  C_42
   10  A    between atoms: C_21  and  C_42
   11  A    between atoms: C_27  and  C_54
   12  A    between atoms: N_33  and  C_52
   13  A    between atoms: C_35  and  C_43
   14  A    between atoms: C_35  and  C_51
   15  A    between atoms: C_51  and  C_54
                            x       y       z     vdW  Elec       q    Type
                         _______ _______ _______ _____ _____    ______ ____

>  <TORSDO>
F 15

$$$$
=
 OpenBabel10272401383D

 55 61  0  0  1  0  0  0  0  0999 V2000
  186.3410  177.8820  135.8440 C   0  0  0  0  0  3  0  0  0  0  0  0
  187.3520  175.4050  134.9870 C   0  0  0  0  0  0  0  0  0  0  0  0
  186.3300  175.4590  135.9510 C   0  0  0  0  0  3  0  0  0  0  0  0
  187.3590  177.8350  134.8860 C   0  0  0  0  0  3  0  0  0  0  0  0
  185.8270  176.6930  136.3880 C   0  0  0  0  0  0  0  0  0  0  0  0
  187.8640  176.5990  134.4600 C   0  0  0  0  0  3  0  0  0  0  0  0
  184.7350  176.7250  137.3980 C   0  0  2  0  0  3  0  0  0  0  0  0
  181.6460  178.9300  135.8140 C   0  0  0  0  0  2  0  0  0  0  0  0
  181.6300  180.0150  138.0630 C   0  0  2  0  0  3  0  0  0  0  0  0
  183.3830  176.8280  136.7250 C   0  0  2  0  0  3  0  0  0  0  0  0
  181.8560  178.8300  137.1220 C   0  0  0  0  0  0  0  0  0  0  0  0
  184.8680  177.8290  138.2560 O   0  0  0  0  0  0  0  0  0  0  0  0
  183.4540  179.4480  139.2030 N   0  0  2  0  0  0  0  0  0  0  0  0
  182.1220  179.7010  139.3490 O   0  0  0  0  0  0  0  0  0  0  0  0
  182.5600  177.6290  137.7140 C   0  0  2  0  0  3  0  0  0  0  0  0
  183.5940  178.0400  138.7870 C   0  0  1  0  0  3  0  0  0  0  0  0
  185.4160  178.9130  140.6160 C   0  0  0  0  0  2  0  0  0  0  0  0
  185.2210  178.8330  143.1140 C   0  0  2  0  0  3  0  0  0  0  0  0
  183.1960  178.9030  141.6180 C   0  0  0  0  0  2  0  0  0  0  0  0
  184.0850  178.0310  142.4900 C   0  0  1  0  0  3  0  0  0  0  0  0
  185.4650  178.0200  141.8460 C   0  0  1  0  0  3  0  0  0  0  0  0
  184.0460  179.5730  140.5430 C   0  0  2  0  0  3  0  0  0  0  0  0
  185.7270  178.1500  144.3860 C   0  0  2  0  0  3  0  0  0  0  0  0
  184.9540  178.6830  145.5750 C   0  0  0  0  0  1  0  0  0  0  0  0
  187.1010  178.3070  144.6050 O   0  0  0  0  0  1  0  0  0  0  0  0
  182.2090  174.7190  137.5370 N   0  0  0  0  0  2  0  0  0  0  0  0
  182.8130  175.0090  135.2930 O   0  0  0  0  0  0  0  0  0  0  0  0
  181.5690  173.4320  137.3160 C   0  0  0  0  0  1  0  0  0  0  0  0
  182.7810  175.4820  136.4660 C   0  0  0  0  0  0  0  0  0  0  0  0
  179.9900  181.7210  139.1480 C   0  0  0  0  0  2  0  0  0  0  0  0
  180.1830  180.5420  138.1940 C   0  0  0  0  0  3  0  0  0  0  0  0
  180.0870  181.9630  137.6540 C   0  0  0  0  0  2  0  0  0  0  0  0
  187.8590  174.0560  134.5700 C   0  0  0  0  0  2  0  0  0  0  0  0
  189.3800  173.9560  134.3780 C   0  0  0  0  0  2  0  0  0  0  0  0
  190.1090  174.7430  135.4620 C   0  0  0  0  0  2  0  0  0  0  0  0
  191.4980  175.1360  134.9930 C   0  0  0  0  0  2  0  0  0  0  0  0
  192.0810  175.9680  135.9490 O   0  0  0  0  0  0  0  0  0  0  0  0
  191.0010  175.4270  138.4590 O   0  0  0  0  0  1  0  0  0  0  0  0
  192.2510  175.0630  137.3730 P   0  0  1  0  0  0  0  0  0  0  0  0
  192.2420  173.5660  137.1140 O   0  0  0  0  0  0  0  0  0  0  0  0
  193.8620  175.4840  138.1110 C   0  0  0  0  0  2  0  0  0  0  0  0
  194.9780  174.7690  137.3710 C   0  0  0  0  0  2  0  0  0  0  0  0
  196.0800  174.1090  138.2210 C   0  0  2  0  0  0  0  0  0  0  0  0
  197.4160  172.6980  135.4910 C   0  0  0  0  0  2  0  0  0  0  0  0
  198.2150  174.6020  136.9610 C   0  0  0  0  0  0  0  0  0  0  0  0
  196.7640  175.0140  135.0840 O   0  0  0  0  0  1  0  0  0  0  0  0
  197.7760  174.1830  135.5880 C   0  0  2  0  0  3  0  0  0  0  0  0
  196.2510  172.6200  137.8500 C   0  0  2  0  0  3  0  0  0  0  0  0
  195.7490  174.1800  139.5830 O   0  0  0  0  0  1  0  0  0  0  0  0
  196.2280  172.2970  136.3560 C   0  0  1  0  0  3  0  0  0  0  0  0
  199.4480  174.6310  137.1990 O   0  0  0  0  0  0  0  0  0  0  0  0
  195.3490  171.8040  138.5350 O   0  0  0  0  0  1  0  0  0  0  0  0
  197.3220  174.7960  138.0390 O   0  0  0  0  0  0  0  0  0  0  0  0
  194.9240  171.8670  135.6930 C   0  0  0  0  0  2  0  0  0  0  0  0
  195.1550  170.8990  134.7120 O   0  0  0  0  0  1  0  0  0  0  0  0
  1  5  1  0  0  0  0
  2  3  1  0  0  0  0
  3  5  2  0  0  0  0
  4  1  2  0  0  0  0
  6  4  1  0  0  0  0
  6  2  2  0  0  0  0
  7  5  1  6  0  0  0
  7 12  1  0  0  0  0
  8 11  2  0  0  0  0
  9 31  1  1  0  0  0
  9 14  1  0  0  0  0
 10 29  1  1  0  0  0
 10  7  1  0  0  0  0
 10 15  1  0  0  0  0
 11  9  1  0  0  0  0
 13 14  1  1  0  0  0
 13 22  1  0  0  0  0
 15 11  1  6  0  0  0
 15 16  1  0  0  0  0
 16 12  1  6  0  0  0
 16 13  1  0  0  0  0
 18 23  1  1  0  0  0
 20 19  1  6  0  0  0
 20 18  1  0  0  0  0
 21 17  1  6  0  0  0
 21 20  1  0  0  0  0
 21 18  1  0  0  0  0
 22 17  1  6  0  0  0
 22 19  1  0  0  0  0
 23 25  1  0  0  0  0
 23 24  1  1  0  0  0
 27 29  2  0  0  0  0
 28 26  1  0  0  0  0
 29 26  1  0  0  0  0
 31 30  1  0  0  0  0
 32 31  1  0  0  0  0
 32 30  1  0  0  0  0
 33  2  1  0  0  0  0
 34 33  1  0  0  0  0
 34 35  1  0  0  0  0
 36 35  1  0  0  0  0
 36 37  1  0  0  0  0
 37 39  1  0  0  0  0
 39 40  2  6  0  0  0
 39 41  1  0  0  0  0
 39 38  1  0  0  0  0
 42 41  1  0  0  0  0
 42 43  1  0  0  0  0
 43 49  1  1  0  0  0
 44 47  1  0  0  0  0
 44 50  1  0  0  0  0
 45 51  2  0  0  0  0
 45 53  1  0  0  0  0
 47 46  1  1  0  0  0
 47 45  1  0  0  0  0
 48 43  1  0  0  0  0
 48 52  1  1  0  0  0
 50 54  1  6  0  0  0
 50 48  1  0  0  0  0
 53 43  1  0  0  0  0
 55 54  1  0  0  0  0
M  END
>  <MODEL>
6

>  <REMARK>
 VINA RESULT:      -5.1      3.101     11.322
  Name = 
  15 active torsions:
  status: ('A' for Active; 'I' for Inactive)
    1  A    between atoms: C_1  and  C_21
    2  A    between atoms: C_2  and  C_44
    3  A    between atoms: O_8  and  P_20
    4  A    between atoms: O_8  and  C_43
    5  A    between atoms: C_10  and  C_32
    6  A    between atoms: C_11  and  C_38
    7  A    between atoms: C_16  and  C_17
    8  A    between atoms: C_19  and  C_40
    9  A    between atoms: P_20  and  C_42
   10  A    between atoms: C_21  and  C_42
   11  A    between atoms: C_27  and  C_54
   12  A    between atoms: N_33  and  C_52
   13  A    between atoms: C_35  and  C_43
   14  A    between atoms: C_35  and  C_51
   15  A    between atoms: C_51  and  C_54
                            x       y       z     vdW  Elec       q    Type
                         _______ _______ _______ _____ _____    ______ ____

>  <TORSDO>
F 15

$$$$
=
 OpenBabel10272401383D

 55 61  0  0  1  0  0  0  0  0999 V2000
  184.0440  179.3620  143.3230 C   0  0  0  0  0  3  0  0  0  0  0  0
  186.3410  177.7440  143.3500 C   0  0  0  0  0  0  0  0  0  0  0  0
  185.5790  177.8750  142.1760 C   0  0  0  0  0  3  0  0  0  0  0  0
  184.7970  179.2340  144.4950 C   0  0  0  0  0  3  0  0  0  0  0  0
  184.4270  178.6750  142.1580 C   0  0  0  0  0  0  0  0  0  0  0  0
  185.9420  178.4260  144.5080 C   0  0  0  0  0  3  0  0  0  0  0  0
  183.6450  178.8110  140.8990 C   0  0  2  0  0  3  0  0  0  0  0  0
  181.1140  175.5800  140.6540 C   0  0  0  0  0  2  0  0  0  0  0  0
  181.9240  175.4710  138.2950 C   0  0  2  0  0  3  0  0  0  0  0  0
  182.2780  178.1790  141.0440 C   0  0  2  0  0  3  0  0  0  0  0  0
  181.5630  176.2190  139.5800 C   0  0  0  0  0  0  0  0  0  0  0  0
  184.2950  178.1780  139.8270 O   0  0  0  0  0  0  0  0  0  0  0  0
  183.6880  176.7980  138.0250 N   0  0  2  0  0  0  0  0  0  0  0  0
  182.5640  176.3520  137.3950 O   0  0  0  0  0  0  0  0  0  0  0  0
  181.9770  177.6720  139.6480 C   0  0  2  0  0  3  0  0  0  0  0  0
  183.2950  177.9320  138.8830 C   0  0  1  0  0  3  0  0  0  0  0  0
  184.7590  176.3230  135.8430 C   0  0  0  0  0  2  0  0  0  0  0  0
  186.8210  177.5540  135.1250 C   0  0  2  0  0  3  0  0  0  0  0  0
  185.9660  177.6470  137.4920 C   0  0  0  0  0  2  0  0  0  0  0  0
  187.0010  177.0510  136.5520 C   0  0  1  0  0  3  0  0  0  0  0  0
  186.2440  176.2030  135.5380 C   0  0  1  0  0  3  0  0  0  0  0  0
  184.5680  177.3260  136.9720 C   0  0  2  0  0  3  0  0  0  0  0  0
  188.1340  177.4470  134.3460 C   0  0  2  0  0  3  0  0  0  0  0  0
  188.6370  176.0200  134.4180 C   0  0  0  0  0  1  0  0  0  0  0  0
  189.1300  178.3240  134.7940 O   0  0  0  0  0  1  0  0  0  0  0  0
  180.9360  179.2910  142.9010 N   0  0  0  0  0  2  0  0  0  0  0  0
  180.6370  179.8630  140.6500 O   0  0  0  0  0  0  0  0  0  0  0  0
  179.9830  180.2720  143.3960 C   0  0  0  0  0  1  0  0  0  0  0  0
  181.2510  179.1650  141.5080 C   0  0  0  0  0  0  0  0  0  0  0  0
  181.1970  173.7970  136.4380 C   0  0  0  0  0  2  0  0  0  0  0  0
  180.7740  174.7500  137.5560 C   0  0  0  0  0  3  0  0  0  0  0  0
  180.8430  173.2490  137.8070 C   0  0  0  0  0  2  0  0  0  0  0  0
  187.5530  176.8620  143.3100 C   0  0  0  0  0  2  0  0  0  0  0  0
  188.7650  177.4450  142.5670 C   0  0  0  0  0  2  0  0  0  0  0  0
  188.3240  178.1410  141.2840 C   0  0  0  0  0  2  0  0  0  0  0  0
  189.3290  177.8990  140.1720 C   0  0  0  0  0  2  0  0  0  0  0  0
  189.1930  176.5890  139.7150 O   0  0  0  0  0  0  0  0  0  0  0  0
  189.5470  175.2990  137.2720 O   0  0  0  0  0  0  0  0  0  0  0  0
  190.2060  176.4140  138.3670 P   0  0  1  0  0  0  0  0  0  0  0  0
  190.4350  177.7270  137.6380 O   0  0  0  0  0  1  0  0  0  0  0  0
  191.8250  175.8250  138.9600 C   0  0  0  0  0  2  0  0  0  0  0  0
  192.6250  175.2490  137.8060 C   0  0  0  0  0  2  0  0  0  0  0  0
  194.1390  175.5290  137.7870 C   0  0  2  0  0  0  0  0  0  0  0  0
  194.3730  174.3480  134.6590 C   0  0  0  0  0  2  0  0  0  0  0  0
  194.5260  176.7050  135.5830 C   0  0  0  0  0  0  0  0  0  0  0  0
  192.4040  175.7590  134.9480 O   0  0  0  0  0  1  0  0  0  0  0  0
  193.7810  175.7600  134.6830 C   0  0  2  0  0  3  0  0  0  0  0  0
  194.9220  174.3190  137.2340 C   0  0  2  0  0  3  0  0  0  0  0  0
  194.6010  175.7860  139.0870 O   0  0  0  0  0  1  0  0  0  0  0  0
  194.3180  173.6370  136.0060 C   0  0  1  0  0  3  0  0  0  0  0  0
  195.4010  177.4410  135.0640 O   0  0  0  0  0  0  0  0  0  0  0  0
  195.1930  173.3750  138.2260 O   0  0  0  0  0  1  0  0  0  0  0  0
  194.4170  176.6850  136.9910 O   0  0  0  0  0  0  0  0  0  0  0  0
  193.4110  172.4240  136.1810 C   0  0  0  0  0  2  0  0  0  0  0  0
  193.0620  171.8760  134.9440 O   0  0  0  0  0  1  0  0  0  0  0  0
  1  4  1  0  0  0  0
  2  6  1  0  0  0  0
  3  2  2  0  0  0  0
  4  6  2  0  0  0  0
  5  3  1  0  0  0  0
  5  1  2  0  0  0  0
  7 10  1  0  0  0  0
  7  5  1  1  0  0  0
  9 31  1  6  0  0  0
  9 11  1  0  0  0  0
 10 29  1  6  0  0  0
 11  8  2  0  0  0  0
 12  7  1  0  0  0  0
 13 14  1  6  0  0  0
 13 16  1  0  0  0  0
 14  9  1  0  0  0  0
 15 11  1  1  0  0  0
 15 10  1  0  0  0  0
 16 15  1  0  0  0  0
 16 12  1  1  0  0  0
 18 23  1  6  0  0  0
 18 21  1  0  0  0  0
 18 20  1  0  0  0  0
 20 19  1  1  0  0  0
 21 17  1  1  0  0  0
 21 20  1  0  0  0  0
 22 17  1  6  0  0  0
 22 19  1  0  0  0  0
 22 13  1  0  0  0  0
 23 24  1  1  0  0  0
 23 25  1  0  0  0  0
 26 28  1  0  0  0  0
 27 29  2  0  0  0  0
 29 26  1  0  0  0  0
 30 31  1  0  0  0  0
 30 32  1  0  0  0  0
 31 32  1  0  0  0  0
 33  2  1  0  0  0  0
 34 33  1  0  0  0  0
 35 34  1  0  0  0  0
 36 35  1  0  0  0  0
 37 36  1  0  0  0  0
 39 38  2  6  0  0  0
 39 41  1  0  0  0  0
 39 37  1  0  0  0  0
 40 39  1  0  0  0  0
 42 41  1  0  0  0  0
 43 42  1  0  0  0  0
 43 49  1  1  0  0  0
 44 47  1  0  0  0  0
 44 50  1  0  0  0  0
 45 53  1  0  0  0  0
 47 46  1  1  0  0  0
 47 45  1  0  0  0  0
 48 43  1  0  0  0  0
 48 52  1  1  0  0  0
 50 54  1  1  0  0  0
 50 48  1  0  0  0  0
 51 45  2  0  0  0  0
 53 43  1  0  0  0  0
 55 54  1  0  0  0  0
M  END
>  <MODEL>
7

>  <REMARK>
 VINA RESULT:      -5.0      2.750      9.129
  Name = 
  15 active torsions:
  status: ('A' for Active; 'I' for Inactive)
    1  A    between atoms: C_1  and  C_21
    2  A    between atoms: C_2  and  C_44
    3  A    between atoms: O_8  and  P_20
    4  A    between atoms: O_8  and  C_43
    5  A    between atoms: C_10  and  C_32
    6  A    between atoms: C_11  and  C_38
    7  A    between atoms: C_16  and  C_17
    8  A    between atoms: C_19  and  C_40
    9  A    between atoms: P_20  and  C_42
   10  A    between atoms: C_21  and  C_42
   11  A    between atoms: C_27  and  C_54
   12  A    between atoms: N_33  and  C_52
   13  A    between atoms: C_35  and  C_43
   14  A    between atoms: C_35  and  C_51
   15  A    between atoms: C_51  and  C_54
                            x       y       z     vdW  Elec       q    Type
                         _______ _______ _______ _____ _____    ______ ____

>  <TORSDO>
F 15

$$$$
=
 OpenBabel10272401383D

 55 61  0  0  1  0  0  0  0  0999 V2000
  181.9500  179.1980  141.8270 C   0  0  0  0  0  3  0  0  0  0  0  0
  184.1690  178.5130  143.4080 C   0  0  0  0  0  0  0  0  0  0  0  0
  184.2690  178.5110  142.0060 C   0  0  0  0  0  3  0  0  0  0  0  0
  181.8440  179.2000  143.2210 C   0  0  0  0  0  3  0  0  0  0  0  0
  183.1640  178.8440  141.2110 C   0  0  0  0  0  0  0  0  0  0  0  0
  182.9510  178.8570  144.0100 C   0  0  0  0  0  3  0  0  0  0  0  0
  183.2980  178.8500  139.7290 C   0  0  2  0  0  3  0  0  0  0  0  0
  180.4710  176.2750  138.2160 C   0  0  0  0  0  2  0  0  0  0  0  0
  182.3680  175.4500  136.8180 C   0  0  2  0  0  3  0  0  0  0  0  0
  181.9650  178.5790  139.0670 C   0  0  2  0  0  3  0  0  0  0  0  0
  181.6110  176.5350  137.5870 C   0  0  0  0  0  0  0  0  0  0  0  0
  184.1960  177.8600  139.2970 O   0  0  0  0  0  0  0  0  0  0  0  0
  184.2940  176.2640  137.5750 N   0  0  2  0  0  0  0  0  0  0  0  0
  183.6350  175.9380  136.4270 O   0  0  0  0  0  0  0  0  0  0  0  0
  182.3460  177.8400  137.8000 C   0  0  2  0  0  3  0  0  0  0  0  0
  183.8680  177.6240  137.9600 C   0  0  1  0  0  3  0  0  0  0  0  0
  185.9840  177.3540  136.1300 C   0  0  0  0  0  2  0  0  0  0  0  0
  188.1750  176.2370  135.6430 C   0  0  2  0  0  3  0  0  0  0  0  0
  186.2510  175.0010  136.6990 C   0  0  0  0  0  2  0  0  0  0  0  0
  187.0390  175.2450  135.4230 C   0  0  1  0  0  3  0  0  0  0  0  0
  186.8490  176.7110  135.0560 C   0  0  1  0  0  3  0  0  0  0  0  0
  185.7210  176.3310  137.2260 C   0  0  2  0  0  3  0  0  0  0  0  0
  189.2730  176.0400  134.5960 C   0  0  2  0  0  3  0  0  0  0  0  0
  189.8490  174.6470  134.7390 C   0  0  0  0  0  1  0  0  0  0  0  0
  190.3010  176.9890  134.6680 O   0  0  0  0  0  1  0  0  0  0  0  0
  181.9060  180.9870  138.2380 N   0  0  0  0  0  2  0  0  0  0  0  0
  179.9820  179.9020  139.0170 O   0  0  0  0  0  0  0  0  0  0  0  0
  181.2090  182.2140  137.8850 C   0  0  0  0  0  1  0  0  0  0  0  0
  181.2200  179.8430  138.7660 C   0  0  0  0  0  0  0  0  0  0  0  0
  182.2560  173.5360  135.0560 C   0  0  0  0  0  2  0  0  0  0  0  0
  181.6640  174.8430  135.5830 C   0  0  0  0  0  3  0  0  0  0  0  0
  181.0260  173.5060  135.9430 C   0  0  0  0  0  2  0  0  0  0  0  0
  185.3830  178.1330  144.2030 C   0  0  0  0  0  2  0  0  0  0  0  0
  185.1070  177.6630  145.6400 C   0  0  0  0  0  2  0  0  0  0  0  0
  185.2470  178.8240  146.6190 C   0  0  0  0  0  2  0  0  0  0  0  0
  186.2310  178.4770  147.7220 C   0  0  0  0  0  2  0  0  0  0  0  0
  187.4200  179.1700  147.5030 O   0  0  0  0  0  0  0  0  0  0  0  0
  189.5790  178.4070  149.0890 O   0  0  0  0  0  1  0  0  0  0  0  0
  188.6930  178.0650  147.6850 P   0  0  1  0  0  0  0  0  0  0  0  0
  188.2080  176.6270  147.7610 O   0  0  0  0  0  0  0  0  0  0  0  0
  189.7660  178.2060  146.2190 C   0  0  0  0  0  2  0  0  0  0  0  0
  188.9540  177.9850  144.9560 C   0  0  0  0  0  2  0  0  0  0  0  0
  188.9800  176.5750  144.3360 C   0  0  2  0  0  0  0  0  0  0  0  0
  191.0570  177.6160  141.9200 C   0  0  0  0  0  2  0  0  0  0  0  0
  191.4330  176.1190  143.9310 C   0  0  0  0  0  0  0  0  0  0  0  0
  191.6890  178.5080  144.1010 O   0  0  0  0  0  1  0  0  0  0  0  0
  191.7970  177.4030  143.2430 C   0  0  2  0  0  3  0  0  0  0  0  0
  188.7800  176.6360  142.8070 C   0  0  2  0  0  3  0  0  0  0  0  0
  187.9510  175.7900  144.8770 O   0  0  0  0  0  1  0  0  0  0  0  0
  189.5460  177.7390  142.0750 C   0  0  1  0  0  3  0  0  0  0  0  0
  192.1740  175.1230  143.7420 O   0  0  0  0  0  0  0  0  0  0  0  0
  187.4280  176.6750  142.4580 O   0  0  0  0  0  1  0  0  0  0  0  0
  190.2210  175.9280  144.6320 O   0  0  0  0  0  0  0  0  0  0  0  0
  188.8650  179.0720  141.7860 C   0  0  0  0  0  2  0  0  0  0  0  0
  187.5580  178.8780  141.3290 O   0  0  0  0  0  1  0  0  0  0  0  0
  1  4  1  0  0  0  0
  2  6  1  0  0  0  0
  2 33  1  0  0  0  0
  3  2  2  0  0  0  0
  4  6  2  0  0  0  0
  5  1  2  0  0  0  0
  5  3  1  0  0  0  0
  7  5  1  1  0  0  0
  9 31  1  6  0  0  0
  9 11  1  0  0  0  0
 10 29  1  6  0  0  0
 10  7  1  0  0  0  0
 11  8  2  0  0  0  0
 12  7  1  0  0  0  0
 13 14  1  6  0  0  0
 13 16  1  0  0  0  0
 14  9  1  0  0  0  0
 15 11  1  1  0  0  0
 15 16  1  0  0  0  0
 15 10  1  0  0  0  0
 16 12  1  1  0  0  0
 18 23  1  6  0  0  0
 19 22  1  0  0  0  0
 20 18  1  0  0  0  0
 20 19  1  1  0  0  0
 21 20  1  0  0  0  0
 21 18  1  0  0  0  0
 21 17  1  1  0  0  0
 22 17  1  6  0  0  0
 22 13  1  0  0  0  0
 23 25  1  0  0  0  0
 23 24  1  1  0  0  0
 26 29  1  0  0  0  0
 28 26  1  0  0  0  0
 29 27  2  0  0  0  0
 30 31  1  0  0  0  0
 30 32  1  0  0  0  0
 31 32  1  0  0  0  0
 33 34  1  0  0  0  0
 34 35  1  0  0  0  0
 35 36  1  0  0  0  0
 37 39  1  0  0  0  0
 37 36  1  0  0  0  0
 39 40  2  1  0  0  0
 39 38  1  0  0  0  0
 41 39  1  0  0  0  0
 42 41  1  0  0  0  0
 43 53  1  0  0  0  0
 43 49  1  1  0  0  0
 43 42  1  0  0  0  0
 44 50  1  0  0  0  0
 44 47  1  0  0  0  0
 45 53  1  0  0  0  0
 47 45  1  0  0  0  0
 47 46  1  1  0  0  0
 48 52  1  1  0  0  0
 48 43  1  0  0  0  0
 50 54  1  1  0  0  0
 50 48  1  0  0  0  0
 51 45  2  0  0  0  0
 55 54  1  0  0  0  0
M  END
>  <MODEL>
8

>  <REMARK>
 VINA RESULT:      -5.0      3.979      8.592
  Name = 
  15 active torsions:
  status: ('A' for Active; 'I' for Inactive)
    1  A    between atoms: C_1  and  C_21
    2  A    between atoms: C_2  and  C_44
    3  A    between atoms: O_8  and  P_20
    4  A    between atoms: O_8  and  C_43
    5  A    between atoms: C_10  and  C_32
    6  A    between atoms: C_11  and  C_38
    7  A    between atoms: C_16  and  C_17
    8  A    between atoms: C_19  and  C_40
    9  A    between atoms: P_20  and  C_42
   10  A    between atoms: C_21  and  C_42
   11  A    between atoms: C_27  and  C_54
   12  A    between atoms: N_33  and  C_52
   13  A    between atoms: C_35  and  C_43
   14  A    between atoms: C_35  and  C_51
   15  A    between atoms: C_51  and  C_54
                            x       y       z     vdW  Elec       q    Type
                         _______ _______ _______ _____ _____    ______ ____

>  <TORSDO>
F 15

$$$$
=
 OpenBabel10272401383D

 55 61  0  0  1  0  0  0  0  0999 V2000
  184.1990  179.4300  143.3480 C   0  0  0  0  0  3  0  0  0  0  0  0
  186.4640  177.7820  143.5580 C   0  0  0  0  0  0  0  0  0  0  0  0
  185.8050  177.9290  142.3250 C   0  0  0  0  0  3  0  0  0  0  0  0
  184.8500  179.2870  144.5780 C   0  0  0  0  0  3  0  0  0  0  0  0
  184.6690  178.7430  142.2160 C   0  0  0  0  0  0  0  0  0  0  0  0
  185.9790  178.4630  144.6820 C   0  0  0  0  0  3  0  0  0  0  0  0
  183.9970  178.8950  140.8970 C   0  0  2  0  0  3  0  0  0  0  0  0
  181.4620  175.6930  140.4190 C   0  0  0  0  0  2  0  0  0  0  0  0
  182.4650  175.5900  138.1350 C   0  0  2  0  0  3  0  0  0  0  0  0
  182.6160  178.2780  140.9220 C   0  0  2  0  0  3  0  0  0  0  0  0
  182.0060  176.3340  139.3910 C   0  0  0  0  0  0  0  0  0  0  0  0
  184.7280  178.2620  139.8790 O   0  0  0  0  0  0  0  0  0  0  0  0
  184.2600  176.8990  138.0230 N   0  0  2  0  0  0  0  0  0  0  0  0
  183.1870  176.4690  137.2980 O   0  0  0  0  0  0  0  0  0  0  0  0
  182.4270  177.7820  139.5030 C   0  0  2  0  0  3  0  0  0  0  0  0
  183.8080  178.0320  138.8530 C   0  0  1  0  0  3  0  0  0  0  0  0
  185.2180  176.6240  135.7560 C   0  0  0  0  0  2  0  0  0  0  0  0
  187.4860  177.5310  135.1970 C   0  0  2  0  0  3  0  0  0  0  0  0
  186.6630  177.3620  137.5710 C   0  0  0  0  0  2  0  0  0  0  0  0
  187.5580  176.7520  136.5050 C   0  0  1  0  0  3  0  0  0  0  0  0
  186.6490  176.2690  135.3840 C   0  0  1  0  0  3  0  0  0  0  0  0
  185.2300  177.4240  137.0510 C   0  0  2  0  0  3  0  0  0  0  0  0
  188.7530  177.3090  134.3680 C   0  0  2  0  0  3  0  0  0  0  0  0
  189.2730  175.9100  134.6240 C   0  0  0  0  0  1  0  0  0  0  0  0
  189.7650  178.2440  134.6180 O   0  0  0  0  0  1  0  0  0  0  0  0
  181.0920  179.3520  142.6580 N   0  0  0  0  0  2  0  0  0  0  0  0
  181.0690  180.0190  140.4130 O   0  0  0  0  0  0  0  0  0  0  0  0
  180.1100  180.3380  143.0790 C   0  0  0  0  0  1  0  0  0  0  0  0
  181.5640  179.2710  141.3060 C   0  0  0  0  0  0  0  0  0  0  0  0
  180.1680  175.7470  136.9200 C   0  0  0  0  0  2  0  0  0  0  0  0
  181.3730  174.8860  137.2970 C   0  0  0  0  0  3  0  0  0  0  0  0
  181.2790  175.5180  135.9130 C   0  0  0  0  0  2  0  0  0  0  0  0
  187.6650  176.8840  143.6140 C   0  0  0  0  0  2  0  0  0  0  0  0
  188.7690  177.1980  142.5930 C   0  0  0  0  0  2  0  0  0  0  0  0
  188.1640  177.7000  141.2860 C   0  0  0  0  0  2  0  0  0  0  0  0
  189.1790  177.6200  140.1610 C   0  0  0  0  0  2  0  0  0  0  0  0
  189.7220  176.3360  140.1310 O   0  0  0  0  0  0  0  0  0  0  0  0
  189.6000  174.9000  137.7470 O   0  0  0  0  0  0  0  0  0  0  0  0
  190.4190  176.1150  138.6010 P   0  0  1  0  0  0  0  0  0  0  0  0
  190.4010  177.3840  137.7660 O   0  0  0  0  0  1  0  0  0  0  0  0
  192.1600  175.6420  138.8450 C   0  0  0  0  0  2  0  0  0  0  0  0
  192.8890  175.6280  137.5140 C   0  0  0  0  0  2  0  0  0  0  0  0
  192.9970  174.2770  136.7810 C   0  0  2  0  0  0  0  0  0  0  0  0
  196.3010  174.6870  136.3980 C   0  0  0  0  0  2  0  0  0  0  0  0
  194.9620  173.1290  137.8830 C   0  0  0  0  0  0  0  0  0  0  0  0
  195.5630  175.3380  138.6310 O   0  0  0  0  0  1  0  0  0  0  0  0
  195.9510  174.2570  137.8250 C   0  0  2  0  0  3  0  0  0  0  0  0
  193.8430  174.4070  135.4970 C   0  0  2  0  0  3  0  0  0  0  0  0
  191.7210  173.8210  136.4160 O   0  0  0  0  0  1  0  0  0  0  0  0
  195.1170  175.2450  135.6180 C   0  0  1  0  0  3  0  0  0  0  0  0
  195.4100  171.9620  137.9970 O   0  0  0  0  0  0  0  0  0  0  0  0
  193.0800  174.8410  134.4110 O   0  0  0  0  0  1  0  0  0  0  0  0
  193.5790  173.2940  137.6430 O   0  0  0  0  0  0  0  0  0  0  0  0
  195.0930  176.7200  135.2360 C   0  0  0  0  0  2  0  0  0  0  0  0
  196.3600  177.2930  135.3670 O   0  0  0  0  0  1  0  0  0  0  0  0
  1  4  1  0  0  0  0
  2 33  1  0  0  0  0
  2  6  1  0  0  0  0
  3  2  2  0  0  0  0
  4  6  2  0  0  0  0
  5  3  1  0  0  0  0
  5  1  2  0  0  0  0
  7 10  1  0  0  0  0
  7  5  1  1  0  0  0
  9 31  1  6  0  0  0
  9 11  1  0  0  0  0
 10 29  1  6  0  0  0
 11  8  2  0  0  0  0
 12  7  1  0  0  0  0
 13 14  1  6  0  0  0
 13 16  1  0  0  0  0
 14  9  1  0  0  0  0
 15 11  1  1  0  0  0
 15 10  1  0  0  0  0
 16 15  1  0  0  0  0
 16 12  1  1  0  0  0
 18 23  1  6  0  0  0
 18 21  1  0  0  0  0
 18 20  1  0  0  0  0
 20 19  1  1  0  0  0
 21 17  1  1  0  0  0
 21 20  1  0  0  0  0
 22 17  1  6  0  0  0
 22 19  1  0  0  0  0
 22 13  1  0  0  0  0
 23 25  1  0  0  0  0
 23 24  1  1  0  0  0
 26 28  1  0  0  0  0
 27 29  2  0  0  0  0
 29 26  1  0  0  0  0
 30 31  1  0  0  0  0
 32 30  1  0  0  0  0
 32 31  1  0  0  0  0
 34 33  1  0  0  0  0
 35 34  1  0  0  0  0
 36 35  1  0  0  0  0
 37 36  1  0  0  0  0
 39 38  2  6  0  0  0
 39 41  1  0  0  0  0
 39 37  1  0  0  0  0
 40 39  1  0  0  0  0
 42 41  1  0  0  0  0
 43 49  1  6  0  0  0
 43 42  1  0  0  0  0
 43 53  1  0  0  0  0
 44 47  1  0  0  0  0
 45 51  2  0  0  0  0
 47 45  1  0  0  0  0
 47 46  1  1  0  0  0
 48 52  1  6  0  0  0
 48 50  1  0  0  0  0
 48 43  1  0  0  0  0
 50 54  1  1  0  0  0
 50 44  1  0  0  0  0
 53 45  1  0  0  0  0
 54 55  1  0  0  0  0
M  END
>  <MODEL>
9

>  <REMARK>
 VINA RESULT:      -4.7      2.601      8.999
  Name = 
  15 active torsions:
  status: ('A' for Active; 'I' for Inactive)
    1  A    between atoms: C_1  and  C_21
    2  A    between atoms: C_2  and  C_44
    3  A    between atoms: O_8  and  P_20
    4  A    between atoms: O_8  and  C_43
    5  A    between atoms: C_10  and  C_32
    6  A    between atoms: C_11  and  C_38
    7  A    between atoms: C_16  and  C_17
    8  A    between atoms: C_19  and  C_40
    9  A    between atoms: P_20  and  C_42
   10  A    between atoms: C_21  and  C_42
   11  A    between atoms: C_27  and  C_54
   12  A    between atoms: N_33  and  C_52
   13  A    between atoms: C_35  and  C_43
   14  A    between atoms: C_35  and  C_51
   15  A    between atoms: C_51  and  C_54
                            x       y       z     vdW  Elec       q    Type
                         _______ _______ _______ _____ _____    ______ ____

>  <TORSDO>
F 15

$$$$
