=
 OpenBabel10272413583D

 30 32  0  0  1  0  0  0  0  0999 V2000
  186.2690  177.8270  143.0990 C   0  0  0  0  0  0  0  0  0  0  0  0
  184.2320  178.6300  141.9590 C   0  0  0  0  0  2  0  0  0  0  0  0
  185.5400  176.5500  137.6200 C   0  0  0  0  0  2  0  0  0  0  0  0
  187.7090  175.5030  137.1030 C   0  0  0  0  0  2  0  0  0  0  0  0
  187.6460  177.4460  143.0310 N   0  0  0  0  0  2  0  0  0  0  0  0
  189.8240  176.9400  141.8070 C   0  0  2  0  0  3  0  0  0  0  0  0
  188.3050  179.0290  140.9840 S   0  0  0  0  0  0  0  0  0  0  0  0
  189.2740  177.4430  137.4530 C   0  0  1  0  0  0  0  0  0  0  0  0
  189.1300  178.7950  137.2300 C   0  0  0  0  0  0  0  0  0  0  0  0
  188.5200  177.6950  141.9200 C   0  0  0  0  0  0  0  0  0  0  0  0
  190.0400  176.3710  140.4050 C   0  0  0  0  0  2  0  0  0  0  0  0
  183.7470  178.7830  140.5320 C   0  0  0  0  0  2  0  0  0  0  0  0
  190.6470  177.0600  138.0200 C   0  0  1  0  0  3  0  0  0  0  0  0
  185.6600  177.7490  144.2010 O   0  0  0  0  0  0  0  0  0  0  0  0
  185.0140  177.7850  138.0050 O   0  0  0  0  0  0  0  0  0  0  0  0
  183.5980  177.4120  139.8980 C   0  0  0  0  0  2  0  0  0  0  0  0
  185.5930  178.2280  141.9450 O   0  0  0  0  0  0  0  0  0  0  0  0
  187.9960  176.7330  137.9470 C   0  0  1  0  0  3  0  0  0  0  0  0
  188.9720  179.9780  137.6300 O   0  0  0  0  0  0  0  0  0  0  0  0
  189.3060  177.7880  136.1280 O   0  0  0  0  0  0  0  0  0  0  0  0
  192.2660  177.4080  139.9100 C   0  0  0  0  0  1  0  0  0  0  0  0
  183.6970  177.5110  138.3850 C   0  0  0  0  0  2  0  0  0  0  0  0
  186.8690  176.7480  136.9210 C   0  0  2  0  0  3  0  0  0  0  0  0
  190.7980  177.3570  139.5200 C   0  0  2  0  0  3  0  0  0  0  0  0
  190.6060  174.6830  138.0810 O   0  0  0  0  0  0  0  0  0  0  0  0
  192.1910  175.5570  136.5890 C   0  0  0  0  0  1  0  0  0  0  0  0
  191.1070  175.6880  137.6000 C   0  0  0  0  0  0  0  0  0  0  0  0
  190.0000  175.8510  142.8680 C   0  0  0  0  0  2  0  0  0  0  0  0
  191.6670  177.4670  143.7350 C   0  0  0  0  0  1  0  0  0  0  0  0
  191.2960  176.0020  143.6540 C   0  0  0  0  0  2  0  0  0  0  0  0
  1 14  2  0  0  0  0
  3 15  1  0  0  0  0
  5  1  1  0  0  0  0
  6 10  1  0  0  0  0
  6 28  1  1  0  0  0
  7 10  2  0  0  0  0
  8 20  1  6  0  0  0
  8 18  1  0  0  0  0
  8 13  1  0  0  0  0
  9  8  1  0  0  0  0
  9 19  2  0  0  0  0
 10  5  1  0  0  0  0
 11  6  1  0  0  0  0
 12  2  1  0  0  0  0
 13 27  1  1  0  0  0
 13 24  1  0  0  0  0
 15 22  1  0  0  0  0
 16 12  1  0  0  0  0
 17  2  1  0  0  0  0
 17  1  1  0  0  0  0
 18  4  1  6  0  0  0
 20  9  1  0  0  0  0
 22 16  1  0  0  0  0
 23  4  1  6  0  0  0
 23  3  1  0  0  0  0
 23 18  1  0  0  0  0
 24 21  1  1  0  0  0
 24 11  1  0  0  0  0
 26 27  1  0  0  0  0
 27 25  2  0  0  0  0
 28 30  1  0  0  0  0
 30 29  1  0  0  0  0
M  END
>  <MODEL>
1

>  <REMARK>
 VINA RESULT:      -7.6      0.000      0.000
  Name = 
  3 active torsions:
  status: ('A' for Active; 'I' for Inactive)
    1  A    between atoms: C_6  and  C_8
    2  A    between atoms: C_6  and  C_21
    3  A    between atoms: C_15  and  C_26
                            x       y       z     vdW  Elec       q    Type
                         _______ _______ _______ _____ _____    ______ ____

>  <TORSDO>
F 3

$$$$
=
 OpenBabel10272413583D

 30 32  0  0  1  0  0  0  0  0999 V2000
  186.7700  178.7640  141.0500 C   0  0  0  0  0  0  0  0  0  0  0  0
  184.6720  179.1010  139.7930 C   0  0  0  0  0  2  0  0  0  0  0  0
  185.6010  175.2780  136.7300 C   0  0  0  0  0  2  0  0  0  0  0  0
  187.7010  173.9960  136.5980 C   0  0  0  0  0  2  0  0  0  0  0  0
  188.1280  178.3170  141.0760 N   0  0  0  0  0  2  0  0  0  0  0  0
  190.1960  177.2150  140.0720 C   0  0  2  0  0  3  0  0  0  0  0  0
  188.6680  178.8180  138.5100 S   0  0  0  0  0  0  0  0  0  0  0  0
  189.3320  175.8080  135.9760 C   0  0  1  0  0  0  0  0  0  0  0  0
  189.2030  176.9350  135.1930 C   0  0  0  0  0  0  0  0  0  0  0  0
  188.9220  178.0130  139.9200 C   0  0  0  0  0  0  0  0  0  0  0  0
  190.2930  176.0830  139.0500 C   0  0  0  0  0  2  0  0  0  0  0  0
  184.0850  178.6460  138.4730 C   0  0  0  0  0  2  0  0  0  0  0  0
  190.7340  175.6360  136.5720 C   0  0  1  0  0  3  0  0  0  0  0  0
  186.2440  179.2050  142.1080 O   0  0  0  0  0  0  0  0  0  0  0  0
  185.1340  176.5840  136.5660 O   0  0  0  0  0  0  0  0  0  0  0  0
  183.8560  177.1460  138.5110 C   0  0  0  0  0  2  0  0  0  0  0  0
  186.0190  178.6610  139.8780 O   0  0  0  0  0  0  0  0  0  0  0  0
  188.0780  175.4530  136.8020 C   0  0  1  0  0  3  0  0  0  0  0  0
  189.1040  178.1810  135.0450 O   0  0  0  0  0  0  0  0  0  0  0  0
  189.2720  175.5420  134.6340 O   0  0  0  0  0  0  0  0  0  0  0  0
  192.4990  176.6820  138.0250 C   0  0  0  0  0  1  0  0  0  0  0  0
  183.8440  176.5730  137.1030 C   0  0  0  0  0  2  0  0  0  0  0  0
  186.8790  175.0820  135.9400 C   0  0  2  0  0  3  0  0  0  0  0  0
  191.0050  176.5450  137.7810 C   0  0  2  0  0  3  0  0  0  0  0  0
  190.6540  173.5310  137.6770 O   0  0  0  0  0  0  0  0  0  0  0  0
  192.1180  173.5750  135.8440 C   0  0  0  0  0  1  0  0  0  0  0  0
  191.1290  174.1950  136.7690 C   0  0  0  0  0  0  0  0  0  0  0  0
  190.4260  176.6860  141.4910 C   0  0  0  0  0  2  0  0  0  0  0  0
  191.1860  178.2970  143.2140 C   0  0  0  0  0  1  0  0  0  0  0  0
  191.6430  177.3110  142.1600 C   0  0  0  0  0  2  0  0  0  0  0  0
  1  5  1  0  0  0  0
  1 14  2  0  0  0  0
  2 17  1  0  0  0  0
  6 28  1  1  0  0  0
  7 10  2  0  0  0  0
  8 20  1  6  0  0  0
  8 13  1  0  0  0  0
  8 18  1  0  0  0  0
  9  8  1  0  0  0  0
 10  6  1  0  0  0  0
 10  5  1  0  0  0  0
 11  6  1  0  0  0  0
 12 16  1  0  0  0  0
 12  2  1  0  0  0  0
 13 27  1  1  0  0  0
 13 24  1  0  0  0  0
 15  3  1  0  0  0  0
 15 22  1  0  0  0  0
 17  1  1  0  0  0  0
 18  4  1  1  0  0  0
 19  9  2  0  0  0  0
 20  9  1  0  0  0  0
 22 16  1  0  0  0  0
 23  4  1  1  0  0  0
 23  3  1  0  0  0  0
 23 18  1  0  0  0  0
 24 21  1  1  0  0  0
 24 11  1  0  0  0  0
 26 27  1  0  0  0  0
 27 25  2  0  0  0  0
 28 30  1  0  0  0  0
 30 29  1  0  0  0  0
M  END
>  <MODEL>
2

>  <REMARK>
 VINA RESULT:      -6.3      1.751      2.043
  Name = 
  3 active torsions:
  status: ('A' for Active; 'I' for Inactive)
    1  A    between atoms: C_6  and  C_8
    2  A    between atoms: C_6  and  C_21
    3  A    between atoms: C_15  and  C_26
                            x       y       z     vdW  Elec       q    Type
                         _______ _______ _______ _____ _____    ______ ____

>  <TORSDO>
F 3

$$$$
=
 OpenBabel10272413583D

 30 32  0  0  1  0  0  0  0  0999 V2000
  185.7050  178.8560  140.4330 C   0  0  0  0  0  0  0  0  0  0  0  0
  183.3190  178.5530  139.8770 C   0  0  0  0  0  2  0  0  0  0  0  0
  184.1190  174.1110  137.7590 C   0  0  0  0  0  2  0  0  0  0  0  0
  186.3140  173.0970  137.2880 C   0  0  0  0  0  2  0  0  0  0  0  0
  187.0790  178.5960  140.1320 N   0  0  0  0  0  2  0  0  0  0  0  0
  188.9680  177.4830  138.8310 C   0  0  2  0  0  3  0  0  0  0  0  0
  186.7770  178.3490  137.4900 S   0  0  0  0  0  0  0  0  0  0  0  0
  187.3100  174.8070  135.7330 C   0  0  1  0  0  0  0  0  0  0  0  0
  186.7440  175.6200  134.7740 C   0  0  0  0  0  0  0  0  0  0  0  0
  187.5670  178.0460  138.8990 C   0  0  0  0  0  0  0  0  0  0  0  0
  189.0050  176.1120  138.1560 C   0  0  0  0  0  2  0  0  0  0  0  0
  182.4940  177.6540  138.9790 C   0  0  0  0  0  2  0  0  0  0  0  0
  188.8260  174.9850  135.8690 C   0  0  1  0  0  3  0  0  0  0  0  0
  185.4140  179.5350  141.4550 O   0  0  0  0  0  0  0  0  0  0  0  0
  183.3710  175.2430  137.4280 O   0  0  0  0  0  0  0  0  0  0  0  0
  182.5930  176.2210  139.4690 C   0  0  0  0  0  2  0  0  0  0  0  0
  184.6970  178.3160  139.6320 O   0  0  0  0  0  0  0  0  0  0  0  0
  186.4310  174.5800  136.9810 C   0  0  1  0  0  3  0  0  0  0  0  0
  186.3590  176.7410  134.3540 O   0  0  0  0  0  0  0  0  0  0  0  0
  186.9360  174.1400  134.5970 O   0  0  0  0  0  0  0  0  0  0  0  0
  190.6740  176.6180  136.3570 C   0  0  0  0  0  1  0  0  0  0  0  0
  182.3090  175.2500  138.3360 C   0  0  0  0  0  2  0  0  0  0  0  0
  185.1410  173.8300  136.6770 C   0  0  2  0  0  3  0  0  0  0  0  0
  189.2310  176.2440  136.6520 C   0  0  2  0  0  3  0  0  0  0  0  0
  189.7430  173.4810  137.4670 O   0  0  0  0  0  0  0  0  0  0  0  0
  190.0180  172.7750  135.2460 C   0  0  0  0  0  1  0  0  0  0  0  0
  189.5430  173.7270  136.2870 C   0  0  0  0  0  0  0  0  0  0  0  0
  189.6820  177.4410  140.1850 C   0  0  0  0  0  2  0  0  0  0  0  0
  191.8400  177.4490  141.4040 C   0  0  0  0  0  1  0  0  0  0  0  0
  191.1910  177.2830  140.0470 C   0  0  0  0  0  2  0  0  0  0  0  0
  1 14  2  0  0  0  0
  5  1  1  0  0  0  0
  6 10  1  0  0  0  0
  6 28  1  1  0  0  0
  7 10  2  0  0  0  0
  8 20  1  6  0  0  0
  8 13  1  0  0  0  0
  8 18  1  0  0  0  0
  9  8  1  0  0  0  0
 10  5  1  0  0  0  0
 11  6  1  0  0  0  0
 12 16  1  0  0  0  0
 12  2  1  0  0  0  0
 13 27  1  1  0  0  0
 13 24  1  0  0  0  0
 15  3  1  0  0  0  0
 15 22  1  0  0  0  0
 17  2  1  0  0  0  0
 17  1  1  0  0  0  0
 18  4  1  1  0  0  0
 19  9  2  0  0  0  0
 20  9  1  0  0  0  0
 22 16  1  0  0  0  0
 23 18  1  0  0  0  0
 23  4  1  1  0  0  0
 23  3  1  0  0  0  0
 24 21  1  1  0  0  0
 24 11  1  0  0  0  0
 26 27  1  0  0  0  0
 27 25  2  0  0  0  0
 30 28  1  0  0  0  0
 30 29  1  0  0  0  0
M  END
>  <MODEL>
3

>  <REMARK>
 VINA RESULT:      -6.3      2.360      3.272
  Name = 
  3 active torsions:
  status: ('A' for Active; 'I' for Inactive)
    1  A    between atoms: C_6  and  C_8
    2  A    between atoms: C_6  and  C_21
    3  A    between atoms: C_15  and  C_26
                            x       y       z     vdW  Elec       q    Type
                         _______ _______ _______ _____ _____    ______ ____

>  <TORSDO>
F 3

$$$$
=
 OpenBabel10272413583D

 30 32  0  0  1  0  0  0  0  0999 V2000
  188.9510  176.3730  138.7620 C   0  0  0  0  0  0  0  0  0  0  0  0
  189.5490  177.6030  140.8160 C   0  0  0  0  0  2  0  0  0  0  0  0
  184.8140  177.8160  142.3650 C   0  0  0  0  0  2  0  0  0  0  0  0
  182.8280  177.1500  141.0690 C   0  0  0  0  0  2  0  0  0  0  0  0
  187.9930  176.0770  137.7410 N   0  0  0  0  0  2  0  0  0  0  0  0
  185.6960  176.2210  136.6460 C   0  0  2  0  0  3  0  0  0  0  0  0
  186.7520  178.4410  137.7870 S   0  0  0  0  0  0  0  0  0  0  0  0
  182.9940  178.7080  139.1000 C   0  0  1  0  0  0  0  0  0  0  0  0
  183.4450  180.0060  138.9870 C   0  0  0  0  0  0  0  0  0  0  0  0
  186.7940  176.8250  137.4890 C   0  0  0  0  0  0  0  0  0  0  0  0
  184.3200  176.3790  137.2920 C   0  0  0  0  0  2  0  0  0  0  0  0
  188.8260  178.4060  141.8780 C   0  0  0  0  0  2  0  0  0  0  0  0
  182.5050  178.1130  137.7740 C   0  0  1  0  0  3  0  0  0  0  0  0
  190.0650  175.7820  138.7530 O   0  0  0  0  0  0  0  0  0  0  0  0
  185.8760  178.7220  142.3050 O   0  0  0  0  0  0  0  0  0  0  0  0
  187.8990  177.4930  142.6590 C   0  0  0  0  0  2  0  0  0  0  0  0
  188.6320  177.2650  139.7870 O   0  0  0  0  0  0  0  0  0  0  0  0
  183.7780  177.8410  140.1080 C   0  0  1  0  0  3  0  0  0  0  0  0
  184.2940  180.8600  138.6240 O   0  0  0  0  0  0  0  0  0  0  0  0
  182.1380  179.6360  139.6320 O   0  0  0  0  0  0  0  0  0  0  0  0
  183.1450  177.5420  135.4110 C   0  0  0  0  0  1  0  0  0  0  0  0
  186.7700  178.2930  143.2890 C   0  0  0  0  0  2  0  0  0  0  0  0
  183.6480  178.3280  141.5450 C   0  0  2  0  0  3  0  0  0  0  0  0
  183.6430  177.6710  136.8410 C   0  0  2  0  0  3  0  0  0  0  0  0
  181.6520  175.9210  138.1260 O   0  0  0  0  0  0  0  0  0  0  0  0
  179.9820  177.5500  137.8760 C   0  0  0  0  0  1  0  0  0  0  0  0
  181.4000  177.1020  137.9410 C   0  0  0  0  0  0  0  0  0  0  0  0
  185.9480  174.7620  136.2570 C   0  0  0  0  0  2  0  0  0  0  0  0
  185.2830  172.8260  137.6540 C   0  0  0  0  0  1  0  0  0  0  0  0
  184.7960  173.8440  136.6450 C   0  0  0  0  0  2  0  0  0  0  0  0
  1 17  1  0  0  0  0
  2 12  1  0  0  0  0
  5  1  1  0  0  0  0
  6 28  1  1  0  0  0
  6 11  1  0  0  0  0
  6 10  1  0  0  0  0
  8  9  1  6  0  0  0
  8 20  1  0  0  0  0
  8 18  1  0  0  0  0
  9 20  1  0  0  0  0
 10  5  1  0  0  0  0
 10  7  2  0  0  0  0
 12 16  1  0  0  0  0
 13 27  1  1  0  0  0
 13  8  1  0  0  0  0
 14  1  2  0  0  0  0
 15  3  1  0  0  0  0
 15 22  1  0  0  0  0
 16 22  1  0  0  0  0
 17  2  1  0  0  0  0
 18  4  1  1  0  0  0
 18 23  1  0  0  0  0
 19  9  2  0  0  0  0
 23  4  1  1  0  0  0
 23  3  1  0  0  0  0
 24 21  1  6  0  0  0
 24 11  1  0  0  0  0
 24 13  1  0  0  0  0
 26 27  1  0  0  0  0
 27 25  2  0  0  0  0
 28 30  1  0  0  0  0
 30 29  1  0  0  0  0
M  END
>  <MODEL>
4

>  <REMARK>
 VINA RESULT:      -5.4      2.453      7.077
  Name = 
  3 active torsions:
  status: ('A' for Active; 'I' for Inactive)
    1  A    between atoms: C_6  and  C_8
    2  A    between atoms: C_6  and  C_21
    3  A    between atoms: C_15  and  C_26
                            x       y       z     vdW  Elec       q    Type
                         _______ _______ _______ _____ _____    ______ ____

>  <TORSDO>
F 3

$$$$
=
 OpenBabel10272413583D

 30 32  0  0  1  0  0  0  0  0999 V2000
  188.0950  175.5690  137.4760 C   0  0  0  0  0  0  0  0  0  0  0  0
  189.6310  177.0350  138.7350 C   0  0  0  0  0  2  0  0  0  0  0  0
  186.1530  178.2010  142.1120 C   0  0  0  0  0  2  0  0  0  0  0  0
  183.7620  177.6170  142.0000 C   0  0  0  0  0  2  0  0  0  0  0  0
  186.7620  175.2450  137.0710 N   0  0  0  0  0  2  0  0  0  0  0  0
  184.2290  175.5310  137.0920 C   0  0  2  0  0  3  0  0  0  0  0  0
  185.8040  177.7360  137.1360 S   0  0  0  0  0  0  0  0  0  0  0  0
  183.0860  178.7700  139.8680 C   0  0  1  0  0  0  0  0  0  0  0  0
  183.5010  179.9500  139.2860 C   0  0  0  0  0  0  0  0  0  0  0  0
  185.6210  176.1050  137.2130 C   0  0  0  0  0  0  0  0  0  0  0  0
  183.3130  175.9970  138.2230 C   0  0  0  0  0  2  0  0  0  0  0  0
  189.5190  178.1070  139.8000 C   0  0  0  0  0  2  0  0  0  0  0  0
  182.0130  178.0340  139.0570 C   0  0  1  0  0  3  0  0  0  0  0  0
  189.0480  174.8300  137.1110 O   0  0  0  0  0  0  0  0  0  0  0  0
  187.1130  178.9180  141.3950 O   0  0  0  0  0  0  0  0  0  0  0  0
  189.0080  177.4870  141.0880 C   0  0  0  0  0  2  0  0  0  0  0  0
  188.3280  176.6620  138.3130 O   0  0  0  0  0  0  0  0  0  0  0  0
  184.1990  177.9860  140.5930 C   0  0  1  0  0  3  0  0  0  0  0  0
  184.1310  180.5950  138.4100 O   0  0  0  0  0  0  0  0  0  0  0  0
  182.6190  179.8910  140.5020 O   0  0  0  0  0  0  0  0  0  0  0  0
  181.4670  176.9760  136.8430 C   0  0  0  0  0  1  0  0  0  0  0  0
  188.3360  178.5390  141.9550 C   0  0  0  0  0  2  0  0  0  0  0  0
  184.7690  178.7280  141.7950 C   0  0  2  0  0  3  0  0  0  0  0  0
  182.5720  177.2750  137.8420 C   0  0  2  0  0  3  0  0  0  0  0  0
  181.1520  176.0240  139.9920 O   0  0  0  0  0  0  0  0  0  0  0  0
  179.9820  177.9460  140.6570 C   0  0  0  0  0  1  0  0  0  0  0  0
  181.0580  177.2390  139.9090 C   0  0  0  0  0  0  0  0  0  0  0  0
  184.1990  174.0050  136.9630 C   0  0  0  0  0  2  0  0  0  0  0  0
  182.8490  171.9280  137.0270 C   0  0  0  0  0  1  0  0  0  0  0  0
  182.7860  173.4400  137.0100 C   0  0  0  0  0  2  0  0  0  0  0  0
  1 17  1  0  0  0  0
  2 12  1  0  0  0  0
  5 10  1  0  0  0  0
  5  1  1  0  0  0  0
  6 28  1  1  0  0  0
  6 10  1  0  0  0  0
  6 11  1  0  0  0  0
  7 10  2  0  0  0  0
  8  9  1  6  0  0  0
  8 20  1  0  0  0  0
  8 18  1  0  0  0  0
  9 20  1  0  0  0  0
 12 16  1  0  0  0  0
 13  8  1  0  0  0  0
 13 27  1  1  0  0  0
 14  1  2  0  0  0  0
 15 22  1  0  0  0  0
 15  3  1  0  0  0  0
 16 22  1  0  0  0  0
 17  2  1  0  0  0  0
 18 23  1  0  0  0  0
 18  4  1  1  0  0  0
 19  9  2  0  0  0  0
 23  4  1  1  0  0  0
 23  3  1  0  0  0  0
 24 21  1  6  0  0  0
 24 11  1  0  0  0  0
 24 13  1  0  0  0  0
 27 25  2  0  0  0  0
 27 26  1  0  0  0  0
 28 30  1  0  0  0  0
 30 29  1  0  0  0  0
M  END
>  <MODEL>
5

>  <REMARK>
 VINA RESULT:      -4.6      2.766      7.725
  Name = 
  3 active torsions:
  status: ('A' for Active; 'I' for Inactive)
    1  A    between atoms: C_6  and  C_8
    2  A    between atoms: C_6  and  C_21
    3  A    between atoms: C_15  and  C_26
                            x       y       z     vdW  Elec       q    Type
                         _______ _______ _______ _____ _____    ______ ____

>  <TORSDO>
F 3

$$$$
