=
 OpenBabel10272413563D

 30 34  0  0  1  0  0  0  0  0999 V2000
  185.8170  178.3070  142.0450 C   0  0  0  0  0  3  0  0  0  0  0  0
  183.5720  178.6290  141.1620 C   0  0  0  0  0  0  0  0  0  0  0  0
  184.3670  178.5500  145.9900 C   0  0  0  0  0  3  0  0  0  0  0  0
  186.7130  178.1790  143.1100 C   0  0  0  0  0  0  0  0  0  0  0  0
  185.2490  178.4600  147.0680 C   0  0  0  0  0  3  0  0  0  0  0  0
  182.2070  178.8240  141.3840 C   0  0  0  0  0  3  0  0  0  0  0  0
  184.0530  178.5490  139.8220 N   0  0  0  0  0  1  0  0  0  0  0  0
  184.8360  178.4650  144.6680 C   0  0  0  0  0  0  0  0  0  0  0  0
  181.7070  178.8990  142.6840 C   0  0  0  0  0  3  0  0  0  0  0  0
  184.4510  178.5070  142.2550 C   0  0  0  0  0  0  0  0  0  0  0  0
  186.2240  178.2710  144.4340 C   0  0  0  0  0  0  0  0  0  0  0  0
  186.6140  178.2890  146.8390 C   0  0  0  0  0  3  0  0  0  0  0  0
  187.0970  178.2000  145.5330 C   0  0  0  0  0  3  0  0  0  0  0  0
  182.5720  178.7790  143.7730 C   0  0  0  0  0  3  0  0  0  0  0  0
  183.9490  178.5820  143.5760 C   0  0  0  0  0  0  0  0  0  0  0  0
  188.1140  177.9480  142.8260 N   0  0  0  0  0  0  0  0  0  0  0  0
  191.5620  177.3080  143.7580 C   0  0  0  0  0  3  0  0  0  0  0  0
  190.2380  179.1270  144.4670 O   0  0  0  0  0  0  0  0  0  0  0  0
  188.9830  177.2110  143.7440 C   0  0  1  0  0  3  0  0  0  0  0  0
  189.1980  175.8400  143.2580 N   0  0  0  0  0  0  0  0  0  0  0  0
  190.2700  177.9540  144.0110 C   0  0  0  0  0  0  0  0  0  0  0  0
  191.6080  176.0570  143.3090 C   0  0  0  0  0  3  0  0  0  0  0  0
  190.3680  175.3060  143.0600 C   0  0  0  0  0  3  0  0  0  0  0  0
  188.7460  178.5370  141.6510 C   0  0  0  0  0  2  0  0  0  0  0  0
  188.7640  177.5390  140.5050 C   0  0  0  0  0  2  0  0  0  0  0  0
  189.4840  178.1390  139.3140 C   0  0  0  0  0  2  0  0  0  0  0  0
  188.5140  178.7140  138.3970 N   0  0  0  0  0  2  0  0  0  0  0  0
  186.5430  178.1930  137.1030 C   0  0  0  0  0  2  0  0  0  0  0  0
  187.4780  177.7200  138.1970 C   0  0  0  0  0  3  0  0  0  0  0  0
  187.5960  177.1530  136.7980 C   0  0  0  0  0  2  0  0  0  0  0  0
  1 10  2  0  0  0  0
  1  4  1  0  0  0  0
  2  6  2  0  0  0  0
  2 10  1  0  0  0  0
  3  5  2  0  0  0  0
  4 11  2  0  0  0  0
  6  9  1  0  0  0  0
  7  2  1  0  0  0  0
  8  3  1  0  0  0  0
  9 14  2  0  0  0  0
 10 15  1  0  0  0  0
 11  8  1  0  0  0  0
 11 13  1  0  0  0  0
 12  5  1  0  0  0  0
 13 12  2  0  0  0  0
 15 14  1  0  0  0  0
 15  8  2  0  0  0  0
 16  4  1  0  0  0  0
 17 21  1  0  0  0  0
 19 16  1  6  0  0  0
 19 21  1  0  0  0  0
 20 19  1  0  0  0  0
 21 18  2  0  0  0  0
 22 17  2  0  0  0  0
 23 20  2  0  0  0  0
 23 22  1  0  0  0  0
 24 16  1  0  0  0  0
 25 24  1  0  0  0  0
 26 25  1  0  0  0  0
 27 26  1  0  0  0  0
 28 29  1  0  0  0  0
 29 27  1  0  0  0  0
 30 28  1  0  0  0  0
 30 29  1  0  0  0  0
M  END
>  <MODEL>
1

>  <REMARK>
 VINA RESULT:      -8.8      0.000      0.000
  Name = 
  7 active torsions:
  status: ('A' for Active; 'I' for Inactive)
    1  A    between atoms: C_4  and  N_13
    2  A    between atoms: N_7  and  C_15
    3  A    between atoms: N_7  and  C_16
    4  A    between atoms: C_8  and  N_13
    5  A    between atoms: N_13  and  C_27
    6  A    between atoms: C_16  and  C_30
    7  A    between atoms: C_27  and  C_30
                            x       y       z     vdW  Elec       q    Type
                         _______ _______ _______ _____ _____    ______ ____

>  <TORSDO>
F 7

$$$$
=
 OpenBabel10272413563D

 30 34  0  0  1  0  0  0  0  0999 V2000
  188.2470  177.5410  144.0900 C   0  0  0  0  0  3  0  0  0  0  0  0
  187.3350  177.6560  146.3430 C   0  0  0  0  0  0  0  0  0  0  0  0
  184.6310  178.9850  142.4870 C   0  0  0  0  0  3  0  0  0  0  0  0
  188.1350  177.7150  142.7070 C   0  0  0  0  0  0  0  0  0  0  0  0
  184.4860  179.1340  141.1070 C   0  0  0  0  0  3  0  0  0  0  0  0
  186.2750  177.9620  147.2000 C   0  0  0  0  0  3  0  0  0  0  0  0
  188.5540  177.1660  146.8960 N   0  0  0  0  0  1  0  0  0  0  0  0
  185.8340  178.5100  143.0370 C   0  0  0  0  0  0  0  0  0  0  0  0
  185.0730  178.4500  146.6880 C   0  0  0  0  0  3  0  0  0  0  0  0
  187.1920  177.8400  144.9550 C   0  0  0  0  0  0  0  0  0  0  0  0
  186.9160  178.1910  142.1710 C   0  0  0  0  0  0  0  0  0  0  0  0
  185.5400  178.8030  140.2560 C   0  0  0  0  0  3  0  0  0  0  0  0
  186.7420  178.3320  140.7840 C   0  0  0  0  0  3  0  0  0  0  0  0
  184.9230  178.6350  145.3120 C   0  0  0  0  0  3  0  0  0  0  0  0
  185.9740  178.3330  144.4300 C   0  0  0  0  0  0  0  0  0  0  0  0
  189.2730  177.4110  141.8670 N   0  0  0  0  0  0  0  0  0  0  0  0
  191.3070  176.4170  144.7030 C   0  0  0  0  0  3  0  0  0  0  0  0
  190.5770  175.0180  142.9490 O   0  0  0  0  0  0  0  0  0  0  0  0
  190.6380  177.3540  142.3940 C   0  0  1  0  0  3  0  0  0  0  0  0
  191.0120  178.6450  142.9890 N   0  0  0  0  0  0  0  0  0  0  0  0
  190.8230  176.1900  143.3380 C   0  0  0  0  0  0  0  0  0  0  0  0
  191.6030  177.6470  145.1120 C   0  0  0  0  0  3  0  0  0  0  0  0
  191.4490  178.7950  144.2050 C   0  0  0  0  0  3  0  0  0  0  0  0
  189.1180  177.2490  140.4260 C   0  0  0  0  0  2  0  0  0  0  0  0
  190.4580  176.9340  139.7820 C   0  0  0  0  0  2  0  0  0  0  0  0
  190.2620  176.6290  138.3110 C   0  0  0  0  0  2  0  0  0  0  0  0
  188.8620  176.7930  137.9600 N   0  0  0  0  0  2  0  0  0  0  0  0
  187.5990  178.5140  136.8310 C   0  0  0  0  0  2  0  0  0  0  0  0
  188.8170  177.6170  136.7670 C   0  0  0  0  0  3  0  0  0  0  0  0
  188.9640  179.0710  137.1630 C   0  0  0  0  0  2  0  0  0  0  0  0
  1 10  1  0  0  0  0
  2  7  1  0  0  0  0
  2  6  1  0  0  0  0
  3  8  1  0  0  0  0
  4  1  2  0  0  0  0
  5  3  2  0  0  0  0
  8 15  1  0  0  0  0
  9  6  2  0  0  0  0
 10  2  2  0  0  0  0
 11  4  1  0  0  0  0
 11  8  2  0  0  0  0
 12 13  2  0  0  0  0
 12  5  1  0  0  0  0
 13 11  1  0  0  0  0
 14  9  1  0  0  0  0
 15 10  1  0  0  0  0
 15 14  2  0  0  0  0
 16  4  1  0  0  0  0
 17 22  2  0  0  0  0
 18 21  2  0  0  0  0
 19 16  1  1  0  0  0
 19 20  1  0  0  0  0
 19 21  1  0  0  0  0
 20 23  2  0  0  0  0
 21 17  1  0  0  0  0
 23 22  1  0  0  0  0
 24 16  1  0  0  0  0
 25 24  1  0  0  0  0
 26 25  1  0  0  0  0
 27 26  1  0  0  0  0
 28 30  1  0  0  0  0
 29 28  1  0  0  0  0
 29 30  1  0  0  0  0
 29 27  1  0  0  0  0
M  END
>  <MODEL>
2

>  <REMARK>
 VINA RESULT:      -8.6      1.859      3.870
  Name = 
  7 active torsions:
  status: ('A' for Active; 'I' for Inactive)
    1  A    between atoms: C_4  and  N_13
    2  A    between atoms: N_7  and  C_15
    3  A    between atoms: N_7  and  C_16
    4  A    between atoms: C_8  and  N_13
    5  A    between atoms: N_13  and  C_27
    6  A    between atoms: C_16  and  C_30
    7  A    between atoms: C_27  and  C_30
                            x       y       z     vdW  Elec       q    Type
                         _______ _______ _______ _____ _____    ______ ____

>  <TORSDO>
F 7

$$$$
=
 OpenBabel10272413563D

 30 34  0  0  1  0  0  0  0  0999 V2000
  189.4560  177.4470  144.0390 C   0  0  0  0  0  3  0  0  0  0  0  0
  189.8030  177.2360  146.4380 C   0  0  0  0  0  0  0  0  0  0  0  0
  185.3560  178.1960  144.6360 C   0  0  0  0  0  3  0  0  0  0  0  0
  188.6360  177.6760  142.9300 C   0  0  0  0  0  0  0  0  0  0  0  0
  184.5130  178.3920  143.5420 C   0  0  0  0  0  3  0  0  0  0  0  0
  189.2890  177.2620  147.7370 C   0  0  0  0  0  3  0  0  0  0  0  0
  191.1920  176.9800  146.2470 N   0  0  0  0  0  1  0  0  0  0  0  0
  186.7270  177.9510  144.4530 C   0  0  0  0  0  0  0  0  0  0  0  0
  187.9350  177.5170  147.9550 C   0  0  0  0  0  3  0  0  0  0  0  0
  188.9520  177.4670  145.3410 C   0  0  0  0  0  0  0  0  0  0  0  0
  187.2570  177.9180  143.1340 C   0  0  0  0  0  0  0  0  0  0  0  0
  185.0280  178.3410  142.2470 C   0  0  0  0  0  3  0  0  0  0  0  0
  186.3870  178.1010  142.0460 C   0  0  0  0  0  3  0  0  0  0  0  0
  187.0840  177.7470  146.8720 C   0  0  0  0  0  3  0  0  0  0  0  0
  187.5770  177.7250  145.5560 C   0  0  0  0  0  0  0  0  0  0  0  0
  189.2240  177.6670  141.6080 N   0  0  0  0  0  0  0  0  0  0  0  0
  192.5060  177.4030  140.0830 C   0  0  0  0  0  3  0  0  0  0  0  0
  192.0500  177.9700  142.3270 O   0  0  0  0  0  0  0  0  0  0  0  0
  190.2960  176.7410  141.2390 C   0  0  1  0  0  3  0  0  0  0  0  0
  190.0010  176.1010  139.9500 N   0  0  0  0  0  0  0  0  0  0  0  0
  191.6480  177.4130  141.2720 C   0  0  0  0  0  0  0  0  0  0  0  0
  192.1060  176.7860  138.9740 C   0  0  0  0  0  3  0  0  0  0  0  0
  190.8020  176.1090  138.9240 C   0  0  0  0  0  3  0  0  0  0  0  0
  188.8410  178.6600  140.6110 C   0  0  0  0  0  2  0  0  0  0  0  0
  187.9790  178.0220  139.5340 C   0  0  0  0  0  2  0  0  0  0  0  0
  188.3130  178.6240  138.1840 C   0  0  0  0  0  2  0  0  0  0  0  0
  187.1030  178.7390  137.3870 N   0  0  0  0  0  2  0  0  0  0  0  0
  185.1440  177.3570  137.0950 C   0  0  0  0  0  2  0  0  0  0  0  0
  186.6580  177.3900  137.0960 C   0  0  0  0  0  3  0  0  0  0  0  0
  185.8990  177.3890  135.7860 C   0  0  0  0  0  2  0  0  0  0  0  0
  1 10  1  0  0  0  0
  2  6  1  0  0  0  0
  4 11  1  0  0  0  0
  4  1  2  0  0  0  0
  5  3  2  0  0  0  0
  6  9  2  0  0  0  0
  7  2  1  0  0  0  0
  8  3  1  0  0  0  0
  8 15  1  0  0  0  0
 10 15  1  0  0  0  0
 10  2  2  0  0  0  0
 11  8  2  0  0  0  0
 12  5  1  0  0  0  0
 13 12  2  0  0  0  0
 13 11  1  0  0  0  0
 14  9  1  0  0  0  0
 15 14  2  0  0  0  0
 16  4  1  0  0  0  0
 17 21  1  0  0  0  0
 19 21  1  0  0  0  0
 19 16  1  6  0  0  0
 20 19  1  0  0  0  0
 21 18  2  0  0  0  0
 22 17  2  0  0  0  0
 23 22  1  0  0  0  0
 23 20  2  0  0  0  0
 24 16  1  0  0  0  0
 25 24  1  0  0  0  0
 26 25  1  0  0  0  0
 27 26  1  0  0  0  0
 28 29  1  0  0  0  0
 29 27  1  0  0  0  0
 30 28  1  0  0  0  0
 30 29  1  0  0  0  0
M  END
>  <MODEL>
3

>  <REMARK>
 VINA RESULT:      -8.0      1.933      4.458
  Name = 
  7 active torsions:
  status: ('A' for Active; 'I' for Inactive)
    1  A    between atoms: C_4  and  N_13
    2  A    between atoms: N_7  and  C_15
    3  A    between atoms: N_7  and  C_16
    4  A    between atoms: C_8  and  N_13
    5  A    between atoms: N_13  and  C_27
    6  A    between atoms: C_16  and  C_30
    7  A    between atoms: C_27  and  C_30
                            x       y       z     vdW  Elec       q    Type
                         _______ _______ _______ _____ _____    ______ ____

>  <TORSDO>
F 7

$$$$
=
 OpenBabel10272413563D

 30 34  0  0  1  0  0  0  0  0999 V2000
  188.8650  177.7610  144.7160 C   0  0  0  0  0  3  0  0  0  0  0  0
  189.2860  177.6540  147.1100 C   0  0  0  0  0  0  0  0  0  0  0  0
  184.8070  178.6450  145.4060 C   0  0  0  0  0  3  0  0  0  0  0  0
  188.0150  177.9590  143.6240 C   0  0  0  0  0  0  0  0  0  0  0  0
  183.9340  178.8110  144.3300 C   0  0  0  0  0  3  0  0  0  0  0  0
  188.8160  177.7550  148.4220 C   0  0  0  0  0  3  0  0  0  0  0  0
  190.6620  177.3530  146.8880 N   0  0  0  0  0  1  0  0  0  0  0  0
  186.1650  178.3550  145.1910 C   0  0  0  0  0  0  0  0  0  0  0  0
  187.4760  178.0560  148.6700 C   0  0  0  0  0  3  0  0  0  0  0  0
  188.4050  177.8550  146.0310 C   0  0  0  0  0  0  0  0  0  0  0  0
  186.6500  178.2460  143.8590 C   0  0  0  0  0  0  0  0  0  0  0  0
  184.4040  178.6850  143.0240 C   0  0  0  0  0  3  0  0  0  0  0  0
  185.7500  178.4010  142.7920 C   0  0  0  0  0  3  0  0  0  0  0  0
  186.5970  178.2570  147.6050 C   0  0  0  0  0  3  0  0  0  0  0  0
  187.0450  178.1600  146.2770 C   0  0  0  0  0  0  0  0  0  0  0  0
  188.5590  177.8720  142.2850 N   0  0  0  0  0  0  0  0  0  0  0  0
  190.8790  175.4170  143.6130 C   0  0  0  0  0  3  0  0  0  0  0  0
  188.6440  175.0220  142.9680 O   0  0  0  0  0  0  0  0  0  0  0  0
  189.6450  176.9510  141.9440 C   0  0  1  0  0  3  0  0  0  0  0  0
  190.9280  177.6640  141.8990 N   0  0  0  0  0  0  0  0  0  0  0  0
  189.6650  175.7500  142.8600 C   0  0  0  0  0  0  0  0  0  0  0  0
  191.9740  176.1590  143.4790 C   0  0  0  0  0  3  0  0  0  0  0  0
  191.9840  177.3220  142.5790 C   0  0  0  0  0  3  0  0  0  0  0  0
  188.1150  178.7810  141.2360 C   0  0  0  0  0  2  0  0  0  0  0  0
  188.0210  178.0490  139.9070 C   0  0  0  0  0  2  0  0  0  0  0  0
  188.9810  178.6680  138.9110 C   0  0  0  0  0  2  0  0  0  0  0  0
  189.3030  177.7000  137.8770 N   0  0  0  0  0  2  0  0  0  0  0  0
  190.3220  175.5140  137.7380 C   0  0  0  0  0  2  0  0  0  0  0  0
  190.3880  176.8830  138.3840 C   0  0  0  0  0  3  0  0  0  0  0  0
  191.3220  176.5340  137.2440 C   0  0  0  0  0  2  0  0  0  0  0  0
  1 10  1  0  0  0  0
  2  6  1  0  0  0  0
  4 11  1  0  0  0  0
  4  1  2  0  0  0  0
  5  3  2  0  0  0  0
  6  9  2  0  0  0  0
  7  2  1  0  0  0  0
  8  3  1  0  0  0  0
  8 15  1  0  0  0  0
 10 15  1  0  0  0  0
 10  2  2  0  0  0  0
 11  8  2  0  0  0  0
 12  5  1  0  0  0  0
 13 12  2  0  0  0  0
 13 11  1  0  0  0  0
 14  9  1  0  0  0  0
 15 14  2  0  0  0  0
 16  4  1  0  0  0  0
 19 16  1  1  0  0  0
 19 21  1  0  0  0  0
 20 19  1  0  0  0  0
 20 23  2  0  0  0  0
 21 18  2  0  0  0  0
 21 17  1  0  0  0  0
 22 17  2  0  0  0  0
 23 22  1  0  0  0  0
 24 16  1  0  0  0  0
 25 24  1  0  0  0  0
 26 25  1  0  0  0  0
 27 29  1  0  0  0  0
 27 26  1  0  0  0  0
 28 29  1  0  0  0  0
 30 28  1  0  0  0  0
 30 29  1  0  0  0  0
M  END
>  <MODEL>
4

>  <REMARK>
 VINA RESULT:      -7.9      1.957      4.353
  Name = 
  7 active torsions:
  status: ('A' for Active; 'I' for Inactive)
    1  A    between atoms: C_4  and  N_13
    2  A    between atoms: N_7  and  C_15
    3  A    between atoms: N_7  and  C_16
    4  A    between atoms: C_8  and  N_13
    5  A    between atoms: N_13  and  C_27
    6  A    between atoms: C_16  and  C_30
    7  A    between atoms: C_27  and  C_30
                            x       y       z     vdW  Elec       q    Type
                         _______ _______ _______ _____ _____    ______ ____

>  <TORSDO>
F 7

$$$$
=
 OpenBabel10272413563D

 30 34  0  0  1  0  0  0  0  0999 V2000
  186.2980  178.3370  141.0890 C   0  0  0  0  0  3  0  0  0  0  0  0
  184.7210  178.7620  139.2840 C   0  0  0  0  0  0  0  0  0  0  0  0
  183.2680  178.9150  143.9550 C   0  0  0  0  0  3  0  0  0  0  0  0
  186.6100  178.2100  142.4450 C   0  0  0  0  0  0  0  0  0  0  0  0
  183.5650  178.8280  145.3150 C   0  0  0  0  0  3  0  0  0  0  0  0
  183.4240  179.0650  138.8640 C   0  0  0  0  0  3  0  0  0  0  0  0
  185.7400  178.5700  138.3050 N   0  0  0  0  0  1  0  0  0  0  0  0
  184.2680  178.7190  142.9870 C   0  0  0  0  0  0  0  0  0  0  0  0
  182.4050  179.2510  139.7990 C   0  0  0  0  0  3  0  0  0  0  0  0
  185.0050  178.6440  140.6580 C   0  0  0  0  0  0  0  0  0  0  0  0
  185.5920  178.4150  143.4060 C   0  0  0  0  0  0  0  0  0  0  0  0
  184.8680  178.5490  145.7280 C   0  0  0  0  0  3  0  0  0  0  0  0
  185.8720  178.3480  144.7810 C   0  0  0  0  0  3  0  0  0  0  0  0
  182.6790  179.1360  141.1630 C   0  0  0  0  0  3  0  0  0  0  0  0
  183.9760  178.8330  141.6110 C   0  0  0  0  0  0  0  0  0  0  0  0
  187.9630  177.8660  142.8260 N   0  0  0  0  0  0  0  0  0  0  0  0
  191.0780  176.9910  141.1820 C   0  0  0  0  0  3  0  0  0  0  0  0
  188.9280  176.9560  140.2120 O   0  0  0  0  0  0  0  0  0  0  0  0
  189.1300  178.3990  142.1210 C   0  0  1  0  0  3  0  0  0  0  0  0
  190.1410  178.8660  143.0800 N   0  0  0  0  0  0  0  0  0  0  0  0
  189.6740  177.4100  141.1170 C   0  0  0  0  0  0  0  0  0  0  0  0
  191.8840  177.4930  142.1140 C   0  0  0  0  0  3  0  0  0  0  0  0
  191.3810  178.4710  143.0900 C   0  0  0  0  0  3  0  0  0  0  0  0
  188.2200  176.8820  143.8710 C   0  0  0  0  0  2  0  0  0  0  0  0
  188.7820  177.5610  145.1080 C   0  0  0  0  0  2  0  0  0  0  0  0
  189.6690  176.5930  145.8670 C   0  0  0  0  0  2  0  0  0  0  0  0
  189.2930  176.5850  147.2710 N   0  0  0  0  0  2  0  0  0  0  0  0
  187.8150  177.6650  148.8460 C   0  0  0  0  0  2  0  0  0  0  0  0
  188.5180  177.7860  147.5100 C   0  0  0  0  0  3  0  0  0  0  0  0
  189.0700  178.5000  148.7260 C   0  0  0  0  0  2  0  0  0  0  0  0
  1  4  1  0  0  0  0
  2 10  1  0  0  0  0
  3  5  2  0  0  0  0
  4 16  1  0  0  0  0
  4 11  2  0  0  0  0
  5 12  1  0  0  0  0
  6  2  2  0  0  0  0
  6  9  1  0  0  0  0
  7  2  1  0  0  0  0
  8 11  1  0  0  0  0
  8  3  1  0  0  0  0
  9 14  2  0  0  0  0
 10  1  2  0  0  0  0
 10 15  1  0  0  0  0
 11 13  1  0  0  0  0
 13 12  2  0  0  0  0
 14 15  1  0  0  0  0
 15  8  2  0  0  0  0
 16 24  1  0  0  0  0
 17 22  2  0  0  0  0
 18 21  2  0  0  0  0
 19 16  1  1  0  0  0
 19 20  1  0  0  0  0
 20 23  2  0  0  0  0
 21 17  1  0  0  0  0
 21 19  1  0  0  0  0
 22 23  1  0  0  0  0
 24 25  1  0  0  0  0
 25 26  1  0  0  0  0
 26 27  1  0  0  0  0
 27 29  1  0  0  0  0
 29 30  1  0  0  0  0
 29 28  1  0  0  0  0
 30 28  1  0  0  0  0
M  END
>  <MODEL>
5

>  <REMARK>
 VINA RESULT:      -7.8      1.969      4.713
  Name = 
  7 active torsions:
  status: ('A' for Active; 'I' for Inactive)
    1  A    between atoms: C_4  and  N_13
    2  A    between atoms: N_7  and  C_15
    3  A    between atoms: N_7  and  C_16
    4  A    between atoms: C_8  and  N_13
    5  A    between atoms: N_13  and  C_27
    6  A    between atoms: C_16  and  C_30
    7  A    between atoms: C_27  and  C_30
                            x       y       z     vdW  Elec       q    Type
                         _______ _______ _______ _____ _____    ______ ____

>  <TORSDO>
F 7

$$$$
=
 OpenBabel10272413563D

 30 34  0  0  1  0  0  0  0  0999 V2000
  186.0730  178.0050  142.1440 C   0  0  0  0  0  3  0  0  0  0  0  0
  183.9090  178.4700  141.1320 C   0  0  0  0  0  0  0  0  0  0  0  0
  184.4860  178.6680  145.9870 C   0  0  0  0  0  3  0  0  0  0  0  0
  186.9060  177.8720  143.2590 C   0  0  0  0  0  0  0  0  0  0  0  0
  185.3080  178.5750  147.1110 C   0  0  0  0  0  3  0  0  0  0  0  0
  182.5610  178.8060  141.2720 C   0  0  0  0  0  3  0  0  0  0  0  0
  184.4370  178.2490  139.8260 N   0  0  0  0  0  1  0  0  0  0  0  0
  185.0000  178.4440  144.6990 C   0  0  0  0  0  0  0  0  0  0  0  0
  182.0150  179.0210  142.5380 C   0  0  0  0  0  3  0  0  0  0  0  0
  184.7240  178.3460  142.2730 C   0  0  0  0  0  0  0  0  0  0  0  0
  186.3720  178.1050  144.5480 C   0  0  0  0  0  0  0  0  0  0  0  0
  186.6590  178.2620  146.9620 C   0  0  0  0  0  3  0  0  0  0  0  0
  187.1860  178.0330  145.6910 C   0  0  0  0  0  3  0  0  0  0  0  0
  182.8170  178.9000  143.6740 C   0  0  0  0  0  3  0  0  0  0  0  0
  184.1770  178.5630  143.5590 C   0  0  0  0  0  0  0  0  0  0  0  0
  188.2890  177.4920  143.0600 N   0  0  0  0  0  0  0  0  0  0  0  0
  190.9030  177.2680  140.5530 C   0  0  0  0  0  3  0  0  0  0  0  0
  188.5790  177.1760  140.1600 O   0  0  0  0  0  0  0  0  0  0  0  0
  189.1950  178.2660  142.2090 C   0  0  1  0  0  3  0  0  0  0  0  0
  190.3950  178.6590  142.9610 N   0  0  0  0  0  0  0  0  0  0  0  0
  189.5110  177.5380  140.9240 C   0  0  0  0  0  0  0  0  0  0  0  0
  191.8960  177.6790  141.3360 C   0  0  0  0  0  3  0  0  0  0  0  0
  191.6140  178.4060  142.5830 C   0  0  0  0  0  3  0  0  0  0  0  0
  188.8130  176.2530  143.6210 C   0  0  0  0  0  2  0  0  0  0  0  0
  189.5980  176.5380  144.8910 C   0  0  0  0  0  2  0  0  0  0  0  0
  191.0000  175.9770  144.7650 C   0  0  0  0  0  2  0  0  0  0  0  0
  191.8410  176.5250  145.8150 N   0  0  0  0  0  2  0  0  0  0  0  0
  192.7310  175.9350  147.9820 C   0  0  0  0  0  2  0  0  0  0  0  0
  192.2760  175.4110  146.6360 C   0  0  0  0  0  3  0  0  0  0  0  0
  191.3670  175.2990  147.8420 C   0  0  0  0  0  2  0  0  0  0  0  0
  1 10  2  0  0  0  0
  1  4  1  0  0  0  0
  2  6  2  0  0  0  0
  2 10  1  0  0  0  0
  3  5  2  0  0  0  0
  4 11  2  0  0  0  0
  6  9  1  0  0  0  0
  7  2  1  0  0  0  0
  8  3  1  0  0  0  0
  9 14  2  0  0  0  0
 10 15  1  0  0  0  0
 11  8  1  0  0  0  0
 11 13  1  0  0  0  0
 12  5  1  0  0  0  0
 13 12  2  0  0  0  0
 15 14  1  0  0  0  0
 15  8  2  0  0  0  0
 16  4  1  0  0  0  0
 16 24  1  0  0  0  0
 17 21  1  0  0  0  0
 17 22  2  0  0  0  0
 18 21  2  0  0  0  0
 19 20  1  0  0  0  0
 19 16  1  1  0  0  0
 21 19  1  0  0  0  0
 22 23  1  0  0  0  0
 23 20  2  0  0  0  0
 24 25  1  0  0  0  0
 26 25  1  0  0  0  0
 26 27  1  0  0  0  0
 27 29  1  0  0  0  0
 29 30  1  0  0  0  0
 29 28  1  0  0  0  0
 30 28  1  0  0  0  0
M  END
>  <MODEL>
6

>  <REMARK>
 VINA RESULT:      -7.8      2.018      4.536
  Name = 
  7 active torsions:
  status: ('A' for Active; 'I' for Inactive)
    1  A    between atoms: C_4  and  N_13
    2  A    between atoms: N_7  and  C_15
    3  A    between atoms: N_7  and  C_16
    4  A    between atoms: C_8  and  N_13
    5  A    between atoms: N_13  and  C_27
    6  A    between atoms: C_16  and  C_30
    7  A    between atoms: C_27  and  C_30
                            x       y       z     vdW  Elec       q    Type
                         _______ _______ _______ _____ _____    ______ ____

>  <TORSDO>
F 7

$$$$
=
 OpenBabel10272413563D

 30 34  0  0  1  0  0  0  0  0999 V2000
  187.4500  178.0140  141.6510 C   0  0  0  0  0  3  0  0  0  0  0  0
  185.3910  178.3820  142.8960 C   0  0  0  0  0  0  0  0  0  0  0  0
  189.5230  177.1580  145.2150 C   0  0  0  0  0  3  0  0  0  0  0  0
  188.8080  177.6890  141.5890 C   0  0  0  0  0  0  0  0  0  0  0  0
  190.8870  176.8660  145.1790 C   0  0  0  0  0  3  0  0  0  0  0  0
  184.7090  178.4160  144.1140 C   0  0  0  0  0  3  0  0  0  0  0  0
  184.6800  178.6750  141.6950 N   0  0  0  0  0  1  0  0  0  0  0  0
  188.8160  177.4400  144.0330 C   0  0  0  0  0  0  0  0  0  0  0  0
  185.3780  178.1270  145.3040 C   0  0  0  0  0  3  0  0  0  0  0  0
  186.7600  178.0550  142.8650 C   0  0  0  0  0  0  0  0  0  0  0  0
  189.5040  177.4120  142.7890 C   0  0  0  0  0  0  0  0  0  0  0  0
  191.5660  176.8580  143.9620 C   0  0  0  0  0  3  0  0  0  0  0  0
  190.8810  177.1320  142.7780 C   0  0  0  0  0  3  0  0  0  0  0  0
  186.7350  177.8020  145.2830 C   0  0  0  0  0  3  0  0  0  0  0  0
  187.4430  177.7620  144.0690 C   0  0  0  0  0  0  0  0  0  0  0  0
  189.4600  177.6400  140.2980 N   0  0  0  0  0  0  0  0  0  0  0  0
  192.1760  176.6300  138.1140 C   0  0  0  0  0  3  0  0  0  0  0  0
  192.3890  177.7020  140.2040 O   0  0  0  0  0  0  0  0  0  0  0  0
  190.3190  176.5230  139.9020 C   0  0  1  0  0  3  0  0  0  0  0  0
  189.6380  175.6770  138.9120 N   0  0  0  0  0  0  0  0  0  0  0  0
  191.6760  176.9990  139.4420 C   0  0  0  0  0  0  0  0  0  0  0  0
  191.4460  175.8590  137.3140 C   0  0  0  0  0  3  0  0  0  0  0  0
  190.1290  175.3670  137.7480 C   0  0  0  0  0  3  0  0  0  0  0  0
  189.3710  178.7610  139.3710 C   0  0  0  0  0  2  0  0  0  0  0  0
  188.3590  178.4630  138.2770 C   0  0  0  0  0  2  0  0  0  0  0  0
  188.9320  178.8460  136.9270 C   0  0  0  0  0  2  0  0  0  0  0  0
  188.4460  177.9280  135.9120 N   0  0  0  0  0  2  0  0  0  0  0  0
  186.2830  177.2570  135.0730 C   0  0  0  0  0  2  0  0  0  0  0  0
  187.1140  177.5200  136.3120 C   0  0  0  0  0  3  0  0  0  0  0  0
  186.8690  176.0990  135.8470 C   0  0  0  0  0  2  0  0  0  0  0  0
  1 10  1  0  0  0  0
  2  6  1  0  0  0  0
  4  1  2  0  0  0  0
  4 11  1  0  0  0  0
  5  3  1  0  0  0  0
  6  9  2  0  0  0  0
  7  2  1  0  0  0  0
  8 15  1  0  0  0  0
  8  3  2  0  0  0  0
 10  2  2  0  0  0  0
 10 15  1  0  0  0  0
 11  8  1  0  0  0  0
 12  5  2  0  0  0  0
 13 11  2  0  0  0  0
 13 12  1  0  0  0  0
 14  9  1  0  0  0  0
 15 14  2  0  0  0  0
 16  4  1  0  0  0  0
 17 21  1  0  0  0  0
 19 16  1  6  0  0  0
 20 19  1  0  0  0  0
 21 19  1  0  0  0  0
 21 18  2  0  0  0  0
 22 23  1  0  0  0  0
 22 17  2  0  0  0  0
 23 20  2  0  0  0  0
 24 16  1  0  0  0  0
 25 24  1  0  0  0  0
 26 25  1  0  0  0  0
 27 29  1  0  0  0  0
 27 26  1  0  0  0  0
 28 30  1  0  0  0  0
 28 29  1  0  0  0  0
 30 29  1  0  0  0  0
M  END
>  <MODEL>
7

>  <REMARK>
 VINA RESULT:      -7.7      2.046      3.988
  Name = 
  7 active torsions:
  status: ('A' for Active; 'I' for Inactive)
    1  A    between atoms: C_4  and  N_13
    2  A    between atoms: N_7  and  C_15
    3  A    between atoms: N_7  and  C_16
    4  A    between atoms: C_8  and  N_13
    5  A    between atoms: N_13  and  C_27
    6  A    between atoms: C_16  and  C_30
    7  A    between atoms: C_27  and  C_30
                            x       y       z     vdW  Elec       q    Type
                         _______ _______ _______ _____ _____    ______ ____

>  <TORSDO>
F 7

$$$$
=
 OpenBabel10272413563D

 30 34  0  0  1  0  0  0  0  0999 V2000
  189.6750  177.4500  139.7610 C   0  0  0  0  0  3  0  0  0  0  0  0
  190.3120  176.8690  137.4850 C   0  0  0  0  0  0  0  0  0  0  0  0
  185.7760  178.4050  138.4900 C   0  0  0  0  0  3  0  0  0  0  0  0
  188.7390  177.8880  140.7020 C   0  0  0  0  0  0  0  0  0  0  0  0
  184.8360  178.8760  139.4070 C   0  0  0  0  0  3  0  0  0  0  0  0
  189.9740  176.7330  136.1360 C   0  0  0  0  0  3  0  0  0  0  0  0
  191.6360  176.5450  137.9040 N   0  0  0  0  0  1  0  0  0  0  0  0
  187.0790  178.0770  138.9000 C   0  0  0  0  0  0  0  0  0  0  0  0
  188.6850  177.0360  135.6990 C   0  0  0  0  0  3  0  0  0  0  0  0
  189.3490  177.3150  138.4090 C   0  0  0  0  0  0  0  0  0  0  0  0
  187.4320  178.2170  140.2700 C   0  0  0  0  0  0  0  0  0  0  0  0
  185.1870  179.0330  140.7470 C   0  0  0  0  0  3  0  0  0  0  0  0
  186.4750  178.7090  141.1730 C   0  0  0  0  0  3  0  0  0  0  0  0
  187.7240  177.4790  136.6090 C   0  0  0  0  0  3  0  0  0  0  0  0
  188.0400  177.6250  137.9700 C   0  0  0  0  0  0  0  0  0  0  0  0
  189.1320  177.9830  142.0920 N   0  0  0  0  0  0  0  0  0  0  0  0
  191.2350  176.3120  144.5310 C   0  0  0  0  0  3  0  0  0  0  0  0
  190.3800  175.3700  142.5450 O   0  0  0  0  0  0  0  0  0  0  0  0
  190.5130  177.7680  142.5260 C   0  0  1  0  0  3  0  0  0  0  0  0
  190.9630  178.8780  143.3770 N   0  0  0  0  0  0  0  0  0  0  0  0
  190.6880  176.4150  143.1750 C   0  0  0  0  0  0  0  0  0  0  0  0
  191.5980  177.4080  145.1910 C   0  0  0  0  0  3  0  0  0  0  0  0
  191.4540  178.7360  144.5730 C   0  0  0  0  0  3  0  0  0  0  0  0
  188.1390  178.1970  143.1380 C   0  0  0  0  0  2  0  0  0  0  0  0
  187.6890  176.8670  143.7180 C   0  0  0  0  0  2  0  0  0  0  0  0
  187.1550  177.0730  145.1220 C   0  0  0  0  0  2  0  0  0  0  0  0
  188.1020  177.8610  145.8930 N   0  0  0  0  0  2  0  0  0  0  0  0
  189.2590  177.9610  148.0110 C   0  0  0  0  0  2  0  0  0  0  0  0
  188.3720  177.1240  147.1120 C   0  0  0  0  0  3  0  0  0  0  0  0
  187.7750  177.8710  148.2870 C   0  0  0  0  0  2  0  0  0  0  0  0
  1  4  1  0  0  0  0
  2  7  1  0  0  0  0
  2 10  1  0  0  0  0
  3  8  1  0  0  0  0
  3  5  2  0  0  0  0
  4 16  1  0  0  0  0
  5 12  1  0  0  0  0
  6  2  2  0  0  0  0
  8 11  1  0  0  0  0
  9  6  1  0  0  0  0
  9 14  2  0  0  0  0
 10  1  2  0  0  0  0
 11  4  2  0  0  0  0
 11 13  1  0  0  0  0
 12 13  2  0  0  0  0
 14 15  1  0  0  0  0
 15 10  1  0  0  0  0
 15  8  2  0  0  0  0
 16 24  1  0  0  0  0
 17 22  2  0  0  0  0
 18 21  2  0  0  0  0
 19 16  1  1  0  0  0
 19 21  1  0  0  0  0
 19 20  1  0  0  0  0
 20 23  2  0  0  0  0
 21 17  1  0  0  0  0
 23 22  1  0  0  0  0
 24 25  1  0  0  0  0
 25 26  1  0  0  0  0
 26 27  1  0  0  0  0
 27 29  1  0  0  0  0
 28 30  1  0  0  0  0
 29 28  1  0  0  0  0
 29 30  1  0  0  0  0
M  END
>  <MODEL>
8

>  <REMARK>
 VINA RESULT:      -7.7      2.442      6.499
  Name = 
  7 active torsions:
  status: ('A' for Active; 'I' for Inactive)
    1  A    between atoms: C_4  and  N_13
    2  A    between atoms: N_7  and  C_15
    3  A    between atoms: N_7  and  C_16
    4  A    between atoms: C_8  and  N_13
    5  A    between atoms: N_13  and  C_27
    6  A    between atoms: C_16  and  C_30
    7  A    between atoms: C_27  and  C_30
                            x       y       z     vdW  Elec       q    Type
                         _______ _______ _______ _____ _____    ______ ____

>  <TORSDO>
F 7

$$$$
=
 OpenBabel10272413563D

 30 34  0  0  1  0  0  0  0  0999 V2000
  188.6300  177.7650  144.6170 C   0  0  0  0  0  3  0  0  0  0  0  0
  189.4080  177.6220  146.9180 C   0  0  0  0  0  0  0  0  0  0  0  0
  184.7310  178.6670  145.9250 C   0  0  0  0  0  3  0  0  0  0  0  0
  187.6260  177.9830  143.6690 C   0  0  0  0  0  0  0  0  0  0  0  0
  183.7070  178.8540  144.9970 C   0  0  0  0  0  3  0  0  0  0  0  0
  189.1430  177.7090  148.2870 C   0  0  0  0  0  3  0  0  0  0  0  0
  190.7310  177.3150  146.4860 N   0  0  0  0  0  1  0  0  0  0  0  0
  186.0390  178.3710  145.5030 C   0  0  0  0  0  0  0  0  0  0  0  0
  187.8590  178.0150  148.7390 C   0  0  0  0  0  3  0  0  0  0  0  0
  188.3760  177.8450  145.9880 C   0  0  0  0  0  0  0  0  0  0  0  0
  186.3150  178.2770  144.1120 C   0  0  0  0  0  0  0  0  0  0  0  0
  183.9730  178.7430  143.6330 C   0  0  0  0  0  3  0  0  0  0  0  0
  185.2650  178.4520  143.1950 C   0  0  0  0  0  3  0  0  0  0  0  0
  186.8300  178.2370  147.8220 C   0  0  0  0  0  3  0  0  0  0  0  0
  187.0710  178.1550  146.4410 C   0  0  0  0  0  0  0  0  0  0  0  0
  187.9600  177.9100  142.2620 N   0  0  0  0  0  0  0  0  0  0  0  0
  190.6690  175.6990  143.2330 C   0  0  0  0  0  3  0  0  0  0  0  0
  188.4010  175.1010  142.9720 O   0  0  0  0  0  0  0  0  0  0  0  0
  189.0510  177.0720  141.7640 C   0  0  1  0  0  3  0  0  0  0  0  0
  190.2440  177.8870  141.4950 N   0  0  0  0  0  0  0  0  0  0  0  0
  189.3240  175.9060  142.6850 C   0  0  0  0  0  0  0  0  0  0  0  0
  191.6590  176.5240  142.9070 C   0  0  0  0  0  3  0  0  0  0  0  0
  191.4220  177.6550  141.9970 C   0  0  0  0  0  3  0  0  0  0  0  0
  187.2850  178.7580  141.2880 C   0  0  0  0  0  2  0  0  0  0  0  0
  186.8150  177.9310  140.1030 C   0  0  0  0  0  2  0  0  0  0  0  0
  186.0610  178.8120  139.1270 C   0  0  0  0  0  2  0  0  0  0  0  0
  184.8960  179.3820  139.7840 N   0  0  0  0  0  2  0  0  0  0  0  0
  182.6560  178.6880  140.3610 C   0  0  0  0  0  2  0  0  0  0  0  0
  183.7390  178.6540  139.3020 C   0  0  0  0  0  3  0  0  0  0  0  0
  182.5720  179.6100  139.1660 C   0  0  0  0  0  2  0  0  0  0  0  0
  1 10  1  0  0  0  0
  2  6  1  0  0  0  0
  4 11  1  0  0  0  0
  4  1  2  0  0  0  0
  5  3  2  0  0  0  0
  6  9  2  0  0  0  0
  7  2  1  0  0  0  0
  8  3  1  0  0  0  0
  8 15  1  0  0  0  0
 10 15  1  0  0  0  0
 10  2  2  0  0  0  0
 11  8  2  0  0  0  0
 12  5  1  0  0  0  0
 13 12  2  0  0  0  0
 13 11  1  0  0  0  0
 14  9  1  0  0  0  0
 15 14  2  0  0  0  0
 16  4  1  0  0  0  0
 19 16  1  1  0  0  0
 19 21  1  0  0  0  0
 20 19  1  0  0  0  0
 20 23  2  0  0  0  0
 21 18  2  0  0  0  0
 21 17  1  0  0  0  0
 22 17  2  0  0  0  0
 23 22  1  0  0  0  0
 24 16  1  0  0  0  0
 25 24  1  0  0  0  0
 26 27  1  0  0  0  0
 26 25  1  0  0  0  0
 29 27  1  0  0  0  0
 29 28  1  0  0  0  0
 30 29  1  0  0  0  0
 30 28  1  0  0  0  0
M  END
>  <MODEL>
9

>  <REMARK>
 VINA RESULT:      -7.7      1.871      4.588
  Name = 
  7 active torsions:
  status: ('A' for Active; 'I' for Inactive)
    1  A    between atoms: C_4  and  N_13
    2  A    between atoms: N_7  and  C_15
    3  A    between atoms: N_7  and  C_16
    4  A    between atoms: C_8  and  N_13
    5  A    between atoms: N_13  and  C_27
    6  A    between atoms: C_16  and  C_30
    7  A    between atoms: C_27  and  C_30
                            x       y       z     vdW  Elec       q    Type
                         _______ _______ _______ _____ _____    ______ ____

>  <TORSDO>
F 7

$$$$
