=
 OpenBabel10272400503D

 25 29  0  0  1  0  0  0  0  0999 V2000
  187.3510  177.9400  145.5290 C   0  0  0  0  0  0  0  0  0  0  0  0
  188.6440  177.5840  145.1140 C   0  0  0  0  0  0  0  0  0  0  0  0
  188.0580  177.8930  147.8160 N   0  0  0  0  0  0  0  0  0  0  0  0
  186.2040  178.1870  144.7560 C   0  0  0  0  0  0  0  0  0  0  0  0
  183.7380  178.7530  143.5690 C   0  0  0  0  0  3  0  0  0  0  0  0
  189.2920  177.5470  147.4330 N   0  0  0  0  0  0  0  0  0  0  0  0
  185.0960  178.5200  145.5330 C   0  0  0  0  0  0  0  0  0  0  0  0
  183.8560  178.8060  144.9660 C   0  0  0  0  0  3  0  0  0  0  0  0
  190.9990  177.0130  145.7390 C   0  0  0  0  0  0  0  0  0  0  0  0
  191.8770  176.8430  146.6260 O   0  0  0  0  0  0  0  0  0  0  0  0
  188.9800  177.3500  143.6650 C   0  0  0  0  0  2  0  0  0  0  0  0
  184.8490  178.4190  142.7730 C   0  0  0  0  0  3  0  0  0  0  0  0
  187.0970  178.0890  146.8840 C   0  0  0  0  0  0  0  0  0  0  0  0
  185.4930  178.5180  147.1730 S   0  0  0  0  0  0  0  0  0  0  0  0
  190.4590  177.6300  143.3870 C   0  0  1  0  0  3  0  0  0  0  0  0
  186.0900  178.1350  143.3620 C   0  0  0  0  0  3  0  0  0  0  0  0
  191.3550  176.7930  144.3000 C   0  0  0  0  0  2  0  0  0  0  0  0
  189.6200  177.3780  146.1160 C   0  0  0  0  0  0  0  0  0  0  0  0
  192.3820  177.2620  140.1230 C   0  0  0  0  0  0  0  0  0  0  0  0
  190.7840  177.3930  141.9460 C   0  0  0  0  0  0  0  0  0  0  0  0
  192.1030  177.4900  141.4730 C   0  0  0  0  0  3  0  0  0  0  0  0
  193.6870  177.3570  139.6580 O   0  0  0  0  0  1  0  0  0  0  0  0
  189.7540  177.0690  141.0580 C   0  0  0  0  0  3  0  0  0  0  0  0
  191.3470  176.9380  139.2390 C   0  0  0  0  0  3  0  0  0  0  0  0
  190.0340  176.8420  139.7080 C   0  0  0  0  0  3  0  0  0  0  0  0
  1 13  1  0  0  0  0
  2  1  2  0  0  0  0
  2 18  1  0  0  0  0
  4  1  1  0  0  0  0
  4  7  1  0  0  0  0
  5  8  1  0  0  0  0
  6  3  1  0  0  0  0
  7 14  1  0  0  0  0
  8  7  2  0  0  0  0
  9 18  1  0  0  0  0
  9 10  2  0  0  0  0
 11  2  1  0  0  0  0
 12 16  1  0  0  0  0
 12  5  2  0  0  0  0
 13 14  1  0  0  0  0
 13  3  2  0  0  0  0
 15 20  1  6  0  0  0
 15 11  1  0  0  0  0
 15 17  1  0  0  0  0
 16  4  2  0  0  0  0
 17  9  1  0  0  0  0
 18  6  2  0  0  0  0
 19 21  1  0  0  0  0
 21 20  2  0  0  0  0
 22 19  1  0  0  0  0
 23 20  1  0  0  0  0
 24 25  1  0  0  0  0
 24 19  2  0  0  0  0
 25 23  2  0  0  0  0
M  END
>  <MODEL>
1

>  <REMARK>
 VINA RESULT:     -11.4      0.000      0.000
  Name = 
  1 active torsions:
  status: ('A' for Active; 'I' for Inactive)
    1  A    between atoms: C_6  and  C_20
                            x       y       z     vdW  Elec       q    Type
                         _______ _______ _______ _____ _____    ______ ____

>  <TORSDO>
F 1

$$$$
=
 OpenBabel10272400503D

 25 29  0  0  1  0  0  0  0  0999 V2000
  186.9950  177.8880  145.0170 C   0  0  0  0  0  0  0  0  0  0  0  0
  188.1640  177.5120  144.3370 C   0  0  0  0  0  0  0  0  0  0  0  0
  188.1100  177.6090  147.1170 N   0  0  0  0  0  0  0  0  0  0  0  0
  185.7410  178.2530  144.4960 C   0  0  0  0  0  0  0  0  0  0  0  0
  183.1370  179.0310  143.8470 C   0  0  0  0  0  3  0  0  0  0  0  0
  189.2280  177.2430  146.4810 N   0  0  0  0  0  0  0  0  0  0  0  0
  184.8180  178.5660  145.4940 C   0  0  0  0  0  0  0  0  0  0  0  0
  183.5150  178.9560  145.1960 C   0  0  0  0  0  3  0  0  0  0  0  0
  190.5550  176.7840  144.4580 C   0  0  0  0  0  0  0  0  0  0  0  0
  191.5700  176.4970  145.1460 O   0  0  0  0  0  0  0  0  0  0  0  0
  188.2110  177.3910  142.8380 C   0  0  0  0  0  2  0  0  0  0  0  0
  184.0580  178.7180  142.8310 C   0  0  0  0  0  3  0  0  0  0  0  0
  187.0060  177.9290  146.4020 C   0  0  0  0  0  0  0  0  0  0  0  0
  185.5120  178.4030  147.0230 S   0  0  0  0  0  0  0  0  0  0  0  0
  189.6270  177.6280  142.3060 C   0  0  1  0  0  3  0  0  0  0  0  0
  185.3680  178.3280  143.1500 C   0  0  0  0  0  3  0  0  0  0  0  0
  190.6240  176.6740  142.9640 C   0  0  0  0  0  2  0  0  0  0  0  0
  189.2950  177.1750  145.1170 C   0  0  0  0  0  0  0  0  0  0  0  0
  188.7820  178.0310  138.6160 C   0  0  0  0  0  0  0  0  0  0  0  0
  189.6650  177.5040  140.8160 C   0  0  0  0  0  0  0  0  0  0  0  0
  188.7240  178.1610  140.0070 C   0  0  0  0  0  3  0  0  0  0  0  0
  187.8520  178.6830  137.8180 O   0  0  0  0  0  1  0  0  0  0  0  0
  190.6580  176.7180  140.2220 C   0  0  0  0  0  3  0  0  0  0  0  0
  189.7780  177.2440  138.0280 C   0  0  0  0  0  3  0  0  0  0  0  0
  190.7150  176.5880  138.8320 C   0  0  0  0  0  3  0  0  0  0  0  0
  1 13  1  0  0  0  0
  2  1  2  0  0  0  0
  2 18  1  0  0  0  0
  4  1  1  0  0  0  0
  4  7  1  0  0  0  0
  5  8  1  0  0  0  0
  6  3  1  0  0  0  0
  7 14  1  0  0  0  0
  8  7  2  0  0  0  0
  9 18  1  0  0  0  0
  9 10  2  0  0  0  0
 11  2  1  0  0  0  0
 12 16  1  0  0  0  0
 12  5  2  0  0  0  0
 13 14  1  0  0  0  0
 13  3  2  0  0  0  0
 15 20  1  6  0  0  0
 15 11  1  0  0  0  0
 15 17  1  0  0  0  0
 16  4  2  0  0  0  0
 17  9  1  0  0  0  0
 18  6  2  0  0  0  0
 19 21  1  0  0  0  0
 21 20  2  0  0  0  0
 22 19  1  0  0  0  0
 23 20  1  0  0  0  0
 24 19  2  0  0  0  0
 24 25  1  0  0  0  0
 25 23  2  0  0  0  0
M  END
>  <MODEL>
2

>  <REMARK>
 VINA RESULT:     -11.1      1.603      1.949
  Name = 
  1 active torsions:
  status: ('A' for Active; 'I' for Inactive)
    1  A    between atoms: C_6  and  C_20
                            x       y       z     vdW  Elec       q    Type
                         _______ _______ _______ _____ _____    ______ ____

>  <TORSDO>
F 1

$$$$
=
 OpenBabel10272400503D

 25 29  0  0  1  0  0  0  0  0999 V2000
  186.2390  178.4110  142.0220 C   0  0  0  0  0  0  0  0  0  0  0  0
  187.6000  178.1220  142.2000 C   0  0  0  0  0  0  0  0  0  0  0  0
  186.5480  178.4760  139.6500 N   0  0  0  0  0  0  0  0  0  0  0  0
  185.2280  178.5670  142.9870 C   0  0  0  0  0  0  0  0  0  0  0  0
  182.9710  178.9400  144.5930 C   0  0  0  0  0  3  0  0  0  0  0  0
  187.8490  178.2080  139.8060 N   0  0  0  0  0  0  0  0  0  0  0  0
  183.9860  178.8490  142.4200 C   0  0  0  0  0  0  0  0  0  0  0  0
  182.8460  179.0390  143.1990 C   0  0  0  0  0  3  0  0  0  0  0  0
  189.8440  177.7230  141.1660 C   0  0  0  0  0  0  0  0  0  0  0  0
  190.5650  177.6280  140.1380 O   0  0  0  0  0  0  0  0  0  0  0  0
  188.2150  177.9840  143.5670 C   0  0  0  0  0  2  0  0  0  0  0  0
  184.2190  178.6550  145.1770 C   0  0  0  0  0  3  0  0  0  0  0  0
  185.7490  178.5770  140.7370 C   0  0  0  0  0  0  0  0  0  0  0  0
  184.0970  178.9140  140.7380 S   0  0  0  0  0  0  0  0  0  0  0  0
  189.4400  177.0670  143.5350 C   0  0  1  0  0  3  0  0  0  0  0  0
  185.3560  178.4650  144.3770 C   0  0  0  0  0  3  0  0  0  0  0  0
  190.4690  177.5650  142.5190 C   0  0  0  0  0  2  0  0  0  0  0  0
  188.4080  178.0350  141.0420 C   0  0  0  0  0  0  0  0  0  0  0  0
  189.9240  177.1880  147.3090 C   0  0  0  0  0  0  0  0  0  0  0  0
  190.0450  176.9370  144.8970 C   0  0  0  0  0  0  0  0  0  0  0  0
  189.3380  177.3220  146.0470 C   0  0  0  0  0  3  0  0  0  0  0  0
  189.2220  177.5680  148.4450 O   0  0  0  0  0  1  0  0  0  0  0  0
  191.3390  176.4230  145.0210 C   0  0  0  0  0  3  0  0  0  0  0  0
  191.2190  176.6730  147.4270 C   0  0  0  0  0  3  0  0  0  0  0  0
  191.9260  176.2900  146.2830 C   0  0  0  0  0  3  0  0  0  0  0  0
  1  2  1  0  0  0  0
  1  4  1  0  0  0  0
  2 11  1  0  0  0  0
  3  6  2  0  0  0  0
  3 13  1  0  0  0  0
  4 16  1  0  0  0  0
  5 12  1  0  0  0  0
  6 18  1  0  0  0  0
  7  4  2  0  0  0  0
  7  8  1  0  0  0  0
  8  5  2  0  0  0  0
  9 17  1  0  0  0  0
 10  9  2  0  0  0  0
 13 14  1  0  0  0  0
 13  1  2  0  0  0  0
 14  7  1  0  0  0  0
 15 11  1  0  0  0  0
 15 20  1  1  0  0  0
 16 12  2  0  0  0  0
 17 15  1  0  0  0  0
 18  9  1  0  0  0  0
 18  2  2  0  0  0  0
 19 24  1  0  0  0  0
 19 22  1  0  0  0  0
 20 23  2  0  0  0  0
 20 21  1  0  0  0  0
 21 19  2  0  0  0  0
 23 25  1  0  0  0  0
 25 24  2  0  0  0  0
M  END
>  <MODEL>
3

>  <REMARK>
 VINA RESULT:     -10.9      3.039      5.267
  Name = 
  1 active torsions:
  status: ('A' for Active; 'I' for Inactive)
    1  A    between atoms: C_6  and  C_20
                            x       y       z     vdW  Elec       q    Type
                         _______ _______ _______ _____ _____    ______ ____

>  <TORSDO>
F 1

$$$$
=
 OpenBabel10272400503D

 25 29  0  0  1  0  0  0  0  0999 V2000
  185.0260  178.5970  141.5130 C   0  0  0  0  0  0  0  0  0  0  0  0
  186.3350  178.3970  141.9790 C   0  0  0  0  0  0  0  0  0  0  0  0
  185.8210  178.6250  139.2550 N   0  0  0  0  0  0  0  0  0  0  0  0
  183.8300  178.7130  142.2410 C   0  0  0  0  0  0  0  0  0  0  0  0
  181.2700  178.9820  143.3290 C   0  0  0  0  0  3  0  0  0  0  0  0
  187.0730  178.4420  139.6880 N   0  0  0  0  0  0  0  0  0  0  0  0
  182.7200  178.9040  141.4190 C   0  0  0  0  0  0  0  0  0  0  0  0
  181.4340  179.0410  141.9370 C   0  0  0  0  0  3  0  0  0  0  0  0
  188.7640  178.1130  141.4490 C   0  0  0  0  0  0  0  0  0  0  0  0
  189.6880  178.0390  140.5960 O   0  0  0  0  0  0  0  0  0  0  0  0
  186.6570  178.3300  143.4480 C   0  0  0  0  0  2  0  0  0  0  0  0
  182.3810  178.7890  144.1690 C   0  0  0  0  0  3  0  0  0  0  0  0
  184.8080  178.7010  140.1480 C   0  0  0  0  0  0  0  0  0  0  0  0
  183.1760  178.9350  139.7950 S   0  0  0  0  0  0  0  0  0  0  0  0
  187.9100  177.4900  143.7040 C   0  0  1  0  0  3  0  0  0  0  0  0
  183.6700  178.6520  143.6290 C   0  0  0  0  0  3  0  0  0  0  0  0
  189.1000  178.0270  142.9070 C   0  0  0  0  0  2  0  0  0  0  0  0
  187.3700  178.3320  141.0180 C   0  0  0  0  0  0  0  0  0  0  0  0
  189.7780  177.0510  146.9910 C   0  0  0  0  0  0  0  0  0  0  0  0
  188.2240  177.4300  145.1650 C   0  0  0  0  0  0  0  0  0  0  0  0
  189.5090  177.0970  145.6210 C   0  0  0  0  0  3  0  0  0  0  0  0
  191.0500  176.7220  147.4390 O   0  0  0  0  0  1  0  0  0  0  0  0
  187.2140  177.7130  146.0910 C   0  0  0  0  0  3  0  0  0  0  0  0
  188.7640  177.3330  147.9130 C   0  0  0  0  0  3  0  0  0  0  0  0
  187.4830  177.6650  147.4620 C   0  0  0  0  0  3  0  0  0  0  0  0
  1  2  1  0  0  0  0
  1  4  1  0  0  0  0
  2 11  1  0  0  0  0
  3  6  2  0  0  0  0
  3 13  1  0  0  0  0
  4 16  1  0  0  0  0
  5 12  1  0  0  0  0
  6 18  1  0  0  0  0
  7  8  1  0  0  0  0
  7  4  2  0  0  0  0
  8  5  2  0  0  0  0
  9 17  1  0  0  0  0
 10  9  2  0  0  0  0
 11 15  1  0  0  0  0
 13  1  2  0  0  0  0
 14 13  1  0  0  0  0
 14  7  1  0  0  0  0
 15 20  1  1  0  0  0
 16 12  2  0  0  0  0
 17 15  1  0  0  0  0
 18  9  1  0  0  0  0
 18  2  2  0  0  0  0
 19 22  1  0  0  0  0
 19 24  1  0  0  0  0
 20 21  1  0  0  0  0
 20 23  2  0  0  0  0
 21 19  2  0  0  0  0
 23 25  1  0  0  0  0
 25 24  2  0  0  0  0
M  END
>  <MODEL>
4

>  <REMARK>
 VINA RESULT:     -10.8      3.392      5.759
  Name = 
  1 active torsions:
  status: ('A' for Active; 'I' for Inactive)
    1  A    between atoms: C_6  and  C_20
                            x       y       z     vdW  Elec       q    Type
                         _______ _______ _______ _____ _____    ______ ____

>  <TORSDO>
F 1

$$$$
=
 OpenBabel10272400503D

 25 29  0  0  1  0  0  0  0  0999 V2000
  187.7110  177.6710  145.0670 C   0  0  0  0  0  0  0  0  0  0  0  0
  188.6270  177.3190  144.0630 C   0  0  0  0  0  0  0  0  0  0  0  0
  189.3640  177.2430  146.7450 N   0  0  0  0  0  0  0  0  0  0  0  0
  186.3750  178.0900  144.9450 C   0  0  0  0  0  0  0  0  0  0  0  0
  183.7210  178.9500  145.1060 C   0  0  0  0  0  3  0  0  0  0  0  0
  190.2430  176.8980  145.7990 N   0  0  0  0  0  0  0  0  0  0  0  0
  185.7830  178.3550  146.1790 C   0  0  0  0  0  0  0  0  0  0  0  0
  184.4620  178.7850  146.2850 C   0  0  0  0  0  3  0  0  0  0  0  0
  190.9290  176.5440  143.4600 C   0  0  0  0  0  0  0  0  0  0  0  0
  192.0870  176.1980  143.8140 O   0  0  0  0  0  0  0  0  0  0  0  0
  188.2450  177.2910  142.6080 C   0  0  0  0  0  2  0  0  0  0  0  0
  184.3070  178.6870  143.8540 C   0  0  0  0  0  3  0  0  0  0  0  0
  188.1150  177.6250  146.3920 C   0  0  0  0  0  0  0  0  0  0  0  0
  186.8740  178.0850  147.4370 S   0  0  0  0  0  0  0  0  0  0  0  0
  189.4600  177.5370  141.7100 C   0  0  1  0  0  3  0  0  0  0  0  0
  185.6400  178.2550  143.7660 C   0  0  0  0  0  3  0  0  0  0  0  0
  190.5700  176.5270  142.0050 C   0  0  0  0  0  2  0  0  0  0  0  0
  189.9200  176.9150  144.4700 C   0  0  0  0  0  0  0  0  0  0  0  0
  187.5290  178.0380  138.4680 C   0  0  0  0  0  0  0  0  0  0  0  0
  189.0710  177.5050  140.2660 C   0  0  0  0  0  0  0  0  0  0  0  0
  187.8680  178.0780  139.8240 C   0  0  0  0  0  3  0  0  0  0  0  0
  186.3390  178.6060  138.0330 O   0  0  0  0  0  1  0  0  0  0  0  0
  189.9260  176.8930  139.3430 C   0  0  0  0  0  3  0  0  0  0  0  0
  188.3870  177.4250  137.5500 C   0  0  0  0  0  3  0  0  0  0  0  0
  189.5850  176.8530  137.9880 C   0  0  0  0  0  3  0  0  0  0  0  0
  1 13  2  0  0  0  0
  2 18  2  0  0  0  0
  2  1  1  0  0  0  0
  4  1  1  0  0  0  0
  4  7  1  0  0  0  0
  5  8  1  0  0  0  0
  6  3  2  0  0  0  0
  7  8  2  0  0  0  0
  7 14  1  0  0  0  0
  9 10  2  0  0  0  0
  9 18  1  0  0  0  0
 11  2  1  0  0  0  0
 12  5  2  0  0  0  0
 13  3  1  0  0  0  0
 13 14  1  0  0  0  0
 15 20  1  6  0  0  0
 15 17  1  0  0  0  0
 15 11  1  0  0  0  0
 16 12  1  0  0  0  0
 16  4  2  0  0  0  0
 17  9  1  0  0  0  0
 18  6  1  0  0  0  0
 19 21  1  0  0  0  0
 21 20  2  0  0  0  0
 22 19  1  0  0  0  0
 23 20  1  0  0  0  0
 24 25  1  0  0  0  0
 24 19  2  0  0  0  0
 25 23  2  0  0  0  0
M  END
>  <MODEL>
5

>  <REMARK>
 VINA RESULT:     -10.6      2.115      2.669
  Name = 
  1 active torsions:
  status: ('A' for Active; 'I' for Inactive)
    1  A    between atoms: C_6  and  C_20
                            x       y       z     vdW  Elec       q    Type
                         _______ _______ _______ _____ _____    ______ ____

>  <TORSDO>
F 1

$$$$
=
 OpenBabel10272400503D

 25 29  0  0  1  0  0  0  0  0999 V2000
  188.9160  177.6830  143.7140 C   0  0  0  0  0  0  0  0  0  0  0  0
  187.8790  177.9060  142.7940 C   0  0  0  0  0  0  0  0  0  0  0  0
  190.5250  177.7770  141.9440 N   0  0  0  0  0  0  0  0  0  0  0  0
  188.8460  177.4960  145.1050 C   0  0  0  0  0  0  0  0  0  0  0  0
  189.1110  177.0930  147.8580 C   0  0  0  0  0  3  0  0  0  0  0  0
  189.5460  177.9840  141.0570 N   0  0  0  0  0  0  0  0  0  0  0  0
  190.1010  177.3020  145.6820 C   0  0  0  0  0  0  0  0  0  0  0  0
  190.2590  177.1000  147.0510 C   0  0  0  0  0  3  0  0  0  0  0  0
  187.1860  178.2950  140.4210 C   0  0  0  0  0  0  0  0  0  0  0  0
  187.4950  178.4370  139.2080 O   0  0  0  0  0  0  0  0  0  0  0  0
  186.4330  177.9220  143.2110 C   0  0  0  0  0  2  0  0  0  0  0  0
  187.8400  177.2880  147.2880 C   0  0  0  0  0  3  0  0  0  0  0  0
  190.2220  177.6290  143.2540 C   0  0  0  0  0  0  0  0  0  0  0  0
  191.3130  177.3550  144.5100 S   0  0  0  0  0  0  0  0  0  0  0  0
  185.5950  178.7920  142.2710 C   0  0  1  0  0  3  0  0  0  0  0  0
  187.7000  177.4920  145.9060 C   0  0  0  0  0  3  0  0  0  0  0  0
  185.7420  178.3310  140.8210 C   0  0  0  0  0  2  0  0  0  0  0  0
  188.2320  178.0470  141.4320 C   0  0  0  0  0  0  0  0  0  0  0  0
  181.7900  178.7920  142.1600 C   0  0  0  0  0  0  0  0  0  0  0  0
  184.1590  178.8010  142.6910 C   0  0  0  0  0  0  0  0  0  0  0  0
  183.1240  178.7860  141.7430 C   0  0  0  0  0  3  0  0  0  0  0  0
  180.7680  178.7760  141.2200 O   0  0  0  0  0  1  0  0  0  0  0  0
  183.8470  178.8240  144.0540 C   0  0  0  0  0  3  0  0  0  0  0  0
  181.4840  178.8150  143.5240 C   0  0  0  0  0  3  0  0  0  0  0  0
  182.5130  178.8300  144.4710 C   0  0  0  0  0  3  0  0  0  0  0  0
  1  4  1  0  0  0  0
  2 11  1  0  0  0  0
  2  1  1  0  0  0  0
  3 13  1  0  0  0  0
  4  7  2  0  0  0  0
  4 16  1  0  0  0  0
  6 18  1  0  0  0  0
  6  3  2  0  0  0  0
  7  8  1  0  0  0  0
  8  5  2  0  0  0  0
  9 17  1  0  0  0  0
  9 18  1  0  0  0  0
 10  9  2  0  0  0  0
 12  5  1  0  0  0  0
 13  1  2  0  0  0  0
 13 14  1  0  0  0  0
 14  7  1  0  0  0  0
 15 20  1  1  0  0  0
 15 11  1  0  0  0  0
 16 12  2  0  0  0  0
 17 15  1  0  0  0  0
 18  2  2  0  0  0  0
 19 24  1  0  0  0  0
 20 23  2  0  0  0  0
 21 19  2  0  0  0  0
 21 20  1  0  0  0  0
 22 19  1  0  0  0  0
 23 25  1  0  0  0  0
 24 25  2  0  0  0  0
M  END
>  <MODEL>
6

>  <REMARK>
 VINA RESULT:     -10.3      3.772      6.998
  Name = 
  1 active torsions:
  status: ('A' for Active; 'I' for Inactive)
    1  A    between atoms: C_6  and  C_20
                            x       y       z     vdW  Elec       q    Type
                         _______ _______ _______ _____ _____    ______ ____

>  <TORSDO>
F 1

$$$$
=
 OpenBabel10272400503D

 25 29  0  0  1  0  0  0  0  0999 V2000
  188.5000  177.6240  144.6500 C   0  0  0  0  0  0  0  0  0  0  0  0
  187.1470  177.9950  144.6400 C   0  0  0  0  0  0  0  0  0  0  0  0
  188.4430  177.4300  147.0350 N   0  0  0  0  0  0  0  0  0  0  0  0
  189.3900  177.4750  143.5730 C   0  0  0  0  0  0  0  0  0  0  0  0
  191.4340  177.0750  141.7090 C   0  0  0  0  0  3  0  0  0  0  0  0
  187.1560  177.7900  147.0400 N   0  0  0  0  0  0  0  0  0  0  0  0
  190.6650  177.0860  143.9810 C   0  0  0  0  0  0  0  0  0  0  0  0
  191.7000  176.8800  143.0720 C   0  0  0  0  0  3  0  0  0  0  0  0
  185.0570  178.4590  145.9370 C   0  0  0  0  0  0  0  0  0  0  0  0
  184.4560  178.5240  147.0420 O   0  0  0  0  0  0  0  0  0  0  0  0
  186.4300  178.3660  143.3690 C   0  0  0  0  0  2  0  0  0  0  0  0
  190.1510  177.4660  141.2830 C   0  0  0  0  0  3  0  0  0  0  0  0
  189.1120  177.3450  145.8620 C   0  0  0  0  0  0  0  0  0  0  0  0
  190.7300  176.9180  145.6590 S   0  0  0  0  0  0  0  0  0  0  0  0
  184.9290  178.0890  143.4770 C   0  0  1  0  0  3  0  0  0  0  0  0
  189.1200  177.6680  142.2140 C   0  0  0  0  0  3  0  0  0  0  0  0
  184.3240  178.8150  144.6790 C   0  0  0  0  0  2  0  0  0  0  0  0
  186.4830  178.0830  145.8860 C   0  0  0  0  0  0  0  0  0  0  0  0
  184.2610  179.1530  139.8840 C   0  0  0  0  0  0  0  0  0  0  0  0
  184.2250  178.4620  142.2110 C   0  0  0  0  0  0  0  0  0  0  0  0
  184.9420  178.8110  141.0560 C   0  0  0  0  0  3  0  0  0  0  0  0
  184.9730  179.4970  138.7430 O   0  0  0  0  0  1  0  0  0  0  0  0
  182.8270  178.4610  142.1830 C   0  0  0  0  0  3  0  0  0  0  0  0
  182.8630  179.1510  139.8620 C   0  0  0  0  0  3  0  0  0  0  0  0
  182.1460  178.8050  141.0120 C   0  0  0  0  0  3  0  0  0  0  0  0
  1 13  1  0  0  0  0
  2  1  2  0  0  0  0
  2 18  1  0  0  0  0
  3  6  1  0  0  0  0
  4  7  1  0  0  0  0
  4  1  1  0  0  0  0
  5  8  1  0  0  0  0
  7 14  1  0  0  0  0
  8  7  2  0  0  0  0
  9 10  2  0  0  0  0
 11 15  1  0  0  0  0
 11  2  1  0  0  0  0
 12  5  2  0  0  0  0
 12 16  1  0  0  0  0
 13  3  2  0  0  0  0
 14 13  1  0  0  0  0
 15 20  1  6  0  0  0
 15 17  1  0  0  0  0
 16  4  2  0  0  0  0
 17  9  1  0  0  0  0
 18  9  1  0  0  0  0
 18  6  2  0  0  0  0
 19 21  1  0  0  0  0
 21 20  2  0  0  0  0
 22 19  1  0  0  0  0
 23 20  1  0  0  0  0
 24 19  2  0  0  0  0
 24 25  1  0  0  0  0
 25 23  2  0  0  0  0
M  END
>  <MODEL>
7

>  <REMARK>
 VINA RESULT:     -10.3      2.973      6.049
  Name = 
  1 active torsions:
  status: ('A' for Active; 'I' for Inactive)
    1  A    between atoms: C_6  and  C_20
                            x       y       z     vdW  Elec       q    Type
                         _______ _______ _______ _____ _____    ______ ____

>  <TORSDO>
F 1

$$$$
=
 OpenBabel10272400503D

 25 29  0  0  1  0  0  0  0  0999 V2000
  189.6040  177.4960  144.1070 C   0  0  0  0  0  0  0  0  0  0  0  0
  189.0230  177.6620  142.8400 C   0  0  0  0  0  0  0  0  0  0  0  0
  191.7670  177.2900  143.1020 N   0  0  0  0  0  0  0  0  0  0  0  0
  188.9920  177.4830  145.3720 C   0  0  0  0  0  0  0  0  0  0  0  0
  188.1480  177.4030  148.0350 C   0  0  0  0  0  3  0  0  0  0  0  0
  191.2240  177.4400  141.8890 N   0  0  0  0  0  0  0  0  0  0  0  0
  189.9070  177.2940  146.4070 C   0  0  0  0  0  0  0  0  0  0  0  0
  189.5120  177.2510  147.7420 C   0  0  0  0  0  3  0  0  0  0  0  0
  189.3260  177.7960  140.3600 C   0  0  0  0  0  0  0  0  0  0  0  0
  190.0860  177.7730  139.3550 O   0  0  0  0  0  0  0  0  0  0  0  0
  187.5350  177.8050  142.6570 C   0  0  0  0  0  2  0  0  0  0  0  0
  187.2150  177.5950  147.0000 C   0  0  0  0  0  3  0  0  0  0  0  0
  190.9750  177.3170  144.1990 C   0  0  0  0  0  0  0  0  0  0  0  0
  191.4740  177.1400  145.7990 S   0  0  0  0  0  0  0  0  0  0  0  0
  187.2050  178.5980  141.3910 C   0  0  1  0  0  3  0  0  0  0  0  0
  187.6320  177.6370  145.6610 C   0  0  0  0  0  3  0  0  0  0  0  0
  187.8500  177.9570  140.1610 C   0  0  0  0  0  2  0  0  0  0  0  0
  189.8790  177.6180  141.7160 C   0  0  0  0  0  0  0  0  0  0  0  0
  183.4760  178.8010  142.1260 C   0  0  0  0  0  0  0  0  0  0  0  0
  185.7260  178.7330  141.2160 C   0  0  0  0  0  0  0  0  0  0  0  0
  184.8550  178.6690  142.3150 C   0  0  0  0  0  3  0  0  0  0  0  0
  182.6170  178.7390  143.2140 O   0  0  0  0  0  1  0  0  0  0  0  0
  185.2060  178.9270  139.9320 C   0  0  0  0  0  3  0  0  0  0  0  0
  182.9620  178.9950  140.8400 C   0  0  0  0  0  3  0  0  0  0  0  0
  183.8270  179.0580  139.7430 C   0  0  0  0  0  3  0  0  0  0  0  0
  1 13  2  0  0  0  0
  1  4  1  0  0  0  0
  2  1  1  0  0  0  0
  3 13  1  0  0  0  0
  4 16  2  0  0  0  0
  4  7  1  0  0  0  0
  6  3  2  0  0  0  0
  7  8  2  0  0  0  0
  8  5  1  0  0  0  0
  9 18  1  0  0  0  0
 10  9  2  0  0  0  0
 11  2  1  0  0  0  0
 12  5  2  0  0  0  0
 13 14  1  0  0  0  0
 14  7  1  0  0  0  0
 15 20  1  6  0  0  0
 15 11  1  0  0  0  0
 16 12  1  0  0  0  0
 17  9  1  0  0  0  0
 17 15  1  0  0  0  0
 18  6  1  0  0  0  0
 18  2  2  0  0  0  0
 19 21  1  0  0  0  0
 19 22  1  0  0  0  0
 20 21  2  0  0  0  0
 23 20  1  0  0  0  0
 24 19  2  0  0  0  0
 25 23  2  0  0  0  0
 25 24  1  0  0  0  0
M  END
>  <MODEL>
8

>  <REMARK>
 VINA RESULT:     -10.2      3.280      6.016
  Name = 
  1 active torsions:
  status: ('A' for Active; 'I' for Inactive)
    1  A    between atoms: C_6  and  C_20
                            x       y       z     vdW  Elec       q    Type
                         _______ _______ _______ _____ _____    ______ ____

>  <TORSDO>
F 1

$$$$
=
 OpenBabel10272400503D

 25 29  0  0  1  0  0  0  0  0999 V2000
  188.3370  177.6680  144.2740 C   0  0  0  0  0  0  0  0  0  0  0  0
  188.3310  177.8250  142.8790 C   0  0  0  0  0  0  0  0  0  0  0  0
  186.0340  178.3130  144.3700 N   0  0  0  0  0  0  0  0  0  0  0  0
  189.3880  177.2750  145.1210 C   0  0  0  0  0  0  0  0  0  0  0  0
  191.2090  176.5320  147.1060 C   0  0  0  0  0  3  0  0  0  0  0  0
  186.0180  178.4740  143.0430 N   0  0  0  0  0  0  0  0  0  0  0  0
  189.0070  177.2310  146.4620 C   0  0  0  0  0  0  0  0  0  0  0  0
  189.8960  176.8640  147.4690 C   0  0  0  0  0  3  0  0  0  0  0  0
  187.0570  178.4240  140.8110 C   0  0  0  0  0  0  0  0  0  0  0  0
  185.9830  178.7880  140.2630 O   0  0  0  0  0  0  0  0  0  0  0  0
  189.5710  177.6280  142.0490 C   0  0  0  0  0  2  0  0  0  0  0  0
  191.6070  176.5710  145.7570 C   0  0  0  0  0  3  0  0  0  0  0  0
  187.1730  177.9160  144.9840 C   0  0  0  0  0  0  0  0  0  0  0  0
  187.3870  177.6700  146.6370 S   0  0  0  0  0  0  0  0  0  0  0  0
  189.2210  177.2040  140.6210 C   0  0  1  0  0  3  0  0  0  0  0  0
  190.6970  176.9430  144.7550 C   0  0  0  0  0  3  0  0  0  0  0  0
  188.2780  178.2150  139.9670 C   0  0  0  0  0  2  0  0  0  0  0  0
  187.1270  178.2510  142.2740 C   0  0  0  0  0  0  0  0  0  0  0  0
  192.8730  177.0620  139.5580 C   0  0  0  0  0  0  0  0  0  0  0  0
  190.4580  177.0130  139.8020 C   0  0  0  0  0  0  0  0  0  0  0  0
  191.7320  177.2510  140.3420 C   0  0  0  0  0  3  0  0  0  0  0  0
  194.1320  177.2980  140.0950 O   0  0  0  0  0  1  0  0  0  0  0  0
  190.3390  176.5870  138.4750 C   0  0  0  0  0  3  0  0  0  0  0  0
  192.7480  176.6370  138.2310 C   0  0  0  0  0  3  0  0  0  0  0  0
  191.4810  176.4000  137.6910 C   0  0  0  0  0  3  0  0  0  0  0  0
  1 13  2  0  0  0  0
  1  4  1  0  0  0  0
  2  1  1  0  0  0  0
  3 13  1  0  0  0  0
  4  7  1  0  0  0  0
  5  8  1  0  0  0  0
  6  3  2  0  0  0  0
  7 14  1  0  0  0  0
  7  8  2  0  0  0  0
  9 18  1  0  0  0  0
 10  9  2  0  0  0  0
 11  2  1  0  0  0  0
 12  5  2  0  0  0  0
 13 14  1  0  0  0  0
 15 20  1  6  0  0  0
 15 11  1  0  0  0  0
 16  4  2  0  0  0  0
 16 12  1  0  0  0  0
 17 15  1  0  0  0  0
 17  9  1  0  0  0  0
 18  2  2  0  0  0  0
 18  6  1  0  0  0  0
 19 22  1  0  0  0  0
 19 21  1  0  0  0  0
 20 21  2  0  0  0  0
 23 20  1  0  0  0  0
 24 19  2  0  0  0  0
 25 24  1  0  0  0  0
 25 23  2  0  0  0  0
M  END
>  <MODEL>
9

>  <REMARK>
 VINA RESULT:     -10.2      2.403      4.488
  Name = 
  1 active torsions:
  status: ('A' for Active; 'I' for Inactive)
    1  A    between atoms: C_6  and  C_20
                            x       y       z     vdW  Elec       q    Type
                         _______ _______ _______ _____ _____    ______ ____

>  <TORSDO>
F 1

$$$$
