=
 OpenBabel10272401043D

 27 31  0  0  0  0  0  0  0  0999 V2000
  186.9180  177.8760  141.7660 N   0  0  0  0  0  2  0  0  0  0  0  0
  189.2470  177.3950  142.5550 C   0  0  0  0  0  0  0  0  0  0  0  0
  187.6020  176.5750  144.2840 C   0  0  0  0  0  2  0  0  0  0  0  0
  192.0470  177.0510  145.6310 N   0  0  0  0  0  0  0  0  0  0  0  0
  191.5720  176.8360  148.0760 C   0  0  0  0  0  1  0  0  0  0  0  0
  190.7100  177.3410  142.2150 C   0  0  0  0  0  3  0  0  0  0  0  0
  189.8640  176.9940  146.2410 N   0  0  0  0  0  0  0  0  0  0  0  0
  185.0690  179.1820  145.4400 C   0  0  0  0  0  3  0  0  0  0  0  0
  188.6770  176.9340  147.0790 C   0  0  0  0  0  1  0  0  0  0  0  0
  184.0980  179.4910  144.5850 C   0  0  0  0  0  3  0  0  0  0  0  0
  189.9460  177.1200  144.9060 C   0  0  0  0  0  0  0  0  0  0  0  0
  188.3320  177.6420  141.5650 C   0  0  0  0  0  0  0  0  0  0  0  0
  191.1550  176.9620  146.6510 C   0  0  0  0  0  0  0  0  0  0  0  0
  191.2540  177.1530  144.5470 C   0  0  0  0  0  0  0  0  0  0  0  0
  186.1250  177.9560  142.7960 C   0  0  0  0  0  0  0  0  0  0  0  0
  188.8820  177.1530  143.9400 N   0  0  0  0  0  0  0  0  0  0  0  0
  186.1190  178.1700  145.2760 C   0  0  0  0  0  2  0  0  0  0  0  0
  191.6640  177.2310  143.1490 C   0  0  0  0  0  3  0  0  0  0  0  0
  183.8520  178.9090  143.2600 C   0  0  0  0  0  3  0  0  0  0  0  0
  184.7210  178.2570  142.4930 C   0  0  0  0  0  3  0  0  0  0  0  0
  186.5640  177.6090  144.1510 C   0  0  0  0  0  0  0  0  0  0  0  0
  188.9720  179.7000  137.2600 N   0  0  0  0  0  2  0  0  0  0  0  0
  188.7450  177.7690  140.1430 C   0  0  0  0  0  0  0  0  0  0  0  0
  188.6080  178.9330  139.4290 N   0  0  0  0  0  0  0  0  0  0  0  0
  189.0020  178.7680  138.1520 C   0  0  0  0  0  0  0  0  0  0  0  0
  189.4840  177.2050  137.9070 S   0  0  0  0  0  0  0  0  0  0  0  0
  189.2070  176.6800  139.4600 N   0  0  0  0  0  2  0  0  0  0  0  0
  1 15  1  0  0  0  0
  2 16  1  0  0  0  0
  4 13  2  0  0  0  0
  6  2  1  0  0  0  0
  6 18  2  0  0  0  0
  7 13  1  0  0  0  0
  7  9  1  0  0  0  0
 10  8  2  0  0  0  0
 11  7  1  0  0  0  0
 12  1  1  0  0  0  0
 12  2  2  0  0  0  0
 13  5  1  0  0  0  0
 14 11  2  0  0  0  0
 14  4  1  0  0  0  0
 15 21  2  0  0  0  0
 16  3  1  0  0  0  0
 16 11  1  0  0  0  0
 17  8  1  0  0  0  0
 18 14  1  0  0  0  0
 19 10  1  0  0  0  0
 20 15  1  0  0  0  0
 20 19  2  0  0  0  0
 21  3  1  0  0  0  0
 21 17  1  0  0  0  0
 22 25  2  0  0  0  0
 23 12  1  0  0  0  0
 24 23  2  0  0  0  0
 25 24  1  0  0  0  0
 26 25  1  0  0  0  0
 26 27  1  0  0  0  0
 27 23  1  0  0  0  0
M  END
>  <MODEL>
1

>  <REMARK>
 VINA RESULT:     -10.5      0.000      0.000
  Name = 
  1 active torsions:
  status: ('A' for Active; 'I' for Inactive)
    1  A    between atoms: C_9  and  C_15
                            x       y       z     vdW  Elec       q    Type
                         _______ _______ _______ _____ _____    ______ ____

>  <TORSDO>
F 1

$$$$
=
 OpenBabel10272401043D

 27 31  0  0  0  0  0  0  0  0999 V2000
  187.0170  178.3260  141.7090 N   0  0  0  0  0  2  0  0  0  0  0  0
  187.2290  177.9510  144.1780 C   0  0  0  0  0  0  0  0  0  0  0  0
  189.4820  178.5970  143.2430 C   0  0  0  0  0  2  0  0  0  0  0  0
  189.4170  176.6440  147.4840 N   0  0  0  0  0  0  0  0  0  0  0  0
  191.8790  176.2270  147.5830 C   0  0  0  0  0  1  0  0  0  0  0  0
  186.5250  177.7370  145.4880 C   0  0  0  0  0  3  0  0  0  0  0  0
  190.5960  177.0590  145.5920 N   0  0  0  0  0  0  0  0  0  0  0  0
  190.6510  176.4830  140.2920 C   0  0  0  0  0  3  0  0  0  0  0  0
  191.7160  177.1590  144.6700 C   0  0  0  0  0  1  0  0  0  0  0  0
  190.0470  176.6970  139.1260 C   0  0  0  0  0  3  0  0  0  0  0  0
  189.2970  177.3230  145.3690 C   0  0  0  0  0  0  0  0  0  0  0  0
  186.4970  178.2490  143.0590 C   0  0  0  0  0  0  0  0  0  0  0  0
  190.6340  176.6430  146.8800 C   0  0  0  0  0  0  0  0  0  0  0  0
  188.5970  177.0740  146.5050 C   0  0  0  0  0  0  0  0  0  0  0  0
  188.1760  178.1410  141.1480 C   0  0  0  0  0  0  0  0  0  0  0  0
  188.6780  177.8490  144.1830 N   0  0  0  0  0  0  0  0  0  0  0  0
  190.4450  177.2020  141.5550 C   0  0  0  0  0  2  0  0  0  0  0  0
  187.1620  177.3190  146.5900 C   0  0  0  0  0  3  0  0  0  0  0  0
  189.0110  177.6920  138.8250 C   0  0  0  0  0  3  0  0  0  0  0  0
  188.2070  178.3060  139.6900 C   0  0  0  0  0  3  0  0  0  0  0  0
  189.4030  177.9450  141.9270 C   0  0  0  0  0  0  0  0  0  0  0  0
  181.9370  178.4850  141.5300 N   0  0  0  0  0  2  0  0  0  0  0  0
  185.0270  178.4560  143.1260 C   0  0  0  0  0  0  0  0  0  0  0  0
  184.1970  178.2600  142.0510 N   0  0  0  0  0  0  0  0  0  0  0  0
  182.9230  178.5700  142.3590 C   0  0  0  0  0  0  0  0  0  0  0  0
  182.8330  179.1010  143.9230 S   0  0  0  0  0  0  0  0  0  0  0  0
  184.4520  178.9410  144.2660 N   0  0  0  0  0  2  0  0  0  0  0  0
  1 12  1  0  0  0  0
  2 16  1  0  0  0  0
  2  6  1  0  0  0  0
  3 16  1  0  0  0  0
  6 18  2  0  0  0  0
  7 13  1  0  0  0  0
  8 17  1  0  0  0  0
  9  7  1  0  0  0  0
 10  8  2  0  0  0  0
 11  7  1  0  0  0  0
 11 14  2  0  0  0  0
 12 23  1  0  0  0  0
 12  2  2  0  0  0  0
 13  4  2  0  0  0  0
 13  5  1  0  0  0  0
 14 18  1  0  0  0  0
 14  4  1  0  0  0  0
 15  1  1  0  0  0  0
 15 21  2  0  0  0  0
 16 11  1  0  0  0  0
 17 21  1  0  0  0  0
 19 10  1  0  0  0  0
 19 20  2  0  0  0  0
 20 15  1  0  0  0  0
 21  3  1  0  0  0  0
 22 25  2  0  0  0  0
 23 27  1  0  0  0  0
 24 25  1  0  0  0  0
 24 23  2  0  0  0  0
 25 26  1  0  0  0  0
 26 27  1  0  0  0  0
M  END
>  <MODEL>
2

>  <REMARK>
 VINA RESULT:      -9.2      2.411      5.056
  Name = 
  1 active torsions:
  status: ('A' for Active; 'I' for Inactive)
    1  A    between atoms: C_9  and  C_15
                            x       y       z     vdW  Elec       q    Type
                         _______ _______ _______ _____ _____    ______ ____

>  <TORSDO>
F 1

$$$$
=
 OpenBabel10272401043D

 27 31  0  0  0  0  0  0  0  0999 V2000
  186.8590  178.4140  139.0390 N   0  0  0  0  0  2  0  0  0  0  0  0
  186.1160  178.4670  141.4310 C   0  0  0  0  0  0  0  0  0  0  0  0
  188.6130  178.8210  141.3330 C   0  0  0  0  0  2  0  0  0  0  0  0
  186.7890  177.6490  145.4690 N   0  0  0  0  0  0  0  0  0  0  0  0
  188.9820  177.1280  146.5490 C   0  0  0  0  0  1  0  0  0  0  0  0
  184.9650  178.5230  142.3950 C   0  0  0  0  0  3  0  0  0  0  0  0
  188.6140  177.6630  144.1230 N   0  0  0  0  0  0  0  0  0  0  0  0
  190.5260  176.1630  139.3780 C   0  0  0  0  0  3  0  0  0  0  0  0
  189.9960  177.5420  143.6880 C   0  0  0  0  0  1  0  0  0  0  0  0
  190.4150  176.2010  138.0520 C   0  0  0  0  0  3  0  0  0  0  0  0
  187.5240  177.9520  143.3920 C   0  0  0  0  0  0  0  0  0  0  0  0
  185.8800  178.6020  140.0890 C   0  0  0  0  0  0  0  0  0  0  0  0
  188.1330  177.4790  145.3760 C   0  0  0  0  0  0  0  0  0  0  0  0
  186.4360  177.9420  144.2020 C   0  0  0  0  0  0  0  0  0  0  0  0
  188.1150  178.0730  138.9890 C   0  0  0  0  0  0  0  0  0  0  0  0
  187.4420  178.2920  141.9970 N   0  0  0  0  0  0  0  0  0  0  0  0
  189.9580  177.1030  140.3520 C   0  0  0  0  0  2  0  0  0  0  0  0
  185.1050  178.2730  143.7030 C   0  0  0  0  0  3  0  0  0  0  0  0
  189.6800  177.1810  137.2430 C   0  0  0  0  0  3  0  0  0  0  0  0
  188.6920  177.9770  137.6430 C   0  0  0  0  0  3  0  0  0  0  0  0
  188.9430  177.9530  140.1930 C   0  0  0  0  0  0  0  0  0  0  0  0
  182.1740  181.2160  138.4710 N   0  0  0  0  0  2  0  0  0  0  0  0
  184.5200  178.8930  139.5660 C   0  0  0  0  0  0  0  0  0  0  0  0
  184.1070  180.1580  139.2280 N   0  0  0  0  0  0  0  0  0  0  0  0
  182.8180  180.1590  138.8370 C   0  0  0  0  0  0  0  0  0  0  0  0
  182.1960  178.6290  138.9360 S   0  0  0  0  0  0  0  0  0  0  0  0
  183.5860  177.8990  139.4840 N   0  0  0  0  0  2  0  0  0  0  0  0
  1 12  1  0  0  0  0
  2 16  1  0  0  0  0
  2  6  1  0  0  0  0
  3 16  1  0  0  0  0
  6 18  2  0  0  0  0
  7 13  1  0  0  0  0
  8 17  1  0  0  0  0
  9  7  1  0  0  0  0
 10  8  2  0  0  0  0
 11  7  1  0  0  0  0
 11 14  2  0  0  0  0
 12  2  2  0  0  0  0
 13  4  2  0  0  0  0
 13  5  1  0  0  0  0
 14  4  1  0  0  0  0
 15  1  1  0  0  0  0
 15 21  2  0  0  0  0
 16 11  1  0  0  0  0
 18 14  1  0  0  0  0
 19 20  2  0  0  0  0
 19 10  1  0  0  0  0
 20 15  1  0  0  0  0
 21 17  1  0  0  0  0
 21  3  1  0  0  0  0
 22 25  2  0  0  0  0
 23 12  1  0  0  0  0
 24 23  2  0  0  0  0
 25 26  1  0  0  0  0
 25 24  1  0  0  0  0
 26 27  1  0  0  0  0
 27 23  1  0  0  0  0
M  END
>  <MODEL>
3

>  <REMARK>
 VINA RESULT:      -9.2      2.853      5.490
  Name = 
  1 active torsions:
  status: ('A' for Active; 'I' for Inactive)
    1  A    between atoms: C_9  and  C_15
                            x       y       z     vdW  Elec       q    Type
                         _______ _______ _______ _____ _____    ______ ____

>  <TORSDO>
F 1

$$$$
=
 OpenBabel10272401043D

 27 31  0  0  0  0  0  0  0  0999 V2000
  186.2100  177.8190  145.1950 N   0  0  0  0  0  2  0  0  0  0  0  0
  186.9050  177.9400  142.7910 C   0  0  0  0  0  0  0  0  0  0  0  0
  188.5170  176.4570  144.0440 C   0  0  0  0  0  2  0  0  0  0  0  0
  189.8820  178.0300  139.8650 N   0  0  0  0  0  0  0  0  0  0  0  0
  192.2760  177.3690  140.1400 C   0  0  0  0  0  1  0  0  0  0  0  0
  186.5500  178.3600  141.3920 C   0  0  0  0  0  3  0  0  0  0  0  0
  190.4950  177.2590  141.9070 N   0  0  0  0  0  0  0  0  0  0  0  0
  190.0440  178.0370  147.1620 C   0  0  0  0  0  3  0  0  0  0  0  0
  191.3260  176.7460  142.9850 C   0  0  0  0  0  1  0  0  0  0  0  0
  189.2480  178.1580  148.2210 C   0  0  0  0  0  2  0  0  0  0  0  0
  189.1900  177.5770  141.9290 C   0  0  0  0  0  0  0  0  0  0  0  0
  185.9670  178.0360  143.7840 C   0  0  0  0  0  0  0  0  0  0  0  0
  190.8860  177.5520  140.6430 C   0  0  0  0  0  0  0  0  0  0  0  0
  188.8280  178.0370  140.7050 C   0  0  0  0  0  0  0  0  0  0  0  0
  187.2470  177.5290  145.9260 C   0  0  0  0  0  0  0  0  0  0  0  0
  188.2460  177.4230  143.0030 N   0  0  0  0  0  0  0  0  0  0  0  0
  189.7330  177.4050  145.8740 C   0  0  0  0  0  3  0  0  0  0  0  0
  187.4520  178.4130  140.4030 C   0  0  0  0  0  3  0  0  0  0  0  0
  187.8580  177.7070  148.3520 C   0  0  0  0  0  3  0  0  0  0  0  0
  187.0000  177.4440  147.3700 C   0  0  0  0  0  3  0  0  0  0  0  0
  188.5380  177.1510  145.3410 C   0  0  0  0  0  0  0  0  0  0  0  0
  181.9440  178.7490  141.2360 N   0  0  0  0  0  2  0  0  0  0  0  0
  184.5730  178.4630  143.4950 C   0  0  0  0  0  0  0  0  0  0  0  0
  183.9700  178.2610  142.2780 N   0  0  0  0  0  0  0  0  0  0  0  0
  182.7320  178.7900  142.2580 C   0  0  0  0  0  0  0  0  0  0  0  0
  182.4030  179.5150  143.7080 S   0  0  0  0  0  0  0  0  0  0  0  0
  183.8600  179.1620  144.4260 N   0  0  0  0  0  2  0  0  0  0  0  0
  1 15  1  0  0  0  0
  2 16  1  0  0  0  0
  2 12  2  0  0  0  0
  3 21  1  0  0  0  0
  4 13  2  0  0  0  0
  4 14  1  0  0  0  0
  5 13  1  0  0  0  0
  6  2  1  0  0  0  0
  7 11  1  0  0  0  0
  7  9  1  0  0  0  0
  8 10  1  0  0  0  0
 10 19  1  0  0  0  0
 11 16  1  0  0  0  0
 12  1  1  0  0  0  0
 13  7  1  0  0  0  0
 14 11  2  0  0  0  0
 15 20  1  0  0  0  0
 16  3  1  0  0  0  0
 17  8  2  0  0  0  0
 18 14  1  0  0  0  0
 18  6  2  0  0  0  0
 20 19  2  0  0  0  0
 21 17  1  0  0  0  0
 21 15  2  0  0  0  0
 22 25  2  0  0  0  0
 23 12  1  0  0  0  0
 23 27  1  0  0  0  0
 24 23  2  0  0  0  0
 25 24  1  0  0  0  0
 25 26  1  0  0  0  0
 26 27  1  0  0  0  0
M  END
>  <MODEL>
4

>  <REMARK>
 VINA RESULT:      -8.8      2.716      5.424
  Name = 
  1 active torsions:
  status: ('A' for Active; 'I' for Inactive)
    1  A    between atoms: C_9  and  C_15
                            x       y       z     vdW  Elec       q    Type
                         _______ _______ _______ _____ _____    ______ ____

>  <TORSDO>
F 1

$$$$
=
 OpenBabel10272401043D

 27 31  0  0  0  0  0  0  0  0999 V2000
  186.3930  178.3390  144.2470 N   0  0  0  0  0  2  0  0  0  0  0  0
  188.4780  177.5450  143.1060 C   0  0  0  0  0  0  0  0  0  0  0  0
  187.1880  179.0350  141.5290 C   0  0  0  0  0  2  0  0  0  0  0  0
  190.5020  176.3240  139.6650 N   0  0  0  0  0  0  0  0  0  0  0  0
  189.7840  176.6770  137.2970 C   0  0  0  0  0  1  0  0  0  0  0  0
  189.8070  176.8580  143.2390 C   0  0  0  0  0  3  0  0  0  0  0  0
  188.5680  177.4650  139.3490 N   0  0  0  0  0  0  0  0  0  0  0  0
  183.5400  178.0450  141.0230 C   0  0  0  0  0  3  0  0  0  0  0  0
  187.4440  178.0950  138.6750 C   0  0  0  0  0  1  0  0  0  0  0  0
  182.7070  178.2980  142.0290 C   0  0  0  0  0  2  0  0  0  0  0  0
  188.8050  177.3550  140.6670 C   0  0  0  0  0  0  0  0  0  0  0  0
  187.7470  177.8270  144.2300 C   0  0  0  0  0  0  0  0  0  0  0  0
  189.6120  176.8240  138.7700 C   0  0  0  0  0  0  0  0  0  0  0  0
  189.9630  176.6730  140.8500 C   0  0  0  0  0  0  0  0  0  0  0  0
  185.5020  178.6420  143.3470 C   0  0  0  0  0  0  0  0  0  0  0  0
  188.0490  177.8970  141.7630 N   0  0  0  0  0  0  0  0  0  0  0  0
  184.9640  178.3870  140.9300 C   0  0  0  0  0  3  0  0  0  0  0  0
  190.5130  176.4390  142.1810 C   0  0  0  0  0  3  0  0  0  0  0  0
  183.0150  178.9640  143.3000 C   0  0  0  0  0  3  0  0  0  0  0  0
  184.2100  179.1060  143.8660 C   0  0  0  0  0  3  0  0  0  0  0  0
  185.8150  178.6770  141.9140 C   0  0  0  0  0  0  0  0  0  0  0  0
  190.9760  176.7630  147.6390 N   0  0  0  0  0  2  0  0  0  0  0  0
  188.2790  177.5510  145.5890 C   0  0  0  0  0  0  0  0  0  0  0  0
  189.6090  177.3110  145.8350 N   0  0  0  0  0  0  0  0  0  0  0  0
  189.8190  177.0330  147.1350 C   0  0  0  0  0  0  0  0  0  0  0  0
  188.3840  177.0580  147.9580 S   0  0  0  0  0  0  0  0  0  0  0  0
  187.4290  177.4400  146.6520 N   0  0  0  0  0  2  0  0  0  0  0  0
  2  6  1  0  0  0  0
  2 12  2  0  0  0  0
  3 16  1  0  0  0  0
  3 21  1  0  0  0  0
  4 14  1  0  0  0  0
  5 13  1  0  0  0  0
  7 11  1  0  0  0  0
  8 10  1  0  0  0  0
  9  7  1  0  0  0  0
 10 19  1  0  0  0  0
 11 14  2  0  0  0  0
 11 16  1  0  0  0  0
 12  1  1  0  0  0  0
 12 23  1  0  0  0  0
 13  7  1  0  0  0  0
 13  4  2  0  0  0  0
 14 18  1  0  0  0  0
 15 20  1  0  0  0  0
 15  1  1  0  0  0  0
 16  2  1  0  0  0  0
 17  8  2  0  0  0  0
 17 21  1  0  0  0  0
 18  6  2  0  0  0  0
 19 20  2  0  0  0  0
 21 15  2  0  0  0  0
 23 24  2  0  0  0  0
 23 27  1  0  0  0  0
 24 25  1  0  0  0  0
 25 22  2  0  0  0  0
 25 26  1  0  0  0  0
 27 26  1  0  0  0  0
M  END
>  <MODEL>
5

>  <REMARK>
 VINA RESULT:      -8.7      2.460      5.843
  Name = 
  1 active torsions:
  status: ('A' for Active; 'I' for Inactive)
    1  A    between atoms: C_9  and  C_15
                            x       y       z     vdW  Elec       q    Type
                         _______ _______ _______ _____ _____    ______ ____

>  <TORSDO>
F 1

$$$$
=
 OpenBabel10272401043D

 27 31  0  0  0  0  0  0  0  0999 V2000
  190.4170  176.6010  144.0590 N   0  0  0  0  0  2  0  0  0  0  0  0
  188.5990  177.1960  145.6780 C   0  0  0  0  0  0  0  0  0  0  0  0
  187.5590  176.5030  143.4860 C   0  0  0  0  0  2  0  0  0  0  0  0
  184.8420  178.8230  146.4930 N   0  0  0  0  0  0  0  0  0  0  0  0
  183.0180  179.2840  144.8470 C   0  0  0  0  0  1  0  0  0  0  0  0
  188.2280  177.5150  147.0990 C   0  0  0  0  0  3  0  0  0  0  0  0
  185.2540  178.2600  144.3350 N   0  0  0  0  0  0  0  0  0  0  0  0
  188.8840  178.3650  140.4320 C   0  0  0  0  0  3  0  0  0  0  0  0
  185.0650  178.0950  142.9020 C   0  0  0  0  0  1  0  0  0  0  0  0
  190.1050  178.0390  140.0170 C   0  0  0  0  0  3  0  0  0  0  0  0
  186.3280  177.9580  145.0820 C   0  0  0  0  0  0  0  0  0  0  0  0
  189.8750  176.7890  145.3890 C   0  0  0  0  0  0  0  0  0  0  0  0
  184.3730  178.7880  145.2180 C   0  0  0  0  0  0  0  0  0  0  0  0
  186.0760  178.2960  146.3720 C   0  0  0  0  0  0  0  0  0  0  0  0
  189.9740  176.7520  142.8450 C   0  0  0  0  0  0  0  0  0  0  0  0
  187.5520  177.3200  144.6790 N   0  0  0  0  0  0  0  0  0  0  0  0
  188.1170  177.7570  141.5260 C   0  0  0  0  0  2  0  0  0  0  0  0
  187.0410  178.0380  147.4350 C   0  0  0  0  0  3  0  0  0  0  0  0
  190.9910  177.0060  140.5660 C   0  0  0  0  0  3  0  0  0  0  0  0
  190.9380  176.4590  141.7780 C   0  0  0  0  0  3  0  0  0  0  0  0
  188.5650  177.0350  142.5530 C   0  0  0  0  0  0  0  0  0  0  0  0
  192.4670  177.6870  149.3460 N   0  0  0  0  0  2  0  0  0  0  0  0
  190.8800  176.5680  146.4610 C   0  0  0  0  0  0  0  0  0  0  0  0
  191.0680  177.4460  147.4990 N   0  0  0  0  0  0  0  0  0  0  0  0
  192.0730  177.0440  148.2990 C   0  0  0  0  0  0  0  0  0  0  0  0
  192.7320  175.6420  147.7160 S   0  0  0  0  0  0  0  0  0  0  0  0
  191.7270  175.4980  146.4000 N   0  0  0  0  0  2  0  0  0  0  0  0
  1 12  1  0  0  0  0
  2  6  1  0  0  0  0
  3 16  1  0  0  0  0
  5 13  1  0  0  0  0
  6 18  2  0  0  0  0
  7 11  1  0  0  0  0
  7 13  1  0  0  0  0
  8 17  1  0  0  0  0
  9  7  1  0  0  0  0
 10  8  2  0  0  0  0
 10 19  1  0  0  0  0
 11 14  2  0  0  0  0
 12  2  2  0  0  0  0
 12 23  1  0  0  0  0
 13  4  2  0  0  0  0
 14  4  1  0  0  0  0
 14 18  1  0  0  0  0
 15  1  1  0  0  0  0
 16 11  1  0  0  0  0
 16  2  1  0  0  0  0
 17 21  1  0  0  0  0
 19 20  2  0  0  0  0
 20 15  1  0  0  0  0
 21 15  2  0  0  0  0
 21  3  1  0  0  0  0
 23 24  2  0  0  0  0
 24 25  1  0  0  0  0
 25 22  2  0  0  0  0
 26 25  1  0  0  0  0
 27 23  1  0  0  0  0
 27 26  1  0  0  0  0
M  END
>  <MODEL>
6

>  <REMARK>
 VINA RESULT:      -8.6      3.101      6.744
  Name = 
  1 active torsions:
  status: ('A' for Active; 'I' for Inactive)
    1  A    between atoms: C_9  and  C_15
                            x       y       z     vdW  Elec       q    Type
                         _______ _______ _______ _____ _____    ______ ____

>  <TORSDO>
F 1

$$$$
=
 OpenBabel10272401043D

 27 31  0  0  0  0  0  0  0  0999 V2000
  190.4900  176.9940  140.8780 N   0  0  0  0  0  2  0  0  0  0  0  0
  188.9390  177.2110  138.9220 C   0  0  0  0  0  0  0  0  0  0  0  0
  188.2300  178.8310  140.7230 C   0  0  0  0  0  2  0  0  0  0  0  0
  185.1290  177.8980  137.3590 N   0  0  0  0  0  0  0  0  0  0  0  0
  183.1870  178.9350  138.5420 C   0  0  0  0  0  1  0  0  0  0  0  0
  188.6590  176.8630  137.4870 C   0  0  0  0  0  3  0  0  0  0  0  0
  185.4840  178.5770  139.4930 N   0  0  0  0  0  0  0  0  0  0  0  0
  187.7020  177.2640  144.1600 C   0  0  0  0  0  3  0  0  0  0  0  0
  185.2300  179.1260  140.8160 C   0  0  0  0  0  1  0  0  0  0  0  0
  188.7960  176.9130  144.8310 C   0  0  0  0  0  2  0  0  0  0  0  0
  186.6150  178.0380  139.0080 C   0  0  0  0  0  0  0  0  0  0  0  0
  190.1420  176.8660  139.4780 C   0  0  0  0  0  0  0  0  0  0  0  0
  184.6010  178.4700  138.4710 C   0  0  0  0  0  0  0  0  0  0  0  0
  186.3970  177.6350  137.7310 C   0  0  0  0  0  0  0  0  0  0  0  0
  189.8780  177.3920  141.9550 C   0  0  0  0  0  0  0  0  0  0  0  0
  187.9010  177.9300  139.6410 N   0  0  0  0  0  0  0  0  0  0  0  0
  187.6260  177.9460  142.8620 C   0  0  0  0  0  3  0  0  0  0  0  0
  187.4610  177.0550  136.9180 C   0  0  0  0  0  3  0  0  0  0  0  0
  190.1930  177.1040  144.4270 C   0  0  0  0  0  3  0  0  0  0  0  0
  190.6570  177.3030  143.1960 C   0  0  0  0  0  3  0  0  0  0  0  0
  188.5610  178.0380  141.9160 C   0  0  0  0  0  0  0  0  0  0  0  0
  194.2310  176.5200  136.9600 N   0  0  0  0  0  2  0  0  0  0  0  0
  191.2160  176.2330  138.6700 C   0  0  0  0  0  0  0  0  0  0  0  0
  192.3330  176.9130  138.2520 N   0  0  0  0  0  0  0  0  0  0  0  0
  193.1210  176.1310  137.4900 C   0  0  0  0  0  0  0  0  0  0  0  0
  192.4330  174.6370  137.3150 S   0  0  0  0  0  0  0  0  0  0  0  0
  191.0830  174.9450  138.2340 N   0  0  0  0  0  2  0  0  0  0  0  0
  1 15  1  0  0  0  0
  2 12  2  0  0  0  0
  2 16  1  0  0  0  0
  3 21  1  0  0  0  0
  4 14  1  0  0  0  0
  4 13  2  0  0  0  0
  6  2  1  0  0  0  0
  7  9  1  0  0  0  0
  8 10  1  0  0  0  0
 11  7  1  0  0  0  0
 11 16  1  0  0  0  0
 12  1  1  0  0  0  0
 13  5  1  0  0  0  0
 13  7  1  0  0  0  0
 14 11  2  0  0  0  0
 15 20  1  0  0  0  0
 16  3  1  0  0  0  0
 17  8  2  0  0  0  0
 18  6  2  0  0  0  0
 18 14  1  0  0  0  0
 19 10  1  0  0  0  0
 20 19  2  0  0  0  0
 21 15  2  0  0  0  0
 21 17  1  0  0  0  0
 22 25  2  0  0  0  0
 23 12  1  0  0  0  0
 24 23  2  0  0  0  0
 25 24  1  0  0  0  0
 26 25  1  0  0  0  0
 26 27  1  0  0  0  0
 27 23  1  0  0  0  0
M  END
>  <MODEL>
7

>  <REMARK>
 VINA RESULT:      -8.6      2.781      6.275
  Name = 
  1 active torsions:
  status: ('A' for Active; 'I' for Inactive)
    1  A    between atoms: C_9  and  C_15
                            x       y       z     vdW  Elec       q    Type
                         _______ _______ _______ _____ _____    ______ ____

>  <TORSDO>
F 1

$$$$
=
 OpenBabel10272401043D

 27 31  0  0  0  0  0  0  0  0999 V2000
  186.9080  178.3510  140.3830 N   0  0  0  0  0  2  0  0  0  0  0  0
  187.0230  178.0780  142.8710 C   0  0  0  0  0  0  0  0  0  0  0  0
  189.3070  178.7080  142.0030 C   0  0  0  0  0  2  0  0  0  0  0  0
  189.0850  176.9270  146.3140 N   0  0  0  0  0  0  0  0  0  0  0  0
  191.5450  176.5380  146.5290 C   0  0  0  0  0  1  0  0  0  0  0  0
  186.2680  177.9100  144.1600 C   0  0  0  0  0  3  0  0  0  0  0  0
  190.3360  177.2760  144.4550 N   0  0  0  0  0  0  0  0  0  0  0  0
  190.6130  176.4870  139.1900 C   0  0  0  0  0  3  0  0  0  0  0  0
  191.4930  177.3500  143.5760 C   0  0  0  0  0  1  0  0  0  0  0  0
  190.0540  176.6490  137.9930 C   0  0  0  0  0  3  0  0  0  0  0  0
  189.0460  177.5190  144.1700 C   0  0  0  0  0  0  0  0  0  0  0  0
  186.3350  178.3230  141.7130 C   0  0  0  0  0  0  0  0  0  0  0  0
  190.3250  176.9130  145.7600 C   0  0  0  0  0  0  0  0  0  0  0  0
  188.3030  177.3090  145.2860 C   0  0  0  0  0  0  0  0  0  0  0  0
  188.0910  178.1550  139.8770 C   0  0  0  0  0  0  0  0  0  0  0  0
  188.4710  177.9900  142.9390 N   0  0  0  0  0  0  0  0  0  0  0  0
  190.3490  177.2550  140.4130 C   0  0  0  0  0  2  0  0  0  0  0  0
  186.8630  177.5430  145.3030 C   0  0  0  0  0  3  0  0  0  0  0  0
  189.0230  177.6210  137.6100 C   0  0  0  0  0  3  0  0  0  0  0  0
  188.1800  178.2610  138.4160 C   0  0  0  0  0  3  0  0  0  0  0  0
  189.2870  178.0020  140.7120 C   0  0  0  0  0  0  0  0  0  0  0  0
  181.9390  179.2110  143.4660 N   0  0  0  0  0  2  0  0  0  0  0  0
  184.8620  178.5180  141.7120 C   0  0  0  0  0  0  0  0  0  0  0  0
  184.1550  178.8600  142.8390 N   0  0  0  0  0  0  0  0  0  0  0  0
  182.8350  178.9180  142.5830 C   0  0  0  0  0  0  0  0  0  0  0  0
  182.5470  178.5280  141.0010 S   0  0  0  0  0  0  0  0  0  0  0  0
  184.1350  178.2740  140.5820 N   0  0  0  0  0  2  0  0  0  0  0  0
  1 12  1  0  0  0  0
  2 16  1  0  0  0  0
  2  6  1  0  0  0  0
  3 16  1  0  0  0  0
  6 18  2  0  0  0  0
  7 13  1  0  0  0  0
  8 17  1  0  0  0  0
  9  7  1  0  0  0  0
 10  8  2  0  0  0  0
 11  7  1  0  0  0  0
 11 14  2  0  0  0  0
 12  2  2  0  0  0  0
 13  4  2  0  0  0  0
 13  5  1  0  0  0  0
 14 18  1  0  0  0  0
 14  4  1  0  0  0  0
 15  1  1  0  0  0  0
 15 21  2  0  0  0  0
 16 11  1  0  0  0  0
 17 21  1  0  0  0  0
 19 10  1  0  0  0  0
 19 20  2  0  0  0  0
 20 15  1  0  0  0  0
 21  3  1  0  0  0  0
 23 12  1  0  0  0  0
 23 24  2  0  0  0  0
 25 24  1  0  0  0  0
 25 22  2  0  0  0  0
 26 25  1  0  0  0  0
 27 26  1  0  0  0  0
 27 23  1  0  0  0  0
M  END
>  <MODEL>
8

>  <REMARK>
 VINA RESULT:      -8.5      2.326      5.227
  Name = 
  1 active torsions:
  status: ('A' for Active; 'I' for Inactive)
    1  A    between atoms: C_9  and  C_15
                            x       y       z     vdW  Elec       q    Type
                         _______ _______ _______ _____ _____    ______ ____

>  <TORSDO>
F 1

$$$$
=
 OpenBabel10272401043D

 27 31  0  0  0  0  0  0  0  0999 V2000
  187.9270  178.1640  140.8480 N   0  0  0  0  0  2  0  0  0  0  0  0
  185.6670  178.4120  139.7940 C   0  0  0  0  0  0  0  0  0  0  0  0
  185.6220  179.4430  142.0970 C   0  0  0  0  0  2  0  0  0  0  0  0
  181.5040  178.5250  140.0960 N   0  0  0  0  0  0  0  0  0  0  0  0
  180.1600  178.8460  142.1780 C   0  0  0  0  0  1  0  0  0  0  0  0
  184.8350  178.3010  138.5470 C   0  0  0  0  0  3  0  0  0  0  0  0
  182.6660  178.8300  142.0190 N   0  0  0  0  0  0  0  0  0  0  0  0
  186.8290  177.1490  144.8950 C   0  0  0  0  0  3  0  0  0  0  0  0
  182.9490  179.0360  143.4310 C   0  0  0  0  0  1  0  0  0  0  0  0
  188.1390  176.9260  144.9620 C   0  0  0  0  0  2  0  0  0  0  0  0
  183.5300  178.6650  141.0040 C   0  0  0  0  0  0  0  0  0  0  0  0
  187.0240  178.2410  139.7180 C   0  0  0  0  0  0  0  0  0  0  0  0
  181.4470  178.7330  141.4370 C   0  0  0  0  0  0  0  0  0  0  0  0
  182.8290  178.4840  139.8560 C   0  0  0  0  0  0  0  0  0  0  0  0
  187.8000  178.1940  142.1430 C   0  0  0  0  0  0  0  0  0  0  0  0
  184.9660  178.7230  141.0280 N   0  0  0  0  0  0  0  0  0  0  0  0
  186.1170  178.0390  143.9710 C   0  0  0  0  0  3  0  0  0  0  0  0
  183.4960  178.3290  138.5670 C   0  0  0  0  0  3  0  0  0  0  0  0
  189.1890  177.5000  144.1130 C   0  0  0  0  0  3  0  0  0  0  0  0
  189.0440  178.0380  142.9040 C   0  0  0  0  0  3  0  0  0  0  0  0
  186.5300  178.5230  142.8000 C   0  0  0  0  0  0  0  0  0  0  0  0
  188.9190  175.8660  135.9830 N   0  0  0  0  0  2  0  0  0  0  0  0
  187.7070  178.0380  138.4150 C   0  0  0  0  0  0  0  0  0  0  0  0
  187.9000  176.7970  137.8600 N   0  0  0  0  0  0  0  0  0  0  0  0
  188.5920  176.8820  136.7090 C   0  0  0  0  0  0  0  0  0  0  0  0
  188.9820  178.4600  136.3990 S   0  0  0  0  0  0  0  0  0  0  0  0
  188.2550  179.0990  137.7510 N   0  0  0  0  0  2  0  0  0  0  0  0
  1 15  1  0  0  0  0
  2 16  1  0  0  0  0
  3 21  1  0  0  0  0
  4 13  2  0  0  0  0
  6 18  2  0  0  0  0
  6  2  1  0  0  0  0
  7  9  1  0  0  0  0
  8 10  1  0  0  0  0
 11 16  1  0  0  0  0
 11  7  1  0  0  0  0
 12  2  2  0  0  0  0
 12  1  1  0  0  0  0
 13  7  1  0  0  0  0
 13  5  1  0  0  0  0
 14  4  1  0  0  0  0
 14 11  2  0  0  0  0
 15 21  2  0  0  0  0
 15 20  1  0  0  0  0
 16  3  1  0  0  0  0
 17  8  2  0  0  0  0
 18 14  1  0  0  0  0
 19 10  1  0  0  0  0
 20 19  2  0  0  0  0
 21 17  1  0  0  0  0
 22 25  2  0  0  0  0
 23 12  1  0  0  0  0
 24 23  2  0  0  0  0
 25 24  1  0  0  0  0
 26 25  1  0  0  0  0
 26 27  1  0  0  0  0
 27 23  1  0  0  0  0
M  END
>  <MODEL>
9

>  <REMARK>
 VINA RESULT:      -8.2      2.583      6.267
  Name = 
  1 active torsions:
  status: ('A' for Active; 'I' for Inactive)
    1  A    between atoms: C_9  and  C_15
                            x       y       z     vdW  Elec       q    Type
                         _______ _______ _______ _____ _____    ______ ____

>  <TORSDO>
F 1

$$$$
