=
 OpenBabel10272415173D

 34 37  0  0  1  0  0  0  0  0999 V2000
  189.0700  176.1050  137.7350 O   0  0  0  0  0  0  0  0  0  0  0  0
  189.8940  175.1660  134.3460 C   0  0  0  0  0  2  0  0  0  0  0  0
  190.1210  173.9170  135.1810 C   0  0  1  0  0  3  0  0  0  0  0  0
  189.9060  173.5860  137.5980 O   0  0  0  0  0  1  0  0  0  0  0  0
  190.4430  174.4000  136.5950 C   0  0  2  0  0  3  0  0  0  0  0  0
  189.5140  176.2830  135.3050 C   0  0  0  0  0  2  0  0  0  0  0  0
  190.0210  175.8760  136.6990 C   0  0  1  0  0  0  0  0  0  0  0  0
  187.6460  173.4750  135.1800 O   0  0  0  0  0  1  0  0  0  0  0  0
  188.9450  172.9910  135.0860 C   0  0  0  0  0  0  0  0  0  0  0  0
  189.1410  171.7610  134.9150 O   0  0  0  0  0  0  0  0  0  0  0  0
  191.2480  176.7380  137.0460 C   0  0  0  0  0  2  0  0  0  0  0  0
  193.2410  176.0400  135.6730 C   0  0  0  0  0  3  0  0  0  0  0  0
  195.0580  174.7800  136.6620 C   0  0  0  0  0  3  0  0  0  0  0  0
  194.4800  175.4020  135.5510 C   0  0  0  0  0  3  0  0  0  0  0  0
  193.1570  175.4300  138.0160 C   0  0  0  0  0  3  0  0  0  0  0  0
  192.5750  176.0520  136.9060 C   0  0  0  0  0  0  0  0  0  0  0  0
  194.3970  174.7940  137.8930 C   0  0  0  0  0  3  0  0  0  0  0  0
  189.2680  177.3510  138.3640 C   0  0  2  0  0  3  0  0  0  0  0  0
  188.4330  178.1600  141.7790 C   0  0  0  0  0  2  0  0  0  0  0  0
  191.3750  177.4830  141.1980 C   0  0  0  0  0  2  0  0  0  0  0  0
  189.9610  177.4910  145.1620 N   0  0  0  0  0  0  0  0  0  0  0  0
  189.5220  177.0900  146.4650 C   0  0  0  0  0  0  0  0  0  0  0  0
  189.0000  177.9570  144.1700 C   0  0  0  0  0  2  0  0  0  0  0  0
  188.2910  177.0330  146.7340 O   0  0  0  0  0  0  0  0  0  0  0  0
  189.4310  177.5280  142.7680 C   0  0  2  0  0  3  0  0  0  0  0  0
  190.4510  176.7620  147.4480 O   0  0  0  0  0  1  0  0  0  0  0  0
  191.6990  177.2280  143.4900 C   0  0  0  0  0  2  0  0  0  0  0  0
  190.8450  177.9050  142.5110 N   0  0  1  0  0  0  0  0  0  0  0  0
  191.3790  177.7000  144.9010 C   0  0  0  0  0  2  0  0  0  0  0  0
  190.4870  176.5070  140.4140 C   0  0  0  0  0  2  0  0  0  0  0  0
  188.9870  178.4270  140.5180 O   0  0  0  0  0  0  0  0  0  0  0  0
  189.2150  177.1890  139.8870 C   0  0  1  0  0  3  0  0  0  0  0  0
  188.2680  178.3850  137.8390 C   0  0  0  0  0  2  0  0  0  0  0  0
  188.9230  179.5190  137.3560 O   0  0  0  0  0  1  0  0  0  0  0  0
  1 18  1  0  0  0  0
  2  3  1  0  0  0  0
  2  6  1  0  0  0  0
  3  9  1  1  0  0  0
  3  5  1  0  0  0  0
  5  7  1  0  0  0  0
  5  4  1  1  0  0  0
  6  7  1  0  0  0  0
  7 11  1  1  0  0  0
  7  1  1  0  0  0  0
  9  8  1  0  0  0  0
 10  9  2  0  0  0  0
 12 16  1  0  0  0  0
 13 17  2  0  0  0  0
 14 12  2  0  0  0  0
 14 13  1  0  0  0  0
 16 11  1  0  0  0  0
 16 15  2  0  0  0  0
 17 15  1  0  0  0  0
 18 33  1  6  0  0  0
 21 22  1  0  0  0  0
 22 24  2  0  0  0  0
 22 26  1  0  0  0  0
 23 21  1  0  0  0  0
 25 19  1  6  0  0  0
 25 23  1  0  0  0  0
 27 29  1  0  0  0  0
 28 20  1  6  0  0  0
 28 25  1  0  0  0  0
 28 27  1  0  0  0  0
 29 21  1  0  0  0  0
 30 20  1  0  0  0  0
 31 19  1  0  0  0  0
 32 18  1  6  0  0  0
 32 30  1  0  0  0  0
 32 31  1  0  0  0  0
 34 33  1  0  0  0  0
M  END
>  <MODEL>
1

>  <REMARK>
 VINA RESULT:      -6.9      0.000      0.000
  Name = 
  7 active torsions:
  status: ('A' for Active; 'I' for Inactive)
    1  A    between atoms: C_1  and  C_20
    2  A    between atoms: C_1  and  C_34
    3  A    between atoms: O_5  and  C_18
    4  A    between atoms: O_5  and  C_34
    5  A    between atoms: C_8  and  C_18
    6  A    between atoms: C_13  and  C_23
    7  A    between atoms: C_18  and  C_33
                            x       y       z     vdW  Elec       q    Type
                         _______ _______ _______ _____ _____    ______ ____

>  <TORSDO>
F 7

$$$$
=
 OpenBabel10272415173D

 34 37  0  0  1  0  0  0  0  0999 V2000
  189.7750  176.2570  138.2200 O   0  0  0  0  0  0  0  0  0  0  0  0
  190.4710  175.7560  134.7120 C   0  0  0  0  0  2  0  0  0  0  0  0
  190.4060  174.3640  135.3160 C   0  0  1  0  0  3  0  0  0  0  0  0
  190.0620  173.6790  137.6430 O   0  0  0  0  0  1  0  0  0  0  0  0
  190.7860  174.5190  136.7890 C   0  0  2  0  0  3  0  0  0  0  0  0
  190.3110  176.7480  135.8530 C   0  0  0  0  0  2  0  0  0  0  0  0
  190.6830  176.0120  137.1510 C   0  0  1  0  0  0  0  0  0  0  0  0
  187.8940  174.4650  135.2690 O   0  0  0  0  0  1  0  0  0  0  0  0
  189.0640  173.7400  135.0760 C   0  0  0  0  0  0  0  0  0  0  0  0
  188.9990  172.5450  134.6910 O   0  0  0  0  0  0  0  0  0  0  0  0
  192.0550  176.5200  137.6270 C   0  0  0  0  0  2  0  0  0  0  0  0
  193.9040  176.1810  135.9500 C   0  0  0  0  0  3  0  0  0  0  0  0
  195.4540  174.3320  136.1580 C   0  0  0  0  0  3  0  0  0  0  0  0
  195.0100  175.4680  135.4750 C   0  0  0  0  0  3  0  0  0  0  0  0
  193.6880  174.6220  137.7910 C   0  0  0  0  0  3  0  0  0  0  0  0
  193.2390  175.7570  137.1080 C   0  0  0  0  0  0  0  0  0  0  0  0
  194.7950  173.9090  137.3160 C   0  0  0  0  0  3  0  0  0  0  0  0
  189.8540  177.5880  138.6800 C   0  0  2  0  0  3  0  0  0  0  0  0
  190.9330  176.3800  141.9030 C   0  0  0  0  0  2  0  0  0  0  0  0
  188.0800  177.5110  141.7360 C   0  0  0  0  0  2  0  0  0  0  0  0
  189.9100  176.9640  145.4860 N   0  0  0  0  0  0  0  0  0  0  0  0
  190.5460  177.1850  146.7500 C   0  0  0  0  0  0  0  0  0  0  0  0
  190.6730  176.4540  144.3540 C   0  0  0  0  0  2  0  0  0  0  0  0
  191.7930  177.0450  146.8680 O   0  0  0  0  0  0  0  0  0  0  0  0
  190.1570  177.0580  143.0480 C   0  0  2  0  0  3  0  0  0  0  0  0
  189.7920  177.5550  147.8600 O   0  0  0  0  0  1  0  0  0  0  0  0
  188.0550  177.6110  144.0620 C   0  0  0  0  0  2  0  0  0  0  0  0
  188.6840  176.9080  142.9410 N   0  0  1  0  0  0  0  0  0  0  0  0
  188.4560  176.9790  145.3870 C   0  0  0  0  0  2  0  0  0  0  0  0
  189.0110  178.4170  140.9170 C   0  0  0  0  0  2  0  0  0  0  0  0
  190.2090  176.3030  140.7040 O   0  0  0  0  0  0  0  0  0  0  0  0
  190.1010  177.6100  140.1930 C   0  0  1  0  0  3  0  0  0  0  0  0
  188.6070  178.3760  138.2680 C   0  0  0  0  0  2  0  0  0  0  0  0
  188.9520  179.5420  137.5830 O   0  0  0  0  0  1  0  0  0  0  0  0
  1 18  1  0  0  0  0
  2  3  1  0  0  0  0
  2  6  1  0  0  0  0
  3  9  1  1  0  0  0
  3  5  1  0  0  0  0
  5  7  1  0  0  0  0
  5  4  1  1  0  0  0
  6  7  1  0  0  0  0
  7 11  1  1  0  0  0
  7  1  1  0  0  0  0
  9  8  1  0  0  0  0
 10  9  2  0  0  0  0
 12 16  1  0  0  0  0
 13 17  2  0  0  0  0
 14 12  2  0  0  0  0
 14 13  1  0  0  0  0
 16 11  1  0  0  0  0
 16 15  2  0  0  0  0
 17 15  1  0  0  0  0
 18 33  1  1  0  0  0
 21 22  1  0  0  0  0
 22 24  2  0  0  0  0
 22 26  1  0  0  0  0
 23 21  1  0  0  0  0
 25 19  1  6  0  0  0
 25 23  1  0  0  0  0
 27 29  1  0  0  0  0
 28 20  1  6  0  0  0
 28 25  1  0  0  0  0
 28 27  1  0  0  0  0
 29 21  1  0  0  0  0
 30 20  1  0  0  0  0
 31 19  1  0  0  0  0
 32 18  1  6  0  0  0
 32 31  1  0  0  0  0
 32 30  1  0  0  0  0
 34 33  1  0  0  0  0
M  END
>  <MODEL>
2

>  <REMARK>
 VINA RESULT:      -6.7      1.103      1.680
  Name = 
  7 active torsions:
  status: ('A' for Active; 'I' for Inactive)
    1  A    between atoms: C_1  and  C_20
    2  A    between atoms: C_1  and  C_34
    3  A    between atoms: O_5  and  C_18
    4  A    between atoms: O_5  and  C_34
    5  A    between atoms: C_8  and  C_18
    6  A    between atoms: C_13  and  C_23
    7  A    between atoms: C_18  and  C_33
                            x       y       z     vdW  Elec       q    Type
                         _______ _______ _______ _____ _____    ______ ____

>  <TORSDO>
F 7

$$$$
=
 OpenBabel10272415173D

 34 37  0  0  1  0  0  0  0  0999 V2000
  187.7870  178.5940  139.1660 O   0  0  0  0  0  0  0  0  0  0  0  0
  186.6990  176.2190  136.6720 C   0  0  0  0  0  2  0  0  0  0  0  0
  187.3060  177.3740  135.8950 C   0  0  1  0  0  3  0  0  0  0  0  0
  188.2440  179.4880  136.7050 O   0  0  0  0  0  1  0  0  0  0  0  0
  187.1550  178.6120  136.7800 C   0  0  2  0  0  3  0  0  0  0  0  0
  186.7270  176.6040  138.1420 C   0  0  0  0  0  2  0  0  0  0  0  0
  186.8360  178.1370  138.2090 C   0  0  1  0  0  0  0  0  0  0  0  0
  189.4110  176.0100  136.0750 O   0  0  0  0  0  1  0  0  0  0  0  0
  188.7160  177.0610  135.4890 C   0  0  0  0  0  0  0  0  0  0  0  0
  189.2720  177.7590  134.6030 O   0  0  0  0  0  0  0  0  0  0  0  0
  185.4760  178.7070  138.6480 C   0  0  0  0  0  2  0  0  0  0  0  0
  183.7610  177.1050  139.5620 C   0  0  0  0  0  3  0  0  0  0  0  0
  182.1090  176.0850  138.1150 C   0  0  0  0  0  3  0  0  0  0  0  0
  182.6660  176.2530  139.3860 C   0  0  0  0  0  3  0  0  0  0  0  0
  183.7430  177.6190  137.1950 C   0  0  0  0  0  3  0  0  0  0  0  0
  184.3050  177.7870  138.4660 C   0  0  0  0  0  0  0  0  0  0  0  0
  182.6470  176.7680  137.0200 C   0  0  0  0  0  3  0  0  0  0  0  0
  188.5370  177.5310  139.7090 C   0  0  2  0  0  3  0  0  0  0  0  0
  189.3660  176.6500  143.1080 C   0  0  0  0  0  2  0  0  0  0  0  0
  186.5520  177.7870  142.6220 C   0  0  0  0  0  2  0  0  0  0  0  0
  188.1040  177.6110  146.5310 N   0  0  0  0  0  0  0  0  0  0  0  0
  188.6540  177.9550  147.8070 C   0  0  0  0  0  0  0  0  0  0  0  0
  188.9360  176.9800  145.5140 C   0  0  0  0  0  2  0  0  0  0  0  0
  189.8870  177.8150  148.0290 O   0  0  0  0  0  0  0  0  0  0  0  0
  188.5240  177.4510  144.1190 C   0  0  2  0  0  3  0  0  0  0  0  0
  187.8310  178.4450  148.8170 O   0  0  0  0  0  1  0  0  0  0  0  0
  186.3650  178.1270  144.9190 C   0  0  0  0  0  2  0  0  0  0  0  0
  187.0590  177.3050  143.9240 N   0  0  1  0  0  0  0  0  0  0  0  0
  186.6610  177.6310  146.3270 C   0  0  0  0  0  2  0  0  0  0  0  0
  187.5540  178.5940  141.7850 C   0  0  0  0  0  2  0  0  0  0  0  0
  188.7260  176.4570  141.8750 O   0  0  0  0  0  0  0  0  0  0  0  0
  188.6770  177.7060  141.2260 C   0  0  1  0  0  3  0  0  0  0  0  0
  189.8860  177.4020  138.9970 C   0  0  0  0  0  2  0  0  0  0  0  0
  190.4640  176.1540  139.2350 O   0  0  0  0  0  1  0  0  0  0  0  0
  1 18  1  0  0  0  0
  2  6  1  0  0  0  0
  3  9  1  1  0  0  0
  3  2  1  0  0  0  0
  3  5  1  0  0  0  0
  5  4  1  1  0  0  0
  5  7  1  0  0  0  0
  6  7  1  0  0  0  0
  7 11  1  1  0  0  0
  7  1  1  0  0  0  0
  9  8  1  0  0  0  0
 10  9  2  0  0  0  0
 13 14  2  0  0  0  0
 14 12  1  0  0  0  0
 15 16  1  0  0  0  0
 16 11  1  0  0  0  0
 16 12  2  0  0  0  0
 17 15  2  0  0  0  0
 17 13  1  0  0  0  0
 18 33  1  6  0  0  0
 21 22  1  0  0  0  0
 22 24  2  0  0  0  0
 22 26  1  0  0  0  0
 23 21  1  0  0  0  0
 25 19  1  6  0  0  0
 25 23  1  0  0  0  0
 27 29  1  0  0  0  0
 28 20  1  6  0  0  0
 28 25  1  0  0  0  0
 28 27  1  0  0  0  0
 29 21  1  0  0  0  0
 30 20  1  0  0  0  0
 31 19  1  0  0  0  0
 32 18  1  6  0  0  0
 32 30  1  0  0  0  0
 32 31  1  0  0  0  0
 33 34  1  0  0  0  0
M  END
>  <MODEL>
3

>  <REMARK>
 VINA RESULT:      -6.6      3.049      5.877
  Name = 
  7 active torsions:
  status: ('A' for Active; 'I' for Inactive)
    1  A    between atoms: C_1  and  C_20
    2  A    between atoms: C_1  and  C_34
    3  A    between atoms: O_5  and  C_18
    4  A    between atoms: O_5  and  C_34
    5  A    between atoms: C_8  and  C_18
    6  A    between atoms: C_13  and  C_23
    7  A    between atoms: C_18  and  C_33
                            x       y       z     vdW  Elec       q    Type
                         _______ _______ _______ _____ _____    ______ ____

>  <TORSDO>
F 7

$$$$
=
 OpenBabel10272415173D

 34 37  0  0  1  0  0  0  0  0999 V2000
  188.4770  176.6370  139.0630 O   0  0  0  0  0  0  0  0  0  0  0  0
  189.8120  177.7570  135.8990 C   0  0  0  0  0  2  0  0  0  0  0  0
  189.1130  176.4410  135.6030 C   0  0  1  0  0  3  0  0  0  0  0  0
  187.9770  174.8920  137.1230 O   0  0  0  0  0  1  0  0  0  0  0  0
  189.1400  175.6400  136.9050 C   0  0  2  0  0  3  0  0  0  0  0  0
  189.7280  177.9810  137.4010 C   0  0  0  0  0  2  0  0  0  0  0  0
  189.4790  176.6090  138.0510 C   0  0  1  0  0  0  0  0  0  0  0  0
  187.0750  177.8750  135.2690 O   0  0  0  0  0  1  0  0  0  0  0  0
  187.7440  176.6790  135.0400 C   0  0  0  0  0  0  0  0  0  0  0  0
  187.1980  175.7830  134.3460 O   0  0  0  0  0  0  0  0  0  0  0  0
  190.7750  176.1520  138.7430 C   0  0  0  0  0  2  0  0  0  0  0  0
  191.8320  174.3000  137.4020 C   0  0  0  0  0  3  0  0  0  0  0  0
  193.8380  174.6870  136.1030 C   0  0  0  0  0  3  0  0  0  0  0  0
  192.8290  173.8260  136.5430 C   0  0  0  0  0  3  0  0  0  0  0  0
  192.8550  176.4950  137.3810 C   0  0  0  0  0  3  0  0  0  0  0  0
  191.8450  175.6350  137.8260 C   0  0  0  0  0  0  0  0  0  0  0  0
  193.8520  176.0210  136.5210 C   0  0  0  0  0  3  0  0  0  0  0  0
  188.2420  177.9470  139.5320 C   0  0  2  0  0  3  0  0  0  0  0  0
  189.2730  176.8330  142.8040 C   0  0  0  0  0  2  0  0  0  0  0  0
  186.4230  177.9550  142.5610 C   0  0  0  0  0  2  0  0  0  0  0  0
  188.1950  177.5180  146.3530 N   0  0  0  0  0  0  0  0  0  0  0  0
  188.8120  177.7770  147.6200 C   0  0  0  0  0  0  0  0  0  0  0  0
  188.9770  176.9770  145.2480 C   0  0  0  0  0  2  0  0  0  0  0  0
  190.0580  177.6410  147.7610 O   0  0  0  0  0  0  0  0  0  0  0  0
  188.4800  177.5430  143.9170 C   0  0  2  0  0  3  0  0  0  0  0  0
  188.0410  178.1770  148.7070 O   0  0  0  0  0  1  0  0  0  0  0  0
  186.3620  178.1220  144.8830 C   0  0  0  0  0  2  0  0  0  0  0  0
  187.0080  177.3870  143.7930 N   0  0  1  0  0  0  0  0  0  0  0  0
  186.7430  177.5290  146.2320 C   0  0  0  0  0  2  0  0  0  0  0  0
  187.3650  178.8380  141.7310 C   0  0  0  0  0  2  0  0  0  0  0  0
  188.5670  176.7200  141.5970 O   0  0  0  0  0  0  0  0  0  0  0  0
  188.4660  178.0130  141.0470 C   0  0  1  0  0  3  0  0  0  0  0  0
  186.8500  178.4270  139.1140 C   0  0  0  0  0  2  0  0  0  0  0  0
  186.2260  177.4980  138.2790 O   0  0  0  0  0  1  0  0  0  0  0  0
  1 18  1  0  0  0  0
  2  6  1  0  0  0  0
  3  9  1  1  0  0  0
  3  2  1  0  0  0  0
  3  5  1  0  0  0  0
  5  4  1  1  0  0  0
  5  7  1  0  0  0  0
  6  7  1  0  0  0  0
  7 11  1  1  0  0  0
  7  1  1  0  0  0  0
  9  8  1  0  0  0  0
 10  9  2  0  0  0  0
 12 16  1  0  0  0  0
 13 17  2  0  0  0  0
 13 14  1  0  0  0  0
 14 12  2  0  0  0  0
 15 16  2  0  0  0  0
 16 11  1  0  0  0  0
 17 15  1  0  0  0  0
 18 33  1  1  0  0  0
 21 22  1  0  0  0  0
 22 24  2  0  0  0  0
 22 26  1  0  0  0  0
 23 21  1  0  0  0  0
 25 19  1  6  0  0  0
 25 23  1  0  0  0  0
 27 29  1  0  0  0  0
 28 20  1  6  0  0  0
 28 25  1  0  0  0  0
 28 27  1  0  0  0  0
 29 21  1  0  0  0  0
 30 20  1  0  0  0  0
 31 19  1  0  0  0  0
 32 18  1  6  0  0  0
 32 31  1  0  0  0  0
 32 30  1  0  0  0  0
 34 33  1  0  0  0  0
M  END
>  <MODEL>
4

>  <REMARK>
 VINA RESULT:      -6.4      2.028      2.911
  Name = 
  7 active torsions:
  status: ('A' for Active; 'I' for Inactive)
    1  A    between atoms: C_1  and  C_20
    2  A    between atoms: C_1  and  C_34
    3  A    between atoms: O_5  and  C_18
    4  A    between atoms: O_5  and  C_34
    5  A    between atoms: C_8  and  C_18
    6  A    between atoms: C_13  and  C_23
    7  A    between atoms: C_18  and  C_33
                            x       y       z     vdW  Elec       q    Type
                         _______ _______ _______ _____ _____    ______ ____

>  <TORSDO>
F 7

$$$$
=
 OpenBabel10272415173D

 34 37  0  0  1  0  0  0  0  0999 V2000
  188.6830  176.2710  138.3430 O   0  0  0  0  0  0  0  0  0  0  0  0
  189.3550  176.8340  134.8390 C   0  0  0  0  0  2  0  0  0  0  0  0
  187.9770  176.1970  134.8910 C   0  0  1  0  0  3  0  0  0  0  0  0
  186.6970  175.3840  136.8150 O   0  0  0  0  0  1  0  0  0  0  0  0
  187.9400  175.3620  136.1720 C   0  0  2  0  0  3  0  0  0  0  0  0
  189.8870  176.8700  136.2630 C   0  0  0  0  0  2  0  0  0  0  0  0
  189.1110  175.8110  137.0640 C   0  0  1  0  0  0  0  0  0  0  0  0
  185.6280  176.9110  134.3470 O   0  0  0  0  0  0  0  0  0  0  0  0
  186.9040  177.2400  134.7900 C   0  0  0  0  0  0  0  0  0  0  0  0
  187.1640  178.4270  135.1140 O   0  0  0  0  0  1  0  0  0  0  0  0
  190.0420  174.6150  137.3280 C   0  0  0  0  0  2  0  0  0  0  0  0
  192.0940  174.3970  135.8830 C   0  0  0  0  0  3  0  0  0  0  0  0
  194.2120  175.3480  136.5710 C   0  0  0  0  0  3  0  0  0  0  0  0
  193.4500  174.6370  135.6390 C   0  0  0  0  0  3  0  0  0  0  0  0
  192.2620  175.5780  137.9910 C   0  0  0  0  0  3  0  0  0  0  0  0
  191.4980  174.8640  137.0620 C   0  0  0  0  0  0  0  0  0  0  0  0
  193.6190  175.8190  137.7460 C   0  0  0  0  0  3  0  0  0  0  0  0
  189.2480  177.5220  138.6660 C   0  0  2  0  0  3  0  0  0  0  0  0
  190.6030  176.3360  141.7910 C   0  0  0  0  0  2  0  0  0  0  0  0
  187.7640  177.5110  141.8730 C   0  0  0  0  0  2  0  0  0  0  0  0
  189.9250  176.9800  145.4460 N   0  0  0  0  0  0  0  0  0  0  0  0
  190.6790  177.2080  146.6420 C   0  0  0  0  0  0  0  0  0  0  0  0
  190.5730  176.4450  144.2550 C   0  0  0  0  0  2  0  0  0  0  0  0
  191.9290  177.0490  146.6470 O   0  0  0  0  0  0  0  0  0  0  0  0
  189.9470  177.0410  142.9940 C   0  0  2  0  0  3  0  0  0  0  0  0
  190.0360  177.6030  147.8120 O   0  0  0  0  0  1  0  0  0  0  0  0
  187.9560  177.6400  144.1910 C   0  0  0  0  0  2  0  0  0  0  0  0
  188.4680  176.9130  143.0260 N   0  0  1  0  0  0  0  0  0  0  0  0
  188.4680  177.0180  145.4820 C   0  0  0  0  0  2  0  0  0  0  0  0
  188.6290  178.3910  140.9600 C   0  0  0  0  0  2  0  0  0  0  0  0
  189.7700  176.2560  140.6660 O   0  0  0  0  0  0  0  0  0  0  0  0
  189.6340  177.5590  140.1490 C   0  0  1  0  0  3  0  0  0  0  0  0
  188.3040  178.6600  138.2670 C   0  0  0  0  0  2  0  0  0  0  0  0
  189.0060  179.7140  137.6810 O   0  0  0  0  0  1  0  0  0  0  0  0
  1 18  1  0  0  0  0
  2  3  1  0  0  0  0
  2  6  1  0  0  0  0
  3  9  1  1  0  0  0
  3  5  1  0  0  0  0
  5  4  1  1  0  0  0
  5  7  1  0  0  0  0
  6  7  1  0  0  0  0
  7 11  1  1  0  0  0
  7  1  1  0  0  0  0
  8  9  2  0  0  0  0
  9 10  1  0  0  0  0
 12 16  1  0  0  0  0
 13 17  2  0  0  0  0
 14 12  2  0  0  0  0
 14 13  1  0  0  0  0
 16 11  1  0  0  0  0
 16 15  2  0  0  0  0
 17 15  1  0  0  0  0
 18 33  1  1  0  0  0
 21 29  1  0  0  0  0
 21 22  1  0  0  0  0
 22 24  2  0  0  0  0
 22 26  1  0  0  0  0
 23 21  1  0  0  0  0
 25 19  1  6  0  0  0
 25 28  1  0  0  0  0
 25 23  1  0  0  0  0
 27 29  1  0  0  0  0
 28 20  1  6  0  0  0
 28 27  1  0  0  0  0
 30 20  1  0  0  0  0
 31 19  1  0  0  0  0
 32 18  1  6  0  0  0
 32 31  1  0  0  0  0
 32 30  1  0  0  0  0
 34 33  1  0  0  0  0
M  END
>  <MODEL>
5

>  <REMARK>
 VINA RESULT:      -6.4      1.717      2.601
  Name = 
  7 active torsions:
  status: ('A' for Active; 'I' for Inactive)
    1  A    between atoms: C_1  and  C_20
    2  A    between atoms: C_1  and  C_34
    3  A    between atoms: O_5  and  C_18
    4  A    between atoms: O_5  and  C_34
    5  A    between atoms: C_8  and  C_18
    6  A    between atoms: C_13  and  C_23
    7  A    between atoms: C_18  and  C_33
                            x       y       z     vdW  Elec       q    Type
                         _______ _______ _______ _____ _____    ______ ____

>  <TORSDO>
F 7

$$$$
=
 OpenBabel10272415173D

 34 37  0  0  1  0  0  0  0  0999 V2000
  189.8850  177.9040  138.5970 O   0  0  0  0  0  0  0  0  0  0  0  0
  188.3940  175.0270  137.0010 C   0  0  0  0  0  2  0  0  0  0  0  0
  189.6260  175.3550  136.1770 C   0  0  1  0  0  3  0  0  0  0  0  0
  191.2380  177.1830  136.4260 O   0  0  0  0  0  1  0  0  0  0  0  0
  189.8800  176.8520  136.3650 C   0  0  2  0  0  3  0  0  0  0  0  0
  188.2720  176.0990  138.0730 C   0  0  0  0  0  2  0  0  0  0  0  0
  189.0690  177.3210  137.5850 C   0  0  1  0  0  0  0  0  0  0  0  0
  191.8210  174.2350  135.6740 O   0  0  0  0  0  0  0  0  0  0  0  0
  190.7750  174.4710  136.5600 C   0  0  0  0  0  0  0  0  0  0  0  0
  190.7930  173.9400  137.6990 O   0  0  0  0  0  1  0  0  0  0  0  0
  188.0760  178.4130  137.1530 C   0  0  0  0  0  2  0  0  0  0  0  0
  185.6800  177.6830  137.4240 C   0  0  0  0  0  3  0  0  0  0  0  0
  184.3600  176.9970  135.5130 C   0  0  0  0  0  3  0  0  0  0  0  0
  184.4730  177.2230  136.8880 C   0  0  0  0  0  3  0  0  0  0  0  0
  186.6620  177.6890  135.2100 C   0  0  0  0  0  3  0  0  0  0  0  0
  186.7790  177.9140  136.5860 C   0  0  0  0  0  0  0  0  0  0  0  0
  185.4540  177.2300  134.6740 C   0  0  0  0  0  3  0  0  0  0  0  0
  190.2750  176.9570  139.5670 C   0  0  2  0  0  3  0  0  0  0  0  0
  189.0280  176.4270  142.9100 C   0  0  0  0  0  2  0  0  0  0  0  0
  187.2320  178.0350  141.0040 C   0  0  0  0  0  2  0  0  0  0  0  0
  186.5020  178.1130  145.1480 N   0  0  0  0  0  0  0  0  0  0  0  0
  186.4000  178.5190  146.5180 C   0  0  0  0  0  0  0  0  0  0  0  0
  187.5440  177.1840  144.7290 C   0  0  0  0  0  2  0  0  0  0  0  0
  187.2730  178.1620  147.3550 O   0  0  0  0  0  1  0  0  0  0  0  0
  188.0230  177.5220  143.3170 C   0  0  2  0  0  3  0  0  0  0  0  0
  185.3340  179.3080  146.9380 O   0  0  0  0  0  0  0  0  0  0  0  0
  186.0060  178.7350  142.8560 C   0  0  0  0  0  2  0  0  0  0  0  0
  186.8740  177.6530  142.3860 N   0  0  1  0  0  0  0  0  0  0  0  0
  185.4170  178.3990  144.2180 C   0  0  0  0  0  2  0  0  0  0  0  0
  188.6840  178.4890  140.8020 C   0  0  0  0  0  2  0  0  0  0  0  0
  189.0720  176.1930  141.5280 O   0  0  0  0  0  0  0  0  0  0  0  0
  189.6710  177.3180  140.9290 C   0  0  1  0  0  3  0  0  0  0  0  0
  191.7990  176.8220  139.6070 C   0  0  0  0  0  2  0  0  0  0  0  0
  192.3520  177.6490  140.5870 O   0  0  0  0  0  1  0  0  0  0  0  0
  1 18  1  0  0  0  0
  2  6  1  0  0  0  0
  3  5  1  0  0  0  0
  3  9  1  1  0  0  0
  3  2  1  0  0  0  0
  5  4  1  1  0  0  0
  5  7  1  0  0  0  0
  7 11  1  6  0  0  0
  7  6  1  0  0  0  0
  7  1  1  0  0  0  0
  8  9  2  0  0  0  0
  9 10  1  0  0  0  0
 13 14  2  0  0  0  0
 14 12  1  0  0  0  0
 15 16  1  0  0  0  0
 16 11  1  0  0  0  0
 16 12  2  0  0  0  0
 17 15  2  0  0  0  0
 17 13  1  0  0  0  0
 18 33  1  1  0  0  0
 21 22  1  0  0  0  0
 22 26  2  0  0  0  0
 22 24  1  0  0  0  0
 23 21  1  0  0  0  0
 25 19  1  6  0  0  0
 25 23  1  0  0  0  0
 27 29  1  0  0  0  0
 28 20  1  6  0  0  0
 28 27  1  0  0  0  0
 28 25  1  0  0  0  0
 29 21  1  0  0  0  0
 30 32  1  0  0  0  0
 30 20  1  0  0  0  0
 31 19  1  0  0  0  0
 32 18  1  6  0  0  0
 32 31  1  0  0  0  0
 33 34  1  0  0  0  0
M  END
>  <MODEL>
6

>  <REMARK>
 VINA RESULT:      -6.3      2.531      4.911
  Name = 
  7 active torsions:
  status: ('A' for Active; 'I' for Inactive)
    1  A    between atoms: C_1  and  C_20
    2  A    between atoms: C_1  and  C_34
    3  A    between atoms: O_5  and  C_18
    4  A    between atoms: O_5  and  C_34
    5  A    between atoms: C_8  and  C_18
    6  A    between atoms: C_13  and  C_23
    7  A    between atoms: C_18  and  C_33
                            x       y       z     vdW  Elec       q    Type
                         _______ _______ _______ _____ _____    ______ ____

>  <TORSDO>
F 7

$$$$
=
 OpenBabel10272415173D

 34 37  0  0  1  0  0  0  0  0999 V2000
  190.5420  177.7450  139.3930 O   0  0  0  0  0  0  0  0  0  0  0  0
  189.5400  177.0920  135.9850 C   0  0  0  0  0  2  0  0  0  0  0  0
  188.2540  177.0920  136.7930 C   0  0  1  0  0  3  0  0  0  0  0  0
  187.9180  177.3680  139.2040 O   0  0  0  0  0  1  0  0  0  0  0  0
  188.6440  176.6930  138.2170 C   0  0  2  0  0  3  0  0  0  0  0  0
  190.6870  177.2710  136.9670 C   0  0  0  0  0  2  0  0  0  0  0  0
  190.1690  176.8470  138.3520 C   0  0  1  0  0  0  0  0  0  0  0  0
  188.2200  179.6010  136.9580 O   0  0  0  0  0  1  0  0  0  0  0  0
  187.5530  178.4130  136.6820 C   0  0  0  0  0  0  0  0  0  0  0  0
  186.3470  178.4440  136.3290 O   0  0  0  0  0  0  0  0  0  0  0  0
  190.7930  175.4880  138.7140 C   0  0  0  0  0  2  0  0  0  0  0  0
  192.3740  174.4610  137.0430 C   0  0  0  0  0  3  0  0  0  0  0  0
  191.5880  172.8730  135.3930 C   0  0  0  0  0  3  0  0  0  0  0  0
  192.6300  173.6100  135.9630 C   0  0  0  0  0  3  0  0  0  0  0  0
  190.0340  173.8390  136.9810 C   0  0  0  0  0  3  0  0  0  0  0  0
  191.0740  174.5800  137.5520 C   0  0  0  0  0  0  0  0  0  0  0  0
  190.2910  172.9870  135.9010 C   0  0  0  0  0  3  0  0  0  0  0  0
  191.4730  177.1640  140.2780 C   0  0  2  0  0  3  0  0  0  0  0  0
  191.2190  176.6000  143.8320 C   0  0  0  0  0  2  0  0  0  0  0  0
  188.5990  177.1780  142.3340 C   0  0  0  0  0  2  0  0  0  0  0  0
  188.7280  177.4610  146.5310 N   0  0  0  0  0  0  0  0  0  0  0  0
  188.7460  177.9570  147.8750 C   0  0  0  0  0  0  0  0  0  0  0  0
  189.9460  176.9500  145.9150 C   0  0  0  0  0  2  0  0  0  0  0  0
  189.8350  178.0560  148.5020 O   0  0  0  0  0  1  0  0  0  0  0  0
  189.9660  177.2760  144.4220 C   0  0  2  0  0  3  0  0  0  0  0  0
  187.5610  178.3300  148.5010 O   0  0  0  0  0  0  0  0  0  0  0  0
  187.5860  177.5780  144.3930 C   0  0  0  0  0  2  0  0  0  0  0  0
  188.7000  176.8550  143.7720 N   0  0  1  0  0  0  0  0  0  0  0  0
  187.4580  177.2070  145.8630 C   0  0  0  0  0  2  0  0  0  0  0  0
  189.6850  178.1180  141.7930 C   0  0  0  0  0  2  0  0  0  0  0  0
  191.0790  176.2390  142.4840 O   0  0  0  0  0  0  0  0  0  0  0  0
  191.0570  177.4280  141.7300 C   0  0  1  0  0  3  0  0  0  0  0  0
  192.8910  177.6510  139.9660 C   0  0  0  0  0  2  0  0  0  0  0  0
  193.6510  176.6420  139.3720 O   0  0  0  0  0  1  0  0  0  0  0  0
  1 18  1  0  0  0  0
  2  3  1  0  0  0  0
  2  6  1  0  0  0  0
  3  9  1  1  0  0  0
  3  5  1  0  0  0  0
  5  7  1  0  0  0  0
  5  4  1  1  0  0  0
  6  7  1  0  0  0  0
  7 11  1  1  0  0  0
  7  1  1  0  0  0  0
  9  8  1  0  0  0  0
 10  9  2  0  0  0  0
 12 16  1  0  0  0  0
 13 17  2  0  0  0  0
 13 14  1  0  0  0  0
 14 12  2  0  0  0  0
 15 16  2  0  0  0  0
 16 11  1  0  0  0  0
 17 15  1  0  0  0  0
 18 33  1  6  0  0  0
 21 22  1  0  0  0  0
 22 26  2  0  0  0  0
 22 24  1  0  0  0  0
 23 21  1  0  0  0  0
 25 19  1  6  0  0  0
 25 23  1  0  0  0  0
 27 29  1  0  0  0  0
 28 20  1  6  0  0  0
 28 27  1  0  0  0  0
 28 25  1  0  0  0  0
 29 21  1  0  0  0  0
 30 20  1  0  0  0  0
 31 19  1  0  0  0  0
 32 18  1  6  0  0  0
 32 30  1  0  0  0  0
 32 31  1  0  0  0  0
 34 33  1  0  0  0  0
M  END
>  <MODEL>
7

>  <REMARK>
 VINA RESULT:      -6.2      2.354      3.717
  Name = 
  7 active torsions:
  status: ('A' for Active; 'I' for Inactive)
    1  A    between atoms: C_1  and  C_20
    2  A    between atoms: C_1  and  C_34
    3  A    between atoms: O_5  and  C_18
    4  A    between atoms: O_5  and  C_34
    5  A    between atoms: C_8  and  C_18
    6  A    between atoms: C_13  and  C_23
    7  A    between atoms: C_18  and  C_33
                            x       y       z     vdW  Elec       q    Type
                         _______ _______ _______ _____ _____    ______ ____

>  <TORSDO>
F 7

$$$$
=
 OpenBabel10272415173D

 34 37  0  0  1  0  0  0  0  0999 V2000
  188.3810  176.1700  138.1840 O   0  0  0  0  0  0  0  0  0  0  0  0
  189.1110  177.1680  134.7910 C   0  0  0  0  0  2  0  0  0  0  0  0
  187.8580  176.3140  134.7030 C   0  0  1  0  0  3  0  0  0  0  0  0
  186.6450  175.1230  136.4660 O   0  0  0  0  0  1  0  0  0  0  0  0
  187.9020  175.3650  135.9010 C   0  0  2  0  0  3  0  0  0  0  0  0
  189.5630  177.1530  136.2430 C   0  0  0  0  0  2  0  0  0  0  0  0
  188.9380  175.9100  136.9000 C   0  0  1  0  0  0  0  0  0  0  0  0
  185.3880  176.6190  134.3470 O   0  0  0  0  0  0  0  0  0  0  0  0
  186.6320  177.1730  134.6260 C   0  0  0  0  0  0  0  0  0  0  0  0
  186.7320  178.4110  134.8220 O   0  0  0  0  0  1  0  0  0  0  0  0
  190.0440  174.8620  137.1160 C   0  0  0  0  0  2  0  0  0  0  0  0
  192.1730  176.0720  137.7030 C   0  0  0  0  0  3  0  0  0  0  0  0
  194.0340  176.1480  136.1550 C   0  0  0  0  0  3  0  0  0  0  0  0
  193.4710  176.4880  137.3890 C   0  0  0  0  0  3  0  0  0  0  0  0
  192.0020  174.9750  135.5500 C   0  0  0  0  0  3  0  0  0  0  0  0
  191.4350  175.3170  136.7830 C   0  0  0  0  0  0  0  0  0  0  0  0
  193.3000  175.3920  135.2360 C   0  0  0  0  0  3  0  0  0  0  0  0
  188.9540  177.3120  138.7830 C   0  0  2  0  0  3  0  0  0  0  0  0
  188.2010  178.0330  142.2370 C   0  0  0  0  0  2  0  0  0  0  0  0
  191.1660  177.6640  141.5160 C   0  0  0  0  0  2  0  0  0  0  0  0
  189.9470  177.5310  145.5430 N   0  0  0  0  0  0  0  0  0  0  0  0
  189.6140  177.0880  146.8630 C   0  0  0  0  0  0  0  0  0  0  0  0
  188.8980  177.8930  144.5980 C   0  0  0  0  0  2  0  0  0  0  0  0
  188.4100  176.9040  147.1890 O   0  0  0  0  0  0  0  0  0  0  0  0
  189.3050  177.5100  143.1760 C   0  0  2  0  0  3  0  0  0  0  0  0
  190.6170  176.8600  147.8000 O   0  0  0  0  0  1  0  0  0  0  0  0
  191.6230  177.4470  143.7900 C   0  0  0  0  0  2  0  0  0  0  0  0
  190.6580  178.0310  142.8540 N   0  0  1  0  0  0  0  0  0  0  0  0
  191.3220  177.8860  145.2160 C   0  0  0  0  0  2  0  0  0  0  0  0
  190.3480  176.6000  140.7710 C   0  0  0  0  0  2  0  0  0  0  0  0
  188.6640  178.3550  140.9520 O   0  0  0  0  0  0  0  0  0  0  0  0
  188.9890  177.1460  140.3070 C   0  0  1  0  0  3  0  0  0  0  0  0
  188.2200  178.5800  138.3390 C   0  0  0  0  0  2  0  0  0  0  0  0
  186.8420  178.3650  138.2670 O   0  0  0  0  0  1  0  0  0  0  0  0
  1 18  1  0  0  0  0
  2  6  1  0  0  0  0
  3  9  1  1  0  0  0
  3  2  1  0  0  0  0
  3  5  1  0  0  0  0
  5  4  1  1  0  0  0
  5  7  1  0  0  0  0
  6  7  1  0  0  0  0
  7 11  1  1  0  0  0
  7  1  1  0  0  0  0
  8  9  2  0  0  0  0
  9 10  1  0  0  0  0
 13 14  2  0  0  0  0
 14 12  1  0  0  0  0
 15 16  1  0  0  0  0
 16 11  1  0  0  0  0
 16 12  2  0  0  0  0
 17 15  2  0  0  0  0
 17 13  1  0  0  0  0
 18 33  1  1  0  0  0
 21 22  1  0  0  0  0
 22 24  2  0  0  0  0
 22 26  1  0  0  0  0
 23 21  1  0  0  0  0
 25 19  1  6  0  0  0
 25 23  1  0  0  0  0
 27 29  1  0  0  0  0
 28 20  1  6  0  0  0
 28 25  1  0  0  0  0
 28 27  1  0  0  0  0
 29 21  1  0  0  0  0
 30 20  1  0  0  0  0
 31 19  1  0  0  0  0
 32 18  1  6  0  0  0
 32 30  1  0  0  0  0
 32 31  1  0  0  0  0
 34 33  1  0  0  0  0
M  END
>  <MODEL>
8

>  <REMARK>
 VINA RESULT:      -6.2      1.514      2.283
  Name = 
  7 active torsions:
  status: ('A' for Active; 'I' for Inactive)
    1  A    between atoms: C_1  and  C_20
    2  A    between atoms: C_1  and  C_34
    3  A    between atoms: O_5  and  C_18
    4  A    between atoms: O_5  and  C_34
    5  A    between atoms: C_8  and  C_18
    6  A    between atoms: C_13  and  C_23
    7  A    between atoms: C_18  and  C_33
                            x       y       z     vdW  Elec       q    Type
                         _______ _______ _______ _____ _____    ______ ____

>  <TORSDO>
F 7

$$$$
=
 OpenBabel10272415173D

 34 37  0  0  1  0  0  0  0  0999 V2000
  183.8140  177.8570  141.4970 O   0  0  0  0  0  0  0  0  0  0  0  0
  180.9460  178.9650  139.6020 C   0  0  0  0  0  2  0  0  0  0  0  0
  181.2870  177.5890  139.0570 C   0  0  1  0  0  3  0  0  0  0  0  0
  183.1180  176.0750  139.6520 O   0  0  0  0  0  1  0  0  0  0  0  0
  182.7820  177.3880  139.3050 C   0  0  2  0  0  3  0  0  0  0  0  0
  182.0080  179.3140  140.6330 C   0  0  0  0  0  2  0  0  0  0  0  0
  183.2370  178.4400  140.3320 C   0  0  1  0  0  0  0  0  0  0  0  0
  180.0060  175.4280  138.9310 O   0  0  0  0  0  0  0  0  0  0  0  0
  180.4030  176.5400  139.6640 C   0  0  0  0  0  0  0  0  0  0  0  0
  180.0210  176.6700  140.8550 O   0  0  0  0  0  1  0  0  0  0  0  0
  184.3300  179.3260  139.7100 C   0  0  0  0  0  2  0  0  0  0  0  0
  186.6820  178.4270  139.6790 C   0  0  0  0  0  3  0  0  0  0  0  0
  187.5240  177.1960  137.7710 C   0  0  0  0  0  3  0  0  0  0  0  0
  187.7190  177.7330  139.0470 C   0  0  0  0  0  3  0  0  0  0  0  0
  185.2550  178.0480  137.7590 C   0  0  0  0  0  3  0  0  0  0  0  0
  185.4490  178.5880  139.0350 C   0  0  0  0  0  0  0  0  0  0  0  0
  186.2930  177.3530  137.1270 C   0  0  0  0  0  3  0  0  0  0  0  0
  184.0280  178.8130  142.5110 C   0  0  2  0  0  3  0  0  0  0  0  0
  187.1970  177.2200  143.1680 C   0  0  0  0  0  2  0  0  0  0  0  0
  185.5260  178.0340  145.6160 C   0  0  0  0  0  2  0  0  0  0  0  0
  189.6010  177.0860  146.0720 N   0  0  0  0  0  0  0  0  0  0  0  0
  191.0150  177.1670  146.2850 C   0  0  0  0  0  0  0  0  0  0  0  0
  189.0670  176.8600  144.7350 C   0  0  0  0  0  2  0  0  0  0  0  0
  191.8090  177.1510  145.3060 O   0  0  0  0  0  0  0  0  0  0  0  0
  187.7470  177.6090  144.5540 C   0  0  2  0  0  3  0  0  0  0  0  0
  191.5260  177.2610  147.5760 O   0  0  0  0  0  1  0  0  0  0  0  0
  187.4280  177.7460  146.9280 C   0  0  0  0  0  2  0  0  0  0  0  0
  186.8140  177.3120  145.6700 N   0  0  1  0  0  0  0  0  0  0  0  0
  188.6970  176.9540  147.2080 C   0  0  0  0  0  2  0  0  0  0  0  0
  185.4470  179.1620  144.5770 C   0  0  0  0  0  2  0  0  0  0  0  0
  185.7970  177.2600  143.0890 O   0  0  0  0  0  0  0  0  0  0  0  0
  185.4110  178.6140  143.1410 C   0  0  1  0  0  3  0  0  0  0  0  0
  182.8940  178.7730  143.5390 C   0  0  0  0  0  2  0  0  0  0  0  0
  182.3300  180.0380  143.7160 O   0  0  0  0  0  1  0  0  0  0  0  0
  1 18  1  0  0  0  0
  2  6  1  0  0  0  0
  3  5  1  0  0  0  0
  3  2  1  0  0  0  0
  3  9  1  1  0  0  0
  5  4  1  1  0  0  0
  5  7  1  0  0  0  0
  7 11  1  6  0  0  0
  7  6  1  0  0  0  0
  7  1  1  0  0  0  0
  8  9  2  0  0  0  0
  9 10  1  0  0  0  0
 13 14  2  0  0  0  0
 14 12  1  0  0  0  0
 15 16  1  0  0  0  0
 16 12  2  0  0  0  0
 16 11  1  0  0  0  0
 17 15  2  0  0  0  0
 17 13  1  0  0  0  0
 18 33  1  1  0  0  0
 21 22  1  0  0  0  0
 21 29  1  0  0  0  0
 22 26  1  0  0  0  0
 23 21  1  0  0  0  0
 24 22  2  0  0  0  0
 25 19  1  6  0  0  0
 25 23  1  0  0  0  0
 25 28  1  0  0  0  0
 27 29  1  0  0  0  0
 28 20  1  6  0  0  0
 28 27  1  0  0  0  0
 30 20  1  0  0  0  0
 31 32  1  0  0  0  0
 31 19  1  0  0  0  0
 32 18  1  1  0  0  0
 32 30  1  0  0  0  0
 33 34  1  0  0  0  0
M  END
>  <MODEL>
9

>  <REMARK>
 VINA RESULT:      -6.0      4.764      7.256
  Name = 
  7 active torsions:
  status: ('A' for Active; 'I' for Inactive)
    1  A    between atoms: C_1  and  C_20
    2  A    between atoms: C_1  and  C_34
    3  A    between atoms: O_5  and  C_18
    4  A    between atoms: O_5  and  C_34
    5  A    between atoms: C_8  and  C_18
    6  A    between atoms: C_13  and  C_23
    7  A    between atoms: C_18  and  C_33
                            x       y       z     vdW  Elec       q    Type
                         _______ _______ _______ _____ _____    ______ ____

>  <TORSDO>
F 7

$$$$
