=
 OpenBabel10272400473D

 25 28  0  0  1  0  0  0  0  0999 V2000
  186.6520  178.2690  142.6250 C   0  0  0  0  0  0  0  0  0  0  0  0
  187.9390  177.8960  142.2270 C   0  0  0  0  0  0  0  0  0  0  0  0
  186.0920  178.7830  140.3550 N   0  0  0  0  0  0  0  0  0  0  0  0
  186.0870  178.2670  143.9100 C   0  0  0  0  0  0  0  0  0  0  0  0
  184.6290  178.4030  146.2870 C   0  0  0  0  0  3  0  0  0  0  0  0
  187.3210  178.4300  139.9630 N   0  0  0  0  0  0  0  0  0  0  0  0
  184.7620  178.7060  143.9110 C   0  0  0  0  0  0  0  0  0  0  0  0
  184.0150  178.7830  145.0840 C   0  0  0  0  0  3  0  0  0  0  0  0
  189.5460  177.6150  140.4490 C   0  0  0  0  0  0  0  0  0  0  0  0
  189.9540  177.6830  139.0160 C   0  0  0  0  0  1  0  0  0  0  0  0
  188.8690  177.4520  143.1110 N   0  0  0  0  0  0  0  0  0  0  0  0
  185.9640  177.9570  146.2980 C   0  0  0  0  0  3  0  0  0  0  0  0
  185.7550  178.7090  141.6650 C   0  0  0  0  0  0  0  0  0  0  0  0
  184.2640  179.1010  142.3470 S   0  0  0  0  0  0  0  0  0  0  0  0
  190.4400  177.1790  141.3740 N   0  0  0  0  0  0  0  0  0  0  0  0
  186.7030  177.8870  145.1070 C   0  0  0  0  0  3  0  0  0  0  0  0
  190.1100  177.0930  142.6920 C   0  0  0  0  0  0  0  0  0  0  0  0
  188.2590  177.9880  140.8560 C   0  0  0  0  0  0  0  0  0  0  0  0
  191.3120  176.5040  143.8750 S   0  0  0  0  0  0  0  0  0  0  0  0
  190.6040  177.5270  145.2110 C   0  0  0  0  0  2  0  0  0  0  0  0
  190.3880  176.7380  146.5010 C   0  0  2  0  0  3  0  0  0  0  0  0
  189.4150  177.4540  147.4290 C   0  0  0  0  0  1  0  0  0  0  0  0
  191.6870  176.3790  147.1690 C   0  0  0  0  0  0  0  0  0  0  0  0
  192.3740  175.2380  146.7660 O   0  0  0  0  0  0  0  0  0  0  0  0
  192.1440  177.0740  148.1190 O   0  0  0  0  0  1  0  0  0  0  0  0
  1  4  1  0  0  0  0
  2  1  1  0  0  0  0
  2 11  1  0  0  0  0
  3 13  1  0  0  0  0
  4  7  2  0  0  0  0
  4 16  1  0  0  0  0
  5 12  1  0  0  0  0
  6  3  2  0  0  0  0
  6 18  1  0  0  0  0
  7  8  1  0  0  0  0
  8  5  2  0  0  0  0
  9 18  1  0  0  0  0
  9 15  2  0  0  0  0
 10  9  1  0  0  0  0
 13 14  1  0  0  0  0
 13  1  2  0  0  0  0
 14  7  1  0  0  0  0
 15 17  1  0  0  0  0
 16 12  2  0  0  0  0
 17 11  2  0  0  0  0
 17 19  1  0  0  0  0
 18  2  2  0  0  0  0
 19 20  1  0  0  0  0
 20 21  1  0  0  0  0
 21 23  1  0  0  0  0
 21 22  1  1  0  0  0
 23 25  1  0  0  0  0
 24 23  2  0  0  0  0
M  END
>  <MODEL>
1

>  <REMARK>
 VINA RESULT:      -9.7      0.000      0.000
  Name = 
  4 active torsions:
  status: ('A' for Active; 'I' for Inactive)
    1  A    between atoms: C_2  and  C_21
    2  A    between atoms: S_6  and  C_15
    3  A    between atoms: S_6  and  C_23
    4  A    between atoms: C_15  and  C_21
                            x       y       z     vdW  Elec       q    Type
                         _______ _______ _______ _____ _____    ______ ____

>  <TORSDO>
F 4

$$$$
=
 OpenBabel10272400473D

 25 28  0  0  1  0  0  0  0  0999 V2000
  187.2630  177.8290  145.5860 C   0  0  0  0  0  0  0  0  0  0  0  0
  188.5760  177.4220  145.3310 C   0  0  0  0  0  0  0  0  0  0  0  0
  187.7010  177.7820  147.9400 N   0  0  0  0  0  0  0  0  0  0  0  0
  186.2320  178.1130  144.6780 C   0  0  0  0  0  0  0  0  0  0  0  0
  183.9540  178.7590  143.1980 C   0  0  0  0  0  3  0  0  0  0  0  0
  188.9580  177.3910  147.7070 N   0  0  0  0  0  0  0  0  0  0  0  0
  185.0510  178.4970  145.3150 C   0  0  0  0  0  0  0  0  0  0  0  0
  183.9020  178.8240  144.5990 C   0  0  0  0  0  3  0  0  0  0  0  0
  190.7430  176.7960  146.1870 C   0  0  0  0  0  0  0  0  0  0  0  0
  191.7000  176.5490  147.3040 C   0  0  0  0  0  1  0  0  0  0  0  0
  189.0440  177.2400  144.0690 N   0  0  0  0  0  0  0  0  0  0  0  0
  185.1400  178.3740  142.5440 C   0  0  0  0  0  3  0  0  0  0  0  0
  186.8580  177.9970  146.9000 C   0  0  0  0  0  0  0  0  0  0  0  0
  185.2510  178.4950  146.9920 S   0  0  0  0  0  0  0  0  0  0  0  0
  191.1620  176.6270  144.9050 N   0  0  0  0  0  0  0  0  0  0  0  0
  186.2880  178.0470  143.2820 C   0  0  0  0  0  3  0  0  0  0  0  0
  190.3270  176.8480  143.8530 C   0  0  0  0  0  0  0  0  0  0  0  0
  189.4270  177.2020  146.4350 C   0  0  0  0  0  0  0  0  0  0  0  0
  190.9190  176.6250  142.1830 S   0  0  0  0  0  0  0  0  0  0  0  0
  189.5460  177.6070  141.4890 C   0  0  0  0  0  2  0  0  0  0  0  0
  189.2660  177.2690  140.0250 C   0  0  2  0  0  3  0  0  0  0  0  0
  190.5440  176.8720  139.2970 C   0  0  0  0  0  1  0  0  0  0  0  0
  188.5020  178.3610  139.3280 C   0  0  0  0  0  0  0  0  0  0  0  0
  187.1380  178.5010  139.5620 O   0  0  0  0  0  1  0  0  0  0  0  0
  189.0710  179.1270  138.5010 O   0  0  0  0  0  0  0  0  0  0  0  0
  1 13  1  0  0  0  0
  2  1  2  0  0  0  0
  2 18  1  0  0  0  0
  4  7  1  0  0  0  0
  4  1  1  0  0  0  0
  5  8  1  0  0  0  0
  6  3  1  0  0  0  0
  7 14  1  0  0  0  0
  8  7  2  0  0  0  0
  9 18  1  0  0  0  0
  9 10  1  0  0  0  0
 11  2  1  0  0  0  0
 12  5  2  0  0  0  0
 12 16  1  0  0  0  0
 13 14  1  0  0  0  0
 13  3  2  0  0  0  0
 15  9  2  0  0  0  0
 16  4  2  0  0  0  0
 17 11  2  0  0  0  0
 17 15  1  0  0  0  0
 18  6  2  0  0  0  0
 19 17  1  0  0  0  0
 20 19  1  0  0  0  0
 21 22  1  6  0  0  0
 21 20  1  0  0  0  0
 23 24  1  0  0  0  0
 23 21  1  0  0  0  0
 25 23  2  0  0  0  0
M  END
>  <MODEL>
2

>  <REMARK>
 VINA RESULT:      -9.7      3.407      5.607
  Name = 
  4 active torsions:
  status: ('A' for Active; 'I' for Inactive)
    1  A    between atoms: C_2  and  C_21
    2  A    between atoms: S_6  and  C_15
    3  A    between atoms: S_6  and  C_23
    4  A    between atoms: C_15  and  C_21
                            x       y       z     vdW  Elec       q    Type
                         _______ _______ _______ _____ _____    ______ ____

>  <TORSDO>
F 4

$$$$
=
 OpenBabel10272400473D

 25 28  0  0  1  0  0  0  0  0999 V2000
  189.4660  177.4970  144.1960 C   0  0  0  0  0  0  0  0  0  0  0  0
  188.9270  177.7520  142.9320 C   0  0  0  0  0  0  0  0  0  0  0  0
  191.5570  176.9060  143.1930 N   0  0  0  0  0  0  0  0  0  0  0  0
  188.8580  177.6080  145.4560 C   0  0  0  0  0  0  0  0  0  0  0  0
  188.0040  177.7070  148.1130 C   0  0  0  0  0  3  0  0  0  0  0  0
  191.0510  177.1450  141.9780 N   0  0  0  0  0  0  0  0  0  0  0  0
  189.7230  177.2690  146.4980 C   0  0  0  0  0  0  0  0  0  0  0  0
  189.3200  177.3100  147.8310 C   0  0  0  0  0  3  0  0  0  0  0  0
  189.2280  177.8180  140.5390 C   0  0  0  0  0  0  0  0  0  0  0  0
  190.0500  177.6450  139.3070 C   0  0  0  0  0  1  0  0  0  0  0  0
  187.6470  178.1730  142.7630 N   0  0  0  0  0  0  0  0  0  0  0  0
  187.1230  178.0530  147.0710 C   0  0  0  0  0  3  0  0  0  0  0  0
  190.7810  177.0740  144.2910 C   0  0  0  0  0  0  0  0  0  0  0  0
  191.2380  176.8290  145.8950 S   0  0  0  0  0  0  0  0  0  0  0  0
  187.9390  178.2360  140.4240 N   0  0  0  0  0  0  0  0  0  0  0  0
  187.5450  178.0050  145.7340 C   0  0  0  0  0  3  0  0  0  0  0  0
  187.1530  178.4160  141.5210 C   0  0  0  0  0  0  0  0  0  0  0  0
  189.7590  177.5630  141.8080 C   0  0  0  0  0  0  0  0  0  0  0  0
  185.4690  178.9760  141.3270 S   0  0  0  0  0  0  0  0  0  0  0  0
  184.9660  178.2420  142.9210 C   0  0  0  0  0  2  0  0  0  0  0  0
  183.9440  179.1010  143.6650 C   0  0  2  0  0  3  0  0  0  0  0  0
  184.0970  178.9570  145.1740 C   0  0  0  0  0  1  0  0  0  0  0  0
  182.5400  178.8510  143.1860 C   0  0  0  0  0  0  0  0  0  0  0  0
  181.5240  178.6540  144.1160 O   0  0  0  0  0  1  0  0  0  0  0  0
  182.2770  178.7740  141.9540 O   0  0  0  0  0  0  0  0  0  0  0  0
  1 13  2  0  0  0  0
  1  4  1  0  0  0  0
  2  1  1  0  0  0  0
  3 13  1  0  0  0  0
  4 16  2  0  0  0  0
  4  7  1  0  0  0  0
  6  3  2  0  0  0  0
  7  8  2  0  0  0  0
  8  5  1  0  0  0  0
  9 18  1  0  0  0  0
 10  9  1  0  0  0  0
 11  2  1  0  0  0  0
 12  5  2  0  0  0  0
 13 14  1  0  0  0  0
 14  7  1  0  0  0  0
 15  9  2  0  0  0  0
 15 17  1  0  0  0  0
 16 12  1  0  0  0  0
 17 11  2  0  0  0  0
 18  6  1  0  0  0  0
 18  2  2  0  0  0  0
 19 17  1  0  0  0  0
 19 20  1  0  0  0  0
 20 21  1  0  0  0  0
 21 22  1  1  0  0  0
 23 21  1  0  0  0  0
 23 24  1  0  0  0  0
 25 23  2  0  0  0  0
M  END
>  <MODEL>
3

>  <REMARK>
 VINA RESULT:      -9.4      3.514      5.852
  Name = 
  4 active torsions:
  status: ('A' for Active; 'I' for Inactive)
    1  A    between atoms: C_2  and  C_21
    2  A    between atoms: S_6  and  C_15
    3  A    between atoms: S_6  and  C_23
    4  A    between atoms: C_15  and  C_21
                            x       y       z     vdW  Elec       q    Type
                         _______ _______ _______ _____ _____    ______ ____

>  <TORSDO>
F 4

$$$$
=
 OpenBabel10272400473D

 25 28  0  0  1  0  0  0  0  0999 V2000
  186.9520  178.0440  145.6180 C   0  0  0  0  0  0  0  0  0  0  0  0
  186.0950  178.3090  144.5460 C   0  0  0  0  0  0  0  0  0  0  0  0
  185.1640  178.4470  147.1570 N   0  0  0  0  0  0  0  0  0  0  0  0
  188.3100  177.6890  145.5980 C   0  0  0  0  0  0  0  0  0  0  0  0
  190.9840  176.9720  145.9630 C   0  0  0  0  0  3  0  0  0  0  0  0
  184.3350  178.7040  146.1390 N   0  0  0  0  0  0  0  0  0  0  0  0
  188.8300  177.5000  146.8790 C   0  0  0  0  0  0  0  0  0  0  0  0
  190.1610  177.1430  147.0870 C   0  0  0  0  0  3  0  0  0  0  0  0
  183.8900  178.9110  143.7710 C   0  0  0  0  0  0  0  0  0  0  0  0
  182.4620  179.2700  144.0040 C   0  0  0  0  0  1  0  0  0  0  0  0
  186.5100  178.2470  143.2550 N   0  0  0  0  0  0  0  0  0  0  0  0
  190.4700  177.1590  144.6650 C   0  0  0  0  0  3  0  0  0  0  0  0
  186.4560  178.1240  146.9080 C   0  0  0  0  0  0  0  0  0  0  0  0
  187.6420  177.7640  148.0500 S   0  0  0  0  0  0  0  0  0  0  0  0
  184.3570  178.8370  142.4960 N   0  0  0  0  0  0  0  0  0  0  0  0
  189.1270  177.5200  144.4750 C   0  0  0  0  0  3  0  0  0  0  0  0
  185.6510  178.5050  142.2350 C   0  0  0  0  0  0  0  0  0  0  0  0
  184.7560  178.6460  144.8380 C   0  0  0  0  0  0  0  0  0  0  0  0
  186.2220  178.4090  140.5450 S   0  0  0  0  0  0  0  0  0  0  0  0
  187.9730  178.4480  141.0590 C   0  0  0  0  0  2  0  0  0  0  0  0
  188.8460  177.5000  140.2380 C   0  0  2  0  0  3  0  0  0  0  0  0
  190.2110  177.3070  140.8860 C   0  0  0  0  0  1  0  0  0  0  0  0
  188.9290  177.9160  138.7950 C   0  0  0  0  0  0  0  0  0  0  0  0
  189.0490  179.2650  138.4760 O   0  0  0  0  0  1  0  0  0  0  0  0
  188.8500  177.0640  137.8670 O   0  0  0  0  0  0  0  0  0  0  0  0
  1 13  2  0  0  0  0
  2 18  2  0  0  0  0
  2  1  1  0  0  0  0
  4  1  1  0  0  0  0
  4  7  1  0  0  0  0
  5  8  1  0  0  0  0
  6  3  2  0  0  0  0
  7  8  2  0  0  0  0
  7 14  1  0  0  0  0
  9 10  1  0  0  0  0
  9 18  1  0  0  0  0
 11  2  1  0  0  0  0
 12  5  2  0  0  0  0
 13  3  1  0  0  0  0
 13 14  1  0  0  0  0
 15  9  2  0  0  0  0
 16 12  1  0  0  0  0
 16  4  2  0  0  0  0
 17 15  1  0  0  0  0
 17 11  2  0  0  0  0
 18  6  1  0  0  0  0
 19 20  1  0  0  0  0
 19 17  1  0  0  0  0
 21 22  1  1  0  0  0
 21 20  1  0  0  0  0
 23 21  1  0  0  0  0
 24 23  1  0  0  0  0
 25 23  2  0  0  0  0
M  END
>  <MODEL>
4

>  <REMARK>
 VINA RESULT:      -9.4      3.605      6.349
  Name = 
  4 active torsions:
  status: ('A' for Active; 'I' for Inactive)
    1  A    between atoms: C_2  and  C_21
    2  A    between atoms: S_6  and  C_15
    3  A    between atoms: S_6  and  C_23
    4  A    between atoms: C_15  and  C_21
                            x       y       z     vdW  Elec       q    Type
                         _______ _______ _______ _____ _____    ______ ____

>  <TORSDO>
F 4

$$$$
=
 OpenBabel10272400473D

 25 28  0  0  1  0  0  0  0  0999 V2000
  186.0500  178.4800  142.6330 C   0  0  0  0  0  0  0  0  0  0  0  0
  187.1520  178.1890  141.8230 C   0  0  0  0  0  0  0  0  0  0  0  0
  184.8030  179.1530  140.7040 N   0  0  0  0  0  0  0  0  0  0  0  0
  185.9160  178.3540  144.0240 C   0  0  0  0  0  0  0  0  0  0  0  0
  185.2730  178.2430  146.7390 C   0  0  0  0  0  3  0  0  0  0  0  0
  185.8510  178.8790  139.9200 N   0  0  0  0  0  0  0  0  0  0  0  0
  184.6530  178.7410  144.4760 C   0  0  0  0  0  0  0  0  0  0  0  0
  184.3090  178.6960  145.8250 C   0  0  0  0  0  3  0  0  0  0  0  0
  188.1250  178.1120  139.6170 C   0  0  0  0  0  0  0  0  0  0  0  0
  188.0640  178.3100  138.1400 C   0  0  0  0  0  1  0  0  0  0  0  0
  188.3170  177.7100  142.3320 N   0  0  0  0  0  0  0  0  0  0  0  0
  186.5490  177.8480  146.2960 C   0  0  0  0  0  3  0  0  0  0  0  0
  184.8930  178.9610  142.0420 C   0  0  0  0  0  0  0  0  0  0  0  0
  183.6870  179.2410  143.1840 S   0  0  0  0  0  0  0  0  0  0  0  0
  189.2690  177.6370  140.1760 N   0  0  0  0  0  0  0  0  0  0  0  0
  186.8790  177.9030  144.9330 C   0  0  0  0  0  3  0  0  0  0  0  0
  189.3690  177.4330  141.5180 C   0  0  0  0  0  0  0  0  0  0  0  0
  187.0270  178.4030  140.4340 C   0  0  0  0  0  0  0  0  0  0  0  0
  190.8860  176.7970  142.2130 S   0  0  0  0  0  0  0  0  0  0  0  0
  190.1120  176.5310  143.8440 C   0  0  0  0  0  2  0  0  0  0  0  0
  190.5300  177.5850  144.8690 C   0  0  2  0  0  3  0  0  0  0  0  0
  191.6150  178.4970  144.3100 C   0  0  0  0  0  1  0  0  0  0  0  0
  190.8970  176.9730  146.1930 C   0  0  0  0  0  0  0  0  0  0  0  0
  189.9280  176.8540  147.1850 O   0  0  0  0  0  1  0  0  0  0  0  0
  192.0790  176.6040  146.4340 O   0  0  0  0  0  0  0  0  0  0  0  0
  1  4  1  0  0  0  0
  2 11  1  0  0  0  0
  2  1  1  0  0  0  0
  3 13  1  0  0  0  0
  4  7  2  0  0  0  0
  4 16  1  0  0  0  0
  6 18  1  0  0  0  0
  6  3  2  0  0  0  0
  7  8  1  0  0  0  0
  8  5  2  0  0  0  0
  9 15  2  0  0  0  0
  9 18  1  0  0  0  0
 10  9  1  0  0  0  0
 12  5  1  0  0  0  0
 13  1  2  0  0  0  0
 13 14  1  0  0  0  0
 14  7  1  0  0  0  0
 15 17  1  0  0  0  0
 16 12  2  0  0  0  0
 17 19  1  0  0  0  0
 17 11  2  0  0  0  0
 18  2  2  0  0  0  0
 19 20  1  0  0  0  0
 20 21  1  0  0  0  0
 21 22  1  6  0  0  0
 21 23  1  0  0  0  0
 23 25  2  0  0  0  0
 23 24  1  0  0  0  0
M  END
>  <MODEL>
5

>  <REMARK>
 VINA RESULT:      -9.3      1.209      1.602
  Name = 
  4 active torsions:
  status: ('A' for Active; 'I' for Inactive)
    1  A    between atoms: C_2  and  C_21
    2  A    between atoms: S_6  and  C_15
    3  A    between atoms: S_6  and  C_23
    4  A    between atoms: C_15  and  C_21
                            x       y       z     vdW  Elec       q    Type
                         _______ _______ _______ _____ _____    ______ ____

>  <TORSDO>
F 4

$$$$
=
 OpenBabel10272400473D

 25 28  0  0  1  0  0  0  0  0999 V2000
  186.1580  178.3060  144.4050 C   0  0  0  0  0  0  0  0  0  0  0  0
  186.2400  178.3850  143.0120 C   0  0  0  0  0  0  0  0  0  0  0  0
  183.8390  178.8930  144.3080 N   0  0  0  0  0  0  0  0  0  0  0  0
  187.1590  177.9840  145.3340 C   0  0  0  0  0  0  0  0  0  0  0  0
  188.8660  177.3970  147.4650 C   0  0  0  0  0  3  0  0  0  0  0  0
  183.9070  178.9720  142.9750 N   0  0  0  0  0  0  0  0  0  0  0  0
  186.6930  178.0040  146.6500 C   0  0  0  0  0  0  0  0  0  0  0  0
  187.5250  177.7150  147.7290 C   0  0  0  0  0  3  0  0  0  0  0  0
  185.1450  178.8080  140.9040 C   0  0  0  0  0  0  0  0  0  0  0  0
  183.9510  179.1630  140.0850 C   0  0  0  0  0  1  0  0  0  0  0  0
  187.3940  178.1380  142.3410 N   0  0  0  0  0  0  0  0  0  0  0  0
  189.3480  177.3730  146.1420 C   0  0  0  0  0  3  0  0  0  0  0  0
  184.9450  178.5680  145.0210 C   0  0  0  0  0  0  0  0  0  0  0  0
  185.0550  178.4130  146.6950 S   0  0  0  0  0  0  0  0  0  0  0  0
  186.3260  178.5530  140.2800 N   0  0  0  0  0  0  0  0  0  0  0  0
  188.4960  177.6680  145.0670 C   0  0  0  0  0  3  0  0  0  0  0  0
  187.4410  178.2180  140.9850 C   0  0  0  0  0  0  0  0  0  0  0  0
  185.0720  178.7290  142.2990 C   0  0  0  0  0  0  0  0  0  0  0  0
  188.9700  177.8810  140.1270 S   0  0  0  0  0  0  0  0  0  0  0  0
  189.7190  177.1250  141.6100 C   0  0  0  0  0  2  0  0  0  0  0  0
  191.1200  177.6640  141.8970 C   0  0  2  0  0  3  0  0  0  0  0  0
  192.0930  177.2880  140.7860 C   0  0  0  0  0  1  0  0  0  0  0  0
  191.6070  177.2740  143.2660 C   0  0  0  0  0  0  0  0  0  0  0  0
  191.6010  175.9340  143.6400 O   0  0  0  0  0  0  0  0  0  0  0  0
  191.9820  178.1480  144.0960 O   0  0  0  0  0  1  0  0  0  0  0  0
  1 13  2  0  0  0  0
  1  4  1  0  0  0  0
  2  1  1  0  0  0  0
  3 13  1  0  0  0  0
  4  7  1  0  0  0  0
  5  8  1  0  0  0  0
  6  3  2  0  0  0  0
  7 14  1  0  0  0  0
  7  8  2  0  0  0  0
  9 18  1  0  0  0  0
 10  9  1  0  0  0  0
 11  2  1  0  0  0  0
 12  5  2  0  0  0  0
 13 14  1  0  0  0  0
 15  9  2  0  0  0  0
 15 17  1  0  0  0  0
 16  4  2  0  0  0  0
 16 12  1  0  0  0  0
 17 11  2  0  0  0  0
 18  6  1  0  0  0  0
 18  2  2  0  0  0  0
 19 17  1  0  0  0  0
 19 20  1  0  0  0  0
 20 21  1  0  0  0  0
 21 22  1  6  0  0  0
 21 23  1  0  0  0  0
 23 24  2  0  0  0  0
 23 25  1  0  0  0  0
M  END
>  <MODEL>
6

>  <REMARK>
 VINA RESULT:      -9.0      2.335      4.064
  Name = 
  4 active torsions:
  status: ('A' for Active; 'I' for Inactive)
    1  A    between atoms: C_2  and  C_21
    2  A    between atoms: S_6  and  C_15
    3  A    between atoms: S_6  and  C_23
    4  A    between atoms: C_15  and  C_21
                            x       y       z     vdW  Elec       q    Type
                         _______ _______ _______ _____ _____    ______ ____

>  <TORSDO>
F 4

$$$$
=
 OpenBabel10272400473D

 25 28  0  0  1  0  0  0  0  0999 V2000
  186.4070  178.3980  141.3650 C   0  0  0  0  0  0  0  0  0  0  0  0
  187.6940  178.1290  140.8910 C   0  0  0  0  0  0  0  0  0  0  0  0
  185.6600  178.8020  139.1270 N   0  0  0  0  0  0  0  0  0  0  0  0
  185.9280  178.3810  142.6840 C   0  0  0  0  0  0  0  0  0  0  0  0
  184.6180  178.4500  145.1490 C   0  0  0  0  0  3  0  0  0  0  0  0
  186.8880  178.5490  138.6620 N   0  0  0  0  0  0  0  0  0  0  0  0
  184.5720  178.7020  142.7640 C   0  0  0  0  0  0  0  0  0  0  0  0
  183.8970  178.7440  143.9810 C   0  0  0  0  0  3  0  0  0  0  0  0
  189.2030  177.9440  139.0170 C   0  0  0  0  0  0  0  0  0  0  0  0
  189.5110  178.0100  137.5590 C   0  0  0  0  0  1  0  0  0  0  0  0
  188.7150  177.7910  141.7210 N   0  0  0  0  0  0  0  0  0  0  0  0
  185.9860  178.1230  145.0810 C   0  0  0  0  0  3  0  0  0  0  0  0
  185.4150  178.7330  140.4580 C   0  0  0  0  0  0  0  0  0  0  0  0
  183.9420  179.0110  141.2280 S   0  0  0  0  0  0  0  0  0  0  0  0
  190.1900  177.6110  139.8900 N   0  0  0  0  0  0  0  0  0  0  0  0
  186.6500  178.0870  143.8460 C   0  0  0  0  0  3  0  0  0  0  0  0
  189.9540  177.5310  141.2280 C   0  0  0  0  0  0  0  0  0  0  0  0
  187.9170  178.2140  139.5000 C   0  0  0  0  0  0  0  0  0  0  0  0
  191.2760  177.0800  142.3410 S   0  0  0  0  0  0  0  0  0  0  0  0
  190.1080  176.7240  143.6980 C   0  0  0  0  0  2  0  0  0  0  0  0
  190.2120  177.7340  144.8390 C   0  0  2  0  0  3  0  0  0  0  0  0
  191.0580  178.9360  144.4370 C   0  0  0  0  0  1  0  0  0  0  0  0
  190.6660  177.0940  146.1230 C   0  0  0  0  0  0  0  0  0  0  0  0
  189.7200  176.6950  147.0620 O   0  0  0  0  0  1  0  0  0  0  0  0
  191.8930  176.9520  146.3800 O   0  0  0  0  0  0  0  0  0  0  0  0
  1  4  1  0  0  0  0
  2  1  1  0  0  0  0
  2 11  1  0  0  0  0
  3 13  1  0  0  0  0
  4  7  2  0  0  0  0
  4 16  1  0  0  0  0
  6  3  2  0  0  0  0
  6 18  1  0  0  0  0
  7  8  1  0  0  0  0
  8  5  2  0  0  0  0
  9 18  1  0  0  0  0
  9 15  2  0  0  0  0
 10  9  1  0  0  0  0
 12  5  1  0  0  0  0
 13 14  1  0  0  0  0
 13  1  2  0  0  0  0
 14  7  1  0  0  0  0
 15 17  1  0  0  0  0
 16 12  2  0  0  0  0
 17 11  2  0  0  0  0
 17 19  1  0  0  0  0
 18  2  2  0  0  0  0
 19 20  1  0  0  0  0
 20 21  1  0  0  0  0
 21 22  1  6  0  0  0
 21 23  1  0  0  0  0
 23 25  2  0  0  0  0
 23 24  1  0  0  0  0
M  END
>  <MODEL>
7

>  <REMARK>
 VINA RESULT:      -8.8      1.256      1.682
  Name = 
  4 active torsions:
  status: ('A' for Active; 'I' for Inactive)
    1  A    between atoms: C_2  and  C_21
    2  A    between atoms: S_6  and  C_15
    3  A    between atoms: S_6  and  C_23
    4  A    between atoms: C_15  and  C_21
                            x       y       z     vdW  Elec       q    Type
                         _______ _______ _______ _____ _____    ______ ____

>  <TORSDO>
F 4

$$$$
=
 OpenBabel10272400473D

 25 28  0  0  1  0  0  0  0  0999 V2000
  186.8640  177.9700  144.6280 C   0  0  0  0  0  0  0  0  0  0  0  0
  187.9830  177.6410  143.8580 C   0  0  0  0  0  0  0  0  0  0  0  0
  188.1430  177.6660  146.6280 N   0  0  0  0  0  0  0  0  0  0  0  0
  185.5720  178.3220  144.2060 C   0  0  0  0  0  0  0  0  0  0  0  0
  182.9150  179.0550  143.7620 C   0  0  0  0  0  3  0  0  0  0  0  0
  189.2190  177.3480  145.9020 N   0  0  0  0  0  0  0  0  0  0  0  0
  184.7160  178.5880  145.2760 C   0  0  0  0  0  0  0  0  0  0  0  0
  183.3870  178.9550  145.0800 C   0  0  0  0  0  3  0  0  0  0  0  0
  190.3070  176.9950  143.7700 C   0  0  0  0  0  0  0  0  0  0  0  0
  191.6070  176.6540  144.4160 C   0  0  0  0  0  1  0  0  0  0  0  0
  187.9470  177.6230  142.5000 N   0  0  0  0  0  0  0  0  0  0  0  0
  183.7690  178.7890  142.6750 C   0  0  0  0  0  3  0  0  0  0  0  0
  186.9770  177.9710  146.0080 C   0  0  0  0  0  0  0  0  0  0  0  0
  185.5240  178.3990  146.7470 S   0  0  0  0  0  0  0  0  0  0  0  0
  190.2170  176.9900  142.4140 N   0  0  0  0  0  0  0  0  0  0  0  0
  185.1050  178.4190  142.8910 C   0  0  0  0  0  3  0  0  0  0  0  0
  189.0540  177.3030  141.7800 C   0  0  0  0  0  0  0  0  0  0  0  0
  189.1810  177.3240  144.5340 C   0  0  0  0  0  0  0  0  0  0  0  0
  188.9820  177.2940  139.9960 S   0  0  0  0  0  0  0  0  0  0  0  0
  190.7600  176.9050  139.8540 C   0  0  0  0  0  2  0  0  0  0  0  0
  191.2530  176.9370  138.4090 C   0  0  2  0  0  3  0  0  0  0  0  0
  190.0880  176.8870  137.4280 C   0  0  0  0  0  1  0  0  0  0  0  0
  192.2950  175.8860  138.1430 C   0  0  0  0  0  0  0  0  0  0  0  0
  193.6140  176.2700  137.9210 O   0  0  0  0  0  0  0  0  0  0  0  0
  191.9860  174.6650  138.0750 O   0  0  0  0  0  1  0  0  0  0  0  0
  1 13  2  0  0  0  0
  2 18  2  0  0  0  0
  2  1  1  0  0  0  0
  4  1  1  0  0  0  0
  4  7  1  0  0  0  0
  5  8  1  0  0  0  0
  6  3  2  0  0  0  0
  7 14  1  0  0  0  0
  8  7  2  0  0  0  0
  9 10  1  0  0  0  0
  9 18  1  0  0  0  0
 11  2  1  0  0  0  0
 12 16  1  0  0  0  0
 12  5  2  0  0  0  0
 13  3  1  0  0  0  0
 13 14  1  0  0  0  0
 15  9  2  0  0  0  0
 16  4  2  0  0  0  0
 17 15  1  0  0  0  0
 17 11  2  0  0  0  0
 18  6  1  0  0  0  0
 19 17  1  0  0  0  0
 20 19  1  0  0  0  0
 21 22  1  6  0  0  0
 21 20  1  0  0  0  0
 23 21  1  0  0  0  0
 24 23  2  0  0  0  0
 25 23  1  0  0  0  0
M  END
>  <MODEL>
8

>  <REMARK>
 VINA RESULT:      -8.5      3.383      5.381
  Name = 
  4 active torsions:
  status: ('A' for Active; 'I' for Inactive)
    1  A    between atoms: C_2  and  C_21
    2  A    between atoms: S_6  and  C_15
    3  A    between atoms: S_6  and  C_23
    4  A    between atoms: C_15  and  C_21
                            x       y       z     vdW  Elec       q    Type
                         _______ _______ _______ _____ _____    ______ ____

>  <TORSDO>
F 4

$$$$
=
 OpenBabel10272400473D

 25 28  0  0  1  0  0  0  0  0999 V2000
  186.9890  177.7940  144.2360 C   0  0  0  0  0  0  0  0  0  0  0  0
  188.2310  177.4260  143.7080 C   0  0  0  0  0  0  0  0  0  0  0  0
  187.8560  177.5610  146.4550 N   0  0  0  0  0  0  0  0  0  0  0  0
  185.8080  178.1390  143.5610 C   0  0  0  0  0  0  0  0  0  0  0  0
  183.2970  178.8740  142.5860 C   0  0  0  0  0  3  0  0  0  0  0  0
  189.0470  177.2060  145.9620 N   0  0  0  0  0  0  0  0  0  0  0  0
  184.7670  178.4550  144.4350 C   0  0  0  0  0  0  0  0  0  0  0  0
  183.5050  178.8240  143.9730 C   0  0  0  0  0  3  0  0  0  0  0  0
  190.5180  176.7600  144.0940 C   0  0  0  0  0  0  0  0  0  0  0  0
  191.6640  176.4350  144.9900 C   0  0  0  0  0  1  0  0  0  0  0  0
  188.4560  177.3540  142.3710 N   0  0  0  0  0  0  0  0  0  0  0  0
  184.3390  178.5590  141.6940 C   0  0  0  0  0  3  0  0  0  0  0  0
  186.8350  177.8500  145.6110 C   0  0  0  0  0  0  0  0  0  0  0  0
  185.2750  178.3180  146.0400 S   0  0  0  0  0  0  0  0  0  0  0  0
  190.6900  176.7020  142.7470 N   0  0  0  0  0  0  0  0  0  0  0  0
  185.6030  178.1880  142.1780 C   0  0  0  0  0  3  0  0  0  0  0  0
  189.6750  176.9970  141.8900 C   0  0  0  0  0  0  0  0  0  0  0  0
  189.2710  177.1280  144.6140 C   0  0  0  0  0  0  0  0  0  0  0  0
  189.9460  176.9180  140.1260 S   0  0  0  0  0  0  0  0  0  0  0  0
  188.4400  177.8900  139.7790 C   0  0  0  0  0  2  0  0  0  0  0  0
  187.9710  177.7460  138.3320 C   0  0  2  0  0  3  0  0  0  0  0  0
  188.0010  176.2890  137.8850 C   0  0  0  0  0  1  0  0  0  0  0  0
  188.7160  178.6650  137.4020 C   0  0  0  0  0  0  0  0  0  0  0  0
  189.0900  178.2090  136.1420 O   0  0  0  0  0  0  0  0  0  0  0  0
  189.0430  179.8290  137.7630 O   0  0  0  0  0  1  0  0  0  0  0  0
  1 13  1  0  0  0  0
  2  1  2  0  0  0  0
  2 18  1  0  0  0  0
  4  1  1  0  0  0  0
  4  7  1  0  0  0  0
  5  8  1  0  0  0  0
  6  3  1  0  0  0  0
  7 14  1  0  0  0  0
  8  7  2  0  0  0  0
  9 18  1  0  0  0  0
  9 10  1  0  0  0  0
 11  2  1  0  0  0  0
 12 16  1  0  0  0  0
 12  5  2  0  0  0  0
 13 14  1  0  0  0  0
 13  3  2  0  0  0  0
 15  9  2  0  0  0  0
 16  4  2  0  0  0  0
 17 11  2  0  0  0  0
 17 15  1  0  0  0  0
 18  6  2  0  0  0  0
 19 17  1  0  0  0  0
 20 19  1  0  0  0  0
 21 22  1  6  0  0  0
 21 20  1  0  0  0  0
 23 25  1  0  0  0  0
 23 21  1  0  0  0  0
 24 23  2  0  0  0  0
M  END
>  <MODEL>
9

>  <REMARK>
 VINA RESULT:      -8.5      3.675      5.768
  Name = 
  4 active torsions:
  status: ('A' for Active; 'I' for Inactive)
    1  A    between atoms: C_2  and  C_21
    2  A    between atoms: S_6  and  C_15
    3  A    between atoms: S_6  and  C_23
    4  A    between atoms: C_15  and  C_21
                            x       y       z     vdW  Elec       q    Type
                         _______ _______ _______ _____ _____    ______ ____

>  <TORSDO>
F 4

$$$$
