=
 OpenBabel10272414243D

 43 47  0  0  1  0  0  0  0  0999 V2000
  190.6500  177.4230  139.7370 C   0  0  0  0  0  0  0  0  0  0  0  0
  188.3190  177.9640  138.2230 C   0  0  2  0  0  3  0  0  0  0  0  0
  192.9190  176.4860  138.4160 C   0  0  0  0  0  0  0  0  0  0  0  0
  191.6660  176.3940  137.7990 C   0  0  0  0  0  3  0  0  0  0  0  0
  189.1960  176.7930  137.7800 C   0  0  0  0  0  2  0  0  0  0  0  0
  190.5310  176.8790  138.4470 C   0  0  0  0  0  0  0  0  0  0  0  0
  191.8810  177.5070  140.3150 N   0  0  0  0  0  0  0  0  0  0  0  0
  189.4840  177.9470  140.4090 N   0  0  0  0  0  0  0  0  0  0  0  0
  188.1770  177.9730  139.7450 C   0  0  0  0  0  2  0  0  0  0  0  0
  193.0000  177.0500  139.6920 C   0  0  0  0  0  3  0  0  0  0  0  0
  186.9500  177.9340  137.5490 C   0  0  2  0  0  3  0  0  0  0  0  0
  187.0180  178.4750  136.2620 O   0  0  0  0  0  1  0  0  0  0  0  0
  185.9940  178.6830  138.3510 N   0  0  0  0  0  2  0  0  0  0  0  0
  184.5950  178.3970  138.3660 C   0  0  0  0  0  0  0  0  0  0  0  0
  184.1280  177.4390  137.6940 O   0  0  0  0  0  0  0  0  0  0  0  0
  183.6750  179.2590  139.1630 C   0  0  0  0  0  2  0  0  0  0  0  0
  183.1280  178.5010  140.3760 C   0  0  1  0  0  0  0  0  0  0  0  0
  180.6990  178.5520  138.9480 S   0  0  0  0  0  1  0  0  0  0  0  0
  182.1060  179.2810  141.1700 C   0  0  0  0  0  2  0  0  0  0  0  0
  181.6740  178.0390  140.4010 C   0  0  2  0  0  3  0  0  0  0  0  0
  184.0740  177.6750  141.2440 C   0  0  0  0  0  2  0  0  0  0  0  0
  184.9090  178.5380  142.1380 C   0  0  0  0  0  0  0  0  0  0  0  0
  185.4060  179.5680  141.7060 O   0  0  0  0  0  0  0  0  0  0  0  0
  185.1470  178.1120  143.5520 C   0  0  0  0  0  3  0  0  0  0  0  0
  184.8870  178.7380  145.9640 C   0  0  0  0  0  2  0  0  0  0  0  0
  186.8600  177.3830  145.2290 C   0  0  0  0  0  2  0  0  0  0  0  0
  186.3710  178.4620  146.1930 C   0  0  0  0  0  2  0  0  0  0  0  0
  186.6300  177.8210  143.7860 C   0  0  0  0  0  2  0  0  0  0  0  0
  184.6500  179.1820  144.5230 C   0  0  0  0  0  2  0  0  0  0  0  0
  189.5570  178.4470  141.7200 N   0  0  0  0  0  2  0  0  0  0  0  0
  190.7160  175.7210  144.0100 C   0  0  0  0  0  3  0  0  0  0  0  0
  191.4180  176.4620  144.9740 C   0  0  0  0  0  0  0  0  0  0  0  0
  190.8850  178.4990  143.7680 C   0  0  0  0  0  3  0  0  0  0  0  0
  190.1060  176.3670  142.9310 C   0  0  0  0  0  3  0  0  0  0  0  0
  190.1990  177.7600  142.8000 C   0  0  0  0  0  0  0  0  0  0  0  0
  191.4940  177.8530  144.8470 C   0  0  0  0  0  3  0  0  0  0  0  0
  192.0410  175.8460  146.0620 O   0  0  0  0  0  0  0  0  0  0  0  0
  191.7920  176.2290  147.4080 C   0  0  0  0  0  1  0  0  0  0  0  0
  194.0850  176.0000  137.8100 O   0  0  0  0  0  0  0  0  0  0  0  0
  194.4730  174.6520  137.7880 C   0  0  0  0  0  0  0  0  0  0  0  0
  193.9870  173.8960  136.9070 O   0  0  0  0  0  0  0  0  0  0  0  0
  195.3700  174.0650  138.7960 C   0  0  0  0  0  3  0  0  0  0  0  0
  196.0490  174.8030  139.6660 C   0  0  0  0  0  2  0  0  0  0  0  0
  1  7  1  0  0  0  0
  1  8  1  0  0  0  0
  2 11  1  6  0  0  0
  2  9  1  0  0  0  0
  3 10  1  0  0  0  0
  4  3  2  0  0  0  0
  4  6  1  0  0  0  0
  5  2  1  0  0  0  0
  5  6  1  0  0  0  0
  6  1  2  0  0  0  0
  8 30  1  0  0  0  0
  9  8  1  0  0  0  0
 10  7  2  0  0  0  0
 11 12  1  6  0  0  0
 11 13  1  0  0  0  0
 13 14  1  0  0  0  0
 14 16  1  0  0  0  0
 15 14  2  0  0  0  0
 17 16  1  6  0  0  0
 17 20  1  0  0  0  0
 17 19  1  0  0  0  0
 17 21  1  0  0  0  0
 20 18  1  6  0  0  0
 20 19  1  0  0  0  0
 21 22  1  0  0  0  0
 22 24  1  0  0  0  0
 23 22  2  0  0  0  0
 24 28  1  0  0  0  0
 24 29  1  0  0  0  0
 25 27  1  0  0  0  0
 26 27  1  0  0  0  0
 28 26  1  0  0  0  0
 29 25  1  0  0  0  0
 30 35  1  0  0  0  0
 31 32  1  0  0  0  0
 32 37  1  0  0  0  0
 33 36  1  0  0  0  0
 34 31  2  0  0  0  0
 35 34  1  0  0  0  0
 35 33  2  0  0  0  0
 36 32  2  0  0  0  0
 37 38  1  0  0  0  0
 39  3  1  0  0  0  0
 40 39  1  0  0  0  0
 40 42  1  0  0  0  0
 41 40  2  0  0  0  0
 42 43  2  0  0  0  0
M  END
>  <MODEL>
1

>  <REMARK>
 VINA RESULT:      -8.9      0.000      0.000
  Name = 
  13 active torsions:
  status: ('A' for Active; 'I' for Inactive)
    1  A    between atoms: N_1  and  N_34
    2  A    between atoms: N_1  and  C_35
    3  A    between atoms: C_2  and  N_6
    4  A    between atoms: C_2  and  C_13
    5  A    between atoms: C_3  and  C_4
    6  A    between atoms: C_3  and  C_12
    7  A    between atoms: C_4  and  C_22
    8  A    between atoms: C_5  and  C_18
    9  A    between atoms: C_5  and  O_23
   10  A    between atoms: C_11  and  C_14
   11  A    between atoms: C_14  and  C_22
   12  A    between atoms: C_16  and  O_23
   13  A    between atoms: C_19  and  O_25
                            x       y       z     vdW  Elec       q    Type
                         _______ _______ _______ _____ _____    ______ ____

>  <TORSDO>
F 13

$$$$
=
 OpenBabel10272414243D

 43 47  0  0  1  0  0  0  0  0999 V2000
  189.8780  176.8650  140.4170 C   0  0  0  0  0  0  0  0  0  0  0  0
  187.7320  177.5400  138.6960 C   0  0  2  0  0  3  0  0  0  0  0  0
  189.7870  177.7160  143.0700 C   0  0  0  0  0  0  0  0  0  0  0  0
  188.9770  178.3370  142.1110 C   0  0  0  0  0  3  0  0  0  0  0  0
  188.1280  178.5550  139.7680 C   0  0  0  0  0  2  0  0  0  0  0  0
  189.0040  177.9010  140.7870 C   0  0  0  0  0  0  0  0  0  0  0  0
  190.6520  176.2730  141.3690 N   0  0  0  0  0  0  0  0  0  0  0  0
  189.8990  176.3930  139.0520 N   0  0  0  0  0  0  0  0  0  0  0  0
  188.9810  176.9410  138.0490 C   0  0  0  0  0  2  0  0  0  0  0  0
  190.6290  176.6770  142.6680 C   0  0  0  0  0  3  0  0  0  0  0  0
  186.8160  178.1550  137.6420 C   0  0  2  0  0  3  0  0  0  0  0  0
  187.4950  179.1260  136.9000 O   0  0  0  0  0  1  0  0  0  0  0  0
  185.6550  178.7470  138.2890 N   0  0  0  0  0  2  0  0  0  0  0  0
  184.3270  178.2530  138.1120 C   0  0  0  0  0  0  0  0  0  0  0  0
  184.1080  177.2390  137.3970 O   0  0  0  0  0  0  0  0  0  0  0  0
  183.1840  178.9620  138.7570 C   0  0  0  0  0  2  0  0  0  0  0  0
  182.7800  178.2740  140.0630 C   0  0  1  0  0  0  0  0  0  0  0  0
  180.2460  178.0880  138.8420 S   0  0  0  0  0  1  0  0  0  0  0  0
  181.7800  179.0590  140.8800 C   0  0  0  0  0  2  0  0  0  0  0  0
  181.3610  177.7410  140.2420 C   0  0  2  0  0  3  0  0  0  0  0  0
  183.8370  177.5680  140.9080 C   0  0  0  0  0  2  0  0  0  0  0  0
  184.5350  178.5140  141.8340 C   0  0  0  0  0  0  0  0  0  0  0  0
  185.0800  179.5150  141.3920 O   0  0  0  0  0  0  0  0  0  0  0  0
  184.5790  178.2070  143.2980 C   0  0  0  0  0  3  0  0  0  0  0  0
  183.8500  178.9400  145.5800 C   0  0  0  0  0  2  0  0  0  0  0  0
  186.0580  177.7980  145.2790 C   0  0  0  0  0  2  0  0  0  0  0  0
  185.2950  178.8640  146.0630 C   0  0  0  0  0  2  0  0  0  0  0  0
  186.0250  178.1170  143.7880 C   0  0  0  0  0  2  0  0  0  0  0  0
  183.8090  179.2640  144.0890 C   0  0  0  0  0  2  0  0  0  0  0  0
  190.7980  175.3970  138.6350 N   0  0  0  0  0  2  0  0  0  0  0  0
  192.5800  175.0680  135.3580 C   0  0  0  0  0  3  0  0  0  0  0  0
  193.6880  175.9040  135.5720 C   0  0  0  0  0  0  0  0  0  0  0  0
  192.8650  176.3940  137.8010 C   0  0  0  0  0  3  0  0  0  0  0  0
  191.6200  174.9020  136.3600 C   0  0  0  0  0  3  0  0  0  0  0  0
  191.7530  175.5760  137.5830 C   0  0  0  0  0  0  0  0  0  0  0  0
  193.8250  176.5600  136.7990 C   0  0  0  0  0  3  0  0  0  0  0  0
  194.6640  176.0930  134.5900 O   0  0  0  0  0  0  0  0  0  0  0  0
  195.9330  176.6680  134.8680 C   0  0  0  0  0  1  0  0  0  0  0  0
  189.8040  178.1290  144.4090 O   0  0  0  0  0  0  0  0  0  0  0  0
  190.5540  177.5190  145.4250 C   0  0  0  0  0  0  0  0  0  0  0  0
  191.8090  177.5240  145.3370 O   0  0  0  0  0  0  0  0  0  0  0  0
  189.9340  176.8100  146.5560 C   0  0  0  0  0  3  0  0  0  0  0  0
  189.0230  177.3720  147.3410 C   0  0  0  0  0  2  0  0  0  0  0  0
  1  6  2  0  0  0  0
  1  7  1  0  0  0  0
  2 11  1  6  0  0  0
  2  5  1  0  0  0  0
  3 39  1  0  0  0  0
  4  3  2  0  0  0  0
  5  6  1  0  0  0  0
  6  4  1  0  0  0  0
  7 10  2  0  0  0  0
  8  1  1  0  0  0  0
  9  2  1  0  0  0  0
  9  8  1  0  0  0  0
 10  3  1  0  0  0  0
 11 12  1  1  0  0  0
 11 13  1  0  0  0  0
 14 13  1  0  0  0  0
 14 16  1  0  0  0  0
 15 14  2  0  0  0  0
 17 16  1  6  0  0  0
 17 20  1  0  0  0  0
 17 19  1  0  0  0  0
 17 21  1  0  0  0  0
 20 18  1  6  0  0  0
 20 19  1  0  0  0  0
 21 22  1  0  0  0  0
 22 24  1  0  0  0  0
 23 22  2  0  0  0  0
 24 28  1  0  0  0  0
 24 29  1  0  0  0  0
 25 27  1  0  0  0  0
 26 27  1  0  0  0  0
 28 26  1  0  0  0  0
 29 25  1  0  0  0  0
 30  8  1  0  0  0  0
 31 32  2  0  0  0  0
 31 34  1  0  0  0  0
 32 36  1  0  0  0  0
 34 35  2  0  0  0  0
 35 33  1  0  0  0  0
 35 30  1  0  0  0  0
 36 33  2  0  0  0  0
 37 38  1  0  0  0  0
 37 32  1  0  0  0  0
 39 40  1  0  0  0  0
 40 42  1  0  0  0  0
 41 40  2  0  0  0  0
 42 43  2  0  0  0  0
M  END
>  <MODEL>
2

>  <REMARK>
 VINA RESULT:      -8.8      1.623      5.439
  Name = 
  13 active torsions:
  status: ('A' for Active; 'I' for Inactive)
    1  A    between atoms: N_1  and  N_34
    2  A    between atoms: N_1  and  C_35
    3  A    between atoms: C_2  and  N_6
    4  A    between atoms: C_2  and  C_13
    5  A    between atoms: C_3  and  C_4
    6  A    between atoms: C_3  and  C_12
    7  A    between atoms: C_4  and  C_22
    8  A    between atoms: C_5  and  C_18
    9  A    between atoms: C_5  and  O_23
   10  A    between atoms: C_11  and  C_14
   11  A    between atoms: C_14  and  C_22
   12  A    between atoms: C_16  and  O_23
   13  A    between atoms: C_19  and  O_25
                            x       y       z     vdW  Elec       q    Type
                         _______ _______ _______ _____ _____    ______ ____

>  <TORSDO>
F 13

$$$$
=
 OpenBabel10272414243D

 43 47  0  0  1  0  0  0  0  0999 V2000
  190.2780  177.4790  139.7390 C   0  0  0  0  0  0  0  0  0  0  0  0
  187.9340  177.0870  138.1990 C   0  0  2  0  0  3  0  0  0  0  0  0
  190.0200  178.0260  142.4600 C   0  0  0  0  0  0  0  0  0  0  0  0
  188.9260  178.2120  141.6040 C   0  0  0  0  0  3  0  0  0  0  0  0
  187.8730  178.1060  139.3380 C   0  0  0  0  0  2  0  0  0  0  0  0
  189.0450  177.9200  140.2460 C   0  0  0  0  0  0  0  0  0  0  0  0
  191.3260  177.3000  140.5910 N   0  0  0  0  0  0  0  0  0  0  0  0
  190.4060  177.1550  138.3370 N   0  0  0  0  0  0  0  0  0  0  0  0
  189.2520  177.2260  137.4360 C   0  0  0  0  0  2  0  0  0  0  0  0
  191.2240  177.5680  141.9210 C   0  0  0  0  0  3  0  0  0  0  0  0
  186.7430  177.2210  137.2540 C   0  0  2  0  0  3  0  0  0  0  0  0
  187.1430  177.7480  136.0220 O   0  0  0  0  0  1  0  0  0  0  0  0
  185.7350  178.0790  137.8560 N   0  0  0  0  0  2  0  0  0  0  0  0
  184.3360  177.7990  137.7980 C   0  0  0  0  0  0  0  0  0  0  0  0
  183.9130  176.7530  137.2380 O   0  0  0  0  0  0  0  0  0  0  0  0
  183.3640  178.7690  138.3830 C   0  0  0  0  0  2  0  0  0  0  0  0
  182.8130  178.2560  139.7150 C   0  0  1  0  0  0  0  0  0  0  0  0
  180.3410  178.2590  138.3610 S   0  0  0  0  0  1  0  0  0  0  0  0
  181.8770  179.2260  140.3990 C   0  0  0  0  0  2  0  0  0  0  0  0
  181.3320  177.9130  139.8520 C   0  0  2  0  0  3  0  0  0  0  0  0
  183.7320  177.5110  140.6800 C   0  0  0  0  0  2  0  0  0  0  0  0
  184.4900  178.4490  141.5670 C   0  0  0  0  0  0  0  0  0  0  0  0
  185.0890  179.3990  141.0850 O   0  0  0  0  0  0  0  0  0  0  0  0
  184.5250  178.1960  143.0410 C   0  0  0  0  0  3  0  0  0  0  0  0
  183.7390  178.9830  145.2860 C   0  0  0  0  0  2  0  0  0  0  0  0
  185.9900  177.9100  145.0540 C   0  0  0  0  0  2  0  0  0  0  0  0
  185.1800  178.9750  145.7900 C   0  0  0  0  0  2  0  0  0  0  0  0
  185.9660  178.1750  143.5510 C   0  0  0  0  0  2  0  0  0  0  0  0
  183.7070  179.2520  143.7840 C   0  0  0  0  0  2  0  0  0  0  0  0
  191.6380  176.7630  137.7850 N   0  0  0  0  0  2  0  0  0  0  0  0
  191.9720  174.7450  134.6480 C   0  0  0  0  0  3  0  0  0  0  0  0
  192.0290  173.4440  135.1740 C   0  0  0  0  0  0  0  0  0  0  0  0
  191.8340  174.3580  137.4120 C   0  0  0  0  0  3  0  0  0  0  0  0
  191.8510  175.8440  135.5030 C   0  0  0  0  0  3  0  0  0  0  0  0
  191.7940  175.6550  136.8920 C   0  0  0  0  0  0  0  0  0  0  0  0
  191.9560  173.2590  136.5580 C   0  0  0  0  0  3  0  0  0  0  0  0
  192.1540  172.3250  134.3460 O   0  0  0  0  0  0  0  0  0  0  0  0
  192.2870  171.0040  134.8540 C   0  0  0  0  0  1  0  0  0  0  0  0
  189.9510  178.3190  143.8280 O   0  0  0  0  0  0  0  0  0  0  0  0
  190.1610  177.3890  144.8570 C   0  0  0  0  0  0  0  0  0  0  0  0
  189.1770  176.7390  145.2950 O   0  0  0  0  0  0  0  0  0  0  0  0
  191.4710  177.1920  145.4980 C   0  0  0  0  0  3  0  0  0  0  0  0
  191.6570  176.3440  146.5010 C   0  0  0  0  0  2  0  0  0  0  0  0
  1  6  2  0  0  0  0
  1  7  1  0  0  0  0
  2 11  1  6  0  0  0
  2  5  1  0  0  0  0
  3 39  1  0  0  0  0
  4  3  2  0  0  0  0
  5  6  1  0  0  0  0
  6  4  1  0  0  0  0
  7 10  2  0  0  0  0
  8  1  1  0  0  0  0
  9  2  1  0  0  0  0
  9  8  1  0  0  0  0
 10  3  1  0  0  0  0
 11 12  1  6  0  0  0
 11 13  1  0  0  0  0
 14 13  1  0  0  0  0
 14 16  1  0  0  0  0
 15 14  2  0  0  0  0
 17 16  1  6  0  0  0
 17 20  1  0  0  0  0
 17 19  1  0  0  0  0
 17 21  1  0  0  0  0
 20 18  1  6  0  0  0
 20 19  1  0  0  0  0
 21 22  1  0  0  0  0
 22 24  1  0  0  0  0
 23 22  2  0  0  0  0
 24 28  1  0  0  0  0
 24 29  1  0  0  0  0
 25 27  1  0  0  0  0
 26 27  1  0  0  0  0
 28 26  1  0  0  0  0
 29 25  1  0  0  0  0
 30  8  1  0  0  0  0
 31 32  2  0  0  0  0
 31 34  1  0  0  0  0
 32 36  1  0  0  0  0
 34 35  2  0  0  0  0
 35 33  1  0  0  0  0
 35 30  1  0  0  0  0
 36 33  2  0  0  0  0
 37 38  1  0  0  0  0
 37 32  1  0  0  0  0
 39 40  1  0  0  0  0
 40 41  2  0  0  0  0
 40 42  1  0  0  0  0
 42 43  2  0  0  0  0
M  END
>  <MODEL>
3

>  <REMARK>
 VINA RESULT:      -8.2      1.871      5.455
  Name = 
  13 active torsions:
  status: ('A' for Active; 'I' for Inactive)
    1  A    between atoms: N_1  and  N_34
    2  A    between atoms: N_1  and  C_35
    3  A    between atoms: C_2  and  N_6
    4  A    between atoms: C_2  and  C_13
    5  A    between atoms: C_3  and  C_4
    6  A    between atoms: C_3  and  C_12
    7  A    between atoms: C_4  and  C_22
    8  A    between atoms: C_5  and  C_18
    9  A    between atoms: C_5  and  O_23
   10  A    between atoms: C_11  and  C_14
   11  A    between atoms: C_14  and  C_22
   12  A    between atoms: C_16  and  O_23
   13  A    between atoms: C_19  and  O_25
                            x       y       z     vdW  Elec       q    Type
                         _______ _______ _______ _____ _____    ______ ____

>  <TORSDO>
F 13

$$$$
=
 OpenBabel10272414243D

 43 47  0  0  1  0  0  0  0  0999 V2000
  188.9110  176.8010  138.1120 C   0  0  0  0  0  0  0  0  0  0  0  0
  190.6440  177.5820  140.2120 C   0  0  2  0  0  3  0  0  0  0  0  0
  186.3660  177.9290  137.9840 C   0  0  0  0  0  0  0  0  0  0  0  0
  187.0900  177.9780  139.1820 C   0  0  0  0  0  3  0  0  0  0  0  0
  189.1480  177.4980  140.5200 C   0  0  0  0  0  2  0  0  0  0  0  0
  188.3720  177.4330  139.2450 C   0  0  0  0  0  0  0  0  0  0  0  0
  188.1910  176.7720  136.9570 N   0  0  0  0  0  0  0  0  0  0  0  0
  190.2470  176.2510  138.1620 N   0  0  0  0  0  0  0  0  0  0  0  0
  191.0760  176.3880  139.3630 C   0  0  0  0  0  2  0  0  0  0  0  0
  186.9440  177.3090  136.8740 C   0  0  0  0  0  3  0  0  0  0  0  0
  191.4810  177.6750  141.4850 C   0  0  2  0  0  3  0  0  0  0  0  0
  192.7820  177.2170  141.2580 O   0  0  0  0  0  1  0  0  0  0  0  0
  190.8560  176.8910  142.5390 N   0  0  0  0  0  2  0  0  0  0  0  0
  191.0810  177.1330  143.9290 C   0  0  0  0  0  0  0  0  0  0  0  0
  191.8220  178.0800  144.3040 O   0  0  0  0  0  0  0  0  0  0  0  0
  190.4550  176.2370  144.9440 C   0  0  0  0  0  2  0  0  0  0  0  0
  189.9880  177.0340  146.1640 C   0  0  1  0  0  0  0  0  0  0  0  0
  192.2240  175.8660  147.4200 S   0  0  0  0  0  1  0  0  0  0  0  0
  189.5140  176.1700  147.3100 C   0  0  0  0  0  2  0  0  0  0  0  0
  190.7890  176.9900  147.4620 C   0  0  2  0  0  3  0  0  0  0  0  0
  189.1570  178.3000  145.9710 C   0  0  0  0  0  2  0  0  0  0  0  0
  187.7320  178.1010  146.3830 C   0  0  0  0  0  0  0  0  0  0  0  0
  187.4300  178.1120  147.5680 O   0  0  0  0  0  0  0  0  0  0  0  0
  186.6910  177.8660  145.3340 C   0  0  0  0  0  3  0  0  0  0  0  0
  186.2420  177.7250  142.8740 C   0  0  0  0  0  2  0  0  0  0  0  0
  184.4770  178.5980  144.4200 C   0  0  0  0  0  2  0  0  0  0  0  0
  185.0950  178.7200  143.0300 C   0  0  0  0  0  2  0  0  0  0  0  0
  185.5330  178.8510  145.4910 C   0  0  0  0  0  2  0  0  0  0  0  0
  187.3050  177.9760  143.9390 C   0  0  0  0  0  2  0  0  0  0  0  0
  190.7970  175.5650  137.0660 N   0  0  0  0  0  2  0  0  0  0  0  0
  194.3900  176.0560  136.1330 C   0  0  0  0  0  3  0  0  0  0  0  0
  194.9350  174.8170  136.5080 C   0  0  0  0  0  0  0  0  0  0  0  0
  192.7400  174.0970  137.2510 C   0  0  0  0  0  3  0  0  0  0  0  0
  193.0290  176.3120  136.3210 C   0  0  0  0  0  3  0  0  0  0  0  0
  192.2000  175.3360  136.8930 C   0  0  0  0  0  0  0  0  0  0  0  0
  194.1010  173.8410  137.0630 C   0  0  0  0  0  3  0  0  0  0  0  0
  196.2920  174.5310  136.3370 O   0  0  0  0  0  0  0  0  0  0  0  0
  197.2000  175.4460  135.7390 C   0  0  0  0  0  1  0  0  0  0  0  0
  185.0700  178.4510  137.8770 O   0  0  0  0  0  0  0  0  0  0  0  0
  184.3160  178.9470  138.9500 C   0  0  0  0  0  0  0  0  0  0  0  0
  184.3330  180.1840  139.1820 O   0  0  0  0  0  0  0  0  0  0  0  0
  183.5600  178.0750  139.8640 C   0  0  0  0  0  3  0  0  0  0  0  0
  182.9480  176.9700  139.4560 C   0  0  0  0  0  2  0  0  0  0  0  0
  1  8  1  0  0  0  0
  1  6  1  0  0  0  0
  2  5  1  0  0  0  0
  2 11  1  1  0  0  0
  3  4  1  0  0  0  0
  4  6  2  0  0  0  0
  6  5  1  0  0  0  0
  7  1  2  0  0  0  0
  8  9  1  0  0  0  0
  9  2  1  0  0  0  0
 10  7  1  0  0  0  0
 10  3  2  0  0  0  0
 11 12  1  6  0  0  0
 11 13  1  0  0  0  0
 13 14  1  0  0  0  0
 14 15  2  0  0  0  0
 14 16  1  0  0  0  0
 17 16  1  6  0  0  0
 17 19  1  0  0  0  0
 17 20  1  0  0  0  0
 19 20  1  0  0  0  0
 20 18  1  6  0  0  0
 21 17  1  0  0  0  0
 21 22  1  0  0  0  0
 22 23  2  0  0  0  0
 24 28  1  0  0  0  0
 24 22  1  0  0  0  0
 25 27  1  0  0  0  0
 25 29  1  0  0  0  0
 26 28  1  0  0  0  0
 27 26  1  0  0  0  0
 29 24  1  0  0  0  0
 30  8  1  0  0  0  0
 31 34  2  0  0  0  0
 31 32  1  0  0  0  0
 32 36  2  0  0  0  0
 34 35  1  0  0  0  0
 35 30  1  0  0  0  0
 35 33  2  0  0  0  0
 36 33  1  0  0  0  0
 37 32  1  0  0  0  0
 38 37  1  0  0  0  0
 39  3  1  0  0  0  0
 39 40  1  0  0  0  0
 40 41  2  0  0  0  0
 40 42  1  0  0  0  0
 43 42  2  0  0  0  0
M  END
>  <MODEL>
4

>  <REMARK>
 VINA RESULT:      -7.9      3.007      7.917
  Name = 
  13 active torsions:
  status: ('A' for Active; 'I' for Inactive)
    1  A    between atoms: N_1  and  N_34
    2  A    between atoms: N_1  and  C_35
    3  A    between atoms: C_2  and  N_6
    4  A    between atoms: C_2  and  C_13
    5  A    between atoms: C_3  and  C_4
    6  A    between atoms: C_3  and  C_12
    7  A    between atoms: C_4  and  C_22
    8  A    between atoms: C_5  and  C_18
    9  A    between atoms: C_5  and  O_23
   10  A    between atoms: C_11  and  C_14
   11  A    between atoms: C_14  and  C_22
   12  A    between atoms: C_16  and  O_23
   13  A    between atoms: C_19  and  O_25
                            x       y       z     vdW  Elec       q    Type
                         _______ _______ _______ _____ _____    ______ ____

>  <TORSDO>
F 13

$$$$
=
 OpenBabel10272414243D

 43 47  0  0  1  0  0  0  0  0999 V2000
  189.8280  177.3450  138.0360 C   0  0  0  0  0  0  0  0  0  0  0  0
  189.5630  177.2550  140.8540 C   0  0  2  0  0  3  0  0  0  0  0  0
  191.8480  175.8500  136.8310 C   0  0  0  0  0  0  0  0  0  0  0  0
  191.9200  176.1440  138.1980 C   0  0  0  0  0  3  0  0  0  0  0  0
  190.9740  177.1760  140.2710 C   0  0  0  0  0  2  0  0  0  0  0  0
  190.9020  176.8750  138.8100 C   0  0  0  0  0  0  0  0  0  0  0  0
  189.7770  177.0410  136.7090 N   0  0  0  0  0  0  0  0  0  0  0  0
  188.7580  178.0850  138.6640 N   0  0  0  0  0  0  0  0  0  0  0  0
  188.7430  178.3110  140.1120 C   0  0  0  0  0  2  0  0  0  0  0  0
  190.7550  176.3190  136.0990 C   0  0  0  0  0  3  0  0  0  0  0  0
  189.5830  177.5380  142.3540 C   0  0  2  0  0  3  0  0  0  0  0  0
  190.5340  176.7400  142.9970 O   0  0  0  0  0  1  0  0  0  0  0  0
  188.2650  177.2890  142.9160 N   0  0  0  0  0  2  0  0  0  0  0  0
  187.9240  177.5930  144.2690 C   0  0  0  0  0  0  0  0  0  0  0  0
  188.7620  178.1360  145.0370 O   0  0  0  0  0  0  0  0  0  0  0  0
  186.5690  177.2410  144.7850 C   0  0  0  0  0  2  0  0  0  0  0  0
  185.8090  178.4930  145.2270 C   0  0  1  0  0  0  0  0  0  0  0  0
  187.1010  178.0530  147.6930 S   0  0  0  0  0  1  0  0  0  0  0  0
  184.7670  178.2290  146.2900 C   0  0  0  0  0  2  0  0  0  0  0  0
  186.0010  179.0510  146.6350 C   0  0  2  0  0  3  0  0  0  0  0  0
  185.3720  179.5220  144.1880 C   0  0  0  0  0  2  0  0  0  0  0  0
  184.8560  178.8740  142.9410 C   0  0  0  0  0  0  0  0  0  0  0  0
  185.5980  178.7080  141.9850 O   0  0  0  0  0  0  0  0  0  0  0  0
  183.4200  178.4580  142.8720 C   0  0  0  0  0  3  0  0  0  0  0  0
  181.4150  178.2130  141.3910 C   0  0  0  0  0  2  0  0  0  0  0  0
  181.1210  178.8070  143.8060 C   0  0  0  0  0  2  0  0  0  0  0  0
  180.5830  179.0100  142.3910 C   0  0  0  0  0  2  0  0  0  0  0  0
  182.5810  179.2430  143.8810 C   0  0  0  0  0  2  0  0  0  0  0  0
  182.8760  178.6480  141.4570 C   0  0  0  0  0  2  0  0  0  0  0  0
  187.6970  178.6170  137.9120 N   0  0  0  0  0  2  0  0  0  0  0  0
  185.0450  176.2580  136.7190 C   0  0  0  0  0  3  0  0  0  0  0  0
  183.9200  176.7560  137.3950 C   0  0  0  0  0  0  0  0  0  0  0  0
  185.3090  178.4690  138.4060 C   0  0  0  0  0  3  0  0  0  0  0  0
  186.2940  176.8610  136.8900 C   0  0  0  0  0  3  0  0  0  0  0  0
  186.4330  177.9630  137.7450 C   0  0  0  0  0  0  0  0  0  0  0  0
  184.0610  177.8660  138.2350 C   0  0  0  0  0  3  0  0  0  0  0  0
  182.6580  176.1740  137.2480 O   0  0  0  0  0  0  0  0  0  0  0  0
  182.2080  175.1010  138.0630 C   0  0  0  0  0  1  0  0  0  0  0  0
  192.8540  175.1310  136.1710 O   0  0  0  0  0  0  0  0  0  0  0  0
  194.1480  174.9240  136.6700 C   0  0  0  0  0  0  0  0  0  0  0  0
  195.0100  175.8270  136.5110 O   0  0  0  0  0  0  0  0  0  0  0  0
  194.5640  173.6650  137.3090 C   0  0  0  0  0  3  0  0  0  0  0  0
  195.1730  173.6270  138.4870 C   0  0  0  0  0  2  0  0  0  0  0  0
  1  8  1  0  0  0  0
  1  6  1  0  0  0  0
  2 11  1  1  0  0  0
  3  4  1  0  0  0  0
  4  6  2  0  0  0  0
  5  2  1  0  0  0  0
  6  5  1  0  0  0  0
  7  1  2  0  0  0  0
  8  9  1  0  0  0  0
  9  2  1  0  0  0  0
 10  7  1  0  0  0  0
 10  3  2  0  0  0  0
 11 13  1  0  0  0  0
 11 12  1  1  0  0  0
 13 14  1  0  0  0  0
 14 16  1  0  0  0  0
 14 15  2  0  0  0  0
 16 17  1  0  0  0  0
 17 21  1  6  0  0  0
 17 19  1  0  0  0  0
 17 20  1  0  0  0  0
 19 20  1  0  0  0  0
 20 18  1  1  0  0  0
 22 21  1  0  0  0  0
 23 22  2  0  0  0  0
 24 22  1  0  0  0  0
 24 28  1  0  0  0  0
 25 29  1  0  0  0  0
 25 27  1  0  0  0  0
 26 28  1  0  0  0  0
 27 26  1  0  0  0  0
 29 24  1  0  0  0  0
 30  8  1  0  0  0  0
 31 34  2  0  0  0  0
 31 32  1  0  0  0  0
 32 36  2  0  0  0  0
 34 35  1  0  0  0  0
 35 30  1  0  0  0  0
 35 33  2  0  0  0  0
 36 33  1  0  0  0  0
 37 32  1  0  0  0  0
 37 38  1  0  0  0  0
 39 40  1  0  0  0  0
 39  3  1  0  0  0  0
 40 42  1  0  0  0  0
 41 40  2  0  0  0  0
 42 43  2  0  0  0  0
M  END
>  <MODEL>
5

>  <REMARK>
 VINA RESULT:      -7.9      2.566      6.088
  Name = 
  13 active torsions:
  status: ('A' for Active; 'I' for Inactive)
    1  A    between atoms: N_1  and  N_34
    2  A    between atoms: N_1  and  C_35
    3  A    between atoms: C_2  and  N_6
    4  A    between atoms: C_2  and  C_13
    5  A    between atoms: C_3  and  C_4
    6  A    between atoms: C_3  and  C_12
    7  A    between atoms: C_4  and  C_22
    8  A    between atoms: C_5  and  C_18
    9  A    between atoms: C_5  and  O_23
   10  A    between atoms: C_11  and  C_14
   11  A    between atoms: C_14  and  C_22
   12  A    between atoms: C_16  and  O_23
   13  A    between atoms: C_19  and  O_25
                            x       y       z     vdW  Elec       q    Type
                         _______ _______ _______ _____ _____    ______ ____

>  <TORSDO>
F 13

$$$$
=
 OpenBabel10272414243D

 43 47  0  0  1  0  0  0  0  0999 V2000
  186.8300  178.1280  142.6050 C   0  0  0  0  0  0  0  0  0  0  0  0
  189.2930  177.6220  141.3020 C   0  0  2  0  0  3  0  0  0  0  0  0
  186.6490  177.6860  145.3510 C   0  0  0  0  0  0  0  0  0  0  0  0
  187.6850  177.0950  144.6160 C   0  0  0  0  0  3  0  0  0  0  0  0
  188.9060  176.7100  142.4670 C   0  0  0  0  0  2  0  0  0  0  0  0
  187.7920  177.3300  143.2460 C   0  0  0  0  0  0  0  0  0  0  0  0
  185.8350  178.6960  143.3410 N   0  0  0  0  0  0  0  0  0  0  0  0
  186.9420  178.3940  141.1890 N   0  0  0  0  0  0  0  0  0  0  0  0
  188.0790  177.8880  140.4130 C   0  0  0  0  0  2  0  0  0  0  0  0
  185.7230  178.4880  144.6800 C   0  0  0  0  0  3  0  0  0  0  0  0
  190.4460  177.0430  140.4880 C   0  0  2  0  0  3  0  0  0  0  0  0
  191.6500  177.6770  140.8100 O   0  0  0  0  0  1  0  0  0  0  0  0
  190.1690  177.1990  139.0680 N   0  0  0  0  0  2  0  0  0  0  0  0
  190.4020  176.1660  138.1100 C   0  0  0  0  0  0  0  0  0  0  0  0
  190.8350  175.0400  138.4710 O   0  0  0  0  0  0  0  0  0  0  0  0
  190.1550  176.4340  136.6630 C   0  0  0  0  0  2  0  0  0  0  0  0
  188.7330  176.0280  136.2660 C   0  0  1  0  0  0  0  0  0  0  0  0
  188.1700  178.7700  136.5940 S   0  0  0  0  0  1  0  0  0  0  0  0
  187.7210  176.1940  137.3760 C   0  0  0  0  0  2  0  0  0  0  0  0
  187.6390  177.0840  136.1430 C   0  0  2  0  0  3  0  0  0  0  0  0
  188.5100  174.7780  135.4190 C   0  0  0  0  0  2  0  0  0  0  0  0
  188.0610  173.6140  136.2470 C   0  0  0  0  0  0  0  0  0  0  0  0
  188.8430  173.0690  137.0130 O   0  0  0  0  0  0  0  0  0  0  0  0
  186.6590  173.1130  136.1070 C   0  0  0  0  0  3  0  0  0  0  0  0
  184.4080  173.5460  135.0970 C   0  0  0  0  0  2  0  0  0  0  0  0
  184.5830  172.4160  137.3250 C   0  0  0  0  0  2  0  0  0  0  0  0
  183.7630  173.3800  136.4700 C   0  0  0  0  0  2  0  0  0  0  0  0
  186.0100  172.9330  137.4790 C   0  0  0  0  0  2  0  0  0  0  0  0
  185.8340  174.0670  135.2430 C   0  0  0  0  0  2  0  0  0  0  0  0
  185.9700  179.1420  140.5050 N   0  0  0  0  0  2  0  0  0  0  0  0
  182.6600  177.5030  139.8860 C   0  0  0  0  0  3  0  0  0  0  0  0
  182.6860  177.3670  138.4890 C   0  0  0  0  0  0  0  0  0  0  0  0
  184.8760  178.4120  138.4470 C   0  0  0  0  0  3  0  0  0  0  0  0
  183.7350  178.0930  140.5570 C   0  0  0  0  0  3  0  0  0  0  0  0
  184.8430  178.5620  139.8370 C   0  0  0  0  0  0  0  0  0  0  0  0
  183.8010  177.8220  137.7770 C   0  0  0  0  0  3  0  0  0  0  0  0
  181.6270  176.7840  137.7890 O   0  0  0  0  0  0  0  0  0  0  0  0
  181.7210  176.4140  136.4200 C   0  0  0  0  0  1  0  0  0  0  0  0
  186.4940  177.4670  146.7260 O   0  0  0  0  0  0  0  0  0  0  0  0
  186.8930  178.3630  147.7290 C   0  0  0  0  0  0  0  0  0  0  0  0
  186.2750  179.4530  147.8470 O   0  0  0  0  0  0  0  0  0  0  0  0
  188.0500  178.1160  148.6040 C   0  0  0  0  0  3  0  0  0  0  0  0
  189.2890  178.0110  148.1400 C   0  0  0  0  0  2  0  0  0  0  0  0
  1  6  2  0  0  0  0
  1  7  1  0  0  0  0
  2 11  1  6  0  0  0
  2  5  1  0  0  0  0
  3 39  1  0  0  0  0
  4  3  2  0  0  0  0
  5  6  1  0  0  0  0
  6  4  1  0  0  0  0
  7 10  2  0  0  0  0
  8  1  1  0  0  0  0
  9  8  1  0  0  0  0
  9  2  1  0  0  0  0
 10  3  1  0  0  0  0
 11 12  1  1  0  0  0
 13 11  1  0  0  0  0
 14 15  2  0  0  0  0
 14 13  1  0  0  0  0
 16 14  1  0  0  0  0
 17 21  1  6  0  0  0
 17 16  1  0  0  0  0
 17 19  1  0  0  0  0
 20 17  1  0  0  0  0
 20 18  1  1  0  0  0
 20 19  1  0  0  0  0
 21 22  1  0  0  0  0
 22 23  2  0  0  0  0
 24 22  1  0  0  0  0
 24 28  1  0  0  0  0
 25 29  1  0  0  0  0
 25 27  1  0  0  0  0
 26 28  1  0  0  0  0
 27 26  1  0  0  0  0
 29 24  1  0  0  0  0
 30  8  1  0  0  0  0
 31 34  1  0  0  0  0
 32 31  2  0  0  0  0
 33 35  1  0  0  0  0
 35 30  1  0  0  0  0
 35 34  2  0  0  0  0
 36 33  2  0  0  0  0
 36 32  1  0  0  0  0
 37 32  1  0  0  0  0
 38 37  1  0  0  0  0
 39 40  1  0  0  0  0
 40 41  2  0  0  0  0
 40 42  1  0  0  0  0
 43 42  2  0  0  0  0
M  END
>  <MODEL>
6

>  <REMARK>
 VINA RESULT:      -7.8      3.369      8.834
  Name = 
  13 active torsions:
  status: ('A' for Active; 'I' for Inactive)
    1  A    between atoms: N_1  and  N_34
    2  A    between atoms: N_1  and  C_35
    3  A    between atoms: C_2  and  N_6
    4  A    between atoms: C_2  and  C_13
    5  A    between atoms: C_3  and  C_4
    6  A    between atoms: C_3  and  C_12
    7  A    between atoms: C_4  and  C_22
    8  A    between atoms: C_5  and  C_18
    9  A    between atoms: C_5  and  O_23
   10  A    between atoms: C_11  and  C_14
   11  A    between atoms: C_14  and  C_22
   12  A    between atoms: C_16  and  O_23
   13  A    between atoms: C_19  and  O_25
                            x       y       z     vdW  Elec       q    Type
                         _______ _______ _______ _____ _____    ______ ____

>  <TORSDO>
F 13

$$$$
=
 OpenBabel10272414243D

 43 47  0  0  1  0  0  0  0  0999 V2000
  185.3200  178.4850  144.1440 C   0  0  0  0  0  0  0  0  0  0  0  0
  187.3570  177.6630  142.3570 C   0  0  2  0  0  3  0  0  0  0  0  0
  182.7890  179.0510  143.1230 C   0  0  0  0  0  0  0  0  0  0  0  0
  183.8970  179.0270  142.2660 C   0  0  0  0  0  3  0  0  0  0  0  0
  186.3400  178.6860  141.8510 C   0  0  0  0  0  2  0  0  0  0  0  0
  185.1610  178.7240  142.7680 C   0  0  0  0  0  0  0  0  0  0  0  0
  184.2270  178.5080  144.9560 N   0  0  0  0  0  0  0  0  0  0  0  0
  186.6230  178.1510  144.6710 N   0  0  0  0  0  0  0  0  0  0  0  0
  187.7810  178.0020  143.7860 C   0  0  0  0  0  2  0  0  0  0  0  0
  182.9840  178.7890  144.4800 C   0  0  0  0  0  3  0  0  0  0  0  0
  188.5720  177.5690  141.4380 C   0  0  2  0  0  3  0  0  0  0  0  0
  189.6740  178.2170  142.0030 O   0  0  0  0  0  1  0  0  0  0  0  0
  188.2560  178.1620  140.1470 N   0  0  0  0  0  2  0  0  0  0  0  0
  188.7940  177.6810  138.9150 C   0  0  0  0  0  0  0  0  0  0  0  0
  189.5550  176.6770  138.8940 O   0  0  0  0  0  0  0  0  0  0  0  0
  188.4730  178.3920  137.6430 C   0  0  0  0  0  2  0  0  0  0  0  0
  187.3850  177.6520  136.8620 C   0  0  1  0  0  0  0  0  0  0  0  0
  189.4190  177.2800  134.9470 S   0  0  0  0  0  1  0  0  0  0  0  0
  186.9840  178.3400  135.5770 C   0  0  0  0  0  2  0  0  0  0  0  0
  187.7100  177.0020  135.5200 C   0  0  2  0  0  3  0  0  0  0  0  0
  186.2110  177.0220  137.6080 C   0  0  0  0  0  2  0  0  0  0  0  0
  185.1600  178.0310  137.9510 C   0  0  0  0  0  0  0  0  0  0  0  0
  185.4750  179.0900  138.4740 O   0  0  0  0  0  0  0  0  0  0  0  0
  183.7240  177.7180  137.6710 C   0  0  0  0  0  3  0  0  0  0  0  0
  181.7150  176.4230  138.4200 C   0  0  0  0  0  2  0  0  0  0  0  0
  182.0910  176.8480  135.9810 C   0  0  0  0  0  2  0  0  0  0  0  0
  181.5600  175.8550  137.0120 C   0  0  0  0  0  2  0  0  0  0  0  0
  183.5590  177.1590  136.2580 C   0  0  0  0  0  2  0  0  0  0  0  0
  183.1810  176.7320  138.7050 C   0  0  0  0  0  2  0  0  0  0  0  0
  186.8280  177.9590  146.0480 N   0  0  0  0  0  2  0  0  0  0  0  0
  189.7340  177.9900  148.4090 C   0  0  0  0  0  3  0  0  0  0  0  0
  190.6560  177.1960  147.7080 C   0  0  0  0  0  0  0  0  0  0  0  0
  189.0320  176.9140  145.9280 C   0  0  0  0  0  3  0  0  0  0  0  0
  188.4680  178.2400  147.8720 C   0  0  0  0  0  3  0  0  0  0  0  0
  188.1080  177.6910  146.6330 C   0  0  0  0  0  0  0  0  0  0  0  0
  190.2980  176.6650  146.4650 C   0  0  0  0  0  3  0  0  0  0  0  0
  191.9280  176.9260  148.2190 O   0  0  0  0  0  0  0  0  0  0  0  0
  192.6840  175.7850  147.8360 C   0  0  0  0  0  1  0  0  0  0  0  0
  181.5020  179.3640  142.6650 O   0  0  0  0  0  0  0  0  0  0  0  0
  180.9220  178.8530  141.4940 C   0  0  0  0  0  0  0  0  0  0  0  0
  180.6830  177.6190  141.4260 O   0  0  0  0  0  0  0  0  0  0  0  0
  180.6470  179.6860  140.3130 C   0  0  0  0  0  3  0  0  0  0  0  0
  181.5870  180.0200  139.4380 C   0  0  0  0  0  2  0  0  0  0  0  0
  1  8  1  0  0  0  0
  1  7  1  0  0  0  0
  2 11  1  6  0  0  0
  2  9  1  0  0  0  0
  3 10  1  0  0  0  0
  4  6  1  0  0  0  0
  4  3  2  0  0  0  0
  5  2  1  0  0  0  0
  5  6  1  0  0  0  0
  6  1  2  0  0  0  0
  8 30  1  0  0  0  0
  9  8  1  0  0  0  0
 10  7  2  0  0  0  0
 11 12  1  1  0  0  0
 13 11  1  0  0  0  0
 14 13  1  0  0  0  0
 15 14  2  0  0  0  0
 16 14  1  0  0  0  0
 17 21  1  1  0  0  0
 17 16  1  0  0  0  0
 19 17  1  0  0  0  0
 20 18  1  6  0  0  0
 20 19  1  0  0  0  0
 20 17  1  0  0  0  0
 21 22  1  0  0  0  0
 22 23  2  0  0  0  0
 24 22  1  0  0  0  0
 24 29  1  0  0  0  0
 25 29  1  0  0  0  0
 26 28  1  0  0  0  0
 26 27  1  0  0  0  0
 27 25  1  0  0  0  0
 28 24  1  0  0  0  0
 30 35  1  0  0  0  0
 32 37  1  0  0  0  0
 32 31  2  0  0  0  0
 33 36  2  0  0  0  0
 33 35  1  0  0  0  0
 34 31  1  0  0  0  0
 35 34  2  0  0  0  0
 36 32  1  0  0  0  0
 38 37  1  0  0  0  0
 39  3  1  0  0  0  0
 40 39  1  0  0  0  0
 41 40  2  0  0  0  0
 42 40  1  0  0  0  0
 43 42  2  0  0  0  0
M  END
>  <MODEL>
7

>  <REMARK>
 VINA RESULT:      -7.8      3.392      7.963
  Name = 
  13 active torsions:
  status: ('A' for Active; 'I' for Inactive)
    1  A    between atoms: N_1  and  N_34
    2  A    between atoms: N_1  and  C_35
    3  A    between atoms: C_2  and  N_6
    4  A    between atoms: C_2  and  C_13
    5  A    between atoms: C_3  and  C_4
    6  A    between atoms: C_3  and  C_12
    7  A    between atoms: C_4  and  C_22
    8  A    between atoms: C_5  and  C_18
    9  A    between atoms: C_5  and  O_23
   10  A    between atoms: C_11  and  C_14
   11  A    between atoms: C_14  and  C_22
   12  A    between atoms: C_16  and  O_23
   13  A    between atoms: C_19  and  O_25
                            x       y       z     vdW  Elec       q    Type
                         _______ _______ _______ _____ _____    ______ ____

>  <TORSDO>
F 13

$$$$
=
 OpenBabel10272414243D

 43 47  0  0  1  0  0  0  0  0999 V2000
  187.0270  178.0120  142.6550 C   0  0  0  0  0  0  0  0  0  0  0  0
  188.6560  178.4540  140.3800 C   0  0  2  0  0  3  0  0  0  0  0  0
  188.2120  177.0430  144.9840 C   0  0  0  0  0  0  0  0  0  0  0  0
  188.8730  176.9060  143.7570 C   0  0  0  0  0  3  0  0  0  0  0  0
  189.0070  177.2730  141.2860 C   0  0  0  0  0  2  0  0  0  0  0  0
  188.2940  177.4080  142.5930 C   0  0  0  0  0  0  0  0  0  0  0  0
  186.4070  178.1390  143.8610 N   0  0  0  0  0  0  0  0  0  0  0  0
  186.4270  178.5530  141.4570 N   0  0  0  0  0  0  0  0  0  0  0  0
  187.1430  178.5320  140.1780 C   0  0  0  0  0  2  0  0  0  0  0  0
  186.9630  177.6670  145.0090 C   0  0  0  0  0  3  0  0  0  0  0  0
  189.3800  178.3750  139.0390 C   0  0  2  0  0  3  0  0  0  0  0  0
  188.7410  179.1690  138.0830 O   0  0  0  0  0  1  0  0  0  0  0  0
  189.4220  176.9930  138.5870 N   0  0  0  0  0  2  0  0  0  0  0  0
  190.6350  176.3210  138.2430 C   0  0  0  0  0  0  0  0  0  0  0  0
  191.7460  176.9050  138.3540 O   0  0  0  0  0  0  0  0  0  0  0  0
  190.5820  174.9240  137.7210 C   0  0  0  0  0  2  0  0  0  0  0  0
  190.4020  174.9140  136.2020 C   0  0  1  0  0  0  0  0  0  0  0  0
  192.8710  173.5540  136.2110 S   0  0  0  0  0  1  0  0  0  0  0  0
  191.4260  175.7450  135.4630 C   0  0  0  0  0  2  0  0  0  0  0  0
  191.4350  174.2290  135.3110 C   0  0  2  0  0  3  0  0  0  0  0  0
  189.0010  174.9990  135.6030 C   0  0  0  0  0  2  0  0  0  0  0  0
  187.9860  174.3010  136.4530 C   0  0  0  0  0  0  0  0  0  0  0  0
  188.0850  173.1010  136.6650 O   0  0  0  0  0  0  0  0  0  0  0  0
  186.8400  175.0820  137.0160 C   0  0  0  0  0  3  0  0  0  0  0  0
  184.3570  175.1570  137.3350 C   0  0  0  0  0  2  0  0  0  0  0  0
  185.6410  177.2820  137.0140 C   0  0  0  0  0  2  0  0  0  0  0  0
  184.3250  176.5600  136.7350 C   0  0  0  0  0  2  0  0  0  0  0  0
  186.8090  176.4930  136.4290 C   0  0  0  0  0  2  0  0  0  0  0  0
  185.5200  174.3600  136.7510 C   0  0  0  0  0  2  0  0  0  0  0  0
  185.1400  179.1160  141.4730 N   0  0  0  0  0  2  0  0  0  0  0  0
  182.6760  179.1590  138.6540 C   0  0  0  0  0  3  0  0  0  0  0  0
  181.9800  177.9620  138.8890 C   0  0  0  0  0  0  0  0  0  0  0  0
  183.3870  177.5450  140.8210 C   0  0  0  0  0  3  0  0  0  0  0  0
  183.7220  179.5420  139.4960 C   0  0  0  0  0  3  0  0  0  0  0  0
  184.0910  178.7290  140.5780 C   0  0  0  0  0  0  0  0  0  0  0  0
  182.3400  177.1620  139.9790 C   0  0  0  0  0  3  0  0  0  0  0  0
  180.9300  177.5500  138.0640 O   0  0  0  0  0  0  0  0  0  0  0  0
  180.1010  178.4640  137.3610 C   0  0  0  0  0  1  0  0  0  0  0  0
  188.7490  176.5420  146.1780 O   0  0  0  0  0  0  0  0  0  0  0  0
  189.6810  177.2160  146.9810 C   0  0  0  0  0  0  0  0  0  0  0  0
  190.9070  177.0250  146.7750 O   0  0  0  0  0  0  0  0  0  0  0  0
  189.2850  178.0820  148.1030 C   0  0  0  0  0  3  0  0  0  0  0  0
  188.0580  178.0850  148.6080 C   0  0  0  0  0  2  0  0  0  0  0  0
  1  7  1  0  0  0  0
  2 11  1  6  0  0  0
  2  5  1  0  0  0  0
  3 10  1  0  0  0  0
  3 39  1  0  0  0  0
  4  3  2  0  0  0  0
  5  6  1  0  0  0  0
  6  1  2  0  0  0  0
  6  4  1  0  0  0  0
  7 10  2  0  0  0  0
  8 30  1  0  0  0  0
  8  1  1  0  0  0  0
  9  2  1  0  0  0  0
  9  8  1  0  0  0  0
 11 12  1  6  0  0  0
 13 11  1  0  0  0  0
 14 15  2  0  0  0  0
 14 13  1  0  0  0  0
 16 14  1  0  0  0  0
 17 21  1  6  0  0  0
 17 16  1  0  0  0  0
 19 17  1  0  0  0  0
 20 19  1  0  0  0  0
 20 17  1  0  0  0  0
 20 18  1  1  0  0  0
 21 22  1  0  0  0  0
 22 23  2  0  0  0  0
 22 24  1  0  0  0  0
 27 26  1  0  0  0  0
 27 25  1  0  0  0  0
 28 26  1  0  0  0  0
 28 24  1  0  0  0  0
 29 24  1  0  0  0  0
 29 25  1  0  0  0  0
 31 32  2  0  0  0  0
 31 34  1  0  0  0  0
 32 36  1  0  0  0  0
 34 35  2  0  0  0  0
 35 33  1  0  0  0  0
 35 30  1  0  0  0  0
 36 33  2  0  0  0  0
 37 32  1  0  0  0  0
 38 37  1  0  0  0  0
 39 40  1  0  0  0  0
 40 42  1  0  0  0  0
 41 40  2  0  0  0  0
 42 43  2  0  0  0  0
M  END
>  <MODEL>
8

>  <REMARK>
 VINA RESULT:      -7.7      3.259      8.703
  Name = 
  13 active torsions:
  status: ('A' for Active; 'I' for Inactive)
    1  A    between atoms: N_1  and  N_34
    2  A    between atoms: N_1  and  C_35
    3  A    between atoms: C_2  and  N_6
    4  A    between atoms: C_2  and  C_13
    5  A    between atoms: C_3  and  C_4
    6  A    between atoms: C_3  and  C_12
    7  A    between atoms: C_4  and  C_22
    8  A    between atoms: C_5  and  C_18
    9  A    between atoms: C_5  and  O_23
   10  A    between atoms: C_11  and  C_14
   11  A    between atoms: C_14  and  C_22
   12  A    between atoms: C_16  and  O_23
   13  A    between atoms: C_19  and  O_25
                            x       y       z     vdW  Elec       q    Type
                         _______ _______ _______ _____ _____    ______ ____

>  <TORSDO>
F 13

$$$$
=
 OpenBabel10272414243D

 43 47  0  0  1  0  0  0  0  0999 V2000
  187.7240  178.1420  142.7220 C   0  0  0  0  0  0  0  0  0  0  0  0
  184.9430  178.3270  142.2200 C   0  0  2  0  0  3  0  0  0  0  0  0
  188.5810  177.0280  145.1280 C   0  0  0  0  0  0  0  0  0  0  0  0
  187.2650  177.4910  145.0040 C   0  0  0  0  0  3  0  0  0  0  0  0
  185.4180  178.5110  143.6610 C   0  0  0  0  0  2  0  0  0  0  0  0
  186.8260  178.0300  143.7960 C   0  0  0  0  0  0  0  0  0  0  0  0
  188.9970  177.6780  142.8640 N   0  0  0  0  0  0  0  0  0  0  0  0
  187.2730  178.6800  141.4590 N   0  0  0  0  0  0  0  0  0  0  0  0
  185.8730  179.0660  141.2590 C   0  0  0  0  0  2  0  0  0  0  0  0
  189.4390  177.1380  144.0320 C   0  0  0  0  0  3  0  0  0  0  0  0
  183.4980  178.7830  142.0360 C   0  0  2  0  0  3  0  0  0  0  0  0
  182.8000  178.7210  143.2460 O   0  0  0  0  0  1  0  0  0  0  0  0
  182.8440  177.9440  141.0430 N   0  0  0  0  0  2  0  0  0  0  0  0
  182.5000  178.4070  139.7360 C   0  0  0  0  0  0  0  0  0  0  0  0
  182.7870  179.5780  139.3730 O   0  0  0  0  0  0  0  0  0  0  0  0
  181.7670  177.5020  138.8030 C   0  0  0  0  0  2  0  0  0  0  0  0
  182.2380  177.7050  137.3610 C   0  0  1  0  0  0  0  0  0  0  0  0
  179.9840  179.3860  137.1690 S   0  0  0  0  0  1  0  0  0  0  0  0
  181.2900  177.1430  136.3270 C   0  0  0  0  0  2  0  0  0  0  0  0
  181.4810  178.6500  136.4320 C   0  0  2  0  0  3  0  0  0  0  0  0
  183.7100  177.5100  137.0090 C   0  0  0  0  0  2  0  0  0  0  0  0
  183.9360  176.2540  136.2260 C   0  0  0  0  0  0  0  0  0  0  0  0
  184.1590  176.3120  135.0250 O   0  0  0  0  0  0  0  0  0  0  0  0
  183.8580  174.9320  136.9220 C   0  0  0  0  0  3  0  0  0  0  0  0
  185.1590  172.9500  137.7300 C   0  0  0  0  0  2  0  0  0  0  0  0
  182.8060  172.6580  136.9270 C   0  0  0  0  0  2  0  0  0  0  0  0
  184.1920  172.0210  137.0010 C   0  0  0  0  0  2  0  0  0  0  0  0
  182.8810  174.0000  136.2050 C   0  0  0  0  0  2  0  0  0  0  0  0
  185.2430  174.2930  137.0110 C   0  0  0  0  0  2  0  0  0  0  0  0
  188.1570  178.8560  140.3810 N   0  0  0  0  0  2  0  0  0  0  0  0
  189.6640  176.1590  138.2660 C   0  0  0  0  0  3  0  0  0  0  0  0
  188.7090  176.0580  137.2410 C   0  0  0  0  0  0  0  0  0  0  0  0
  187.4040  177.8010  138.3110 C   0  0  0  0  0  3  0  0  0  0  0  0
  189.4860  177.0730  139.3070 C   0  0  0  0  0  3  0  0  0  0  0  0
  188.3460  177.8900  139.3400 C   0  0  0  0  0  0  0  0  0  0  0  0
  187.5820  176.8860  137.2700 C   0  0  0  0  0  3  0  0  0  0  0  0
  188.8570  175.1520  136.1880 O   0  0  0  0  0  0  0  0  0  0  0  0
  188.9940  173.7520  136.3920 C   0  0  0  0  0  1  0  0  0  0  0  0
  189.0710  176.4910  146.3270 O   0  0  0  0  0  0  0  0  0  0  0  0
  190.0690  177.0790  147.1180 C   0  0  0  0  0  0  0  0  0  0  0  0
  189.7320  177.9160  147.9950 O   0  0  0  0  0  0  0  0  0  0  0  0
  191.5030  176.8120  146.9190 C   0  0  0  0  0  3  0  0  0  0  0  0
  192.1250  175.7870  147.4880 C   0  0  0  0  0  2  0  0  0  0  0  0
  1  7  2  0  0  0  0
  1  6  1  0  0  0  0
  2 11  1  1  0  0  0
  2  5  1  0  0  0  0
  3 39  1  0  0  0  0
  4  3  1  0  0  0  0
  5  6  1  0  0  0  0
  6  4  2  0  0  0  0
  7 10  1  0  0  0  0
  8  1  1  0  0  0  0
  9  8  1  0  0  0  0
  9  2  1  0  0  0  0
 10  3  2  0  0  0  0
 11 12  1  1  0  0  0
 13 11  1  0  0  0  0
 14 13  1  0  0  0  0
 15 14  2  0  0  0  0
 16 14  1  0  0  0  0
 17 21  1  6  0  0  0
 17 16  1  0  0  0  0
 19 20  1  0  0  0  0
 19 17  1  0  0  0  0
 20 18  1  1  0  0  0
 20 17  1  0  0  0  0
 22 24  1  0  0  0  0
 22 21  1  0  0  0  0
 23 22  2  0  0  0  0
 24 29  1  0  0  0  0
 26 27  1  0  0  0  0
 27 25  1  0  0  0  0
 28 24  1  0  0  0  0
 28 26  1  0  0  0  0
 29 25  1  0  0  0  0
 30  8  1  0  0  0  0
 31 34  1  0  0  0  0
 32 36  1  0  0  0  0
 32 31  2  0  0  0  0
 33 35  1  0  0  0  0
 34 35  2  0  0  0  0
 35 30  1  0  0  0  0
 36 33  2  0  0  0  0
 37 38  1  0  0  0  0
 37 32  1  0  0  0  0
 39 40  1  0  0  0  0
 40 41  2  0  0  0  0
 42 40  1  0  0  0  0
 42 43  2  0  0  0  0
M  END
>  <MODEL>
9

>  <REMARK>
 VINA RESULT:      -7.5      2.858      7.225
  Name = 
  13 active torsions:
  status: ('A' for Active; 'I' for Inactive)
    1  A    between atoms: N_1  and  N_34
    2  A    between atoms: N_1  and  C_35
    3  A    between atoms: C_2  and  N_6
    4  A    between atoms: C_2  and  C_13
    5  A    between atoms: C_3  and  C_4
    6  A    between atoms: C_3  and  C_12
    7  A    between atoms: C_4  and  C_22
    8  A    between atoms: C_5  and  C_18
    9  A    between atoms: C_5  and  O_23
   10  A    between atoms: C_11  and  C_14
   11  A    between atoms: C_14  and  C_22
   12  A    between atoms: C_16  and  O_23
   13  A    between atoms: C_19  and  O_25
                            x       y       z     vdW  Elec       q    Type
                         _______ _______ _______ _____ _____    ______ ____

>  <TORSDO>
F 13

$$$$
