=
 OpenBabel10262423443D

 34 38  0  0  1  0  0  0  0  0999 V2000
  191.7650  174.2750  136.7500 C   0  0  0  0  0  0  0  0  0  0  0  0
  193.6320  175.6590  137.2490 C   0  0  1  0  0  3  0  0  0  0  0  0
  191.1830  176.0460  138.3360 C   0  0  0  0  0  0  0  0  0  0  0  0
  189.3580  177.4640  140.4410 C   0  0  0  0  0  3  0  0  0  0  0  0
  192.6760  172.6840  135.2270 O   0  0  0  0  0  0  0  0  0  0  0  0
  194.1610  174.8710  135.6780 S   0  0  0  0  0  0  0  0  0  0  0  0
  192.9510  177.2920  139.5690 C   0  0  0  0  0  1  0  0  0  0  0  0
  192.1720  175.3280  137.4530 C   0  0  0  0  0  0  0  0  0  0  0  0
  190.6370  177.1040  140.5390 C   0  0  0  0  0  0  0  0  0  0  0  0
  192.7630  173.7850  135.8290 C   0  0  0  0  0  0  0  0  0  0  0  0
  189.7460  175.8000  137.9960 C   0  0  0  0  0  0  0  0  0  0  0  0
  190.4280  173.6360  136.9730 C   0  0  0  0  0  2  0  0  0  0  0  0
  194.4640  175.0390  138.3610 C   0  0  0  0  0  1  0  0  0  0  0  0
  188.5670  177.5830  139.2160 C   0  0  0  0  0  3  0  0  0  0  0  0
  188.7310  176.8810  138.0940 C   0  0  0  0  0  0  0  0  0  0  0  0
  191.5440  176.8200  139.3920 C   0  0  2  0  0  3  0  0  0  0  0  0
  189.4160  174.6870  137.3200 C   0  0  0  0  0  2  0  0  0  0  0  0
  185.6150  177.2880  135.9570 C   0  0  0  0  0  0  0  0  0  0  0  0
  186.1580  177.7410  134.7520 C   0  0  0  0  0  3  0  0  0  0  0  0
  187.8420  177.1940  136.9390 C   0  0  0  0  0  0  0  0  0  0  0  0
  187.5380  177.9160  134.6310 C   0  0  0  0  0  3  0  0  0  0  0  0
  186.4520  177.0140  137.0410 C   0  0  0  0  0  3  0  0  0  0  0  0
  188.3750  177.6420  135.7170 C   0  0  0  0  0  3  0  0  0  0  0  0
  183.8870  177.0650  136.1090 Cl  0  0  0  0  0  0  0  0  0  0  0  0
  191.1980  177.0530  141.9240 C   0  0  0  0  0  2  0  0  0  0  0  0
  190.2500  176.2980  142.8350 C   0  0  0  0  0  2  0  0  0  0  0  0
  190.0200  177.0990  144.1010 C   0  0  0  0  0  2  0  0  0  0  0  0
  189.4960  177.3320  147.0310 C   0  0  0  0  0  1  0  0  0  0  0  0
  188.5890  176.9130  144.5850 C   0  0  1  0  0  3  0  0  0  0  0  0
  188.3820  177.3390  146.0350 C   0  0  0  0  0  0  0  0  0  0  0  0
  185.9880  177.6630  145.4940 C   0  0  0  0  0  2  0  0  0  0  0  0
  186.4320  178.0230  144.0990 C   0  0  0  0  0  3  0  0  0  0  0  0
  187.6520  177.6670  143.6720 C   0  0  0  0  0  3  0  0  0  0  0  0
  187.1550  177.6960  146.4480 C   0  0  0  0  0  3  0  0  0  0  0  0
  1 12  1  0  0  0  0
  1  8  2  0  0  0  0
  2  8  1  0  0  0  0
  2 13  1  1  0  0  0
  3 16  1  0  0  0  0
  4  9  2  0  0  0  0
  5 10  2  0  0  0  0
  6 10  1  0  0  0  0
  6  2  1  0  0  0  0
  8  3  1  0  0  0  0
  9 25  1  0  0  0  0
 10  1  1  0  0  0  0
 11 15  1  0  0  0  0
 11  3  2  0  0  0  0
 12 17  1  0  0  0  0
 14  4  1  0  0  0  0
 15 14  2  0  0  0  0
 16  7  1  1  0  0  0
 16  9  1  0  0  0  0
 17 11  1  0  0  0  0
 18 24  1  0  0  0  0
 18 22  1  0  0  0  0
 19 18  2  0  0  0  0
 20 22  2  0  0  0  0
 20 15  1  0  0  0  0
 21 19  1  0  0  0  0
 21 23  2  0  0  0  0
 23 20  1  0  0  0  0
 25 26  1  0  0  0  0
 26 27  1  0  0  0  0
 29 27  1  6  0  0  0
 29 30  1  0  0  0  0
 30 34  2  0  0  0  0
 30 28  1  0  0  0  0
 31 34  1  0  0  0  0
 32 31  1  0  0  0  0
 33 32  2  0  0  0  0
 33 29  1  0  0  0  0
M  END
>  <MODEL>
1

>  <REMARK>
 VINA RESULT:      -8.8      0.000      0.000
  Name = 
  5 active torsions:
  status: ('A' for Active; 'I' for Inactive)
    1  A    between atoms: C_3  and  C_13
    2  A    between atoms: C_3  and  C_17
    3  A    between atoms: C_12  and  C_28
    4  A    between atoms: C_17  and  C_29
    5  A    between atoms: C_18  and  C_29
                            x       y       z     vdW  Elec       q    Type
                         _______ _______ _______ _____ _____    ______ ____

>  <TORSDO>
F 5

$$$$
=
 OpenBabel10262423443D

 34 38  0  0  1  0  0  0  0  0999 V2000
  185.9070  177.4080  137.2110 C   0  0  0  0  0  0  0  0  0  0  0  0
  187.7160  178.4760  138.3220 C   0  0  1  0  0  3  0  0  0  0  0  0
  185.2340  178.3030  139.3870 C   0  0  0  0  0  0  0  0  0  0  0  0
  183.3180  178.6290  141.8360 C   0  0  0  0  0  3  0  0  0  0  0  0
  186.9020  176.6540  135.1800 O   0  0  0  0  0  0  0  0  0  0  0  0
  188.3040  178.4590  136.5840 S   0  0  0  0  0  0  0  0  0  0  0  0
  186.9330  178.9250  141.0970 C   0  0  0  0  0  1  0  0  0  0  0  0
  186.2640  178.0590  138.3140 C   0  0  0  0  0  0  0  0  0  0  0  0
  184.6060  178.2880  141.8120 C   0  0  0  0  0  0  0  0  0  0  0  0
  186.9400  177.3860  136.2020 C   0  0  0  0  0  0  0  0  0  0  0  0
  183.8130  178.1990  138.9260 C   0  0  0  0  0  0  0  0  0  0  0  0
  184.5870  176.7080  137.0900 C   0  0  0  0  0  2  0  0  0  0  0  0
  188.5440  177.4510  139.0830 C   0  0  0  0  0  1  0  0  0  0  0  0
  182.5500  179.2520  140.7580 C   0  0  0  0  0  3  0  0  0  0  0  0
  182.7610  179.1090  139.4480 C   0  0  0  0  0  0  0  0  0  0  0  0
  185.5460  178.5480  140.6860 C   0  0  2  0  0  3  0  0  0  0  0  0
  183.5340  177.4840  137.8240 C   0  0  0  0  0  2  0  0  0  0  0  0
  181.1630  181.9970  137.5650 C   0  0  0  0  0  0  0  0  0  0  0  0
  180.2120  181.3330  136.7860 C   0  0  0  0  0  3  0  0  0  0  0  0
  181.8870  179.8740  138.5140 C   0  0  0  0  0  0  0  0  0  0  0  0
  180.0890  179.9440  136.8700 C   0  0  0  0  0  3  0  0  0  0  0  0
  181.9910  181.2730  138.4250 C   0  0  0  0  0  3  0  0  0  0  0  0
  180.9190  179.2200  137.7310 C   0  0  0  0  0  3  0  0  0  0  0  0
  181.3160  183.7370  137.4640 Cl  0  0  0  0  0  0  0  0  0  0  0  0
  185.1390  177.6520  143.0550 C   0  0  0  0  0  2  0  0  0  0  0  0
  184.7530  178.4840  144.2630 C   0  0  0  0  0  2  0  0  0  0  0  0
  186.0020  179.0650  144.8970 C   0  0  0  0  0  2  0  0  0  0  0  0
  188.5460  177.7550  144.0480 C   0  0  0  0  0  1  0  0  0  0  0  0
  186.6290  178.0510  145.8420 C   0  0  1  0  0  3  0  0  0  0  0  0
  188.0540  177.6680  145.4560 C   0  0  0  0  0  0  0  0  0  0  0  0
  188.4200  177.0400  147.8230 C   0  0  0  0  0  2  0  0  0  0  0  0
  187.4310  178.1190  148.1810 C   0  0  0  0  0  3  0  0  0  0  0  0
  186.5870  178.5900  147.2510 C   0  0  0  0  0  3  0  0  0  0  0  0
  188.8880  177.2000  146.3990 C   0  0  0  0  0  3  0  0  0  0  0  0
  1  8  2  0  0  0  0
  2 13  1  1  0  0  0
  3 16  1  0  0  0  0
  5 10  2  0  0  0  0
  6  2  1  0  0  0  0
  8  2  1  0  0  0  0
  8  3  1  0  0  0  0
  9  4  2  0  0  0  0
  9 25  1  0  0  0  0
 10  6  1  0  0  0  0
 10  1  1  0  0  0  0
 11  3  2  0  0  0  0
 11 15  1  0  0  0  0
 12  1  1  0  0  0  0
 12 17  1  0  0  0  0
 14  4  1  0  0  0  0
 15 14  2  0  0  0  0
 16  7  1  1  0  0  0
 16  9  1  0  0  0  0
 17 11  1  0  0  0  0
 18 22  1  0  0  0  0
 19 21  1  0  0  0  0
 19 18  2  0  0  0  0
 20 15  1  0  0  0  0
 21 23  2  0  0  0  0
 22 20  2  0  0  0  0
 23 20  1  0  0  0  0
 24 18  1  0  0  0  0
 25 26  1  0  0  0  0
 26 27  1  0  0  0  0
 28 30  1  0  0  0  0
 29 27  1  6  0  0  0
 29 33  1  0  0  0  0
 30 29  1  0  0  0  0
 30 34  2  0  0  0  0
 31 32  1  0  0  0  0
 33 32  2  0  0  0  0
 34 31  1  0  0  0  0
M  END
>  <MODEL>
2

>  <REMARK>
 VINA RESULT:      -8.4      3.915      6.073
  Name = 
  5 active torsions:
  status: ('A' for Active; 'I' for Inactive)
    1  A    between atoms: C_3  and  C_13
    2  A    between atoms: C_3  and  C_17
    3  A    between atoms: C_12  and  C_28
    4  A    between atoms: C_17  and  C_29
    5  A    between atoms: C_18  and  C_29
                            x       y       z     vdW  Elec       q    Type
                         _______ _______ _______ _____ _____    ______ ____

>  <TORSDO>
F 5

$$$$
=
 OpenBabel10262423443D

 34 38  0  0  1  0  0  0  0  0999 V2000
  181.9690  179.0880  139.0290 C   0  0  0  0  0  0  0  0  0  0  0  0
  181.0420  177.6770  140.7020 C   0  0  1  0  0  3  0  0  0  0  0  0
  183.5280  178.7320  140.8820 C   0  0  0  0  0  0  0  0  0  0  0  0
  186.0930  179.3260  142.5680 C   0  0  0  0  0  3  0  0  0  0  0  0
  180.2140  179.2320  137.4220 O   0  0  0  0  0  0  0  0  0  0  0  0
  179.9820  177.2880  139.2550 S   0  0  0  0  0  0  0  0  0  0  0  0
  182.7340  177.8540  143.0720 C   0  0  0  0  0  1  0  0  0  0  0  0
  182.2000  178.5100  140.2040 C   0  0  0  0  0  0  0  0  0  0  0  0
  184.8210  179.2540  142.9620 C   0  0  0  0  0  0  0  0  0  0  0  0
  180.7320  178.6640  138.4180 C   0  0  0  0  0  0  0  0  0  0  0  0
  184.6230  179.2010  139.9750 C   0  0  0  0  0  0  0  0  0  0  0  0
  182.8830  180.1330  138.4620 C   0  0  0  0  0  2  0  0  0  0  0  0
  180.1960  178.4930  141.6670 C   0  0  0  0  0  1  0  0  0  0  0  0
  186.6560  178.8290  141.3130 C   0  0  0  0  0  3  0  0  0  0  0  0
  186.0220  178.7280  140.1440 C   0  0  0  0  0  0  0  0  0  0  0  0
  183.7250  178.5760  142.2170 C   0  0  2  0  0  3  0  0  0  0  0  0
  184.3030  179.8160  138.8260 C   0  0  0  0  0  2  0  0  0  0  0  0
  188.8740  177.4460  137.9840 C   0  0  0  0  0  0  0  0  0  0  0  0
  188.2020  177.0960  136.8110 C   0  0  0  0  0  3  0  0  0  0  0  0
  186.7720  178.1490  138.9930 C   0  0  0  0  0  0  0  0  0  0  0  0
  186.8200  177.2740  136.7190 C   0  0  0  0  0  3  0  0  0  0  0  0
  188.1640  177.9710  139.0660 C   0  0  0  0  0  3  0  0  0  0  0  0
  186.1100  177.8000  137.8020 C   0  0  0  0  0  3  0  0  0  0  0  0
  190.6060  177.2270  138.1000 Cl  0  0  0  0  0  0  0  0  0  0  0  0
  184.5140  179.8550  144.2960 C   0  0  0  0  0  2  0  0  0  0  0  0
  185.5560  179.4210  145.3080 C   0  0  0  0  0  2  0  0  0  0  0  0
  185.5110  177.9140  145.4660 C   0  0  0  0  0  2  0  0  0  0  0  0
  188.0400  177.0490  144.1360 C   0  0  0  0  0  1  0  0  0  0  0  0
  186.6570  177.4460  146.3520 C   0  0  1  0  0  3  0  0  0  0  0  0
  187.9800  177.3120  145.6060 C   0  0  0  0  0  0  0  0  0  0  0  0
  189.1220  177.5990  147.7840 C   0  0  0  0  0  2  0  0  0  0  0  0
  187.9590  178.4650  148.1920 C   0  0  0  0  0  3  0  0  0  0  0  0
  186.8000  178.3900  147.5210 C   0  0  0  0  0  3  0  0  0  0  0  0
  189.1330  177.3930  146.2900 C   0  0  0  0  0  3  0  0  0  0  0  0
  1  8  2  0  0  0  0
  2 13  1  1  0  0  0
  3 16  1  0  0  0  0
  4  9  2  0  0  0  0
  5 10  2  0  0  0  0
  6  2  1  0  0  0  0
  8  2  1  0  0  0  0
  8  3  1  0  0  0  0
  9 25  1  0  0  0  0
 10  1  1  0  0  0  0
 10  6  1  0  0  0  0
 11 15  1  0  0  0  0
 11  3  2  0  0  0  0
 12 17  1  0  0  0  0
 12  1  1  0  0  0  0
 14  4  1  0  0  0  0
 15 14  2  0  0  0  0
 16  9  1  0  0  0  0
 16  7  1  1  0  0  0
 17 11  1  0  0  0  0
 18 24  1  0  0  0  0
 18 22  1  0  0  0  0
 19 18  2  0  0  0  0
 20 22  2  0  0  0  0
 20 15  1  0  0  0  0
 21 19  1  0  0  0  0
 21 23  2  0  0  0  0
 23 20  1  0  0  0  0
 25 26  1  0  0  0  0
 26 27  1  0  0  0  0
 28 30  1  0  0  0  0
 29 27  1  6  0  0  0
 29 33  1  0  0  0  0
 30 34  2  0  0  0  0
 30 29  1  0  0  0  0
 31 32  1  0  0  0  0
 33 32  2  0  0  0  0
 34 31  1  0  0  0  0
M  END
>  <MODEL>
3

>  <REMARK>
 VINA RESULT:      -7.8      4.840      7.822
  Name = 
  5 active torsions:
  status: ('A' for Active; 'I' for Inactive)
    1  A    between atoms: C_3  and  C_13
    2  A    between atoms: C_3  and  C_17
    3  A    between atoms: C_12  and  C_28
    4  A    between atoms: C_17  and  C_29
    5  A    between atoms: C_18  and  C_29
                            x       y       z     vdW  Elec       q    Type
                         _______ _______ _______ _____ _____    ______ ____

>  <TORSDO>
F 5

$$$$
=
 OpenBabel10262423443D

 34 38  0  0  1  0  0  0  0  0999 V2000
  192.8000  176.0910  138.5350 C   0  0  0  0  0  0  0  0  0  0  0  0
  191.4710  174.6070  137.2390 C   0  0  1  0  0  3  0  0  0  0  0  0
  190.4090  176.5270  138.8250 C   0  0  0  0  0  0  0  0  0  0  0  0
  187.9360  178.1980  139.7540 C   0  0  0  0  0  3  0  0  0  0  0  0
  195.0230  175.4110  138.0080 O   0  0  0  0  0  0  0  0  0  0  0  0
  193.0700  173.7110  137.3100 S   0  0  0  0  0  0  0  0  0  0  0  0
  188.7400  175.6340  137.2080 C   0  0  0  0  0  1  0  0  0  0  0  0
  191.5540  175.7600  138.2140 C   0  0  0  0  0  0  0  0  0  0  0  0
  188.2110  177.6960  138.5510 C   0  0  0  0  0  0  0  0  0  0  0  0
  193.7870  175.1780  138.0110 C   0  0  0  0  0  0  0  0  0  0  0  0
  190.7560  177.2790  140.0720 C   0  0  0  0  0  0  0  0  0  0  0  0
  193.1200  177.3410  139.3000 C   0  0  0  0  0  2  0  0  0  0  0  0
  191.3200  175.1390  135.8220 C   0  0  0  0  0  1  0  0  0  0  0  0
  188.5540  177.8270  141.0270 C   0  0  0  0  0  3  0  0  0  0  0  0
  189.7990  177.3830  141.2050 C   0  0  0  0  0  0  0  0  0  0  0  0
  189.1680  176.5870  138.2770 C   0  0  0  0  0  0  0  0  0  0  0  0
  192.0360  177.6140  140.3000 C   0  0  0  0  0  3  0  0  0  0  0  0
  189.9640  177.2460  144.9990 C   0  0  0  0  0  0  0  0  0  0  0  0
  191.0260  176.3610  145.2020 C   0  0  0  0  0  3  0  0  0  0  0  0
  190.2170  177.0150  142.5870 C   0  0  0  0  0  0  0  0  0  0  0  0
  191.6910  175.8060  144.1070 C   0  0  0  0  0  3  0  0  0  0  0  0
  189.5650  177.5720  143.7010 C   0  0  0  0  0  3  0  0  0  0  0  0
  191.2900  176.1330  142.8080 C   0  0  0  0  0  3  0  0  0  0  0  0
  189.1330  177.9460  146.3700 Cl  0  0  0  0  0  0  0  0  0  0  0  0
  187.4330  178.2660  137.4090 C   0  0  0  0  0  2  0  0  0  0  0  0
  185.9830  178.4460  137.8150 C   0  0  0  0  0  2  0  0  0  0  0  0
  185.1920  177.2120  137.4260 C   0  0  0  0  0  2  0  0  0  0  0  0
  183.7180  174.6390  137.7680 C   0  0  0  0  0  1  0  0  0  0  0  0
  183.8020  177.2650  138.0450 C   0  0  1  0  0  3  0  0  0  0  0  0
  183.2670  175.8940  138.4430 C   0  0  0  0  0  0  0  0  0  0  0  0
  181.8020  177.0480  140.0720 C   0  0  0  0  0  2  0  0  0  0  0  0
  182.8860  178.0880  140.1900 C   0  0  0  0  0  3  0  0  0  0  0  0
  183.8220  178.1930  139.2360 C   0  0  0  0  0  3  0  0  0  0  0  0
  182.3310  175.8050  139.4030 C   0  0  0  0  0  3  0  0  0  0  0  0
  1 12  1  0  0  0  0
  2 13  1  6  0  0  0
  2  6  1  0  0  0  0
  2  8  1  0  0  0  0
  3 11  1  0  0  0  0
  4 14  1  0  0  0  0
  5 10  2  0  0  0  0
  6 10  1  0  0  0  0
  7 16  1  0  0  0  0
  8  1  2  0  0  0  0
  8  3  1  0  0  0  0
  9  4  2  0  0  0  0
 10  1  1  0  0  0  0
 11 17  2  0  0  0  0
 11 15  1  0  0  0  0
 12 17  1  0  0  0  0
 14 15  2  0  0  0  0
 15 20  1  0  0  0  0
 16  9  1  0  0  0  0
 16  3  2  0  0  0  0
 18 19  1  0  0  0  0
 18 24  1  0  0  0  0
 20 23  2  0  0  0  0
 20 22  1  0  0  0  0
 21 19  2  0  0  0  0
 22 18  2  0  0  0  0
 23 21  1  0  0  0  0
 25 26  1  0  0  0  0
 25  9  1  0  0  0  0
 27 26  1  0  0  0  0
 28 30  1  0  0  0  0
 29 27  1  1  0  0  0
 29 30  1  0  0  0  0
 29 33  1  0  0  0  0
 30 34  2  0  0  0  0
 31 32  1  0  0  0  0
 33 32  2  0  0  0  0
 34 31  1  0  0  0  0
M  END
>  <MODEL>
4

>  <REMARK>
 VINA RESULT:      -7.8      3.045      6.495
  Name = 
  5 active torsions:
  status: ('A' for Active; 'I' for Inactive)
    1  A    between atoms: C_3  and  C_13
    2  A    between atoms: C_3  and  C_17
    3  A    between atoms: C_12  and  C_28
    4  A    between atoms: C_17  and  C_29
    5  A    between atoms: C_18  and  C_29
                            x       y       z     vdW  Elec       q    Type
                         _______ _______ _______ _____ _____    ______ ____

>  <TORSDO>
F 5

$$$$
=
 OpenBabel10262423443D

 34 38  0  0  1  0  0  0  0  0999 V2000
  186.3080  176.1630  136.2960 C   0  0  0  0  0  0  0  0  0  0  0  0
  188.3260  177.4140  136.1710 C   0  0  1  0  0  3  0  0  0  0  0  0
  186.5470  177.6920  138.1920 C   0  0  0  0  0  0  0  0  0  0  0  0
  185.8240  178.8230  141.0150 C   0  0  0  0  0  3  0  0  0  0  0  0
  186.4100  174.7950  134.3460 O   0  0  0  0  0  0  0  0  0  0  0  0
  188.1250  176.8560  134.4350 S   0  0  0  0  0  0  0  0  0  0  0  0
  188.7530  178.6990  138.7560 C   0  0  0  0  0  1  0  0  0  0  0  0
  187.0440  177.0900  136.9030 C   0  0  0  0  0  0  0  0  0  0  0  0
  187.0040  178.4220  140.5440 C   0  0  0  0  0  0  0  0  0  0  0  0
  186.8170  175.7920  134.9970 C   0  0  0  0  0  0  0  0  0  0  0  0
  185.0780  177.5320  138.4320 C   0  0  0  0  0  0  0  0  0  0  0  0
  185.1210  175.5300  136.9560 C   0  0  0  0  0  2  0  0  0  0  0  0
  189.4760  176.6150  136.7660 C   0  0  0  0  0  1  0  0  0  0  0  0
  184.6260  179.1420  140.2390 C   0  0  0  0  0  3  0  0  0  0  0  0
  184.2750  178.6100  139.0670 C   0  0  0  0  0  0  0  0  0  0  0  0
  187.3570  178.2910  139.1020 C   0  0  2  0  0  3  0  0  0  0  0  0
  184.4180  176.5410  137.8110 C   0  0  0  0  0  2  0  0  0  0  0  0
  181.4950  180.9390  137.9330 C   0  0  0  0  0  0  0  0  0  0  0  0
  180.6620  180.0620  137.2350 C   0  0  0  0  0  3  0  0  0  0  0  0
  183.0310  179.1120  138.4180 C   0  0  0  0  0  0  0  0  0  0  0  0
  181.0010  178.7120  137.1290 C   0  0  0  0  0  3  0  0  0  0  0  0
  182.6690  180.4660  138.5230 C   0  0  0  0  0  3  0  0  0  0  0  0
  182.1770  178.2390  137.7200 C   0  0  0  0  0  3  0  0  0  0  0  0
  181.0690  182.6310  138.0690 Cl  0  0  0  0  0  0  0  0  0  0  0  0
  188.0610  178.1530  141.5660 C   0  0  0  0  0  2  0  0  0  0  0  0
  187.4470  178.1560  142.9530 C   0  0  0  0  0  2  0  0  0  0  0  0
  187.5390  176.7650  143.5490 C   0  0  0  0  0  2  0  0  0  0  0  0
  190.1210  177.1480  144.9980 C   0  0  0  0  0  1  0  0  0  0  0  0
  187.4970  176.8440  145.0680 C   0  0  1  0  0  3  0  0  0  0  0  0
  188.8050  177.3300  145.6840 C   0  0  0  0  0  0  0  0  0  0  0  0
  187.4930  178.0590  147.6530 C   0  0  0  0  0  2  0  0  0  0  0  0
  186.3490  178.3050  146.7020 C   0  0  0  0  0  3  0  0  0  0  0  0
  186.3500  177.7310  145.4900 C   0  0  0  0  0  3  0  0  0  0  0  0
  188.7880  177.9060  146.8970 C   0  0  0  0  0  3  0  0  0  0  0  0
  1  8  2  0  0  0  0
  1 12  1  0  0  0  0
  2 13  1  1  0  0  0
  2  8  1  0  0  0  0
  3 11  2  0  0  0  0
  3 16  1  0  0  0  0
  5 10  2  0  0  0  0
  6 10  1  0  0  0  0
  6  2  1  0  0  0  0
  8  3  1  0  0  0  0
  9  4  2  0  0  0  0
  9 25  1  0  0  0  0
 10  1  1  0  0  0  0
 11 15  1  0  0  0  0
 12 17  1  0  0  0  0
 14  4  1  0  0  0  0
 15 14  2  0  0  0  0
 16  7  1  1  0  0  0
 16  9  1  0  0  0  0
 17 11  1  0  0  0  0
 18 24  1  0  0  0  0
 18 22  1  0  0  0  0
 19 18  2  0  0  0  0
 20 22  2  0  0  0  0
 20 15  1  0  0  0  0
 21 19  1  0  0  0  0
 21 23  2  0  0  0  0
 23 20  1  0  0  0  0
 25 26  1  0  0  0  0
 26 27  1  0  0  0  0
 28 30  1  0  0  0  0
 29 27  1  6  0  0  0
 29 33  1  0  0  0  0
 29 30  1  0  0  0  0
 30 34  2  0  0  0  0
 32 31  1  0  0  0  0
 33 32  2  0  0  0  0
 34 31  1  0  0  0  0
M  END
>  <MODEL>
5

>  <REMARK>
 VINA RESULT:      -7.7      3.264      4.850
  Name = 
  5 active torsions:
  status: ('A' for Active; 'I' for Inactive)
    1  A    between atoms: C_3  and  C_13
    2  A    between atoms: C_3  and  C_17
    3  A    between atoms: C_12  and  C_28
    4  A    between atoms: C_17  and  C_29
    5  A    between atoms: C_18  and  C_29
                            x       y       z     vdW  Elec       q    Type
                         _______ _______ _______ _____ _____    ______ ____

>  <TORSDO>
F 5

$$$$
=
 OpenBabel10262423443D

 34 38  0  0  1  0  0  0  0  0999 V2000
  187.8330  173.2430  136.3310 C   0  0  0  0  0  0  0  0  0  0  0  0
  189.9010  174.0200  135.4540 C   0  0  1  0  0  3  0  0  0  0  0  0
  188.2880  175.5550  136.9930 C   0  0  0  0  0  0  0  0  0  0  0  0
  187.8300  178.1550  138.6670 C   0  0  0  0  0  3  0  0  0  0  0  0
  187.7220  171.0020  135.5240 O   0  0  0  0  0  0  0  0  0  0  0  0
  189.5480  172.5880  134.3620 S   0  0  0  0  0  0  0  0  0  0  0  0
  190.5800  176.5100  136.8130 C   0  0  0  0  0  1  0  0  0  0  0  0
  188.6590  174.2830  136.2730 C   0  0  0  0  0  0  0  0  0  0  0  0
  188.9510  177.4570  138.4810 C   0  0  0  0  0  0  0  0  0  0  0  0
  188.2270  172.1530  135.4700 C   0  0  0  0  0  0  0  0  0  0  0  0
  186.8330  175.6870  137.3210 C   0  0  0  0  0  0  0  0  0  0  0  0
  186.6630  173.2050  137.2680 C   0  0  0  0  0  2  0  0  0  0  0  0
  191.0460  173.6110  136.3680 C   0  0  0  0  0  1  0  0  0  0  0  0
  186.5990  178.0720  137.8820 C   0  0  0  0  0  3  0  0  0  0  0  0
  186.1370  176.9970  137.2400 C   0  0  0  0  0  0  0  0  0  0  0  0
  189.1930  176.4960  137.3690 C   0  0  2  0  0  3  0  0  0  0  0  0
  186.0780  174.5790  137.4030 C   0  0  0  0  0  2  0  0  0  0  0  0
  182.4980  177.6460  136.3610 C   0  0  0  0  0  0  0  0  0  0  0  0
  182.4880  177.3760  134.9910 C   0  0  0  0  0  3  0  0  0  0  0  0
  184.8790  177.1420  136.4550 C   0  0  0  0  0  0  0  0  0  0  0  0
  183.6640  176.9830  134.3480 C   0  0  0  0  0  3  0  0  0  0  0  0
  183.6840  177.5270  137.0880 C   0  0  0  0  0  3  0  0  0  0  0  0
  184.8510  176.8640  135.0760 C   0  0  0  0  0  3  0  0  0  0  0  0
  181.0250  178.1340  137.1680 Cl  0  0  0  0  0  0  0  0  0  0  0  0
  190.0610  177.7330  139.4420 C   0  0  0  0  0  2  0  0  0  0  0  0
  190.1100  176.6450  140.4970 C   0  0  0  0  0  2  0  0  0  0  0  0
  190.9020  177.1350  141.6930 C   0  0  0  0  0  2  0  0  0  0  0  0
  191.4970  178.8040  144.0960 C   0  0  0  0  0  1  0  0  0  0  0  0
  190.1540  176.8200  142.9810 C   0  0  1  0  0  3  0  0  0  0  0  0
  190.3080  177.9000  144.0470 C   0  0  0  0  0  0  0  0  0  0  0  0
  188.1790  177.0970  145.0250 C   0  0  0  0  0  2  0  0  0  0  0  0
  187.7670  176.7230  143.6240 C   0  0  0  0  0  3  0  0  0  0  0  0
  188.6960  176.5890  142.6660 C   0  0  0  0  0  3  0  0  0  0  0  0
  189.3680  178.0240  144.9990 C   0  0  0  0  0  3  0  0  0  0  0  0
  1 12  1  0  0  0  0
  2  8  1  0  0  0  0
  2 13  1  1  0  0  0
  3 11  2  0  0  0  0
  3 16  1  0  0  0  0
  6  2  1  0  0  0  0
  6 10  1  0  0  0  0
  8  1  2  0  0  0  0
  8  3  1  0  0  0  0
  9  4  2  0  0  0  0
  9 25  1  0  0  0  0
 10  5  2  0  0  0  0
 10  1  1  0  0  0  0
 11 17  1  0  0  0  0
 12 17  1  0  0  0  0
 14  4  1  0  0  0  0
 15 11  1  0  0  0  0
 15 14  2  0  0  0  0
 16  7  1  1  0  0  0
 16  9  1  0  0  0  0
 18 22  1  0  0  0  0
 18 24  1  0  0  0  0
 19 18  2  0  0  0  0
 20 22  2  0  0  0  0
 20 15  1  0  0  0  0
 21 19  1  0  0  0  0
 21 23  2  0  0  0  0
 23 20  1  0  0  0  0
 25 26  1  0  0  0  0
 26 27  1  0  0  0  0
 29 27  1  6  0  0  0
 29 30  1  0  0  0  0
 30 28  1  0  0  0  0
 30 34  2  0  0  0  0
 32 31  1  0  0  0  0
 33 29  1  0  0  0  0
 33 32  2  0  0  0  0
 34 31  1  0  0  0  0
M  END
>  <MODEL>
6

>  <REMARK>
 VINA RESULT:      -7.5      2.196      3.391
  Name = 
  5 active torsions:
  status: ('A' for Active; 'I' for Inactive)
    1  A    between atoms: C_3  and  C_13
    2  A    between atoms: C_3  and  C_17
    3  A    between atoms: C_12  and  C_28
    4  A    between atoms: C_17  and  C_29
    5  A    between atoms: C_18  and  C_29
                            x       y       z     vdW  Elec       q    Type
                         _______ _______ _______ _____ _____    ______ ____

>  <TORSDO>
F 5

$$$$
=
 OpenBabel10262423443D

 34 38  0  0  1  0  0  0  0  0999 V2000
  188.6330  177.5340  136.9750 C   0  0  0  0  0  0  0  0  0  0  0  0
  186.7540  176.2720  136.2480 C   0  0  1  0  0  3  0  0  0  0  0  0
  186.7080  177.8370  138.4560 C   0  0  0  0  0  0  0  0  0  0  0  0
  185.0960  179.2340  140.7420 C   0  0  0  0  0  3  0  0  0  0  0  0
  190.2810  177.0290  135.3280 O   0  0  0  0  0  0  0  0  0  0  0  0
  188.1300  175.4260  135.3780 S   0  0  0  0  0  0  0  0  0  0  0  0
  184.4150  177.2050  137.7220 C   0  0  0  0  0  1  0  0  0  0  0  0
  187.3670  177.2290  137.2440 C   0  0  0  0  0  0  0  0  0  0  0  0
  184.7270  178.9690  139.4890 C   0  0  0  0  0  0  0  0  0  0  0  0
  189.1860  176.7620  135.8880 C   0  0  0  0  0  0  0  0  0  0  0  0
  187.6580  178.3590  139.4890 C   0  0  0  0  0  0  0  0  0  0  0  0
  189.3580  178.6310  137.6930 C   0  0  0  0  0  2  0  0  0  0  0  0
  185.9740  177.0490  135.1980 C   0  0  0  0  0  1  0  0  0  0  0  0
  186.2260  178.6560  141.4690 C   0  0  0  0  0  3  0  0  0  0  0  0
  187.3730  178.2240  140.9410 C   0  0  0  0  0  0  0  0  0  0  0  0
  185.3630  177.9580  138.5980 C   0  0  0  0  0  0  0  0  0  0  0  0
  188.9080  178.6850  139.1230 C   0  0  0  0  0  3  0  0  0  0  0  0
  189.1680  177.1700  144.1200 C   0  0  0  0  0  0  0  0  0  0  0  0
  190.2970  176.5290  143.6050 C   0  0  0  0  0  3  0  0  0  0  0  0
  188.3800  177.6230  141.8610 C   0  0  0  0  0  0  0  0  0  0  0  0
  190.4780  176.4370  142.2240 C   0  0  0  0  0  3  0  0  0  0  0  0
  188.2180  177.7150  143.2540 C   0  0  0  0  0  3  0  0  0  0  0  0
  189.5270  176.9830  141.3570 C   0  0  0  0  0  3  0  0  0  0  0  0
  188.9420  177.2900  145.8510 Cl  0  0  0  0  0  0  0  0  0  0  0  0
  183.5330  179.7140  138.9860 C   0  0  0  0  0  2  0  0  0  0  0  0
  182.3430  179.4480  139.8880 C   0  0  0  0  0  2  0  0  0  0  0  0
  181.0730  179.4400  139.0600 C   0  0  0  0  0  2  0  0  0  0  0  0
  180.9340  178.4440  136.2490 C   0  0  0  0  0  1  0  0  0  0  0  0
  180.6050  178.0090  138.8350 C   0  0  1  0  0  3  0  0  0  0  0  0
  180.8490  177.5110  137.4140 C   0  0  0  0  0  0  0  0  0  0  0  0
  180.8190  175.2080  138.3220 C   0  0  0  0  0  2  0  0  0  0  0  0
  181.3790  175.7870  139.5960 C   0  0  0  0  0  3  0  0  0  0  0  0
  181.2750  177.1020  139.8380 C   0  0  0  0  0  3  0  0  0  0  0  0
  180.9550  176.1920  137.1880 C   0  0  0  0  0  3  0  0  0  0  0  0
  1  8  2  0  0  0  0
  1 12  1  0  0  0  0
  2 13  1  6  0  0  0
  2  8  1  0  0  0  0
  3 16  2  0  0  0  0
  3 11  1  0  0  0  0
  4 14  1  0  0  0  0
  5 10  2  0  0  0  0
  6 10  1  0  0  0  0
  6  2  1  0  0  0  0
  7 16  1  0  0  0  0
  8  3  1  0  0  0  0
  9  4  2  0  0  0  0
 10  1  1  0  0  0  0
 11 15  1  0  0  0  0
 12 17  1  0  0  0  0
 15 14  2  0  0  0  0
 15 20  1  0  0  0  0
 16  9  1  0  0  0  0
 17 11  2  0  0  0  0
 18 24  1  0  0  0  0
 19 18  1  0  0  0  0
 20 22  1  0  0  0  0
 21 19  2  0  0  0  0
 22 18  2  0  0  0  0
 23 20  2  0  0  0  0
 23 21  1  0  0  0  0
 25  9  1  0  0  0  0
 25 26  1  0  0  0  0
 27 26  1  0  0  0  0
 28 30  1  0  0  0  0
 29 27  1  6  0  0  0
 29 33  1  0  0  0  0
 30 29  1  0  0  0  0
 31 32  1  0  0  0  0
 32 33  2  0  0  0  0
 34 30  2  0  0  0  0
 34 31  1  0  0  0  0
M  END
>  <MODEL>
7

>  <REMARK>
 VINA RESULT:      -7.5      3.994      7.703
  Name = 
  5 active torsions:
  status: ('A' for Active; 'I' for Inactive)
    1  A    between atoms: C_3  and  C_13
    2  A    between atoms: C_3  and  C_17
    3  A    between atoms: C_12  and  C_28
    4  A    between atoms: C_17  and  C_29
    5  A    between atoms: C_18  and  C_29
                            x       y       z     vdW  Elec       q    Type
                         _______ _______ _______ _____ _____    ______ ____

>  <TORSDO>
F 5

$$$$
=
 OpenBabel10262423443D

 34 38  0  0  1  0  0  0  0  0999 V2000
  182.5000  179.5220  140.2860 C   0  0  0  0  0  0  0  0  0  0  0  0
  182.6620  178.3450  142.3450 C   0  0  1  0  0  3  0  0  0  0  0  0
  184.7420  178.6050  140.6330 C   0  0  0  0  0  0  0  0  0  0  0  0
  187.7950  178.3070  140.0300 C   0  0  0  0  0  3  0  0  0  0  0  0
  180.2390  180.2790  140.2840 O   0  0  0  0  0  0  0  0  0  0  0  0
  180.8470  178.3780  142.0760 S   0  0  0  0  0  0  0  0  0  0  0  0
  185.4880  177.8640  142.8900 C   0  0  0  0  0  1  0  0  0  0  0  0
  183.3180  178.8280  141.0720 C   0  0  0  0  0  0  0  0  0  0  0  0
  187.1860  178.5890  141.1810 C   0  0  0  0  0  0  0  0  0  0  0  0
  181.1310  179.5210  140.7450 C   0  0  0  0  0  0  0  0  0  0  0  0
  184.9810  178.7850  139.1660 C   0  0  0  0  0  0  0  0  0  0  0  0
  182.9960  180.2840  139.0940 C   0  0  0  0  0  2  0  0  0  0  0  0
  182.9620  179.3120  143.4800 C   0  0  0  0  0  1  0  0  0  0  0  0
  187.1860  177.7470  138.8240 C   0  0  0  0  0  3  0  0  0  0  0  0
  185.9250  177.9110  138.4220 C   0  0  0  0  0  0  0  0  0  0  0  0
  185.7550  178.3140  141.4900 C   0  0  2  0  0  3  0  0  0  0  0  0
  184.1280  179.5390  138.4530 C   0  0  0  0  0  2  0  0  0  0  0  0
  184.1290  175.5180  136.0790 C   0  0  0  0  0  0  0  0  0  0  0  0
  184.6990  175.8510  134.8470 C   0  0  0  0  0  3  0  0  0  0  0  0
  185.4920  177.2100  137.1800 C   0  0  0  0  0  0  0  0  0  0  0  0
  185.6670  176.8550  134.7750 C   0  0  0  0  0  3  0  0  0  0  0  0
  184.5260  176.1920  137.2360 C   0  0  0  0  0  3  0  0  0  0  0  0
  186.0630  177.5280  135.9340 C   0  0  0  0  0  3  0  0  0  0  0  0
  182.9190  174.2590  136.1720 Cl  0  0  0  0  0  0  0  0  0  0  0  0
  188.0500  179.1690  142.2540 C   0  0  0  0  0  2  0  0  0  0  0  0
  189.3040  178.3310  142.4130 C   0  0  0  0  0  2  0  0  0  0  0  0
  189.0500  177.2240  143.4170 C   0  0  0  0  0  2  0  0  0  0  0  0
  187.5010  177.5550  145.9480 C   0  0  0  0  0  1  0  0  0  0  0  0
  189.8280  177.4900  144.6970 C   0  0  1  0  0  3  0  0  0  0  0  0
  188.9820  177.3500  145.9580 C   0  0  0  0  0  0  0  0  0  0  0  0
  191.0800  176.9110  147.1980 C   0  0  0  0  0  2  0  0  0  0  0  0
  191.6080  176.2940  145.9290 C   0  0  0  0  0  3  0  0  0  0  0  0
  191.0230  176.5690  144.7550 C   0  0  0  0  0  3  0  0  0  0  0  0
  189.5820  177.0700  147.1270 C   0  0  0  0  0  3  0  0  0  0  0  0
  1 10  1  0  0  0  0
  1  8  2  0  0  0  0
  2 13  1  1  0  0  0
  3  8  1  0  0  0  0
  3 16  1  0  0  0  0
  4  9  2  0  0  0  0
  5 10  2  0  0  0  0
  6  2  1  0  0  0  0
  8  2  1  0  0  0  0
  9 16  1  0  0  0  0
  9 25  1  0  0  0  0
 10  6  1  0  0  0  0
 11  3  2  0  0  0  0
 12  1  1  0  0  0  0
 14  4  1  0  0  0  0
 15 14  2  0  0  0  0
 15 11  1  0  0  0  0
 16  7  1  1  0  0  0
 17 12  1  0  0  0  0
 17 11  1  0  0  0  0
 18 24  1  0  0  0  0
 18 22  1  0  0  0  0
 19 18  2  0  0  0  0
 20 22  2  0  0  0  0
 20 15  1  0  0  0  0
 21 19  1  0  0  0  0
 21 23  2  0  0  0  0
 23 20  1  0  0  0  0
 25 26  1  0  0  0  0
 26 27  1  0  0  0  0
 28 30  1  0  0  0  0
 29 27  1  6  0  0  0
 29 33  1  0  0  0  0
 29 30  1  0  0  0  0
 30 34  2  0  0  0  0
 32 31  1  0  0  0  0
 33 32  2  0  0  0  0
 34 31  1  0  0  0  0
M  END
>  <MODEL>
8

>  <REMARK>
 VINA RESULT:      -7.5      5.063      7.177
  Name = 
  5 active torsions:
  status: ('A' for Active; 'I' for Inactive)
    1  A    between atoms: C_3  and  C_13
    2  A    between atoms: C_3  and  C_17
    3  A    between atoms: C_12  and  C_28
    4  A    between atoms: C_17  and  C_29
    5  A    between atoms: C_18  and  C_29
                            x       y       z     vdW  Elec       q    Type
                         _______ _______ _______ _____ _____    ______ ____

>  <TORSDO>
F 5

$$$$
=
 OpenBabel10262423443D

 34 38  0  0  1  0  0  0  0  0999 V2000
  185.6780  178.7890  144.7830 C   0  0  0  0  0  0  0  0  0  0  0  0
  187.3930  177.1440  144.8310 C   0  0  1  0  0  3  0  0  0  0  0  0
  186.4070  178.1730  142.5290 C   0  0  0  0  0  0  0  0  0  0  0  0
  186.6010  178.5250  139.4290 C   0  0  0  0  0  3  0  0  0  0  0  0
  185.2320  179.1590  147.0960 O   0  0  0  0  0  0  0  0  0  0  0  0
  186.6580  176.9660  146.5030 S   0  0  0  0  0  0  0  0  0  0  0  0
  188.5610  176.9790  142.1620 C   0  0  0  0  0  1  0  0  0  0  0  0
  186.4830  178.0460  144.0300 C   0  0  0  0  0  0  0  0  0  0  0  0
  187.5780  178.3910  140.3260 C   0  0  0  0  0  0  0  0  0  0  0  0
  185.7380  178.4530  146.1860 C   0  0  0  0  0  0  0  0  0  0  0  0
  185.1360  178.7740  142.0160 C   0  0  0  0  0  0  0  0  0  0  0  0
  184.8620  179.9100  144.2120 C   0  0  0  0  0  2  0  0  0  0  0  0
  188.7510  177.8060  145.0090 C   0  0  0  0  0  1  0  0  0  0  0  0
  185.1830  178.2200  139.6180 C   0  0  0  0  0  3  0  0  0  0  0  0
  184.5020  178.2890  140.7620 C   0  0  0  0  0  0  0  0  0  0  0  0
  187.4200  177.8240  141.6940 C   0  0  0  0  0  0  0  0  0  0  0  0
  184.4030  179.5500  142.8310 C   0  0  0  0  0  3  0  0  0  0  0  0
  181.2970  176.4180  139.9430 C   0  0  0  0  0  0  0  0  0  0  0  0
  180.3530  177.1480  140.6690 C   0  0  0  0  0  3  0  0  0  0  0  0
  183.0660  177.8880  140.7440 C   0  0  0  0  0  0  0  0  0  0  0  0
  180.7550  178.2490  141.4280 C   0  0  0  0  0  3  0  0  0  0  0  0
  182.6430  176.7880  139.9790 C   0  0  0  0  0  3  0  0  0  0  0  0
  182.1030  178.6180  141.4630 C   0  0  0  0  0  3  0  0  0  0  0  0
  180.7950  175.0410  138.9890 Cl  0  0  0  0  0  0  0  0  0  0  0  0
  188.9450  178.7880  139.8700 C   0  0  0  0  0  2  0  0  0  0  0  0
  189.1200  178.4390  138.4050 C   0  0  0  0  0  2  0  0  0  0  0  0
  190.1040  177.2930  138.2720 C   0  0  0  0  0  2  0  0  0  0  0  0
  191.7960  174.8960  137.7210 C   0  0  0  0  0  1  0  0  0  0  0  0
  189.6090  176.2970  137.2330 C   0  0  1  0  0  3  0  0  0  0  0  0
  190.3830  174.9830  137.2400 C   0  0  0  0  0  0  0  0  0  0  0  0
  188.3940  173.9210  136.2180 C   0  0  0  0  0  2  0  0  0  0  0  0
  187.5650  174.9290  136.9710 C   0  0  0  0  0  3  0  0  0  0  0  0
  188.1360  176.0470  137.4440 C   0  0  0  0  0  3  0  0  0  0  0  0
  189.7970  173.8710  136.7670 C   0  0  0  0  0  3  0  0  0  0  0  0
  1 10  1  0  0  0  0
  2 13  1  1  0  0  0
  2  6  1  0  0  0  0
  3  8  1  0  0  0  0
  4 14  1  0  0  0  0
  4  9  2  0  0  0  0
  8  1  2  0  0  0  0
  8  2  1  0  0  0  0
  9 16  1  0  0  0  0
 10  6  1  0  0  0  0
 10  5  2  0  0  0  0
 11  3  1  0  0  0  0
 11 17  2  0  0  0  0
 12  1  1  0  0  0  0
 14 15  2  0  0  0  0
 15 11  1  0  0  0  0
 16  7  1  0  0  0  0
 16  3  2  0  0  0  0
 17 12  1  0  0  0  0
 18 22  2  0  0  0  0
 18 19  1  0  0  0  0
 19 21  2  0  0  0  0
 20 15  1  0  0  0  0
 20 23  2  0  0  0  0
 21 23  1  0  0  0  0
 22 20  1  0  0  0  0
 24 18  1  0  0  0  0
 25  9  1  0  0  0  0
 26 25  1  0  0  0  0
 27 26  1  0  0  0  0
 29 30  1  0  0  0  0
 29 33  1  0  0  0  0
 29 27  1  1  0  0  0
 30 28  1  0  0  0  0
 31 34  1  0  0  0  0
 31 32  1  0  0  0  0
 32 33  2  0  0  0  0
 34 30  2  0  0  0  0
M  END
>  <MODEL>
9

>  <REMARK>
 VINA RESULT:      -7.3      4.598      8.357
  Name = 
  5 active torsions:
  status: ('A' for Active; 'I' for Inactive)
    1  A    between atoms: C_3  and  C_13
    2  A    between atoms: C_3  and  C_17
    3  A    between atoms: C_12  and  C_28
    4  A    between atoms: C_17  and  C_29
    5  A    between atoms: C_18  and  C_29
                            x       y       z     vdW  Elec       q    Type
                         _______ _______ _______ _____ _____    ______ ____

>  <TORSDO>
F 5

$$$$
