=
 OpenBabel10272402123D

 32 38  0  0  1  0  0  0  0  0999 V2000
  187.3700  177.8930  144.6950 C   0  0  1  0  0  3  0  0  0  0  0  0
  189.7080  177.4960  143.9540 C   0  0  1  0  0  3  0  0  0  0  0  0
  186.3340  177.4260  145.7160 C   0  0  0  0  0  2  0  0  0  0  0  0
  188.7030  177.2320  145.0410 C   0  0  1  0  0  3  0  0  0  0  0  0
  191.0130  176.7890  144.2870 C   0  0  1  0  0  3  0  0  0  0  0  0
  190.6850  177.1710  139.1810 C   0  0  0  0  0  3  0  0  0  0  0  0
  189.1730  176.8580  142.6730 C   0  0  1  0  0  3  0  0  0  0  0  0
  192.4750  177.1850  140.8150 C   0  0  0  0  0  3  0  0  0  0  0  0
  191.5390  177.0690  141.8450 C   0  0  0  0  0  0  0  0  0  0  0  0
  191.0840  176.1260  146.6440 C   0  0  2  0  0  3  0  0  0  0  0  0
  189.1670  177.8170  146.3690 C   0  0  2  0  0  3  0  0  0  0  0  0
  191.9750  177.0250  143.2130 N   0  0  0  0  0  2  0  0  0  0  0  0
  190.6340  177.5630  146.7770 C   0  0  2  0  0  3  0  0  0  0  0  0
  188.1820  177.4030  147.4650 C   0  0  0  0  0  2  0  0  0  0  0  0
  187.8280  177.3430  142.3490 N   0  0  0  0  0  0  0  0  0  0  0  0
  192.1560  175.8440  147.6740 C   0  0  0  0  0  1  0  0  0  0  0  0
  186.9490  177.7070  143.2450 C   0  0  0  0  0  0  0  0  0  0  0  0
  190.1580  177.0330  141.5440 C   0  0  0  0  0  0  0  0  0  0  0  0
  191.6040  177.1590  145.6500 C   0  0  2  0  0  3  0  0  0  0  0  0
  186.7630  177.8790  147.1180 C   0  0  0  0  0  2  0  0  0  0  0  0
  192.0480  177.2360  139.4840 C   0  0  0  0  0  3  0  0  0  0  0  0
  189.7420  177.0630  140.2070 C   0  0  0  0  0  3  0  0  0  0  0  0
  184.1270  179.1410  141.1020 C   0  0  0  0  0  0  0  0  0  0  0  0
  183.8830  179.5950  139.8120 O   0  0  0  0  0  1  0  0  0  0  0  0
  185.6260  178.2030  142.7880 C   0  0  0  0  0  0  0  0  0  0  0  0
  183.0900  179.1580  142.0370 C   0  0  0  0  0  3  0  0  0  0  0  0
  184.5640  178.2290  143.7060 C   0  0  0  0  0  3  0  0  0  0  0  0
  185.3990  178.6640  141.4660 C   0  0  0  0  0  0  0  0  0  0  0  0
  186.4720  178.6150  140.4250 C   0  0  0  0  0  1  0  0  0  0  0  0
  183.3030  178.7010  143.3400 C   0  0  0  0  0  0  0  0  0  0  0  0
  180.9830  178.6850  143.9890 N   0  0  0  0  0  2  0  0  0  0  0  0
  182.2280  178.7070  144.3380 C   0  0  0  0  0  3  0  0  0  0  0  0
  1  4  1  0  0  0  0
  1  3  1  1  0  0  0
  2  5  1  0  0  0  0
  2  4  1  0  0  0  0
  3 20  1  0  0  0  0
  4 11  1  0  0  0  0
  5 19  1  0  0  0  0
  6 21  2  0  0  0  0
  6 22  1  0  0  0  0
  7  2  1  0  0  0  0
  8  9  2  0  0  0  0
  9 12  1  0  0  0  0
 10 13  1  0  0  0  0
 10 16  1  0  0  0  0
 11 13  1  0  0  0  0
 11 14  1  0  0  0  0
 12  5  1  0  0  0  0
 15  7  1  0  0  0  0
 15 17  2  0  0  0  0
 17  1  1  0  0  0  0
 18  9  1  0  0  0  0
 18  7  1  0  0  0  0
 19 10  1  0  0  0  0
 19 13  1  0  0  0  0
 20 14  1  0  0  0  0
 21  8  1  0  0  0  0
 22 18  2  0  0  0  0
 23 28  2  0  0  0  0
 23 26  1  0  0  0  0
 24 23  1  0  0  0  0
 25 17  1  0  0  0  0
 25 27  2  0  0  0  0
 26 30  2  0  0  0  0
 28 25  1  0  0  0  0
 29 28  1  0  0  0  0
 30 27  1  0  0  0  0
 30 32  1  0  0  0  0
 31 32  2  0  0  0  0
M  END
>  <MODEL>
1

>  <REMARK>
 VINA RESULT:     -11.5      0.000      0.000
  Name = 
  2 active torsions:
  status: ('A' for Active; 'I' for Inactive)
    1  A    between atoms: C_15  and  C_26
    2  A    between atoms: C_16  and  C_27
                            x       y       z     vdW  Elec       q    Type
                         _______ _______ _______ _____ _____    ______ ____

>  <TORSDO>
F 2

$$$$
=
 OpenBabel10272402123D

 32 38  0  0  1  0  0  0  0  0999 V2000
  189.4960  177.2620  142.4630 C   0  0  1  0  0  3  0  0  0  0  0  0
  187.3390  177.6580  143.6290 C   0  0  1  0  0  3  0  0  0  0  0  0
  190.9910  177.5630  142.5570 C   0  0  0  0  0  2  0  0  0  0  0  0
  188.8350  177.7450  143.7520 C   0  0  1  0  0  3  0  0  0  0  0  0
  186.6940  178.1890  144.9000 C   0  0  1  0  0  3  0  0  0  0  0  0
  183.4100  178.9420  141.0300 C   0  0  0  0  0  3  0  0  0  0  0  0
  186.9190  178.5900  142.4950 C   0  0  1  0  0  3  0  0  0  0  0  0
  183.2270  178.4600  143.3990 C   0  0  0  0  0  3  0  0  0  0  0  0
  184.6200  178.4110  143.4990 C   0  0  0  0  0  0  0  0  0  0  0  0
  188.3190  178.3220  146.7290 C   0  0  2  0  0  3  0  0  0  0  0  0
  189.3450  176.8580  144.8810 C   0  0  2  0  0  3  0  0  0  0  0  0
  185.2410  178.1290  144.7640 N   0  0  0  0  0  2  0  0  0  0  0  0
  188.5870  176.9220  146.2250 C   0  0  2  0  0  3  0  0  0  0  0  0
  190.8480  177.0880  145.0540 C   0  0  0  0  0  2  0  0  0  0  0  0
  187.6210  178.2740  141.2480 N   0  0  0  0  0  0  0  0  0  0  0  0
  188.2740  178.3040  148.2410 C   0  0  0  0  0  1  0  0  0  0  0  0
  188.8310  177.7840  141.1970 C   0  0  0  0  0  0  0  0  0  0  0  0
  185.4170  178.5990  142.3480 C   0  0  0  0  0  0  0  0  0  0  0  0
  187.1580  177.4960  146.1840 C   0  0  2  0  0  3  0  0  0  0  0  0
  191.5900  176.7910  143.7410 C   0  0  0  0  0  2  0  0  0  0  0  0
  182.6230  178.7240  142.1660 C   0  0  0  0  0  3  0  0  0  0  0  0
  184.8030  178.8860  141.1210 C   0  0  0  0  0  3  0  0  0  0  0  0
  189.2910  177.2120  137.4460 C   0  0  0  0  0  0  0  0  0  0  0  0
  188.5720  177.2490  136.2570 O   0  0  0  0  0  1  0  0  0  0  0  0
  189.4260  177.4850  139.8700 C   0  0  0  0  0  0  0  0  0  0  0  0
  190.6430  176.8630  137.4120 C   0  0  0  0  0  3  0  0  0  0  0  0
  190.7840  177.1330  139.8060 C   0  0  0  0  0  3  0  0  0  0  0  0
  188.6730  177.5270  138.6690 C   0  0  0  0  0  0  0  0  0  0  0  0
  187.2360  177.9430  138.6610 C   0  0  0  0  0  1  0  0  0  0  0  0
  191.3950  176.8240  138.5900 C   0  0  0  0  0  0  0  0  0  0  0  0
  193.6710  177.0590  139.3420 N   0  0  0  0  0  2  0  0  0  0  0  0
  192.8160  176.4620  138.5780 C   0  0  0  0  0  3  0  0  0  0  0  0
  1  3  1  1  0  0  0
  1  4  1  0  0  0  0
  2  4  1  0  0  0  0
  2  5  1  0  0  0  0
  3 20  1  0  0  0  0
  4 11  1  0  0  0  0
  5 19  1  0  0  0  0
  6 22  2  0  0  0  0
  6 21  1  0  0  0  0
  7  2  1  0  0  0  0
  8  9  1  0  0  0  0
  9 12  1  0  0  0  0
 10 16  1  0  0  0  0
 11 14  1  0  0  0  0
 11 13  1  0  0  0  0
 12  5  1  0  0  0  0
 13 10  1  0  0  0  0
 15  7  1  0  0  0  0
 17 15  2  0  0  0  0
 17  1  1  0  0  0  0
 18  7  1  0  0  0  0
 18  9  2  0  0  0  0
 19 13  1  0  0  0  0
 19 10  1  0  0  0  0
 20 14  1  0  0  0  0
 21  8  2  0  0  0  0
 22 18  1  0  0  0  0
 23 28  1  0  0  0  0
 24 23  1  0  0  0  0
 25 17  1  0  0  0  0
 26 23  2  0  0  0  0
 26 30  1  0  0  0  0
 27 25  1  0  0  0  0
 28 25  2  0  0  0  0
 29 28  1  0  0  0  0
 30 27  2  0  0  0  0
 32 30  1  0  0  0  0
 32 31  2  0  0  0  0
M  END
>  <MODEL>
2

>  <REMARK>
 VINA RESULT:     -11.2      1.941      6.383
  Name = 
  2 active torsions:
  status: ('A' for Active; 'I' for Inactive)
    1  A    between atoms: C_15  and  C_26
    2  A    between atoms: C_16  and  C_27
                            x       y       z     vdW  Elec       q    Type
                         _______ _______ _______ _____ _____    ______ ____

>  <TORSDO>
F 2

$$$$
=
 OpenBabel10272402123D

 32 38  0  0  1  0  0  0  0  0999 V2000
  186.2920  178.0630  143.0570 C   0  0  1  0  0  3  0  0  0  0  0  0
  186.3920  177.9730  140.5770 C   0  0  1  0  0  3  0  0  0  0  0  0
  185.6760  178.8520  144.2110 C   0  0  0  0  0  2  0  0  0  0  0  0
  185.6770  178.5730  141.7550 C   0  0  1  0  0  3  0  0  0  0  0  0
  185.8020  178.5290  139.2900 C   0  0  1  0  0  3  0  0  0  0  0  0
  190.6960  177.2880  138.3760 C   0  0  0  0  0  3  0  0  0  0  0  0
  187.8440  178.4420  140.6380 C   0  0  1  0  0  3  0  0  0  0  0  0
  188.6380  177.3070  137.0960 C   0  0  0  0  0  3  0  0  0  0  0  0
  187.9380  177.7420  138.2240 C   0  0  0  0  0  0  0  0  0  0  0  0
  183.6310  179.5890  139.6960 C   0  0  2  0  0  3  0  0  0  0  0  0
  184.2060  178.1750  141.7640 C   0  0  2  0  0  3  0  0  0  0  0  0
  186.5200  177.9660  138.1490 N   0  0  0  0  0  2  0  0  0  0  0  0
  183.4390  178.2800  140.4280 C   0  0  2  0  0  3  0  0  0  0  0  0
  183.4970  178.9180  142.8980 C   0  0  0  0  0  2  0  0  0  0  0  0
  188.4660  178.1080  141.9230 N   0  0  0  0  0  0  0  0  0  0  0  0
  182.3880  179.8910  138.8870 C   0  0  0  0  0  1  0  0  0  0  0  0
  187.8140  178.0440  143.0530 C   0  0  0  0  0  0  0  0  0  0  0  0
  188.6170  177.9240  139.4500 C   0  0  0  0  0  0  0  0  0  0  0  0
  184.2910  178.3290  139.1460 C   0  0  2  0  0  3  0  0  0  0  0  0
  184.1620  178.6010  144.2470 C   0  0  0  0  0  2  0  0  0  0  0  0
  190.0160  177.0800  137.1730 C   0  0  0  0  0  3  0  0  0  0  0  0
  190.0010  177.7150  139.5100 C   0  0  0  0  0  3  0  0  0  0  0  0
  190.5370  176.8680  145.4630 C   0  0  0  0  0  0  0  0  0  0  0  0
  191.8550  176.4270  145.4630 O   0  0  0  0  0  1  0  0  0  0  0  0
  188.5540  177.6730  144.2850 C   0  0  0  0  0  0  0  0  0  0  0  0
  189.8510  176.9580  146.6760 C   0  0  0  0  0  3  0  0  0  0  0  0
  187.8890  177.7570  145.5200 C   0  0  0  0  0  3  0  0  0  0  0  0
  189.8980  177.2240  144.2620 C   0  0  0  0  0  0  0  0  0  0  0  0
  190.6800  177.1600  142.9880 C   0  0  0  0  0  1  0  0  0  0  0  0
  188.5270  177.4050  146.7100 C   0  0  0  0  0  0  0  0  0  0  0  0
  188.2350  178.2140  148.9600 N   0  0  0  0  0  2  0  0  0  0  0  0
  187.7880  177.5100  147.9720 C   0  0  0  0  0  3  0  0  0  0  0  0
  1  3  1  1  0  0  0
  2  7  1  0  0  0  0
  2  4  1  0  0  0  0
  3 20  1  0  0  0  0
  4 11  1  0  0  0  0
  4  1  1  0  0  0  0
  5  2  1  0  0  0  0
  6 22  1  0  0  0  0
  7 15  1  0  0  0  0
  8 21  1  0  0  0  0
  8  9  2  0  0  0  0
  9 18  1  0  0  0  0
 10 13  1  0  0  0  0
 11 14  1  0  0  0  0
 12  9  1  0  0  0  0
 12  5  1  0  0  0  0
 13 11  1  0  0  0  0
 14 20  1  0  0  0  0
 15 17  2  0  0  0  0
 16 10  1  0  0  0  0
 17  1  1  0  0  0  0
 17 25  1  0  0  0  0
 18 22  2  0  0  0  0
 18  7  1  0  0  0  0
 19  5  1  0  0  0  0
 19 10  1  0  0  0  0
 19 13  1  0  0  0  0
 21  6  2  0  0  0  0
 23 24  1  0  0  0  0
 23 26  1  0  0  0  0
 25 27  2  0  0  0  0
 26 30  2  0  0  0  0
 27 30  1  0  0  0  0
 28 25  1  0  0  0  0
 28 23  2  0  0  0  0
 29 28  1  0  0  0  0
 30 32  1  0  0  0  0
 32 31  2  0  0  0  0
M  END
>  <MODEL>
3

>  <REMARK>
 VINA RESULT:     -10.7      2.691      6.467
  Name = 
  2 active torsions:
  status: ('A' for Active; 'I' for Inactive)
    1  A    between atoms: C_15  and  C_26
    2  A    between atoms: C_16  and  C_27
                            x       y       z     vdW  Elec       q    Type
                         _______ _______ _______ _____ _____    ______ ____

>  <TORSDO>
F 2

$$$$
=
 OpenBabel10272402123D

 32 38  0  0  1  0  0  0  0  0999 V2000
  187.7950  178.0880  141.2310 C   0  0  1  0  0  3  0  0  0  0  0  0
  187.4450  178.2060  143.6880 C   0  0  1  0  0  3  0  0  0  0  0  0
  187.0900  177.7090  139.9300 C   0  0  0  0  0  2  0  0  0  0  0  0
  186.7650  178.0390  142.3580 C   0  0  1  0  0  3  0  0  0  0  0  0
  186.4140  178.1040  144.8010 C   0  0  1  0  0  3  0  0  0  0  0  0
  190.9290  176.5590  146.6860 C   0  0  0  0  0  3  0  0  0  0  0  0
  188.4030  177.0300  143.8610 C   0  0  1  0  0  3  0  0  0  0  0  0
  188.9770  177.6980  147.5610 C   0  0  0  0  0  3  0  0  0  0  0  0
  188.3860  177.6630  146.2950 C   0  0  0  0  0  0  0  0  0  0  0  0
  184.1400  178.3610  143.9280 C   0  0  2  0  0  3  0  0  0  0  0  0
  185.7670  179.1640  142.1070 C   0  0  2  0  0  3  0  0  0  0  0  0
  187.0850  178.2380  146.0920 N   0  0  0  0  0  2  0  0  0  0  0  0
  184.8210  179.5380  143.2690 C   0  0  2  0  0  3  0  0  0  0  0  0
  185.0060  178.8740  140.8120 C   0  0  0  0  0  2  0  0  0  0  0  0
  189.3420  176.9270  142.7400 N   0  0  0  0  0  0  0  0  0  0  0  0
  182.7980  178.8050  144.4710 C   0  0  0  0  0  1  0  0  0  0  0  0
  189.0570  177.2870  141.5170 C   0  0  0  0  0  0  0  0  0  0  0  0
  189.0860  177.0980  145.2060 C   0  0  0  0  0  0  0  0  0  0  0  0
  185.2490  179.0900  144.6790 C   0  0  2  0  0  3  0  0  0  0  0  0
  185.9840  178.7320  139.6350 C   0  0  0  0  0  2  0  0  0  0  0  0
  190.2470  177.1470  147.7560 C   0  0  0  0  0  3  0  0  0  0  0  0
  190.3480  176.5280  145.4150 C   0  0  0  0  0  3  0  0  0  0  0  0
  192.4260  177.1730  139.7150 C   0  0  0  0  0  0  0  0  0  0  0  0
  193.7860  177.2980  139.9710 O   0  0  0  0  0  1  0  0  0  0  0  0
  190.1030  177.1550  140.4710 C   0  0  0  0  0  0  0  0  0  0  0  0
  192.0000  176.9240  138.4080 C   0  0  0  0  0  3  0  0  0  0  0  0
  189.7040  176.9020  139.1490 C   0  0  0  0  0  3  0  0  0  0  0  0
  191.4860  177.2880  140.7540 C   0  0  0  0  0  0  0  0  0  0  0  0
  191.9820  177.5070  142.1490 C   0  0  0  0  0  1  0  0  0  0  0  0
  190.6400  176.7860  138.1200 C   0  0  0  0  0  0  0  0  0  0  0  0
  189.3640  177.3310  136.1510 N   0  0  0  0  0  2  0  0  0  0  0  0
  190.1700  176.5210  136.7560 C   0  0  0  0  0  3  0  0  0  0  0  0
  1  3  1  6  0  0  0
  1 17  1  0  0  0  0
  1  4  1  0  0  0  0
  2  7  1  0  0  0  0
  2  5  1  0  0  0  0
  4  2  1  0  0  0  0
  5 12  1  0  0  0  0
  6 21  1  0  0  0  0
  7 18  1  0  0  0  0
  8 21  2  0  0  0  0
  9  8  1  0  0  0  0
 10 16  1  0  0  0  0
 10 19  1  0  0  0  0
 11  4  1  0  0  0  0
 11 13  1  0  0  0  0
 12  9  1  0  0  0  0
 13 10  1  0  0  0  0
 13 19  1  0  0  0  0
 14 11  1  0  0  0  0
 15  7  1  0  0  0  0
 17 15  2  0  0  0  0
 18 22  1  0  0  0  0
 18  9  2  0  0  0  0
 19  5  1  0  0  0  0
 20  3  1  0  0  0  0
 20 14  1  0  0  0  0
 22  6  2  0  0  0  0
 23 24  1  0  0  0  0
 23 28  1  0  0  0  0
 25 28  2  0  0  0  0
 25 17  1  0  0  0  0
 26 23  2  0  0  0  0
 27 25  1  0  0  0  0
 28 29  1  0  0  0  0
 30 26  1  0  0  0  0
 30 27  2  0  0  0  0
 31 32  2  0  0  0  0
 32 30  1  0  0  0  0
M  END
>  <MODEL>
4

>  <REMARK>
 VINA RESULT:     -10.6      2.472      7.000
  Name = 
  2 active torsions:
  status: ('A' for Active; 'I' for Inactive)
    1  A    between atoms: C_15  and  C_26
    2  A    between atoms: C_16  and  C_27
                            x       y       z     vdW  Elec       q    Type
                         _______ _______ _______ _____ _____    ______ ____

>  <TORSDO>
F 2

$$$$
=
 OpenBabel10272402123D

 32 38  0  0  1  0  0  0  0  0999 V2000
  185.2240  178.3040  143.3120 C   0  0  1  0  0  3  0  0  0  0  0  0
  184.9610  178.2810  140.8420 C   0  0  1  0  0  3  0  0  0  0  0  0
  184.7730  179.0530  144.5650 C   0  0  0  0  0  2  0  0  0  0  0  0
  184.4190  178.8380  142.1290 C   0  0  1  0  0  3  0  0  0  0  0  0
  184.1830  178.8610  139.6710 C   0  0  1  0  0  3  0  0  0  0  0  0
  188.9060  177.7220  138.0190 C   0  0  0  0  0  3  0  0  0  0  0  0
  186.4010  178.7710  140.7040 C   0  0  1  0  0  3  0  0  0  0  0  0
  186.6830  177.7410  137.0540 C   0  0  0  0  0  3  0  0  0  0  0  0
  186.1500  178.1350  138.2830 C   0  0  0  0  0  0  0  0  0  0  0  0
  182.0820  179.8740  140.4180 C   0  0  2  0  0  3  0  0  0  0  0  0
  182.9700  178.4160  142.3400 C   0  0  2  0  0  3  0  0  0  0  0  0
  184.7340  178.3390  138.4220 N   0  0  0  0  0  2  0  0  0  0  0  0
  182.0150  178.5440  141.1340 C   0  0  2  0  0  3  0  0  0  0  0  0
  182.4250  179.1180  143.5860 C   0  0  0  0  0  2  0  0  0  0  0  0
  187.2080  178.4130  141.8750 N   0  0  0  0  0  0  0  0  0  0  0  0
  180.7310  180.1770  139.8080 C   0  0  0  0  0  1  0  0  0  0  0  0
  186.7290  178.3100  143.0850 C   0  0  0  0  0  0  0  0  0  0  0  0
  186.9990  178.2960  139.4020 C   0  0  0  0  0  0  0  0  0  0  0  0
  182.6700  178.6400  139.7430 C   0  0  2  0  0  3  0  0  0  0  0  0
  183.2840  178.7770  144.8140 C   0  0  0  0  0  2  0  0  0  0  0  0
  188.0600  177.5340  136.9220 C   0  0  0  0  0  3  0  0  0  0  0  0
  188.3790  178.1080  139.2540 C   0  0  0  0  0  3  0  0  0  0  0  0
  189.7630  177.0470  145.0370 C   0  0  0  0  0  0  0  0  0  0  0  0
  191.0470  176.5570  144.8280 O   0  0  0  0  0  1  0  0  0  0  0  0
  187.6450  177.9180  144.1860 C   0  0  0  0  0  0  0  0  0  0  0  0
  189.2870  177.1700  146.3440 C   0  0  0  0  0  3  0  0  0  0  0  0
  187.1940  178.0350  145.5110 C   0  0  0  0  0  3  0  0  0  0  0  0
  188.9510  177.4190  143.9510 C   0  0  0  0  0  0  0  0  0  0  0  0
  189.5120  177.3190  142.5680 C   0  0  0  0  0  1  0  0  0  0  0  0
  188.0030  177.6660  146.5860 C   0  0  0  0  0  0  0  0  0  0  0  0
  188.2670  178.0380  148.9510 N   0  0  0  0  0  2  0  0  0  0  0  0
  187.4830  177.8070  147.9500 C   0  0  0  0  0  3  0  0  0  0  0  0
  1  3  1  1  0  0  0
  2  4  1  0  0  0  0
  3 20  1  0  0  0  0
  4 11  1  0  0  0  0
  4  1  1  0  0  0  0
  5 19  1  0  0  0  0
  5  2  1  0  0  0  0
  6 22  1  0  0  0  0
  7  2  1  0  0  0  0
  7 15  1  0  0  0  0
  8  9  2  0  0  0  0
  9 12  1  0  0  0  0
  9 18  1  0  0  0  0
 10 13  1  0  0  0  0
 11 14  1  0  0  0  0
 12  5  1  0  0  0  0
 13 11  1  0  0  0  0
 14 20  1  0  0  0  0
 15 17  2  0  0  0  0
 16 10  1  0  0  0  0
 17  1  1  0  0  0  0
 17 25  1  0  0  0  0
 18  7  1  0  0  0  0
 19 10  1  0  0  0  0
 19 13  1  0  0  0  0
 21  8  1  0  0  0  0
 21  6  2  0  0  0  0
 22 18  2  0  0  0  0
 23 26  1  0  0  0  0
 24 23  1  0  0  0  0
 25 27  2  0  0  0  0
 26 30  2  0  0  0  0
 27 30  1  0  0  0  0
 28 25  1  0  0  0  0
 28 23  2  0  0  0  0
 29 28  1  0  0  0  0
 30 32  1  0  0  0  0
 32 31  2  0  0  0  0
M  END
>  <MODEL>
5

>  <REMARK>
 VINA RESULT:     -10.4      2.704      6.795
  Name = 
  2 active torsions:
  status: ('A' for Active; 'I' for Inactive)
    1  A    between atoms: C_15  and  C_26
    2  A    between atoms: C_16  and  C_27
                            x       y       z     vdW  Elec       q    Type
                         _______ _______ _______ _____ _____    ______ ____

>  <TORSDO>
F 2

$$$$
=
 OpenBabel10272402123D

 32 38  0  0  1  0  0  0  0  0999 V2000
  189.3930  177.6660  142.6200 C   0  0  1  0  0  3  0  0  0  0  0  0
  187.5190  178.2720  141.1060 C   0  0  1  0  0  3  0  0  0  0  0  0
  190.6090  176.7480  142.7260 C   0  0  0  0  0  2  0  0  0  0  0  0
  188.8320  177.5460  141.2040 C   0  0  1  0  0  3  0  0  0  0  0  0
  186.9500  178.1010  139.7050 C   0  0  1  0  0  3  0  0  0  0  0  0
  183.0200  178.7630  142.9380 C   0  0  0  0  0  3  0  0  0  0  0  0
  186.5480  177.5890  142.0660 C   0  0  1  0  0  3  0  0  0  0  0  0
  183.4870  179.3290  140.6280 C   0  0  0  0  0  3  0  0  0  0  0  0
  184.7620  178.7710  140.7460 C   0  0  0  0  0  0  0  0  0  0  0  0
  188.6640  177.3160  138.1420 C   0  0  2  0  0  3  0  0  0  0  0  0
  189.8640  178.1480  140.2580 C   0  0  2  0  0  3  0  0  0  0  0  0
  185.6600  178.7820  139.6240 N   0  0  0  0  0  2  0  0  0  0  0  0
  189.4050  178.4500  138.8150 C   0  0  2  0  0  3  0  0  0  0  0  0
  191.1320  177.2930  140.2950 C   0  0  0  0  0  2  0  0  0  0  0  0
  187.0810  177.5420  143.4310 N   0  0  0  0  0  0  0  0  0  0  0  0
  188.9030  177.3850  136.6490 C   0  0  0  0  0  1  0  0  0  0  0  0
  188.3540  177.4570  143.7130 C   0  0  0  0  0  0  0  0  0  0  0  0
  185.1840  178.2300  141.9820 C   0  0  0  0  0  0  0  0  0  0  0  0
  187.8860  178.5510  138.5810 C   0  0  2  0  0  3  0  0  0  0  0  0
  191.6810  177.2090  141.7280 C   0  0  0  0  0  2  0  0  0  0  0  0
  182.6170  179.3260  141.7220 C   0  0  0  0  0  3  0  0  0  0  0  0
  184.2970  178.2110  143.0660 C   0  0  0  0  0  3  0  0  0  0  0  0
  188.4070  177.9050  147.5080 C   0  0  0  0  0  0  0  0  0  0  0  0
  187.6140  178.3810  148.5450 O   0  0  0  0  0  1  0  0  0  0  0  0
  188.7700  177.4390  145.1380 C   0  0  0  0  0  0  0  0  0  0  0  0
  189.6730  177.3930  147.8010 C   0  0  0  0  0  3  0  0  0  0  0  0
  190.0370  176.9270  145.4620 C   0  0  0  0  0  3  0  0  0  0  0  0
  187.9460  177.9310  146.1800 C   0  0  0  0  0  0  0  0  0  0  0  0
  186.5660  178.4430  145.9110 C   0  0  0  0  0  1  0  0  0  0  0  0
  190.4910  176.9000  146.7810 C   0  0  0  0  0  0  0  0  0  0  0  0
  192.4180  176.5790  148.1900 N   0  0  0  0  0  2  0  0  0  0  0  0
  191.8230  176.3540  147.0650 C   0  0  0  0  0  3  0  0  0  0  0  0
  1  3  1  1  0  0  0
  1 17  1  0  0  0  0
  2  4  1  0  0  0  0
  2  7  1  0  0  0  0
  4  1  1  0  0  0  0
  5  2  1  0  0  0  0
  6 22  1  0  0  0  0
  7 15  1  0  0  0  0
  8  9  2  0  0  0  0
  8 21  1  0  0  0  0
  9 18  1  0  0  0  0
 10 19  1  0  0  0  0
 10 13  1  0  0  0  0
 11 14  1  0  0  0  0
 11  4  1  0  0  0  0
 12  5  1  0  0  0  0
 12  9  1  0  0  0  0
 13 11  1  0  0  0  0
 14 20  1  0  0  0  0
 15 17  2  0  0  0  0
 16 10  1  0  0  0  0
 17 25  1  0  0  0  0
 18  7  1  0  0  0  0
 18 22  2  0  0  0  0
 19 13  1  0  0  0  0
 19  5  1  0  0  0  0
 20  3  1  0  0  0  0
 21  6  2  0  0  0  0
 23 26  1  0  0  0  0
 23 24  1  0  0  0  0
 25 27  2  0  0  0  0
 25 28  1  0  0  0  0
 27 30  1  0  0  0  0
 28 23  2  0  0  0  0
 29 28  1  0  0  0  0
 30 32  1  0  0  0  0
 30 26  2  0  0  0  0
 32 31  2  0  0  0  0
M  END
>  <MODEL>
6

>  <REMARK>
 VINA RESULT:     -10.3      2.427      7.311
  Name = 
  2 active torsions:
  status: ('A' for Active; 'I' for Inactive)
    1  A    between atoms: C_15  and  C_26
    2  A    between atoms: C_16  and  C_27
                            x       y       z     vdW  Elec       q    Type
                         _______ _______ _______ _____ _____    ______ ____

>  <TORSDO>
F 2

$$$$
=
 OpenBabel10272402123D

 32 38  0  0  1  0  0  0  0  0999 V2000
  187.5690  177.8750  141.4630 C   0  0  1  0  0  3  0  0  0  0  0  0
  189.6420  177.1780  142.6410 C   0  0  1  0  0  3  0  0  0  0  0  0
  187.0740  178.7280  140.2960 C   0  0  0  0  0  2  0  0  0  0  0  0
  189.0950  177.8340  141.4040 C   0  0  1  0  0  3  0  0  0  0  0  0
  191.1630  177.1900  142.5910 C   0  0  1  0  0  3  0  0  0  0  0  0
  189.7470  177.1970  147.5230 C   0  0  0  0  0  3  0  0  0  0  0  0
  189.2310  178.0390  143.8340 C   0  0  1  0  0  3  0  0  0  0  0  0
  191.6010  176.2980  146.2460 C   0  0  0  0  0  3  0  0  0  0  0  0
  191.0340  176.7930  145.0690 C   0  0  0  0  0  0  0  0  0  0  0  0
  191.9700  177.6570  140.3260 C   0  0  2  0  0  3  0  0  0  0  0  0
  189.4780  177.0510  140.1530 C   0  0  2  0  0  3  0  0  0  0  0  0
  191.6890  176.5790  143.8090 N   0  0  0  0  0  2  0  0  0  0  0  0
  190.9440  176.5840  140.0360 C   0  0  2  0  0  3  0  0  0  0  0  0
  189.0170  177.8300  138.9190 C   0  0  0  0  0  2  0  0  0  0  0  0
  187.7800  178.2400  143.8800 N   0  0  0  0  0  0  0  0  0  0  0  0
  193.2230  177.3730  139.5260 C   0  0  0  0  0  1  0  0  0  0  0  0
  187.0180  178.2890  142.8200 C   0  0  0  0  0  0  0  0  0  0  0  0
  189.7950  177.4720  145.1140 C   0  0  0  0  0  0  0  0  0  0  0  0
  191.7610  176.5390  141.3410 C   0  0  2  0  0  3  0  0  0  0  0  0
  187.5010  178.0760  138.9740 C   0  0  0  0  0  2  0  0  0  0  0  0
  190.9570  176.4990  147.4710 C   0  0  0  0  0  3  0  0  0  0  0  0
  189.1690  177.6880  146.3480 C   0  0  0  0  0  3  0  0  0  0  0  0
  183.5760  178.8940  144.3680 C   0  0  0  0  0  0  0  0  0  0  0  0
  182.9820  179.1630  145.5960 O   0  0  0  0  0  1  0  0  0  0  0  0
  185.5550  178.4760  143.0000 C   0  0  0  0  0  0  0  0  0  0  0  0
  182.7690  178.7750  143.2350 C   0  0  0  0  0  3  0  0  0  0  0  0
  184.7200  178.3640  141.8760 C   0  0  0  0  0  3  0  0  0  0  0  0
  184.9700  178.7480  144.2620 C   0  0  0  0  0  0  0  0  0  0  0  0
  185.8060  178.9310  145.4890 C   0  0  0  0  0  1  0  0  0  0  0  0
  183.3370  178.5120  141.9850 C   0  0  0  0  0  0  0  0  0  0  0  0
  181.4930  179.1560  140.5760 N   0  0  0  0  0  2  0  0  0  0  0  0
  182.5100  178.3850  140.7810 C   0  0  0  0  0  3  0  0  0  0  0  0
  1  3  1  6  0  0  0
  1 17  1  0  0  0  0
  2  7  1  0  0  0  0
  4  1  1  0  0  0  0
  4  2  1  0  0  0  0
  5  2  1  0  0  0  0
  5 12  1  0  0  0  0
  7 15  1  0  0  0  0
  7 18  1  0  0  0  0
  8 21  2  0  0  0  0
  9 18  2  0  0  0  0
  9  8  1  0  0  0  0
 10 19  1  0  0  0  0
 11  4  1  0  0  0  0
 12  9  1  0  0  0  0
 13 11  1  0  0  0  0
 13 10  1  0  0  0  0
 13 19  1  0  0  0  0
 14 20  1  0  0  0  0
 14 11  1  0  0  0  0
 16 10  1  0  0  0  0
 17 25  1  0  0  0  0
 17 15  2  0  0  0  0
 18 22  1  0  0  0  0
 19  5  1  0  0  0  0
 20  3  1  0  0  0  0
 21  6  1  0  0  0  0
 22  6  2  0  0  0  0
 23 24  1  0  0  0  0
 25 28  2  0  0  0  0
 26 23  2  0  0  0  0
 27 30  2  0  0  0  0
 27 25  1  0  0  0  0
 28 23  1  0  0  0  0
 28 29  1  0  0  0  0
 30 26  1  0  0  0  0
 31 32  2  0  0  0  0
 32 30  1  0  0  0  0
M  END
>  <MODEL>
7

>  <REMARK>
 VINA RESULT:     -10.3      1.604      4.897
  Name = 
  2 active torsions:
  status: ('A' for Active; 'I' for Inactive)
    1  A    between atoms: C_15  and  C_26
    2  A    between atoms: C_16  and  C_27
                            x       y       z     vdW  Elec       q    Type
                         _______ _______ _______ _____ _____    ______ ____

>  <TORSDO>
F 2

$$$$
=
 OpenBabel10272402123D

 32 38  0  0  1  0  0  0  0  0999 V2000
  188.4660  177.8750  142.3130 C   0  0  1  0  0  3  0  0  0  0  0  0
  187.0470  178.3970  140.3420 C   0  0  1  0  0  3  0  0  0  0  0  0
  189.5840  176.9440  142.7810 C   0  0  0  0  0  2  0  0  0  0  0  0
  188.2660  177.6560  140.8140 C   0  0  1  0  0  3  0  0  0  0  0  0
  186.8320  178.1290  138.8600 C   0  0  1  0  0  3  0  0  0  0  0  0
  182.2570  179.1160  140.9630 C   0  0  0  0  0  3  0  0  0  0  0  0
  185.8440  177.8100  141.0770 C   0  0  1  0  0  3  0  0  0  0  0  0
  183.2980  179.4920  138.8070 C   0  0  0  0  0  3  0  0  0  0  0  0
  184.4830  178.9200  139.2760 C   0  0  0  0  0  0  0  0  0  0  0  0
  188.8470  177.1930  137.8300 C   0  0  2  0  0  3  0  0  0  0  0  0
  189.5210  178.1630  140.1130 C   0  0  2  0  0  3  0  0  0  0  0  0
  185.6290  178.8270  138.4140 N   0  0  0  0  0  2  0  0  0  0  0  0
  189.4420  178.3600  138.5830 C   0  0  2  0  0  3  0  0  0  0  0  0
  190.7080  177.2890  140.5230 C   0  0  0  0  0  2  0  0  0  0  0  0
  186.0230  177.8580  142.5320 N   0  0  0  0  0  0  0  0  0  0  0  0
  189.4480  177.1400  136.4420 C   0  0  0  0  0  1  0  0  0  0  0  0
  187.1830  177.7710  143.1250 C   0  0  0  0  0  0  0  0  0  0  0  0
  184.5670  178.4680  140.6130 C   0  0  0  0  0  0  0  0  0  0  0  0
  188.0320  178.4730  137.9740 C   0  0  2  0  0  3  0  0  0  0  0  0
  190.8840  177.3060  142.0500 C   0  0  0  0  0  2  0  0  0  0  0  0
  182.1870  179.5900  139.6490 C   0  0  0  0  0  3  0  0  0  0  0  0
  183.4410  178.5510  141.4420 C   0  0  0  0  0  3  0  0  0  0  0  0
  186.3290  178.5270  146.7730 C   0  0  0  0  0  0  0  0  0  0  0  0
  185.3320  179.1150  147.5440 O   0  0  0  0  0  1  0  0  0  0  0  0
  187.2360  177.8560  144.6070 C   0  0  0  0  0  0  0  0  0  0  0  0
  187.4540  177.9960  147.4070 C   0  0  0  0  0  3  0  0  0  0  0  0
  188.3550  177.3280  145.2710 C   0  0  0  0  0  3  0  0  0  0  0  0
  186.2090  178.4610  145.3740 C   0  0  0  0  0  0  0  0  0  0  0  0
  184.9670  178.9970  144.7340 C   0  0  0  0  0  1  0  0  0  0  0  0
  188.4690  177.3930  146.6600 C   0  0  0  0  0  0  0  0  0  0  0  0
  190.8000  176.7840  146.6980 N   0  0  0  0  0  2  0  0  0  0  0  0
  189.6590  176.8260  147.3050 C   0  0  0  0  0  3  0  0  0  0  0  0
  1  3  1  1  0  0  0
  1 17  1  0  0  0  0
  2  4  1  0  0  0  0
  2  7  1  0  0  0  0
  4  1  1  0  0  0  0
  5  2  1  0  0  0  0
  6 22  1  0  0  0  0
  7 15  1  0  0  0  0
  8  9  2  0  0  0  0
  8 21  1  0  0  0  0
  9 18  1  0  0  0  0
 10 19  1  0  0  0  0
 10 13  1  0  0  0  0
 11 14  1  0  0  0  0
 11  4  1  0  0  0  0
 12  5  1  0  0  0  0
 12  9  1  0  0  0  0
 13 11  1  0  0  0  0
 14 20  1  0  0  0  0
 15 17  2  0  0  0  0
 16 10  1  0  0  0  0
 17 25  1  0  0  0  0
 18  7  1  0  0  0  0
 18 22  2  0  0  0  0
 19 13  1  0  0  0  0
 19  5  1  0  0  0  0
 20  3  1  0  0  0  0
 21  6  2  0  0  0  0
 23 26  1  0  0  0  0
 23 24  1  0  0  0  0
 25 27  2  0  0  0  0
 25 28  1  0  0  0  0
 27 30  1  0  0  0  0
 28 23  2  0  0  0  0
 29 28  1  0  0  0  0
 30 32  1  0  0  0  0
 30 26  2  0  0  0  0
 31 32  2  0  0  0  0
M  END
>  <MODEL>
8

>  <REMARK>
 VINA RESULT:     -10.1      2.278      6.921
  Name = 
  2 active torsions:
  status: ('A' for Active; 'I' for Inactive)
    1  A    between atoms: C_15  and  C_26
    2  A    between atoms: C_16  and  C_27
                            x       y       z     vdW  Elec       q    Type
                         _______ _______ _______ _____ _____    ______ ____

>  <TORSDO>
F 2

$$$$
=
 OpenBabel10272402123D

 32 38  0  0  1  0  0  0  0  0999 V2000
  185.6890  178.5410  141.3000 C   0  0  1  0  0  3  0  0  0  0  0  0
  185.1210  178.6730  143.7150 C   0  0  1  0  0  3  0  0  0  0  0  0
  185.1630  178.0170  139.9650 C   0  0  0  0  0  2  0  0  0  0  0  0
  184.5880  178.3620  142.3440 C   0  0  1  0  0  3  0  0  0  0  0  0
  184.0280  178.4410  144.7480 C   0  0  1  0  0  3  0  0  0  0  0  0
  188.5560  177.6860  147.0420 C   0  0  0  0  0  3  0  0  0  0  0  0
  186.2320  177.6680  144.0120 C   0  0  1  0  0  3  0  0  0  0  0  0
  186.3840  178.5260  147.7140 C   0  0  0  0  0  3  0  0  0  0  0  0
  185.9140  178.3620  146.4080 C   0  0  0  0  0  0  0  0  0  0  0  0
  181.8230  178.3090  143.6900 C   0  0  2  0  0  3  0  0  0  0  0  0
  183.4520  179.3060  141.9700 C   0  0  2  0  0  3  0  0  0  0  0  0
  184.5600  178.7160  146.0810 N   0  0  0  0  0  2  0  0  0  0  0  0
  182.3660  179.5600  143.0370 C   0  0  2  0  0  3  0  0  0  0  0  0
  182.8570  178.8620  140.6320 C   0  0  0  0  0  2  0  0  0  0  0  0
  187.2660  177.6840  142.9720 N   0  0  0  0  0  0  0  0  0  0  0  0
  180.3890  178.5500  144.1080 C   0  0  0  0  0  1  0  0  0  0  0  0
  187.0320  177.9580  141.7170 C   0  0  0  0  0  0  0  0  0  0  0  0
  186.7810  177.8830  145.4010 C   0  0  0  0  0  0  0  0  0  0  0  0
  182.7390  179.2260  144.4940 C   0  0  2  0  0  3  0  0  0  0  0  0
  183.9400  178.8430  139.5420 C   0  0  0  0  0  2  0  0  0  0  0  0
  187.7030  178.1890  148.0290 C   0  0  0  0  0  3  0  0  0  0  0  0
  188.0950  177.5270  145.7320 C   0  0  0  0  0  3  0  0  0  0  0  0
  190.5310  177.6820  140.2030 C   0  0  0  0  0  0  0  0  0  0  0  0
  191.8350  177.3640  140.5630 O   0  0  0  0  0  1  0  0  0  0  0  0
  188.1700  177.9630  140.7620 C   0  0  0  0  0  0  0  0  0  0  0  0
  190.2580  178.0410  138.8810 C   0  0  0  0  0  3  0  0  0  0  0  0
  187.9240  178.3180  139.4260 C   0  0  0  0  0  3  0  0  0  0  0  0
  189.4930  177.6380  141.1510 C   0  0  0  0  0  0  0  0  0  0  0  0
  189.8140  177.2020  142.5460 C   0  0  0  0  0  1  0  0  0  0  0  0
  188.9560  178.3580  138.4870 C   0  0  0  0  0  0  0  0  0  0  0  0
  187.6360  179.4910  136.8200 N   0  0  0  0  0  2  0  0  0  0  0  0
  188.6460  178.7360  137.1040 C   0  0  0  0  0  3  0  0  0  0  0  0
  1  3  1  6  0  0  0
  1 17  1  0  0  0  0
  1  4  1  0  0  0  0
  2  7  1  0  0  0  0
  2  5  1  0  0  0  0
  4  2  1  0  0  0  0
  5 12  1  0  0  0  0
  6 21  1  0  0  0  0
  7 18  1  0  0  0  0
  8 21  2  0  0  0  0
  9  8  1  0  0  0  0
 10 16  1  0  0  0  0
 10 19  1  0  0  0  0
 11  4  1  0  0  0  0
 11 13  1  0  0  0  0
 12  9  1  0  0  0  0
 13 10  1  0  0  0  0
 13 19  1  0  0  0  0
 14 11  1  0  0  0  0
 15  7  1  0  0  0  0
 17 15  2  0  0  0  0
 18 22  1  0  0  0  0
 18  9  2  0  0  0  0
 19  5  1  0  0  0  0
 20  3  1  0  0  0  0
 20 14  1  0  0  0  0
 22  6  2  0  0  0  0
 23 24  1  0  0  0  0
 23 28  1  0  0  0  0
 25 28  2  0  0  0  0
 25 17  1  0  0  0  0
 26 23  2  0  0  0  0
 27 25  1  0  0  0  0
 28 29  1  0  0  0  0
 30 26  1  0  0  0  0
 30 27  2  0  0  0  0
 31 32  2  0  0  0  0
 32 30  1  0  0  0  0
M  END
>  <MODEL>
9

>  <REMARK>
 VINA RESULT:     -10.1      2.403      7.316
  Name = 
  2 active torsions:
  status: ('A' for Active; 'I' for Inactive)
    1  A    between atoms: C_15  and  C_26
    2  A    between atoms: C_16  and  C_27
                            x       y       z     vdW  Elec       q    Type
                         _______ _______ _______ _____ _____    ______ ____

>  <TORSDO>
F 2

$$$$
