=
 OpenBabel10272400503D

 25 29  0  0  1  0  0  0  0  0999 V2000
  187.1790  177.8350  144.3400 N   0  0  0  0  0  0  0  0  0  0  0  0
  188.0640  176.9080  143.6250 C   0  0  1  0  0  3  0  0  0  0  0  0
  188.4350  177.7140  146.3820 C   0  0  0  0  0  3  0  0  0  0  0  0
  185.8530  178.1710  143.9510 C   0  0  0  0  0  0  0  0  0  0  0  0
  183.2030  178.8770  143.4760 C   0  0  0  0  0  3  0  0  0  0  0  0
  189.5260  177.0600  145.6350 C   0  0  0  0  0  3  0  0  0  0  0  0
  185.0890  178.7210  144.9700 C   0  0  0  0  0  0  0  0  0  0  0  0
  183.7570  179.0780  144.7480 C   0  0  0  0  0  3  0  0  0  0  0  0
  190.4700  176.2000  143.5740 N   0  0  0  0  0  0  0  0  0  0  0  0
  191.6560  175.6330  144.1980 C   0  0  0  0  0  1  0  0  0  0  0  0
  188.2720  177.3340  142.2390 N   0  0  0  0  0  0  0  0  0  0  0  0
  183.9770  178.3190  142.4460 C   0  0  0  0  0  3  0  0  0  0  0  0
  187.3350  178.0940  145.7340 C   0  0  0  0  0  0  0  0  0  0  0  0
  185.9370  178.8810  146.5420 S   0  0  0  0  0  0  0  0  0  0  0  0
  190.4160  176.3150  142.1760 N   0  0  0  0  0  2  0  0  0  0  0  0
  185.3100  177.9580  142.6810 C   0  0  0  0  0  3  0  0  0  0  0  0
  189.3230  177.0010  141.5430 C   0  0  0  0  0  0  0  0  0  0  0  0
  189.3820  176.7280  144.3420 C   0  0  0  0  0  0  0  0  0  0  0  0
  190.3610  177.0610  137.9180 C   0  0  0  0  0  0  0  0  0  0  0  0
  189.4210  177.3840  140.1220 C   0  0  0  0  0  0  0  0  0  0  0  0
  190.2790  176.6890  139.2610 C   0  0  0  0  0  3  0  0  0  0  0  0
  191.2720  176.3290  136.9990 C   0  0  0  0  0  1  0  0  0  0  0  0
  188.6570  178.4420  139.6110 C   0  0  0  0  0  3  0  0  0  0  0  0
  189.6100  178.0940  137.4500 N   0  0  0  0  0  0  0  0  0  0  0  0
  188.7660  178.7850  138.2630 C   0  0  0  0  0  3  0  0  0  0  0  0
  1 13  1  0  0  0  0
  2 11  1  6  0  0  0
  2  1  1  0  0  0  0
  2 18  1  0  0  0  0
  4  1  1  0  0  0  0
  4  7  1  0  0  0  0
  5  8  1  0  0  0  0
  6  3  1  0  0  0  0
  7 14  1  0  0  0  0
  8  7  2  0  0  0  0
  9 10  1  0  0  0  0
  9 18  1  0  0  0  0
 12 16  1  0  0  0  0
 12  5  2  0  0  0  0
 13  3  2  0  0  0  0
 13 14  1  0  0  0  0
 15  9  1  0  0  0  0
 16  4  2  0  0  0  0
 17 15  1  0  0  0  0
 17 11  2  0  0  0  0
 18  6  2  0  0  0  0
 19 21  1  0  0  0  0
 20 17  1  0  0  0  0
 21 20  2  0  0  0  0
 22 19  1  0  0  0  0
 23 20  1  0  0  0  0
 24 19  2  0  0  0  0
 24 25  1  0  0  0  0
 25 23  2  0  0  0  0
M  END
>  <MODEL>
1

>  <REMARK>
 VINA RESULT:     -10.1      0.000      0.000
  Name = 
  1 active torsions:
  status: ('A' for Active; 'I' for Inactive)
    1  A    between atoms: C_6  and  C_23
                            x       y       z     vdW  Elec       q    Type
                         _______ _______ _______ _____ _____    ______ ____

>  <TORSDO>
F 1

$$$$
=
 OpenBabel10272400503D

 25 29  0  0  1  0  0  0  0  0999 V2000
  187.5380  177.9460  145.6480 N   0  0  0  0  0  0  0  0  0  0  0  0
  188.5900  176.9990  145.2630 C   0  0  1  0  0  3  0  0  0  0  0  0
  188.3080  178.1310  147.9140 C   0  0  0  0  0  3  0  0  0  0  0  0
  186.3230  178.1580  144.9410 C   0  0  0  0  0  0  0  0  0  0  0  0
  183.8250  178.6470  143.8140 C   0  0  0  0  0  3  0  0  0  0  0  0
  189.5600  177.4630  147.5100 C   0  0  0  0  0  3  0  0  0  0  0  0
  185.3320  178.7720  145.6920 C   0  0  0  0  0  0  0  0  0  0  0  0
  184.0730  179.0230  145.1420 C   0  0  0  0  0  3  0  0  0  0  0  0
  190.9690  176.4330  145.8270 N   0  0  0  0  0  0  0  0  0  0  0  0
  192.0030  176.0110  146.7610 C   0  0  0  0  0  1  0  0  0  0  0  0
  189.0910  177.2780  143.9140 N   0  0  0  0  0  0  0  0  0  0  0  0
  184.8280  178.0230  143.0550 C   0  0  0  0  0  3  0  0  0  0  0  0
  187.3700  178.3700  147.0000 C   0  0  0  0  0  0  0  0  0  0  0  0
  185.8010  179.1580  147.3800 S   0  0  0  0  0  0  0  0  0  0  0  0
  191.2260  176.3870  144.4480 N   0  0  0  0  0  2  0  0  0  0  0  0
  186.0860  177.7710  143.6180 C   0  0  0  0  0  3  0  0  0  0  0  0
  190.2810  176.9310  143.5120 C   0  0  0  0  0  0  0  0  0  0  0  0
  189.7200  176.9790  146.2680 C   0  0  0  0  0  0  0  0  0  0  0  0
  190.1090  177.4450  139.7790 C   0  0  0  0  0  0  0  0  0  0  0  0
  190.6820  177.1560  142.1110 C   0  0  0  0  0  0  0  0  0  0  0  0
  189.7150  177.2290  141.1020 C   0  0  0  0  0  3  0  0  0  0  0  0
  189.0870  177.5210  138.7030 C   0  0  0  0  0  1  0  0  0  0  0  0
  192.0340  177.3050  141.7680 C   0  0  0  0  0  3  0  0  0  0  0  0
  191.4270  177.5840  139.4760 N   0  0  0  0  0  0  0  0  0  0  0  0
  192.3890  177.5190  140.4360 C   0  0  0  0  0  3  0  0  0  0  0  0
  1 13  1  0  0  0  0
  2 11  1  6  0  0  0
  2  1  1  0  0  0  0
  2 18  1  0  0  0  0
  4  1  1  0  0  0  0
  4  7  1  0  0  0  0
  5  8  1  0  0  0  0
  6  3  1  0  0  0  0
  7 14  1  0  0  0  0
  8  7  2  0  0  0  0
  9 18  1  0  0  0  0
  9 10  1  0  0  0  0
 12 16  1  0  0  0  0
 12  5  2  0  0  0  0
 13 14  1  0  0  0  0
 13  3  2  0  0  0  0
 15  9  1  0  0  0  0
 16  4  2  0  0  0  0
 17 11  2  0  0  0  0
 17 15  1  0  0  0  0
 18  6  2  0  0  0  0
 19 21  1  0  0  0  0
 20 17  1  0  0  0  0
 21 20  2  0  0  0  0
 22 19  1  0  0  0  0
 23 20  1  0  0  0  0
 24 19  2  0  0  0  0
 24 25  1  0  0  0  0
 25 23  2  0  0  0  0
M  END
>  <MODEL>
2

>  <REMARK>
 VINA RESULT:      -9.7      1.539      2.153
  Name = 
  1 active torsions:
  status: ('A' for Active; 'I' for Inactive)
    1  A    between atoms: C_6  and  C_23
                            x       y       z     vdW  Elec       q    Type
                         _______ _______ _______ _____ _____    ______ ____

>  <TORSDO>
F 1

$$$$
=
 OpenBabel10272400503D

 25 29  0  0  1  0  0  0  0  0999 V2000
  188.3590  177.5150  143.2490 N   0  0  0  0  0  0  0  0  0  0  0  0
  187.3870  178.4050  143.8930 C   0  0  1  0  0  3  0  0  0  0  0  0
  189.3360  176.8140  145.3270 C   0  0  0  0  0  3  0  0  0  0  0  0
  188.7480  177.5720  141.8830 C   0  0  0  0  0  0  0  0  0  0  0  0
  189.7680  177.5730  139.2920 C   0  0  0  0  0  3  0  0  0  0  0  0
  188.1890  177.4140  146.0320 C   0  0  0  0  0  3  0  0  0  0  0  0
  189.9460  176.9290  141.6090 C   0  0  0  0  0  0  0  0  0  0  0  0
  190.4720  176.9220  140.3160 C   0  0  0  0  0  3  0  0  0  0  0  0
  186.0740  178.6010  146.0220 N   0  0  0  0  0  0  0  0  0  0  0  0
  185.9840  178.7230  147.4700 C   0  0  0  0  0  1  0  0  0  0  0  0
  186.0850  178.3440  143.2230 N   0  0  0  0  0  0  0  0  0  0  0  0
  188.5550  178.2250  139.5710 C   0  0  0  0  0  3  0  0  0  0  0  0
  189.3810  176.8560  143.9960 C   0  0  0  0  0  0  0  0  0  0  0  0
  190.7350  176.1760  143.0330 S   0  0  0  0  0  0  0  0  0  0  0  0
  184.9480  178.8870  145.2360 N   0  0  0  0  0  2  0  0  0  0  0  0
  188.0400  178.2310  140.8740 C   0  0  0  0  0  3  0  0  0  0  0  0
  184.9640  178.6370  143.8200 C   0  0  0  0  0  0  0  0  0  0  0  0
  187.2520  178.1120  145.3700 C   0  0  0  0  0  0  0  0  0  0  0  0
  181.2940  178.8620  142.9820 C   0  0  0  0  0  0  0  0  0  0  0  0
  183.7010  178.6480  143.0590 C   0  0  0  0  0  0  0  0  0  0  0  0
  182.4820  178.8520  143.7160 C   0  0  0  0  0  3  0  0  0  0  0  0
  179.9960  179.0750  143.6740 C   0  0  0  0  0  1  0  0  0  0  0  0
  183.7010  178.4610  141.6690 C   0  0  0  0  0  3  0  0  0  0  0  0
  181.3230  178.6750  141.6350 N   0  0  0  0  0  0  0  0  0  0  0  0
  182.4930  178.4760  140.9700 C   0  0  0  0  0  3  0  0  0  0  0  0
  1  2  1  0  0  0  0
  1 13  1  0  0  0  0
  2 11  1  6  0  0  0
  2 18  1  0  0  0  0
  3  6  1  0  0  0  0
  4  1  1  0  0  0  0
  5 12  2  0  0  0  0
  5  8  1  0  0  0  0
  7  4  1  0  0  0  0
  7 14  1  0  0  0  0
  8  7  2  0  0  0  0
  9 10  1  0  0  0  0
 11 17  2  0  0  0  0
 12 16  1  0  0  0  0
 13  3  2  0  0  0  0
 14 13  1  0  0  0  0
 15  9  1  0  0  0  0
 16  4  2  0  0  0  0
 17 15  1  0  0  0  0
 18  9  1  0  0  0  0
 18  6  2  0  0  0  0
 19 22  1  0  0  0  0
 19 21  1  0  0  0  0
 20 21  2  0  0  0  0
 20 17  1  0  0  0  0
 23 20  1  0  0  0  0
 24 19  2  0  0  0  0
 25 24  1  0  0  0  0
 25 23  2  0  0  0  0
M  END
>  <MODEL>
3

>  <REMARK>
 VINA RESULT:      -9.1      2.327      6.437
  Name = 
  1 active torsions:
  status: ('A' for Active; 'I' for Inactive)
    1  A    between atoms: C_6  and  C_23
                            x       y       z     vdW  Elec       q    Type
                         _______ _______ _______ _____ _____    ______ ____

>  <TORSDO>
F 1

$$$$
=
 OpenBabel10272400503D

 25 29  0  0  1  0  0  0  0  0999 V2000
  187.8710  177.7620  143.5700 N   0  0  0  0  0  0  0  0  0  0  0  0
  187.7250  178.4180  142.2660 C   0  0  1  0  0  3  0  0  0  0  0  0
  185.5570  178.0400  144.1480 C   0  0  0  0  0  3  0  0  0  0  0  0
  189.0990  177.5600  144.2570 C   0  0  0  0  0  0  0  0  0  0  0  0
  191.3470  177.1750  145.8520 C   0  0  0  0  0  3  0  0  0  0  0  0
  185.2810  178.3950  142.7440 C   0  0  0  0  0  3  0  0  0  0  0  0
  188.9520  177.3050  145.6120 C   0  0  0  0  0  0  0  0  0  0  0  0
  190.0700  177.1120  146.4260 C   0  0  0  0  0  3  0  0  0  0  0  0
  186.0150  178.7520  140.4610 N   0  0  0  0  0  0  0  0  0  0  0  0
  184.7290  179.2380  139.9830 C   0  0  0  0  0  1  0  0  0  0  0  0
  188.5190  177.7400  141.2370 N   0  0  0  0  0  0  0  0  0  0  0  0
  191.4950  177.4350  144.4800 C   0  0  0  0  0  3  0  0  0  0  0  0
  186.7980  177.7200  144.5110 C   0  0  0  0  0  0  0  0  0  0  0  0
  187.2550  177.2900  146.1940 S   0  0  0  0  0  0  0  0  0  0  0  0
  187.0110  178.4130  139.5320 N   0  0  0  0  0  2  0  0  0  0  0  0
  190.3670  177.6340  143.6730 C   0  0  0  0  0  3  0  0  0  0  0  0
  188.2340  177.7970  139.9670 C   0  0  0  0  0  0  0  0  0  0  0  0
  186.2750  178.5230  141.8500 C   0  0  0  0  0  0  0  0  0  0  0  0
  191.3550  176.5580  138.2490 C   0  0  0  0  0  0  0  0  0  0  0  0
  189.1330  177.1710  138.9790 C   0  0  0  0  0  0  0  0  0  0  0  0
  190.5160  177.1550  139.1930 C   0  0  0  0  0  3  0  0  0  0  0  0
  192.8250  176.5390  138.4700 C   0  0  0  0  0  1  0  0  0  0  0  0
  188.6180  176.5810  137.8160 C   0  0  0  0  0  3  0  0  0  0  0  0
  190.8280  175.9940  137.1290 N   0  0  0  0  0  0  0  0  0  0  0  0
  189.4880  175.9940  136.8960 C   0  0  0  0  0  3  0  0  0  0  0  0
  1  4  1  0  0  0  0
  1 13  1  0  0  0  0
  2 11  1  6  0  0  0
  2  1  1  0  0  0  0
  3 13  2  0  0  0  0
  4  7  1  0  0  0  0
  5  8  1  0  0  0  0
  6  3  1  0  0  0  0
  7 14  1  0  0  0  0
  7  8  2  0  0  0  0
  9 18  1  0  0  0  0
 10  9  1  0  0  0  0
 12  5  2  0  0  0  0
 13 14  1  0  0  0  0
 15 17  1  0  0  0  0
 15  9  1  0  0  0  0
 16  4  2  0  0  0  0
 16 12  1  0  0  0  0
 17 11  2  0  0  0  0
 18  2  1  0  0  0  0
 18  6  2  0  0  0  0
 19 22  1  0  0  0  0
 19 21  1  0  0  0  0
 20 21  2  0  0  0  0
 20 17  1  0  0  0  0
 23 20  1  0  0  0  0
 24 19  2  0  0  0  0
 25 24  1  0  0  0  0
 25 23  2  0  0  0  0
M  END
>  <MODEL>
4

>  <REMARK>
 VINA RESULT:      -9.0      1.722      4.400
  Name = 
  1 active torsions:
  status: ('A' for Active; 'I' for Inactive)
    1  A    between atoms: C_6  and  C_23
                            x       y       z     vdW  Elec       q    Type
                         _______ _______ _______ _____ _____    ______ ____

>  <TORSDO>
F 1

$$$$
=
 OpenBabel10272400503D

 25 29  0  0  1  0  0  0  0  0999 V2000
  188.3870  177.5260  143.2260 N   0  0  0  0  0  0  0  0  0  0  0  0
  187.4280  178.4130  143.8920 C   0  0  1  0  0  3  0  0  0  0  0  0
  189.3630  176.7700  145.2850 C   0  0  0  0  0  3  0  0  0  0  0  0
  188.7720  177.6070  141.8600 C   0  0  0  0  0  0  0  0  0  0  0  0
  189.7820  177.6490  139.2660 C   0  0  0  0  0  3  0  0  0  0  0  0
  188.2250  177.3690  146.0070 C   0  0  0  0  0  3  0  0  0  0  0  0
  189.9610  176.9550  141.5680 C   0  0  0  0  0  0  0  0  0  0  0  0
  190.4820  176.9700  140.2730 C   0  0  0  0  0  3  0  0  0  0  0  0
  186.1250  178.5800  146.0300 N   0  0  0  0  0  0  0  0  0  0  0  0
  186.0420  178.6740  147.4800 C   0  0  0  0  0  1  0  0  0  0  0  0
  186.1220  178.3810  143.2260 N   0  0  0  0  0  0  0  0  0  0  0  0
  188.5790  178.3100  139.5630 C   0  0  0  0  0  3  0  0  0  0  0  0
  189.4040  176.8390  143.9560 C   0  0  0  0  0  0  0  0  0  0  0  0
  190.7470  176.1630  142.9730 S   0  0  0  0  0  0  0  0  0  0  0  0
  184.9990  178.8960  145.2540 N   0  0  0  0  0  2  0  0  0  0  0  0
  188.0680  178.2950  140.8670 C   0  0  0  0  0  3  0  0  0  0  0  0
  185.0070  178.6760  143.8340 C   0  0  0  0  0  0  0  0  0  0  0  0
  187.2940  178.0910  145.3630 C   0  0  0  0  0  0  0  0  0  0  0  0
  182.5130  178.4140  141.0170 C   0  0  0  0  0  0  0  0  0  0  0  0
  183.7420  178.7170  143.0770 C   0  0  0  0  0  0  0  0  0  0  0  0
  183.7190  178.3720  141.7210 C   0  0  0  0  0  3  0  0  0  0  0  0
  182.4810  178.0500  139.5760 C   0  0  0  0  0  1  0  0  0  0  0  0
  182.5460  179.0980  143.7020 C   0  0  0  0  0  3  0  0  0  0  0  0
  181.3680  178.7890  141.6480 N   0  0  0  0  0  0  0  0  0  0  0  0
  181.3610  179.1290  142.9660 C   0  0  0  0  0  3  0  0  0  0  0  0
  1  2  1  0  0  0  0
  1 13  1  0  0  0  0
  2 11  1  6  0  0  0
  2 18  1  0  0  0  0
  3  6  1  0  0  0  0
  4  1  1  0  0  0  0
  5 12  2  0  0  0  0
  5  8  1  0  0  0  0
  7  4  1  0  0  0  0
  7 14  1  0  0  0  0
  8  7  2  0  0  0  0
  9 10  1  0  0  0  0
 11 17  2  0  0  0  0
 12 16  1  0  0  0  0
 13  3  2  0  0  0  0
 14 13  1  0  0  0  0
 15  9  1  0  0  0  0
 16  4  2  0  0  0  0
 17 15  1  0  0  0  0
 18  6  2  0  0  0  0
 18  9  1  0  0  0  0
 19 24  2  0  0  0  0
 19 21  1  0  0  0  0
 20 23  1  0  0  0  0
 20 17  1  0  0  0  0
 21 20  2  0  0  0  0
 22 19  1  0  0  0  0
 24 25  1  0  0  0  0
 25 23  2  0  0  0  0
M  END
>  <MODEL>
5

>  <REMARK>
 VINA RESULT:      -8.9      2.322      6.091
  Name = 
  1 active torsions:
  status: ('A' for Active; 'I' for Inactive)
    1  A    between atoms: C_6  and  C_23
                            x       y       z     vdW  Elec       q    Type
                         _______ _______ _______ _____ _____    ______ ____

>  <TORSDO>
F 1

$$$$
=
 OpenBabel10272400503D

 25 29  0  0  1  0  0  0  0  0999 V2000
  187.8510  177.7990  143.5000 N   0  0  0  0  0  0  0  0  0  0  0  0
  187.7320  178.4460  142.1880 C   0  0  1  0  0  3  0  0  0  0  0  0
  185.5170  178.0370  144.0080 C   0  0  0  0  0  3  0  0  0  0  0  0
  189.0610  177.6240  144.2240 C   0  0  0  0  0  0  0  0  0  0  0  0
  191.2680  177.2890  145.8880 C   0  0  0  0  0  3  0  0  0  0  0  0
  185.2760  178.3790  142.5940 C   0  0  0  0  0  3  0  0  0  0  0  0
  188.8790  177.3720  145.5760 C   0  0  0  0  0  0  0  0  0  0  0  0
  189.9760  177.2050  146.4240 C   0  0  0  0  0  3  0  0  0  0  0  0
  186.0710  178.7390  140.3320 N   0  0  0  0  0  0  0  0  0  0  0  0
  184.7910  179.1980  139.8130 C   0  0  0  0  0  1  0  0  0  0  0  0
  188.5690  177.7770  141.1880 N   0  0  0  0  0  0  0  0  0  0  0  0
  191.4520  177.5440  144.5190 C   0  0  0  0  0  3  0  0  0  0  0  0
  186.7520  177.7420  144.4090 C   0  0  0  0  0  0  0  0  0  0  0  0
  187.1660  177.3290  146.1070 S   0  0  0  0  0  0  0  0  0  0  0  0
  187.1000  178.4140  139.4350 N   0  0  0  0  0  2  0  0  0  0  0  0
  190.3450  177.7180  143.6780 C   0  0  0  0  0  3  0  0  0  0  0  0
  188.3210  177.8220  139.9090 C   0  0  0  0  0  0  0  0  0  0  0  0
  186.2940  178.5220  141.7290 C   0  0  0  0  0  0  0  0  0  0  0  0
  189.8960  176.6700  136.6820 C   0  0  0  0  0  0  0  0  0  0  0  0
  189.2600  177.2080  138.9520 C   0  0  0  0  0  0  0  0  0  0  0  0
  188.9970  177.2540  137.5770 C   0  0  0  0  0  3  0  0  0  0  0  0
  189.6220  176.7130  135.2220 C   0  0  0  0  0  1  0  0  0  0  0  0
  190.4280  176.5760  139.4000 C   0  0  0  0  0  3  0  0  0  0  0  0
  191.0200  176.0610  137.1450 N   0  0  0  0  0  0  0  0  0  0  0  0
  191.3020  176.0030  138.4750 C   0  0  0  0  0  3  0  0  0  0  0  0
  1  4  1  0  0  0  0
  1 13  1  0  0  0  0
  2 11  1  6  0  0  0
  2  1  1  0  0  0  0
  3 13  2  0  0  0  0
  4  7  1  0  0  0  0
  5  8  1  0  0  0  0
  6  3  1  0  0  0  0
  7 14  1  0  0  0  0
  7  8  2  0  0  0  0
  9 18  1  0  0  0  0
 10  9  1  0  0  0  0
 12  5  2  0  0  0  0
 13 14  1  0  0  0  0
 15 17  1  0  0  0  0
 15  9  1  0  0  0  0
 16  4  2  0  0  0  0
 16 12  1  0  0  0  0
 17 11  2  0  0  0  0
 18  2  1  0  0  0  0
 18  6  2  0  0  0  0
 19 24  2  0  0  0  0
 19 21  1  0  0  0  0
 20 23  1  0  0  0  0
 20 17  1  0  0  0  0
 21 20  2  0  0  0  0
 22 19  1  0  0  0  0
 24 25  1  0  0  0  0
 25 23  2  0  0  0  0
M  END
>  <MODEL>
6

>  <REMARK>
 VINA RESULT:      -8.9      1.743      4.441
  Name = 
  1 active torsions:
  status: ('A' for Active; 'I' for Inactive)
    1  A    between atoms: C_6  and  C_23
                            x       y       z     vdW  Elec       q    Type
                         _______ _______ _______ _____ _____    ______ ____

>  <TORSDO>
F 1

$$$$
=
 OpenBabel10272400503D

 25 29  0  0  1  0  0  0  0  0999 V2000
  185.3450  178.4550  141.4410 N   0  0  0  0  0  0  0  0  0  0  0  0
  186.7570  178.7840  141.2150 C   0  0  1  0  0  3  0  0  0  0  0  0
  184.8390  178.3020  139.1000 C   0  0  0  0  0  3  0  0  0  0  0  0
  184.6300  178.6850  142.6480 C   0  0  0  0  0  0  0  0  0  0  0  0
  182.9880  179.1580  144.8460 C   0  0  0  0  0  3  0  0  0  0  0  0
  186.2870  178.2930  138.8190 C   0  0  0  0  0  3  0  0  0  0  0  0
  183.2520  178.6800  142.4980 C   0  0  0  0  0  0  0  0  0  0  0  0
  182.4150  178.9190  143.5890 C   0  0  0  0  0  3  0  0  0  0  0  0
  188.5930  178.3440  139.5630 N   0  0  0  0  0  0  0  0  0  0  0  0
  189.1620  178.4140  138.2250 C   0  0  0  0  0  1  0  0  0  0  0  0
  187.6220  178.1150  142.1900 N   0  0  0  0  0  0  0  0  0  0  0  0
  184.3850  179.1640  144.9980 C   0  0  0  0  0  3  0  0  0  0  0  0
  184.4170  178.3560  140.3620 C   0  0  0  0  0  0  0  0  0  0  0  0
  182.6810  178.3920  140.8220 S   0  0  0  0  0  0  0  0  0  0  0  0
  189.4310  178.0640  140.6540 N   0  0  0  0  0  2  0  0  0  0  0  0
  185.2160  178.9300  143.8940 C   0  0  0  0  0  3  0  0  0  0  0  0
  188.8770  177.8480  141.9620 C   0  0  0  0  0  0  0  0  0  0  0  0
  187.1860  178.4650  139.8010 C   0  0  0  0  0  0  0  0  0  0  0  0
  190.1990  176.9140  145.3690 C   0  0  0  0  0  0  0  0  0  0  0  0
  189.7140  177.2600  143.0250 C   0  0  0  0  0  0  0  0  0  0  0  0
  189.3990  177.4780  144.3720 C   0  0  0  0  0  3  0  0  0  0  0  0
  189.8710  177.1420  146.8000 C   0  0  0  0  0  1  0  0  0  0  0  0
  190.8310  176.4750  142.7060 C   0  0  0  0  0  3  0  0  0  0  0  0
  191.2780  176.1590  145.0300 N   0  0  0  0  0  0  0  0  0  0  0  0
  191.6070  175.9300  143.7300 C   0  0  0  0  0  3  0  0  0  0  0  0
  1  4  1  0  0  0  0
  2 18  1  6  0  0  0
  2  1  1  0  0  0  0
  2 11  1  0  0  0  0
  3 13  2  0  0  0  0
  4 16  1  0  0  0  0
  5 12  1  0  0  0  0
  6  3  1  0  0  0  0
  6 18  2  0  0  0  0
  7  4  2  0  0  0  0
  7  8  1  0  0  0  0
  8  5  2  0  0  0  0
  9 18  1  0  0  0  0
  9 15  1  0  0  0  0
 10  9  1  0  0  0  0
 13 14  1  0  0  0  0
 13  1  1  0  0  0  0
 14  7  1  0  0  0  0
 15 17  1  0  0  0  0
 16 12  2  0  0  0  0
 17 11  2  0  0  0  0
 17 20  1  0  0  0  0
 19 22  1  0  0  0  0
 20 21  1  0  0  0  0
 21 19  2  0  0  0  0
 23 20  2  0  0  0  0
 23 25  1  0  0  0  0
 24 19  1  0  0  0  0
 25 24  2  0  0  0  0
M  END
>  <MODEL>
7

>  <REMARK>
 VINA RESULT:      -8.8      2.113      5.239
  Name = 
  1 active torsions:
  status: ('A' for Active; 'I' for Inactive)
    1  A    between atoms: C_6  and  C_23
                            x       y       z     vdW  Elec       q    Type
                         _______ _______ _______ _____ _____    ______ ____

>  <TORSDO>
F 1

$$$$
=
 OpenBabel10272400503D

 25 29  0  0  1  0  0  0  0  0999 V2000
  185.1290  178.2980  143.5820 N   0  0  0  0  0  0  0  0  0  0  0  0
  186.3260  177.4520  143.6440 C   0  0  1  0  0  3  0  0  0  0  0  0
  185.1850  178.8280  145.9220 C   0  0  0  0  0  3  0  0  0  0  0  0
  184.1610  178.2770  142.5410 C   0  0  0  0  0  0  0  0  0  0  0  0
  182.0680  178.3250  140.7060 C   0  0  0  0  0  3  0  0  0  0  0  0
  186.5520  178.2800  145.9820 C   0  0  0  0  0  3  0  0  0  0  0  0
  182.9440  178.8440  142.8910 C   0  0  0  0  0  0  0  0  0  0  0  0
  181.8840  178.8730  141.9830 C   0  0  0  0  0  3  0  0  0  0  0  0
  188.4760  177.2520  144.9230 N   0  0  0  0  0  0  0  0  0  0  0  0
  189.2240  177.0680  146.1570 C   0  0  0  0  0  1  0  0  0  0  0  0
  187.1730  177.6390  142.4630 N   0  0  0  0  0  0  0  0  0  0  0  0
  183.3000  177.7490  140.3530 C   0  0  0  0  0  3  0  0  0  0  0  0
  184.5370  178.8460  144.7590 C   0  0  0  0  0  0  0  0  0  0  0  0
  182.8630  179.4700  144.5710 S   0  0  0  0  0  0  0  0  0  0  0  0
  189.1270  177.0850  143.6910 N   0  0  0  0  0  2  0  0  0  0  0  0
  184.3550  177.7190  141.2750 C   0  0  0  0  0  3  0  0  0  0  0  0
  188.4540  177.3990  142.4610 C   0  0  0  0  0  0  0  0  0  0  0  0
  187.1100  177.6840  144.9160 C   0  0  0  0  0  0  0  0  0  0  0  0
  189.3970  178.2150  138.9020 C   0  0  0  0  0  0  0  0  0  0  0  0
  189.2260  177.5160  141.2100 C   0  0  0  0  0  0  0  0  0  0  0  0
  188.6530  178.1100  140.0790 C   0  0  0  0  0  3  0  0  0  0  0  0
  188.7940  178.8440  137.6970 C   0  0  0  0  0  1  0  0  0  0  0  0
  190.5420  177.0390  141.1340 C   0  0  0  0  0  3  0  0  0  0  0  0
  190.6710  177.7420  138.8560 N   0  0  0  0  0  0  0  0  0  0  0  0
  191.2530  177.1610  139.9390 C   0  0  0  0  0  3  0  0  0  0  0  0
  1  2  1  0  0  0  0
  1 13  1  0  0  0  0
  2 11  1  6  0  0  0
  2 18  1  0  0  0  0
  3  6  1  0  0  0  0
  4  7  1  0  0  0  0
  4  1  1  0  0  0  0
  5  8  1  0  0  0  0
  7 14  1  0  0  0  0
  8  7  2  0  0  0  0
  9 10  1  0  0  0  0
 12  5  2  0  0  0  0
 12 16  1  0  0  0  0
 13  3  2  0  0  0  0
 14 13  1  0  0  0  0
 15  9  1  0  0  0  0
 16  4  2  0  0  0  0
 17 11  2  0  0  0  0
 17 15  1  0  0  0  0
 18  9  1  0  0  0  0
 18  6  2  0  0  0  0
 19 21  1  0  0  0  0
 20 17  1  0  0  0  0
 21 20  2  0  0  0  0
 22 19  1  0  0  0  0
 23 20  1  0  0  0  0
 24 19  2  0  0  0  0
 24 25  1  0  0  0  0
 25 23  2  0  0  0  0
M  END
>  <MODEL>
8

>  <REMARK>
 VINA RESULT:      -8.5      1.638      2.641
  Name = 
  1 active torsions:
  status: ('A' for Active; 'I' for Inactive)
    1  A    between atoms: C_6  and  C_23
                            x       y       z     vdW  Elec       q    Type
                         _______ _______ _______ _____ _____    ______ ____

>  <TORSDO>
F 1

$$$$
=
 OpenBabel10272400503D

 25 29  0  0  1  0  0  0  0  0999 V2000
  188.2220  177.7580  139.6260 N   0  0  0  0  0  0  0  0  0  0  0  0
  189.4250  178.1280  140.3800 C   0  0  1  0  0  3  0  0  0  0  0  0
  189.4580  176.9940  137.7160 C   0  0  0  0  0  3  0  0  0  0  0  0
  186.9060  178.2240  139.8970 C   0  0  0  0  0  0  0  0  0  0  0  0
  184.2750  179.0980  140.1400 C   0  0  0  0  0  3  0  0  0  0  0  0
  190.6840  177.0270  138.5350 C   0  0  0  0  0  3  0  0  0  0  0  0
  186.0260  178.0770  138.8360 C   0  0  0  0  0  0  0  0  0  0  0  0
  184.7030  178.5130  138.9410 C   0  0  0  0  0  3  0  0  0  0  0  0
  191.8230  177.4360  140.6350 N   0  0  0  0  0  0  0  0  0  0  0  0
  193.1600  177.2160  140.1050 C   0  0  0  0  0  1  0  0  0  0  0  0
  189.2890  177.7890  141.7990 N   0  0  0  0  0  0  0  0  0  0  0  0
  185.1670  179.2480  141.2150 C   0  0  0  0  0  3  0  0  0  0  0  0
  188.2920  177.3260  138.2680 C   0  0  0  0  0  0  0  0  0  0  0  0
  186.7400  177.3410  137.3640 S   0  0  0  0  0  0  0  0  0  0  0  0
  191.6350  177.4990  142.0250 N   0  0  0  0  0  2  0  0  0  0  0  0
  186.4940  178.8130  141.0960 C   0  0  0  0  0  3  0  0  0  0  0  0
  190.3110  177.5700  142.5790 C   0  0  0  0  0  0  0  0  0  0  0  0
  190.6690  177.5040  139.7900 C   0  0  0  0  0  0  0  0  0  0  0  0
  190.9370  176.6120  146.1720 C   0  0  0  0  0  0  0  0  0  0  0  0
  190.1030  177.3290  144.0190 C   0  0  0  0  0  0  0  0  0  0  0  0
  191.1470  176.8330  144.8090 C   0  0  0  0  0  3  0  0  0  0  0  0
  192.0410  176.0840  147.0160 C   0  0  0  0  0  1  0  0  0  0  0  0
  188.8640  177.5960  144.6190 C   0  0  0  0  0  3  0  0  0  0  0  0
  189.7250  176.8780  146.7270 N   0  0  0  0  0  0  0  0  0  0  0  0
  188.6930  177.3610  145.9840 C   0  0  0  0  0  3  0  0  0  0  0  0
  1  4  1  0  0  0  0
  1  2  1  0  0  0  0
  2 18  1  6  0  0  0
  2 11  1  0  0  0  0
  3 13  2  0  0  0  0
  3  6  1  0  0  0  0
  4 16  1  0  0  0  0
  5 12  1  0  0  0  0
  6 18  2  0  0  0  0
  7  8  1  0  0  0  0
  7  4  2  0  0  0  0
  8  5  2  0  0  0  0
  9 15  1  0  0  0  0
 10  9  1  0  0  0  0
 11 17  2  0  0  0  0
 13  1  1  0  0  0  0
 14 13  1  0  0  0  0
 14  7  1  0  0  0  0
 15 17  1  0  0  0  0
 16 12  2  0  0  0  0
 17 20  1  0  0  0  0
 18  9  1  0  0  0  0
 19 24  1  0  0  0  0
 19 22  1  0  0  0  0
 20 23  2  0  0  0  0
 20 21  1  0  0  0  0
 21 19  2  0  0  0  0
 23 25  1  0  0  0  0
 25 24  2  0  0  0  0
M  END
>  <MODEL>
9

>  <REMARK>
 VINA RESULT:      -8.5      2.752      5.924
  Name = 
  1 active torsions:
  status: ('A' for Active; 'I' for Inactive)
    1  A    between atoms: C_6  and  C_23
                            x       y       z     vdW  Elec       q    Type
                         _______ _______ _______ _____ _____    ______ ____

>  <TORSDO>
F 1

$$$$
