=
 OpenBabel10272401083D

 27 31  0  0  1  0  0  0  0  0999 V2000
  187.5130  178.6260  141.8210 N   0  0  0  0  0  2  0  0  0  0  0  0
  187.7460  177.3810  143.9910 C   0  0  1  0  0  3  0  0  0  0  0  0
  189.5320  176.5720  142.4900 N   0  0  0  0  0  2  0  0  0  0  0  0
  190.2950  176.8660  147.2850 C   0  0  0  0  0  3  0  0  0  0  0  0
  192.3020  175.9440  148.2550 O   0  0  0  0  0  1  0  0  0  0  0  0
  187.5280  178.2860  145.2050 C   0  0  0  0  0  2  0  0  0  0  0  0
  191.3220  176.3840  144.7260 C   0  0  0  0  0  3  0  0  0  0  0  0
  190.1650  177.1490  138.8730 C   0  0  0  0  0  0  0  0  0  0  0  0
  192.0730  176.0480  145.8560 C   0  0  0  0  0  3  0  0  0  0  0  0
  190.9700  176.6550  137.9020 F   0  0  0  0  0  0  0  0  0  0  0  0
  190.0450  176.9430  144.8680 C   0  0  0  0  0  0  0  0  0  0  0  0
  186.8690  177.7220  142.7710 C   0  0  1  0  0  3  0  0  0  0  0  0
  191.5580  176.2840  147.1340 C   0  0  0  0  0  0  0  0  0  0  0  0
  189.5420  177.2090  146.1590 C   0  0  0  0  0  0  0  0  0  0  0  0
  188.4860  178.1630  140.8770 C   0  0  0  0  0  0  0  0  0  0  0  0
  189.2430  177.3790  143.6680 C   0  0  2  0  0  3  0  0  0  0  0  0
  190.1880  176.5850  140.1500 C   0  0  0  0  0  3  0  0  0  0  0  0
  188.2780  177.7920  146.3180 O   0  0  0  0  0  0  0  0  0  0  0  0
  189.3340  178.2380  138.6040 C   0  0  0  0  0  3  0  0  0  0  0  0
  188.4950  178.7380  139.6020 C   0  0  0  0  0  3  0  0  0  0  0  0
  189.3680  177.0910  141.1640 C   0  0  0  0  0  0  0  0  0  0  0  0
  182.8720  178.9070  143.6730 N   0  0  0  0  0  0  0  0  0  0  0  0
  185.4720  178.1570  143.1010 C   0  0  0  0  0  0  0  0  0  0  0  0
  184.5280  178.2590  142.0770 C   0  0  0  0  0  3  0  0  0  0  0  0
  183.2210  178.6410  142.3850 C   0  0  0  0  0  3  0  0  0  0  0  0
  183.7720  178.8080  144.6880 C   0  0  0  0  0  3  0  0  0  0  0  0
  185.0900  178.4280  144.4220 C   0  0  0  0  0  3  0  0  0  0  0  0
  1 12  1  0  0  0  0
  2  6  1  1  0  0  0
  6 18  1  0  0  0  0
  7 11  2  0  0  0  0
  7  9  1  0  0  0  0
  8 17  1  0  0  0  0
  9 13  2  0  0  0  0
 10  8  1  0  0  0  0
 11 14  1  0  0  0  0
 12 23  1  1  0  0  0
 12  2  1  0  0  0  0
 13  4  1  0  0  0  0
 13  5  1  0  0  0  0
 14 18  1  0  0  0  0
 14  4  2  0  0  0  0
 15 21  1  0  0  0  0
 15  1  1  0  0  0  0
 16  3  1  6  0  0  0
 16  2  1  0  0  0  0
 16 11  1  0  0  0  0
 17 21  2  0  0  0  0
 19  8  2  0  0  0  0
 19 20  1  0  0  0  0
 20 15  2  0  0  0  0
 21  3  1  0  0  0  0
 22 26  1  0  0  0  0
 23 27  1  0  0  0  0
 24 25  1  0  0  0  0
 24 23  2  0  0  0  0
 25 22  2  0  0  0  0
 27 26  2  0  0  0  0
M  END
>  <MODEL>
1

>  <REMARK>
 VINA RESULT:     -10.6      0.000      0.000
  Name = 
  1 active torsions:
  status: ('A' for Active; 'I' for Inactive)
    1  A    between atoms: C_9  and  C_15
                            x       y       z     vdW  Elec       q    Type
                         _______ _______ _______ _____ _____    ______ ____

>  <TORSDO>
F 1

$$$$
=
 OpenBabel10272401083D

 27 31  0  0  1  0  0  0  0  0999 V2000
  189.5000  176.7100  142.7370 N   0  0  0  0  0  2  0  0  0  0  0  0
  187.7460  178.0180  143.9720 C   0  0  1  0  0  3  0  0  0  0  0  0
  187.5800  178.6440  141.5890 N   0  0  0  0  0  2  0  0  0  0  0  0
  183.5940  178.4800  144.3730 C   0  0  0  0  0  3  0  0  0  0  0  0
  181.4870  179.2980  143.5300 O   0  0  0  0  0  1  0  0  0  0  0  0
  187.0380  177.1770  145.0370 C   0  0  0  0  0  2  0  0  0  0  0  0
  184.7230  178.7930  141.8310 C   0  0  0  0  0  3  0  0  0  0  0  0
  189.7660  177.8880  138.6800 C   0  0  0  0  0  0  0  0  0  0  0  0
  183.3810  179.1190  142.0460 C   0  0  0  0  0  3  0  0  0  0  0  0
  189.9010  178.2870  137.3930 F   0  0  0  0  0  0  0  0  0  0  0  0
  185.5140  178.3290  142.8900 C   0  0  0  0  0  0  0  0  0  0  0  0
  189.2400  177.6910  143.7860 C   0  0  1  0  0  3  0  0  0  0  0  0
  182.8190  178.9680  143.3170 C   0  0  0  0  0  0  0  0  0  0  0  0
  184.9350  178.1480  144.1630 C   0  0  0  0  0  0  0  0  0  0  0  0
  189.5000  177.0690  141.3490 C   0  0  0  0  0  0  0  0  0  0  0  0
  186.9440  177.9040  142.6720 C   0  0  2  0  0  3  0  0  0  0  0  0
  188.8160  178.4970  139.5030 C   0  0  0  0  0  3  0  0  0  0  0  0
  185.7060  177.6590  145.2270 O   0  0  0  0  0  0  0  0  0  0  0  0
  190.5570  176.8490  139.1750 C   0  0  0  0  0  3  0  0  0  0  0  0
  190.4270  176.4460  140.5060 C   0  0  0  0  0  3  0  0  0  0  0  0
  188.6610  178.0880  140.8320 C   0  0  0  0  0  0  0  0  0  0  0  0
  191.2750  176.7480  147.4140 N   0  0  0  0  0  0  0  0  0  0  0  0
  189.9760  177.3670  145.0530 C   0  0  0  0  0  0  0  0  0  0  0  0
  189.4230  177.7420  146.2800 C   0  0  0  0  0  3  0  0  0  0  0  0
  190.0950  177.4220  147.4610 C   0  0  0  0  0  3  0  0  0  0  0  0
  191.8300  176.3660  146.2320 C   0  0  0  0  0  3  0  0  0  0  0  0
  191.1890  176.6660  145.0280 C   0  0  0  0  0  3  0  0  0  0  0  0
  1 12  1  0  0  0  0
  2  6  1  1  0  0  0
  6 18  1  0  0  0  0
  7  9  2  0  0  0  0
  7 11  1  0  0  0  0
  8 19  2  0  0  0  0
  8 17  1  0  0  0  0
  9 13  1  0  0  0  0
 10  8  1  0  0  0  0
 11 14  2  0  0  0  0
 12  2  1  0  0  0  0
 12 23  1  1  0  0  0
 13  5  1  0  0  0  0
 13  4  2  0  0  0  0
 14  4  1  0  0  0  0
 14 18  1  0  0  0  0
 15  1  1  0  0  0  0
 16  3  1  6  0  0  0
 16 11  1  0  0  0  0
 16  2  1  0  0  0  0
 17 21  2  0  0  0  0
 19 20  1  0  0  0  0
 20 15  2  0  0  0  0
 21 15  1  0  0  0  0
 21  3  1  0  0  0  0
 22 25  1  0  0  0  0
 23 24  1  0  0  0  0
 24 25  2  0  0  0  0
 26 22  2  0  0  0  0
 27 23  2  0  0  0  0
 27 26  1  0  0  0  0
M  END
>  <MODEL>
2

>  <REMARK>
 VINA RESULT:     -10.4      1.948      5.861
  Name = 
  1 active torsions:
  status: ('A' for Active; 'I' for Inactive)
    1  A    between atoms: C_9  and  C_15
                            x       y       z     vdW  Elec       q    Type
                         _______ _______ _______ _____ _____    ______ ____

>  <TORSDO>
F 1

$$$$
=
 OpenBabel10272401083D

 27 31  0  0  1  0  0  0  0  0999 V2000
  186.8480  178.8620  140.6260 N   0  0  0  0  0  2  0  0  0  0  0  0
  185.9510  178.0370  142.8220 C   0  0  1  0  0  3  0  0  0  0  0  0
  188.2000  177.0590  142.5400 N   0  0  0  0  0  2  0  0  0  0  0  0
  186.5700  178.2410  146.9690 C   0  0  0  0  0  3  0  0  0  0  0  0
  187.8160  177.6040  148.9330 O   0  0  0  0  0  1  0  0  0  0  0  0
  185.2150  179.1330  143.5970 C   0  0  0  0  0  2  0  0  0  0  0  0
  188.6810  177.3590  145.3550 C   0  0  0  0  0  3  0  0  0  0  0  0
  190.5240  177.0100  139.6400 C   0  0  0  0  0  0  0  0  0  0  0  0
  188.7770  177.2670  146.7460 C   0  0  0  0  0  3  0  0  0  0  0  0
  191.6740  176.3900  139.2830 F   0  0  0  0  0  0  0  0  0  0  0  0
  187.5200  177.8730  144.7610 C   0  0  0  0  0  0  0  0  0  0  0  0
  185.7870  178.1130  141.2930 C   0  0  1  0  0  3  0  0  0  0  0  0
  187.7210  177.7020  147.5520 C   0  0  0  0  0  0  0  0  0  0  0  0
  186.4700  178.3410  145.5780 C   0  0  0  0  0  0  0  0  0  0  0  0
  188.1340  178.2840  140.3680 C   0  0  0  0  0  0  0  0  0  0  0  0
  187.4160  178.0490  143.2670 C   0  0  2  0  0  3  0  0  0  0  0  0
  189.9030  176.6850  140.8470 C   0  0  0  0  0  3  0  0  0  0  0  0
  185.3130  178.8820  145.0010 O   0  0  0  0  0  0  0  0  0  0  0  0
  189.9760  177.9930  138.8140 C   0  0  0  0  0  3  0  0  0  0  0  0
  188.7830  178.6230  139.1750 C   0  0  0  0  0  3  0  0  0  0  0  0
  188.7190  177.3240  141.2310 C   0  0  0  0  0  0  0  0  0  0  0  0
  181.9300  179.2880  139.9000 N   0  0  0  0  0  0  0  0  0  0  0  0
  184.4240  178.5320  140.8250 C   0  0  0  0  0  0  0  0  0  0  0  0
  184.3090  179.3380  139.6900 C   0  0  0  0  0  3  0  0  0  0  0  0
  183.0410  179.7110  139.2400 C   0  0  0  0  0  3  0  0  0  0  0  0
  182.0170  178.4970  141.0030 C   0  0  0  0  0  3  0  0  0  0  0  0
  183.2660  178.1010  141.4860 C   0  0  0  0  0  3  0  0  0  0  0  0
  1 12  1  0  0  0  0
  2 16  1  0  0  0  0
  2  6  1  1  0  0  0
  4 13  1  0  0  0  0
  6 18  1  0  0  0  0
  7  9  1  0  0  0  0
  8 17  1  0  0  0  0
  9 13  2  0  0  0  0
 10  8  1  0  0  0  0
 11  7  2  0  0  0  0
 11 14  1  0  0  0  0
 12 23  1  1  0  0  0
 12  2  1  0  0  0  0
 13  5  1  0  0  0  0
 14  4  2  0  0  0  0
 15  1  1  0  0  0  0
 15 21  1  0  0  0  0
 16  3  1  6  0  0  0
 16 11  1  0  0  0  0
 17 21  2  0  0  0  0
 18 14  1  0  0  0  0
 19 20  1  0  0  0  0
 19  8  2  0  0  0  0
 20 15  2  0  0  0  0
 21  3  1  0  0  0  0
 22 26  1  0  0  0  0
 23 27  1  0  0  0  0
 24 23  2  0  0  0  0
 25 24  1  0  0  0  0
 25 22  2  0  0  0  0
 26 27  2  0  0  0  0
M  END
>  <MODEL>
3

>  <REMARK>
 VINA RESULT:     -10.4      1.963      2.766
  Name = 
  1 active torsions:
  status: ('A' for Active; 'I' for Inactive)
    1  A    between atoms: C_9  and  C_15
                            x       y       z     vdW  Elec       q    Type
                         _______ _______ _______ _____ _____    ______ ____

>  <TORSDO>
F 1

$$$$
=
 OpenBabel10272401083D

 27 31  0  0  1  0  0  0  0  0999 V2000
  189.7400  178.0840  143.1860 N   0  0  0  0  0  2  0  0  0  0  0  0
  187.9310  177.6290  141.5030 C   0  0  1  0  0  3  0  0  0  0  0  0
  186.9480  177.2850  143.7420 N   0  0  0  0  0  2  0  0  0  0  0  0
  184.2360  179.0520  140.1100 C   0  0  0  0  0  3  0  0  0  0  0  0
  181.8550  179.3140  140.3880 O   0  0  0  0  0  1  0  0  0  0  0  0
  187.9470  178.6340  140.3490 C   0  0  0  0  0  2  0  0  0  0  0  0
  184.4740  178.4160  142.8270 C   0  0  0  0  0  3  0  0  0  0  0  0
  188.4910  177.1520  147.1210 C   0  0  0  0  0  0  0  0  0  0  0  0
  183.2200  178.7140  142.2840 C   0  0  0  0  0  3  0  0  0  0  0  0
  188.1270  176.8100  148.3800 F   0  0  0  0  0  0  0  0  0  0  0  0
  185.6120  178.4140  142.0100 C   0  0  0  0  0  0  0  0  0  0  0  0
  189.3220  177.2630  142.0530 C   0  0  1  0  0  3  0  0  0  0  0  0
  183.1010  179.0250  140.9270 C   0  0  0  0  0  0  0  0  0  0  0  0
  185.4930  178.7600  140.6480 C   0  0  0  0  0  0  0  0  0  0  0  0
  189.2540  177.8450  144.5130 C   0  0  0  0  0  0  0  0  0  0  0  0
  186.9860  178.1660  142.5820 C   0  0  2  0  0  3  0  0  0  0  0  0
  187.5920  176.9850  146.0660 C   0  0  0  0  0  3  0  0  0  0  0  0
  186.6260  178.7880  139.8240 O   0  0  0  0  0  0  0  0  0  0  0  0
  189.7550  177.6950  146.8830 C   0  0  0  0  0  3  0  0  0  0  0  0
  190.1350  178.0350  145.5830 C   0  0  0  0  0  3  0  0  0  0  0  0
  187.9530  177.3420  144.7620 C   0  0  0  0  0  0  0  0  0  0  0  0
  192.4270  176.9130  139.1490 N   0  0  0  0  0  0  0  0  0  0  0  0
  190.4000  177.1480  141.0150 C   0  0  0  0  0  0  0  0  0  0  0  0
  191.6800  177.6270  141.3020 C   0  0  0  0  0  3  0  0  0  0  0  0
  192.6900  177.5010  140.3460 C   0  0  0  0  0  3  0  0  0  0  0  0
  191.1900  176.4330  138.8490 C   0  0  0  0  0  3  0  0  0  0  0  0
  190.1530  176.5390  139.7770 C   0  0  0  0  0  3  0  0  0  0  0  0
  1 15  1  0  0  0  0
  2  6  1  6  0  0  0
  2 12  1  0  0  0  0
  2 16  1  0  0  0  0
  3 21  1  0  0  0  0
  4 14  2  0  0  0  0
  4 13  1  0  0  0  0
  5 13  1  0  0  0  0
  8 10  1  0  0  0  0
  9  7  1  0  0  0  0
 11  7  2  0  0  0  0
 12 23  1  6  0  0  0
 12  1  1  0  0  0  0
 13  9  2  0  0  0  0
 14 11  1  0  0  0  0
 15 21  2  0  0  0  0
 15 20  1  0  0  0  0
 16 11  1  6  0  0  0
 16  3  1  0  0  0  0
 17  8  2  0  0  0  0
 18  6  1  0  0  0  0
 18 14  1  0  0  0  0
 19  8  1  0  0  0  0
 20 19  2  0  0  0  0
 21 17  1  0  0  0  0
 22 25  1  0  0  0  0
 23 24  1  0  0  0  0
 25 24  2  0  0  0  0
 26 22  2  0  0  0  0
 26 27  1  0  0  0  0
 27 23  2  0  0  0  0
M  END
>  <MODEL>
4

>  <REMARK>
 VINA RESULT:     -10.1      3.575      7.543
  Name = 
  1 active torsions:
  status: ('A' for Active; 'I' for Inactive)
    1  A    between atoms: C_9  and  C_15
                            x       y       z     vdW  Elec       q    Type
                         _______ _______ _______ _____ _____    ______ ____

>  <TORSDO>
F 1

$$$$
=
 OpenBabel10272401083D

 27 31  0  0  1  0  0  0  0  0999 V2000
  190.4590  177.8650  142.5150 N   0  0  0  0  0  2  0  0  0  0  0  0
  188.5140  177.4390  140.9830 C   0  0  1  0  0  3  0  0  0  0  0  0
  187.6890  177.1870  143.2960 N   0  0  0  0  0  2  0  0  0  0  0  0
  184.7790  178.9670  139.8290 C   0  0  0  0  0  3  0  0  0  0  0  0
  182.4360  179.3270  140.2750 O   0  0  0  0  0  1  0  0  0  0  0  0
  188.4800  178.4140  139.8040 C   0  0  0  0  0  2  0  0  0  0  0  0
  185.1960  178.3900  142.5360 C   0  0  0  0  0  3  0  0  0  0  0  0
  189.4750  177.0780  146.5540 C   0  0  0  0  0  0  0  0  0  0  0  0
  183.9170  178.7210  142.0790 C   0  0  0  0  0  3  0  0  0  0  0  0
  189.1940  176.7810  147.8460 F   0  0  0  0  0  0  0  0  0  0  0  0
  186.2700  178.3240  141.6380 C   0  0  0  0  0  0  0  0  0  0  0  0
  189.9280  177.0330  141.4380 C   0  0  1  0  0  3  0  0  0  0  0  0
  183.7080  179.0040  140.7270 C   0  0  0  0  0  0  0  0  0  0  0  0
  186.0610  178.6410  140.2800 C   0  0  0  0  0  0  0  0  0  0  0  0
  190.0660  177.6770  143.8790 C   0  0  0  0  0  0  0  0  0  0  0  0
  187.6720  178.0380  142.1130 C   0  0  2  0  0  3  0  0  0  0  0  0
  188.4940  176.9200  145.5740 C   0  0  0  0  0  3  0  0  0  0  0  0
  187.1300  178.6060  139.3740 O   0  0  0  0  0  0  0  0  0  0  0  0
  190.7360  177.5670  146.2100 C   0  0  0  0  0  3  0  0  0  0  0  0
  191.0300  177.8600  144.8760 C   0  0  0  0  0  3  0  0  0  0  0  0
  188.7690  177.2310  144.2380 C   0  0  0  0  0  0  0  0  0  0  0  0
  192.7010  176.5390  138.2350 N   0  0  0  0  0  0  0  0  0  0  0  0
  190.9200  176.8530  140.3270 C   0  0  0  0  0  0  0  0  0  0  0  0
  190.5320  176.1780  139.1670 C   0  0  0  0  0  3  0  0  0  0  0  0
  191.4460  176.0280  138.1220 C   0  0  0  0  0  3  0  0  0  0  0  0
  193.1010  177.2050  139.3520 C   0  0  0  0  0  3  0  0  0  0  0  0
  192.2160  177.3770  140.4190 C   0  0  0  0  0  3  0  0  0  0  0  0
  1 15  1  0  0  0  0
  2  6  1  6  0  0  0
  2 12  1  0  0  0  0
  2 16  1  0  0  0  0
  3 21  1  0  0  0  0
  4 14  2  0  0  0  0
  4 13  1  0  0  0  0
  5 13  1  0  0  0  0
  8 10  1  0  0  0  0
  9  7  1  0  0  0  0
 11  7  2  0  0  0  0
 12 23  1  6  0  0  0
 12  1  1  0  0  0  0
 13  9  2  0  0  0  0
 14 11  1  0  0  0  0
 15 21  2  0  0  0  0
 15 20  1  0  0  0  0
 16 11  1  6  0  0  0
 16  3  1  0  0  0  0
 17  8  2  0  0  0  0
 18  6  1  0  0  0  0
 18 14  1  0  0  0  0
 19  8  1  0  0  0  0
 20 19  2  0  0  0  0
 21 17  1  0  0  0  0
 22 26  1  0  0  0  0
 23 27  1  0  0  0  0
 24 23  2  0  0  0  0
 25 22  2  0  0  0  0
 25 24  1  0  0  0  0
 26 27  2  0  0  0  0
M  END
>  <MODEL>
5

>  <REMARK>
 VINA RESULT:      -9.9      3.515      7.485
  Name = 
  1 active torsions:
  status: ('A' for Active; 'I' for Inactive)
    1  A    between atoms: C_9  and  C_15
                            x       y       z     vdW  Elec       q    Type
                         _______ _______ _______ _____ _____    ______ ____

>  <TORSDO>
F 1

$$$$
=
 OpenBabel10272401083D

 27 31  0  0  1  0  0  0  0  0999 V2000
  189.6400  176.6220  141.5990 N   0  0  0  0  0  2  0  0  0  0  0  0
  188.0750  177.8590  143.1270 C   0  0  1  0  0  3  0  0  0  0  0  0
  187.6870  178.7090  140.8410 N   0  0  0  0  0  2  0  0  0  0  0  0
  184.0070  178.4020  144.0080 C   0  0  0  0  0  3  0  0  0  0  0  0
  181.8580  179.3550  143.4700 O   0  0  0  0  0  1  0  0  0  0  0  0
  187.4490  176.9430  144.1810 C   0  0  0  0  0  2  0  0  0  0  0  0
  184.8790  178.9180  141.3980 C   0  0  0  0  0  3  0  0  0  0  0  0
  189.5300  178.1660  137.6600 C   0  0  0  0  0  0  0  0  0  0  0  0
  183.5800  179.2610  141.7840 C   0  0  0  0  0  3  0  0  0  0  0  0
  189.5470  178.6800  136.4070 F   0  0  0  0  0  0  0  0  0  0  0  0
  185.7560  178.3340  142.3210 C   0  0  0  0  0  0  0  0  0  0  0  0
  189.5280  177.5090  142.7550 C   0  0  1  0  0  3  0  0  0  0  0  0
  183.1460  179.0080  143.0880 C   0  0  0  0  0  0  0  0  0  0  0  0
  185.3060  178.0520  143.6270 C   0  0  0  0  0  0  0  0  0  0  0  0
  189.5110  177.1090  140.2580 C   0  0  0  0  0  0  0  0  0  0  0  0
  187.1390  177.8900  141.9150 C   0  0  2  0  0  3  0  0  0  0  0  0
  188.6950  178.7220  138.6310 C   0  0  0  0  0  3  0  0  0  0  0  0
  186.1630  177.4440  144.5540 O   0  0  0  0  0  0  0  0  0  0  0  0
  190.3280  177.0630  137.9720 C   0  0  0  0  0  3  0  0  0  0  0  0
  190.3200  176.5420  139.2680 C   0  0  0  0  0  3  0  0  0  0  0  0
  188.6620  178.1960  139.9260 C   0  0  0  0  0  0  0  0  0  0  0  0
  191.9960  176.1880  145.9730 N   0  0  0  0  0  0  0  0  0  0  0  0
  190.3780  177.0470  143.9010 C   0  0  0  0  0  0  0  0  0  0  0  0
  191.1850  175.9180  143.7420 C   0  0  0  0  0  3  0  0  0  0  0  0
  191.9930  175.4990  144.8010 C   0  0  0  0  0  3  0  0  0  0  0  0
  191.2250  177.2950  146.1490 C   0  0  0  0  0  3  0  0  0  0  0  0
  190.4020  177.7470  145.1150 C   0  0  0  0  0  3  0  0  0  0  0  0
  1 12  1  0  0  0  0
  2  6  1  1  0  0  0
  6 18  1  0  0  0  0
  7  9  2  0  0  0  0
  7 11  1  0  0  0  0
  8 19  2  0  0  0  0
  8 17  1  0  0  0  0
  9 13  1  0  0  0  0
 10  8  1  0  0  0  0
 11 14  2  0  0  0  0
 12  2  1  0  0  0  0
 12 23  1  1  0  0  0
 13  5  1  0  0  0  0
 13  4  2  0  0  0  0
 14  4  1  0  0  0  0
 14 18  1  0  0  0  0
 15  1  1  0  0  0  0
 16  3  1  6  0  0  0
 16 11  1  0  0  0  0
 16  2  1  0  0  0  0
 17 21  2  0  0  0  0
 19 20  1  0  0  0  0
 20 15  2  0  0  0  0
 21 15  1  0  0  0  0
 21  3  1  0  0  0  0
 22 26  1  0  0  0  0
 23 27  1  0  0  0  0
 24 23  2  0  0  0  0
 24 25  1  0  0  0  0
 25 22  2  0  0  0  0
 27 26  2  0  0  0  0
M  END
>  <MODEL>
6

>  <REMARK>
 VINA RESULT:      -9.9      2.154      5.900
  Name = 
  1 active torsions:
  status: ('A' for Active; 'I' for Inactive)
    1  A    between atoms: C_9  and  C_15
                            x       y       z     vdW  Elec       q    Type
                         _______ _______ _______ _____ _____    ______ ____

>  <TORSDO>
F 1

$$$$
=
 OpenBabel10272401083D

 27 31  0  0  1  0  0  0  0  0999 V2000
  188.9710  178.1870  146.1200 N   0  0  0  0  0  2  0  0  0  0  0  0
  190.1470  176.9540  144.2730 C   0  0  1  0  0  3  0  0  0  0  0  0
  187.7850  177.2000  143.5970 N   0  0  0  0  0  2  0  0  0  0  0  0
  191.3200  177.2880  140.2570 C   0  0  0  0  0  3  0  0  0  0  0  0
  190.7730  177.2680  137.9080 O   0  0  0  0  0  1  0  0  0  0  0  0
  191.5360  177.5270  143.9850 C   0  0  0  0  0  2  0  0  0  0  0  0
  188.6070  177.5970  140.8760 C   0  0  0  0  0  3  0  0  0  0  0  0
  184.7960  178.3850  145.4610 C   0  0  0  0  0  0  0  0  0  0  0  0
  189.0160  177.5150  139.5420 C   0  0  0  0  0  3  0  0  0  0  0  0
  183.4520  178.4140  145.2940 F   0  0  0  0  0  0  0  0  0  0  0  0
  189.5490  177.5040  141.9090 C   0  0  0  0  0  0  0  0  0  0  0  0
  189.7310  176.9940  145.7550 C   0  0  1  0  0  3  0  0  0  0  0  0
  190.3700  177.3550  139.2330 C   0  0  0  0  0  0  0  0  0  0  0  0
  190.9180  177.3750  141.5920 C   0  0  0  0  0  0  0  0  0  0  0  0
  187.5760  178.3140  145.8200 C   0  0  0  0  0  0  0  0  0  0  0  0
  189.1460  177.6600  143.3530 C   0  0  2  0  0  3  0  0  0  0  0  0
  185.6030  177.7580  144.5110 C   0  0  0  0  0  3  0  0  0  0  0  0
  191.8750  177.3070  142.6130 O   0  0  0  0  0  0  0  0  0  0  0  0
  185.3730  179.0070  146.5700 C   0  0  0  0  0  3  0  0  0  0  0  0
  186.7580  178.9660  146.7490 C   0  0  0  0  0  3  0  0  0  0  0  0
  186.9930  177.7290  144.6680 C   0  0  0  0  0  0  0  0  0  0  0  0
  192.8380  176.2080  148.5700 N   0  0  0  0  0  0  0  0  0  0  0  0
  190.8400  176.7160  146.7280 C   0  0  0  0  0  0  0  0  0  0  0  0
  190.9650  177.5130  147.8680 C   0  0  0  0  0  3  0  0  0  0  0  0
  191.9820  177.2420  148.7850 C   0  0  0  0  0  3  0  0  0  0  0  0
  192.7320  175.4130  147.4710 C   0  0  0  0  0  3  0  0  0  0  0  0
  191.7280  175.6500  146.5290 C   0  0  0  0  0  3  0  0  0  0  0  0
  2  6  1  1  0  0  0
  2 12  1  0  0  0  0
  3 21  1  0  0  0  0
  4 14  1  0  0  0  0
  5 13  1  0  0  0  0
  7 11  1  0  0  0  0
  8 19  1  0  0  0  0
  9  7  2  0  0  0  0
 10  8  1  0  0  0  0
 12  1  1  0  0  0  0
 12 23  1  1  0  0  0
 13  9  1  0  0  0  0
 13  4  2  0  0  0  0
 14 11  2  0  0  0  0
 14 18  1  0  0  0  0
 15  1  1  0  0  0  0
 15 20  1  0  0  0  0
 16 11  1  6  0  0  0
 16  3  1  0  0  0  0
 16  2  1  0  0  0  0
 17 21  1  0  0  0  0
 17  8  2  0  0  0  0
 18  6  1  0  0  0  0
 19 20  2  0  0  0  0
 21 15  2  0  0  0  0
 22 25  1  0  0  0  0
 23 24  1  0  0  0  0
 24 25  2  0  0  0  0
 26 22  2  0  0  0  0
 27 23  2  0  0  0  0
 27 26  1  0  0  0  0
M  END
>  <MODEL>
7

>  <REMARK>
 VINA RESULT:      -9.7      3.429      7.099
  Name = 
  1 active torsions:
  status: ('A' for Active; 'I' for Inactive)
    1  A    between atoms: C_9  and  C_15
                            x       y       z     vdW  Elec       q    Type
                         _______ _______ _______ _____ _____    ______ ____

>  <TORSDO>
F 1

$$$$
=
 OpenBabel10272401083D

 27 31  0  0  1  0  0  0  0  0999 V2000
  189.9070  178.0380  142.5450 N   0  0  0  0  0  2  0  0  0  0  0  0
  187.5170  177.6660  141.8650 C   0  0  1  0  0  3  0  0  0  0  0  0
  187.6630  177.2260  144.2900 N   0  0  0  0  0  2  0  0  0  0  0  0
  183.6300  179.1640  142.3820 C   0  0  0  0  0  3  0  0  0  0  0  0
  181.6490  179.4220  143.7330 O   0  0  0  0  0  1  0  0  0  0  0  0
  187.0250  178.7220  140.8720 C   0  0  0  0  0  2  0  0  0  0  0  0
  185.0720  178.4060  144.6580 C   0  0  0  0  0  3  0  0  0  0  0  0
  190.5800  176.9350  146.5740 C   0  0  0  0  0  0  0  0  0  0  0  0
  183.7170  178.7320  144.7640 C   0  0  0  0  0  3  0  0  0  0  0  0
  190.8260  176.5380  147.8460 F   0  0  0  0  0  0  0  0  0  0  0  0
  185.7090  178.4360  143.4100 C   0  0  0  0  0  0  0  0  0  0  0  0
  188.9960  177.2700  141.7000 C   0  0  1  0  0  3  0  0  0  0  0  0
  182.9960  179.1050  143.6260 C   0  0  0  0  0  0  0  0  0  0  0  0
  184.9860  178.8440  142.2700 C   0  0  0  0  0  0  0  0  0  0  0  0
  190.0780  177.7410  143.9360 C   0  0  0  0  0  0  0  0  0  0  0  0
  187.1850  178.1580  143.2770 C   0  0  2  0  0  3  0  0  0  0  0  0
  189.2940  176.8190  146.0450 C   0  0  0  0  0  3  0  0  0  0  0  0
  185.6150  178.9050  141.0190 O   0  0  0  0  0  0  0  0  0  0  0  0
  191.6070  177.4830  145.8040 C   0  0  0  0  0  3  0  0  0  0  0  0
  191.3560  177.8800  144.4880 C   0  0  0  0  0  3  0  0  0  0  0  0
  189.0240  177.2320  144.7360 C   0  0  0  0  0  0  0  0  0  0  0  0
  190.3910  177.0110  137.6770 N   0  0  0  0  0  0  0  0  0  0  0  0
  189.4740  177.1980  140.2790 C   0  0  0  0  0  0  0  0  0  0  0  0
  190.8330  177.0030  140.0240 C   0  0  0  0  0  3  0  0  0  0  0  0
  191.2770  176.9130  138.7040 C   0  0  0  0  0  3  0  0  0  0  0  0
  189.0610  177.1940  137.9000 C   0  0  0  0  0  3  0  0  0  0  0  0
  188.5760  177.2890  139.2070 C   0  0  0  0  0  3  0  0  0  0  0  0
  1 15  1  0  0  0  0
  2  6  1  6  0  0  0
  2 16  1  0  0  0  0
  3 21  1  0  0  0  0
  4 13  1  0  0  0  0
  6 18  1  0  0  0  0
  7  9  1  0  0  0  0
  8 10  1  0  0  0  0
 11  7  2  0  0  0  0
 12 23  1  6  0  0  0
 12  2  1  0  0  0  0
 12  1  1  0  0  0  0
 13  5  1  0  0  0  0
 13  9  2  0  0  0  0
 14  4  2  0  0  0  0
 14 11  1  0  0  0  0
 15 20  2  0  0  0  0
 15 21  1  0  0  0  0
 16 11  1  6  0  0  0
 16  3  1  0  0  0  0
 17  8  1  0  0  0  0
 18 14  1  0  0  0  0
 19  8  2  0  0  0  0
 20 19  1  0  0  0  0
 21 17  2  0  0  0  0
 22 26  2  0  0  0  0
 22 25  1  0  0  0  0
 24 23  1  0  0  0  0
 25 24  2  0  0  0  0
 26 27  1  0  0  0  0
 27 23  2  0  0  0  0
M  END
>  <MODEL>
8

>  <REMARK>
 VINA RESULT:      -9.6      3.335      6.820
  Name = 
  1 active torsions:
  status: ('A' for Active; 'I' for Inactive)
    1  A    between atoms: C_9  and  C_15
                            x       y       z     vdW  Elec       q    Type
                         _______ _______ _______ _____ _____    ______ ____

>  <TORSDO>
F 1

$$$$
=
 OpenBabel10272401083D

 27 31  0  0  1  0  0  0  0  0999 V2000
  187.0410  177.4650  142.1010 N   0  0  0  0  0  2  0  0  0  0  0  0
  189.3680  177.6990  143.0180 C   0  0  1  0  0  3  0  0  0  0  0  0
  187.8090  178.3970  144.8000 N   0  0  0  0  0  2  0  0  0  0  0  0
  191.9820  176.1620  145.9200 C   0  0  0  0  0  3  0  0  0  0  0  0
  192.6920  175.9950  148.2190 O   0  0  0  0  0  1  0  0  0  0  0  0
  190.2720  176.5320  142.6130 C   0  0  0  0  0  2  0  0  0  0  0  0
  189.5200  177.1930  146.7660 C   0  0  0  0  0  3  0  0  0  0  0  0
  184.1420  179.0040  144.7730 C   0  0  0  0  0  0  0  0  0  0  0  0
  190.4940  176.8440  147.7060 C   0  0  0  0  0  3  0  0  0  0  0  0
  183.2050  179.5380  145.5920 F   0  0  0  0  0  0  0  0  0  0  0  0
  189.7800  177.0490  145.3960 C   0  0  0  0  0  0  0  0  0  0  0  0
  188.3400  178.1150  141.9490 C   0  0  1  0  0  3  0  0  0  0  0  0
  191.7250  176.3350  147.2840 C   0  0  0  0  0  0  0  0  0  0  0  0
  191.0110  176.5040  144.9750 C   0  0  0  0  0  0  0  0  0  0  0  0
  186.0810  177.9110  143.0670 C   0  0  0  0  0  0  0  0  0  0  0  0
  188.7240  177.3510  144.3630 C   0  0  2  0  0  3  0  0  0  0  0  0
  185.4880  179.0290  145.1440 C   0  0  0  0  0  3  0  0  0  0  0  0
  191.2750  176.3290  143.6100 O   0  0  0  0  0  0  0  0  0  0  0  0
  183.7590  178.4040  143.5720 C   0  0  0  0  0  3  0  0  0  0  0  0
  184.7260  177.8650  142.7210 C   0  0  0  0  0  3  0  0  0  0  0  0
  186.4640  178.4730  144.3100 C   0  0  0  0  0  0  0  0  0  0  0  0
  189.7320  177.9900  137.9190 N   0  0  0  0  0  0  0  0  0  0  0  0
  188.8390  178.0500  140.5360 C   0  0  0  0  0  0  0  0  0  0  0  0
  187.9850  178.4140  139.4920 C   0  0  0  0  0  3  0  0  0  0  0  0
  188.4540  178.3750  138.1780 C   0  0  0  0  0  3  0  0  0  0  0  0
  190.5850  177.6380  138.9190 C   0  0  0  0  0  3  0  0  0  0  0  0
  190.1550  177.6640  140.2480 C   0  0  0  0  0  3  0  0  0  0  0  0
  1 15  1  0  0  0  0
  2  6  1  6  0  0  0
  2 16  1  0  0  0  0
  4 13  1  0  0  0  0
  6 18  1  0  0  0  0
  7  9  1  0  0  0  0
  8 17  1  0  0  0  0
  8 10  1  0  0  0  0
 11  7  2  0  0  0  0
 12 23  1  6  0  0  0
 12  1  1  0  0  0  0
 12  2  1  0  0  0  0
 13  9  2  0  0  0  0
 13  5  1  0  0  0  0
 14 11  1  0  0  0  0
 14  4  2  0  0  0  0
 15 21  1  0  0  0  0
 16  3  1  1  0  0  0
 16 11  1  0  0  0  0
 18 14  1  0  0  0  0
 19  8  2  0  0  0  0
 20 15  2  0  0  0  0
 20 19  1  0  0  0  0
 21  3  1  0  0  0  0
 21 17  2  0  0  0  0
 22 25  2  0  0  0  0
 22 26  1  0  0  0  0
 24 23  2  0  0  0  0
 25 24  1  0  0  0  0
 26 27  2  0  0  0  0
 27 23  1  0  0  0  0
M  END
>  <MODEL>
9

>  <REMARK>
 VINA RESULT:      -9.5      2.673      5.218
  Name = 
  1 active torsions:
  status: ('A' for Active; 'I' for Inactive)
    1  A    between atoms: C_9  and  C_15
                            x       y       z     vdW  Elec       q    Type
                         _______ _______ _______ _____ _____    ______ ____

>  <TORSDO>
F 1

$$$$
