=
 OpenBabel10272400183D

 31 35  0  0  1  0  0  0  0  0999 V2000
  183.7110  177.9580  141.2450 N   0  0  0  0  0  0  0  0  0  0  0  0
  184.2610  178.1270  142.5170 C   0  0  0  0  0  0  0  0  0  0  0  0
  186.2360  177.8040  144.0440 C   0  0  0  0  0  3  0  0  0  0  0  0
  183.1300  177.8100  139.9950 C   0  0  2  0  0  0  0  0  0  0  0  0
  185.4950  177.7160  142.7830 C   0  0  0  0  0  3  0  0  0  0  0  0
  181.9520  179.1760  142.9680 C   0  0  0  0  0  3  0  0  0  0  0  0
  185.8460  178.3070  145.2100 C   0  0  0  0  0  3  0  0  0  0  0  0
  182.3220  178.4140  140.9290 C   0  0  0  0  0  0  0  0  0  0  0  0
  184.5650  178.9190  145.5790 C   0  0  0  0  0  3  0  0  0  0  0  0
  181.4120  178.9800  141.6050 N   0  0  0  0  0  0  0  0  0  0  0  0
  183.2320  178.8090  143.4300 C   0  0  0  0  0  0  0  0  0  0  0  0
  183.4790  179.1280  144.8400 C   0  0  0  0  0  3  0  0  0  0  0  0
  182.1220  175.1800  137.6090 N   0  0  0  0  0  0  0  0  0  0  0  0
  181.1470  174.9700  138.6710 C   0  0  0  0  0  2  0  0  0  0  0  0
  182.6650  173.8770  137.2680 C   0  0  0  0  0  1  0  0  0  0  0  0
  183.2130  175.9590  138.1860 C   0  0  0  0  0  2  0  0  0  0  0  0
  182.8270  176.3490  139.6080 C   0  0  2  0  0  3  0  0  0  0  0  0
  181.3560  176.0480  139.7030 C   0  0  0  0  0  2  0  0  0  0  0  0
  183.7280  178.7460  138.9560 C   0  0  0  0  0  2  0  0  0  0  0  0
  185.1660  179.0940  139.3220 C   0  0  0  0  0  2  0  0  0  0  0  0
  186.1780  178.1650  138.6500 C   0  0  1  0  0  3  0  0  0  0  0  0
  187.0320  178.3080  136.3130 C   0  0  0  0  0  1  0  0  0  0  0  0
  185.8350  177.9720  137.1810 C   0  0  0  0  0  2  0  0  0  0  0  0
  187.5380  178.6780  138.7900 N   0  0  0  0  0  2  0  0  0  0  0  0
  189.5790  177.7200  141.7040 C   0  0  0  0  0  0  0  0  0  0  0  0
  190.4660  176.6060  139.7620 C   0  0  0  0  0  3  0  0  0  0  0  0
  189.6310  178.0180  143.1590 C   0  0  0  0  0  1  0  0  0  0  0  0
  188.6150  178.2870  140.9290 N   0  0  0  0  0  0  0  0  0  0  0  0
  189.4690  177.1970  138.9840 C   0  0  0  0  0  3  0  0  0  0  0  0
  188.5410  178.0470  139.5900 C   0  0  0  0  0  0  0  0  0  0  0  0
  190.5250  176.8680  141.1310 C   0  0  0  0  0  3  0  0  0  0  0  0
  1  2  1  0  0  0  0
  2  5  2  0  0  0  0
  2 11  1  0  0  0  0
  3  7  2  0  0  0  0
  4 19  1  6  0  0  0
  4  8  1  0  0  0  0
  4  1  1  0  0  0  0
  5  3  1  0  0  0  0
  6 11  2  0  0  0  0
  7  9  1  0  0  0  0
  8  1  1  0  0  0  0
  8 10  2  0  0  0  0
 10  6  1  0  0  0  0
 11 12  1  0  0  0  0
 12  9  2  0  0  0  0
 13 16  1  0  0  0  0
 13 14  1  0  0  0  0
 14 18  1  0  0  0  0
 15 13  1  0  0  0  0
 17 16  1  6  0  0  0
 17 18  1  0  0  0  0
 17  4  1  0  0  0  0
 19 20  1  0  0  0  0
 21 23  1  6  0  0  0
 21 24  1  0  0  0  0
 21 20  1  0  0  0  0
 22 23  1  0  0  0  0
 24 30  1  0  0  0  0
 25 27  1  0  0  0  0
 26 31  1  0  0  0  0
 28 25  1  0  0  0  0
 29 30  1  0  0  0  0
 29 26  2  0  0  0  0
 30 28  2  0  0  0  0
 31 25  2  0  0  0  0
M  END
>  <MODEL>
1

>  <REMARK>
 VINA RESULT:      -7.7      0.000      0.000
  Name = 
  7 active torsions:
  status: ('A' for Active; 'I' for Inactive)
    1  A    between atoms: N_3  and  C_9
    2  A    between atoms: N_3  and  C_22
    3  A    between atoms: C_9  and  C_15
    4  A    between atoms: C_9  and  C_23
    5  A    between atoms: C_12  and  C_20
    6  A    between atoms: C_12  and  C_27
    7  A    between atoms: C_15  and  C_20
                            x       y       z     vdW  Elec       q    Type
                         _______ _______ _______ _____ _____    ______ ____

>  <TORSDO>
F 7

$$$$
=
 OpenBabel10272400183D

 31 35  0  0  1  0  0  0  0  0999 V2000
  188.6170  176.9100  138.5380 N   0  0  0  0  0  0  0  0  0  0  0  0
  187.7590  176.6030  137.4810 C   0  0  0  0  0  0  0  0  0  0  0  0
  186.3560  174.8730  136.3090 C   0  0  0  0  0  3  0  0  0  0  0  0
  189.4710  177.2540  139.5740 C   0  0  2  0  0  0  0  0  0  0  0  0
  187.2610  175.3800  137.3420 C   0  0  0  0  0  3  0  0  0  0  0  0
  188.1700  179.0830  136.9190 C   0  0  0  0  0  3  0  0  0  0  0  0
  185.8290  175.5130  135.2700 C   0  0  0  0  0  3  0  0  0  0  0  0
  189.1870  178.2830  138.7080 C   0  0  0  0  0  0  0  0  0  0  0  0
  185.9970  176.9100  134.8550 C   0  0  0  0  0  3  0  0  0  0  0  0
  189.0730  179.3630  138.0560 N   0  0  0  0  0  0  0  0  0  0  0  0
  187.5510  177.8540  136.6140 C   0  0  0  0  0  0  0  0  0  0  0  0
  186.7110  177.8820  135.4130 C   0  0  0  0  0  3  0  0  0  0  0  0
  193.1540  177.3680  139.3650 N   0  0  0  0  0  0  0  0  0  0  0  0
  192.8420  176.5630  138.1910 C   0  0  0  0  0  2  0  0  0  0  0  0
  194.2190  176.6830  140.0770 C   0  0  0  0  0  1  0  0  0  0  0  0
  191.9760  177.3350  140.2250 C   0  0  0  0  0  2  0  0  0  0  0  0
  190.8630  176.5970  139.4900 C   0  0  2  0  0  3  0  0  0  0  0  0
  191.3410  176.5010  138.0670 C   0  0  0  0  0  2  0  0  0  0  0  0
  188.7630  177.3270  140.9180 C   0  0  0  0  0  2  0  0  0  0  0  0
  187.7060  178.4250  140.9010 C   0  0  0  0  0  2  0  0  0  0  0  0
  186.8700  178.4460  142.1810 C   0  0  1  0  0  3  0  0  0  0  0  0
  184.6210  179.1340  143.0050 C   0  0  0  0  0  1  0  0  0  0  0  0
  185.3880  178.5150  141.8520 C   0  0  0  0  0  2  0  0  0  0  0  0
  187.1500  177.2770  143.0120 N   0  0  0  0  0  2  0  0  0  0  0  0
  189.5770  177.1970  145.7840 C   0  0  0  0  0  0  0  0  0  0  0  0
  187.4010  177.6740  146.6980 C   0  0  0  0  0  3  0  0  0  0  0  0
  191.0320  176.9560  145.9670 C   0  0  0  0  0  1  0  0  0  0  0  0
  189.0350  177.1530  144.5360 N   0  0  0  0  0  0  0  0  0  0  0  0
  186.8640  177.6250  145.4110 C   0  0  0  0  0  3  0  0  0  0  0  0
  187.7040  177.3590  144.3270 C   0  0  0  0  0  0  0  0  0  0  0  0
  188.7670  177.4580  146.8890 C   0  0  0  0  0  3  0  0  0  0  0  0
  1  8  1  0  0  0  0
  1  4  1  0  0  0  0
  2  1  1  0  0  0  0
  3  5  1  0  0  0  0
  4 19  1  1  0  0  0
  5  2  2  0  0  0  0
  6 10  1  0  0  0  0
  7  3  2  0  0  0  0
  8  4  1  0  0  0  0
  9  7  1  0  0  0  0
  9 12  2  0  0  0  0
 10  8  2  0  0  0  0
 11  6  2  0  0  0  0
 11  2  1  0  0  0  0
 12 11  1  0  0  0  0
 13 15  1  0  0  0  0
 13 16  1  0  0  0  0
 14 13  1  0  0  0  0
 17 18  1  6  0  0  0
 17  4  1  0  0  0  0
 17 16  1  0  0  0  0
 18 14  1  0  0  0  0
 20 19  1  0  0  0  0
 21 20  1  6  0  0  0
 21 24  1  0  0  0  0
 23 21  1  0  0  0  0
 23 22  1  0  0  0  0
 24 30  1  0  0  0  0
 25 27  1  0  0  0  0
 25 31  2  0  0  0  0
 26 31  1  0  0  0  0
 28 25  1  0  0  0  0
 29 26  2  0  0  0  0
 30 28  2  0  0  0  0
 30 29  1  0  0  0  0
M  END
>  <MODEL>
2

>  <REMARK>
 VINA RESULT:      -7.5      3.123      7.700
  Name = 
  7 active torsions:
  status: ('A' for Active; 'I' for Inactive)
    1  A    between atoms: N_3  and  C_9
    2  A    between atoms: N_3  and  C_22
    3  A    between atoms: C_9  and  C_15
    4  A    between atoms: C_9  and  C_23
    5  A    between atoms: C_12  and  C_20
    6  A    between atoms: C_12  and  C_27
    7  A    between atoms: C_15  and  C_20
                            x       y       z     vdW  Elec       q    Type
                         _______ _______ _______ _____ _____    ______ ____

>  <TORSDO>
F 7

$$$$
=
 OpenBabel10272400183D

 31 35  0  0  1  0  0  0  0  0999 V2000
  188.5800  176.9530  138.6280 N   0  0  0  0  0  0  0  0  0  0  0  0
  187.7970  176.6680  137.5070 C   0  0  0  0  0  0  0  0  0  0  0  0
  186.4490  174.9740  136.2250 C   0  0  0  0  0  3  0  0  0  0  0  0
  189.3600  177.2740  139.7280 C   0  0  2  0  0  0  0  0  0  0  0  0
  187.2850  175.4580  137.3260 C   0  0  0  0  0  3  0  0  0  0  0  0
  188.3070  179.1400  136.9890 C   0  0  0  0  0  3  0  0  0  0  0  0
  186.0170  175.6290  135.1520 C   0  0  0  0  0  3  0  0  0  0  0  0
  189.1660  178.3110  138.8470 C   0  0  0  0  0  0  0  0  0  0  0  0
  186.2470  177.0220  134.7570 C   0  0  0  0  0  3  0  0  0  0  0  0
  189.1270  179.3960  138.1930 N   0  0  0  0  0  0  0  0  0  0  0  0
  187.6840  177.9260  136.6330 C   0  0  0  0  0  0  0  0  0  0  0  0
  186.9390  177.9770  135.3720 C   0  0  0  0  0  3  0  0  0  0  0  0
  193.0130  177.2130  139.2000 N   0  0  0  0  0  0  0  0  0  0  0  0
  192.6020  176.0860  138.3730 C   0  0  0  0  0  2  0  0  0  0  0  0
  194.1330  176.7590  140.0070 C   0  0  0  0  0  1  0  0  0  0  0  0
  191.9110  177.4870  140.1170 C   0  0  0  0  0  2  0  0  0  0  0  0
  190.7400  176.5860  139.7460 C   0  0  2  0  0  3  0  0  0  0  0  0
  191.0960  176.0300  138.3940 C   0  0  0  0  0  2  0  0  0  0  0  0
  188.5540  177.3600  141.0140 C   0  0  0  0  0  2  0  0  0  0  0  0
  189.3780  178.0230  142.1120 C   0  0  0  0  0  2  0  0  0  0  0  0
  189.8110  177.0300  143.1920 C   0  0  1  0  0  3  0  0  0  0  0  0
  190.9800  179.1440  143.8040 C   0  0  0  0  0  1  0  0  0  0  0  0
  190.7190  177.7060  144.2070 C   0  0  0  0  0  2  0  0  0  0  0  0
  188.6530  176.4400  143.8600 N   0  0  0  0  0  2  0  0  0  0  0  0
  187.5050  177.8850  147.0490 C   0  0  0  0  0  0  0  0  0  0  0  0
  185.8410  178.3420  145.3700 C   0  0  0  0  0  3  0  0  0  0  0  0
  187.9820  177.9730  148.4540 C   0  0  0  0  0  1  0  0  0  0  0  0
  188.2630  177.2500  146.1140 N   0  0  0  0  0  0  0  0  0  0  0  0
  186.6320  177.6870  144.4260 C   0  0  0  0  0  3  0  0  0  0  0  0
  187.8550  177.1390  144.8180 C   0  0  0  0  0  0  0  0  0  0  0  0
  186.2760  178.4420  146.6920 C   0  0  0  0  0  3  0  0  0  0  0  0
  1  8  1  0  0  0  0
  1  4  1  0  0  0  0
  2  1  1  0  0  0  0
  3  5  1  0  0  0  0
  4 17  1  0  0  0  0
  4 19  1  1  0  0  0
  5  2  2  0  0  0  0
  6 10  1  0  0  0  0
  7  3  2  0  0  0  0
  8  4  1  0  0  0  0
  9  7  1  0  0  0  0
  9 12  2  0  0  0  0
 10  8  2  0  0  0  0
 11  6  2  0  0  0  0
 11  2  1  0  0  0  0
 12 11  1  0  0  0  0
 13 15  1  0  0  0  0
 13 16  1  0  0  0  0
 14 18  1  0  0  0  0
 14 13  1  0  0  0  0
 17 18  1  6  0  0  0
 17 16  1  0  0  0  0
 19 20  1  0  0  0  0
 21 20  1  6  0  0  0
 21 24  1  0  0  0  0
 21 23  1  0  0  0  0
 22 23  1  0  0  0  0
 24 30  1  0  0  0  0
 25 27  1  0  0  0  0
 26 31  1  0  0  0  0
 28 25  1  0  0  0  0
 29 30  1  0  0  0  0
 29 26  2  0  0  0  0
 30 28  2  0  0  0  0
 31 25  2  0  0  0  0
M  END
>  <MODEL>
3

>  <REMARK>
 VINA RESULT:      -7.4      3.812      8.029
  Name = 
  7 active torsions:
  status: ('A' for Active; 'I' for Inactive)
    1  A    between atoms: N_3  and  C_9
    2  A    between atoms: N_3  and  C_22
    3  A    between atoms: C_9  and  C_15
    4  A    between atoms: C_9  and  C_23
    5  A    between atoms: C_12  and  C_20
    6  A    between atoms: C_12  and  C_27
    7  A    between atoms: C_15  and  C_20
                            x       y       z     vdW  Elec       q    Type
                         _______ _______ _______ _____ _____    ______ ____

>  <TORSDO>
F 7

$$$$
=
 OpenBabel10272400183D

 31 35  0  0  1  0  0  0  0  0999 V2000
  188.2180  176.8970  138.2000 N   0  0  0  0  0  0  0  0  0  0  0  0
  187.2600  176.6580  137.2130 C   0  0  0  0  0  0  0  0  0  0  0  0
  185.5400  175.0950  136.2470 C   0  0  0  0  0  3  0  0  0  0  0  0
  189.1760  177.1720  139.1640 C   0  0  2  0  0  0  0  0  0  0  0  0
  186.5730  175.5230  137.1930 C   0  0  0  0  0  3  0  0  0  0  0  0
  188.0150  178.9980  136.4420 C   0  0  0  0  0  3  0  0  0  0  0  0
  185.0560  175.7390  135.1900 C   0  0  0  0  0  3  0  0  0  0  0  0
  189.0020  178.1710  138.2360 C   0  0  0  0  0  0  0  0  0  0  0  0
  185.4120  177.0590  134.6600 C   0  0  0  0  0  3  0  0  0  0  0  0
  189.0170  179.2080  137.5090 N   0  0  0  0  0  0  0  0  0  0  0  0
  187.1960  177.8640  136.2640 C   0  0  0  0  0  0  0  0  0  0  0  0
  186.3000  177.9430  135.1060 C   0  0  0  0  0  3  0  0  0  0  0  0
  192.4500  176.2820  137.7120 N   0  0  0  0  0  0  0  0  0  0  0  0
  191.7250  175.0310  137.5300 C   0  0  0  0  0  2  0  0  0  0  0  0
  193.7410  175.9440  138.2860 C   0  0  0  0  0  1  0  0  0  0  0  0
  191.7230  177.0480  138.7190 C   0  0  0  0  0  2  0  0  0  0  0  0
  190.4420  176.2990  139.0630 C   0  0  2  0  0  3  0  0  0  0  0  0
  190.3070  175.2550  137.9880 C   0  0  0  0  0  2  0  0  0  0  0  0
  188.5690  177.4470  140.5310 C   0  0  0  0  0  2  0  0  0  0  0  0
  189.6690  177.6850  141.5600 C   0  0  0  0  0  2  0  0  0  0  0  0
  189.4010  176.9540  142.8760 C   0  0  1  0  0  3  0  0  0  0  0  0
  191.5570  175.9500  143.6200 C   0  0  0  0  0  1  0  0  0  0  0  0
  190.2210  175.6760  142.9560 C   0  0  0  0  0  2  0  0  0  0  0  0
  189.6860  177.8120  144.0230 N   0  0  0  0  0  2  0  0  0  0  0  0
  186.9010  178.0430  146.4240 C   0  0  0  0  0  0  0  0  0  0  0  0
  188.8920  177.4320  147.6330 C   0  0  0  0  0  3  0  0  0  0  0  0
  185.4530  178.3760  146.4030 C   0  0  0  0  0  1  0  0  0  0  0  0
  187.6170  178.0540  145.2670 N   0  0  0  0  0  0  0  0  0  0  0  0
  189.6080  177.4470  146.4360 C   0  0  0  0  0  3  0  0  0  0  0  0
  188.9480  177.7650  145.2460 C   0  0  0  0  0  0  0  0  0  0  0  0
  187.5290  177.7330  147.6310 C   0  0  0  0  0  3  0  0  0  0  0  0
  1  8  1  0  0  0  0
  1  4  1  0  0  0  0
  2  1  1  0  0  0  0
  3  5  1  0  0  0  0
  4 19  1  1  0  0  0
  5  2  2  0  0  0  0
  6 10  1  0  0  0  0
  7  3  2  0  0  0  0
  8  4  1  0  0  0  0
  9 12  2  0  0  0  0
  9  7  1  0  0  0  0
 10  8  2  0  0  0  0
 11  6  2  0  0  0  0
 11  2  1  0  0  0  0
 12 11  1  0  0  0  0
 13 15  1  0  0  0  0
 13 16  1  0  0  0  0
 14 13  1  0  0  0  0
 14 18  1  0  0  0  0
 16 17  1  0  0  0  0
 17 18  1  6  0  0  0
 17  4  1  0  0  0  0
 19 20  1  0  0  0  0
 21 20  1  6  0  0  0
 21 23  1  0  0  0  0
 21 24  1  0  0  0  0
 23 22  1  0  0  0  0
 24 30  1  0  0  0  0
 25 31  2  0  0  0  0
 27 25  1  0  0  0  0
 28 25  1  0  0  0  0
 29 26  2  0  0  0  0
 30 28  2  0  0  0  0
 30 29  1  0  0  0  0
 31 26  1  0  0  0  0
M  END
>  <MODEL>
4

>  <REMARK>
 VINA RESULT:      -7.3      3.732      7.879
  Name = 
  7 active torsions:
  status: ('A' for Active; 'I' for Inactive)
    1  A    between atoms: N_3  and  C_9
    2  A    between atoms: N_3  and  C_22
    3  A    between atoms: C_9  and  C_15
    4  A    between atoms: C_9  and  C_23
    5  A    between atoms: C_12  and  C_20
    6  A    between atoms: C_12  and  C_27
    7  A    between atoms: C_15  and  C_20
                            x       y       z     vdW  Elec       q    Type
                         _______ _______ _______ _____ _____    ______ ____

>  <TORSDO>
F 7

$$$$
=
 OpenBabel10272400183D

 31 35  0  0  1  0  0  0  0  0999 V2000
  187.9840  177.3480  138.7970 N   0  0  0  0  0  0  0  0  0  0  0  0
  187.5360  176.8100  137.5890 C   0  0  0  0  0  0  0  0  0  0  0  0
  186.3680  174.9250  136.4000 C   0  0  0  0  0  3  0  0  0  0  0  0
  188.4420  177.9160  139.9760 C   0  0  2  0  0  0  0  0  0  0  0  0
  186.9040  175.6430  137.5580 C   0  0  0  0  0  3  0  0  0  0  0  0
  188.5890  178.9730  136.6670 C   0  0  0  0  0  3  0  0  0  0  0  0
  186.3930  175.2680  135.1160 C   0  0  0  0  0  3  0  0  0  0  0  0
  188.6990  178.6610  138.8500 C   0  0  0  0  0  0  0  0  0  0  0  0
  186.9650  176.4620  134.4830 C   0  0  0  0  0  3  0  0  0  0  0  0
  189.0420  179.5060  137.9700 N   0  0  0  0  0  0  0  0  0  0  0  0
  187.9050  177.7610  136.4410 C   0  0  0  0  0  0  0  0  0  0  0  0
  187.5920  177.4980  135.0330 C   0  0  0  0  0  3  0  0  0  0  0  0
  191.2870  177.6380  142.3110 N   0  0  0  0  0  0  0  0  0  0  0  0
  191.9390  177.3080  141.0500 C   0  0  0  0  0  2  0  0  0  0  0  0
  191.6960  176.6320  143.2750 C   0  0  0  0  0  1  0  0  0  0  0  0
  189.8530  177.4700  142.1010 C   0  0  0  0  0  2  0  0  0  0  0  0
  189.6150  177.1570  140.6290 C   0  0  2  0  0  3  0  0  0  0  0  0
  190.9200  177.4760  139.9520 C   0  0  0  0  0  2  0  0  0  0  0  0
  187.3140  178.4380  140.8530 C   0  0  0  0  0  2  0  0  0  0  0  0
  186.0740  178.7150  140.0110 C   0  0  0  0  0  2  0  0  0  0  0  0
  184.8300  178.9470  140.8690 C   0  0  1  0  0  3  0  0  0  0  0  0
  183.7760  179.9080  138.8260 C   0  0  0  0  0  1  0  0  0  0  0  0
  183.5800  178.9740  140.0040 C   0  0  0  0  0  2  0  0  0  0  0  0
  184.7080  177.9240  141.9050 N   0  0  0  0  0  2  0  0  0  0  0  0
  185.9830  178.1880  145.3520 C   0  0  0  0  0  0  0  0  0  0  0  0
  183.7060  178.9730  145.3270 C   0  0  0  0  0  3  0  0  0  0  0  0
  187.2370  177.8850  146.0890 C   0  0  0  0  0  1  0  0  0  0  0  0
  185.9080  177.9530  144.0140 N   0  0  0  0  0  0  0  0  0  0  0  0
  183.6500  178.7260  143.9550 C   0  0  0  0  0  3  0  0  0  0  0  0
  184.7730  178.2080  143.3050 C   0  0  0  0  0  0  0  0  0  0  0  0
  184.8790  178.7020  146.0340 C   0  0  0  0  0  3  0  0  0  0  0  0
  1  8  1  0  0  0  0
  1  4  1  0  0  0  0
  2  1  1  0  0  0  0
  3  5  1  0  0  0  0
  4 17  1  0  0  0  0
  4 19  1  1  0  0  0
  5  2  2  0  0  0  0
  6 10  1  0  0  0  0
  7  3  2  0  0  0  0
  8  4  1  0  0  0  0
  9 12  2  0  0  0  0
  9  7  1  0  0  0  0
 10  8  2  0  0  0  0
 11  6  2  0  0  0  0
 11  2  1  0  0  0  0
 12 11  1  0  0  0  0
 13 15  1  0  0  0  0
 14 13  1  0  0  0  0
 16 13  1  0  0  0  0
 17 18  1  6  0  0  0
 17 16  1  0  0  0  0
 18 14  1  0  0  0  0
 20 19  1  0  0  0  0
 20 21  1  0  0  0  0
 21 23  1  6  0  0  0
 21 24  1  0  0  0  0
 22 23  1  0  0  0  0
 24 30  1  0  0  0  0
 25 31  2  0  0  0  0
 25 27  1  0  0  0  0
 26 31  1  0  0  0  0
 28 25  1  0  0  0  0
 29 26  2  0  0  0  0
 30 29  1  0  0  0  0
 30 28  2  0  0  0  0
M  END
>  <MODEL>
5

>  <REMARK>
 VINA RESULT:      -7.2      2.253      7.530
  Name = 
  7 active torsions:
  status: ('A' for Active; 'I' for Inactive)
    1  A    between atoms: N_3  and  C_9
    2  A    between atoms: N_3  and  C_22
    3  A    between atoms: C_9  and  C_15
    4  A    between atoms: C_9  and  C_23
    5  A    between atoms: C_12  and  C_20
    6  A    between atoms: C_12  and  C_27
    7  A    between atoms: C_15  and  C_20
                            x       y       z     vdW  Elec       q    Type
                         _______ _______ _______ _____ _____    ______ ____

>  <TORSDO>
F 7

$$$$
=
 OpenBabel10272400183D

 31 35  0  0  1  0  0  0  0  0999 V2000
  189.0640  176.6610  137.8490 N   0  0  0  0  0  0  0  0  0  0  0  0
  187.8430  176.2780  137.2910 C   0  0  0  0  0  0  0  0  0  0  0  0
  186.2220  174.4210  136.7820 C   0  0  0  0  0  3  0  0  0  0  0  0
  190.2680  177.0800  138.3940 C   0  0  2  0  0  0  0  0  0  0  0  0
  187.4540  175.0090  137.3120 C   0  0  0  0  0  3  0  0  0  0  0  0
  187.7120  178.8000  136.7800 C   0  0  0  0  0  3  0  0  0  0  0  0
  185.2130  175.0170  136.1540 C   0  0  0  0  0  3  0  0  0  0  0  0
  189.5170  178.0860  137.8330 C   0  0  0  0  0  0  0  0  0  0  0  0
  185.0370  176.4320  135.8080 C   0  0  0  0  0  3  0  0  0  0  0  0
  189.0130  179.1600  137.3860 N   0  0  0  0  0  0  0  0  0  0  0  0
  187.1390  177.5140  136.7110 C   0  0  0  0  0  0  0  0  0  0  0  0
  185.8370  177.4690  136.0400 C   0  0  0  0  0  3  0  0  0  0  0  0
  192.7400  174.5120  137.4360 N   0  0  0  0  0  0  0  0  0  0  0  0
  193.6190  175.5570  137.9450 C   0  0  0  0  0  2  0  0  0  0  0  0
  193.2900  174.0780  136.1640 C   0  0  0  0  0  1  0  0  0  0  0  0
  191.4550  175.1430  137.1520 C   0  0  0  0  0  2  0  0  0  0  0  0
  191.5130  176.5900  137.6290 C   0  0  2  0  0  3  0  0  0  0  0  0
  192.7480  176.6630  138.4830 C   0  0  0  0  0  2  0  0  0  0  0  0
  190.2680  177.0450  139.9140 C   0  0  0  0  0  2  0  0  0  0  0  0
  188.8420  176.9320  140.4420 C   0  0  0  0  0  2  0  0  0  0  0  0
  188.6350  177.7260  141.7320 C   0  0  1  0  0  3  0  0  0  0  0  0
  186.3130  178.2310  142.4800 C   0  0  0  0  0  1  0  0  0  0  0  0
  187.4580  178.6780  141.5930 C   0  0  0  0  0  2  0  0  0  0  0  0
  188.4350  176.8350  142.8720 N   0  0  0  0  0  2  0  0  0  0  0  0
  189.4850  177.1010  146.3940 C   0  0  0  0  0  0  0  0  0  0  0  0
  191.4460  176.7310  145.0470 C   0  0  0  0  0  3  0  0  0  0  0  0
  188.8520  177.3360  147.7170 C   0  0  0  0  0  1  0  0  0  0  0  0
  188.7150  177.0530  145.2720 N   0  0  0  0  0  0  0  0  0  0  0  0
  190.6400  176.6840  143.9090 C   0  0  0  0  0  3  0  0  0  0  0  0
  189.2590  176.8510  144.0400 C   0  0  0  0  0  0  0  0  0  0  0  0
  190.8680  176.9420  146.2990 C   0  0  0  0  0  3  0  0  0  0  0  0
  1  4  1  0  0  0  0
  2  5  2  0  0  0  0
  2  1  1  0  0  0  0
  3  5  1  0  0  0  0
  4 19  1  1  0  0  0
  6 10  1  0  0  0  0
  7  3  2  0  0  0  0
  8  1  1  0  0  0  0
  8  4  1  0  0  0  0
  9 12  2  0  0  0  0
  9  7  1  0  0  0  0
 10  8  2  0  0  0  0
 11  6  2  0  0  0  0
 11  2  1  0  0  0  0
 12 11  1  0  0  0  0
 13 14  1  0  0  0  0
 14 18  1  0  0  0  0
 15 13  1  0  0  0  0
 16 13  1  0  0  0  0
 17 16  1  1  0  0  0
 17  4  1  0  0  0  0
 17 18  1  0  0  0  0
 19 20  1  0  0  0  0
 21 20  1  6  0  0  0
 21 24  1  0  0  0  0
 23 21  1  0  0  0  0
 23 22  1  0  0  0  0
 24 30  1  0  0  0  0
 25 27  1  0  0  0  0
 26 31  1  0  0  0  0
 28 25  1  0  0  0  0
 29 30  1  0  0  0  0
 29 26  2  0  0  0  0
 30 28  2  0  0  0  0
 31 25  2  0  0  0  0
M  END
>  <MODEL>
6

>  <REMARK>
 VINA RESULT:      -7.1      3.505      7.604
  Name = 
  7 active torsions:
  status: ('A' for Active; 'I' for Inactive)
    1  A    between atoms: N_3  and  C_9
    2  A    between atoms: N_3  and  C_22
    3  A    between atoms: C_9  and  C_15
    4  A    between atoms: C_9  and  C_23
    5  A    between atoms: C_12  and  C_20
    6  A    between atoms: C_12  and  C_27
    7  A    between atoms: C_15  and  C_20
                            x       y       z     vdW  Elec       q    Type
                         _______ _______ _______ _____ _____    ______ ____

>  <TORSDO>
F 7

$$$$
=
 OpenBabel10272400183D

 31 35  0  0  1  0  0  0  0  0999 V2000
  189.1490  176.4850  138.0120 N   0  0  0  0  0  0  0  0  0  0  0  0
  187.8860  176.2300  137.4760 C   0  0  0  0  0  0  0  0  0  0  0  0
  186.1610  174.5240  136.8060 C   0  0  0  0  0  3  0  0  0  0  0  0
  190.3970  176.7790  138.5400 C   0  0  2  0  0  0  0  0  0  0  0  0
  187.4430  174.9860  137.3420 C   0  0  0  0  0  3  0  0  0  0  0  0
  187.8410  178.8010  137.3290 C   0  0  0  0  0  3  0  0  0  0  0  0
  185.1490  175.2390  136.3250 C   0  0  0  0  0  3  0  0  0  0  0  0
  189.6640  177.8810  138.1680 C   0  0  0  0  0  0  0  0  0  0  0  0
  185.0180  176.6940  136.1900 C   0  0  0  0  0  3  0  0  0  0  0  0
  189.1850  179.0240  137.9050 N   0  0  0  0  0  0  0  0  0  0  0  0
  187.2090  177.5600  137.1140 C   0  0  0  0  0  0  0  0  0  0  0  0
  185.8730  177.6580  136.5180 C   0  0  0  0  0  3  0  0  0  0  0  0
  192.9100  174.3590  137.3350 N   0  0  0  0  0  0  0  0  0  0  0  0
  193.7700  175.4660  137.7320 C   0  0  0  0  0  2  0  0  0  0  0  0
  193.3430  173.9400  136.0140 C   0  0  0  0  0  1  0  0  0  0  0  0
  191.5630  174.9010  137.1910 C   0  0  0  0  0  2  0  0  0  0  0  0
  191.5780  176.3560  137.6440 C   0  0  2  0  0  3  0  0  0  0  0  0
  192.8940  176.5230  138.3540 C   0  0  0  0  0  2  0  0  0  0  0  0
  190.4730  176.5290  140.0380 C   0  0  0  0  0  2  0  0  0  0  0  0
  189.4230  177.3580  140.7680 C   0  0  0  0  0  2  0  0  0  0  0  0
  189.5130  177.2040  142.2860 C   0  0  1  0  0  3  0  0  0  0  0  0
  191.0080  178.5650  143.7430 C   0  0  0  0  0  1  0  0  0  0  0  0
  189.7150  178.5560  142.9510 C   0  0  0  0  0  2  0  0  0  0  0  0
  188.3210  176.5490  142.8210 N   0  0  0  0  0  2  0  0  0  0  0  0
  185.4500  178.3990  144.2040 C   0  0  0  0  0  0  0  0  0  0  0  0
  186.9070  177.7940  146.0240 C   0  0  0  0  0  3  0  0  0  0  0  0
  184.2230  179.0650  143.6980 C   0  0  0  0  0  1  0  0  0  0  0  0
  186.2940  177.7800  143.3330 N   0  0  0  0  0  0  0  0  0  0  0  0
  187.7590  177.1640  145.1150 C   0  0  0  0  0  3  0  0  0  0  0  0
  187.4350  177.1660  143.7560 C   0  0  0  0  0  0  0  0  0  0  0  0
  185.7450  178.4180  145.5680 C   0  0  0  0  0  3  0  0  0  0  0  0
  1  8  1  0  0  0  0
  1  4  1  0  0  0  0
  2  1  1  0  0  0  0
  3  5  1  0  0  0  0
  4 19  1  1  0  0  0
  5  2  2  0  0  0  0
  6 10  1  0  0  0  0
  7  3  2  0  0  0  0
  8  4  1  0  0  0  0
  9  7  1  0  0  0  0
  9 12  2  0  0  0  0
 10  8  2  0  0  0  0
 11  6  2  0  0  0  0
 11  2  1  0  0  0  0
 12 11  1  0  0  0  0
 13 14  1  0  0  0  0
 14 18  1  0  0  0  0
 15 13  1  0  0  0  0
 16 13  1  0  0  0  0
 17 16  1  1  0  0  0
 17 18  1  0  0  0  0
 17  4  1  0  0  0  0
 19 20  1  0  0  0  0
 21 20  1  6  0  0  0
 21 24  1  0  0  0  0
 21 23  1  0  0  0  0
 23 22  1  0  0  0  0
 24 30  1  0  0  0  0
 25 31  2  0  0  0  0
 27 25  1  0  0  0  0
 28 30  2  0  0  0  0
 28 25  1  0  0  0  0
 29 26  2  0  0  0  0
 30 29  1  0  0  0  0
 31 26  1  0  0  0  0
M  END
>  <MODEL>
7

>  <REMARK>
 VINA RESULT:      -7.1      2.897      7.848
  Name = 
  7 active torsions:
  status: ('A' for Active; 'I' for Inactive)
    1  A    between atoms: N_3  and  C_9
    2  A    between atoms: N_3  and  C_22
    3  A    between atoms: C_9  and  C_15
    4  A    between atoms: C_9  and  C_23
    5  A    between atoms: C_12  and  C_20
    6  A    between atoms: C_12  and  C_27
    7  A    between atoms: C_15  and  C_20
                            x       y       z     vdW  Elec       q    Type
                         _______ _______ _______ _____ _____    ______ ____

>  <TORSDO>
F 7

$$$$
=
 OpenBabel10272400183D

 31 35  0  0  1  0  0  0  0  0999 V2000
  182.9620  179.2500  139.1630 N   0  0  0  0  0  0  0  0  0  0  0  0
  182.1330  180.0300  138.3560 C   0  0  0  0  0  0  0  0  0  0  0  0
  181.0820  182.2750  137.9210 C   0  0  0  0  0  3  0  0  0  0  0  0
  183.7800  178.4440  139.9400 C   0  0  2  0  0  0  0  0  0  0  0  0
  181.9130  181.3070  138.6410 C   0  0  0  0  0  3  0  0  0  0  0  0
  181.9390  177.8120  137.0590 C   0  0  0  0  0  3  0  0  0  0  0  0
  180.3540  182.0990  136.8230 C   0  0  0  0  0  3  0  0  0  0  0  0
  183.2200  177.8090  138.8570 C   0  0  0  0  0  0  0  0  0  0  0  0
  180.1670  180.8910  136.0130 C   0  0  0  0  0  3  0  0  0  0  0  0
  182.8270  177.0260  137.9410 N   0  0  0  0  0  0  0  0  0  0  0  0
  181.5930  179.1720  137.2020 C   0  0  0  0  0  0  0  0  0  0  0  0
  180.6820  179.6750  136.1700 C   0  0  0  0  0  3  0  0  0  0  0  0
  181.9180  179.3140  143.0060 N   0  0  0  0  0  0  0  0  0  0  0  0
  183.1990  178.9140  143.5730 C   0  0  0  0  0  2  0  0  0  0  0  0
  180.8860  178.6410  143.7750 C   0  0  0  0  0  1  0  0  0  0  0  0
  181.8660  178.7690  141.6530 C   0  0  0  0  0  2  0  0  0  0  0  0
  183.2130  178.1300  141.3390 C   0  0  2  0  0  3  0  0  0  0  0  0
  184.1320  178.6160  142.4270 C   0  0  0  0  0  2  0  0  0  0  0  0
  185.2540  178.7900  139.7950 C   0  0  0  0  0  2  0  0  0  0  0  0
  185.7750  178.3310  138.4380 C   0  0  0  0  0  2  0  0  0  0  0  0
  187.2210  177.8400  138.5070 C   0  0  1  0  0  3  0  0  0  0  0  0
  188.9800  179.1430  137.3170 C   0  0  0  0  0  1  0  0  0  0  0  0
  187.9260  178.0610  137.1790 C   0  0  0  0  0  2  0  0  0  0  0  0
  187.9510  178.5020  139.5860 N   0  0  0  0  0  2  0  0  0  0  0  0
  188.4160  177.1270  142.9730 C   0  0  0  0  0  0  0  0  0  0  0  0
  190.3370  176.5360  141.6470 C   0  0  0  0  0  3  0  0  0  0  0  0
  187.6830  177.1120  144.2660 C   0  0  0  0  0  1  0  0  0  0  0  0
  187.8770  177.7600  141.8950 N   0  0  0  0  0  0  0  0  0  0  0  0
  189.7680  177.1900  140.5540 C   0  0  0  0  0  3  0  0  0  0  0  0
  188.5220  177.8050  140.6960 C   0  0  0  0  0  0  0  0  0  0  0  0
  189.6600  176.5040  142.8670 C   0  0  0  0  0  3  0  0  0  0  0  0
  1  4  1  0  0  0  0
  2  5  2  0  0  0  0
  2  1  1  0  0  0  0
  3  5  1  0  0  0  0
  4 19  1  6  0  0  0
  4 17  1  0  0  0  0
  6 11  2  0  0  0  0
  6 10  1  0  0  0  0
  7  3  2  0  0  0  0
  8  1  1  0  0  0  0
  8  4  1  0  0  0  0
  9 12  2  0  0  0  0
  9  7  1  0  0  0  0
 10  8  2  0  0  0  0
 11  2  1  0  0  0  0
 12 11  1  0  0  0  0
 13 14  1  0  0  0  0
 13 15  1  0  0  0  0
 16 13  1  0  0  0  0
 17 16  1  1  0  0  0
 17 18  1  0  0  0  0
 18 14  1  0  0  0  0
 20 21  1  0  0  0  0
 20 19  1  0  0  0  0
 21 23  1  6  0  0  0
 21 24  1  0  0  0  0
 23 22  1  0  0  0  0
 24 30  1  0  0  0  0
 25 27  1  0  0  0  0
 26 31  1  0  0  0  0
 28 25  1  0  0  0  0
 29 30  1  0  0  0  0
 29 26  2  0  0  0  0
 30 28  2  0  0  0  0
 31 25  2  0  0  0  0
M  END
>  <MODEL>
8

>  <REMARK>
 VINA RESULT:      -6.8      2.278      5.152
  Name = 
  7 active torsions:
  status: ('A' for Active; 'I' for Inactive)
    1  A    between atoms: N_3  and  C_9
    2  A    between atoms: N_3  and  C_22
    3  A    between atoms: C_9  and  C_15
    4  A    between atoms: C_9  and  C_23
    5  A    between atoms: C_12  and  C_20
    6  A    between atoms: C_12  and  C_27
    7  A    between atoms: C_15  and  C_20
                            x       y       z     vdW  Elec       q    Type
                         _______ _______ _______ _____ _____    ______ ____

>  <TORSDO>
F 7

$$$$
=
 OpenBabel10272400183D

 31 35  0  0  1  0  0  0  0  0999 V2000
  183.1710  178.3890  140.3230 N   0  0  0  0  0  0  0  0  0  0  0  0
  183.3140  178.6240  141.6910 C   0  0  0  0  0  0  0  0  0  0  0  0
  182.2190  178.7840  143.9510 C   0  0  0  0  0  3  0  0  0  0  0  0
  183.0690  178.1600  138.9590 C   0  0  2  0  0  0  0  0  0  0  0  0
  182.2660  178.5690  142.5040 C   0  0  0  0  0  3  0  0  0  0  0  0
  185.7740  178.9470  140.9970 C   0  0  0  0  0  3  0  0  0  0  0  0
  183.2090  179.0900  144.7850 C   0  0  0  0  0  3  0  0  0  0  0  0
  184.3410  178.4480  139.3930 C   0  0  0  0  0  0  0  0  0  0  0  0
  184.6320  179.3010  144.5020 C   0  0  0  0  0  3  0  0  0  0  0  0
  185.5750  178.6880  139.5550 N   0  0  0  0  0  0  0  0  0  0  0  0
  184.7860  178.9310  142.0030 C   0  0  0  0  0  0  0  0  0  0  0  0
  185.2880  179.2350  143.3470 C   0  0  0  0  0  3  0  0  0  0  0  0
  181.1490  181.3060  138.7570 N   0  0  0  0  0  0  0  0  0  0  0  0
  180.2190  180.3810  138.1230 C   0  0  0  0  0  2  0  0  0  0  0  0
  181.2320  182.4760  137.9000 C   0  0  0  0  0  1  0  0  0  0  0  0
  182.4610  180.6670  138.7350 C   0  0  0  0  0  2  0  0  0  0  0  0
  182.2990  179.2530  138.1910 C   0  0  2  0  0  3  0  0  0  0  0  0
  180.8160  179.0000  138.2140 C   0  0  0  0  0  2  0  0  0  0  0  0
  182.8150  176.6980  138.6270 C   0  0  0  0  0  2  0  0  0  0  0  0
  183.4710  176.3350  137.2990 C   0  0  0  0  0  2  0  0  0  0  0  0
  184.6220  175.3440  137.4730 C   0  0  1  0  0  3  0  0  0  0  0  0
  185.2010  172.9310  137.7080 C   0  0  0  0  0  1  0  0  0  0  0  0
  184.1370  173.9180  137.2660 C   0  0  0  0  0  2  0  0  0  0  0  0
  185.7190  175.6440  136.5550 N   0  0  0  0  0  2  0  0  0  0  0  0
  188.7290  177.1930  138.0100 C   0  0  0  0  0  0  0  0  0  0  0  0
  187.6830  178.7990  136.5510 C   0  0  0  0  0  3  0  0  0  0  0  0
  189.8060  176.8240  138.9640 C   0  0  0  0  0  1  0  0  0  0  0  0
  187.7570  176.2920  137.7020 N   0  0  0  0  0  0  0  0  0  0  0  0
  186.6960  177.8610  136.2480 C   0  0  0  0  0  3  0  0  0  0  0  0
  186.7460  176.5960  136.8400 C   0  0  0  0  0  0  0  0  0  0  0  0
  188.7070  178.4670  137.4390 C   0  0  0  0  0  3  0  0  0  0  0  0
  1  2  1  0  0  0  0
  2 11  1  0  0  0  0
  2  5  2  0  0  0  0
  3  7  2  0  0  0  0
  4 19  1  6  0  0  0
  4  8  1  0  0  0  0
  4  1  1  0  0  0  0
  5  3  1  0  0  0  0
  6 11  2  0  0  0  0
  8 10  2  0  0  0  0
  8  1  1  0  0  0  0
  9  7  1  0  0  0  0
 10  6  1  0  0  0  0
 11 12  1  0  0  0  0
 12  9  2  0  0  0  0
 14 18  1  0  0  0  0
 14 13  1  0  0  0  0
 15 13  1  0  0  0  0
 16 13  1  0  0  0  0
 17 18  1  1  0  0  0
 17 16  1  0  0  0  0
 17  4  1  0  0  0  0
 20 21  1  0  0  0  0
 20 19  1  0  0  0  0
 21 23  1  6  0  0  0
 23 22  1  0  0  0  0
 24 30  1  0  0  0  0
 24 21  1  0  0  0  0
 25 27  1  0  0  0  0
 26 31  1  0  0  0  0
 28 25  1  0  0  0  0
 29 26  2  0  0  0  0
 29 30  1  0  0  0  0
 30 28  2  0  0  0  0
 31 25  2  0  0  0  0
M  END
>  <MODEL>
9

>  <REMARK>
 VINA RESULT:      -6.8      2.066      4.065
  Name = 
  7 active torsions:
  status: ('A' for Active; 'I' for Inactive)
    1  A    between atoms: N_3  and  C_9
    2  A    between atoms: N_3  and  C_22
    3  A    between atoms: C_9  and  C_15
    4  A    between atoms: C_9  and  C_23
    5  A    between atoms: C_12  and  C_20
    6  A    between atoms: C_12  and  C_27
    7  A    between atoms: C_15  and  C_20
                            x       y       z     vdW  Elec       q    Type
                         _______ _______ _______ _____ _____    ______ ____

>  <TORSDO>
F 7

$$$$
