=
 OpenBabel10272413243D

 32 38  0  0  1  0  0  0  0  0999 V2000
  188.4160  176.8250  138.0970 S   0  0  0  0  0  0  0  0  0  0  0  0
  187.6400  177.8760  142.9960 C   0  0  0  0  0  0  0  0  0  0  0  0
  182.8930  178.9760  143.0140 C   0  0  0  0  0  3  0  0  0  0  0  0
  182.8990  178.9560  144.4130 C   0  0  0  0  0  3  0  0  0  0  0  0
  188.5120  177.5430  145.2210 C   0  0  0  0  0  0  0  0  0  0  0  0
  189.7940  177.1380  144.9490 C   0  0  0  0  0  0  0  0  0  0  0  0
  188.8700  177.5290  140.8740 C   0  0  1  0  0  3  0  0  0  0  0  0
  186.5370  178.1220  140.7650 C   0  0  0  0  0  2  0  0  0  0  0  0
  188.7680  177.4930  147.5910 C   0  0  0  0  0  0  0  0  0  0  0  0
  187.8450  178.4150  138.8070 C   0  0  0  0  0  2  0  0  0  0  0  0
  184.0640  178.7140  142.2980 C   0  0  0  0  0  3  0  0  0  0  0  0
  186.4710  178.1770  142.2710 C   0  0  0  0  0  0  0  0  0  0  0  0
  185.2570  178.4260  142.9750 C   0  0  0  0  0  0  0  0  0  0  0  0
  186.4170  178.1010  145.0450 N   0  0  0  0  0  0  0  0  0  0  0  0
  190.1160  177.1050  147.3790 C   0  0  0  0  0  3  0  0  0  0  0  0
  187.8810  178.4530  140.2790 N   0  0  2  0  0  0  0  0  0  0  0  0
  190.6260  176.9130  146.0630 C   0  0  0  0  0  3  0  0  0  0  0  0
  190.2110  177.6330  140.1540 C   0  0  0  0  0  2  0  0  0  0  0  0
  190.1240  177.0040  138.7560 C   0  0  1  0  0  3  0  0  0  0  0  0
  184.0770  178.6700  145.1100 C   0  0  0  0  0  3  0  0  0  0  0  0
  185.2550  178.4030  144.4050 C   0  0  0  0  0  0  0  0  0  0  0  0
  186.6590  178.0400  146.3580 N   0  0  0  0  0  0  0  0  0  0  0  0
  189.0150  177.8390  142.3640 C   0  0  2  0  0  3  0  0  0  0  0  0
  190.2150  176.7030  143.2370 S   0  0  0  0  0  0  0  0  0  0  0  0
  188.2320  177.6660  148.9680 C   0  0  0  0  0  1  0  0  0  0  0  0
  187.5330  177.8220  144.3630 C   0  0  0  0  0  0  0  0  0  0  0  0
  187.9740  177.6980  146.4610 C   0  0  0  0  0  0  0  0  0  0  0  0
  190.8690  175.7460  138.6790 N   0  0  0  0  0  2  0  0  0  0  0  0
  192.2140  175.9840  138.1550 C   0  0  0  0  0  2  0  0  0  0  0  0
  192.6380  174.8760  137.1980 C   0  0  0  0  0  3  0  0  0  0  0  0
  193.8580  174.1400  137.7180 C   0  0  0  0  0  1  0  0  0  0  0  0
  191.5010  173.9030  136.9520 C   0  0  0  0  0  1  0  0  0  0  0  0
  1 19  1  0  0  0  0
  1 10  1  0  0  0  0
  2 26  1  0  0  0  0
  3  4  1  0  0  0  0
  4 20  2  0  0  0  0
  5 27  1  0  0  0  0
  6  5  1  0  0  0  0
  6 17  2  0  0  0  0
  7 18  1  6  0  0  0
  7 23  1  0  0  0  0
  8 12  1  0  0  0  0
  9 25  1  0  0  0  0
 11 13  1  0  0  0  0
 11  3  2  0  0  0  0
 12 13  1  0  0  0  0
 12  2  2  0  0  0  0
 13 21  2  0  0  0  0
 14 22  1  0  0  0  0
 15  9  2  0  0  0  0
 16 10  1  6  0  0  0
 16  8  1  0  0  0  0
 16  7  1  0  0  0  0
 17 15  1  0  0  0  0
 19 28  1  1  0  0  0
 19 18  1  0  0  0  0
 21 14  1  0  0  0  0
 21 20  1  0  0  0  0
 22 27  2  0  0  0  0
 23  2  1  1  0  0  0
 23 24  1  0  0  0  0
 24  6  1  0  0  0  0
 26 14  1  0  0  0  0
 26  5  2  0  0  0  0
 27  9  1  0  0  0  0
 29 28  1  0  0  0  0
 30 31  1  0  0  0  0
 30 29  1  0  0  0  0
 32 30  1  0  0  0  0
M  END
>  <MODEL>
1

>  <REMARK>
 VINA RESULT:     -11.4      0.000      0.000
  Name = 
  3 active torsions:
  status: ('A' for Active; 'I' for Inactive)
    1  A    between atoms: C_1  and  C_10
    2  A    between atoms: C_10  and  N_19
    3  A    between atoms: N_19  and  C_24
                            x       y       z     vdW  Elec       q    Type
                         _______ _______ _______ _____ _____    ______ ____

>  <TORSDO>
F 3

$$$$
=
 OpenBabel10272413243D

 32 38  0  0  1  0  0  0  0  0999 V2000
  185.8120  177.4630  137.6400 S   0  0  0  0  0  0  0  0  0  0  0  0
  187.4410  177.9070  142.4220 C   0  0  0  0  0  0  0  0  0  0  0  0
  183.2970  178.9340  144.7690 C   0  0  0  0  0  3  0  0  0  0  0  0
  183.9500  178.7460  145.9930 C   0  0  0  0  0  3  0  0  0  0  0  0
  189.2300  177.3210  143.9320 C   0  0  0  0  0  0  0  0  0  0  0  0
  190.2200  176.9690  143.0510 C   0  0  0  0  0  0  0  0  0  0  0  0
  187.5320  177.8340  139.9470 C   0  0  1  0  0  3  0  0  0  0  0  0
  185.4420  178.4040  141.0030 C   0  0  0  0  0  2  0  0  0  0  0  0
  190.5520  176.9890  145.8880 C   0  0  0  0  0  0  0  0  0  0  0  0
  185.7050  178.9480  138.7090 C   0  0  0  0  0  2  0  0  0  0  0  0
  183.9900  178.7750  143.5660 C   0  0  0  0  0  3  0  0  0  0  0  0
  186.0840  178.2770  142.3620 C   0  0  0  0  0  0  0  0  0  0  0  0
  185.3460  178.4240  143.5730 C   0  0  0  0  0  0  0  0  0  0  0  0
  187.3180  177.8680  144.8150 N   0  0  0  0  0  0  0  0  0  0  0  0
  191.6300  176.6480  145.0310 C   0  0  0  0  0  3  0  0  0  0  0  0
  186.4210  178.8100  139.9890 N   0  0  2  0  0  0  0  0  0  0  0  0
  191.4620  176.6230  143.6170 C   0  0  0  0  0  3  0  0  0  0  0  0
  188.3890  178.0410  138.7030 C   0  0  0  0  0  2  0  0  0  0  0  0
  187.6370  177.5840  137.4450 C   0  0  1  0  0  3  0  0  0  0  0  0
  185.3020  178.3940  146.0240 C   0  0  0  0  0  3  0  0  0  0  0  0
  186.0060  178.2290  144.8270 C   0  0  0  0  0  0  0  0  0  0  0  0
  188.1370  177.6530  145.8480 N   0  0  0  0  0  0  0  0  0  0  0  0
  188.3640  177.9650  141.2230 C   0  0  2  0  0  3  0  0  0  0  0  0
  189.7800  176.7480  141.3030 S   0  0  0  0  0  0  0  0  0  0  0  0
  190.7220  176.9890  147.3660 C   0  0  0  0  0  1  0  0  0  0  0  0
  187.9770  177.6870  143.6650 C   0  0  0  0  0  0  0  0  0  0  0  0
  189.3340  177.3180  145.2880 C   0  0  0  0  0  0  0  0  0  0  0  0
  188.2050  176.3550  136.8890 N   0  0  0  0  0  2  0  0  0  0  0  0
  187.1650  175.3370  136.7390 C   0  0  0  0  0  2  0  0  0  0  0  0
  187.7700  173.9620  136.4850 C   0  0  0  0  0  3  0  0  0  0  0  0
  189.2230  173.9130  136.9190 C   0  0  0  0  0  1  0  0  0  0  0  0
  186.9750  172.8770  137.1860 C   0  0  0  0  0  1  0  0  0  0  0  0
  1 10  1  0  0  0  0
  2 26  1  0  0  0  0
  3  4  1  0  0  0  0
  4 20  2  0  0  0  0
  5 27  1  0  0  0  0
  6 17  2  0  0  0  0
  6  5  1  0  0  0  0
  7 18  1  6  0  0  0
  7 16  1  0  0  0  0
  7 23  1  0  0  0  0
  8 12  1  0  0  0  0
  9 25  1  0  0  0  0
 11 13  1  0  0  0  0
 11  3  2  0  0  0  0
 12  2  2  0  0  0  0
 12 13  1  0  0  0  0
 13 21  2  0  0  0  0
 14 21  1  0  0  0  0
 14 22  1  0  0  0  0
 15  9  2  0  0  0  0
 16 10  1  6  0  0  0
 16  8  1  0  0  0  0
 17 15  1  0  0  0  0
 19 28  1  1  0  0  0
 19  1  1  0  0  0  0
 19 18  1  0  0  0  0
 21 20  1  0  0  0  0
 23 24  1  1  0  0  0
 23  2  1  0  0  0  0
 24  6  1  0  0  0  0
 26  5  2  0  0  0  0
 26 14  1  0  0  0  0
 27 22  2  0  0  0  0
 27  9  1  0  0  0  0
 29 28  1  0  0  0  0
 30 29  1  0  0  0  0
 30 31  1  0  0  0  0
 30 32  1  0  0  0  0
M  END
>  <MODEL>
2

>  <REMARK>
 VINA RESULT:     -10.3      1.939      2.513
  Name = 
  3 active torsions:
  status: ('A' for Active; 'I' for Inactive)
    1  A    between atoms: C_1  and  C_10
    2  A    between atoms: C_10  and  N_19
    3  A    between atoms: N_19  and  C_24
                            x       y       z     vdW  Elec       q    Type
                         _______ _______ _______ _____ _____    ______ ____

>  <TORSDO>
F 3

$$$$
=
 OpenBabel10272413243D

 32 38  0  0  1  0  0  0  0  0999 V2000
  191.9620  177.5340  141.2190 S   0  0  0  0  0  0  0  0  0  0  0  0
  187.4780  177.7910  143.5740 C   0  0  0  0  0  0  0  0  0  0  0  0
  188.8450  177.9800  148.2470 C   0  0  0  0  0  3  0  0  0  0  0  0
  187.5310  178.2970  148.6130 C   0  0  0  0  0  3  0  0  0  0  0  0
  185.1520  178.3570  143.2750 C   0  0  0  0  0  0  0  0  0  0  0  0
  185.0480  178.3500  141.9080 C   0  0  0  0  0  0  0  0  0  0  0  0
  189.1200  177.3480  141.7720 C   0  0  1  0  0  3  0  0  0  0  0  0
  189.8960  177.3670  144.0540 C   0  0  0  0  0  2  0  0  0  0  0  0
  182.8510  178.8450  143.6660 C   0  0  0  0  0  0  0  0  0  0  0  0
  191.2780  176.3350  142.4250 C   0  0  0  0  0  2  0  0  0  0  0  0
  189.1750  177.7730  146.9050 C   0  0  0  0  0  3  0  0  0  0  0  0
  188.4960  177.6540  144.5370 C   0  0  0  0  0  0  0  0  0  0  0  0
  188.1930  177.8820  145.9110 C   0  0  0  0  0  0  0  0  0  0  0  0
  185.9190  178.3320  145.3110 N   0  0  0  0  0  0  0  0  0  0  0  0
  182.6660  178.8180  142.2590 C   0  0  0  0  0  3  0  0  0  0  0  0
  189.8800  176.6040  142.8010 N   0  0  2  0  0  0  0  0  0  0  0  0
  183.7630  178.5860  141.3800 C   0  0  0  0  0  3  0  0  0  0  0  0
  189.3540  176.7510  140.3880 C   0  0  0  0  0  2  0  0  0  0  0  0
  190.7730  177.0670  139.8950 C   0  0  1  0  0  3  0  0  0  0  0  0
  186.5360  178.4120  147.6380 C   0  0  0  0  0  3  0  0  0  0  0  0
  186.8540  178.2100  146.2910 C   0  0  0  0  0  0  0  0  0  0  0  0
  184.6160  178.6080  145.4260 N   0  0  0  0  0  0  0  0  0  0  0  0
  187.6360  177.3370  142.1380 C   0  0  2  0  0  3  0  0  0  0  0  0
  186.5750  178.2860  140.9270 S   0  0  0  0  0  0  0  0  0  0  0  0
  181.7080  179.1140  144.5800 C   0  0  0  0  0  1  0  0  0  0  0  0
  186.2370  178.1630  144.0230 C   0  0  0  0  0  0  0  0  0  0  0  0
  184.1410  178.6150  144.1480 C   0  0  0  0  0  0  0  0  0  0  0  0
  190.7640  178.0430  138.8050 N   0  0  0  0  0  2  0  0  0  0  0  0
  189.3910  178.4260  138.4770 C   0  0  0  0  0  2  0  0  0  0  0  0
  189.1660  178.4350  136.9700 C   0  0  0  0  0  3  0  0  0  0  0  0
  189.5540  177.1050  136.3490 C   0  0  0  0  0  1  0  0  0  0  0  0
  187.7260  178.7720  136.6350 C   0  0  0  0  0  1  0  0  0  0  0  0
  1 10  1  0  0  0  0
  2 26  1  0  0  0  0
  2 12  2  0  0  0  0
  3  4  1  0  0  0  0
  5 26  2  0  0  0  0
  5 27  1  0  0  0  0
  6  5  1  0  0  0  0
  7 18  1  6  0  0  0
  7 23  1  0  0  0  0
  7 16  1  0  0  0  0
  8 12  1  0  0  0  0
  9 27  1  0  0  0  0
  9 25  1  0  0  0  0
 11  3  2  0  0  0  0
 12 13  1  0  0  0  0
 13 21  2  0  0  0  0
 13 11  1  0  0  0  0
 14 22  1  0  0  0  0
 14 21  1  0  0  0  0
 15  9  2  0  0  0  0
 16 10  1  6  0  0  0
 16  8  1  0  0  0  0
 17  6  2  0  0  0  0
 17 15  1  0  0  0  0
 19 28  1  6  0  0  0
 19 18  1  0  0  0  0
 19  1  1  0  0  0  0
 20  4  2  0  0  0  0
 21 20  1  0  0  0  0
 23 24  1  6  0  0  0
 23  2  1  0  0  0  0
 24  6  1  0  0  0  0
 26 14  1  0  0  0  0
 27 22  2  0  0  0  0
 29 28  1  0  0  0  0
 30 29  1  0  0  0  0
 31 30  1  0  0  0  0
 32 30  1  0  0  0  0
M  END
>  <MODEL>
3

>  <REMARK>
 VINA RESULT:      -9.5      1.968      4.922
  Name = 
  3 active torsions:
  status: ('A' for Active; 'I' for Inactive)
    1  A    between atoms: C_1  and  C_10
    2  A    between atoms: C_10  and  N_19
    3  A    between atoms: N_19  and  C_24
                            x       y       z     vdW  Elec       q    Type
                         _______ _______ _______ _____ _____    ______ ____

>  <TORSDO>
F 3

$$$$
=
 OpenBabel10272413243D

 32 38  0  0  1  0  0  0  0  0999 V2000
  191.4210  177.6550  138.8560 S   0  0  0  0  0  0  0  0  0  0  0  0
  188.6700  177.3520  143.1060 C   0  0  0  0  0  0  0  0  0  0  0  0
  192.0820  176.2140  146.3930 C   0  0  0  0  0  3  0  0  0  0  0  0
  191.1610  176.4460  147.4210 C   0  0  0  0  0  3  0  0  0  0  0  0
  186.5950  178.0290  144.1340 C   0  0  0  0  0  0  0  0  0  0  0  0
  185.8610  178.4020  143.0380 C   0  0  0  0  0  0  0  0  0  0  0  0
  189.1820  177.3860  140.6820 C   0  0  1  0  0  3  0  0  0  0  0  0
  190.9310  176.7580  142.2160 C   0  0  0  0  0  2  0  0  0  0  0  0
  184.8540  178.4410  145.7110 C   0  0  0  0  0  0  0  0  0  0  0  0
  191.2070  176.1850  139.9300 C   0  0  0  0  0  2  0  0  0  0  0  0
  191.7060  176.3770  145.0560 C   0  0  0  0  0  3  0  0  0  0  0  0
  189.9850  176.9310  143.3790 C   0  0  0  0  0  0  0  0  0  0  0  0
  190.4030  176.7780  144.7330 C   0  0  0  0  0  0  0  0  0  0  0  0
  188.2140  177.4270  145.4570 N   0  0  0  0  0  0  0  0  0  0  0  0
  184.0290  178.8070  144.6160 C   0  0  0  0  0  3  0  0  0  0  0  0
  190.2100  176.3710  140.9980 N   0  0  2  0  0  0  0  0  0  0  0  0
  184.5330  178.8020  143.2830 C   0  0  0  0  0  3  0  0  0  0  0  0
  188.6420  177.1900  139.2690 C   0  0  0  0  0  2  0  0  0  0  0  0
  189.6930  177.5980  138.2270 C   0  0  1  0  0  3  0  0  0  0  0  0
  189.8560  176.8480  147.1220 C   0  0  0  0  0  3  0  0  0  0  0  0
  189.4680  177.0180  145.7890 C   0  0  0  0  0  0  0  0  0  0  0  0
  187.1780  177.6890  146.2600 N   0  0  0  0  0  0  0  0  0  0  0  0
  188.0620  177.3080  141.7190 C   0  0  2  0  0  3  0  0  0  0  0  0
  186.7180  178.5770  141.4460 S   0  0  0  0  0  0  0  0  0  0  0  0
  184.3320  178.4730  147.1030 C   0  0  0  0  0  1  0  0  0  0  0  0
  187.8590  177.6120  144.1810 C   0  0  0  0  0  0  0  0  0  0  0  0
  186.1660  178.0580  145.4250 C   0  0  0  0  0  0  0  0  0  0  0  0
  189.3250  178.8370  137.5410 N   0  0  0  0  0  2  0  0  0  0  0  0
  188.3200  178.5700  136.5120 C   0  0  0  0  0  2  0  0  0  0  0  0
  188.6250  177.2770  135.7650 C   0  0  0  0  0  3  0  0  0  0  0  0
  187.3600  176.4800  135.5080 C   0  0  0  0  0  1  0  0  0  0  0  0
  189.3450  177.5580  134.4600 C   0  0  0  0  0  1  0  0  0  0  0  0
  1 10  1  0  0  0  0
  2 12  2  0  0  0  0
  2 26  1  0  0  0  0
  3  4  1  0  0  0  0
  5 26  2  0  0  0  0
  5 27  1  0  0  0  0
  6 17  2  0  0  0  0
  6  5  1  0  0  0  0
  7 18  1  6  0  0  0
  7 16  1  0  0  0  0
  7 23  1  0  0  0  0
  8 12  1  0  0  0  0
  9 25  1  0  0  0  0
 11  3  2  0  0  0  0
 12 13  1  0  0  0  0
 13 11  1  0  0  0  0
 13 21  2  0  0  0  0
 14 21  1  0  0  0  0
 14 22  1  0  0  0  0
 15  9  2  0  0  0  0
 16 10  1  6  0  0  0
 16  8  1  0  0  0  0
 17 15  1  0  0  0  0
 19 28  1  1  0  0  0
 19  1  1  0  0  0  0
 19 18  1  0  0  0  0
 20  4  2  0  0  0  0
 21 20  1  0  0  0  0
 23 24  1  6  0  0  0
 23  2  1  0  0  0  0
 24  6  1  0  0  0  0
 26 14  1  0  0  0  0
 27  9  1  0  0  0  0
 27 22  2  0  0  0  0
 29 28  1  0  0  0  0
 30 29  1  0  0  0  0
 31 30  1  0  0  0  0
 32 30  1  0  0  0  0
M  END
>  <MODEL>
4

>  <REMARK>
 VINA RESULT:      -9.3      2.034      4.887
  Name = 
  3 active torsions:
  status: ('A' for Active; 'I' for Inactive)
    1  A    between atoms: C_1  and  C_10
    2  A    between atoms: C_10  and  N_19
    3  A    between atoms: N_19  and  C_24
                            x       y       z     vdW  Elec       q    Type
                         _______ _______ _______ _____ _____    ______ ____

>  <TORSDO>
F 3

$$$$
=
 OpenBabel10272413243D

 32 38  0  0  1  0  0  0  0  0999 V2000
  187.4720  177.4030  136.4180 S   0  0  0  0  0  0  0  0  0  0  0  0
  187.3970  178.0310  141.4490 C   0  0  0  0  0  0  0  0  0  0  0  0
  182.6930  179.0290  142.2340 C   0  0  0  0  0  3  0  0  0  0  0  0
  182.8990  178.8940  143.6110 C   0  0  0  0  0  3  0  0  0  0  0  0
  188.5820  177.5330  143.4910 C   0  0  0  0  0  0  0  0  0  0  0  0
  189.8140  177.1780  143.0060 C   0  0  0  0  0  0  0  0  0  0  0  0
  188.3130  177.8850  139.1520 C   0  0  1  0  0  3  0  0  0  0  0  0
  185.9840  178.4370  139.4260 C   0  0  0  0  0  2  0  0  0  0  0  0
  189.1750  177.2920  145.7880 C   0  0  0  0  0  0  0  0  0  0  0  0
  186.9950  178.9170  137.3340 C   0  0  0  0  0  2  0  0  0  0  0  0
  183.7510  178.8510  141.3390 C   0  0  0  0  0  3  0  0  0  0  0  0
  186.1340  178.3660  140.9250 C   0  0  0  0  0  0  0  0  0  0  0  0
  185.0310  178.5320  141.8130 C   0  0  0  0  0  0  0  0  0  0  0  0
  186.4780  178.0610  143.6620 N   0  0  0  0  0  0  0  0  0  0  0  0
  190.4820  176.9510  145.3550 C   0  0  0  0  0  3  0  0  0  0  0  0
  187.2410  178.8350  138.7830 N   0  0  2  0  0  0  0  0  0  0  0  0
  190.7990  176.8790  143.9680 C   0  0  0  0  0  3  0  0  0  0  0  0
  189.5360  178.0740  138.2600 C   0  0  0  0  0  2  0  0  0  0  0  0
  189.2550  177.5620  136.8410 C   0  0  1  0  0  3  0  0  0  0  0  0
  184.1670  178.5750  144.1070 C   0  0  0  0  0  3  0  0  0  0  0  0
  185.2340  178.3910  143.2210 C   0  0  0  0  0  0  0  0  0  0  0  0
  186.9060  177.8970  144.9170 N   0  0  0  0  0  0  0  0  0  0  0  0
  188.6680  178.0740  140.6270 C   0  0  2  0  0  3  0  0  0  0  0  0
  189.9890  176.8940  141.2210 S   0  0  0  0  0  0  0  0  0  0  0  0
  188.8400  177.3410  147.2370 C   0  0  0  0  0  1  0  0  0  0  0  0
  187.4870  177.8610  142.8070 C   0  0  0  0  0  0  0  0  0  0  0  0
  188.2250  177.5740  144.8040 C   0  0  0  0  0  0  0  0  0  0  0  0
  189.9920  176.3300  136.5530 N   0  0  0  0  0  2  0  0  0  0  0  0
  191.4300  176.5520  136.7010 C   0  0  0  0  0  2  0  0  0  0  0  0
  192.0540  175.5230  137.6370 C   0  0  0  0  0  3  0  0  0  0  0  0
  192.0030  174.1310  137.0330 C   0  0  0  0  0  1  0  0  0  0  0  0
  193.4820  175.8950  137.9830 C   0  0  0  0  0  1  0  0  0  0  0  0
  1 19  1  0  0  0  0
  1 10  1  0  0  0  0
  2 26  1  0  0  0  0
  3  4  1  0  0  0  0
  4 20  2  0  0  0  0
  5 27  1  0  0  0  0
  6  5  1  0  0  0  0
  6 17  2  0  0  0  0
  7 18  1  6  0  0  0
  7 23  1  0  0  0  0
  8 12  1  0  0  0  0
  9 25  1  0  0  0  0
 11 13  1  0  0  0  0
 11  3  2  0  0  0  0
 12  2  2  0  0  0  0
 12 13  1  0  0  0  0
 13 21  2  0  0  0  0
 14 22  1  0  0  0  0
 15  9  2  0  0  0  0
 16 10  1  6  0  0  0
 16  7  1  0  0  0  0
 16  8  1  0  0  0  0
 17 15  1  0  0  0  0
 19 28  1  1  0  0  0
 19 18  1  0  0  0  0
 21 14  1  0  0  0  0
 21 20  1  0  0  0  0
 23 24  1  1  0  0  0
 23  2  1  0  0  0  0
 24  6  1  0  0  0  0
 26  5  2  0  0  0  0
 26 14  1  0  0  0  0
 27 22  2  0  0  0  0
 27  9  1  0  0  0  0
 28 29  1  0  0  0  0
 29 30  1  0  0  0  0
 30 32  1  0  0  0  0
 31 30  1  0  0  0  0
M  END
>  <MODEL>
5

>  <REMARK>
 VINA RESULT:      -9.3      1.245      1.738
  Name = 
  3 active torsions:
  status: ('A' for Active; 'I' for Inactive)
    1  A    between atoms: C_1  and  C_10
    2  A    between atoms: C_10  and  N_19
    3  A    between atoms: N_19  and  C_24
                            x       y       z     vdW  Elec       q    Type
                         _______ _______ _______ _____ _____    ______ ____

>  <TORSDO>
F 3

$$$$
=
 OpenBabel10272413243D

 32 38  0  0  1  0  0  0  0  0999 V2000
  189.2070  176.7090  136.8460 S   0  0  0  0  0  0  0  0  0  0  0  0
  186.6520  178.1390  140.9860 C   0  0  0  0  0  0  0  0  0  0  0  0
  182.2880  179.2190  139.1090 C   0  0  0  0  0  3  0  0  0  0  0  0
  181.7600  179.3090  140.4020 C   0  0  0  0  0  3  0  0  0  0  0  0
  186.6030  177.9850  143.3930 C   0  0  0  0  0  0  0  0  0  0  0  0
  187.8800  177.5640  143.6610 C   0  0  0  0  0  0  0  0  0  0  0  0
  188.5880  177.6300  139.5260 C   0  0  1  0  0  3  0  0  0  0  0  0
  186.4890  178.2040  138.4910 C   0  0  0  0  0  2  0  0  0  0  0  0
  185.9350  178.1210  145.6780 C   0  0  0  0  0  0  0  0  0  0  0  0
  188.4510  178.3470  137.1650 C   0  0  0  0  0  2  0  0  0  0  0  0
  183.6360  178.9060  138.9150 C   0  0  0  0  0  3  0  0  0  0  0  0
  185.8560  178.3770  139.8490 C   0  0  0  0  0  0  0  0  0  0  0  0
  184.4730  178.6760  140.0160 C   0  0  0  0  0  0  0  0  0  0  0  0
  184.7480  178.5190  142.3900 N   0  0  0  0  0  0  0  0  0  0  0  0
  187.2520  177.7230  146.0260 C   0  0  0  0  0  3  0  0  0  0  0  0
  187.9250  178.5010  138.5310 N   0  0  2  0  0  0  0  0  0  0  0  0
  188.2190  177.4310  145.0220 C   0  0  0  0  0  3  0  0  0  0  0  0
  190.1040  177.6820  139.3660 C   0  0  0  0  0  2  0  0  0  0  0  0
  190.5400  176.9450  138.0920 C   0  0  1  0  0  3  0  0  0  0  0  0
  182.5750  179.0830  141.5140 C   0  0  0  0  0  3  0  0  0  0  0  0
  183.9260  178.7660  141.3340 C   0  0  0  0  0  0  0  0  0  0  0  0
  184.4700  178.5630  143.6960 N   0  0  0  0  0  0  0  0  0  0  0  0
  188.1630  178.0570  140.9310 C   0  0  2  0  0  3  0  0  0  0  0  0
  188.9100  176.9970  142.2770 S   0  0  0  0  0  0  0  0  0  0  0  0
  184.9200  178.4010  146.7290 C   0  0  0  0  0  1  0  0  0  0  0  0
  186.0320  178.1910  142.2080 C   0  0  0  0  0  0  0  0  0  0  0  0
  185.6370  178.2340  144.3190 C   0  0  0  0  0  0  0  0  0  0  0  0
  191.2240  175.6880  138.3980 N   0  0  0  0  0  2  0  0  0  0  0  0
  191.3460  174.8690  137.1930 C   0  0  0  0  0  2  0  0  0  0  0  0
  192.7910  174.8050  136.7120 C   0  0  0  0  0  3  0  0  0  0  0  0
  193.0300  175.7690  135.5650 C   0  0  0  0  0  1  0  0  0  0  0  0
  193.7570  175.0860  137.8460 C   0  0  0  0  0  1  0  0  0  0  0  0
  1 10  1  0  0  0  0
  1 19  1  0  0  0  0
  2 26  1  0  0  0  0
  3  4  1  0  0  0  0
  4 20  2  0  0  0  0
  5  6  1  0  0  0  0
  5 27  1  0  0  0  0
  6 17  2  0  0  0  0
  7 18  1  1  0  0  0
  7 23  1  0  0  0  0
  8 16  1  0  0  0  0
  8 12  1  0  0  0  0
  9 15  2  0  0  0  0
  9 25  1  0  0  0  0
 11  3  2  0  0  0  0
 11 13  1  0  0  0  0
 12 13  1  0  0  0  0
 12  2  2  0  0  0  0
 13 21  2  0  0  0  0
 14 22  1  0  0  0  0
 16 10  1  6  0  0  0
 16  7  1  0  0  0  0
 17 15  1  0  0  0  0
 19 28  1  1  0  0  0
 19 18  1  0  0  0  0
 21 20  1  0  0  0  0
 21 14  1  0  0  0  0
 22 27  2  0  0  0  0
 23  2  1  6  0  0  0
 23 24  1  0  0  0  0
 24  6  1  0  0  0  0
 26 14  1  0  0  0  0
 26  5  2  0  0  0  0
 27  9  1  0  0  0  0
 29 28  1  0  0  0  0
 30 29  1  0  0  0  0
 30 32  1  0  0  0  0
 31 30  1  0  0  0  0
M  END
>  <MODEL>
6

>  <REMARK>
 VINA RESULT:      -9.2      1.682      2.690
  Name = 
  3 active torsions:
  status: ('A' for Active; 'I' for Inactive)
    1  A    between atoms: C_1  and  C_10
    2  A    between atoms: C_10  and  N_19
    3  A    between atoms: N_19  and  C_24
                            x       y       z     vdW  Elec       q    Type
                         _______ _______ _______ _____ _____    ______ ____

>  <TORSDO>
F 3

$$$$
=
 OpenBabel10272413243D

 32 38  0  0  1  0  0  0  0  0999 V2000
  181.2020  178.3500  142.3520 S   0  0  0  0  0  0  0  0  0  0  0  0
  186.2710  178.2510  142.3020 C   0  0  0  0  0  0  0  0  0  0  0  0
  187.2770  177.5470  147.0170 C   0  0  0  0  0  3  0  0  0  0  0  0
  188.6160  177.3060  146.6900 C   0  0  0  0  0  3  0  0  0  0  0  0
  188.1980  177.9040  140.8910 C   0  0  0  0  0  0  0  0  0  0  0  0
  187.6450  178.0380  139.6440 C   0  0  0  0  0  0  0  0  0  0  0  0
  183.9620  178.7160  141.5360 C   0  0  1  0  0  3  0  0  0  0  0  0
  184.3540  178.4360  143.8970 C   0  0  0  0  0  2  0  0  0  0  0  0
  190.4250  177.5710  140.1060 C   0  0  0  0  0  0  0  0  0  0  0  0
  182.3370  179.4910  143.2300 C   0  0  0  0  0  2  0  0  0  0  0  0
  186.3460  177.8430  146.0170 C   0  0  0  0  0  3  0  0  0  0  0  0
  185.8240  178.2220  143.6360 C   0  0  0  0  0  0  0  0  0  0  0  0
  186.7460  177.9000  144.6750 C   0  0  0  0  0  0  0  0  0  0  0  0
  188.4810  177.6890  143.0370 N   0  0  0  0  0  0  0  0  0  0  0  0
  189.9230  177.7350  138.7890 C   0  0  0  0  0  3  0  0  0  0  0  0
  183.7540  179.3040  142.8780 N   0  0  2  0  0  0  0  0  0  0  0  0
  188.5350  177.9540  138.5550 C   0  0  0  0  0  3  0  0  0  0  0  0
  183.0850  179.4100  140.4980 C   0  0  0  0  0  2  0  0  0  0  0  0
  181.6110  179.0260  140.6910 C   0  0  1  0  0  3  0  0  0  0  0  0
  189.0370  177.3570  145.3580 C   0  0  0  0  0  3  0  0  0  0  0  0
  188.1150  177.6500  144.3470 C   0  0  0  0  0  0  0  0  0  0  0  0
  189.6920  177.5100  142.5000 N   0  0  0  0  0  0  0  0  0  0  0  0
  185.4420  178.8150  141.1670 C   0  0  2  0  0  3  0  0  0  0  0  0
  185.8350  178.0640  139.5020 S   0  0  0  0  0  0  0  0  0  0  0  0
  191.8710  177.3160  140.3460 C   0  0  0  0  0  1  0  0  0  0  0  0
  187.5890  177.9440  142.0750 C   0  0  0  0  0  0  0  0  0  0  0  0
  189.5090  177.6540  141.1570 C   0  0  0  0  0  0  0  0  0  0  0  0
  181.1340  178.1510  139.6180 N   0  0  0  0  0  2  0  0  0  0  0  0
  180.5500  176.9330  140.1780 C   0  0  0  0  0  2  0  0  0  0  0  0
  181.1120  175.6890  139.5010 C   0  0  0  0  0  3  0  0  0  0  0  0
  180.4020  175.4100  138.1890 C   0  0  0  0  0  1  0  0  0  0  0  0
  182.6060  175.8180  139.2740 C   0  0  0  0  0  1  0  0  0  0  0  0
  1 10  1  0  0  0  0
  2 12  2  0  0  0  0
  4  3  1  0  0  0  0
  5 27  1  0  0  0  0
  5 26  2  0  0  0  0
  6  5  1  0  0  0  0
  7 18  1  6  0  0  0
  7 16  1  0  0  0  0
  9 25  1  0  0  0  0
  9 27  1  0  0  0  0
 11  3  2  0  0  0  0
 12  8  1  0  0  0  0
 12 13  1  0  0  0  0
 13 11  1  0  0  0  0
 14 21  1  0  0  0  0
 15  9  2  0  0  0  0
 16 10  1  1  0  0  0
 16  8  1  0  0  0  0
 17 15  1  0  0  0  0
 17  6  2  0  0  0  0
 18 19  1  0  0  0  0
 19 28  1  6  0  0  0
 19  1  1  0  0  0  0
 20  4  2  0  0  0  0
 21 13  2  0  0  0  0
 21 20  1  0  0  0  0
 22 14  1  0  0  0  0
 23 24  1  6  0  0  0
 23  7  1  0  0  0  0
 23  2  1  0  0  0  0
 24  6  1  0  0  0  0
 26  2  1  0  0  0  0
 26 14  1  0  0  0  0
 27 22  2  0  0  0  0
 28 29  1  0  0  0  0
 30 29  1  0  0  0  0
 31 30  1  0  0  0  0
 32 30  1  0  0  0  0
M  END
>  <MODEL>
7

>  <REMARK>
 VINA RESULT:      -8.9      3.027      7.009
  Name = 
  3 active torsions:
  status: ('A' for Active; 'I' for Inactive)
    1  A    between atoms: C_1  and  C_10
    2  A    between atoms: C_10  and  N_19
    3  A    between atoms: N_19  and  C_24
                            x       y       z     vdW  Elec       q    Type
                         _______ _______ _______ _____ _____    ______ ____

>  <TORSDO>
F 3

$$$$
=
 OpenBabel10272413243D

 32 38  0  0  1  0  0  0  0  0999 V2000
  189.4570  176.9290  138.2220 S   0  0  0  0  0  0  0  0  0  0  0  0
  184.9320  178.3060  140.0510 C   0  0  0  0  0  0  0  0  0  0  0  0
  182.0950  177.7720  136.1270 C   0  0  0  0  0  3  0  0  0  0  0  0
  180.9610  177.9410  136.9300 C   0  0  0  0  0  3  0  0  0  0  0  0
  183.6530  178.5780  142.0780 C   0  0  0  0  0  0  0  0  0  0  0  0
  184.6460  178.5860  143.0240 C   0  0  0  0  0  0  0  0  0  0  0  0
  187.3970  178.1050  139.8920 C   0  0  1  0  0  3  0  0  0  0  0  0
  186.0930  177.8760  137.8780 C   0  0  0  0  0  2  0  0  0  0  0  0
  181.8750  178.9290  143.6280 C   0  0  0  0  0  0  0  0  0  0  0  0
  188.4120  178.3210  137.6490 C   0  0  0  0  0  2  0  0  0  0  0  0
  183.3740  177.8180  136.6890 C   0  0  0  0  0  3  0  0  0  0  0  0
  184.8250  178.1050  138.6620 C   0  0  0  0  0  0  0  0  0  0  0  0
  183.5330  178.0320  138.0640 C   0  0  0  0  0  0  0  0  0  0  0  0
  182.5430  178.3850  140.2170 N   0  0  0  0  0  0  0  0  0  0  0  0
  182.8560  178.9840  144.6520 C   0  0  0  0  0  3  0  0  0  0  0  0
  187.2320  178.5640  138.4950 N   0  0  2  0  0  0  0  0  0  0  0  0
  184.2370  178.7980  144.3550 C   0  0  0  0  0  3  0  0  0  0  0  0
  188.7440  178.5480  140.4530 C   0  0  0  0  0  2  0  0  0  0  0  0
  189.8870  177.7470  139.8130 C   0  0  1  0  0  3  0  0  0  0  0  0
  181.0960  178.1540  138.3050 C   0  0  0  0  0  3  0  0  0  0  0  0
  182.3700  178.1990  138.8800 C   0  0  0  0  0  0  0  0  0  0  0  0
  181.6190  178.5820  141.1620 N   0  0  0  0  0  0  0  0  0  0  0  0
  186.2410  178.6410  140.7370 C   0  0  2  0  0  3  0  0  0  0  0  0
  186.3190  178.0900  142.5200 S   0  0  0  0  0  0  0  0  0  0  0  0
  180.4310  179.0980  143.9460 C   0  0  0  0  0  1  0  0  0  0  0  0
  183.7640  178.4010  140.7630 C   0  0  0  0  0  0  0  0  0  0  0  0
  182.3210  178.7090  142.3230 C   0  0  0  0  0  0  0  0  0  0  0  0
  190.4870  176.8070  140.7610 N   0  0  0  0  0  2  0  0  0  0  0  0
  191.5950  177.4420  141.4740 C   0  0  0  0  0  2  0  0  0  0  0  0
  191.4650  177.2510  142.9800 C   0  0  0  0  0  3  0  0  0  0  0  0
  191.3030  178.5820  143.6900 C   0  0  0  0  0  1  0  0  0  0  0  0
  190.3070  176.3300  143.3160 C   0  0  0  0  0  1  0  0  0  0  0  0
  1 19  1  0  0  0  0
  2 26  1  0  0  0  0
  3 11  2  0  0  0  0
  3  4  1  0  0  0  0
  4 20  2  0  0  0  0
  5 27  1  0  0  0  0
  5  6  1  0  0  0  0
  6 17  2  0  0  0  0
  7 18  1  1  0  0  0
  7 23  1  0  0  0  0
  8 16  1  0  0  0  0
  8 12  1  0  0  0  0
  9 25  1  0  0  0  0
  9 15  2  0  0  0  0
 10  1  1  0  0  0  0
 11 13  1  0  0  0  0
 12  2  2  0  0  0  0
 13 12  1  0  0  0  0
 13 21  2  0  0  0  0
 14 26  1  0  0  0  0
 14 22  1  0  0  0  0
 16 10  1  6  0  0  0
 16  7  1  0  0  0  0
 17 15  1  0  0  0  0
 19 18  1  0  0  0  0
 19 28  1  1  0  0  0
 20 21  1  0  0  0  0
 21 14  1  0  0  0  0
 22 27  2  0  0  0  0
 23  2  1  6  0  0  0
 23 24  1  0  0  0  0
 24  6  1  0  0  0  0
 26  5  2  0  0  0  0
 27  9  1  0  0  0  0
 28 29  1  0  0  0  0
 29 30  1  0  0  0  0
 30 32  1  0  0  0  0
 30 31  1  0  0  0  0
M  END
>  <MODEL>
8

>  <REMARK>
 VINA RESULT:      -8.8      3.305      5.639
  Name = 
  3 active torsions:
  status: ('A' for Active; 'I' for Inactive)
    1  A    between atoms: C_1  and  C_10
    2  A    between atoms: C_10  and  N_19
    3  A    between atoms: N_19  and  C_24
                            x       y       z     vdW  Elec       q    Type
                         _______ _______ _______ _____ _____    ______ ____

>  <TORSDO>
F 3

$$$$
=
 OpenBabel10272413243D

 32 38  0  0  1  0  0  0  0  0999 V2000
  191.6090  176.3010  143.7720 S   0  0  0  0  0  0  0  0  0  0  0  0
  188.0830  177.9610  140.5270 C   0  0  0  0  0  0  0  0  0  0  0  0
  190.1420  176.9140  136.2360 C   0  0  0  0  0  3  0  0  0  0  0  0
  188.9330  177.2040  135.5920 C   0  0  0  0  0  3  0  0  0  0  0  0
  185.7470  178.5230  140.3100 C   0  0  0  0  0  0  0  0  0  0  0  0
  185.3790  178.6520  141.6250 C   0  0  0  0  0  0  0  0  0  0  0  0
  189.3390  177.7170  142.6480 C   0  0  1  0  0  3  0  0  0  0  0  0
  190.4720  177.2220  140.5800 C   0  0  0  0  0  2  0  0  0  0  0  0
  183.6080  179.1030  139.4290 C   0  0  0  0  0  0  0  0  0  0  0  0
  191.8040  177.6100  142.5040 C   0  0  0  0  0  2  0  0  0  0  0  0
  190.2470  177.0260  137.6260 C   0  0  0  0  0  3  0  0  0  0  0  0
  189.2260  177.5700  139.8040 C   0  0  0  0  0  0  0  0  0  0  0  0
  189.1420  177.4270  138.3880 C   0  0  0  0  0  0  0  0  0  0  0  0
  186.8410  178.0850  138.4820 N   0  0  0  0  0  0  0  0  0  0  0  0
  183.1720  179.2890  140.7660 C   0  0  0  0  0  3  0  0  0  0  0  0
  190.5460  177.9790  141.8340 N   0  0  2  0  0  0  0  0  0  0  0  0
  184.0490  179.0510  141.8630 C   0  0  0  0  0  3  0  0  0  0  0  0
  189.5280  178.2200  144.0760 C   0  0  0  0  0  2  0  0  0  0  0  0
  190.5160  177.3270  144.8390 C   0  0  1  0  0  3  0  0  0  0  0  0
  187.8180  177.6040  136.3320 C   0  0  0  0  0  3  0  0  0  0  0  0
  187.9090  177.7170  137.7240 C   0  0  0  0  0  0  0  0  0  0  0  0
  185.6090  178.4190  138.0870 N   0  0  0  0  0  0  0  0  0  0  0  0
  188.1310  178.3750  141.9830 C   0  0  2  0  0  3  0  0  0  0  0  0
  186.5330  178.0760  142.9030 S   0  0  0  0  0  0  0  0  0  0  0  0
  182.6820  179.3270  138.2860 C   0  0  0  0  0  1  0  0  0  0  0  0
  186.9290  178.1650  139.8140 C   0  0  0  0  0  0  0  0  0  0  0  0
  184.9310  178.7000  139.2350 C   0  0  0  0  0  0  0  0  0  0  0  0
  189.8440  176.5220  145.8590 N   0  0  0  0  0  2  0  0  0  0  0  0
  189.7260  177.2770  147.1060 C   0  0  0  0  0  2  0  0  0  0  0  0
  188.3220  177.1660  147.6890 C   0  0  0  0  0  3  0  0  0  0  0  0
  188.1680  178.0420  148.9190 C   0  0  0  0  0  1  0  0  0  0  0  0
  187.2720  177.5220  146.6550 C   0  0  0  0  0  1  0  0  0  0  0  0
  1 19  1  0  0  0  0
  3 11  1  0  0  0  0
  4  3  2  0  0  0  0
  4 20  1  0  0  0  0
  5  6  1  0  0  0  0
  6 17  2  0  0  0  0
  6 24  1  0  0  0  0
  7 18  1  1  0  0  0
  9 15  2  0  0  0  0
 10  1  1  0  0  0  0
 11 13  2  0  0  0  0
 12  2  2  0  0  0  0
 12  8  1  0  0  0  0
 13 12  1  0  0  0  0
 14 26  1  0  0  0  0
 15 17  1  0  0  0  0
 16  8  1  6  0  0  0
 16 10  1  0  0  0  0
 16  7  1  0  0  0  0
 18 19  1  0  0  0  0
 19 28  1  1  0  0  0
 20 21  2  0  0  0  0
 21 13  1  0  0  0  0
 21 14  1  0  0  0  0
 22 14  1  0  0  0  0
 22 27  2  0  0  0  0
 23  2  1  6  0  0  0
 23  7  1  0  0  0  0
 23 24  1  0  0  0  0
 25  9  1  0  0  0  0
 26  5  2  0  0  0  0
 26  2  1  0  0  0  0
 27  9  1  0  0  0  0
 27  5  1  0  0  0  0
 28 29  1  0  0  0  0
 29 30  1  0  0  0  0
 30 31  1  0  0  0  0
 32 30  1  0  0  0  0
M  END
>  <MODEL>
9

>  <REMARK>
 VINA RESULT:      -8.8      2.351      7.702
  Name = 
  3 active torsions:
  status: ('A' for Active; 'I' for Inactive)
    1  A    between atoms: C_1  and  C_10
    2  A    between atoms: C_10  and  N_19
    3  A    between atoms: N_19  and  C_24
                            x       y       z     vdW  Elec       q    Type
                         _______ _______ _______ _____ _____    ______ ____

>  <TORSDO>
F 3

$$$$
