=
 OpenBabel10272415253D

 34 39  0  0  1  0  0  0  0  0999 V2000
  187.7360  177.5210  144.1590 C   0  0  0  0  0  0  0  0  0  0  0  0
  185.5920  178.4210  145.7390 C   0  0  0  0  0  3  0  0  0  0  0  0
  186.4820  177.7660  143.5900 C   0  0  0  0  0  3  0  0  0  0  0  0
  186.8320  178.1820  146.3300 C   0  0  0  0  0  0  0  0  0  0  0  0
  188.2320  178.1600  148.3060 C   0  0  0  0  0  3  0  0  0  0  0  0
  186.9950  178.3950  147.7020 C   0  0  0  0  0  3  0  0  0  0  0  0
  185.4020  178.2150  144.3640 C   0  0  0  0  0  0  0  0  0  0  0  0
  189.1570  177.4980  146.1700 C   0  0  0  0  0  3  0  0  0  0  0  0
  187.9200  177.7290  145.5450 C   0  0  0  0  0  0  0  0  0  0  0  0
  189.3110  177.7120  147.5410 C   0  0  0  0  0  3  0  0  0  0  0  0
  181.7230  179.0180  143.9420 C   0  0  0  0  0  3  0  0  0  0  0  0
  183.9300  178.4220  142.3460 C   0  0  0  0  0  3  0  0  0  0  0  0
  180.2370  179.2710  141.9710 C   0  0  0  0  0  1  0  0  0  0  0  0
  181.5760  178.9680  142.5540 C   0  0  0  0  0  0  0  0  0  0  0  0
  182.6840  178.6480  141.7420 C   0  0  0  0  0  0  0  0  0  0  0  0
  184.0820  178.4710  143.7400 C   0  0  0  0  0  0  0  0  0  0  0  0
  182.9630  178.7690  144.5310 C   0  0  0  0  0  3  0  0  0  0  0  0
  182.5690  177.2320  139.7520 N   0  0  2  0  0  0  0  0  0  0  0  0
  183.4290  177.1500  138.5560 C   0  0  2  0  0  3  0  0  0  0  0  0
  182.5770  178.6260  140.2410 C   0  0  2  0  0  3  0  0  0  0  0  0
  183.7860  178.0780  139.6230 C   0  0  1  0  0  3  0  0  0  0  0  0
  182.7850  177.8810  137.3870 C   0  0  0  0  0  2  0  0  0  0  0  0
  183.2420  177.3340  136.1890 O   0  0  0  0  0  1  0  0  0  0  0  0
  189.2300  178.1000  142.1800 C   0  0  2  0  0  3  0  0  0  0  0  0
  190.2520  177.5960  141.3540 O   0  0  0  0  0  0  0  0  0  0  0  0
  191.4050  177.4750  142.1510 C   0  0  1  0  0  3  0  0  0  0  0  0
  191.2320  176.3060  143.1170 C   0  0  0  0  0  2  0  0  0  0  0  0
  190.0540  176.5970  144.0380 C   0  0  0  0  0  2  0  0  0  0  0  0
  188.8290  177.0460  143.2360 C   0  0  1  0  0  3  0  0  0  0  0  0
  187.1750  178.7470  140.6800 N   0  0  0  0  0  0  0  0  0  0  0  0
  188.0800  178.4610  141.3410 C   0  0  0  0  0  0  0  0  0  0  0  0
  192.5130  177.2470  141.3350 O   0  0  0  0  0  0  0  0  0  0  0  0
  192.0100  177.2850  140.0340 C   0  0  0  0  0  2  0  0  0  0  0  0
  193.0900  176.8590  139.0620 C   0  0  0  0  0  1  0  0  0  0  0  0
  1  9  1  0  0  0  0
  2  4  1  0  0  0  0
  3  1  2  0  0  0  0
  3  7  1  0  0  0  0
  4  6  1  0  0  0  0
  6  5  2  0  0  0  0
  7  2  2  0  0  0  0
  8 10  2  0  0  0  0
  9  8  1  0  0  0  0
  9  4  2  0  0  0  0
 10  5  1  0  0  0  0
 11 17  1  0  0  0  0
 12 16  1  0  0  0  0
 13 14  1  0  0  0  0
 14 11  2  0  0  0  0
 15 12  2  0  0  0  0
 15 14  1  0  0  0  0
 16  7  1  0  0  0  0
 16 17  2  0  0  0  0
 18 20  1  0  0  0  0
 19 21  1  0  0  0  0
 19 18  1  0  0  0  0
 20 15  1  0  0  0  0
 21 18  1  0  0  0  0
 21 20  1  0  0  0  0
 22 19  1  0  0  0  0
 23 22  1  0  0  0  0
 24 29  1  0  0  0  0
 25 26  1  0  0  0  0
 25 24  1  0  0  0  0
 26 27  1  0  0  0  0
 27 28  1  0  0  0  0
 29 28  1  0  0  0  0
 29  1  1  0  0  0  0
 30 31  3  0  0  0  0
 31 24  1  0  0  0  0
 32 26  1  0  0  0  0
 33 32  1  0  0  0  0
 34 33  1  0  0  0  0
M  END
>  <MODEL>
1

>  <REMARK>
 VINA RESULT:     -10.6      0.000      0.000
  Name = 
  7 active torsions:
  status: ('A' for Active; 'I' for Inactive)
    1  A    between atoms: C_1  and  C_34
    2  A    between atoms: C_2  and  C_32
    3  A    between atoms: O_3  and  C_13
    4  A    between atoms: O_3  and  C_25
    5  A    between atoms: C_11  and  C_15
    6  A    between atoms: C_18  and  C_30
    7  A    between atoms: C_26  and  C_28
                            x       y       z     vdW  Elec       q    Type
                         _______ _______ _______ _____ _____    ______ ____

>  <TORSDO>
F 7

$$$$
=
 OpenBabel10272415253D

 34 39  0  0  1  0  0  0  0  0999 V2000
  188.1750  177.9120  143.1270 C   0  0  0  0  0  0  0  0  0  0  0  0
  186.2540  178.0430  145.1740 C   0  0  0  0  0  3  0  0  0  0  0  0
  186.8240  178.1130  142.8270 C   0  0  0  0  0  3  0  0  0  0  0  0
  187.5940  177.8410  145.4990 C   0  0  0  0  0  0  0  0  0  0  0  0
  189.3070  177.5040  147.1780 C   0  0  0  0  0  3  0  0  0  0  0  0
  187.9670  177.7060  146.8390 C   0  0  0  0  0  3  0  0  0  0  0  0
  185.8530  178.1810  143.8370 C   0  0  0  0  0  0  0  0  0  0  0  0
  189.9150  177.5680  144.8350 C   0  0  0  0  0  3  0  0  0  0  0  0
  188.5720  177.7730  144.4770 C   0  0  0  0  0  0  0  0  0  0  0  0
  190.2800  177.4340  146.1770 C   0  0  0  0  0  3  0  0  0  0  0  0
  182.1440  178.8780  144.1800 C   0  0  0  0  0  3  0  0  0  0  0  0
  183.9930  178.3380  142.1640 C   0  0  0  0  0  3  0  0  0  0  0  0
  180.2790  179.0810  142.5560 C   0  0  0  0  0  1  0  0  0  0  0  0
  181.7170  178.8180  142.8510 C   0  0  0  0  0  0  0  0  0  0  0  0
  182.6440  178.5270  141.8280 C   0  0  0  0  0  0  0  0  0  0  0  0
  184.4260  178.3970  143.4970 C   0  0  0  0  0  0  0  0  0  0  0  0
  183.4850  178.6650  144.5010 C   0  0  0  0  0  3  0  0  0  0  0  0
  182.8800  177.3620  139.6910 N   0  0  2  0  0  0  0  0  0  0  0  0
  183.3490  177.8220  138.3710 C   0  0  2  0  0  3  0  0  0  0  0  0
  182.2320  178.4960  140.3810 C   0  0  2  0  0  3  0  0  0  0  0  0
  183.3670  178.7530  139.4930 C   0  0  1  0  0  3  0  0  0  0  0  0
  182.1660  178.0940  137.4530 C   0  0  0  0  0  2  0  0  0  0  0  0
  182.5310  177.8280  136.1340 O   0  0  0  0  0  1  0  0  0  0  0  0
  189.4280  176.4230  141.4840 C   0  0  2  0  0  3  0  0  0  0  0  0
  190.3290  176.4470  140.4020 O   0  0  0  0  0  0  0  0  0  0  0  0
  189.6520  177.0280  139.3140 C   0  0  1  0  0  3  0  0  0  0  0  0
  189.4840  178.5250  139.5630 C   0  0  0  0  0  2  0  0  0  0  0  0
  188.6280  178.7240  140.8080 C   0  0  0  0  0  2  0  0  0  0  0  0
  189.1370  177.8610  141.9670 C   0  0  1  0  0  3  0  0  0  0  0  0
  190.4670  174.9820  143.4160 N   0  0  0  0  0  0  0  0  0  0  0  0
  190.0090  175.6180  142.5640 C   0  0  0  0  0  0  0  0  0  0  0  0
  190.3900  176.8290  138.1470 O   0  0  0  0  0  0  0  0  0  0  0  0
  189.4650  176.9820  137.1130 C   0  0  0  0  0  2  0  0  0  0  0  0
  188.4240  175.8860  137.2000 C   0  0  0  0  0  1  0  0  0  0  0  0
  1  9  1  0  0  0  0
  2  4  1  0  0  0  0
  3  1  2  0  0  0  0
  3  7  1  0  0  0  0
  4  6  1  0  0  0  0
  6  5  2  0  0  0  0
  7  2  2  0  0  0  0
  8 10  2  0  0  0  0
  9  8  1  0  0  0  0
  9  4  2  0  0  0  0
 10  5  1  0  0  0  0
 11 17  1  0  0  0  0
 12 16  1  0  0  0  0
 13 14  1  0  0  0  0
 14 11  2  0  0  0  0
 15 12  2  0  0  0  0
 15 14  1  0  0  0  0
 16  7  1  0  0  0  0
 16 17  2  0  0  0  0
 18 20  1  0  0  0  0
 19 21  1  0  0  0  0
 19 18  1  0  0  0  0
 20 15  1  0  0  0  0
 21 18  1  0  0  0  0
 21 20  1  0  0  0  0
 22 19  1  0  0  0  0
 23 22  1  0  0  0  0
 24 29  1  0  0  0  0
 24 31  1  0  0  0  0
 25 24  1  0  0  0  0
 26 27  1  0  0  0  0
 26 25  1  0  0  0  0
 27 28  1  0  0  0  0
 28 29  1  0  0  0  0
 29  1  1  0  0  0  0
 31 30  3  0  0  0  0
 32 26  1  0  0  0  0
 33 34  1  0  0  0  0
 33 32  1  0  0  0  0
M  END
>  <MODEL>
2

>  <REMARK>
 VINA RESULT:      -9.9      1.833      2.298
  Name = 
  7 active torsions:
  status: ('A' for Active; 'I' for Inactive)
    1  A    between atoms: C_1  and  C_34
    2  A    between atoms: C_2  and  C_32
    3  A    between atoms: O_3  and  C_13
    4  A    between atoms: O_3  and  C_25
    5  A    between atoms: C_11  and  C_15
    6  A    between atoms: C_18  and  C_30
    7  A    between atoms: C_26  and  C_28
                            x       y       z     vdW  Elec       q    Type
                         _______ _______ _______ _____ _____    ______ ____

>  <TORSDO>
F 7

$$$$
=
 OpenBabel10272415253D

 34 39  0  0  1  0  0  0  0  0999 V2000
  185.3650  178.5220  139.1730 C   0  0  0  0  0  0  0  0  0  0  0  0
  187.5880  178.3180  140.8810 C   0  0  0  0  0  3  0  0  0  0  0  0
  185.2020  178.5240  140.5620 C   0  0  0  0  0  3  0  0  0  0  0  0
  187.7770  178.3140  139.4990 C   0  0  0  0  0  0  0  0  0  0  0  0
  189.2730  178.2030  137.5980 C   0  0  0  0  0  3  0  0  0  0  0  0
  189.0700  178.2090  138.9800 C   0  0  0  0  0  3  0  0  0  0  0  0
  186.3010  178.4230  141.4280 C   0  0  0  0  0  0  0  0  0  0  0  0
  186.8870  178.4080  137.2410 C   0  0  0  0  0  3  0  0  0  0  0  0
  186.6650  178.4150  138.6280 C   0  0  0  0  0  0  0  0  0  0  0  0
  188.1830  178.3020  136.7290 C   0  0  0  0  0  3  0  0  0  0  0  0
  184.7290  178.9140  144.8410 C   0  0  0  0  0  3  0  0  0  0  0  0
  187.1080  177.9460  143.7530 C   0  0  0  0  0  3  0  0  0  0  0  0
  185.4700  178.4230  147.1580 C   0  0  0  0  0  1  0  0  0  0  0  0
  185.7290  178.4320  145.6890 C   0  0  0  0  0  0  0  0  0  0  0  0
  186.9420  177.9590  145.1460 C   0  0  0  0  0  0  0  0  0  0  0  0
  186.1060  178.4290  142.8970 C   0  0  0  0  0  0  0  0  0  0  0  0
  184.9160  178.9160  143.4580 C   0  0  0  0  0  3  0  0  0  0  0  0
  189.2440  178.2220  145.9260 N   0  0  2  0  0  0  0  0  0  0  0  0
  190.4150  177.3290  145.8450 C   0  0  2  0  0  3  0  0  0  0  0  0
  188.0260  177.3920  146.0230 C   0  0  2  0  0  3  0  0  0  0  0  0
  189.1610  176.9100  145.2330 C   0  0  1  0  0  3  0  0  0  0  0  0
  190.6390  176.6240  147.1750 C   0  0  0  0  0  2  0  0  0  0  0  0
  191.9490  176.8360  147.6000 O   0  0  0  0  0  1  0  0  0  0  0  0
  183.2950  177.3350  138.2820 C   0  0  2  0  0  3  0  0  0  0  0  0
  182.1480  177.5150  137.4870 O   0  0  0  0  0  0  0  0  0  0  0  0
  181.3050  178.4070  138.1740 C   0  0  1  0  0  3  0  0  0  0  0  0
  181.8990  179.8120  138.1160 C   0  0  0  0  0  2  0  0  0  0  0  0
  183.2490  179.8040  138.8230 C   0  0  0  0  0  2  0  0  0  0  0  0
  184.1180  178.6410  138.3340 C   0  0  1  0  0  3  0  0  0  0  0  0
  184.7210  175.3740  137.2770 N   0  0  0  0  0  0  0  0  0  0  0  0
  184.0920  176.2380  137.7210 C   0  0  0  0  0  0  0  0  0  0  0  0
  180.0430  178.4090  137.5770 O   0  0  0  0  0  0  0  0  0  0  0  0
  180.2330  177.7810  136.3450 C   0  0  0  0  0  2  0  0  0  0  0  0
  180.0010  178.7780  135.2290 C   0  0  0  0  0  1  0  0  0  0  0  0
  1  3  1  0  0  0  0
  2  7  1  0  0  0  0
  3  7  2  0  0  0  0
  4  2  2  0  0  0  0
  5  6  2  0  0  0  0
  6  4  1  0  0  0  0
  7 16  1  0  0  0  0
  8  9  1  0  0  0  0
  9  1  2  0  0  0  0
  9  4  1  0  0  0  0
 10  8  2  0  0  0  0
 10  5  1  0  0  0  0
 11 14  1  0  0  0  0
 12 15  1  0  0  0  0
 14 13  1  0  0  0  0
 15 14  2  0  0  0  0
 15 20  1  0  0  0  0
 16 17  1  0  0  0  0
 16 12  2  0  0  0  0
 17 11  2  0  0  0  0
 18 20  1  0  0  0  0
 19 18  1  0  0  0  0
 19 22  1  0  0  0  0
 21 19  1  0  0  0  0
 21 18  1  0  0  0  0
 21 20  1  0  0  0  0
 22 23  1  0  0  0  0
 24 29  1  0  0  0  0
 25 26  1  0  0  0  0
 25 24  1  0  0  0  0
 27 26  1  0  0  0  0
 27 28  1  0  0  0  0
 29 28  1  0  0  0  0
 29  1  1  0  0  0  0
 30 31  3  0  0  0  0
 31 24  1  0  0  0  0
 32 26  1  0  0  0  0
 33 32  1  0  0  0  0
 34 33  1  0  0  0  0
M  END
>  <MODEL>
3

>  <REMARK>
 VINA RESULT:      -9.8      2.812      8.546
  Name = 
  7 active torsions:
  status: ('A' for Active; 'I' for Inactive)
    1  A    between atoms: C_1  and  C_34
    2  A    between atoms: C_2  and  C_32
    3  A    between atoms: O_3  and  C_13
    4  A    between atoms: O_3  and  C_25
    5  A    between atoms: C_11  and  C_15
    6  A    between atoms: C_18  and  C_30
    7  A    between atoms: C_26  and  C_28
                            x       y       z     vdW  Elec       q    Type
                         _______ _______ _______ _____ _____    ______ ____

>  <TORSDO>
F 7

$$$$
=
 OpenBabel10272415253D

 34 39  0  0  1  0  0  0  0  0999 V2000
  187.4370  177.5690  144.0690 C   0  0  0  0  0  0  0  0  0  0  0  0
  185.5710  178.5430  142.2060 C   0  0  0  0  0  3  0  0  0  0  0  0
  187.7400  177.6010  142.7040 C   0  0  0  0  0  3  0  0  0  0  0  0
  185.2450  178.5220  143.5610 C   0  0  0  0  0  0  0  0  0  0  0  0
  183.6550  178.9690  145.3330 C   0  0  0  0  0  3  0  0  0  0  0  0
  183.9940  178.9860  143.9780 C   0  0  0  0  0  3  0  0  0  0  0  0
  186.8200  178.0840  141.7620 C   0  0  0  0  0  0  0  0  0  0  0  0
  185.8190  178.0240  145.8680 C   0  0  0  0  0  3  0  0  0  0  0  0
  186.1760  178.0330  144.5100 C   0  0  0  0  0  0  0  0  0  0  0  0
  184.5660  178.4890  146.2770 C   0  0  0  0  0  3  0  0  0  0  0  0
  186.5010  178.3990  137.9980 C   0  0  0  0  0  3  0  0  0  0  0  0
  188.4800  177.8810  139.8940 C   0  0  0  0  0  3  0  0  0  0  0  0
  188.1160  178.2470  136.1210 C   0  0  0  0  0  1  0  0  0  0  0  0
  187.8140  178.1710  137.5790 C   0  0  0  0  0  0  0  0  0  0  0  0
  188.8160  177.8900  138.5320 C   0  0  0  0  0  0  0  0  0  0  0  0
  187.1620  178.1100  140.3190 C   0  0  0  0  0  0  0  0  0  0  0  0
  186.1760  178.3660  139.3550 C   0  0  0  0  0  3  0  0  0  0  0  0
  190.4890  176.2550  137.8200 N   0  0  2  0  0  0  0  0  0  0  0  0
  191.7860  175.8630  138.4020 C   0  0  2  0  0  3  0  0  0  0  0  0
  190.2500  177.6810  138.1240 C   0  0  2  0  0  3  0  0  0  0  0  0
  190.9700  176.8530  139.0940 C   0  0  1  0  0  3  0  0  0  0  0  0
  192.9290  176.5260  137.6490 C   0  0  0  0  0  2  0  0  0  0  0  0
  194.1140  175.8350  137.8990 O   0  0  0  0  0  1  0  0  0  0  0  0
  189.9170  177.0900  144.3880 C   0  0  2  0  0  3  0  0  0  0  0  0
  190.8590  176.5810  145.3030 O   0  0  0  0  0  0  0  0  0  0  0  0
  190.9260  177.4910  146.3750 C   0  0  1  0  0  3  0  0  0  0  0  0
  189.6510  177.3860  147.2080 C   0  0  0  0  0  2  0  0  0  0  0  0
  188.4610  177.7740  146.3380 C   0  0  0  0  0  2  0  0  0  0  0  0
  188.4990  177.0360  144.9970 C   0  0  1  0  0  3  0  0  0  0  0  0
  190.0390  175.6800  142.1780 N   0  0  0  0  0  0  0  0  0  0  0  0
  189.9860  176.3010  143.1530 C   0  0  0  0  0  0  0  0  0  0  0  0
  192.0310  177.1890  147.1720 O   0  0  0  0  0  0  0  0  0  0  0  0
  192.0540  175.7950  147.2340 C   0  0  0  0  0  2  0  0  0  0  0  0
  192.8110  175.3570  148.4690 C   0  0  0  0  0  1  0  0  0  0  0  0
  1  9  1  0  0  0  0
  1 29  1  0  0  0  0
  2  4  1  0  0  0  0
  3  1  2  0  0  0  0
  4  6  2  0  0  0  0
  4  9  1  0  0  0  0
  5 10  2  0  0  0  0
  6  5  1  0  0  0  0
  7  2  2  0  0  0  0
  7  3  1  0  0  0  0
  8 10  1  0  0  0  0
  9  8  2  0  0  0  0
 11 17  1  0  0  0  0
 12 16  1  0  0  0  0
 13 14  1  0  0  0  0
 14 11  2  0  0  0  0
 14 15  1  0  0  0  0
 15 12  2  0  0  0  0
 16  7  1  0  0  0  0
 17 16  2  0  0  0  0
 18 20  1  0  0  0  0
 18 19  1  0  0  0  0
 18 21  1  0  0  0  0
 19 21  1  0  0  0  0
 20 15  1  0  0  0  0
 20 21  1  0  0  0  0
 22 23  1  0  0  0  0
 22 19  1  0  0  0  0
 24 29  1  0  0  0  0
 24 25  1  0  0  0  0
 25 26  1  0  0  0  0
 26 32  1  0  0  0  0
 26 27  1  0  0  0  0
 28 27  1  0  0  0  0
 29 28  1  0  0  0  0
 30 31  3  0  0  0  0
 31 24  1  0  0  0  0
 32 33  1  0  0  0  0
 33 34  1  0  0  0  0
M  END
>  <MODEL>
4

>  <REMARK>
 VINA RESULT:      -9.7      3.237      6.068
  Name = 
  7 active torsions:
  status: ('A' for Active; 'I' for Inactive)
    1  A    between atoms: C_1  and  C_34
    2  A    between atoms: C_2  and  C_32
    3  A    between atoms: O_3  and  C_13
    4  A    between atoms: O_3  and  C_25
    5  A    between atoms: C_11  and  C_15
    6  A    between atoms: C_18  and  C_30
    7  A    between atoms: C_26  and  C_28
                            x       y       z     vdW  Elec       q    Type
                         _______ _______ _______ _____ _____    ______ ____

>  <TORSDO>
F 7

$$$$
=
 OpenBabel10272415253D

 34 39  0  0  1  0  0  0  0  0999 V2000
  183.3420  177.9690  141.1720 C   0  0  0  0  0  0  0  0  0  0  0  0
  183.8140  178.7040  143.8440 C   0  0  0  0  0  3  0  0  0  0  0  0
  184.6080  177.8080  141.7440 C   0  0  0  0  0  3  0  0  0  0  0  0
  182.5430  178.8740  143.2960 C   0  0  0  0  0  0  0  0  0  0  0  0
  180.2400  179.5820  143.5450 C   0  0  0  0  0  3  0  0  0  0  0  0
  181.5180  179.4070  144.0820 C   0  0  0  0  0  3  0  0  0  0  0  0
  184.8590  178.1700  143.0760 C   0  0  0  0  0  0  0  0  0  0  0  0
  181.0020  178.6910  141.4270 C   0  0  0  0  0  3  0  0  0  0  0  0
  182.2930  178.5070  141.9510 C   0  0  0  0  0  0  0  0  0  0  0  0
  179.9830  179.2250  142.2190 C   0  0  0  0  0  3  0  0  0  0  0  0
  187.6400  177.6550  145.6000 C   0  0  0  0  0  3  0  0  0  0  0  0
  187.3470  177.9710  142.8450 C   0  0  0  0  0  3  0  0  0  0  0  0
  190.1020  177.4140  145.4150 C   0  0  0  0  0  1  0  0  0  0  0  0
  188.7710  177.6370  144.7800 C   0  0  0  0  0  0  0  0  0  0  0  0
  188.6320  177.8150  143.3880 C   0  0  0  0  0  0  0  0  0  0  0  0
  186.2090  177.9900  143.6640 C   0  0  0  0  0  0  0  0  0  0  0  0
  186.3700  177.8340  145.0480 C   0  0  0  0  0  3  0  0  0  0  0  0
  189.3770  177.8140  141.0590 N   0  0  2  0  0  0  0  0  0  0  0  0
  190.1620  176.8370  140.2820 C   0  0  2  0  0  3  0  0  0  0  0  0
  189.8210  177.7590  142.4670 C   0  0  2  0  0  3  0  0  0  0  0  0
  189.8250  176.5320  141.6670 C   0  0  1  0  0  3  0  0  0  0  0  0
  191.6080  177.2940  140.1580 C   0  0  0  0  0  2  0  0  0  0  0  0
  192.1150  176.9030  138.9200 O   0  0  0  0  0  1  0  0  0  0  0  0
  184.2350  178.1620  138.7950 C   0  0  2  0  0  3  0  0  0  0  0  0
  184.0270  177.7240  137.4730 O   0  0  0  0  0  0  0  0  0  0  0  0
  184.3260  176.3490  137.4430 C   0  0  1  0  0  3  0  0  0  0  0  0
  183.2250  175.5750  138.1640 C   0  0  0  0  0  2  0  0  0  0  0  0
  183.1900  176.0140  139.6230 C   0  0  0  0  0  2  0  0  0  0  0  0
  183.1780  177.5420  139.7350 C   0  0  1  0  0  3  0  0  0  0  0  0
  184.1040  180.7830  138.8450 N   0  0  0  0  0  0  0  0  0  0  0  0
  184.1620  179.6280  138.8230 C   0  0  0  0  0  0  0  0  0  0  0  0
  184.4070  175.9200  136.1170 O   0  0  0  0  0  0  0  0  0  0  0  0
  185.7390  176.1280  135.7580 C   0  0  0  0  0  2  0  0  0  0  0  0
  186.6460  175.5460  136.8230 C   0  0  0  0  0  1  0  0  0  0  0  0
  1  3  2  0  0  0  0
  1  9  1  0  0  0  0
  3  7  1  0  0  0  0
  4  2  1  0  0  0  0
  4  6  1  0  0  0  0
  5  6  2  0  0  0  0
  7 16  1  0  0  0  0
  7  2  2  0  0  0  0
  8  9  1  0  0  0  0
  8 10  2  0  0  0  0
  9  4  2  0  0  0  0
 10  5  1  0  0  0  0
 12 15  2  0  0  0  0
 12 16  1  0  0  0  0
 14 13  1  0  0  0  0
 14 11  2  0  0  0  0
 15 14  1  0  0  0  0
 16 17  2  0  0  0  0
 17 11  1  0  0  0  0
 18 21  1  0  0  0  0
 18 20  1  0  0  0  0
 19 18  1  0  0  0  0
 19 21  1  0  0  0  0
 20 15  1  0  0  0  0
 21 20  1  0  0  0  0
 22 19  1  0  0  0  0
 23 22  1  0  0  0  0
 24 31  1  0  0  0  0
 24 29  1  0  0  0  0
 25 24  1  0  0  0  0
 26 25  1  0  0  0  0
 26 27  1  0  0  0  0
 27 28  1  0  0  0  0
 28 29  1  0  0  0  0
 29  1  1  0  0  0  0
 31 30  3  0  0  0  0
 32 26  1  0  0  0  0
 33 32  1  0  0  0  0
 33 34  1  0  0  0  0
M  END
>  <MODEL>
5

>  <REMARK>
 VINA RESULT:      -9.6      1.709      7.100
  Name = 
  7 active torsions:
  status: ('A' for Active; 'I' for Inactive)
    1  A    between atoms: C_1  and  C_34
    2  A    between atoms: C_2  and  C_32
    3  A    between atoms: O_3  and  C_13
    4  A    between atoms: O_3  and  C_25
    5  A    between atoms: C_11  and  C_15
    6  A    between atoms: C_18  and  C_30
    7  A    between atoms: C_26  and  C_28
                            x       y       z     vdW  Elec       q    Type
                         _______ _______ _______ _____ _____    ______ ____

>  <TORSDO>
F 7

$$$$
=
 OpenBabel10272415253D

 34 39  0  0  1  0  0  0  0  0999 V2000
  187.4140  177.6630  144.1630 C   0  0  0  0  0  0  0  0  0  0  0  0
  185.8620  178.5990  142.0140 C   0  0  0  0  0  3  0  0  0  0  0  0
  187.9150  177.6430  142.8580 C   0  0  0  0  0  3  0  0  0  0  0  0
  185.3390  178.6290  143.3070 C   0  0  0  0  0  0  0  0  0  0  0  0
  183.5150  179.1610  144.8090 C   0  0  0  0  0  3  0  0  0  0  0  0
  184.0500  179.1250  143.5190 C   0  0  0  0  0  3  0  0  0  0  0  0
  187.1530  178.1060  141.7750 C   0  0  0  0  0  0  0  0  0  0  0  0
  185.5580  178.2040  145.6880 C   0  0  0  0  0  3  0  0  0  0  0  0
  186.1110  178.1610  144.3980 C   0  0  0  0  0  0  0  0  0  0  0  0
  184.2680  178.7000  145.8920 C   0  0  0  0  0  3  0  0  0  0  0  0
  189.6100  178.0390  138.8900 C   0  0  0  0  0  3  0  0  0  0  0  0
  186.8490  178.0530  139.2870 C   0  0  0  0  0  3  0  0  0  0  0  0
  189.3570  177.9460  136.4230 C   0  0  0  0  0  1  0  0  0  0  0  0
  188.7540  178.0130  137.7850 C   0  0  0  0  0  0  0  0  0  0  0  0
  187.3570  178.0390  137.9790 C   0  0  0  0  0  0  0  0  0  0  0  0
  187.7050  178.0780  140.3990 C   0  0  0  0  0  0  0  0  0  0  0  0
  189.0910  178.0740  140.1850 C   0  0  0  0  0  3  0  0  0  0  0  0
  185.0480  177.6230  137.2920 N   0  0  2  0  0  0  0  0  0  0  0  0
  184.4640  176.6370  136.3640 C   0  0  2  0  0  3  0  0  0  0  0  0
  186.4020  177.9700  136.8170 C   0  0  2  0  0  3  0  0  0  0  0  0
  185.8990  176.6100  136.6140 C   0  0  1  0  0  3  0  0  0  0  0  0
  184.1540  177.2880  135.0240 C   0  0  0  0  0  2  0  0  0  0  0  0
  182.7750  177.2940  134.8180 O   0  0  0  0  0  1  0  0  0  0  0  0
  189.8010  177.0780  144.8300 C   0  0  2  0  0  3  0  0  0  0  0  0
  190.5880  176.5920  145.8910 O   0  0  0  0  0  0  0  0  0  0  0  0
  190.5800  177.5770  146.8960 C   0  0  1  0  0  3  0  0  0  0  0  0
  189.2080  177.6070  147.5650 C   0  0  0  0  0  2  0  0  0  0  0  0
  188.1620  177.9900  146.5250 C   0  0  0  0  0  2  0  0  0  0  0  0
  188.3180  177.1480  145.2550 C   0  0  1  0  0  3  0  0  0  0  0  0
  190.1050  175.4950  142.7590 N   0  0  0  0  0  0  0  0  0  0  0  0
  189.9710  176.1920  143.6720 C   0  0  0  0  0  0  0  0  0  0  0  0
  191.5560  177.2800  147.8470 O   0  0  0  0  0  0  0  0  0  0  0  0
  191.9850  175.9910  147.5240 C   0  0  0  0  0  2  0  0  0  0  0  0
  193.1060  175.5840  148.4570 C   0  0  0  0  0  1  0  0  0  0  0  0
  1  9  1  0  0  0  0
  1 29  1  0  0  0  0
  2  4  1  0  0  0  0
  3  1  2  0  0  0  0
  4  6  2  0  0  0  0
  4  9  1  0  0  0  0
  5 10  2  0  0  0  0
  6  5  1  0  0  0  0
  7  2  2  0  0  0  0
  7  3  1  0  0  0  0
  8 10  1  0  0  0  0
  9  8  2  0  0  0  0
 11 17  1  0  0  0  0
 12 16  1  0  0  0  0
 13 14  1  0  0  0  0
 14 15  1  0  0  0  0
 14 11  2  0  0  0  0
 15 12  2  0  0  0  0
 16  7  1  0  0  0  0
 17 16  2  0  0  0  0
 19 21  1  0  0  0  0
 19 18  1  0  0  0  0
 20 18  1  0  0  0  0
 20 15  1  0  0  0  0
 21 20  1  0  0  0  0
 21 18  1  0  0  0  0
 22 19  1  0  0  0  0
 23 22  1  0  0  0  0
 24 29  1  0  0  0  0
 24 25  1  0  0  0  0
 25 26  1  0  0  0  0
 26 27  1  0  0  0  0
 26 32  1  0  0  0  0
 28 27  1  0  0  0  0
 29 28  1  0  0  0  0
 30 31  3  0  0  0  0
 31 24  1  0  0  0  0
 33 32  1  0  0  0  0
 33 34  1  0  0  0  0
M  END
>  <MODEL>
6

>  <REMARK>
 VINA RESULT:      -9.4      2.699      5.307
  Name = 
  7 active torsions:
  status: ('A' for Active; 'I' for Inactive)
    1  A    between atoms: C_1  and  C_34
    2  A    between atoms: C_2  and  C_32
    3  A    between atoms: O_3  and  C_13
    4  A    between atoms: O_3  and  C_25
    5  A    between atoms: C_11  and  C_15
    6  A    between atoms: C_18  and  C_30
    7  A    between atoms: C_26  and  C_28
                            x       y       z     vdW  Elec       q    Type
                         _______ _______ _______ _____ _____    ______ ____

>  <TORSDO>
F 7

$$$$
=
 OpenBabel10272415253D

 34 39  0  0  1  0  0  0  0  0999 V2000
  185.5010  178.5910  143.4130 C   0  0  0  0  0  0  0  0  0  0  0  0
  188.1150  177.6810  143.9050 C   0  0  0  0  0  3  0  0  0  0  0  0
  186.3770  178.3270  142.3550 C   0  0  0  0  0  3  0  0  0  0  0  0
  187.2610  177.9380  144.9770 C   0  0  0  0  0  0  0  0  0  0  0  0
  186.8690  177.9930  147.3660 C   0  0  0  0  0  3  0  0  0  0  0  0
  187.7140  177.7390  146.2840 C   0  0  0  0  0  3  0  0  0  0  0  0
  187.6840  177.8720  142.5840 C   0  0  0  0  0  0  0  0  0  0  0  0
  185.1050  178.6470  145.8430 C   0  0  0  0  0  3  0  0  0  0  0  0
  185.9420  178.3970  144.7420 C   0  0  0  0  0  0  0  0  0  0  0  0
  185.5660  178.4460  147.1460 C   0  0  0  0  0  3  0  0  0  0  0  0
  190.7710  176.9130  140.6050 C   0  0  0  0  0  3  0  0  0  0  0  0
  188.1520  177.7440  140.1250 C   0  0  0  0  0  3  0  0  0  0  0  0
  191.2670  176.7340  138.1810 C   0  0  0  0  0  1  0  0  0  0  0  0
  190.3250  177.0610  139.2890 C   0  0  0  0  0  0  0  0  0  0  0  0
  189.0070  177.5000  139.0400 C   0  0  0  0  0  0  0  0  0  0  0  0
  188.5960  177.5960  141.4480 C   0  0  0  0  0  0  0  0  0  0  0  0
  189.9160  177.1810  141.6750 C   0  0  0  0  0  3  0  0  0  0  0  0
  187.3310  178.5630  137.6120 N   0  0  2  0  0  0  0  0  0  0  0  0
  186.2850  177.9970  136.7400 C   0  0  2  0  0  3  0  0  0  0  0  0
  188.4760  177.6310  137.6370 C   0  0  2  0  0  3  0  0  0  0  0  0
  187.1190  177.0940  137.5230 C   0  0  1  0  0  3  0  0  0  0  0  0
  186.7300  178.0310  135.2860 C   0  0  0  0  0  2  0  0  0  0  0  0
  185.6660  177.6610  134.4650 O   0  0  0  0  0  1  0  0  0  0  0  0
  183.6660  178.6230  141.6490 C   0  0  2  0  0  3  0  0  0  0  0  0
  182.3690  179.1000  141.3790 O   0  0  0  0  0  0  0  0  0  0  0  0
  181.4910  178.4150  142.2390 C   0  0  1  0  0  3  0  0  0  0  0  0
  181.6780  178.9240  143.6660 C   0  0  0  0  0  2  0  0  0  0  0  0
  183.1030  178.6200  144.1130 C   0  0  0  0  0  2  0  0  0  0  0  0
  184.1170  179.0700  143.0560 C   0  0  1  0  0  3  0  0  0  0  0  0
  185.3010  179.5380  139.8100 N   0  0  0  0  0  0  0  0  0  0  0  0
  184.5800  179.1350  140.6210 C   0  0  0  0  0  0  0  0  0  0  0  0
  180.1740  178.6380  141.8330 O   0  0  0  0  0  0  0  0  0  0  0  0
  180.1180  178.1480  140.5270 C   0  0  0  0  0  2  0  0  0  0  0  0
  180.0070  176.6380  140.5590 C   0  0  0  0  0  1  0  0  0  0  0  0
  1  9  1  0  0  0  0
  2  4  1  0  0  0  0
  3  7  1  0  0  0  0
  3  1  2  0  0  0  0
  4  6  1  0  0  0  0
  6  5  2  0  0  0  0
  7  2  2  0  0  0  0
  8 10  2  0  0  0  0
  9  4  2  0  0  0  0
  9  8  1  0  0  0  0
 10  5  1  0  0  0  0
 11 17  1  0  0  0  0
 12 16  1  0  0  0  0
 13 14  1  0  0  0  0
 14 11  2  0  0  0  0
 15 14  1  0  0  0  0
 15 12  2  0  0  0  0
 16 17  2  0  0  0  0
 16  7  1  0  0  0  0
 18 20  1  0  0  0  0
 19 21  1  0  0  0  0
 19 18  1  0  0  0  0
 20 15  1  0  0  0  0
 21 18  1  0  0  0  0
 21 20  1  0  0  0  0
 22 19  1  0  0  0  0
 23 22  1  0  0  0  0
 24 29  1  0  0  0  0
 25 24  1  0  0  0  0
 25 26  1  0  0  0  0
 26 27  1  0  0  0  0
 27 28  1  0  0  0  0
 29  1  1  0  0  0  0
 29 28  1  0  0  0  0
 30 31  3  0  0  0  0
 31 24  1  0  0  0  0
 32 26  1  0  0  0  0
 33 34  1  0  0  0  0
 33 32  1  0  0  0  0
M  END
>  <MODEL>
7

>  <REMARK>
 VINA RESULT:      -9.3      2.735      6.753
  Name = 
  7 active torsions:
  status: ('A' for Active; 'I' for Inactive)
    1  A    between atoms: C_1  and  C_34
    2  A    between atoms: C_2  and  C_32
    3  A    between atoms: O_3  and  C_13
    4  A    between atoms: O_3  and  C_25
    5  A    between atoms: C_11  and  C_15
    6  A    between atoms: C_18  and  C_30
    7  A    between atoms: C_26  and  C_28
                            x       y       z     vdW  Elec       q    Type
                         _______ _______ _______ _____ _____    ______ ____

>  <TORSDO>
F 7

$$$$
=
 OpenBabel10272415253D

 34 39  0  0  1  0  0  0  0  0999 V2000
  186.8130  178.4600  140.9980 C   0  0  0  0  0  0  0  0  0  0  0  0
  184.8120  178.5180  142.9710 C   0  0  0  0  0  3  0  0  0  0  0  0
  187.1420  178.3540  142.3530 C   0  0  0  0  0  3  0  0  0  0  0  0
  184.4580  178.6260  141.6260 C   0  0  0  0  0  0  0  0  0  0  0  0
  182.7450  178.8700  139.9320 C   0  0  0  0  0  3  0  0  0  0  0  0
  183.1120  178.7610  141.2750 C   0  0  0  0  0  3  0  0  0  0  0  0
  186.1550  178.3820  143.3490 C   0  0  0  0  0  0  0  0  0  0  0  0
  185.0700  178.7090  139.2770 C   0  0  0  0  0  3  0  0  0  0  0  0
  185.4570  178.5980  140.6230 C   0  0  0  0  0  0  0  0  0  0  0  0
  183.7220  178.8440  138.9340 C   0  0  0  0  0  3  0  0  0  0  0  0
  186.0970  178.7690  147.1190 C   0  0  0  0  0  3  0  0  0  0  0  0
  187.6580  177.5320  145.1670 C   0  0  0  0  0  3  0  0  0  0  0  0
  187.5340  177.9180  148.9540 C   0  0  0  0  0  1  0  0  0  0  0  0
  187.2240  178.0370  147.5000 C   0  0  0  0  0  0  0  0  0  0  0  0
  188.0290  177.4250  146.5160 C   0  0  0  0  0  0  0  0  0  0  0  0
  186.5260  178.2660  144.7800 C   0  0  0  0  0  0  0  0  0  0  0  0
  185.7520  178.8860  145.7720 C   0  0  0  0  0  3  0  0  0  0  0  0
  190.3630  177.4670  147.2450 N   0  0  2  0  0  0  0  0  0  0  0  0
  191.5880  176.9140  146.6400 C   0  0  2  0  0  3  0  0  0  0  0  0
  189.2270  176.5930  146.8890 C   0  0  2  0  0  3  0  0  0  0  0  0
  190.3220  176.7680  145.9330 C   0  0  1  0  0  3  0  0  0  0  0  0
  191.9820  175.6160  147.3300 C   0  0  0  0  0  2  0  0  0  0  0  0
  193.1080  175.8330  148.1220 O   0  0  0  0  0  1  0  0  0  0  0  0
  189.0890  177.4640  140.4390 C   0  0  2  0  0  3  0  0  0  0  0  0
  190.1150  177.4660  139.4750 O   0  0  0  0  0  0  0  0  0  0  0  0
  189.5960  176.8530  138.3200 C   0  0  1  0  0  3  0  0  0  0  0  0
  188.5930  177.7930  137.6550 C   0  0  0  0  0  2  0  0  0  0  0  0
  187.4360  178.0380  138.6150 C   0  0  0  0  0  2  0  0  0  0  0  0
  187.9500  178.4130  140.0080 C   0  0  1  0  0  3  0  0  0  0  0  0
  190.0990  178.2050  142.7460 N   0  0  0  0  0  0  0  0  0  0  0  0
  189.6540  177.8780  141.7290 C   0  0  0  0  0  0  0  0  0  0  0  0
  190.6360  176.5760  137.4320 O   0  0  0  0  0  0  0  0  0  0  0  0
  191.6750  176.1100  138.2380 C   0  0  0  0  0  2  0  0  0  0  0  0
  193.0030  176.5380  137.6490 C   0  0  0  0  0  1  0  0  0  0  0  0
  1  3  1  0  0  0  0
  2  7  1  0  0  0  0
  3  7  2  0  0  0  0
  4  2  2  0  0  0  0
  5  6  2  0  0  0  0
  6  4  1  0  0  0  0
  7 16  1  0  0  0  0
  8  9  1  0  0  0  0
  9  1  2  0  0  0  0
  9  4  1  0  0  0  0
 10  8  2  0  0  0  0
 10  5  1  0  0  0  0
 11 14  1  0  0  0  0
 12 15  1  0  0  0  0
 14 13  1  0  0  0  0
 15 20  1  0  0  0  0
 15 14  2  0  0  0  0
 16 12  2  0  0  0  0
 16 17  1  0  0  0  0
 17 11  2  0  0  0  0
 19 18  1  0  0  0  0
 19 22  1  0  0  0  0
 20 18  1  0  0  0  0
 21 19  1  0  0  0  0
 21 20  1  0  0  0  0
 21 18  1  0  0  0  0
 22 23  1  0  0  0  0
 24 31  1  0  0  0  0
 25 24  1  0  0  0  0
 26 25  1  0  0  0  0
 27 26  1  0  0  0  0
 27 28  1  0  0  0  0
 28 29  1  0  0  0  0
 29 24  1  0  0  0  0
 29  1  1  0  0  0  0
 31 30  3  0  0  0  0
 32 33  1  0  0  0  0
 32 26  1  0  0  0  0
 34 33  1  0  0  0  0
M  END
>  <MODEL>
8

>  <REMARK>
 VINA RESULT:      -9.2      2.568      7.090
  Name = 
  7 active torsions:
  status: ('A' for Active; 'I' for Inactive)
    1  A    between atoms: C_1  and  C_34
    2  A    between atoms: C_2  and  C_32
    3  A    between atoms: O_3  and  C_13
    4  A    between atoms: O_3  and  C_25
    5  A    between atoms: C_11  and  C_15
    6  A    between atoms: C_18  and  C_30
    7  A    between atoms: C_26  and  C_28
                            x       y       z     vdW  Elec       q    Type
                         _______ _______ _______ _____ _____    ______ ____

>  <TORSDO>
F 7

$$$$
=
 OpenBabel10272415253D

 34 39  0  0  1  0  0  0  0  0999 V2000
  189.8310  177.2450  142.2040 C   0  0  0  0  0  0  0  0  0  0  0  0
  187.6640  178.0380  140.5990 C   0  0  0  0  0  3  0  0  0  0  0  0
  188.5860  177.5280  142.7740 C   0  0  0  0  0  3  0  0  0  0  0  0
  188.8960  177.7620  140.0070 C   0  0  0  0  0  0  0  0  0  0  0  0
  190.2670  177.6060  138.0170 C   0  0  0  0  0  3  0  0  0  0  0  0
  189.0380  177.8810  138.6220 C   0  0  0  0  0  3  0  0  0  0  0  0
  187.4950  177.9260  141.9870 C   0  0  0  0  0  0  0  0  0  0  0  0
  191.2230  177.0890  140.1790 C   0  0  0  0  0  3  0  0  0  0  0  0
  189.9950  177.3610  140.8050 C   0  0  0  0  0  0  0  0  0  0  0  0
  191.3580  177.2110  138.7940 C   0  0  0  0  0  3  0  0  0  0  0  0
  184.8380  178.6600  144.5880 C   0  0  0  0  0  3  0  0  0  0  0  0
  185.0300  178.3510  141.8230 C   0  0  0  0  0  3  0  0  0  0  0  0
  182.4040  179.1240  144.4700 C   0  0  0  0  0  1  0  0  0  0  0  0
  183.6920  178.7900  143.7990 C   0  0  0  0  0  0  0  0  0  0  0  0
  183.7790  178.6150  142.4010 C   0  0  0  0  0  0  0  0  0  0  0  0
  186.1830  178.2200  142.6120 C   0  0  0  0  0  0  0  0  0  0  0  0
  186.0720  178.3750  144.0010 C   0  0  0  0  0  3  0  0  0  0  0  0
  182.5540  177.7360  140.4770 N   0  0  2  0  0  0  0  0  0  0  0  0
  182.1750  178.3520  139.1910 C   0  0  2  0  0  3  0  0  0  0  0  0
  182.5770  178.7880  141.5130 C   0  0  2  0  0  3  0  0  0  0  0  0
  182.9640  179.1250  140.1420 C   0  0  1  0  0  3  0  0  0  0  0  0
  180.7150  178.7790  139.2160 C   0  0  0  0  0  2  0  0  0  0  0  0
  180.1230  178.4830  137.9890 O   0  0  0  0  0  1  0  0  0  0  0  0
  190.9160  177.5810  144.4830 C   0  0  2  0  0  3  0  0  0  0  0  0
  191.9680  177.1380  145.3080 O   0  0  0  0  0  0  0  0  0  0  0  0
  191.6720  175.8130  145.6760 C   0  0  1  0  0  3  0  0  0  0  0  0
  191.8650  174.8970  144.4710 C   0  0  0  0  0  2  0  0  0  0  0  0
  190.8860  175.3080  143.3780 C   0  0  0  0  0  2  0  0  0  0  0  0
  190.9350  176.8200  143.1400 C   0  0  1  0  0  3  0  0  0  0  0  0
  191.1780  180.1640  144.0960 N   0  0  0  0  0  0  0  0  0  0  0  0
  191.0630  179.0260  144.2670 C   0  0  0  0  0  0  0  0  0  0  0  0
  192.5250  175.4150  146.7070 O   0  0  0  0  0  0  0  0  0  0  0  0
  192.0460  176.0760  147.8390 C   0  0  0  0  0  2  0  0  0  0  0  0
  193.1070  176.0590  148.9190 C   0  0  0  0  0  1  0  0  0  0  0  0
  1  3  1  0  0  0  0
  1 29  1  0  0  0  0
  2  7  1  0  0  0  0
  4  2  2  0  0  0  0
  4  9  1  0  0  0  0
  5  6  2  0  0  0  0
  5 10  1  0  0  0  0
  6  4  1  0  0  0  0
  7 16  1  0  0  0  0
  7  3  2  0  0  0  0
  8  9  1  0  0  0  0
  9  1  2  0  0  0  0
 10  8  2  0  0  0  0
 12 15  2  0  0  0  0
 12 16  1  0  0  0  0
 14 13  1  0  0  0  0
 14 11  2  0  0  0  0
 15 14  1  0  0  0  0
 16 17  2  0  0  0  0
 17 11  1  0  0  0  0
 18 20  1  0  0  0  0
 19 22  1  0  0  0  0
 19 21  1  0  0  0  0
 19 18  1  0  0  0  0
 20 15  1  0  0  0  0
 21 18  1  0  0  0  0
 21 20  1  0  0  0  0
 23 22  1  0  0  0  0
 24 25  1  0  0  0  0
 25 26  1  0  0  0  0
 26 32  1  0  0  0  0
 27 26  1  0  0  0  0
 28 27  1  0  0  0  0
 29 28  1  0  0  0  0
 29 24  1  0  0  0  0
 30 31  3  0  0  0  0
 31 24  1  0  0  0  0
 32 33  1  0  0  0  0
 33 34  1  0  0  0  0
M  END
>  <MODEL>
9

>  <REMARK>
 VINA RESULT:      -9.2      2.313      4.896
  Name = 
  7 active torsions:
  status: ('A' for Active; 'I' for Inactive)
    1  A    between atoms: C_1  and  C_34
    2  A    between atoms: C_2  and  C_32
    3  A    between atoms: O_3  and  C_13
    4  A    between atoms: O_3  and  C_25
    5  A    between atoms: C_11  and  C_15
    6  A    between atoms: C_18  and  C_30
    7  A    between atoms: C_26  and  C_28
                            x       y       z     vdW  Elec       q    Type
                         _______ _______ _______ _____ _____    ______ ____

>  <TORSDO>
F 7

$$$$
