=
 OpenBabel10272401193D

 55 60  0  0  1  0  0  0  0  0999 V2000
  185.7210  175.2870  135.4140 C   0  0  0  0  0  2  0  0  0  0  0  0
  186.5950  178.3990  139.8250 C   0  0  0  0  0  2  0  0  0  0  0  0
  183.7260  179.1820  140.5000 C   0  0  0  0  0  1  0  0  0  0  0  0
  181.3470  177.3520  137.4590 C   0  0  0  0  0  2  0  0  0  0  0  0
  180.1560  177.9010  136.6820 C   0  0  0  0  0  2  0  0  0  0  0  0
  182.5720  177.0420  135.2390 C   0  0  1  0  0  3  0  0  0  0  0  0
  181.3160  177.5180  134.5120 C   0  0  0  0  0  2  0  0  0  0  0  0
  183.9460  177.2940  138.8880 C   0  0  0  0  0  2  0  0  0  0  0  0
  180.0640  177.2140  135.3260 C   0  0  0  0  0  2  0  0  0  0  0  0
  186.4370  177.5570  135.8610 O   0  0  0  0  0  0  0  0  0  0  0  0
  182.6610  177.5890  136.6920 C   0  0  2  0  0  3  0  0  0  0  0  0
  188.7450  177.1660  136.3850 C   0  0  1  0  0  0  0  0  0  0  0  0
  185.3200  174.9430  136.8500 C   0  0  0  0  0  2  0  0  0  0  0  0
  188.1020  175.8590  136.0260 C   0  0  0  0  0  2  0  0  0  0  0  0
  182.7890  174.9440  136.2740 C   0  0  2  0  0  3  0  0  0  0  0  0
  187.9130  178.8460  139.6370 O   0  0  0  0  0  0  0  0  0  0  0  0
  182.7790  175.6450  135.0460 O   0  0  0  0  0  0  0  0  0  0  0  0
  185.6570  179.1610  138.8990 C   0  0  0  0  0  2  0  0  0  0  0  0
  184.1930  178.7800  139.1120 C   0  0  2  0  0  3  0  0  0  0  0  0
  187.5820  178.1460  136.4360 C   0  0  0  0  0  2  0  0  0  0  0  0
  188.7950  177.7550  139.7940 C   0  0  2  0  0  3  0  0  0  0  0  0
  186.8400  176.3180  135.3320 C   0  0  1  0  0  3  0  0  0  0  0  0
  183.8690  176.9470  137.4020 C   0  0  2  0  0  3  0  0  0  0  0  0
  183.9100  175.4230  137.2200 C   0  0  2  0  0  3  0  0  0  0  0  0
  188.6740  176.7300  138.6690 C   0  0  0  0  0  2  0  0  0  0  0  0
  189.4900  177.1240  137.5910 O   0  0  0  0  0  0  0  0  0  0  0  0
  189.5970  177.5450  135.3450 O   0  0  0  0  0  1  0  0  0  0  0  0
  183.2690  173.0300  134.7270 C   0  0  0  0  0  2  0  0  0  0  0  0
  184.8170  171.2920  135.7330 C   0  0  2  0  0  3  0  0  0  0  0  0
  183.3410  172.6640  137.2730 C   0  0  0  0  0  2  0  0  0  0  0  0
  183.7620  171.2590  136.8530 C   0  0  0  0  0  2  0  0  0  0  0  0
  184.7100  172.5390  134.8360 C   0  0  0  0  0  2  0  0  0  0  0  0
  182.7020  173.4270  136.0990 C   0  0  1  0  0  3  0  0  0  0  0  0
  184.7890  170.0320  134.9150 C   0  0  0  0  0  0  0  0  0  0  0  0
  183.6950  169.4540  134.6880 O   0  0  0  0  0  1  0  0  0  0  0  0
  185.9560  169.5230  134.3500 O   0  0  0  0  0  0  0  0  0  0  0  0
  188.7480  177.1290  141.1930 C   0  0  0  0  0  2  0  0  0  0  0  0
  191.2050  175.6030  143.5200 O   0  0  0  0  0  0  0  0  0  0  0  0
  191.7470  177.5100  140.2350 O   0  0  0  0  0  0  0  0  0  0  0  0
  191.5720  176.6980  144.3430 C   0  0  1  0  0  3  0  0  0  0  0  0
  191.2830  178.0920  143.7650 C   0  0  0  0  0  2  0  0  0  0  0  0
  191.2290  177.3980  141.3760 C   0  0  0  0  0  0  0  0  0  0  0  0
  190.0630  176.4480  141.5490 C   0  0  1  0  0  3  0  0  0  0  0  0
  191.7500  178.1710  142.4260 O   0  0  0  0  0  0  0  0  0  0  0  0
  189.9430  175.8520  142.9520 C   0  0  0  0  0  2  0  0  0  0  0  0
  191.1480  176.5330  145.8070 C   0  0  0  0  0  2  0  0  0  0  0  0
  190.3250  177.7020  146.3390 C   0  0  0  0  0  2  0  0  0  0  0  0
  188.8410  177.3680  146.3820 C   0  0  1  0  0  3  0  0  0  0  0  0
  188.2440  177.7520  147.7370 C   0  0  0  0  0  3  0  0  0  0  0  0
  187.9040  176.6100  148.4620 O   0  0  0  0  0  1  0  0  0  0  0  0
  189.1710  178.4940  148.4670 O   0  0  0  0  0  1  0  0  0  0  0  0
  188.1860  178.0720  145.3340 O   0  0  0  0  0  0  0  0  0  0  0  0
  186.9600  177.6530  144.8110 C   0  0  0  0  0  0  0  0  0  0  0  0
  185.8970  178.2740  145.0770 O   0  0  0  0  0  0  0  0  0  0  0  0
  186.9120  176.5600  144.0120 F   0  0  0  0  0  0  0  0  0  0  0  0
  1 13  1  0  0  0  0
  5  4  1  0  0  0  0
  6  7  1  1  0  0  0
  6 11  1  0  0  0  0
  7  9  1  0  0  0  0
  8 19  1  0  0  0  0
  9  5  1  0  0  0  0
 10 20  1  0  0  0  0
 11 23  1  0  0  0  0
 11  4  1  1  0  0  0
 12 27  1  6  0  0  0
 12 20  1  0  0  0  0
 12 26  1  0  0  0  0
 14 12  1  0  0  0  0
 15 17  1  6  0  0  0
 15 24  1  0  0  0  0
 16 21  1  0  0  0  0
 16  2  1  0  0  0  0
 17  6  1  0  0  0  0
 18 19  1  0  0  0  0
 18  2  1  0  0  0  0
 19  3  1  1  0  0  0
 21 37  1  1  0  0  0
 22  1  1  1  0  0  0
 22 10  1  0  0  0  0
 22 14  1  0  0  0  0
 23  8  1  1  0  0  0
 24 13  1  6  0  0  0
 24 23  1  0  0  0  0
 25 21  1  0  0  0  0
 26 25  1  0  0  0  0
 28 32  1  0  0  0  0
 29 34  1  6  0  0  0
 29 31  1  0  0  0  0
 31 30  1  0  0  0  0
 32 29  1  0  0  0  0
 33 28  1  6  0  0  0
 33 15  1  0  0  0  0
 33 30  1  0  0  0  0
 35 34  1  0  0  0  0
 36 34  2  0  0  0  0
 38 40  1  0  0  0  0
 39 42  2  0  0  0  0
 40 46  1  1  0  0  0
 41 40  1  0  0  0  0
 42 43  1  0  0  0  0
 42 44  1  0  0  0  0
 43 37  1  1  0  0  0
 43 45  1  0  0  0  0
 44 41  1  0  0  0  0
 45 38  1  0  0  0  0
 46 47  1  0  0  0  0
 48 47  1  1  0  0  0
 48 49  1  0  0  0  0
 49 50  1  0  0  0  0
 49 51  1  0  0  0  0
 52 48  1  0  0  0  0
 53 54  2  0  0  0  0
 53 52  1  0  0  0  0
 55 53  1  0  0  0  0
M  END
>  <MODEL>
1

>  <REMARK>
 VINA RESULT:      -8.2      0.000      0.000
  Name = 
  10 active torsions:
  status: ('A' for Active; 'I' for Inactive)
    1  A    between atoms: C_1  and  O_53
    2  A    between atoms: C_3  and  C_12
    3  A    between atoms: C_3  and  C_38
    4  A    between atoms: C_8  and  C_22
    5  A    between atoms: C_8  and  C_43
    6  A    between atoms: C_10  and  C_32
    7  A    between atoms: C_11  and  C_29
    8  A    between atoms: C_29  and  C_38
    9  A    between atoms: C_29  and  O_53
   10  A    between atoms: C_33  and  C_52
                            x       y       z     vdW  Elec       q    Type
                         _______ _______ _______ _____ _____    ______ ____

>  <TORSDO>
F 10

$$$$
=
 OpenBabel10272401193D

 55 60  0  0  1  0  0  0  0  0999 V2000
  186.1280  175.9670  135.3430 C   0  0  0  0  0  2  0  0  0  0  0  0
  186.7590  178.2370  140.2780 C   0  0  0  0  0  2  0  0  0  0  0  0
  183.8480  178.8240  140.9690 C   0  0  0  0  0  1  0  0  0  0  0  0
  181.6290  177.5310  137.5540 C   0  0  0  0  0  2  0  0  0  0  0  0
  180.4520  178.1880  136.8430 C   0  0  0  0  0  2  0  0  0  0  0  0
  182.9400  177.6580  135.3650 C   0  0  1  0  0  3  0  0  0  0  0  0
  181.6970  178.2330  134.6870 C   0  0  0  0  0  2  0  0  0  0  0  0
  184.1760  177.2670  139.0500 C   0  0  0  0  0  2  0  0  0  0  0  0
  180.4270  177.7590  135.3820 C   0  0  0  0  0  2  0  0  0  0  0  0
  186.7650  178.1310  136.2240 O   0  0  0  0  0  0  0  0  0  0  0  0
  182.9620  177.9320  136.8960 C   0  0  2  0  0  3  0  0  0  0  0  0
  189.0620  177.6990  136.7590 C   0  0  1  0  0  0  0  0  0  0  0  0
  185.6860  175.3570  136.6760 C   0  0  0  0  0  2  0  0  0  0  0  0
  188.4690  176.4660  136.1430 C   0  0  0  0  0  2  0  0  0  0  0  0
  183.1780  175.4110  136.0090 C   0  0  2  0  0  3  0  0  0  0  0  0
  188.0700  178.7380  140.2270 O   0  0  0  0  0  0  0  0  0  0  0  0
  183.1920  176.3240  134.9290 O   0  0  0  0  0  0  0  0  0  0  0  0
  185.8340  179.1360  139.4690 C   0  0  0  0  0  2  0  0  0  0  0  0
  184.3740  178.6920  139.5510 C   0  0  2  0  0  3  0  0  0  0  0  0
  187.8720  178.6280  136.9410 C   0  0  0  0  0  2  0  0  0  0  0  0
  188.9760  177.6550  140.2170 C   0  0  2  0  0  3  0  0  0  0  0  0
  187.2210  177.0180  135.4950 C   0  0  1  0  0  3  0  0  0  0  0  0
  184.1620  177.1960  137.5240 C   0  0  2  0  0  3  0  0  0  0  0  0
  184.2510  175.7320  137.0700 C   0  0  2  0  0  3  0  0  0  0  0  0
  188.9230  176.8510  138.9210 C   0  0  0  0  0  2  0  0  0  0  0  0
  189.7650  177.4520  137.9660 O   0  0  0  0  0  0  0  0  0  0  0  0
  189.9410  178.2790  135.8410 O   0  0  0  0  0  1  0  0  0  0  0  0
  182.8880  173.0400  136.7700 C   0  0  0  0  0  2  0  0  0  0  0  0
  180.9600  171.8500  135.6330 C   0  0  2  0  0  3  0  0  0  0  0  0
  182.1500  173.7200  134.4010 C   0  0  0  0  0  2  0  0  0  0  0  0
  181.6960  172.2650  134.3460 C   0  0  0  0  0  2  0  0  0  0  0  0
  181.4200  172.6360  136.8740 C   0  0  0  0  0  2  0  0  0  0  0  0
  183.1390  173.9500  135.5580 C   0  0  1  0  0  3  0  0  0  0  0  0
  181.0510  170.3680  135.8640 C   0  0  0  0  0  0  0  0  0  0  0  0
  180.0110  169.7080  136.1260 O   0  0  0  0  0  1  0  0  0  0  0  0
  182.2650  169.6990  135.7350 O   0  0  0  0  0  0  0  0  0  0  0  0
  188.8960  176.7830  141.4770 C   0  0  0  0  0  2  0  0  0  0  0  0
  191.3510  175.8120  144.0860 O   0  0  0  0  0  0  0  0  0  0  0  0
  191.8250  177.8300  140.8570 O   0  0  0  0  0  0  0  0  0  0  0  0
  191.3730  176.9510  144.9300 C   0  0  1  0  0  3  0  0  0  0  0  0
  190.8490  178.2540  144.3040 C   0  0  0  0  0  2  0  0  0  0  0  0
  191.2200  177.5930  141.9340 C   0  0  0  0  0  0  0  0  0  0  0  0
  190.2810  176.4070  141.9870 C   0  0  1  0  0  3  0  0  0  0  0  0
  191.4350  178.4500  143.0250 O   0  0  0  0  0  0  0  0  0  0  0  0
  190.1380  175.7820  143.3760 C   0  0  0  0  0  2  0  0  0  0  0  0
  190.8330  176.6800  146.3390 C   0  0  0  0  0  2  0  0  0  0  0  0
  189.8860  177.7620  146.8490 C   0  0  0  0  0  2  0  0  0  0  0  0
  188.4290  177.3510  146.6910 C   0  0  1  0  0  3  0  0  0  0  0  0
  187.6200  177.7600  147.9230 C   0  0  0  0  0  3  0  0  0  0  0  0
  188.3820  177.6040  149.0810 O   0  0  0  0  0  1  0  0  0  0  0  0
  187.2330  179.0940  147.8110 O   0  0  0  0  0  1  0  0  0  0  0  0
  187.9060  177.9720  145.5240 O   0  0  0  0  0  0  0  0  0  0  0  0
  186.7850  177.4730  144.8560 C   0  0  0  0  0  0  0  0  0  0  0  0
  185.6440  177.9740  145.0410 O   0  0  0  0  0  0  0  0  0  0  0  0
  186.9250  176.4300  144.0030 F   0  0  0  0  0  0  0  0  0  0  0  0
  1 13  1  0  0  0  0
  5  4  1  0  0  0  0
  6  7  1  1  0  0  0
  6 11  1  0  0  0  0
  7  9  1  0  0  0  0
  8 19  1  0  0  0  0
  9  5  1  0  0  0  0
 10 20  1  0  0  0  0
 11 23  1  0  0  0  0
 11  4  1  1  0  0  0
 12 27  1  6  0  0  0
 12 20  1  0  0  0  0
 12 26  1  0  0  0  0
 14 12  1  0  0  0  0
 15 17  1  6  0  0  0
 15 24  1  0  0  0  0
 16  2  1  0  0  0  0
 17  6  1  0  0  0  0
 18 19  1  0  0  0  0
 18  2  1  0  0  0  0
 19  3  1  1  0  0  0
 21 16  1  0  0  0  0
 21 37  1  1  0  0  0
 22  1  1  1  0  0  0
 22 14  1  0  0  0  0
 22 10  1  0  0  0  0
 23  8  1  1  0  0  0
 24 13  1  6  0  0  0
 24 23  1  0  0  0  0
 25 21  1  0  0  0  0
 26 25  1  0  0  0  0
 28 32  1  0  0  0  0
 29 34  1  1  0  0  0
 29 32  1  0  0  0  0
 31 30  1  0  0  0  0
 31 29  1  0  0  0  0
 33 30  1  6  0  0  0
 33 15  1  0  0  0  0
 33 28  1  0  0  0  0
 34 35  1  0  0  0  0
 36 34  2  0  0  0  0
 38 40  1  0  0  0  0
 39 42  2  0  0  0  0
 40 46  1  1  0  0  0
 41 40  1  0  0  0  0
 42 43  1  0  0  0  0
 42 44  1  0  0  0  0
 43 37  1  1  0  0  0
 43 45  1  0  0  0  0
 44 41  1  0  0  0  0
 45 38  1  0  0  0  0
 46 47  1  0  0  0  0
 48 47  1  1  0  0  0
 48 49  1  0  0  0  0
 49 50  1  0  0  0  0
 51 49  1  0  0  0  0
 52 48  1  0  0  0  0
 53 54  2  0  0  0  0
 53 52  1  0  0  0  0
 55 53  1  0  0  0  0
M  END
>  <MODEL>
2

>  <REMARK>
 VINA RESULT:      -7.9      1.149      1.514
  Name = 
  10 active torsions:
  status: ('A' for Active; 'I' for Inactive)
    1  A    between atoms: C_1  and  O_53
    2  A    between atoms: C_3  and  C_12
    3  A    between atoms: C_3  and  C_38
    4  A    between atoms: C_8  and  C_22
    5  A    between atoms: C_8  and  C_43
    6  A    between atoms: C_10  and  C_32
    7  A    between atoms: C_11  and  C_29
    8  A    between atoms: C_29  and  C_38
    9  A    between atoms: C_29  and  O_53
   10  A    between atoms: C_33  and  C_52
                            x       y       z     vdW  Elec       q    Type
                         _______ _______ _______ _____ _____    ______ ____

>  <TORSDO>
F 10

$$$$
=
 OpenBabel10272401193D

 55 60  0  0  1  0  0  0  0  0999 V2000
  185.9020  174.7430  135.5340 C   0  0  0  0  0  2  0  0  0  0  0  0
  186.5650  178.3030  139.6310 C   0  0  0  0  0  2  0  0  0  0  0  0
  183.6500  178.9450  140.2540 C   0  0  0  0  0  1  0  0  0  0  0  0
  181.3980  176.6800  137.4160 C   0  0  0  0  0  2  0  0  0  0  0  0
  180.1710  177.0710  136.6020 C   0  0  0  0  0  2  0  0  0  0  0  0
  182.6380  176.2510  135.2230 C   0  0  1  0  0  3  0  0  0  0  0  0
  181.3500  176.5690  134.4660 C   0  0  0  0  0  2  0  0  0  0  0  0
  183.9970  176.9350  138.8220 C   0  0  0  0  0  2  0  0  0  0  0  0
  180.1240  176.2560  135.3150 C   0  0  0  0  0  2  0  0  0  0  0  0
  186.4590  177.0890  135.7630 O   0  0  0  0  0  0  0  0  0  0  0  0
  182.6910  176.9350  136.6190 C   0  0  2  0  0  3  0  0  0  0  0  0
  188.7890  176.9090  136.3010 C   0  0  1  0  0  0  0  0  0  0  0  0
  185.5290  174.5060  136.9990 C   0  0  0  0  0  2  0  0  0  0  0  0
  188.2380  175.5320  136.0700 C   0  0  0  0  0  2  0  0  0  0  0  0
  183.0020  174.2780  136.4460 C   0  0  2  0  0  3  0  0  0  0  0  0
  187.8490  178.8210  139.3910 O   0  0  0  0  0  0  0  0  0  0  0  0
  182.9410  174.8600  135.1590 O   0  0  0  0  0  0  0  0  0  0  0  0
  185.5740  178.9100  138.6460 C   0  0  0  0  0  2  0  0  0  0  0  0
  184.1410  178.4500  138.9060 C   0  0  2  0  0  3  0  0  0  0  0  0
  187.5610  177.8060  136.2710 C   0  0  0  0  0  2  0  0  0  0  0  0
  188.8040  177.8130  139.6400 C   0  0  2  0  0  3  0  0  0  0  0  0
  186.9460  175.8370  135.3470 C   0  0  1  0  0  3  0  0  0  0  0  0
  183.9430  176.4470  137.3750 C   0  0  2  0  0  3  0  0  0  0  0  0
  184.0890  174.9190  137.3340 C   0  0  2  0  0  3  0  0  0  0  0  0
  188.7530  176.6830  138.6160 C   0  0  0  0  0  2  0  0  0  0  0  0
  189.5370  177.0300  137.5000 O   0  0  0  0  0  0  0  0  0  0  0  0
  189.6110  177.2480  135.2240 O   0  0  0  0  0  1  0  0  0  0  0  0
  181.6120  172.2070  136.7000 C   0  0  0  0  0  2  0  0  0  0  0  0
  181.6260  170.7310  134.6390 C   0  0  2  0  0  3  0  0  0  0  0  0
  183.6390  172.1990  135.1160 C   0  0  0  0  0  2  0  0  0  0  0  0
  183.1530  170.7810  134.8320 C   0  0  0  0  0  2  0  0  0  0  0  0
  180.8810  171.8340  135.4130 C   0  0  0  0  0  2  0  0  0  0  0  0
  183.0210  172.7490  136.4130 C   0  0  1  0  0  3  0  0  0  0  0  0
  181.0760  169.3720  134.9660 C   0  0  0  0  0  0  0  0  0  0  0  0
  181.6360  168.3400  134.5130 O   0  0  0  0  0  0  0  0  0  0  0  0
  179.9830  169.2310  135.8170 O   0  0  0  0  0  1  0  0  0  0  0  0
  188.8040  177.3180  141.0920 C   0  0  0  0  0  2  0  0  0  0  0  0
  191.2780  175.8770  143.4540 O   0  0  0  0  0  0  0  0  0  0  0  0
  191.7990  177.7360  140.1380 O   0  0  0  0  0  0  0  0  0  0  0  0
  191.6230  176.9920  144.2590 C   0  0  1  0  0  3  0  0  0  0  0  0
  191.3120  178.3710  143.6560 C   0  0  0  0  0  2  0  0  0  0  0  0
  191.2800  177.6350  141.2790 C   0  0  0  0  0  0  0  0  0  0  0  0
  190.1300  176.6670  141.4640 C   0  0  1  0  0  3  0  0  0  0  0  0
  191.7820  178.4350  142.3170 O   0  0  0  0  0  0  0  0  0  0  0  0
  190.0140  176.0940  142.8770 C   0  0  0  0  0  2  0  0  0  0  0  0
  191.1960  176.8450  145.7240 C   0  0  0  0  0  2  0  0  0  0  0  0
  189.7710  176.3280  145.8950 C   0  0  0  0  0  2  0  0  0  0  0  0
  188.8340  177.4230  146.3860 C   0  0  1  0  0  3  0  0  0  0  0  0
  187.5960  177.5100  145.4910 C   0  0  0  0  0  3  0  0  0  0  0  0
  186.6370  178.3450  146.0650 O   0  0  0  0  0  1  0  0  0  0  0  0
  187.9510  178.0160  144.2420 O   0  0  0  0  0  1  0  0  0  0  0  0
  188.4590  177.1320  147.7260 O   0  0  0  0  0  0  0  0  0  0  0  0
  188.6690  178.0380  148.7680 C   0  0  0  0  0  0  0  0  0  0  0  0
  187.6990  178.5220  149.4110 O   0  0  0  0  0  0  0  0  0  0  0  0
  189.9320  178.4070  149.0900 F   0  0  0  0  0  0  0  0  0  0  0  0
  1 13  1  0  0  0  0
  5  4  1  0  0  0  0
  6  7  1  1  0  0  0
  6 11  1  0  0  0  0
  7  9  1  0  0  0  0
  8 19  1  0  0  0  0
  9  5  1  0  0  0  0
 10 20  1  0  0  0  0
 11 23  1  0  0  0  0
 11  4  1  1  0  0  0
 12 27  1  6  0  0  0
 12 26  1  0  0  0  0
 14 12  1  0  0  0  0
 15 17  1  6  0  0  0
 15 24  1  0  0  0  0
 16  2  1  0  0  0  0
 16 21  1  0  0  0  0
 17  6  1  0  0  0  0
 18 19  1  0  0  0  0
 18  2  1  0  0  0  0
 19  3  1  1  0  0  0
 20 12  1  0  0  0  0
 21 37  1  1  0  0  0
 22  1  1  1  0  0  0
 22 10  1  0  0  0  0
 22 14  1  0  0  0  0
 23  8  1  1  0  0  0
 24 13  1  6  0  0  0
 24 23  1  0  0  0  0
 25 21  1  0  0  0  0
 26 25  1  0  0  0  0
 29 31  1  0  0  0  0
 29 34  1  1  0  0  0
 29 32  1  0  0  0  0
 31 30  1  0  0  0  0
 32 28  1  0  0  0  0
 33 30  1  6  0  0  0
 33 15  1  0  0  0  0
 33 28  1  0  0  0  0
 34 36  1  0  0  0  0
 35 34  2  0  0  0  0
 38 40  1  0  0  0  0
 39 42  2  0  0  0  0
 40 46  1  1  0  0  0
 41 40  1  0  0  0  0
 42 43  1  0  0  0  0
 42 44  1  0  0  0  0
 43 37  1  1  0  0  0
 43 45  1  0  0  0  0
 44 41  1  0  0  0  0
 45 38  1  0  0  0  0
 46 47  1  0  0  0  0
 48 47  1  6  0  0  0
 48 52  1  0  0  0  0
 49 50  1  0  0  0  0
 49 48  1  0  0  0  0
 51 49  1  0  0  0  0
 52 53  1  0  0  0  0
 53 55  1  0  0  0  0
 53 54  2  0  0  0  0
M  END
>  <MODEL>
3

>  <REMARK>
 VINA RESULT:      -7.5      1.448      2.066
  Name = 
  10 active torsions:
  status: ('A' for Active; 'I' for Inactive)
    1  A    between atoms: C_1  and  O_53
    2  A    between atoms: C_3  and  C_12
    3  A    between atoms: C_3  and  C_38
    4  A    between atoms: C_8  and  C_22
    5  A    between atoms: C_8  and  C_43
    6  A    between atoms: C_10  and  C_32
    7  A    between atoms: C_11  and  C_29
    8  A    between atoms: C_29  and  C_38
    9  A    between atoms: C_29  and  O_53
   10  A    between atoms: C_33  and  C_52
                            x       y       z     vdW  Elec       q    Type
                         _______ _______ _______ _____ _____    ______ ____

>  <TORSDO>
F 10

$$$$
=
 OpenBabel10272401193D

 55 60  0  0  1  0  0  0  0  0999 V2000
  185.6430  176.8420  135.9430 C   0  0  0  0  0  2  0  0  0  0  0  0
  186.7700  178.1380  141.1340 C   0  0  0  0  0  2  0  0  0  0  0  0
  183.9450  178.5480  142.2050 C   0  0  0  0  0  1  0  0  0  0  0  0
  181.3930  177.9030  138.8400 C   0  0  0  0  0  2  0  0  0  0  0  0
  180.1560  178.6690  138.3850 C   0  0  0  0  0  2  0  0  0  0  0  0
  182.4840  178.4600  136.5970 C   0  0  1  0  0  3  0  0  0  0  0  0
  181.1850  179.1370  136.1660 C   0  0  0  0  0  2  0  0  0  0  0  0
  184.0730  177.3890  140.0020 C   0  0  0  0  0  2  0  0  0  0  0  0
  179.9850  178.5250  136.8790 C   0  0  0  0  0  2  0  0  0  0  0  0
  186.3780  178.8060  137.1540 O   0  0  0  0  0  0  0  0  0  0  0  0
  182.6580  178.4370  138.1430 C   0  0  2  0  0  3  0  0  0  0  0  0
  188.7140  178.3080  137.3700 C   0  0  1  0  0  0  0  0  0  0  0  0
  185.3300  175.9840  137.1710 C   0  0  0  0  0  2  0  0  0  0  0  0
  188.0550  177.2070  136.5910 C   0  0  0  0  0  2  0  0  0  0  0  0
  182.7680  176.1340  136.7750 C   0  0  2  0  0  3  0  0  0  0  0  0
  188.0740  178.6560  141.0520 O   0  0  0  0  0  0  0  0  0  0  0  0
  182.6830  177.2360  135.8930 O   0  0  0  0  0  0  0  0  0  0  0  0
  185.7770  179.1640  140.6060 C   0  0  0  0  0  2  0  0  0  0  0  0
  184.3290  178.6950  140.7440 C   0  0  2  0  0  3  0  0  0  0  0  0
  187.5540  179.1710  137.8410 C   0  0  0  0  0  2  0  0  0  0  0  0
  188.9660  177.6050  140.7480 C   0  0  2  0  0  3  0  0  0  0  0  0
  186.7520  177.8580  136.1850 C   0  0  1  0  0  3  0  0  0  0  0  0
  183.9090  177.6100  138.4990 C   0  0  2  0  0  3  0  0  0  0  0  0
  183.9430  176.2600  137.7680 C   0  0  2  0  0  3  0  0  0  0  0  0
  188.7820  177.0620  139.3330 C   0  0  0  0  0  2  0  0  0  0  0  0
  189.5300  177.8440  138.4330 O   0  0  0  0  0  0  0  0  0  0  0  0
  189.5020  179.0630  136.4970 O   0  0  0  0  0  1  0  0  0  0  0  0
  182.2690  173.6940  137.0620 C   0  0  0  0  0  2  0  0  0  0  0  0
  180.3710  172.8790  135.5930 C   0  0  2  0  0  3  0  0  0  0  0  0
  181.7740  174.8430  134.8140 C   0  0  0  0  0  2  0  0  0  0  0  0
  181.2350  173.4610  134.4600 C   0  0  0  0  0  2  0  0  0  0  0  0
  180.7750  173.3910  136.9870 C   0  0  0  0  0  2  0  0  0  0  0  0
  182.6760  174.7850  136.0600 C   0  0  1  0  0  3  0  0  0  0  0  0
  180.3490  171.3780  135.5520 C   0  0  0  0  0  0  0  0  0  0  0  0
  180.7080  170.7720  134.5080 O   0  0  0  0  0  0  0  0  0  0  0  0
  179.9930  170.6390  136.6760 O   0  0  0  0  0  1  0  0  0  0  0  0
  189.0050  176.5090  141.8190 C   0  0  0  0  0  2  0  0  0  0  0  0
  191.3840  176.3470  144.6650 O   0  0  0  0  0  0  0  0  0  0  0  0
  191.8570  177.6980  141.1050 O   0  0  0  0  0  0  0  0  0  0  0  0
  191.2510  177.6320  145.2510 C   0  0  1  0  0  3  0  0  0  0  0  0
  190.6480  178.7180  144.3470 C   0  0  0  0  0  2  0  0  0  0  0  0
  191.2140  177.6270  142.1840 C   0  0  0  0  0  0  0  0  0  0  0  0
  190.3870  176.3880  142.4490 C   0  0  1  0  0  3  0  0  0  0  0  0
  191.2860  178.7060  143.0780 O   0  0  0  0  0  0  0  0  0  0  0  0
  190.2210  176.0500  143.9320 C   0  0  0  0  0  2  0  0  0  0  0  0
  190.6580  177.6010  146.6640 C   0  0  0  0  0  2  0  0  0  0  0  0
  189.5660  176.5510  146.8450 C   0  0  0  0  0  2  0  0  0  0  0  0
  188.2170  177.1910  147.1370 C   0  0  1  0  0  3  0  0  0  0  0  0
  188.3040  178.0830  148.3780 C   0  0  0  0  0  3  0  0  0  0  0  0
  187.5860  179.2620  148.1820 O   0  0  0  0  0  1  0  0  0  0  0  0
  187.7810  177.4100  149.4800 O   0  0  0  0  0  1  0  0  0  0  0  0
  187.8210  177.9540  146.0050 O   0  0  0  0  0  0  0  0  0  0  0  0
  186.6460  177.6810  145.3000 C   0  0  0  0  0  0  0  0  0  0  0  0
  186.6340  176.8400  144.3620 O   0  0  0  0  0  0  0  0  0  0  0  0
  185.5050  178.3340  145.6240 F   0  0  0  0  0  0  0  0  0  0  0  0
  1 13  1  0  0  0  0
  5  4  1  0  0  0  0
  6  7  1  1  0  0  0
  6 11  1  0  0  0  0
  7  9  1  0  0  0  0
  8 19  1  0  0  0  0
  9  5  1  0  0  0  0
 10 20  1  0  0  0  0
 11 23  1  0  0  0  0
 11  4  1  1  0  0  0
 12 27  1  6  0  0  0
 12 20  1  0  0  0  0
 12 26  1  0  0  0  0
 14 12  1  0  0  0  0
 15 17  1  6  0  0  0
 15 24  1  0  0  0  0
 16  2  1  0  0  0  0
 17  6  1  0  0  0  0
 18 19  1  0  0  0  0
 18  2  1  0  0  0  0
 19  3  1  1  0  0  0
 21 16  1  0  0  0  0
 21 37  1  1  0  0  0
 22  1  1  1  0  0  0
 22 14  1  0  0  0  0
 22 10  1  0  0  0  0
 23  8  1  1  0  0  0
 24 13  1  6  0  0  0
 24 23  1  0  0  0  0
 25 21  1  0  0  0  0
 26 25  1  0  0  0  0
 29 34  1  1  0  0  0
 29 32  1  0  0  0  0
 31 30  1  0  0  0  0
 31 29  1  0  0  0  0
 32 28  1  0  0  0  0
 33 30  1  6  0  0  0
 33 15  1  0  0  0  0
 33 28  1  0  0  0  0
 34 36  1  0  0  0  0
 35 34  2  0  0  0  0
 38 40  1  0  0  0  0
 39 42  2  0  0  0  0
 40 46  1  1  0  0  0
 41 40  1  0  0  0  0
 42 43  1  0  0  0  0
 42 44  1  0  0  0  0
 43 37  1  1  0  0  0
 43 45  1  0  0  0  0
 44 41  1  0  0  0  0
 45 38  1  0  0  0  0
 46 47  1  0  0  0  0
 48 47  1  6  0  0  0
 48 49  1  0  0  0  0
 49 51  1  0  0  0  0
 50 49  1  0  0  0  0
 52 48  1  0  0  0  0
 53 55  1  0  0  0  0
 53 52  1  0  0  0  0
 54 53  2  0  0  0  0
M  END
>  <MODEL>
4

>  <REMARK>
 VINA RESULT:      -7.4      1.816      2.189
  Name = 
  10 active torsions:
  status: ('A' for Active; 'I' for Inactive)
    1  A    between atoms: C_1  and  O_53
    2  A    between atoms: C_3  and  C_12
    3  A    between atoms: C_3  and  C_38
    4  A    between atoms: C_8  and  C_22
    5  A    between atoms: C_8  and  C_43
    6  A    between atoms: C_10  and  C_32
    7  A    between atoms: C_11  and  C_29
    8  A    between atoms: C_29  and  C_38
    9  A    between atoms: C_29  and  O_53
   10  A    between atoms: C_33  and  C_52
                            x       y       z     vdW  Elec       q    Type
                         _______ _______ _______ _____ _____    ______ ____

>  <TORSDO>
F 10

$$$$
=
 OpenBabel10272401193D

 55 60  0  0  1  0  0  0  0  0999 V2000
  186.2740  175.4440  136.3310 C   0  0  0  0  0  2  0  0  0  0  0  0
  184.9140  178.5040  140.6540 C   0  0  0  0  0  2  0  0  0  0  0  0
  181.9030  178.0270  140.7180 C   0  0  0  0  0  1  0  0  0  0  0  0
  181.1270  175.4790  137.3760 C   0  0  0  0  0  2  0  0  0  0  0  0
  179.9960  175.5180  136.3550 C   0  0  0  0  0  2  0  0  0  0  0  0
  182.7870  175.7650  135.4550 C   0  0  1  0  0  3  0  0  0  0  0  0
  181.6170  175.7080  134.4740 C   0  0  0  0  0  2  0  0  0  0  0  0
  183.1850  176.4430  139.2820 C   0  0  0  0  0  2  0  0  0  0  0  0
  180.4620  174.8950  135.0450 C   0  0  0  0  0  2  0  0  0  0  0  0
  185.9020  177.7930  136.7860 O   0  0  0  0  0  0  0  0  0  0  0  0
  182.3550  176.2550  136.8670 C   0  0  2  0  0  3  0  0  0  0  0  0
  188.0150  178.3630  137.7670 C   0  0  1  0  0  0  0  0  0  0  0  0
  185.7700  174.9220  137.6790 C   0  0  0  0  0  2  0  0  0  0  0  0
  188.0440  176.9180  137.3610 C   0  0  0  0  0  2  0  0  0  0  0  0
  183.6260  173.9070  136.6240 C   0  0  2  0  0  3  0  0  0  0  0  0
  185.9460  179.4550  140.7020 O   0  0  0  0  0  0  0  0  0  0  0  0
  183.5760  174.5800  135.3810 O   0  0  0  0  0  0  0  0  0  0  0  0
  183.9520  178.8450  139.5250 C   0  0  0  0  0  2  0  0  0  0  0  0
  182.7580  177.8930  139.4700 C   0  0  2  0  0  3  0  0  0  0  0  0
  186.5710  178.7800  137.5390 C   0  0  0  0  0  2  0  0  0  0  0  0
  187.1440  178.8150  141.0840 C   0  0  2  0  0  3  0  0  0  0  0  0
  186.8700  176.8440  136.4130 C   0  0  1  0  0  3  0  0  0  0  0  0
  183.5530  176.1410  137.8300 C   0  0  2  0  0  3  0  0  0  0  0  0
  184.2440  174.7730  137.7420 C   0  0  2  0  0  3  0  0  0  0  0  0
  187.6760  177.8650  140.0140 C   0  0  0  0  0  2  0  0  0  0  0  0
  188.4580  178.5900  139.0950 O   0  0  0  0  0  0  0  0  0  0  0  0
  188.8290  179.0880  136.8940 O   0  0  0  0  0  1  0  0  0  0  0  0
  183.1120  171.4650  136.8710 C   0  0  0  0  0  2  0  0  0  0  0  0
  183.5010  170.1380  134.7460 C   0  0  2  0  0  3  0  0  0  0  0  0
  184.8700  172.2330  135.1570 C   0  0  0  0  0  2  0  0  0  0  0  0
  184.9140  170.7420  134.8390 C   0  0  0  0  0  2  0  0  0  0  0  0
  182.4690  170.8750  135.6190 C   0  0  0  0  0  2  0  0  0  0  0  0
  184.1990  172.4930  136.5170 C   0  0  1  0  0  3  0  0  0  0  0  0
  183.5120  168.6660  135.0440 C   0  0  0  0  0  0  0  0  0  0  0  0
  182.4380  168.0750  135.3300 O   0  0  0  0  0  1  0  0  0  0  0  0
  184.6880  167.9280  134.9500 O   0  0  0  0  0  0  0  0  0  0  0  0
  187.0780  178.1820  142.4800 C   0  0  0  0  0  2  0  0  0  0  0  0
  190.7800  178.3880  142.6540 O   0  0  0  0  0  0  0  0  0  0  0  0
  188.2620  176.8250  145.0900 O   0  0  0  0  0  0  0  0  0  0  0  0
  191.1850  177.1450  142.1040 C   0  0  1  0  0  3  0  0  0  0  0  0
  190.1180  176.0400  142.0980 C   0  0  0  0  0  2  0  0  0  0  0  0
  188.7270  176.9840  143.9320 C   0  0  0  0  0  0  0  0  0  0  0  0
  188.4160  178.2730  143.2020 C   0  0  1  0  0  3  0  0  0  0  0  0
  189.4980  175.9530  143.3730 O   0  0  0  0  0  0  0  0  0  0  0  0
  189.4870  178.6980  142.1970 C   0  0  0  0  0  2  0  0  0  0  0  0
  191.9460  177.2800  140.7800 C   0  0  0  0  0  2  0  0  0  0  0  0
  191.3220  176.4890  139.6350 C   0  0  0  0  0  2  0  0  0  0  0  0
  191.8680  176.9350  138.2850 C   0  0  1  0  0  3  0  0  0  0  0  0
  193.3980  176.9080  138.2910 C   0  0  0  0  0  3  0  0  0  0  0  0
  193.8640  175.7580  138.9280 O   0  0  0  0  0  1  0  0  0  0  0  0
  193.8750  176.9270  136.9820 O   0  0  0  0  0  1  0  0  0  0  0  0
  191.3600  176.0660  137.2810 O   0  0  0  0  0  0  0  0  0  0  0  0
  191.2450  174.6880  137.4810 C   0  0  0  0  0  0  0  0  0  0  0  0
  190.1260  174.1600  137.7220 O   0  0  0  0  0  0  0  0  0  0  0  0
  192.3510  173.9080  137.4230 F   0  0  0  0  0  0  0  0  0  0  0  0
  1 13  1  0  0  0  0
  2 16  1  0  0  0  0
  5  4  1  0  0  0  0
  6  7  1  6  0  0  0
  6 11  1  0  0  0  0
  7  9  1  0  0  0  0
  8 19  1  0  0  0  0
  9  5  1  0  0  0  0
 10 20  1  0  0  0  0
 11  4  1  1  0  0  0
 11 23  1  0  0  0  0
 12 27  1  6  0  0  0
 12 26  1  0  0  0  0
 14 12  1  0  0  0  0
 15 17  1  6  0  0  0
 15 24  1  0  0  0  0
 16 21  1  0  0  0  0
 17  6  1  0  0  0  0
 18  2  1  0  0  0  0
 19 18  1  0  0  0  0
 19  3  1  1  0  0  0
 20 12  1  0  0  0  0
 21 37  1  1  0  0  0
 22  1  1  1  0  0  0
 22 10  1  0  0  0  0
 22 14  1  0  0  0  0
 23  8  1  1  0  0  0
 24 13  1  6  0  0  0
 24 23  1  0  0  0  0
 25 21  1  0  0  0  0
 26 25  1  0  0  0  0
 29 31  1  0  0  0  0
 29 34  1  1  0  0  0
 29 32  1  0  0  0  0
 31 30  1  0  0  0  0
 32 28  1  0  0  0  0
 33 30  1  6  0  0  0
 33 15  1  0  0  0  0
 33 28  1  0  0  0  0
 34 35  1  0  0  0  0
 36 34  2  0  0  0  0
 40 46  1  6  0  0  0
 40 38  1  0  0  0  0
 41 40  1  0  0  0  0
 41 44  1  0  0  0  0
 42 39  2  0  0  0  0
 43 37  1  6  0  0  0
 43 42  1  0  0  0  0
 44 42  1  0  0  0  0
 45 38  1  0  0  0  0
 45 43  1  0  0  0  0
 47 46  1  0  0  0  0
 48 49  1  0  0  0  0
 48 47  1  1  0  0  0
 49 50  1  0  0  0  0
 51 49  1  0  0  0  0
 52 53  1  0  0  0  0
 52 48  1  0  0  0  0
 53 54  2  0  0  0  0
 55 53  1  0  0  0  0
M  END
>  <MODEL>
5

>  <REMARK>
 VINA RESULT:      -7.3      2.190      4.501
  Name = 
  10 active torsions:
  status: ('A' for Active; 'I' for Inactive)
    1  A    between atoms: C_1  and  O_53
    2  A    between atoms: C_3  and  C_12
    3  A    between atoms: C_3  and  C_38
    4  A    between atoms: C_8  and  C_22
    5  A    between atoms: C_8  and  C_43
    6  A    between atoms: C_10  and  C_32
    7  A    between atoms: C_11  and  C_29
    8  A    between atoms: C_29  and  C_38
    9  A    between atoms: C_29  and  O_53
   10  A    between atoms: C_33  and  C_52
                            x       y       z     vdW  Elec       q    Type
                         _______ _______ _______ _____ _____    ______ ____

>  <TORSDO>
F 10

$$$$
=
 OpenBabel10272401193D

 55 60  0  0  1  0  0  0  0  0999 V2000
  186.3210  175.7860  136.2340 C   0  0  0  0  0  2  0  0  0  0  0  0
  184.9560  178.2500  140.9200 C   0  0  0  0  0  2  0  0  0  0  0  0
  181.9370  177.8210  140.8870 C   0  0  0  0  0  1  0  0  0  0  0  0
  181.1630  175.7680  137.2210 C   0  0  0  0  0  2  0  0  0  0  0  0
  180.0460  175.9650  136.2030 C   0  0  0  0  0  2  0  0  0  0  0  0
  182.8510  176.2850  135.3740 C   0  0  1  0  0  3  0  0  0  0  0  0
  181.6930  176.3830  134.3830 C   0  0  0  0  0  2  0  0  0  0  0  0
  183.2120  176.4260  139.2610 C   0  0  0  0  0  2  0  0  0  0  0  0
  180.5190  175.5200  134.8250 C   0  0  0  0  0  2  0  0  0  0  0  0
  185.9810  178.0580  137.0020 O   0  0  0  0  0  0  0  0  0  0  0  0
  182.4100  176.5850  136.8350 C   0  0  2  0  0  3  0  0  0  0  0  0
  188.0910  178.4510  138.0730 C   0  0  1  0  0  0  0  0  0  0  0  0
  185.7930  175.0940  137.4920 C   0  0  0  0  0  2  0  0  0  0  0  0
  188.1020  177.0750  137.4730 C   0  0  0  0  0  2  0  0  0  0  0  0
  183.6460  174.2700  136.2860 C   0  0  2  0  0  3  0  0  0  0  0  0
  186.0020  179.1680  141.1080 O   0  0  0  0  0  0  0  0  0  0  0  0
  183.6230  175.1080  135.1460 O   0  0  0  0  0  0  0  0  0  0  0  0
  184.0140  178.7590  139.8380 C   0  0  0  0  0  2  0  0  0  0  0  0
  182.8060  177.8450  139.6420 C   0  0  2  0  0  3  0  0  0  0  0  0
  186.6560  178.9210  137.8890 C   0  0  0  0  0  2  0  0  0  0  0  0
  187.1860  178.4610  141.4120 C   0  0  2  0  0  3  0  0  0  0  0  0
  186.9380  177.1520  136.5120 C   0  0  1  0  0  3  0  0  0  0  0  0
  183.5940  176.3190  137.7860 C   0  0  2  0  0  3  0  0  0  0  0  0
  184.2640  174.9640  137.5180 C   0  0  2  0  0  3  0  0  0  0  0  0
  187.7150  177.6570  140.2270 C   0  0  0  0  0  2  0  0  0  0  0  0
  188.5200  178.4880  139.4240 O   0  0  0  0  0  0  0  0  0  0  0  0
  188.9270  179.2750  137.3150 O   0  0  0  0  0  1  0  0  0  0  0  0
  183.7100  171.8880  137.0650 C   0  0  0  0  0  2  0  0  0  0  0  0
  182.8490  170.2440  135.3380 C   0  0  2  0  0  3  0  0  0  0  0  0
  183.8980  172.4160  134.5540 C   0  0  0  0  0  2  0  0  0  0  0  0
  183.9200  170.8940  134.4450 C   0  0  0  0  0  2  0  0  0  0  0  0
  182.5060  171.0840  136.5820 C   0  0  0  0  0  2  0  0  0  0  0  0
  184.1980  172.8740  135.9920 C   0  0  1  0  0  3  0  0  0  0  0  0
  183.2270  168.8410  135.7180 C   0  0  0  0  0  0  0  0  0  0  0  0
  183.2630  167.9400  134.8400 O   0  0  0  0  0  0  0  0  0  0  0  0
  183.5990  168.5310  137.0230 O   0  0  0  0  0  1  0  0  0  0  0  0
  187.0920  177.6440  142.7070 C   0  0  0  0  0  2  0  0  0  0  0  0
  188.4460  178.5980  146.0280 O   0  0  0  0  0  0  0  0  0  0  0  0
  184.9900  179.2200  144.4830 O   0  0  0  0  0  0  0  0  0  0  0  0
  188.0040  177.5360  146.8590 C   0  0  1  0  0  3  0  0  0  0  0  0
  186.8250  176.7120  146.3170 C   0  0  0  0  0  2  0  0  0  0  0  0
  185.9490  178.4600  144.7780 C   0  0  0  0  0  0  0  0  0  0  0  0
  187.2070  178.5310  143.9400 C   0  0  1  0  0  3  0  0  0  0  0  0
  185.7960  177.5780  145.8580 O   0  0  0  0  0  0  0  0  0  0  0  0
  188.4850  178.1580  144.6930 C   0  0  0  0  0  2  0  0  0  0  0  0
  189.1470  176.6850  147.4240 C   0  0  0  0  0  2  0  0  0  0  0  0
  190.4920  177.4040  147.4420 C   0  0  0  0  0  2  0  0  0  0  0  0
  191.5050  176.7180  146.5360 C   0  0  1  0  0  3  0  0  0  0  0  0
  192.1500  175.5320  147.2550 C   0  0  0  0  0  3  0  0  0  0  0  0
  193.0390  175.9780  148.2340 O   0  0  0  0  0  1  0  0  0  0  0  0
  191.1640  174.7530  147.8590 O   0  0  0  0  0  1  0  0  0  0  0  0
  190.8390  176.2820  145.3580 O   0  0  0  0  0  0  0  0  0  0  0  0
  191.4970  176.1750  144.1310 C   0  0  0  0  0  0  0  0  0  0  0  0
  191.5690  177.1570  143.3450 O   0  0  0  0  0  0  0  0  0  0  0  0
  192.0610  174.9950  143.7750 F   0  0  0  0  0  0  0  0  0  0  0  0
  1 13  1  0  0  0  0
  2 16  1  0  0  0  0
  5  4  1  0  0  0  0
  6  7  1  6  0  0  0
  6 11  1  0  0  0  0
  7  9  1  0  0  0  0
  8 19  1  0  0  0  0
  9  5  1  0  0  0  0
 10 20  1  0  0  0  0
 11  4  1  1  0  0  0
 11 23  1  0  0  0  0
 12 27  1  6  0  0  0
 12 26  1  0  0  0  0
 14 12  1  0  0  0  0
 15 17  1  6  0  0  0
 15 24  1  0  0  0  0
 16 21  1  0  0  0  0
 17  6  1  0  0  0  0
 18  2  1  0  0  0  0
 19 18  1  0  0  0  0
 19  3  1  1  0  0  0
 20 12  1  0  0  0  0
 21 37  1  1  0  0  0
 22  1  1  1  0  0  0
 22 10  1  0  0  0  0
 22 14  1  0  0  0  0
 23  8  1  1  0  0  0
 24 13  1  6  0  0  0
 24 23  1  0  0  0  0
 25 21  1  0  0  0  0
 26 25  1  0  0  0  0
 29 34  1  1  0  0  0
 29 32  1  0  0  0  0
 31 30  1  0  0  0  0
 31 29  1  0  0  0  0
 32 28  1  0  0  0  0
 33 30  1  6  0  0  0
 33 15  1  0  0  0  0
 33 28  1  0  0  0  0
 34 36  1  0  0  0  0
 35 34  2  0  0  0  0
 38 40  1  0  0  0  0
 39 42  2  0  0  0  0
 40 46  1  6  0  0  0
 41 40  1  0  0  0  0
 42 44  1  0  0  0  0
 43 37  1  6  0  0  0
 43 45  1  0  0  0  0
 43 42  1  0  0  0  0
 44 41  1  0  0  0  0
 45 38  1  0  0  0  0
 46 47  1  0  0  0  0
 48 49  1  0  0  0  0
 48 47  1  1  0  0  0
 49 51  1  0  0  0  0
 49 50  1  0  0  0  0
 52 48  1  0  0  0  0
 53 52  1  0  0  0  0
 54 53  2  0  0  0  0
 55 53  1  0  0  0  0
M  END
>  <MODEL>
6

>  <REMARK>
 VINA RESULT:      -6.7      1.783      3.246
  Name = 
  10 active torsions:
  status: ('A' for Active; 'I' for Inactive)
    1  A    between atoms: C_1  and  O_53
    2  A    between atoms: C_3  and  C_12
    3  A    between atoms: C_3  and  C_38
    4  A    between atoms: C_8  and  C_22
    5  A    between atoms: C_8  and  C_43
    6  A    between atoms: C_10  and  C_32
    7  A    between atoms: C_11  and  C_29
    8  A    between atoms: C_29  and  C_38
    9  A    between atoms: C_29  and  O_53
   10  A    between atoms: C_33  and  C_52
                            x       y       z     vdW  Elec       q    Type
                         _______ _______ _______ _____ _____    ______ ____

>  <TORSDO>
F 10

$$$$
=
 OpenBabel10272401193D

 55 60  0  0  1  0  0  0  0  0999 V2000
  189.0940  178.4680  137.7120 C   0  0  0  0  0  2  0  0  0  0  0  0
  186.5380  174.0710  135.7020 C   0  0  0  0  0  2  0  0  0  0  0  0
  188.7000  171.9620  136.1190 C   0  0  0  0  0  1  0  0  0  0  0  0
  191.9950  174.0910  137.8130 C   0  0  0  0  0  2  0  0  0  0  0  0
  193.4860  173.9870  137.5180 C   0  0  0  0  0  2  0  0  0  0  0  0
  192.0950  176.5500  137.1270 C   0  0  1  0  0  3  0  0  0  0  0  0
  193.6030  176.4040  136.9330 C   0  0  0  0  0  2  0  0  0  0  0  0
  189.0640  174.0950  137.3560 C   0  0  0  0  0  2  0  0  0  0  0  0
  194.1680  175.3120  137.8310 C   0  0  0  0  0  2  0  0  0  0  0  0
  188.6260  177.5430  135.5230 O   0  0  0  0  0  0  0  0  0  0  0  0
  191.3420  175.1990  136.9660 C   0  0  2  0  0  3  0  0  0  0  0  0
  186.3630  178.2820  135.2390 C   0  0  1  0  0  0  0  0  0  0  0  0
  188.6150  177.2590  138.5200 C   0  0  0  0  0  2  0  0  0  0  0  0
  186.8780  178.7960  136.5510 C   0  0  0  0  0  2  0  0  0  0  0  0
  191.0300  176.6150  139.2210 C   0  0  2  0  0  3  0  0  0  0  0  0
  185.6100  174.6300  134.8080 O   0  0  0  0  0  0  0  0  0  0  0  0
  191.8000  177.3360  138.2790 O   0  0  0  0  0  0  0  0  0  0  0  0
  187.9310  174.1170  135.0900 C   0  0  0  0  0  2  0  0  0  0  0  0
  188.9790  173.4480  135.9790 C   0  0  2  0  0  3  0  0  0  0  0  0
  187.4630  177.3520  134.7500 C   0  0  0  0  0  2  0  0  0  0  0  0
  184.6160  175.3110  135.5440 C   0  0  2  0  0  3  0  0  0  0  0  0
  188.3700  178.6270  136.3810 C   0  0  1  0  0  3  0  0  0  0  0  0
  189.8560  175.4010  137.3230 C   0  0  2  0  0  3  0  0  0  0  0  0
  189.6730  176.1550  138.6490 C   0  0  2  0  0  3  0  0  0  0  0  0
  185.1460  176.5670  136.2320 C   0  0  0  0  0  2  0  0  0  0  0  0
  185.0980  177.6470  135.3310 O   0  0  0  0  0  0  0  0  0  0  0  0
  186.2610  179.3540  134.3480 O   0  0  0  0  0  1  0  0  0  0  0  0
  189.7220  176.7940  141.3520 C   0  0  0  0  0  2  0  0  0  0  0  0
  191.0870  176.2440  143.4160 C   0  0  2  0  0  3  0  0  0  0  0  0
  192.2640  177.1870  141.3780 C   0  0  0  0  0  2  0  0  0  0  0  0
  192.0190  177.3420  142.8750 C   0  0  0  0  0  2  0  0  0  0  0  0
  190.1000  175.7120  142.3610 C   0  0  0  0  0  2  0  0  0  0  0  0
  190.9510  177.3040  140.5840 C   0  0  1  0  0  3  0  0  0  0  0  0
  190.3670  176.6950  144.6550 C   0  0  0  0  0  0  0  0  0  0  0  0
  189.1080  176.7130  144.6790 O   0  0  0  0  0  0  0  0  0  0  0  0
  191.0720  177.0370  145.8050 O   0  0  0  0  0  1  0  0  0  0  0  0
  183.8160  174.3970  136.4800 C   0  0  0  0  0  2  0  0  0  0  0  0
  180.4150  175.8150  136.9250 O   0  0  0  0  0  0  0  0  0  0  0  0
  181.5240  172.2440  136.0660 O   0  0  0  0  0  0  0  0  0  0  0  0
  180.1310  175.5170  138.2820 C   0  0  1  0  0  3  0  0  0  0  0  0
  180.9750  174.3970  138.9090 C   0  0  0  0  0  2  0  0  0  0  0  0
  181.5930  173.2840  136.7710 C   0  0  0  0  0  0  0  0  0  0  0  0
  182.3200  174.4880  136.2090 C   0  0  1  0  0  3  0  0  0  0  0  0
  181.0060  173.2690  138.0450 O   0  0  0  0  0  0  0  0  0  0  0  0
  181.8080  175.8300  136.7340 C   0  0  0  0  0  2  0  0  0  0  0  0
  179.9970  176.7620  139.1670 C   0  0  0  0  0  2  0  0  0  0  0  0
  181.1970  176.9930  140.0800 C   0  0  0  0  0  2  0  0  0  0  0  0
  181.4090  178.4740  140.3600 C   0  0  1  0  0  3  0  0  0  0  0  0
  180.8420  178.8470  141.7310 C   0  0  0  0  0  3  0  0  0  0  0  0
  181.8200  178.7110  142.7170 O   0  0  0  0  0  1  0  0  0  0  0  0
  180.3950  180.1670  141.7140 O   0  0  0  0  0  1  0  0  0  0  0  0
  182.8030  178.7510  140.3070 O   0  0  0  0  0  0  0  0  0  0  0  0
  183.3880  179.4110  139.2230 C   0  0  0  0  0  0  0  0  0  0  0  0
  184.6350  179.3880  139.0470 O   0  0  0  0  0  0  0  0  0  0  0  0
  182.6040  180.0910  138.3530 F   0  0  0  0  0  0  0  0  0  0  0  0
  1 13  1  0  0  0  0
  5  4  1  0  0  0  0
  5  9  1  0  0  0  0
  6  7  1  1  0  0  0
  6 17  1  0  0  0  0
  7  9  1  0  0  0  0
 10 22  1  0  0  0  0
 11  6  1  0  0  0  0
 11 23  1  0  0  0  0
 11  4  1  1  0  0  0
 12 27  1  6  0  0  0
 12 26  1  0  0  0  0
 12 14  1  0  0  0  0
 15 17  1  6  0  0  0
 15 33  1  0  0  0  0
 16 21  1  0  0  0  0
 16  2  1  0  0  0  0
 18  2  1  0  0  0  0
 18 19  1  0  0  0  0
 19  3  1  1  0  0  0
 19  8  1  0  0  0  0
 20 12  1  0  0  0  0
 20 10  1  0  0  0  0
 21 25  1  0  0  0  0
 21 37  1  1  0  0  0
 22 14  1  1  0  0  0
 22  1  1  0  0  0  0
 23  8  1  1  0  0  0
 23 24  1  0  0  0  0
 24 13  1  6  0  0  0
 24 15  1  0  0  0  0
 26 25  1  0  0  0  0
 28 32  1  0  0  0  0
 29 34  1  1  0  0  0
 30 31  1  0  0  0  0
 31 29  1  0  0  0  0
 32 29  1  0  0  0  0
 33 28  1  1  0  0  0
 33 30  1  0  0  0  0
 34 35  2  0  0  0  0
 34 36  1  0  0  0  0
 38 40  1  0  0  0  0
 39 42  2  0  0  0  0
 40 41  1  0  0  0  0
 40 46  1  1  0  0  0
 42 44  1  0  0  0  0
 43 37  1  1  0  0  0
 43 45  1  0  0  0  0
 43 42  1  0  0  0  0
 44 41  1  0  0  0  0
 45 38  1  0  0  0  0
 46 47  1  0  0  0  0
 48 47  1  1  0  0  0
 48 49  1  0  0  0  0
 49 50  1  0  0  0  0
 51 49  1  0  0  0  0
 52 48  1  0  0  0  0
 53 52  1  0  0  0  0
 54 53  2  0  0  0  0
 55 53  1  0  0  0  0
M  END
>  <MODEL>
7

>  <REMARK>
 VINA RESULT:      -6.3      2.963      9.441
  Name = 
  10 active torsions:
  status: ('A' for Active; 'I' for Inactive)
    1  A    between atoms: C_1  and  O_53
    2  A    between atoms: C_3  and  C_12
    3  A    between atoms: C_3  and  C_38
    4  A    between atoms: C_8  and  C_22
    5  A    between atoms: C_8  and  C_43
    6  A    between atoms: C_10  and  C_32
    7  A    between atoms: C_11  and  C_29
    8  A    between atoms: C_29  and  C_38
    9  A    between atoms: C_29  and  O_53
   10  A    between atoms: C_33  and  C_52
                            x       y       z     vdW  Elec       q    Type
                         _______ _______ _______ _____ _____    ______ ____

>  <TORSDO>
F 10

$$$$
=
 OpenBabel10272401193D

 55 60  0  0  1  0  0  0  0  0999 V2000
  186.4810  174.3040  135.4230 C   0  0  0  0  0  2  0  0  0  0  0  0
  187.4280  178.1750  139.1670 C   0  0  0  0  0  2  0  0  0  0  0  0
  184.5650  178.9900  139.8250 C   0  0  0  0  0  1  0  0  0  0  0  0
  182.1260  176.5850  137.2710 C   0  0  0  0  0  2  0  0  0  0  0  0
  180.8860  176.9550  136.4650 C   0  0  0  0  0  2  0  0  0  0  0  0
  183.2690  175.9160  135.0860 C   0  0  1  0  0  3  0  0  0  0  0  0
  181.9680  176.2210  134.3460 C   0  0  0  0  0  2  0  0  0  0  0  0
  184.7820  176.8510  138.5650 C   0  0  0  0  0  2  0  0  0  0  0  0
  180.7620  176.0350  135.2580 C   0  0  0  0  0  2  0  0  0  0  0  0
  187.1360  176.6350  135.4270 O   0  0  0  0  0  0  0  0  0  0  0  0
  183.3990  176.7150  136.4140 C   0  0  2  0  0  3  0  0  0  0  0  0
  189.4750  176.4040  135.9030 C   0  0  1  0  0  0  0  0  0  0  0  0
  186.1510  174.2110  136.9150 C   0  0  0  0  0  2  0  0  0  0  0  0
  188.8640  175.0370  135.8120 C   0  0  0  0  0  2  0  0  0  0  0  0
  183.5990  174.0430  136.4660 C   0  0  2  0  0  3  0  0  0  0  0  0
  188.7220  178.6150  138.8420 O   0  0  0  0  0  0  0  0  0  0  0  0
  183.5150  174.5130  135.1340 O   0  0  0  0  0  0  0  0  0  0  0  0
  186.4280  178.7350  138.1650 C   0  0  0  0  0  2  0  0  0  0  0  0
  184.9880  178.3600  138.5110 C   0  0  2  0  0  3  0  0  0  0  0  0
  188.2830  177.3470  135.8340 C   0  0  0  0  0  2  0  0  0  0  0  0
  189.6460  177.5930  139.1480 C   0  0  2  0  0  3  0  0  0  0  0  0
  187.5590  175.3320  135.1080 C   0  0  1  0  0  3  0  0  0  0  0  0
  184.6570  176.2420  137.1690 C   0  0  2  0  0  3  0  0  0  0  0  0
  184.7410  174.7120  137.2580 C   0  0  2  0  0  3  0  0  0  0  0  0
  189.5140  176.3810  138.2290 C   0  0  0  0  0  2  0  0  0  0  0  0
  190.2710  176.5970  137.0620 O   0  0  0  0  0  0  0  0  0  0  0  0
  190.2710  176.6140  134.7750 O   0  0  0  0  0  1  0  0  0  0  0  0
  182.1030  172.0490  136.7370 C   0  0  0  0  0  2  0  0  0  0  0  0
  182.2830  170.3920  134.8260 C   0  0  2  0  0  3  0  0  0  0  0  0
  184.2910  171.8320  135.4000 C   0  0  0  0  0  2  0  0  0  0  0  0
  183.7790  170.4110  135.1860 C   0  0  0  0  0  2  0  0  0  0  0  0
  181.5040  171.5840  135.4120 C   0  0  0  0  0  2  0  0  0  0  0  0
  183.5570  172.5170  136.5670 C   0  0  1  0  0  3  0  0  0  0  0  0
  181.6420  169.0880  135.2040 C   0  0  0  0  0  0  0  0  0  0  0  0
  180.3950  168.9470  135.1040 O   0  0  0  0  0  0  0  0  0  0  0  0
  182.4170  168.0040  135.6080 O   0  0  0  0  0  1  0  0  0  0  0  0
  189.6780  177.2260  140.6370 C   0  0  0  0  0  2  0  0  0  0  0  0
  190.8570  179.2680  143.5030 O   0  0  0  0  0  0  0  0  0  0  0  0
  187.4380  179.1670  141.7640 O   0  0  0  0  0  0  0  0  0  0  0  0
  190.4320  178.5060  144.6210 C   0  0  1  0  0  3  0  0  0  0  0  0
  189.3150  177.4870  144.3480 C   0  0  0  0  0  2  0  0  0  0  0  0
  188.4190  178.5970  142.3090 C   0  0  0  0  0  0  0  0  0  0  0  0
  189.7040  178.4660  141.5210 C   0  0  1  0  0  3  0  0  0  0  0  0
  188.2650  178.1010  143.6130 O   0  0  0  0  0  0  0  0  0  0  0  0
  190.9670  178.4270  142.3820 C   0  0  0  0  0  2  0  0  0  0  0  0
  191.5900  177.9470  145.4560 C   0  0  0  0  0  2  0  0  0  0  0  0
  191.5400  176.4320  145.6310 C   0  0  0  0  0  2  0  0  0  0  0  0
  191.1080  176.0460  147.0390 C   0  0  1  0  0  3  0  0  0  0  0  0
  192.3150  175.6040  147.8680 C   0  0  0  0  0  3  0  0  0  0  0  0
  193.2430  174.9420  147.0640 O   0  0  0  0  0  1  0  0  0  0  0  0
  192.9250  176.7160  148.4440 O   0  0  0  0  0  1  0  0  0  0  0  0
  190.4750  177.1670  147.6430 O   0  0  0  0  0  0  0  0  0  0  0  0
  189.0940  177.2180  147.8470 C   0  0  0  0  0  0  0  0  0  0  0  0
  188.6050  177.8660  148.8110 O   0  0  0  0  0  0  0  0  0  0  0  0
  188.2680  176.5570  147.0010 F   0  0  0  0  0  0  0  0  0  0  0  0
  1 13  1  0  0  0  0
  5  4  1  0  0  0  0
  6  7  1  1  0  0  0
  6 17  1  0  0  0  0
  6 11  1  0  0  0  0
  7  9  1  0  0  0  0
  9  5  1  0  0  0  0
 10 20  1  0  0  0  0
 11 23  1  0  0  0  0
 11  4  1  1  0  0  0
 12 27  1  6  0  0  0
 12 26  1  0  0  0  0
 14 12  1  0  0  0  0
 15 17  1  6  0  0  0
 15 33  1  0  0  0  0
 15 24  1  0  0  0  0
 16 21  1  0  0  0  0
 16  2  1  0  0  0  0
 18 19  1  0  0  0  0
 18  2  1  0  0  0  0
 19  8  1  0  0  0  0
 19  3  1  1  0  0  0
 20 12  1  0  0  0  0
 21 37  1  1  0  0  0
 22  1  1  1  0  0  0
 22 10  1  0  0  0  0
 22 14  1  0  0  0  0
 23 24  1  0  0  0  0
 23  8  1  1  0  0  0
 24 13  1  6  0  0  0
 25 21  1  0  0  0  0
 26 25  1  0  0  0  0
 29 31  1  0  0  0  0
 29 34  1  1  0  0  0
 29 32  1  0  0  0  0
 31 30  1  0  0  0  0
 32 28  1  0  0  0  0
 33 30  1  6  0  0  0
 33 28  1  0  0  0  0
 34 36  1  0  0  0  0
 35 34  2  0  0  0  0
 38 40  1  0  0  0  0
 39 42  2  0  0  0  0
 40 46  1  6  0  0  0
 41 40  1  0  0  0  0
 42 44  1  0  0  0  0
 43 37  1  1  0  0  0
 43 42  1  0  0  0  0
 43 45  1  0  0  0  0
 44 41  1  0  0  0  0
 45 38  1  0  0  0  0
 46 47  1  0  0  0  0
 48 47  1  6  0  0  0
 48 52  1  0  0  0  0
 48 49  1  0  0  0  0
 49 51  1  0  0  0  0
 50 49  1  0  0  0  0
 52 53  1  0  0  0  0
 53 54  2  0  0  0  0
 55 53  1  0  0  0  0
M  END
>  <MODEL>
8

>  <REMARK>
 VINA RESULT:      -6.2      1.740      2.482
  Name = 
  10 active torsions:
  status: ('A' for Active; 'I' for Inactive)
    1  A    between atoms: C_1  and  O_53
    2  A    between atoms: C_3  and  C_12
    3  A    between atoms: C_3  and  C_38
    4  A    between atoms: C_8  and  C_22
    5  A    between atoms: C_8  and  C_43
    6  A    between atoms: C_10  and  C_32
    7  A    between atoms: C_11  and  C_29
    8  A    between atoms: C_29  and  C_38
    9  A    between atoms: C_29  and  O_53
   10  A    between atoms: C_33  and  C_52
                            x       y       z     vdW  Elec       q    Type
                         _______ _______ _______ _____ _____    ______ ____

>  <TORSDO>
F 10

$$$$
=
 OpenBabel10272401193D

 55 60  0  0  1  0  0  0  0  0999 V2000
  182.5270  173.9390  137.5090 C   0  0  0  0  0  2  0  0  0  0  0  0
  187.3120  175.4460  135.3340 C   0  0  0  0  0  2  0  0  0  0  0  0
  186.6320  178.2910  134.4740 C   0  0  0  0  0  1  0  0  0  0  0  0
  182.5250  178.8040  135.5320 C   0  0  0  0  0  2  0  0  0  0  0  0
  181.3890  179.4680  134.7620 C   0  0  0  0  0  2  0  0  0  0  0  0
  181.1790  176.6320  135.5210 C   0  0  1  0  0  3  0  0  0  0  0  0
  180.0390  177.3760  134.8270 C   0  0  0  0  0  2  0  0  0  0  0  0
  185.0000  177.2530  136.0460 C   0  0  0  0  0  2  0  0  0  0  0  0
  180.0570  178.8580  135.1800 C   0  0  0  0  0  2  0  0  0  0  0  0
  183.7030  173.5980  135.4200 O   0  0  0  0  0  0  0  0  0  0  0  0
  182.5640  177.2890  135.2580 C   0  0  2  0  0  3  0  0  0  0  0  0
  185.2010  171.8430  136.0720 C   0  0  1  0  0  0  0  0  0  0  0  0
  183.4820  174.9890  138.0800 C   0  0  0  0  0  2  0  0  0  0  0  0
  184.3250  172.1890  137.2400 C   0  0  0  0  0  2  0  0  0  0  0  0
  181.7520  176.9020  137.7830 C   0  0  2  0  0  3  0  0  0  0  0  0
  187.8860  174.2190  134.9600 O   0  0  0  0  0  0  0  0  0  0  0  0
  180.8420  176.3210  136.8700 O   0  0  0  0  0  0  0  0  0  0  0  0
  186.2150  175.8210  134.3460 C   0  0  0  0  0  2  0  0  0  0  0  0
  185.6040  177.1880  134.6490 C   0  0  2  0  0  3  0  0  0  0  0  0
  184.8680  172.9030  135.0340 C   0  0  0  0  0  2  0  0  0  0  0  0
  188.2370  173.5020  136.1240 C   0  0  2  0  0  3  0  0  0  0  0  0
  183.2080  172.9530  136.5670 C   0  0  1  0  0  3  0  0  0  0  0  0
  183.6330  176.5740  136.1080 C   0  0  2  0  0  3  0  0  0  0  0  0
  183.1980  176.4090  137.5710 C   0  0  2  0  0  3  0  0  0  0  0  0
  187.0210  173.0230  136.9130 C   0  0  0  0  0  2  0  0  0  0  0  0
  186.5830  171.7920  136.3910 O   0  0  0  0  0  0  0  0  0  0  0  0
  184.8110  170.5970  135.5740 O   0  0  0  0  0  1  0  0  0  0  0  0
  182.4480  177.0650  140.1870 C   0  0  0  0  0  2  0  0  0  0  0  0
  181.2520  178.9080  141.4540 C   0  0  2  0  0  3  0  0  0  0  0  0
  180.0860  177.8100  139.4870 C   0  0  0  0  0  2  0  0  0  0  0  0
  179.9880  178.1800  140.9640 C   0  0  0  0  0  2  0  0  0  0  0  0
  182.5200  178.5100  140.6760 C   0  0  0  0  0  2  0  0  0  0  0  0
  181.2630  176.8510  139.2320 C   0  0  1  0  0  3  0  0  0  0  0  0
  181.4470  178.7350  142.9330 C   0  0  0  0  0  0  0  0  0  0  0  0
  180.4530  178.5330  143.6790 O   0  0  0  0  0  1  0  0  0  0  0  0
  182.7230  178.7360  143.4890 O   0  0  0  0  0  0  0  0  0  0  0  0
  189.2790  174.2200  136.9910 C   0  0  0  0  0  2  0  0  0  0  0  0
  192.2990  175.3440  135.1480 O   0  0  0  0  0  0  0  0  0  0  0  0
  189.7020  177.3590  137.1280 O   0  0  0  0  0  0  0  0  0  0  0  0
  193.2810  175.4010  136.1700 C   0  0  1  0  0  3  0  0  0  0  0  0
  192.7440  175.4800  137.6070 C   0  0  0  0  0  2  0  0  0  0  0  0
  190.5080  176.4000  137.0190 C   0  0  0  0  0  0  0  0  0  0  0  0
  190.1010  175.2100  136.1760 C   0  0  1  0  0  3  0  0  0  0  0  0
  191.7350  176.4760  137.6960 O   0  0  0  0  0  0  0  0  0  0  0  0
  191.2740  174.4640  135.5380 C   0  0  0  0  0  2  0  0  0  0  0  0
  194.4130  174.3840  135.9860 C   0  0  0  0  0  2  0  0  0  0  0  0
  195.2150  174.1270  137.2580 C   0  0  0  0  0  2  0  0  0  0  0  0
  196.6280  173.6570  136.9440 C   0  0  1  0  0  3  0  0  0  0  0  0
  197.6340  174.7820  137.1920 C   0  0  0  0  0  3  0  0  0  0  0  0
  197.1830  175.9740  136.6260 O   0  0  0  0  0  1  0  0  0  0  0  0
  197.8070  174.9660  138.5630 O   0  0  0  0  0  1  0  0  0  0  0  0
  196.9260  172.5340  137.7640 O   0  0  0  0  0  0  0  0  0  0  0  0
  196.9790  171.2350  137.2530 C   0  0  0  0  0  0  0  0  0  0  0  0
  196.2640  170.3180  137.7370 O   0  0  0  0  0  0  0  0  0  0  0  0
  197.8170  170.9540  136.2250 F   0  0  0  0  0  0  0  0  0  0  0  0
  1 13  1  0  0  0  0
  5  9  1  0  0  0  0
  5  4  1  0  0  0  0
  6  7  1  1  0  0  0
  6 17  1  0  0  0  0
  7  9  1  0  0  0  0
 10 22  1  0  0  0  0
 11  6  1  0  0  0  0
 11  4  1  1  0  0  0
 11 23  1  0  0  0  0
 12 27  1  6  0  0  0
 12 26  1  0  0  0  0
 12 14  1  0  0  0  0
 15 17  1  6  0  0  0
 15 33  1  0  0  0  0
 16  2  1  0  0  0  0
 16 21  1  0  0  0  0
 18 19  1  0  0  0  0
 18  2  1  0  0  0  0
 19  3  1  1  0  0  0
 19  8  1  0  0  0  0
 20 10  1  0  0  0  0
 20 12  1  0  0  0  0
 21 25  1  0  0  0  0
 21 37  1  1  0  0  0
 22 14  1  1  0  0  0
 22  1  1  0  0  0  0
 23  8  1  1  0  0  0
 23 24  1  0  0  0  0
 24 15  1  0  0  0  0
 24 13  1  6  0  0  0
 26 25  1  0  0  0  0
 28 32  1  0  0  0  0
 29 34  1  1  0  0  0
 30 31  1  0  0  0  0
 31 29  1  0  0  0  0
 32 29  1  0  0  0  0
 33 30  1  6  0  0  0
 33 28  1  0  0  0  0
 34 36  2  0  0  0  0
 34 35  1  0  0  0  0
 38 45  1  0  0  0  0
 38 40  1  0  0  0  0
 40 46  1  1  0  0  0
 40 41  1  0  0  0  0
 41 44  1  0  0  0  0
 42 39  2  0  0  0  0
 42 44  1  0  0  0  0
 43 37  1  1  0  0  0
 43 42  1  0  0  0  0
 45 43  1  0  0  0  0
 46 47  1  0  0  0  0
 48 49  1  0  0  0  0
 48 47  1  1  0  0  0
 48 52  1  0  0  0  0
 49 51  1  0  0  0  0
 50 49  1  0  0  0  0
 53 54  2  0  0  0  0
 53 52  1  0  0  0  0
 55 53  1  0  0  0  0
M  END
>  <MODEL>
9

>  <REMARK>
 VINA RESULT:      -5.7      4.496      8.108
  Name = 
  10 active torsions:
  status: ('A' for Active; 'I' for Inactive)
    1  A    between atoms: C_1  and  O_53
    2  A    between atoms: C_3  and  C_12
    3  A    between atoms: C_3  and  C_38
    4  A    between atoms: C_8  and  C_22
    5  A    between atoms: C_8  and  C_43
    6  A    between atoms: C_10  and  C_32
    7  A    between atoms: C_11  and  C_29
    8  A    between atoms: C_29  and  C_38
    9  A    between atoms: C_29  and  O_53
   10  A    between atoms: C_33  and  C_52
                            x       y       z     vdW  Elec       q    Type
                         _______ _______ _______ _____ _____    ______ ____

>  <TORSDO>
F 10

$$$$
