=
 OpenBabel10272400073D

 34 37  0  0  1  0  0  0  0  0999 V2000
  188.4420  177.4240  143.5310 N   0  0  0  0  0  0  0  0  0  0  0  0
  190.4280  176.1780  142.9250 C   0  0  2  0  0  3  0  0  0  0  0  0
  189.1990  177.1240  144.7440 C   0  0  1  0  0  3  0  0  0  0  0  0
  190.5950  176.7160  144.3290 C   0  0  1  0  0  3  0  0  0  0  0  0
  189.2010  176.9000  142.3920 C   0  0  2  0  0  3  0  0  0  0  0  0
  190.1680  174.8050  142.9430 O   0  0  0  0  0  1  0  0  0  0  0  0
  191.2300  176.8450  139.8890 C   0  0  0  0  0  3  0  0  0  0  0  0
  189.4210  177.7790  137.8390 C   0  0  0  0  0  3  0  0  0  0  0  0
  189.6080  178.0460  141.4580 C   0  0  2  0  0  3  0  0  0  0  0  0
  190.5710  176.9140  137.3670 C   0  0  0  0  0  2  0  0  0  0  0  0
  189.2480  178.0060  139.1400 C   0  0  0  0  0  0  0  0  0  0  0  0
  188.4200  178.8740  141.1280 N   0  0  0  0  0  0  0  0  0  0  0  0
  190.1180  177.5280  140.1540 C   0  0  0  0  0  0  0  0  0  0  0  0
  191.5270  176.5200  138.4790 C   0  0  0  0  0  0  0  0  0  0  0  0
  192.5800  175.8910  138.1970 O   0  0  0  0  0  0  0  0  0  0  0  0
  188.2520  178.8000  139.7290 N   0  0  0  0  0  0  0  0  0  0  0  0
  191.1090  175.7500  145.1990 O   0  0  0  0  0  0  0  0  0  0  0  0
  191.9990  176.4450  146.0210 C   0  0  0  0  0  2  0  0  0  0  0  0
  192.1700  175.6970  147.3260 C   0  0  0  0  0  1  0  0  0  0  0  0
  187.2020  176.6650  143.5960 C   0  0  0  0  0  2  0  0  0  0  0  0
  186.0670  177.5750  144.0240 C   0  0  0  0  0  2  0  0  0  0  0  0
  184.7390  178.4130  141.8670 C   0  0  0  0  0  0  0  0  0  0  0  0
  185.3390  178.0350  142.8410 C   0  0  0  0  0  0  0  0  0  0  0  0
  182.6230  176.8940  140.3610 O   0  0  0  0  0  0  0  0  0  0  0  0
  184.0110  178.8740  140.6800 C   0  0  2  0  0  3  0  0  0  0  0  0
  183.4650  177.7270  139.9330 C   0  0  0  0  0  0  0  0  0  0  0  0
  183.7820  176.9310  137.7110 O   0  0  0  0  0  0  0  0  0  0  0  0
  184.9190  178.9130  138.5480 C   0  0  0  0  0  2  0  0  0  0  0  0
  184.9030  179.5670  139.8130 O   0  0  0  0  0  0  0  0  0  0  0  0
  184.0200  177.7520  138.6350 C   0  0  0  0  0  0  0  0  0  0  0  0
  189.2480  178.3570  145.6310 C   0  0  0  0  0  2  0  0  0  0  0  0
  189.0860  177.8840  147.3760 S   0  0  0  0  0  0  0  0  0  0  0  0
  187.3240  177.5100  147.1770 C   0  0  0  0  0  2  0  0  0  0  0  0
  186.5130  178.7670  147.4130 C   0  0  0  0  0  1  0  0  0  0  0  0
  1 20  1  0  0  0  0
  1  3  1  0  0  0  0
  2  6  1  1  0  0  0
  2  4  1  0  0  0  0
  3 31  1  1  0  0  0
  4  3  1  0  0  0  0
  4 17  1  1  0  0  0
  5  2  1  0  0  0  0
  5  1  1  1  0  0  0
  7 13  2  0  0  0  0
  8 11  2  0  0  0  0
  9 13  1  6  0  0  0
  9  5  1  0  0  0  0
 10  8  1  0  0  0  0
 10 14  1  0  0  0  0
 11 16  1  0  0  0  0
 11 13  1  0  0  0  0
 12  9  1  0  0  0  0
 14  7  1  0  0  0  0
 15 14  2  0  0  0  0
 16 12  2  0  0  0  0
 17 18  1  0  0  0  0
 18 19  1  0  0  0  0
 20 21  1  0  0  0  0
 22 23  3  0  0  0  0
 23 21  1  0  0  0  0
 25 22  1  1  0  0  0
 26 24  2  0  0  0  0
 26 25  1  0  0  0  0
 27 30  2  0  0  0  0
 28 30  1  0  0  0  0
 28 29  1  0  0  0  0
 29 25  1  0  0  0  0
 30 26  1  0  0  0  0
 31 32  1  0  0  0  0
 33 32  1  0  0  0  0
 33 34  1  0  0  0  0
M  END
>  <MODEL>
1

>  <REMARK>
 VINA RESULT:      -7.3      0.000      0.000
  Name = 
  10 active torsions:
  status: ('A' for Active; 'I' for Inactive)
    1  A    between atoms: C_3  and  C_13
    2  A    between atoms: C_4  and  C_31
    3  A    between atoms: N_5  and  C_18
    4  A    between atoms: C_7  and  O_8
    5  A    between atoms: O_8  and  C_28
    6  A    between atoms: C_12  and  S_16
    7  A    between atoms: S_16  and  C_23
    8  A    between atoms: C_17  and  C_29
    9  A    between atoms: C_18  and  C_29
   10  A    between atoms: C_23  and  C_26
                            x       y       z     vdW  Elec       q    Type
                         _______ _______ _______ _____ _____    ______ ____

>  <TORSDO>
F 10

$$$$
=
 OpenBabel10272400073D

 34 37  0  0  1  0  0  0  0  0999 V2000
  188.7240  177.6580  140.8640 N   0  0  0  0  0  0  0  0  0  0  0  0
  191.0220  176.9310  141.0940 C   0  0  2  0  0  3  0  0  0  0  0  0
  189.2430  177.3100  139.5440 C   0  0  1  0  0  3  0  0  0  0  0  0
  190.5020  176.4970  139.7410 C   0  0  1  0  0  3  0  0  0  0  0  0
  189.7800  177.3840  141.8430 C   0  0  2  0  0  3  0  0  0  0  0  0
  191.8930  178.0170  140.9700 O   0  0  0  0  0  1  0  0  0  0  0  0
  190.9470  176.6820  144.7630 C   0  0  0  0  0  3  0  0  0  0  0  0
  188.5270  177.0420  146.3000 C   0  0  0  0  0  3  0  0  0  0  0  0
  189.3160  176.3070  142.8300 C   0  0  2  0  0  3  0  0  0  0  0  0
  189.8270  177.2470  147.0490 C   0  0  0  0  0  2  0  0  0  0  0  0
  188.5440  176.7890  144.9920 C   0  0  0  0  0  0  0  0  0  0  0  0
  187.8330  176.2440  142.8500 N   0  0  0  0  0  0  0  0  0  0  0  0
  189.7290  176.6370  144.2270 C   0  0  0  0  0  0  0  0  0  0  0  0
  191.0600  176.9690  146.2080 C   0  0  0  0  0  0  0  0  0  0  0  0
  192.1970  177.0000  146.7460 O   0  0  0  0  0  0  0  0  0  0  0  0
  187.4330  176.5530  144.1680 N   0  0  0  0  0  0  0  0  0  0  0  0
  191.4250  176.7540  138.7220 O   0  0  0  0  0  0  0  0  0  0  0  0
  191.6980  175.5050  138.1620 C   0  0  0  0  0  2  0  0  0  0  0  0
  193.1370  175.4660  137.6920 C   0  0  0  0  0  1  0  0  0  0  0  0
  188.5010  179.0960  140.8760 C   0  0  0  0  0  2  0  0  0  0  0  0
  187.2740  179.4170  141.7090 C   0  0  0  0  0  2  0  0  0  0  0  0
  185.0770  178.7380  140.3550 C   0  0  0  0  0  0  0  0  0  0  0  0
  186.0700  179.0440  140.9660 C   0  0  0  0  0  0  0  0  0  0  0  0
  183.2640  180.5920  138.8290 O   0  0  0  0  0  0  0  0  0  0  0  0
  183.8690  178.3620  139.6130 C   0  0  2  0  0  3  0  0  0  0  0  0
  182.9850  179.5290  139.4450 C   0  0  0  0  0  0  0  0  0  0  0  0
  180.7450  179.9820  140.1130 O   0  0  0  0  0  0  0  0  0  0  0  0
  181.8410  177.8700  140.6190 C   0  0  0  0  0  2  0  0  0  0  0  0
  183.1480  177.3760  140.3420 O   0  0  0  0  0  0  0  0  0  0  0  0
  181.7500  179.2270  140.0590 C   0  0  0  0  0  0  0  0  0  0  0  0
  188.2030  176.5020  138.7860 C   0  0  0  0  0  2  0  0  0  0  0  0
  187.3730  177.5440  137.5510 S   0  0  0  0  0  0  0  0  0  0  0  0
  188.2290  176.7140  136.1850 C   0  0  0  0  0  2  0  0  0  0  0  0
  189.4310  177.5350  135.7690 C   0  0  0  0  0  1  0  0  0  0  0  0
  1 20  1  0  0  0  0
  2  6  1  6  0  0  0
  2  5  1  0  0  0  0
  3 31  1  1  0  0  0
  3  4  1  0  0  0  0
  3  1  1  0  0  0  0
  4 17  1  6  0  0  0
  4  2  1  0  0  0  0
  5  1  1  6  0  0  0
  5  9  1  0  0  0  0
  7 14  1  0  0  0  0
  8 10  1  0  0  0  0
  9 12  1  1  0  0  0
  9 13  1  0  0  0  0
 11  8  2  0  0  0  0
 12 16  2  0  0  0  0
 13  7  2  0  0  0  0
 13 11  1  0  0  0  0
 14 15  2  0  0  0  0
 14 10  1  0  0  0  0
 16 11  1  0  0  0  0
 18 17  1  0  0  0  0
 19 18  1  0  0  0  0
 20 21  1  0  0  0  0
 22 23  3  0  0  0  0
 23 21  1  0  0  0  0
 24 26  2  0  0  0  0
 25 29  1  0  0  0  0
 25 22  1  1  0  0  0
 26 25  1  0  0  0  0
 26 30  1  0  0  0  0
 29 28  1  0  0  0  0
 30 27  2  0  0  0  0
 30 28  1  0  0  0  0
 32 31  1  0  0  0  0
 33 32  1  0  0  0  0
 34 33  1  0  0  0  0
M  END
>  <MODEL>
2

>  <REMARK>
 VINA RESULT:      -6.2      2.434      6.009
  Name = 
  10 active torsions:
  status: ('A' for Active; 'I' for Inactive)
    1  A    between atoms: C_3  and  C_13
    2  A    between atoms: C_4  and  C_31
    3  A    between atoms: N_5  and  C_18
    4  A    between atoms: C_7  and  O_8
    5  A    between atoms: O_8  and  C_28
    6  A    between atoms: C_12  and  S_16
    7  A    between atoms: S_16  and  C_23
    8  A    between atoms: C_17  and  C_29
    9  A    between atoms: C_18  and  C_29
   10  A    between atoms: C_23  and  C_26
                            x       y       z     vdW  Elec       q    Type
                         _______ _______ _______ _____ _____    ______ ____

>  <TORSDO>
F 10

$$$$
=
 OpenBabel10272400073D

 34 37  0  0  1  0  0  0  0  0999 V2000
  190.5890  176.4250  139.8530 N   0  0  0  0  0  0  0  0  0  0  0  0
  188.6430  177.6970  139.1790 C   0  0  2  0  0  3  0  0  0  0  0  0
  190.0380  177.1000  141.0260 C   0  0  1  0  0  3  0  0  0  0  0  0
  188.6340  177.5470  140.6850 C   0  0  1  0  0  3  0  0  0  0  0  0
  189.7210  176.7320  138.7140 C   0  0  2  0  0  3  0  0  0  0  0  0
  189.0100  178.9950  138.8080 O   0  0  0  0  0  1  0  0  0  0  0  0
  187.0890  176.3790  136.8890 C   0  0  0  0  0  3  0  0  0  0  0  0
  188.2900  175.0060  134.6490 C   0  0  0  0  0  3  0  0  0  0  0  0
  189.0970  175.4440  138.1650 C   0  0  2  0  0  3  0  0  0  0  0  0
  187.0400  175.8050  134.3460 C   0  0  0  0  0  2  0  0  0  0  0  0
  188.8130  175.0270  135.8740 C   0  0  0  0  0  0  0  0  0  0  0  0
  190.1650  174.5260  137.6940 N   0  0  0  0  0  0  0  0  0  0  0  0
  188.2430  175.7210  136.9710 C   0  0  0  0  0  0  0  0  0  0  0  0
  186.4140  176.4390  135.5750 C   0  0  0  0  0  0  0  0  0  0  0  0
  185.3130  177.0400  135.4710 O   0  0  0  0  0  0  0  0  0  0  0  0
  189.9450  174.3240  136.3150 N   0  0  0  0  0  0  0  0  0  0  0  0
  188.3260  178.7510  141.3270 O   0  0  0  0  0  0  0  0  0  0  0  0
  187.2310  178.4530  142.1390 C   0  0  0  0  0  2  0  0  0  0  0  0
  186.0030  179.1660  141.6130 C   0  0  0  0  0  1  0  0  0  0  0  0
  191.8820  177.0320  139.5730 C   0  0  0  0  0  2  0  0  0  0  0  0
  192.2110  176.8790  138.1010 C   0  0  0  0  0  2  0  0  0  0  0  0
  194.1760  175.0970  137.8090 C   0  0  0  0  0  0  0  0  0  0  0  0
  193.2890  175.9030  137.9410 C   0  0  0  0  0  0  0  0  0  0  0  0
  196.2410  174.3590  139.8690 O   0  0  0  0  0  0  0  0  0  0  0  0
  195.2550  174.1160  137.6510 C   0  0  2  0  0  3  0  0  0  0  0  0
  196.3380  174.3840  138.6130 C   0  0  0  0  0  0  0  0  0  0  0  0
  198.6510  174.8900  138.3620 O   0  0  0  0  0  0  0  0  0  0  0  0
  197.1940  174.5190  136.4490 C   0  0  0  0  0  2  0  0  0  0  0  0
  195.8060  174.2200  136.3420 O   0  0  0  0  0  0  0  0  0  0  0  0
  197.5180  174.6300  137.8790 C   0  0  0  0  0  0  0  0  0  0  0  0
  190.0170  176.1390  142.2030 C   0  0  0  0  0  2  0  0  0  0  0  0
  191.3580  176.5360  143.3620 S   0  0  0  0  0  0  0  0  0  0  0  0
  190.4640  177.9790  143.9990 C   0  0  0  0  0  2  0  0  0  0  0  0
  191.4090  179.1590  144.0840 C   0  0  0  0  0  1  0  0  0  0  0  0
  1  3  1  0  0  0  0
  2  6  1  1  0  0  0
  2  4  1  0  0  0  0
  3 31  1  1  0  0  0
  4  3  1  0  0  0  0
  4 17  1  1  0  0  0
  5  2  1  0  0  0  0
  5  1  1  1  0  0  0
  7 13  2  0  0  0  0
  8 11  2  0  0  0  0
  9 13  1  6  0  0  0
  9  5  1  0  0  0  0
 10  8  1  0  0  0  0
 10 14  1  0  0  0  0
 11 16  1  0  0  0  0
 11 13  1  0  0  0  0
 12  9  1  0  0  0  0
 14  7  1  0  0  0  0
 15 14  2  0  0  0  0
 16 12  2  0  0  0  0
 17 18  1  0  0  0  0
 19 18  1  0  0  0  0
 20  1  1  0  0  0  0
 21 20  1  0  0  0  0
 22 23  3  0  0  0  0
 23 21  1  0  0  0  0
 25 22  1  6  0  0  0
 25 26  1  0  0  0  0
 26 24  2  0  0  0  0
 28 30  1  0  0  0  0
 29 28  1  0  0  0  0
 29 25  1  0  0  0  0
 30 27  2  0  0  0  0
 30 26  1  0  0  0  0
 31 32  1  0  0  0  0
 32 33  1  0  0  0  0
 33 34  1  0  0  0  0
M  END
>  <MODEL>
3

>  <REMARK>
 VINA RESULT:      -6.0      3.655      8.155
  Name = 
  10 active torsions:
  status: ('A' for Active; 'I' for Inactive)
    1  A    between atoms: C_3  and  C_13
    2  A    between atoms: C_4  and  C_31
    3  A    between atoms: N_5  and  C_18
    4  A    between atoms: C_7  and  O_8
    5  A    between atoms: O_8  and  C_28
    6  A    between atoms: C_12  and  S_16
    7  A    between atoms: S_16  and  C_23
    8  A    between atoms: C_17  and  C_29
    9  A    between atoms: C_18  and  C_29
   10  A    between atoms: C_23  and  C_26
                            x       y       z     vdW  Elec       q    Type
                         _______ _______ _______ _____ _____    ______ ____

>  <TORSDO>
F 10

$$$$
=
 OpenBabel10272400073D

 34 37  0  0  1  0  0  0  0  0999 V2000
  191.0510  176.2660  137.5160 N   0  0  0  0  0  0  0  0  0  0  0  0
  189.8120  174.4320  136.5360 C   0  0  2  0  0  3  0  0  0  0  0  0
  191.9930  175.3490  136.8770 C   0  0  1  0  0  3  0  0  0  0  0  0
  191.2060  174.4530  135.9480 C   0  0  1  0  0  3  0  0  0  0  0  0
  189.7000  175.7550  137.2760 C   0  0  2  0  0  3  0  0  0  0  0  0
  189.6720  173.3890  137.4560 O   0  0  0  0  0  1  0  0  0  0  0  0
  186.5310  175.8110  136.6920 C   0  0  0  0  0  3  0  0  0  0  0  0
  185.9330  178.4230  137.7720 C   0  0  0  0  0  3  0  0  0  0  0  0
  188.8900  176.7690  136.4590 C   0  0  2  0  0  3  0  0  0  0  0  0
  184.7920  177.4280  137.7700 C   0  0  0  0  0  2  0  0  0  0  0  0
  187.1450  178.0490  137.3630 C   0  0  0  0  0  0  0  0  0  0  0  0
  189.3780  178.1440  136.7340 N   0  0  0  0  0  0  0  0  0  0  0  0
  187.4500  176.7600  136.8570 C   0  0  0  0  0  0  0  0  0  0  0  0
  185.1470  176.1020  137.1210 C   0  0  0  0  0  0  0  0  0  0  0  0
  184.2540  175.2300  136.9620 O   0  0  0  0  0  0  0  0  0  0  0  0
  188.2900  178.8560  137.2830 N   0  0  0  0  0  0  0  0  0  0  0  0
  191.7680  173.1730  135.8970 O   0  0  0  0  0  0  0  0  0  0  0  0
  191.5120  172.7200  134.6020 C   0  0  0  0  0  2  0  0  0  0  0  0
  191.7470  171.2260  134.5340 C   0  0  0  0  0  1  0  0  0  0  0  0
  191.2820  176.1920  138.9510 C   0  0  0  0  0  2  0  0  0  0  0  0
  190.5680  177.3360  139.6440 C   0  0  0  0  0  2  0  0  0  0  0  0
  190.1780  176.7170  142.2100 C   0  0  0  0  0  0  0  0  0  0  0  0
  190.3540  176.9960  141.0510 C   0  0  0  0  0  0  0  0  0  0  0  0
  187.5340  176.1850  143.5460 O   0  0  0  0  0  0  0  0  0  0  0  0
  189.9650  176.3790  143.6210 C   0  0  2  0  0  3  0  0  0  0  0  0
  188.5830  176.6940  144.0240 C   0  0  0  0  0  0  0  0  0  0  0  0
  187.6580  178.1380  145.6760 O   0  0  0  0  0  0  0  0  0  0  0  0
  190.0590  177.9250  145.3440 C   0  0  0  0  0  2  0  0  0  0  0  0
  190.8380  177.1540  144.4350 O   0  0  0  0  0  0  0  0  0  0  0  0
  188.6430  177.6370  145.0730 C   0  0  0  0  0  0  0  0  0  0  0  0
  193.0270  176.1440  136.0970 C   0  0  0  0  0  2  0  0  0  0  0  0
  194.6450  175.3230  136.1820 S   0  0  0  0  0  0  0  0  0  0  0  0
  194.3000  174.6760  137.8400 C   0  0  0  0  0  2  0  0  0  0  0  0
  195.6000  174.2740  138.5040 C   0  0  0  0  0  1  0  0  0  0  0  0
  1 20  1  0  0  0  0
  2  5  1  0  0  0  0
  2  6  1  1  0  0  0
  3 31  1  6  0  0  0
  3  1  1  0  0  0  0
  4 17  1  1  0  0  0
  4  2  1  0  0  0  0
  4  3  1  0  0  0  0
  5  1  1  6  0  0  0
  7 13  2  0  0  0  0
  7 14  1  0  0  0  0
  9 12  1  1  0  0  0
  9 13  1  0  0  0  0
  9  5  1  0  0  0  0
 10  8  1  0  0  0  0
 11  8  2  0  0  0  0
 12 16  2  0  0  0  0
 13 11  1  0  0  0  0
 14 10  1  0  0  0  0
 15 14  2  0  0  0  0
 16 11  1  0  0  0  0
 18 17  1  0  0  0  0
 19 18  1  0  0  0  0
 20 21  1  0  0  0  0
 21 23  1  0  0  0  0
 23 22  3  0  0  0  0
 24 26  2  0  0  0  0
 25 22  1  6  0  0  0
 25 26  1  0  0  0  0
 25 29  1  0  0  0  0
 26 30  1  0  0  0  0
 29 28  1  0  0  0  0
 30 28  1  0  0  0  0
 30 27  2  0  0  0  0
 31 32  1  0  0  0  0
 32 33  1  0  0  0  0
 33 34  1  0  0  0  0
M  END
>  <MODEL>
4

>  <REMARK>
 VINA RESULT:      -6.0      3.580      7.933
  Name = 
  10 active torsions:
  status: ('A' for Active; 'I' for Inactive)
    1  A    between atoms: C_3  and  C_13
    2  A    between atoms: C_4  and  C_31
    3  A    between atoms: N_5  and  C_18
    4  A    between atoms: C_7  and  O_8
    5  A    between atoms: O_8  and  C_28
    6  A    between atoms: C_12  and  S_16
    7  A    between atoms: S_16  and  C_23
    8  A    between atoms: C_17  and  C_29
    9  A    between atoms: C_18  and  C_29
   10  A    between atoms: C_23  and  C_26
                            x       y       z     vdW  Elec       q    Type
                         _______ _______ _______ _____ _____    ______ ____

>  <TORSDO>
F 10

$$$$
=
 OpenBabel10272400073D

 34 37  0  0  1  0  0  0  0  0999 V2000
  188.8070  178.0130  139.8400 N   0  0  0  0  0  0  0  0  0  0  0  0
  189.1320  178.0770  142.2380 C   0  0  2  0  0  3  0  0  0  0  0  0
  189.9610  177.1840  140.1810 C   0  0  1  0  0  3  0  0  0  0  0  0
  189.9100  176.9110  141.6680 C   0  0  1  0  0  3  0  0  0  0  0  0
  188.2460  178.5320  141.0900 C   0  0  2  0  0  3  0  0  0  0  0  0
  189.9890  179.1260  142.5880 O   0  0  0  0  0  1  0  0  0  0  0  0
  186.7410  177.6770  143.8080 C   0  0  0  0  0  3  0  0  0  0  0  0
  184.5060  179.5020  143.6630 C   0  0  0  0  0  3  0  0  0  0  0  0
  186.8120  178.0230  141.2760 C   0  0  2  0  0  3  0  0  0  0  0  0
  184.9050  179.0480  145.0510 C   0  0  0  0  0  2  0  0  0  0  0  0
  185.2200  179.1190  142.6060 C   0  0  0  0  0  0  0  0  0  0  0  0
  185.8860  178.7920  140.4060 N   0  0  0  0  0  0  0  0  0  0  0  0
  186.3350  178.2440  142.6740 C   0  0  0  0  0  0  0  0  0  0  0  0
  186.0330  178.0330  145.0550 C   0  0  0  0  0  0  0  0  0  0  0  0
  186.3840  177.4990  146.1400 O   0  0  0  0  0  0  0  0  0  0  0  0
  184.9650  179.4330  141.2620 N   0  0  0  0  0  0  0  0  0  0  0  0
  191.2000  176.8330  142.2030 O   0  0  0  0  0  0  0  0  0  0  0  0
  191.1000  175.9090  143.2440 C   0  0  0  0  0  2  0  0  0  0  0  0
  191.5110  176.5670  144.5440 C   0  0  0  0  0  1  0  0  0  0  0  0
  189.3040  179.1580  139.0930 C   0  0  0  0  0  2  0  0  0  0  0  0
  189.0530  178.9520  137.6120 C   0  0  0  0  0  2  0  0  0  0  0  0
  186.8390  177.4990  137.2780 C   0  0  0  0  0  0  0  0  0  0  0  0
  187.8390  178.1560  137.4290 C   0  0  0  0  0  0  0  0  0  0  0  0
  186.6350  174.4980  137.3430 O   0  0  0  0  0  0  0  0  0  0  0  0
  185.6210  176.7030  137.0940 C   0  0  2  0  0  3  0  0  0  0  0  0
  185.9620  175.3300  136.6790 C   0  0  0  0  0  0  0  0  0  0  0  0
  185.4280  174.0310  134.7570 O   0  0  0  0  0  0  0  0  0  0  0  0
  184.6370  176.3160  135.0320 C   0  0  0  0  0  2  0  0  0  0  0  0
  184.8260  177.2800  136.0640 O   0  0  0  0  0  0  0  0  0  0  0  0
  185.3620  175.0970  135.4230 C   0  0  0  0  0  0  0  0  0  0  0  0
  189.9000  175.8810  139.4000 C   0  0  0  0  0  2  0  0  0  0  0  0
  191.1850  175.8570  138.1170 S   0  0  0  0  0  0  0  0  0  0  0  0
  190.0450  175.1420  136.9020 C   0  0  0  0  0  2  0  0  0  0  0  0
  190.2850  175.7810  135.5500 C   0  0  0  0  0  1  0  0  0  0  0  0
  1  3  1  0  0  0  0
  2  6  1  6  0  0  0
  3 31  1  6  0  0  0
  3  4  1  0  0  0  0
  4 17  1  1  0  0  0
  4  2  1  0  0  0  0
  5  1  1  6  0  0  0
  5  9  1  0  0  0  0
  5  2  1  0  0  0  0
  7 14  1  0  0  0  0
  8 10  1  0  0  0  0
  9 12  1  6  0  0  0
  9 13  1  0  0  0  0
 10 14  1  0  0  0  0
 11 13  1  0  0  0  0
 11  8  2  0  0  0  0
 12 16  2  0  0  0  0
 13  7  2  0  0  0  0
 14 15  2  0  0  0  0
 16 11  1  0  0  0  0
 17 18  1  0  0  0  0
 18 19  1  0  0  0  0
 20  1  1  0  0  0  0
 21 20  1  0  0  0  0
 22 23  3  0  0  0  0
 23 21  1  0  0  0  0
 25 22  1  6  0  0  0
 26 25  1  0  0  0  0
 26 24  2  0  0  0  0
 27 30  2  0  0  0  0
 28 30  1  0  0  0  0
 28 29  1  0  0  0  0
 29 25  1  0  0  0  0
 30 26  1  0  0  0  0
 32 31  1  0  0  0  0
 33 32  1  0  0  0  0
 34 33  1  0  0  0  0
M  END
>  <MODEL>
5

>  <REMARK>
 VINA RESULT:      -5.9      2.985      6.113
  Name = 
  10 active torsions:
  status: ('A' for Active; 'I' for Inactive)
    1  A    between atoms: C_3  and  C_13
    2  A    between atoms: C_4  and  C_31
    3  A    between atoms: N_5  and  C_18
    4  A    between atoms: C_7  and  O_8
    5  A    between atoms: O_8  and  C_28
    6  A    between atoms: C_12  and  S_16
    7  A    between atoms: S_16  and  C_23
    8  A    between atoms: C_17  and  C_29
    9  A    between atoms: C_18  and  C_29
   10  A    between atoms: C_23  and  C_26
                            x       y       z     vdW  Elec       q    Type
                         _______ _______ _______ _____ _____    ______ ____

>  <TORSDO>
F 10

$$$$
=
 OpenBabel10272400073D

 34 37  0  0  1  0  0  0  0  0999 V2000
  189.0480  177.1600  143.6740 N   0  0  0  0  0  0  0  0  0  0  0  0
  191.4160  176.8040  143.3130 C   0  0  2  0  0  3  0  0  0  0  0  0
  189.7370  177.2340  144.9600 C   0  0  1  0  0  3  0  0  0  0  0  0
  191.2130  177.4120  144.6840 C   0  0  1  0  0  3  0  0  0  0  0  0
  190.0620  176.9480  142.6380 C   0  0  2  0  0  3  0  0  0  0  0  0
  191.7260  175.4440  143.4110 O   0  0  0  0  0  1  0  0  0  0  0  0
  191.3820  177.1320  139.7040 C   0  0  0  0  0  3  0  0  0  0  0  0
  189.0090  177.7960  138.1960 C   0  0  0  0  0  3  0  0  0  0  0  0
  190.0660  178.1270  141.6570 C   0  0  2  0  0  3  0  0  0  0  0  0
  190.1050  177.0850  137.4320 C   0  0  0  0  0  2  0  0  0  0  0  0
  189.1420  178.0130  139.5040 C   0  0  0  0  0  0  0  0  0  0  0  0
  188.7370  178.7880  141.6550 N   0  0  0  0  0  0  0  0  0  0  0  0
  190.2940  177.6650  140.2550 C   0  0  0  0  0  0  0  0  0  0  0  0
  191.3540  176.8330  138.2580 C   0  0  0  0  0  0  0  0  0  0  0  0
  192.3740  176.3450  137.7060 O   0  0  0  0  0  0  0  0  0  0  0  0
  188.2320  178.6770  140.3420 N   0  0  0  0  0  0  0  0  0  0  0  0
  191.9820  176.7690  145.6580 O   0  0  0  0  0  0  0  0  0  0  0  0
  191.0800  176.4480  146.6740 C   0  0  0  0  0  2  0  0  0  0  0  0
  191.8290  175.8490  147.8450 C   0  0  0  0  0  1  0  0  0  0  0  0
  188.2150  175.9670  143.6990 C   0  0  0  0  0  2  0  0  0  0  0  0
  186.9240  176.2590  144.4390 C   0  0  0  0  0  2  0  0  0  0  0  0
  185.5570  178.1410  143.1310 C   0  0  0  0  0  0  0  0  0  0  0  0
  186.1750  177.2910  143.7220 C   0  0  0  0  0  0  0  0  0  0  0  0
  182.6340  178.7830  143.4470 O   0  0  0  0  0  0  0  0  0  0  0  0
  184.8080  179.1760  142.4110 C   0  0  2  0  0  3  0  0  0  0  0  0
  183.3660  178.8720  142.4250 C   0  0  0  0  0  0  0  0  0  0  0  0
  181.7670  178.4880  140.7030 O   0  0  0  0  0  0  0  0  0  0  0  0
  184.1030  178.9620  140.2140 C   0  0  0  0  0  2  0  0  0  0  0  0
  185.2280  179.2110  141.0510 O   0  0  0  0  0  0  0  0  0  0  0  0
  182.9390  178.7410  141.0860 C   0  0  0  0  0  0  0  0  0  0  0  0
  189.2010  178.4130  145.7570 C   0  0  0  0  0  2  0  0  0  0  0  0
  188.3220  177.8250  147.2330 S   0  0  0  0  0  0  0  0  0  0  0  0
  187.0280  179.0790  147.0380 C   0  0  0  0  0  2  0  0  0  0  0  0
  185.6690  178.4140  147.0950 C   0  0  0  0  0  1  0  0  0  0  0  0
  1 20  1  0  0  0  0
  1  3  1  0  0  0  0
  2  6  1  1  0  0  0
  2  4  1  0  0  0  0
  3 31  1  1  0  0  0
  4  3  1  0  0  0  0
  4 17  1  1  0  0  0
  5  2  1  0  0  0  0
  5  1  1  1  0  0  0
  7 13  2  0  0  0  0
  8 11  2  0  0  0  0
  9 13  1  6  0  0  0
  9  5  1  0  0  0  0
 10  8  1  0  0  0  0
 10 14  1  0  0  0  0
 11 13  1  0  0  0  0
 11 16  1  0  0  0  0
 12  9  1  0  0  0  0
 14  7  1  0  0  0  0
 15 14  2  0  0  0  0
 16 12  2  0  0  0  0
 17 18  1  0  0  0  0
 18 19  1  0  0  0  0
 20 21  1  0  0  0  0
 22 23  3  0  0  0  0
 23 21  1  0  0  0  0
 25 26  1  0  0  0  0
 25 22  1  1  0  0  0
 26 24  2  0  0  0  0
 27 30  2  0  0  0  0
 28 29  1  0  0  0  0
 28 30  1  0  0  0  0
 29 25  1  0  0  0  0
 30 26  1  0  0  0  0
 31 32  1  0  0  0  0
 33 34  1  0  0  0  0
 33 32  1  0  0  0  0
M  END
>  <MODEL>
6

>  <REMARK>
 VINA RESULT:      -5.8      1.199      1.527
  Name = 
  10 active torsions:
  status: ('A' for Active; 'I' for Inactive)
    1  A    between atoms: C_3  and  C_13
    2  A    between atoms: C_4  and  C_31
    3  A    between atoms: N_5  and  C_18
    4  A    between atoms: C_7  and  O_8
    5  A    between atoms: O_8  and  C_28
    6  A    between atoms: C_12  and  S_16
    7  A    between atoms: S_16  and  C_23
    8  A    between atoms: C_17  and  C_29
    9  A    between atoms: C_18  and  C_29
   10  A    between atoms: C_23  and  C_26
                            x       y       z     vdW  Elec       q    Type
                         _______ _______ _______ _____ _____    ______ ____

>  <TORSDO>
F 10

$$$$
=
 OpenBabel10272400073D

 34 37  0  0  1  0  0  0  0  0999 V2000
  188.6660  177.8380  140.6360 N   0  0  0  0  0  0  0  0  0  0  0  0
  189.4310  178.2840  142.8890 C   0  0  2  0  0  3  0  0  0  0  0  0
  190.0380  177.3560  140.7720 C   0  0  1  0  0  3  0  0  0  0  0  0
  190.3540  177.2710  142.2480 C   0  0  1  0  0  3  0  0  0  0  0  0
  188.2490  178.3660  141.9370 C   0  0  2  0  0  3  0  0  0  0  0  0
  190.0390  179.5410  142.9590 O   0  0  0  0  0  1  0  0  0  0  0  0
  187.6710  177.3860  144.9520 C   0  0  0  0  0  3  0  0  0  0  0  0
  185.0990  178.6450  145.3370 C   0  0  0  0  0  3  0  0  0  0  0  0
  187.0600  177.5610  142.4760 C   0  0  2  0  0  3  0  0  0  0  0  0
  185.9100  178.3920  146.5910 C   0  0  0  0  0  2  0  0  0  0  0  0
  185.6150  178.3600  144.1420 C   0  0  0  0  0  0  0  0  0  0  0  0
  185.8010  178.0380  141.8500 N   0  0  0  0  0  0  0  0  0  0  0  0
  186.8880  177.7660  143.9450 C   0  0  0  0  0  0  0  0  0  0  0  0
  187.2140  177.6600  146.3300 C   0  0  0  0  0  0  0  0  0  0  0  0
  187.9260  177.2960  147.3020 O   0  0  0  0  0  0  0  0  0  0  0  0
  184.9830  178.5130  142.8970 N   0  0  0  0  0  0  0  0  0  0  0  0
  191.7000  177.5700  142.4860 O   0  0  0  0  0  0  0  0  0  0  0  0
  191.9780  177.0000  143.7290 C   0  0  0  0  0  2  0  0  0  0  0  0
  191.4910  175.5660  143.7480 C   0  0  0  0  0  1  0  0  0  0  0  0
  188.6930  178.9630  139.7130 C   0  0  0  0  0  2  0  0  0  0  0  0
  188.2950  178.4970  138.3260 C   0  0  0  0  0  2  0  0  0  0  0  0
  185.6410  178.2540  138.1940 C   0  0  0  0  0  0  0  0  0  0  0  0
  186.8400  178.3640  138.2540 C   0  0  0  0  0  0  0  0  0  0  0  0
  183.6150  180.2960  139.0760 O   0  0  0  0  0  0  0  0  0  0  0  0
  184.1820  178.1230  138.1230 C   0  0  2  0  0  3  0  0  0  0  0  0
  183.5360  179.0390  139.0800 C   0  0  0  0  0  0  0  0  0  0  0  0
  182.0790  178.6960  140.9320 O   0  0  0  0  0  0  0  0  0  0  0  0
  182.9310  176.8470  139.5980 C   0  0  0  0  0  2  0  0  0  0  0  0
  183.8050  176.7960  138.4740 O   0  0  0  0  0  0  0  0  0  0  0  0
  182.7750  178.2590  139.9780 C   0  0  0  0  0  0  0  0  0  0  0  0
  190.1630  175.9870  140.1240 C   0  0  0  0  0  2  0  0  0  0  0  0
  191.1990  176.0870  138.6360 S   0  0  0  0  0  0  0  0  0  0  0  0
  189.9850  175.1670  137.6520 C   0  0  0  0  0  2  0  0  0  0  0  0
  189.8570  175.8050  136.2850 C   0  0  0  0  0  1  0  0  0  0  0  0
  1  3  1  0  0  0  0
  2  6  1  6  0  0  0
  3 31  1  1  0  0  0
  3  4  1  0  0  0  0
  4 17  1  6  0  0  0
  4  2  1  0  0  0  0
  5  1  1  6  0  0  0
  5  9  1  0  0  0  0
  5  2  1  0  0  0  0
  7 14  1  0  0  0  0
  8 10  1  0  0  0  0
  9 12  1  6  0  0  0
  9 13  1  0  0  0  0
 11  8  2  0  0  0  0
 12 16  2  0  0  0  0
 13 11  1  0  0  0  0
 13  7  2  0  0  0  0
 14 10  1  0  0  0  0
 14 15  2  0  0  0  0
 16 11  1  0  0  0  0
 17 18  1  0  0  0  0
 18 19  1  0  0  0  0
 20  1  1  0  0  0  0
 21 20  1  0  0  0  0
 22 23  3  0  0  0  0
 23 21  1  0  0  0  0
 24 26  2  0  0  0  0
 25 22  1  1  0  0  0
 25 29  1  0  0  0  0
 25 26  1  0  0  0  0
 26 30  1  0  0  0  0
 28 30  1  0  0  0  0
 29 28  1  0  0  0  0
 30 27  2  0  0  0  0
 32 31  1  0  0  0  0
 33 32  1  0  0  0  0
 34 33  1  0  0  0  0
M  END
>  <MODEL>
7

>  <REMARK>
 VINA RESULT:      -5.8      2.476      5.771
  Name = 
  10 active torsions:
  status: ('A' for Active; 'I' for Inactive)
    1  A    between atoms: C_3  and  C_13
    2  A    between atoms: C_4  and  C_31
    3  A    between atoms: N_5  and  C_18
    4  A    between atoms: C_7  and  O_8
    5  A    between atoms: O_8  and  C_28
    6  A    between atoms: C_12  and  S_16
    7  A    between atoms: S_16  and  C_23
    8  A    between atoms: C_17  and  C_29
    9  A    between atoms: C_18  and  C_29
   10  A    between atoms: C_23  and  C_26
                            x       y       z     vdW  Elec       q    Type
                         _______ _______ _______ _____ _____    ______ ____

>  <TORSDO>
F 10

$$$$
=
 OpenBabel10272400073D

 34 37  0  0  1  0  0  0  0  0999 V2000
  189.2640  177.3650  138.2430 N   0  0  0  0  0  0  0  0  0  0  0  0
  191.1920  176.7890  139.5890 C   0  0  2  0  0  3  0  0  0  0  0  0
  190.0830  176.4050  137.5060 C   0  0  1  0  0  3  0  0  0  0  0  0
  191.0370  175.7630  138.4880 C   0  0  1  0  0  3  0  0  0  0  0  0
  189.8940  177.5790  139.5480 C   0  0  2  0  0  3  0  0  0  0  0  0
  192.2540  177.6560  139.3180 O   0  0  0  0  0  1  0  0  0  0  0  0
  190.6130  176.1540  142.3470 C   0  0  0  0  0  3  0  0  0  0  0  0
  189.4380  178.0920  144.1400 C   0  0  0  0  0  3  0  0  0  0  0  0
  188.9490  177.1300  140.6700 C   0  0  2  0  0  3  0  0  0  0  0  0
  190.5820  177.2740  144.7020 C   0  0  0  0  0  2  0  0  0  0  0  0
  189.0790  177.9470  142.8650 C   0  0  0  0  0  0  0  0  0  0  0  0
  187.8930  178.1530  140.8800 N   0  0  0  0  0  0  0  0  0  0  0  0
  189.6700  177.0160  141.9730 C   0  0  0  0  0  0  0  0  0  0  0  0
  191.1040  176.2230  143.7390 C   0  0  0  0  0  0  0  0  0  0  0  0
  191.9820  175.4090  144.1270 O   0  0  0  0  0  0  0  0  0  0  0  0
  188.0310  178.6100  142.2080 N   0  0  0  0  0  0  0  0  0  0  0  0
  192.2580  175.4690  137.8740 O   0  0  0  0  0  0  0  0  0  0  0  0
  192.2030  174.1000  137.6040 C   0  0  0  0  0  2  0  0  0  0  0  0
  192.5410  173.8590  136.1480 C   0  0  0  0  0  1  0  0  0  0  0  0
  189.3330  178.6310  137.5290 C   0  0  0  0  0  2  0  0  0  0  0  0
  188.1160  178.7830  136.6370 C   0  0  0  0  0  2  0  0  0  0  0  0
  185.9010  178.5460  138.1060 C   0  0  0  0  0  0  0  0  0  0  0  0
  186.9020  178.6530  137.4430 C   0  0  0  0  0  0  0  0  0  0  0  0
  183.5940  176.6850  137.5870 O   0  0  0  0  0  0  0  0  0  0  0  0
  184.6830  178.4190  138.9140 C   0  0  2  0  0  3  0  0  0  0  0  0
  183.5940  177.8300  138.1140 C   0  0  0  0  0  0  0  0  0  0  0  0
  181.4290  178.6000  137.4930 O   0  0  0  0  0  0  0  0  0  0  0  0
  182.9360  179.9400  138.8550 C   0  0  0  0  0  2  0  0  0  0  0  0
  184.2550  179.7090  139.3380 O   0  0  0  0  0  0  0  0  0  0  0  0
  182.5320  178.7580  138.0790 C   0  0  0  0  0  0  0  0  0  0  0  0
  189.1870  175.3540  136.8720 C   0  0  0  0  0  2  0  0  0  0  0  0
  189.1780  175.5440  135.0650 S   0  0  0  0  0  0  0  0  0  0  0  0
  187.3660  175.5660  135.0140 C   0  0  0  0  0  2  0  0  0  0  0  0
  186.8190  175.1330  136.3580 C   0  0  0  0  0  1  0  0  0  0  0  0
  2  6  1  6  0  0  0
  3 31  1  1  0  0  0
  3  1  1  0  0  0  0
  3  4  1  0  0  0  0
  4 17  1  6  0  0  0
  4  2  1  0  0  0  0
  5  1  1  6  0  0  0
  5  2  1  0  0  0  0
  5  9  1  0  0  0  0
  7 14  1  0  0  0  0
  8 10  1  0  0  0  0
  9 12  1  1  0  0  0
  9 13  1  0  0  0  0
 11  8  2  0  0  0  0
 12 16  2  0  0  0  0
 13  7  2  0  0  0  0
 13 11  1  0  0  0  0
 14 15  2  0  0  0  0
 14 10  1  0  0  0  0
 16 11  1  0  0  0  0
 18 17  1  0  0  0  0
 19 18  1  0  0  0  0
 20  1  1  0  0  0  0
 21 23  1  0  0  0  0
 21 20  1  0  0  0  0
 23 22  3  0  0  0  0
 24 26  2  0  0  0  0
 25 22  1  6  0  0  0
 25 29  1  0  0  0  0
 26 25  1  0  0  0  0
 27 30  2  0  0  0  0
 28 29  1  0  0  0  0
 30 26  1  0  0  0  0
 30 28  1  0  0  0  0
 32 31  1  0  0  0  0
 33 32  1  0  0  0  0
 33 34  1  0  0  0  0
M  END
>  <MODEL>
8

>  <REMARK>
 VINA RESULT:      -5.8      2.903      6.258
  Name = 
  10 active torsions:
  status: ('A' for Active; 'I' for Inactive)
    1  A    between atoms: C_3  and  C_13
    2  A    between atoms: C_4  and  C_31
    3  A    between atoms: N_5  and  C_18
    4  A    between atoms: C_7  and  O_8
    5  A    between atoms: O_8  and  C_28
    6  A    between atoms: C_12  and  S_16
    7  A    between atoms: S_16  and  C_23
    8  A    between atoms: C_17  and  C_29
    9  A    between atoms: C_18  and  C_29
   10  A    between atoms: C_23  and  C_26
                            x       y       z     vdW  Elec       q    Type
                         _______ _______ _______ _____ _____    ______ ____

>  <TORSDO>
F 10

$$$$
=
 OpenBabel10272400073D

 34 37  0  0  1  0  0  0  0  0999 V2000
  188.3460  176.2080  137.4730 N   0  0  0  0  0  0  0  0  0  0  0  0
  188.4140  176.7600  135.1170 C   0  0  2  0  0  3  0  0  0  0  0  0
  186.9790  176.4030  136.9950 C   0  0  1  0  0  3  0  0  0  0  0  0
  187.0060  176.3460  135.4840 C   0  0  1  0  0  3  0  0  0  0  0  0
  189.2450  176.3700  136.3280 C   0  0  2  0  0  3  0  0  0  0  0  0
  188.4980  178.1440  134.9410 O   0  0  0  0  0  1  0  0  0  0  0  0
  192.1850  175.9600  135.0740 C   0  0  0  0  0  3  0  0  0  0  0  0
  193.3940  174.5060  137.2570 C   0  0  0  0  0  3  0  0  0  0  0  0
  190.0070  175.0650  136.0670 C   0  0  2  0  0  3  0  0  0  0  0  0
  194.3420  175.2980  136.3800 C   0  0  0  0  0  2  0  0  0  0  0  0
  192.0810  174.5680  137.0450 C   0  0  0  0  0  0  0  0  0  0  0  0
  189.8060  174.1280  137.2020 N   0  0  0  0  0  0  0  0  0  0  0  0
  191.4790  175.3020  135.9900 C   0  0  0  0  0  0  0  0  0  0  0  0
  193.6560  175.9760  135.2080 C   0  0  0  0  0  0  0  0  0  0  0  0
  194.3500  176.5760  134.3460 O   0  0  0  0  0  0  0  0  0  0  0  0
  191.0830  173.8780  137.7500 N   0  0  0  0  0  0  0  0  0  0  0  0
  186.0500  177.2090  134.9380 O   0  0  0  0  0  0  0  0  0  0  0  0
  185.1060  176.3680  134.3460 C   0  0  0  0  0  2  0  0  0  0  0  0
  183.7310  176.6870  134.8950 C   0  0  0  0  0  1  0  0  0  0  0  0
  188.6390  177.2940  138.3960 C   0  0  0  0  0  2  0  0  0  0  0  0
  190.1090  177.2650  138.7710 C   0  0  0  0  0  2  0  0  0  0  0  0
  190.3610  176.5720  141.3350 C   0  0  0  0  0  0  0  0  0  0  0  0
  190.2460  176.8850  140.1760 C   0  0  0  0  0  0  0  0  0  0  0  0
  188.1260  176.1260  143.3010 O   0  0  0  0  0  0  0  0  0  0  0  0
  190.5010  176.1890  142.7440 C   0  0  2  0  0  3  0  0  0  0  0  0
  189.2920  176.5600  143.5010 C   0  0  0  0  0  0  0  0  0  0  0  0
  188.9160  177.9830  145.3720 O   0  0  0  0  0  0  0  0  0  0  0  0
  191.1310  177.6590  144.4200 C   0  0  0  0  0  2  0  0  0  0  0  0
  191.6000  176.8860  143.3200 O   0  0  0  0  0  0  0  0  0  0  0  0
  189.6780  177.4560  144.5210 C   0  0  0  0  0  0  0  0  0  0  0  0
  186.0850  175.3060  137.5510 C   0  0  0  0  0  2  0  0  0  0  0  0
  186.3970  173.7410  136.6850 S   0  0  0  0  0  0  0  0  0  0  0  0
  185.2150  172.8530  137.7330 C   0  0  0  0  0  2  0  0  0  0  0  0
  183.9380  172.6070  136.9570 C   0  0  0  0  0  1  0  0  0  0  0  0
  1 20  1  0  0  0  0
  2  6  1  1  0  0  0
  2  4  1  0  0  0  0
  2  5  1  0  0  0  0
  3  1  1  0  0  0  0
  3 31  1  1  0  0  0
  4 17  1  6  0  0  0
  4  3  1  0  0  0  0
  5  1  1  1  0  0  0
  7 14  1  0  0  0  0
  7 13  2  0  0  0  0
  9 13  1  1  0  0  0
  9  5  1  0  0  0  0
  9 12  1  0  0  0  0
 10  8  1  0  0  0  0
 11  8  2  0  0  0  0
 11 16  1  0  0  0  0
 12 16  2  0  0  0  0
 13 11  1  0  0  0  0
 14 10  1  0  0  0  0
 15 14  2  0  0  0  0
 18 19  1  0  0  0  0
 18 17  1  0  0  0  0
 20 21  1  0  0  0  0
 21 23  1  0  0  0  0
 23 22  3  0  0  0  0
 24 26  2  0  0  0  0
 25 22  1  6  0  0  0
 25 29  1  0  0  0  0
 25 26  1  0  0  0  0
 26 30  1  0  0  0  0
 28 30  1  0  0  0  0
 29 28  1  0  0  0  0
 30 27  2  0  0  0  0
 32 31  1  0  0  0  0
 32 33  1  0  0  0  0
 34 33  1  0  0  0  0
M  END
>  <MODEL>
9

>  <REMARK>
 VINA RESULT:      -5.7      3.912      8.138
  Name = 
  10 active torsions:
  status: ('A' for Active; 'I' for Inactive)
    1  A    between atoms: C_3  and  C_13
    2  A    between atoms: C_4  and  C_31
    3  A    between atoms: N_5  and  C_18
    4  A    between atoms: C_7  and  O_8
    5  A    between atoms: O_8  and  C_28
    6  A    between atoms: C_12  and  S_16
    7  A    between atoms: S_16  and  C_23
    8  A    between atoms: C_17  and  C_29
    9  A    between atoms: C_18  and  C_29
   10  A    between atoms: C_23  and  C_26
                            x       y       z     vdW  Elec       q    Type
                         _______ _______ _______ _____ _____    ______ ____

>  <TORSDO>
F 10

$$$$
