=
 OpenBabel10272400303D

 31 35  0  0  1  0  0  0  0  0999 V2000
  191.0000  177.3720  140.5420 C   0  0  0  0  0  0  0  0  0  0  0  0
  190.1550  177.5610  141.6960 N   0  0  0  0  0  0  0  0  0  0  0  0
  192.2400  177.5850  140.6200 O   0  0  0  0  0  0  0  0  0  0  0  0
  190.7330  177.8230  143.0180 C   0  0  1  0  0  0  0  0  0  0  0  0
  190.3250  176.8470  144.0140 C   0  0  1  0  0  3  0  0  0  0  0  0
  191.9990  175.3500  143.6250 C   0  0  0  0  0  2  0  0  0  0  0  0
  191.7930  176.8570  143.5920 C   0  0  1  0  0  3  0  0  0  0  0  0
  190.3450  178.9160  145.1520 N   0  0  0  0  0  2  0  0  0  0  0  0
  191.7860  174.7790  145.0620 C   0  0  0  0  0  2  0  0  0  0  0  0
  190.5050  179.1690  143.7100 C   0  0  0  0  0  2  0  0  0  0  0  0
  191.9900  175.7910  146.2230 C   0  0  0  0  0  2  0  0  0  0  0  0
  190.6100  177.2210  147.5660 O   0  0  0  0  0  0  0  0  0  0  0  0
  190.2980  177.5180  145.2750 N   0  0  0  0  0  0  0  0  0  0  0  0
  190.9020  176.8490  146.3990 C   0  0  0  0  0  0  0  0  0  0  0  0
  190.9000  175.5820  139.0080 O   0  0  0  0  0  1  0  0  0  0  0  0
  190.4430  176.8770  139.2490 C   0  0  0  0  0  2  0  0  0  0  0  0
  188.7180  177.3070  141.6010 C   0  0  0  0  0  2  0  0  0  0  0  0
  187.9430  178.6140  141.5430 C   0  0  0  0  0  2  0  0  0  0  0  0
  186.7470  178.4930  140.6200 C   0  0  0  0  0  2  0  0  0  0  0  0
  185.6320  179.0690  141.2300 O   0  0  0  0  0  0  0  0  0  0  0  0
  184.9600  178.0030  141.8360 C   0  0  0  0  0  2  0  0  0  0  0  0
  186.2410  178.3690  146.9530 C   0  0  0  0  0  0  0  0  0  0  0  0
  186.6540  177.9180  144.4780 C   0  0  0  0  0  2  0  0  0  0  0  0
  183.2430  179.2170  144.8340 C   0  0  0  0  0  3  0  0  0  0  0  0
  183.3140  178.9240  143.4710 C   0  0  0  0  0  3  0  0  0  0  0  0
  186.7580  178.5480  148.0850 O   0  0  0  0  0  0  0  0  0  0  0  0
  184.5150  178.3800  143.1710 N   0  0  0  0  0  0  0  0  0  0  0  0
  186.9490  177.5040  145.9320 C   0  0  0  0  0  2  0  0  0  0  0  0
  184.4670  178.8150  145.3280 C   0  0  0  0  0  0  0  0  0  0  0  0
  185.2150  178.3030  144.3120 C   0  0  0  0  0  0  0  0  0  0  0  0
  184.9520  178.9260  146.6620 N   0  0  0  0  0  2  0  0  0  0  0  0
  1  3  2  0  0  0  0
  1  2  1  0  0  0  0
  4  2  1  6  0  0  0
  4  7  1  0  0  0  0
  4 10  1  0  0  0  0
  4  5  1  0  0  0  0
  5 13  1  1  0  0  0
  6  9  1  0  0  0  0
  7  6  1  6  0  0  0
  7  5  1  0  0  0  0
  8 13  1  0  0  0  0
  9 11  1  0  0  0  0
 10  8  1  0  0  0  0
 11 14  1  0  0  0  0
 13 14  1  0  0  0  0
 14 12  2  0  0  0  0
 15 16  1  0  0  0  0
 16  1  1  0  0  0  0
 17  2  1  0  0  0  0
 18 17  1  0  0  0  0
 19 20  1  0  0  0  0
 19 18  1  0  0  0  0
 20 21  1  0  0  0  0
 21 27  1  0  0  0  0
 22 26  2  0  0  0  0
 23 28  1  0  0  0  0
 24 29  1  0  0  0  0
 25 24  2  0  0  0  0
 27 25  1  0  0  0  0
 27 30  1  0  0  0  0
 28 22  1  0  0  0  0
 29 31  1  0  0  0  0
 30 23  1  0  0  0  0
 30 29  2  0  0  0  0
 31 22  1  0  0  0  0
M  END
>  <MODEL>
1

>  <REMARK>
 VINA RESULT:      -7.7      0.000      0.000
  Name = 
  8 active torsions:
  status: ('A' for Active; 'I' for Inactive)
    1  A    between atoms: C_2  and  C_28
    2  A    between atoms: C_4  and  N_12
    3  A    between atoms: N_9  and  C_23
    4  A    between atoms: N_12  and  C_25
    5  A    between atoms: O_15  and  C_20
    6  A    between atoms: O_15  and  C_23
    7  A    between atoms: C_20  and  C_27
    8  A    between atoms: C_25  and  C_27
                            x       y       z     vdW  Elec       q    Type
                         _______ _______ _______ _____ _____    ______ ____

>  <TORSDO>
F 8

$$$$
=
 OpenBabel10272400303D

 31 35  0  0  1  0  0  0  0  0999 V2000
  192.3740  176.7350  138.8500 C   0  0  0  0  0  0  0  0  0  0  0  0
  190.9370  176.8070  138.9520 N   0  0  0  0  0  0  0  0  0  0  0  0
  192.9140  176.1610  137.8660 O   0  0  0  0  0  0  0  0  0  0  0  0
  190.0810  176.3850  137.8390 C   0  0  1  0  0  0  0  0  0  0  0  0
  188.7030  176.8200  137.9920 C   0  0  1  0  0  3  0  0  0  0  0  0
  188.9480  178.8480  136.9790 C   0  0  0  0  0  2  0  0  0  0  0  0
  189.5220  177.4430  136.8630 C   0  0  1  0  0  3  0  0  0  0  0  0
  188.5630  174.6490  137.0740 N   0  0  0  0  0  2  0  0  0  0  0  0
  187.4140  178.8590  136.6920 C   0  0  0  0  0  2  0  0  0  0  0  0
  189.9570  174.9030  137.4760 C   0  0  0  0  0  2  0  0  0  0  0  0
  186.8840  177.6870  135.8220 C   0  0  0  0  0  2  0  0  0  0  0  0
  185.8800  175.5400  136.1940 O   0  0  0  0  0  0  0  0  0  0  0  0
  187.8790  175.8420  137.3560 N   0  0  0  0  0  0  0  0  0  0  0  0
  186.8250  176.3160  136.4940 C   0  0  0  0  0  0  0  0  0  0  0  0
  194.4340  176.6400  139.9970 O   0  0  0  0  0  1  0  0  0  0  0  0
  193.2550  177.3730  139.8720 C   0  0  0  0  0  2  0  0  0  0  0  0
  190.3170  177.4790  140.0930 C   0  0  0  0  0  2  0  0  0  0  0  0
  190.3410  176.5840  141.3220 C   0  0  0  0  0  2  0  0  0  0  0  0
  190.8400  177.3440  142.5350 C   0  0  0  0  0  2  0  0  0  0  0  0
  189.7490  177.8390  143.2510 O   0  0  0  0  0  0  0  0  0  0  0  0
  189.3310  176.7740  144.0550 C   0  0  0  0  0  2  0  0  0  0  0  0
  184.6680  178.7840  145.5330 C   0  0  0  0  0  0  0  0  0  0  0  0
  186.3590  177.7750  143.9120 C   0  0  0  0  0  2  0  0  0  0  0  0
  187.8560  177.7580  147.2600 C   0  0  0  0  0  3  0  0  0  0  0  0
  188.8960  177.2790  146.4610 C   0  0  0  0  0  3  0  0  0  0  0  0
  183.4660  179.0890  145.7370 O   0  0  0  0  0  0  0  0  0  0  0  0
  188.5210  177.2660  145.1630 N   0  0  0  0  0  0  0  0  0  0  0  0
  185.2170  178.7890  144.1220 C   0  0  0  0  0  2  0  0  0  0  0  0
  186.8440  178.0320  146.3640 C   0  0  0  0  0  0  0  0  0  0  0  0
  187.2680  177.7380  145.1040 C   0  0  0  0  0  0  0  0  0  0  0  0
  185.5310  178.5050  146.6450 N   0  0  0  0  0  2  0  0  0  0  0  0
  1  2  1  0  0  0  0
  1 16  1  0  0  0  0
  2 17  1  0  0  0  0
  3  1  2  0  0  0  0
  4  5  1  0  0  0  0
  4  2  1  1  0  0  0
  5 13  1  6  0  0  0
  7  6  1  1  0  0  0
  7  4  1  0  0  0  0
  7  5  1  0  0  0  0
  8 13  1  0  0  0  0
  8 10  1  0  0  0  0
  9  6  1  0  0  0  0
 10  4  1  0  0  0  0
 11 14  1  0  0  0  0
 11  9  1  0  0  0  0
 12 14  2  0  0  0  0
 14 13  1  0  0  0  0
 16 15  1  0  0  0  0
 17 18  1  0  0  0  0
 18 19  1  0  0  0  0
 19 20  1  0  0  0  0
 20 21  1  0  0  0  0
 21 27  1  0  0  0  0
 22 26  2  0  0  0  0
 22 31  1  0  0  0  0
 23 28  1  0  0  0  0
 23 30  1  0  0  0  0
 25 24  2  0  0  0  0
 27 25  1  0  0  0  0
 28 22  1  0  0  0  0
 29 31  1  0  0  0  0
 29 24  1  0  0  0  0
 30 27  1  0  0  0  0
 30 29  2  0  0  0  0
M  END
>  <MODEL>
2

>  <REMARK>
 VINA RESULT:      -7.6      2.906      6.172
  Name = 
  8 active torsions:
  status: ('A' for Active; 'I' for Inactive)
    1  A    between atoms: C_2  and  C_28
    2  A    between atoms: C_4  and  N_12
    3  A    between atoms: N_9  and  C_23
    4  A    between atoms: N_12  and  C_25
    5  A    between atoms: O_15  and  C_20
    6  A    between atoms: O_15  and  C_23
    7  A    between atoms: C_20  and  C_27
    8  A    between atoms: C_25  and  C_27
                            x       y       z     vdW  Elec       q    Type
                         _______ _______ _______ _____ _____    ______ ____

>  <TORSDO>
F 8

$$$$
=
 OpenBabel10272400303D

 31 35  0  0  1  0  0  0  0  0999 V2000
  188.9740  178.3040  139.9250 C   0  0  0  0  0  0  0  0  0  0  0  0
  190.0830  177.4020  140.1240 N   0  0  0  0  0  0  0  0  0  0  0  0
  188.9130  179.0200  138.8900 O   0  0  0  0  0  0  0  0  0  0  0  0
  191.0580  177.1630  139.0550 C   0  0  1  0  0  0  0  0  0  0  0  0
  191.0680  175.7820  138.6010 C   0  0  1  0  0  3  0  0  0  0  0  0
  189.4480  176.0090  137.0140 C   0  0  0  0  0  2  0  0  0  0  0  0
  190.5620  176.8440  137.6270 C   0  0  1  0  0  3  0  0  0  0  0  0
  193.3340  176.4470  138.5930 N   0  0  0  0  0  2  0  0  0  0  0  0
  190.0150  174.7470  136.2930 C   0  0  0  0  0  2  0  0  0  0  0  0
  192.5390  177.4860  139.2700 C   0  0  0  0  0  2  0  0  0  0  0  0
  191.4920  174.8490  135.8230 C   0  0  0  0  0  2  0  0  0  0  0  0
  193.6480  174.2200  136.6670 O   0  0  0  0  0  0  0  0  0  0  0  0
  192.3980  175.4890  138.1720 N   0  0  0  0  0  0  0  0  0  0  0  0
  192.5570  174.7950  136.9180 C   0  0  0  0  0  0  0  0  0  0  0  0
  186.6740  178.7140  140.2470 O   0  0  0  0  0  1  0  0  0  0  0  0
  187.8540  178.3790  140.9080 C   0  0  0  0  0  2  0  0  0  0  0  0
  190.1450  176.5710  141.3240 C   0  0  0  0  0  2  0  0  0  0  0  0
  191.1410  177.1400  142.3220 C   0  0  0  0  0  2  0  0  0  0  0  0
  190.4570  178.0840  143.2910 C   0  0  0  0  0  2  0  0  0  0  0  0
  190.9100  177.8270  144.5850 O   0  0  0  0  0  0  0  0  0  0  0  0
  190.0700  176.8210  145.0710 C   0  0  0  0  0  2  0  0  0  0  0  0
  185.1560  178.5420  145.9970 C   0  0  0  0  0  0  0  0  0  0  0  0
  187.0380  177.5050  144.6240 C   0  0  0  0  0  2  0  0  0  0  0  0
  188.2930  178.0530  148.0260 C   0  0  0  0  0  3  0  0  0  0  0  0
  189.4240  177.5800  147.3590 C   0  0  0  0  0  3  0  0  0  0  0  0
  183.9200  178.7540  146.0880 O   0  0  0  0  0  0  0  0  0  0  0  0
  189.1430  177.3670  146.0540 N   0  0  0  0  0  0  0  0  0  0  0  0
  185.8000  178.4220  144.6320 C   0  0  0  0  0  2  0  0  0  0  0  0
  187.3260  178.1130  147.0450 C   0  0  0  0  0  0  0  0  0  0  0  0
  187.8610  177.7060  145.8610 C   0  0  0  0  0  0  0  0  0  0  0  0
  185.9600  178.4890  147.1840 N   0  0  0  0  0  2  0  0  0  0  0  0
  1  2  1  0  0  0  0
  1 16  1  0  0  0  0
  2 17  1  0  0  0  0
  3  1  2  0  0  0  0
  4 10  1  0  0  0  0
  4  2  1  1  0  0  0
  5 13  1  6  0  0  0
  5  4  1  0  0  0  0
  7  6  1  1  0  0  0
  7  5  1  0  0  0  0
  7  4  1  0  0  0  0
  8 10  1  0  0  0  0
  9  6  1  0  0  0  0
 11  9  1  0  0  0  0
 11 14  1  0  0  0  0
 12 14  2  0  0  0  0
 13  8  1  0  0  0  0
 14 13  1  0  0  0  0
 15 16  1  0  0  0  0
 17 18  1  0  0  0  0
 18 19  1  0  0  0  0
 19 20  1  0  0  0  0
 20 21  1  0  0  0  0
 21 27  1  0  0  0  0
 22 26  2  0  0  0  0
 22 31  1  0  0  0  0
 23 28  1  0  0  0  0
 23 30  1  0  0  0  0
 25 24  2  0  0  0  0
 27 25  1  0  0  0  0
 28 22  1  0  0  0  0
 29 31  1  0  0  0  0
 29 24  1  0  0  0  0
 30 27  1  0  0  0  0
 30 29  2  0  0  0  0
M  END
>  <MODEL>
3

>  <REMARK>
 VINA RESULT:      -7.5      2.444      5.807
  Name = 
  8 active torsions:
  status: ('A' for Active; 'I' for Inactive)
    1  A    between atoms: C_2  and  C_28
    2  A    between atoms: C_4  and  N_12
    3  A    between atoms: N_9  and  C_23
    4  A    between atoms: N_12  and  C_25
    5  A    between atoms: O_15  and  C_20
    6  A    between atoms: O_15  and  C_23
    7  A    between atoms: C_20  and  C_27
    8  A    between atoms: C_25  and  C_27
                            x       y       z     vdW  Elec       q    Type
                         _______ _______ _______ _____ _____    ______ ____

>  <TORSDO>
F 8

$$$$
=
 OpenBabel10272400303D

 31 35  0  0  1  0  0  0  0  0999 V2000
  189.9790  176.7660  146.8770 C   0  0  0  0  0  0  0  0  0  0  0  0
  189.2220  177.5980  145.9730 N   0  0  0  0  0  0  0  0  0  0  0  0
  189.3950  176.1290  147.7950 O   0  0  0  0  0  0  0  0  0  0  0  0
  187.7560  177.5780  145.9810 C   0  0  1  0  0  0  0  0  0  0  0  0
  187.1750  178.5320  145.0510 C   0  0  1  0  0  3  0  0  0  0  0  0
  187.1420  177.1520  143.2370 C   0  0  0  0  0  2  0  0  0  0  0  0
  186.9930  177.0460  144.7480 C   0  0  1  0  0  3  0  0  0  0  0  0
  185.7810  178.6040  146.9550 N   0  0  0  0  0  2  0  0  0  0  0  0
  186.0170  178.0390  142.6170 C   0  0  0  0  0  2  0  0  0  0  0  0
  186.9850  177.8210  147.2810 C   0  0  0  0  0  2  0  0  0  0  0  0
  184.7120  178.1500  143.4530 C   0  0  0  0  0  2  0  0  0  0  0  0
  183.7790  179.6730  145.0530 O   0  0  0  0  0  0  0  0  0  0  0  0
  185.9270  178.9530  145.6040 N   0  0  0  0  0  0  0  0  0  0  0  0
  184.7890  179.0000  144.7200 C   0  0  0  0  0  0  0  0  0  0  0  0
  192.0870  176.9060  147.9280 O   0  0  0  0  0  1  0  0  0  0  0  0
  191.4540  176.6000  146.7240 C   0  0  0  0  0  2  0  0  0  0  0  0
  189.9050  178.3290  144.9070 C   0  0  0  0  0  2  0  0  0  0  0  0
  190.5770  177.3680  143.9400 C   0  0  0  0  0  2  0  0  0  0  0  0
  191.4950  178.1100  142.9890 C   0  0  0  0  0  2  0  0  0  0  0  0
  191.6220  177.3810  141.8060 O   0  0  0  0  0  0  0  0  0  0  0  0
  190.3280  177.3120  141.2820 C   0  0  0  0  0  2  0  0  0  0  0  0
  187.7700  177.9930  136.7050 C   0  0  0  0  0  0  0  0  0  0  0  0
  188.1190  178.1720  139.2240 C   0  0  0  0  0  2  0  0  0  0  0  0
  191.1630  176.7440  137.7620 C   0  0  0  0  0  3  0  0  0  0  0  0
  191.4370  176.7030  139.1310 C   0  0  0  0  0  3  0  0  0  0  0  0
  187.1020  178.3750  135.7100 O   0  0  0  0  0  0  0  0  0  0  0  0
  190.3770  177.1600  139.8340 N   0  0  0  0  0  0  0  0  0  0  0  0
  187.1220  177.9440  138.0720 C   0  0  0  0  0  2  0  0  0  0  0  0
  189.8810  177.2470  137.6910 C   0  0  0  0  0  0  0  0  0  0  0  0
  189.4210  177.4800  138.9510 C   0  0  0  0  0  0  0  0  0  0  0  0
  189.1180  177.5390  136.5250 N   0  0  0  0  0  2  0  0  0  0  0  0
  1  3  2  0  0  0  0
  2  1  1  0  0  0  0
  4  2  1  1  0  0  0
  4 10  1  0  0  0  0
  5 13  1  1  0  0  0
  5  4  1  0  0  0  0
  7  6  1  6  0  0  0
  7  5  1  0  0  0  0
  7  4  1  0  0  0  0
  8 10  1  0  0  0  0
  9  6  1  0  0  0  0
  9 11  1  0  0  0  0
 11 14  1  0  0  0  0
 13  8  1  0  0  0  0
 14 12  2  0  0  0  0
 14 13  1  0  0  0  0
 16  1  1  0  0  0  0
 16 15  1  0  0  0  0
 17  2  1  0  0  0  0
 18 17  1  0  0  0  0
 19 18  1  0  0  0  0
 20 19  1  0  0  0  0
 21 20  1  0  0  0  0
 22 28  1  0  0  0  0
 24 25  2  0  0  0  0
 25 27  1  0  0  0  0
 26 22  2  0  0  0  0
 27 21  1  0  0  0  0
 28 23  1  0  0  0  0
 29 24  1  0  0  0  0
 29 30  2  0  0  0  0
 30 23  1  0  0  0  0
 30 27  1  0  0  0  0
 31 22  1  0  0  0  0
 31 29  1  0  0  0  0
M  END
>  <MODEL>
4

>  <REMARK>
 VINA RESULT:      -7.5      2.153      7.250
  Name = 
  8 active torsions:
  status: ('A' for Active; 'I' for Inactive)
    1  A    between atoms: C_2  and  C_28
    2  A    between atoms: C_4  and  N_12
    3  A    between atoms: N_9  and  C_23
    4  A    between atoms: N_12  and  C_25
    5  A    between atoms: O_15  and  C_20
    6  A    between atoms: O_15  and  C_23
    7  A    between atoms: C_20  and  C_27
    8  A    between atoms: C_25  and  C_27
                            x       y       z     vdW  Elec       q    Type
                         _______ _______ _______ _____ _____    ______ ____

>  <TORSDO>
F 8

$$$$
=
 OpenBabel10272400303D

 31 35  0  0  1  0  0  0  0  0999 V2000
  191.6110  177.3500  141.1540 C   0  0  0  0  0  0  0  0  0  0  0  0
  190.4160  176.9500  140.4530 N   0  0  0  0  0  0  0  0  0  0  0  0
  192.7290  177.3230  140.5730 O   0  0  0  0  0  0  0  0  0  0  0  0
  190.4430  176.6820  139.0110 C   0  0  1  0  0  0  0  0  0  0  0  0
  189.1170  176.6660  138.4170 C   0  0  1  0  0  3  0  0  0  0  0  0
  189.0010  178.8960  137.9580 C   0  0  0  0  0  2  0  0  0  0  0  0
  190.0580  177.8030  138.0200 C   0  0  1  0  0  3  0  0  0  0  0  0
  190.2970  174.9320  137.3330 N   0  0  0  0  0  2  0  0  0  0  0  0
  187.9300  178.5890  136.8660 C   0  0  0  0  0  2  0  0  0  0  0  0
  191.1000  175.4100  138.4720 C   0  0  0  0  0  2  0  0  0  0  0  0
  188.3900  177.6480  135.7190 C   0  0  0  0  0  2  0  0  0  0  0  0
  188.2630  175.3060  135.2130 O   0  0  0  0  0  0  0  0  0  0  0  0
  189.1580  175.7520  137.3200 N   0  0  0  0  0  0  0  0  0  0  0  0
  188.5580  176.1720  136.0790 C   0  0  0  0  0  0  0  0  0  0  0  0
  191.4010  176.7710  143.4320 O   0  0  0  0  0  1  0  0  0  0  0  0
  191.5520  177.8480  142.5600 C   0  0  0  0  0  2  0  0  0  0  0  0
  189.1210  176.9890  141.1310 C   0  0  0  0  0  2  0  0  0  0  0  0
  188.5890  178.4120  141.1920 C   0  0  0  0  0  2  0  0  0  0  0  0
  187.0740  178.4260  141.1370 C   0  0  0  0  0  2  0  0  0  0  0  0
  186.5720  178.8880  142.3540 O   0  0  0  0  0  0  0  0  0  0  0  0
  186.1630  177.7380  143.0370 C   0  0  0  0  0  2  0  0  0  0  0  0
  188.5730  177.9170  147.7400 C   0  0  0  0  0  0  0  0  0  0  0  0
  188.4230  177.6180  145.2120 C   0  0  0  0  0  2  0  0  0  0  0  0
  185.1320  178.6930  146.4190 C   0  0  0  0  0  3  0  0  0  0  0  0
  184.8990  178.4750  145.0600 C   0  0  0  0  0  3  0  0  0  0  0  0
  189.3290  178.0680  148.7340 O   0  0  0  0  0  0  0  0  0  0  0  0
  186.0210  178.0200  144.4600 N   0  0  0  0  0  0  0  0  0  0  0  0
  189.0650  177.1480  146.5330 C   0  0  0  0  0  2  0  0  0  0  0  0
  186.4530  178.3400  146.5940 C   0  0  0  0  0  0  0  0  0  0  0  0
  186.9690  177.9260  145.4040 C   0  0  0  0  0  0  0  0  0  0  0  0
  187.2270  178.4110  147.7870 N   0  0  0  0  0  2  0  0  0  0  0  0
  1 16  1  0  0  0  0
  2 17  1  0  0  0  0
  2  1  1  0  0  0  0
  3  1  2  0  0  0  0
  4  2  1  1  0  0  0
  5 13  1  6  0  0  0
  5  4  1  0  0  0  0
  7  6  1  1  0  0  0
  7  5  1  0  0  0  0
  7  4  1  0  0  0  0
  8 10  1  0  0  0  0
  9  6  1  0  0  0  0
 10  4  1  0  0  0  0
 11 14  1  0  0  0  0
 11  9  1  0  0  0  0
 12 14  2  0  0  0  0
 13  8  1  0  0  0  0
 14 13  1  0  0  0  0
 16 15  1  0  0  0  0
 17 18  1  0  0  0  0
 19 18  1  0  0  0  0
 19 20  1  0  0  0  0
 20 21  1  0  0  0  0
 21 27  1  0  0  0  0
 22 31  1  0  0  0  0
 22 26  2  0  0  0  0
 23 30  1  0  0  0  0
 23 28  1  0  0  0  0
 24 29  1  0  0  0  0
 25 24  2  0  0  0  0
 27 25  1  0  0  0  0
 27 30  1  0  0  0  0
 28 22  1  0  0  0  0
 29 31  1  0  0  0  0
 30 29  2  0  0  0  0
M  END
>  <MODEL>
5

>  <REMARK>
 VINA RESULT:      -7.2      2.422      5.453
  Name = 
  8 active torsions:
  status: ('A' for Active; 'I' for Inactive)
    1  A    between atoms: C_2  and  C_28
    2  A    between atoms: C_4  and  N_12
    3  A    between atoms: N_9  and  C_23
    4  A    between atoms: N_12  and  C_25
    5  A    between atoms: O_15  and  C_20
    6  A    between atoms: O_15  and  C_23
    7  A    between atoms: C_20  and  C_27
    8  A    between atoms: C_25  and  C_27
                            x       y       z     vdW  Elec       q    Type
                         _______ _______ _______ _____ _____    ______ ____

>  <TORSDO>
F 8

$$$$
=
 OpenBabel10272400303D

 31 35  0  0  1  0  0  0  0  0999 V2000
  190.4090  176.3260  138.0810 C   0  0  0  0  0  0  0  0  0  0  0  0
  190.0510  177.3360  139.0460 N   0  0  0  0  0  0  0  0  0  0  0  0
  189.6480  176.0750  137.1090 O   0  0  0  0  0  0  0  0  0  0  0  0
  188.8980  178.2150  138.8220 C   0  0  1  0  0  0  0  0  0  0  0  0
  187.6410  177.6100  139.2320 C   0  0  1  0  0  3  0  0  0  0  0  0
  187.7000  178.3110  141.4000 C   0  0  0  0  0  2  0  0  0  0  0  0
  188.1450  178.8090  140.0330 C   0  0  1  0  0  3  0  0  0  0  0  0
  187.1390  178.7870  137.2480 N   0  0  0  0  0  2  0  0  0  0  0  0
  186.1500  178.1460  141.4680 C   0  0  0  0  0  2  0  0  0  0  0  0
  188.6010  178.7610  137.4240 C   0  0  0  0  0  2  0  0  0  0  0  0
  185.3390  179.0080  140.4620 C   0  0  0  0  0  2  0  0  0  0  0  0
  184.3670  178.7170  138.2880 O   0  0  0  0  0  0  0  0  0  0  0  0
  186.6230  178.1360  138.3790 N   0  0  0  0  0  0  0  0  0  0  0  0
  185.3970  178.5760  138.9970 C   0  0  0  0  0  0  0  0  0  0  0  0
  191.5240  174.2720  137.7550 O   0  0  0  0  0  1  0  0  0  0  0  0
  191.7030  175.5880  138.1790 C   0  0  0  0  0  2  0  0  0  0  0  0
  190.9410  177.6260  140.1690 C   0  0  0  0  0  2  0  0  0  0  0  0
  190.6410  176.7090  141.3440 C   0  0  0  0  0  2  0  0  0  0  0  0
  191.4190  177.1330  142.5740 C   0  0  0  0  0  2  0  0  0  0  0  0
  190.5330  177.6090  143.5410 O   0  0  0  0  0  0  0  0  0  0  0  0
  190.4140  176.5690  144.4670 C   0  0  0  0  0  2  0  0  0  0  0  0
  185.9260  178.2950  146.6670 C   0  0  0  0  0  0  0  0  0  0  0  0
  187.3910  177.3440  144.8090 C   0  0  0  0  0  2  0  0  0  0  0  0
  189.4310  177.5790  147.8470 C   0  0  0  0  0  3  0  0  0  0  0  0
  190.3550  177.1430  146.8950 C   0  0  0  0  0  3  0  0  0  0  0  0
  184.7550  178.5210  147.0650 O   0  0  0  0  0  0  0  0  0  0  0  0
  189.7670  177.0470  145.6820 N   0  0  0  0  0  0  0  0  0  0  0  0
  186.2250  178.2790  145.1830 C   0  0  0  0  0  2  0  0  0  0  0  0
  188.2630  177.7390  147.1320 C   0  0  0  0  0  0  0  0  0  0  0  0
  188.4890  177.4240  145.8270 C   0  0  0  0  0  0  0  0  0  0  0  0
  186.9840  178.1270  147.6210 N   0  0  0  0  0  2  0  0  0  0  0  0
  1 16  1  0  0  0  0
  1  2  1  0  0  0  0
  2 17  1  0  0  0  0
  3  1  2  0  0  0  0
  4  2  1  1  0  0  0
  4  5  1  0  0  0  0
  4  7  1  0  0  0  0
  5 13  1  6  0  0  0
  5  7  1  0  0  0  0
  6  9  1  0  0  0  0
  7  6  1  1  0  0  0
  8 10  1  0  0  0  0
  8 13  1  0  0  0  0
 10  4  1  0  0  0  0
 11  9  1  0  0  0  0
 12 14  2  0  0  0  0
 13 14  1  0  0  0  0
 14 11  1  0  0  0  0
 15 16  1  0  0  0  0
 17 18  1  0  0  0  0
 18 19  1  0  0  0  0
 19 20  1  0  0  0  0
 20 21  1  0  0  0  0
 21 27  1  0  0  0  0
 22 26  2  0  0  0  0
 22 31  1  0  0  0  0
 23 28  1  0  0  0  0
 23 30  1  0  0  0  0
 25 24  2  0  0  0  0
 27 30  1  0  0  0  0
 27 25  1  0  0  0  0
 28 22  1  0  0  0  0
 29 31  1  0  0  0  0
 29 24  1  0  0  0  0
 30 29  2  0  0  0  0
M  END
>  <MODEL>
6

>  <REMARK>
 VINA RESULT:      -7.2      2.230      5.698
  Name = 
  8 active torsions:
  status: ('A' for Active; 'I' for Inactive)
    1  A    between atoms: C_2  and  C_28
    2  A    between atoms: C_4  and  N_12
    3  A    between atoms: N_9  and  C_23
    4  A    between atoms: N_12  and  C_25
    5  A    between atoms: O_15  and  C_20
    6  A    between atoms: O_15  and  C_23
    7  A    between atoms: C_20  and  C_27
    8  A    between atoms: C_25  and  C_27
                            x       y       z     vdW  Elec       q    Type
                         _______ _______ _______ _____ _____    ______ ____

>  <TORSDO>
F 8

$$$$
=
 OpenBabel10272400303D

 31 35  0  0  1  0  0  0  0  0999 V2000
  182.1810  179.0170  142.7260 C   0  0  0  0  0  0  0  0  0  0  0  0
  182.7760  178.6320  141.4690 N   0  0  0  0  0  0  0  0  0  0  0  0
  181.0240  179.5170  142.7560 O   0  0  0  0  0  0  0  0  0  0  0  0
  181.9910  178.6400  140.2310 C   0  0  1  0  0  0  0  0  0  0  0  0
  182.5870  177.8310  139.1810 C   0  0  1  0  0  3  0  0  0  0  0  0
  181.5840  175.8660  139.7550 C   0  0  0  0  0  2  0  0  0  0  0  0
  181.2650  177.3530  139.7800 C   0  0  1  0  0  3  0  0  0  0  0  0
  181.7270  179.7330  138.0770 N   0  0  0  0  0  2  0  0  0  0  0  0
  181.8070  175.3570  138.2960 C   0  0  0  0  0  2  0  0  0  0  0  0
  181.6620  179.9600  139.5310 C   0  0  0  0  0  2  0  0  0  0  0  0
  181.1340  176.2030  137.1800 C   0  0  0  0  0  2  0  0  0  0  0  0
  181.7730  177.9740  135.6950 O   0  0  0  0  0  0  0  0  0  0  0  0
  182.2340  178.4310  137.9340 N   0  0  0  0  0  0  0  0  0  0  0  0
  181.7660  177.5620  136.8840 C   0  0  0  0  0  0  0  0  0  0  0  0
  183.8200  179.8110  144.2260 O   0  0  0  0  0  1  0  0  0  0  0  0
  182.8910  178.7920  144.0190 C   0  0  0  0  0  2  0  0  0  0  0  0
  184.1160  178.0470  141.4420 C   0  0  0  0  0  2  0  0  0  0  0  0
  185.1350  179.0600  140.9440 C   0  0  0  0  0  2  0  0  0  0  0  0
  186.5010  178.7930  141.5440 C   0  0  0  0  0  2  0  0  0  0  0  0
  186.3480  178.1560  142.7760 O   0  0  0  0  0  0  0  0  0  0  0  0
  187.6080  177.6260  143.0690 C   0  0  0  0  0  2  0  0  0  0  0  0
  191.0410  176.9120  147.0260 C   0  0  0  0  0  0  0  0  0  0  0  0
  190.3200  177.2470  144.6040 C   0  0  0  0  0  2  0  0  0  0  0  0
  187.3410  177.5540  146.7210 C   0  0  0  0  0  3  0  0  0  0  0  0
  186.8100  177.6590  145.4340 C   0  0  0  0  0  3  0  0  0  0  0  0
  191.9980  176.9020  147.8420 O   0  0  0  0  0  0  0  0  0  0  0  0
  187.7870  177.5170  144.5110 N   0  0  0  0  0  0  0  0  0  0  0  0
  191.2840  176.5440  145.5790 C   0  0  0  0  0  2  0  0  0  0  0  0
  188.6870  177.3390  146.5110 C   0  0  0  0  0  0  0  0  0  0  0  0
  188.9340  177.3090  145.1720 C   0  0  0  0  0  0  0  0  0  0  0  0
  189.7140  177.2030  147.4880 N   0  0  0  0  0  2  0  0  0  0  0  0
  1  3  2  0  0  0  0
  1 16  1  0  0  0  0
  2  1  1  0  0  0  0
  4  2  1  1  0  0  0
  5 13  1  6  0  0  0
  5  7  1  0  0  0  0
  5  4  1  0  0  0  0
  7  6  1  1  0  0  0
  7  4  1  0  0  0  0
  8 10  1  0  0  0  0
  9  6  1  0  0  0  0
 10  4  1  0  0  0  0
 11  9  1  0  0  0  0
 12 14  2  0  0  0  0
 13  8  1  0  0  0  0
 14 11  1  0  0  0  0
 14 13  1  0  0  0  0
 16 15  1  0  0  0  0
 17  2  1  0  0  0  0
 18 17  1  0  0  0  0
 18 19  1  0  0  0  0
 19 20  1  0  0  0  0
 20 21  1  0  0  0  0
 21 27  1  0  0  0  0
 22 31  1  0  0  0  0
 22 26  2  0  0  0  0
 23 30  1  0  0  0  0
 23 28  1  0  0  0  0
 25 24  2  0  0  0  0
 27 30  1  0  0  0  0
 27 25  1  0  0  0  0
 28 22  1  0  0  0  0
 29 24  1  0  0  0  0
 29 31  1  0  0  0  0
 30 29  2  0  0  0  0
M  END
>  <MODEL>
7

>  <REMARK>
 VINA RESULT:      -7.1      3.505      8.430
  Name = 
  8 active torsions:
  status: ('A' for Active; 'I' for Inactive)
    1  A    between atoms: C_2  and  C_28
    2  A    between atoms: C_4  and  N_12
    3  A    between atoms: N_9  and  C_23
    4  A    between atoms: N_12  and  C_25
    5  A    between atoms: O_15  and  C_20
    6  A    between atoms: O_15  and  C_23
    7  A    between atoms: C_20  and  C_27
    8  A    between atoms: C_25  and  C_27
                            x       y       z     vdW  Elec       q    Type
                         _______ _______ _______ _____ _____    ______ ____

>  <TORSDO>
F 8

$$$$
=
 OpenBabel10272400303D

 31 35  0  0  1  0  0  0  0  0999 V2000
  185.6990  179.0160  145.9310 C   0  0  0  0  0  0  0  0  0  0  0  0
  186.7130  178.0370  145.6210 N   0  0  0  0  0  0  0  0  0  0  0  0
  185.8270  179.7700  146.9330 O   0  0  0  0  0  0  0  0  0  0  0  0
  187.9890  178.0210  146.3440 C   0  0  1  0  0  0  0  0  0  0  0  0
  188.8440  176.9130  145.9510 C   0  0  1  0  0  3  0  0  0  0  0  0
  189.8840  177.9770  144.2240 C   0  0  0  0  0  2  0  0  0  0  0  0
  189.2990  178.3250  145.5850 C   0  0  1  0  0  3  0  0  0  0  0  0
  189.1370  177.1180  148.2850 N   0  0  0  0  0  2  0  0  0  0  0  0
  191.0720  176.9730  144.3570 C   0  0  0  0  0  2  0  0  0  0  0  0
  188.0120  177.9740  147.8730 C   0  0  0  0  0  2  0  0  0  0  0  0
  191.7960  176.9670  145.7310 C   0  0  0  0  0  2  0  0  0  0  0  0
  191.6860  175.7020  147.7660 O   0  0  0  0  0  0  0  0  0  0  0  0
  189.6230  176.5570  147.0940 N   0  0  0  0  0  0  0  0  0  0  0  0
  191.0340  176.3370  146.8960 C   0  0  0  0  0  0  0  0  0  0  0  0
  183.3580  178.7880  145.7400 O   0  0  0  0  0  1  0  0  0  0  0  0
  184.5030  179.1940  145.0560 C   0  0  0  0  0  2  0  0  0  0  0  0
  186.5600  177.1690  144.4550 C   0  0  0  0  0  2  0  0  0  0  0  0
  186.8470  177.9360  143.1730 C   0  0  0  0  0  2  0  0  0  0  0  0
  185.5860  178.1050  142.3500 C   0  0  0  0  0  2  0  0  0  0  0  0
  185.9300  178.4540  141.0430 O   0  0  0  0  0  0  0  0  0  0  0  0
  187.3050  178.7040  141.0850 C   0  0  0  0  0  2  0  0  0  0  0  0
  191.5850  176.6960  138.7160 C   0  0  0  0  0  0  0  0  0  0  0  0
  190.1270  177.3860  140.6910 C   0  0  0  0  0  2  0  0  0  0  0  0
  188.1900  177.9090  137.6210 C   0  0  0  0  0  3  0  0  0  0  0  0
  187.3340  178.4040  138.6070 C   0  0  0  0  0  3  0  0  0  0  0  0
  192.5960  176.0530  138.3350 O   0  0  0  0  0  0  0  0  0  0  0  0
  187.9250  178.3290  139.8200 N   0  0  0  0  0  0  0  0  0  0  0  0
  191.5510  177.2870  140.1090 C   0  0  0  0  0  2  0  0  0  0  0  0
  189.3220  177.5380  138.3160 C   0  0  0  0  0  0  0  0  0  0  0  0
  189.1470  177.8100  139.6380 C   0  0  0  0  0  0  0  0  0  0  0  0
  190.5020  176.9270  137.8040 N   0  0  0  0  0  2  0  0  0  0  0  0
  1  3  2  0  0  0  0
  2  1  1  0  0  0  0
  4  2  1  6  0  0  0
  4 10  1  0  0  0  0
  5  4  1  0  0  0  0
  5 13  1  1  0  0  0
  6  9  1  0  0  0  0
  7  6  1  6  0  0  0
  7  5  1  0  0  0  0
  7  4  1  0  0  0  0
  9 11  1  0  0  0  0
 10  8  1  0  0  0  0
 11 14  1  0  0  0  0
 13  8  1  0  0  0  0
 14 13  1  0  0  0  0
 14 12  2  0  0  0  0
 16 15  1  0  0  0  0
 16  1  1  0  0  0  0
 17  2  1  0  0  0  0
 18 17  1  0  0  0  0
 19 18  1  0  0  0  0
 20 21  1  0  0  0  0
 20 19  1  0  0  0  0
 22 28  1  0  0  0  0
 24 29  1  0  0  0  0
 24 25  2  0  0  0  0
 25 27  1  0  0  0  0
 26 22  2  0  0  0  0
 27 21  1  0  0  0  0
 28 23  1  0  0  0  0
 29 30  2  0  0  0  0
 30 27  1  0  0  0  0
 30 23  1  0  0  0  0
 31 29  1  0  0  0  0
 31 22  1  0  0  0  0
M  END
>  <MODEL>
8

>  <REMARK>
 VINA RESULT:      -7.0      1.961      6.158
  Name = 
  8 active torsions:
  status: ('A' for Active; 'I' for Inactive)
    1  A    between atoms: C_2  and  C_28
    2  A    between atoms: C_4  and  N_12
    3  A    between atoms: N_9  and  C_23
    4  A    between atoms: N_12  and  C_25
    5  A    between atoms: O_15  and  C_20
    6  A    between atoms: O_15  and  C_23
    7  A    between atoms: C_20  and  C_27
    8  A    between atoms: C_25  and  C_27
                            x       y       z     vdW  Elec       q    Type
                         _______ _______ _______ _____ _____    ______ ____

>  <TORSDO>
F 8

$$$$
=
 OpenBabel10272400303D

 31 35  0  0  1  0  0  0  0  0999 V2000
  186.3260  178.4550  145.5360 C   0  0  0  0  0  0  0  0  0  0  0  0
  186.2340  178.1250  144.1350 N   0  0  0  0  0  0  0  0  0  0  0  0
  185.7620  179.4890  145.9850 O   0  0  0  0  0  0  0  0  0  0  0  0
  185.3400  178.8720  143.2430 C   0  0  1  0  0  0  0  0  0  0  0  0
  184.1510  178.1190  142.8790 C   0  0  1  0  0  3  0  0  0  0  0  0
  182.8680  178.7740  144.6450 C   0  0  0  0  0  2  0  0  0  0  0  0
  183.9670  179.3500  143.7650 C   0  0  1  0  0  3  0  0  0  0  0  0
  184.7720  179.2740  140.9160 N   0  0  0  0  0  2  0  0  0  0  0  0
  181.5930  178.4330  143.8110 C   0  0  0  0  0  2  0  0  0  0  0  0
  185.8540  179.4110  141.9060 C   0  0  0  0  0  2  0  0  0  0  0  0
  181.4310  179.2180  142.4810 C   0  0  0  0  0  2  0  0  0  0  0  0
  181.9380  178.8660  140.1630 O   0  0  0  0  0  0  0  0  0  0  0  0
  183.7680  178.5440  141.5700 N   0  0  0  0  0  0  0  0  0  0  0  0
  182.3730  178.8280  141.3430 C   0  0  0  0  0  0  0  0  0  0  0  0
  188.3920  177.9180  146.5400 O   0  0  0  0  0  1  0  0  0  0  0  0
  187.0450  177.5650  146.4940 C   0  0  0  0  0  2  0  0  0  0  0  0
  186.8850  176.9210  143.6210 C   0  0  0  0  0  2  0  0  0  0  0  0
  188.2290  177.2620  142.9970 C   0  0  0  0  0  2  0  0  0  0  0  0
  189.2240  176.1380  143.2070 C   0  0  0  0  0  2  0  0  0  0  0  0
  189.9470  175.9350  142.0300 O   0  0  0  0  0  0  0  0  0  0  0  0
  190.1110  177.2100  141.4810 C   0  0  0  0  0  2  0  0  0  0  0  0
  187.8030  178.0640  136.8000 C   0  0  0  0  0  0  0  0  0  0  0  0
  188.0080  178.1350  139.3410 C   0  0  0  0  0  2  0  0  0  0  0  0
  191.1500  176.8080  137.9920 C   0  0  0  0  0  3  0  0  0  0  0  0
  191.3470  176.7100  139.3710 C   0  0  0  0  0  3  0  0  0  0  0  0
  187.1870  178.4820  135.7870 O   0  0  0  0  0  0  0  0  0  0  0  0
  190.2430  177.1230  140.0320 N   0  0  0  0  0  0  0  0  0  0  0  0
  187.0810  177.9470  138.1250 C   0  0  0  0  0  2  0  0  0  0  0  0
  189.8660  177.2990  137.8710 C   0  0  0  0  0  0  0  0  0  0  0  0
  189.3330  177.4710  139.1120 C   0  0  0  0  0  0  0  0  0  0  0  0
  189.1660  177.6340  136.6780 N   0  0  0  0  0  2  0  0  0  0  0  0
  1  3  2  0  0  0  0
  1 16  1  0  0  0  0
  2  1  1  0  0  0  0
  4  7  1  0  0  0  0
  4  2  1  1  0  0  0
  5 13  1  6  0  0  0
  5  4  1  0  0  0  0
  5  7  1  0  0  0  0
  7  6  1  1  0  0  0
  8 13  1  0  0  0  0
  8 10  1  0  0  0  0
  9  6  1  0  0  0  0
 10  4  1  0  0  0  0
 11  9  1  0  0  0  0
 12 14  2  0  0  0  0
 14 13  1  0  0  0  0
 14 11  1  0  0  0  0
 16 15  1  0  0  0  0
 17  2  1  0  0  0  0
 18 19  1  0  0  0  0
 18 17  1  0  0  0  0
 20 19  1  0  0  0  0
 21 20  1  0  0  0  0
 22 28  1  0  0  0  0
 24 25  2  0  0  0  0
 25 27  1  0  0  0  0
 26 22  2  0  0  0  0
 27 21  1  0  0  0  0
 28 23  1  0  0  0  0
 29 24  1  0  0  0  0
 29 30  2  0  0  0  0
 30 23  1  0  0  0  0
 30 27  1  0  0  0  0
 31 22  1  0  0  0  0
 31 29  1  0  0  0  0
M  END
>  <MODEL>
9

>  <REMARK>
 VINA RESULT:      -7.0      2.497      8.159
  Name = 
  8 active torsions:
  status: ('A' for Active; 'I' for Inactive)
    1  A    between atoms: C_2  and  C_28
    2  A    between atoms: C_4  and  N_12
    3  A    between atoms: N_9  and  C_23
    4  A    between atoms: N_12  and  C_25
    5  A    between atoms: O_15  and  C_20
    6  A    between atoms: O_15  and  C_23
    7  A    between atoms: C_20  and  C_27
    8  A    between atoms: C_25  and  C_27
                            x       y       z     vdW  Elec       q    Type
                         _______ _______ _______ _____ _____    ______ ____

>  <TORSDO>
F 8

$$$$
