=
 OpenBabel10272401083D

 27 30  0  0  0  0  0  0  0  0999 V2000
  187.3450  177.9220  145.5950 C   0  0  0  0  0  3  0  0  0  0  0  0
  186.9200  177.8680  144.3170 C   0  0  0  0  0  0  0  0  0  0  0  0
  187.9730  178.2590  142.0710 C   0  0  0  0  0  3  0  0  0  0  0  0
  190.4220  176.2670  140.0820 N   0  0  0  0  0  2  0  0  0  0  0  0
  191.2360  176.6690  137.9360 O   0  0  0  0  0  0  0  0  0  0  0  0
  188.5520  176.2590  143.3060 C   0  0  0  0  0  3  0  0  0  0  0  0
  189.0450  178.7870  139.8660 C   0  0  0  0  0  2  0  0  0  0  0  0
  189.3710  178.0180  138.5830 C   0  0  0  0  0  2  0  0  0  0  0  0
  188.8210  177.8690  141.0330 C   0  0  0  0  0  0  0  0  0  0  0  0
  190.4130  176.9720  138.8370 C   0  0  0  0  0  0  0  0  0  0  0  0
  189.5520  176.6720  141.1410 C   0  0  0  0  0  0  0  0  0  0  0  0
  187.8270  177.4570  143.2130 C   0  0  0  0  0  0  0  0  0  0  0  0
  189.4130  175.8700  142.2770 C   0  0  0  0  0  3  0  0  0  0  0  0
  187.7130  176.6990  148.2500 N   0  0  0  0  0  1  0  0  0  0  0  0
  191.2030  176.6860  146.9730 C   0  0  0  0  0  0  0  0  0  0  0  0
  192.5520  176.2620  147.4300 C   0  0  0  0  0  1  0  0  0  0  0  0
  188.6560  177.4730  146.1010 C   0  0  0  0  0  0  0  0  0  0  0  0
  190.0910  176.4740  147.7910 C   0  0  0  0  0  3  0  0  0  0  0  0
  191.0510  177.3140  145.7350 C   0  0  0  0  0  3  0  0  0  0  0  0
  189.7820  177.7110  145.3050 C   0  0  0  0  0  3  0  0  0  0  0  0
  188.8170  176.8690  147.3670 C   0  0  0  0  0  0  0  0  0  0  0  0
  182.8840  179.0820  143.4500 C   0  0  0  0  0  3  0  0  0  0  0  0
  185.5270  178.2950  144.0140 C   0  0  0  0  0  0  0  0  0  0  0  0
  184.6850  178.7700  145.0350 C   0  0  0  0  0  3  0  0  0  0  0  0
  183.3730  179.1630  144.7550 C   0  0  0  0  0  3  0  0  0  0  0  0
  183.7050  178.6080  142.4240 C   0  0  0  0  0  3  0  0  0  0  0  0
  185.0170  178.2150  142.7050 C   0  0  0  0  0  3  0  0  0  0  0  0
  1 17  1  0  0  0  0
  2  1  2  0  0  0  0
  3 12  1  0  0  0  0
  4 11  1  0  0  0  0
  5 10  2  0  0  0  0
  7  9  1  0  0  0  0
  8 10  1  0  0  0  0
  8  7  1  0  0  0  0
  9 11  1  0  0  0  0
  9  3  2  0  0  0  0
 10  4  1  0  0  0  0
 11 13  2  0  0  0  0
 12  6  2  0  0  0  0
 12  2  1  0  0  0  0
 13  6  1  0  0  0  0
 15 16  1  0  0  0  0
 15 18  1  0  0  0  0
 17 21  1  0  0  0  0
 19 15  2  0  0  0  0
 20 19  1  0  0  0  0
 20 17  2  0  0  0  0
 21 18  2  0  0  0  0
 21 14  1  0  0  0  0
 22 25  1  0  0  0  0
 23  2  1  0  0  0  0
 23 24  1  0  0  0  0
 25 24  2  0  0  0  0
 26 27  1  0  0  0  0
 26 22  2  0  0  0  0
 27 23  2  0  0  0  0
M  END
>  <MODEL>
1

>  <REMARK>
 VINA RESULT:     -10.0      0.000      0.000
  Name = 
  3 active torsions:
  status: ('A' for Active; 'I' for Inactive)
    1  A    between atoms: C_1  and  C_18
    2  A    between atoms: C_9  and  C_15
    3  A    between atoms: C_15  and  C_19
                            x       y       z     vdW  Elec       q    Type
                         _______ _______ _______ _____ _____    ______ ____

>  <TORSDO>
F 3

$$$$
=
 OpenBabel10272401083D

 27 30  0  0  0  0  0  0  0  0999 V2000
  188.0370  177.7430  141.1710 C   0  0  0  0  0  3  0  0  0  0  0  0
  189.3340  177.4030  141.3080 C   0  0  0  0  0  0  0  0  0  0  0  0
  190.6220  176.1930  143.0930 C   0  0  0  0  0  3  0  0  0  0  0  0
  191.8540  177.2700  146.4450 N   0  0  0  0  0  2  0  0  0  0  0  0
  192.9360  176.0120  148.0810 O   0  0  0  0  0  0  0  0  0  0  0  0
  189.9840  178.4990  143.4650 C   0  0  0  0  0  3  0  0  0  0  0  0
  191.9930  174.9320  144.7700 C   0  0  0  0  0  2  0  0  0  0  0  0
  191.9840  174.7450  146.2900 C   0  0  0  0  0  2  0  0  0  0  0  0
  191.2320  176.1550  144.3470 C   0  0  0  0  0  0  0  0  0  0  0  0
  192.3140  176.0290  146.9890 C   0  0  0  0  0  0  0  0  0  0  0  0
  191.2310  177.3040  145.1590 C   0  0  0  0  0  0  0  0  0  0  0  0
  189.9890  177.3620  142.6420 C   0  0  0  0  0  0  0  0  0  0  0  0
  190.6050  178.4710  144.7160 C   0  0  0  0  0  3  0  0  0  0  0  0
  185.7390  179.5730  140.9280 N   0  0  0  0  0  1  0  0  0  0  0  0
  185.3220  178.3680  144.4190 C   0  0  0  0  0  0  0  0  0  0  0  0
  184.3910  178.5670  145.5590 C   0  0  0  0  0  1  0  0  0  0  0  0
  187.0730  177.9760  142.2630 C   0  0  0  0  0  0  0  0  0  0  0  0
  185.0920  179.0230  143.2080 C   0  0  0  0  0  3  0  0  0  0  0  0
  186.4380  177.5400  144.5650 C   0  0  0  0  0  3  0  0  0  0  0  0
  187.3130  177.3510  143.4920 C   0  0  0  0  0  3  0  0  0  0  0  0
  185.9640  178.8390  142.1290 C   0  0  0  0  0  0  0  0  0  0  0  0
  191.6300  176.5880  137.7620 C   0  0  0  0  0  3  0  0  0  0  0  0
  190.1290  177.1290  140.0800 C   0  0  0  0  0  0  0  0  0  0  0  0
  189.4920  176.7630  138.8810 C   0  0  0  0  0  3  0  0  0  0  0  0
  190.2380  176.4960  137.7290 C   0  0  0  0  0  3  0  0  0  0  0  0
  192.2790  176.9450  138.9460 C   0  0  0  0  0  3  0  0  0  0  0  0
  191.5340  177.2120  140.0980 C   0  0  0  0  0  3  0  0  0  0  0  0
  1  2  2  0  0  0  0
  1 17  1  0  0  0  0
  2 12  1  0  0  0  0
  3  9  1  0  0  0  0
  4 10  1  0  0  0  0
  6 13  2  0  0  0  0
  7  8  1  0  0  0  0
  8 10  1  0  0  0  0
  9  7  1  0  0  0  0
  9 11  2  0  0  0  0
 10  5  2  0  0  0  0
 11  4  1  0  0  0  0
 12  3  2  0  0  0  0
 12  6  1  0  0  0  0
 13 11  1  0  0  0  0
 14 21  1  0  0  0  0
 15 19  1  0  0  0  0
 15 16  1  0  0  0  0
 17 20  1  0  0  0  0
 18 15  2  0  0  0  0
 20 19  2  0  0  0  0
 21 17  2  0  0  0  0
 21 18  1  0  0  0  0
 22 26  1  0  0  0  0
 23 27  1  0  0  0  0
 23  2  1  0  0  0  0
 24 23  2  0  0  0  0
 25 22  2  0  0  0  0
 25 24  1  0  0  0  0
 26 27  2  0  0  0  0
M  END
>  <MODEL>
2

>  <REMARK>
 VINA RESULT:      -9.8      2.824      6.791
  Name = 
  3 active torsions:
  status: ('A' for Active; 'I' for Inactive)
    1  A    between atoms: C_1  and  C_18
    2  A    between atoms: C_9  and  C_15
    3  A    between atoms: C_15  and  C_19
                            x       y       z     vdW  Elec       q    Type
                         _______ _______ _______ _____ _____    ______ ____

>  <TORSDO>
F 3

$$$$
=
 OpenBabel10272401083D

 27 30  0  0  0  0  0  0  0  0999 V2000
  190.9590  176.8220  141.9330 C   0  0  0  0  0  3  0  0  0  0  0  0
  189.7720  177.2000  141.4170 C   0  0  0  0  0  0  0  0  0  0  0  0
  187.5840  178.3060  141.9570 C   0  0  0  0  0  3  0  0  0  0  0  0
  185.1380  177.7790  144.7260 N   0  0  0  0  0  2  0  0  0  0  0  0
  183.1870  178.9620  145.2010 O   0  0  0  0  0  0  0  0  0  0  0  0
  188.4000  176.5480  143.4080 C   0  0  0  0  0  3  0  0  0  0  0  0
  185.3640  179.4010  142.3570 C   0  0  0  0  0  2  0  0  0  0  0  0
  184.6120  179.9680  143.5640 C   0  0  0  0  0  2  0  0  0  0  0  0
  186.4550  178.4540  142.7650 C   0  0  0  0  0  0  0  0  0  0  0  0
  184.2450  178.8780  144.5260 C   0  0  0  0  0  0  0  0  0  0  0  0
  186.2920  177.6320  143.8950 C   0  0  0  0  0  0  0  0  0  0  0  0
  188.5670  177.3560  142.2730 C   0  0  0  0  0  0  0  0  0  0  0  0
  187.2660  176.6820  144.2130 C   0  0  0  0  0  3  0  0  0  0  0  0
  191.1350  179.0770  143.8230 N   0  0  0  0  0  1  0  0  0  0  0  0
  191.9220  176.2140  146.0580 C   0  0  0  0  0  0  0  0  0  0  0  0
  192.2550  175.9780  147.4870 C   0  0  0  0  0  1  0  0  0  0  0  0
  191.2760  176.6520  143.3640 C   0  0  0  0  0  0  0  0  0  0  0  0
  191.6540  177.5090  145.6080 C   0  0  0  0  0  3  0  0  0  0  0  0
  191.8950  175.1430  145.1620 C   0  0  0  0  0  3  0  0  0  0  0  0
  191.5800  175.3640  143.8190 C   0  0  0  0  0  3  0  0  0  0  0  0
  191.3380  177.7380  144.2650 C   0  0  0  0  0  0  0  0  0  0  0  0
  189.4970  177.7780  137.1620 C   0  0  0  0  0  3  0  0  0  0  0  0
  189.6700  177.3980  139.9450 C   0  0  0  0  0  0  0  0  0  0  0  0
  190.1930  176.4430  139.0560 C   0  0  0  0  0  3  0  0  0  0  0  0
  190.1060  176.6310  137.6740 C   0  0  0  0  0  3  0  0  0  0  0  0
  188.9750  178.7390  138.0320 C   0  0  0  0  0  3  0  0  0  0  0  0
  189.0620  178.5500  139.4140 C   0  0  0  0  0  3  0  0  0  0  0  0
  1 17  1  0  0  0  0
  2  1  2  0  0  0  0
  2 12  1  0  0  0  0
  3 12  2  0  0  0  0
  3  9  1  0  0  0  0
  6 13  2  0  0  0  0
  7  9  1  0  0  0  0
  7  8  1  0  0  0  0
  8 10  1  0  0  0  0
  9 11  2  0  0  0  0
 10  4  1  0  0  0  0
 10  5  2  0  0  0  0
 11 13  1  0  0  0  0
 11  4  1  0  0  0  0
 12  6  1  0  0  0  0
 14 21  1  0  0  0  0
 15 16  1  0  0  0  0
 17 20  2  0  0  0  0
 17 21  1  0  0  0  0
 18 15  1  0  0  0  0
 19 15  2  0  0  0  0
 20 19  1  0  0  0  0
 21 18  2  0  0  0  0
 22 25  2  0  0  0  0
 22 26  1  0  0  0  0
 23  2  1  0  0  0  0
 24 23  2  0  0  0  0
 25 24  1  0  0  0  0
 26 27  2  0  0  0  0
 27 23  1  0  0  0  0
M  END
>  <MODEL>
3

>  <REMARK>
 VINA RESULT:      -9.6      2.828      5.664
  Name = 
  3 active torsions:
  status: ('A' for Active; 'I' for Inactive)
    1  A    between atoms: C_1  and  C_18
    2  A    between atoms: C_9  and  C_15
    3  A    between atoms: C_15  and  C_19
                            x       y       z     vdW  Elec       q    Type
                         _______ _______ _______ _____ _____    ______ ____

>  <TORSDO>
F 3

$$$$
=
 OpenBabel10272401083D

 27 30  0  0  0  0  0  0  0  0999 V2000
  187.2780  177.5070  145.3220 C   0  0  0  0  0  3  0  0  0  0  0  0
  188.4400  177.4610  144.6410 C   0  0  0  0  0  0  0  0  0  0  0  0
  189.2720  176.9870  142.3200 C   0  0  0  0  0  3  0  0  0  0  0  0
  188.6630  178.6880  139.0550 N   0  0  0  0  0  2  0  0  0  0  0  0
  189.5990  178.2320  136.9700 O   0  0  0  0  0  0  0  0  0  0  0  0
  187.7880  178.8660  142.6740 C   0  0  0  0  0  3  0  0  0  0  0  0
  190.0760  176.3730  140.0250 C   0  0  0  0  0  2  0  0  0  0  0  0
  190.6400  177.1220  138.8150 C   0  0  0  0  0  2  0  0  0  0  0  0
  189.3330  177.2870  140.9580 C   0  0  0  0  0  0  0  0  0  0  0  0
  189.6030  178.0190  138.2090 C   0  0  0  0  0  0  0  0  0  0  0  0
  188.6040  178.3760  140.4490 C   0  0  0  0  0  0  0  0  0  0  0  0
  188.5030  177.7750  143.1900 C   0  0  0  0  0  0  0  0  0  0  0  0
  187.8350  179.1640  141.3090 C   0  0  0  0  0  3  0  0  0  0  0  0
  185.3740  179.0580  146.9520 N   0  0  0  0  0  1  0  0  0  0  0  0
  183.5260  178.8190  143.7360 C   0  0  0  0  0  0  0  0  0  0  0  0
  182.2310  179.2670  143.1640 C   0  0  0  0  0  1  0  0  0  0  0  0
  185.9810  177.9870  144.8080 C   0  0  0  0  0  0  0  0  0  0  0  0
  183.8660  179.1630  145.0470 C   0  0  0  0  0  3  0  0  0  0  0  0
  184.3960  178.0390  142.9710 C   0  0  0  0  0  3  0  0  0  0  0  0
  185.6150  177.6200  143.5090 C   0  0  0  0  0  3  0  0  0  0  0  0
  185.0860  178.7470  145.5920 C   0  0  0  0  0  0  0  0  0  0  0  0
  191.9810  176.1680  146.7150 C   0  0  0  0  0  3  0  0  0  0  0  0
  189.6670  177.0210  145.3600 C   0  0  0  0  0  0  0  0  0  0  0  0
  190.8170  176.6400  144.6470 C   0  0  0  0  0  3  0  0  0  0  0  0
  191.9670  176.2180  145.3200 C   0  0  0  0  0  3  0  0  0  0  0  0
  190.8460  176.5390  147.4390 C   0  0  0  0  0  3  0  0  0  0  0  0
  189.6960  176.9610  146.7660 C   0  0  0  0  0  3  0  0  0  0  0  0
  2  1  2  0  0  0  0
  2 23  1  0  0  0  0
  3 12  1  0  0  0  0
  4 11  1  0  0  0  0
  5 10  2  0  0  0  0
  6 12  2  0  0  0  0
  7  9  1  0  0  0  0
  8  7  1  0  0  0  0
  9  3  2  0  0  0  0
 10  8  1  0  0  0  0
 10  4  1  0  0  0  0
 11  9  1  0  0  0  0
 11 13  2  0  0  0  0
 12  2  1  0  0  0  0
 13  6  1  0  0  0  0
 15 18  1  0  0  0  0
 16 15  1  0  0  0  0
 17  1  1  0  0  0  0
 17 21  1  0  0  0  0
 18 21  2  0  0  0  0
 19 20  1  0  0  0  0
 19 15  2  0  0  0  0
 20 17  2  0  0  0  0
 21 14  1  0  0  0  0
 22 26  1  0  0  0  0
 23 27  1  0  0  0  0
 24 25  1  0  0  0  0
 24 23  2  0  0  0  0
 25 22  2  0  0  0  0
 27 26  2  0  0  0  0
M  END
>  <MODEL>
4

>  <REMARK>
 VINA RESULT:      -9.3      1.347      5.464
  Name = 
  3 active torsions:
  status: ('A' for Active; 'I' for Inactive)
    1  A    between atoms: C_1  and  C_18
    2  A    between atoms: C_9  and  C_15
    3  A    between atoms: C_15  and  C_19
                            x       y       z     vdW  Elec       q    Type
                         _______ _______ _______ _____ _____    ______ ____

>  <TORSDO>
F 3

$$$$
=
 OpenBabel10272401083D

 27 30  0  0  0  0  0  0  0  0999 V2000
  190.6450  176.9710  141.4020 C   0  0  0  0  0  3  0  0  0  0  0  0
  189.5020  177.4620  140.8830 C   0  0  0  0  0  0  0  0  0  0  0  0
  188.3890  177.5850  143.1300 C   0  0  0  0  0  3  0  0  0  0  0  0
  185.0310  178.8210  144.1880 N   0  0  0  0  0  2  0  0  0  0  0  0
  184.0500  178.7670  146.3010 O   0  0  0  0  0  0  0  0  0  0  0  0
  187.1900  178.3780  141.1820 C   0  0  0  0  0  3  0  0  0  0  0  0
  187.4020  177.7580  145.4290 C   0  0  0  0  0  2  0  0  0  0  0  0
  186.0440  177.4670  146.0740 C   0  0  0  0  0  2  0  0  0  0  0  0
  187.2980  177.9100  143.9390 C   0  0  0  0  0  0  0  0  0  0  0  0
  184.9950  178.4030  145.5550 C   0  0  0  0  0  0  0  0  0  0  0  0
  186.1510  178.4870  143.3650 C   0  0  0  0  0  0  0  0  0  0  0  0
  188.3440  177.8120  141.7460 C   0  0  0  0  0  0  0  0  0  0  0  0
  186.1000  178.7170  141.9880 C   0  0  0  0  0  3  0  0  0  0  0  0
  191.2860  179.2790  143.1190 N   0  0  0  0  0  1  0  0  0  0  0  0
  191.6100  176.4790  145.5410 C   0  0  0  0  0  0  0  0  0  0  0  0
  191.9390  176.2850  146.9770 C   0  0  0  0  0  1  0  0  0  0  0  0
  190.9710  176.8440  142.8350 C   0  0  0  0  0  0  0  0  0  0  0  0
  191.5680  177.7680  145.0030 C   0  0  0  0  0  3  0  0  0  0  0  0
  191.3610  175.3730  144.7260 C   0  0  0  0  0  3  0  0  0  0  0  0
  191.0500  175.5560  143.3760 C   0  0  0  0  0  3  0  0  0  0  0  0
  191.2560  177.9590  143.6530 C   0  0  0  0  0  0  0  0  0  0  0  0
  189.2050  177.8270  136.6050 C   0  0  0  0  0  3  0  0  0  0  0  0
  189.3910  177.5890  139.4030 C   0  0  0  0  0  0  0  0  0  0  0  0
  189.5490  176.4640  138.5740 C   0  0  0  0  0  3  0  0  0  0  0  0
  189.4550  176.5820  137.1850 C   0  0  0  0  0  3  0  0  0  0  0  0
  189.0500  178.9550  137.4140 C   0  0  0  0  0  3  0  0  0  0  0  0
  189.1440  178.8370  138.8030 C   0  0  0  0  0  3  0  0  0  0  0  0
  1 17  1  0  0  0  0
  2  1  2  0  0  0  0
  2 12  1  0  0  0  0
  3  9  1  0  0  0  0
  4 10  1  0  0  0  0
  6 12  1  0  0  0  0
  6 13  2  0  0  0  0
  7  8  1  0  0  0  0
  9  7  1  0  0  0  0
 10  8  1  0  0  0  0
 10  5  2  0  0  0  0
 11  9  2  0  0  0  0
 11  4  1  0  0  0  0
 12  3  2  0  0  0  0
 13 11  1  0  0  0  0
 14 21  1  0  0  0  0
 15 16  1  0  0  0  0
 17 20  2  0  0  0  0
 17 21  1  0  0  0  0
 18 15  1  0  0  0  0
 19 15  2  0  0  0  0
 20 19  1  0  0  0  0
 21 18  2  0  0  0  0
 22 25  2  0  0  0  0
 22 26  1  0  0  0  0
 23  2  1  0  0  0  0
 24 23  2  0  0  0  0
 25 24  1  0  0  0  0
 26 27  2  0  0  0  0
 27 23  1  0  0  0  0
M  END
>  <MODEL>
5

>  <REMARK>
 VINA RESULT:      -9.2      2.885      5.980
  Name = 
  3 active torsions:
  status: ('A' for Active; 'I' for Inactive)
    1  A    between atoms: C_1  and  C_18
    2  A    between atoms: C_9  and  C_15
    3  A    between atoms: C_15  and  C_19
                            x       y       z     vdW  Elec       q    Type
                         _______ _______ _______ _____ _____    ______ ____

>  <TORSDO>
F 3

$$$$
=
 OpenBabel10272401083D

 27 30  0  0  0  0  0  0  0  0999 V2000
  188.0870  177.5470  145.0750 C   0  0  0  0  0  3  0  0  0  0  0  0
  187.9920  177.7840  143.7520 C   0  0  0  0  0  0  0  0  0  0  0  0
  189.1180  177.1390  141.6020 C   0  0  0  0  0  3  0  0  0  0  0  0
  192.6000  177.6420  140.3600 N   0  0  0  0  0  2  0  0  0  0  0  0
  193.5740  176.8810  138.3840 O   0  0  0  0  0  0  0  0  0  0  0  0
  190.3950  178.3150  143.2890 C   0  0  0  0  0  3  0  0  0  0  0  0
  190.1240  176.5400  139.3850 C   0  0  0  0  0  2  0  0  0  0  0  0
  191.4410  175.9290  138.8980 C   0  0  0  0  0  2  0  0  0  0  0  0
  190.2410  177.0970  140.7750 C   0  0  0  0  0  0  0  0  0  0  0  0
  192.5910  176.8510  139.1680 C   0  0  0  0  0  0  0  0  0  0  0  0
  191.4460  177.6830  141.2030 C   0  0  0  0  0  0  0  0  0  0  0  0
  189.1850  177.7430  142.8670 C   0  0  0  0  0  0  0  0  0  0  0  0
  191.5200  178.2880  142.4600 C   0  0  0  0  0  3  0  0  0  0  0  0
  188.6500  178.2650  147.8770 N   0  0  0  0  0  1  0  0  0  0  0  0
  191.6300  176.1990  147.0620 C   0  0  0  0  0  0  0  0  0  0  0  0
  192.8650  175.7170  147.7320 C   0  0  0  0  0  1  0  0  0  0  0  0
  189.2910  177.0930  145.7980 C   0  0  0  0  0  0  0  0  0  0  0  0
  190.7060  176.9700  147.7710 C   0  0  0  0  0  3  0  0  0  0  0  0
  191.4010  175.8970  145.7170 C   0  0  0  0  0  3  0  0  0  0  0  0
  190.2390  176.3480  145.0870 C   0  0  0  0  0  3  0  0  0  0  0  0
  189.5400  177.4260  147.1470 C   0  0  0  0  0  0  0  0  0  0  0  0
  184.1590  178.8870  142.1370 C   0  0  0  0  0  3  0  0  0  0  0  0
  186.6640  178.1580  143.1920 C   0  0  0  0  0  0  0  0  0  0  0  0
  186.5450  178.6010  141.8630 C   0  0  0  0  0  3  0  0  0  0  0  0
  185.3010  178.9610  141.3380 C   0  0  0  0  0  3  0  0  0  0  0  0
  184.2590  178.4530  143.4610 C   0  0  0  0  0  3  0  0  0  0  0  0
  185.5030  178.0930  143.9850 C   0  0  0  0  0  3  0  0  0  0  0  0
  1 17  1  0  0  0  0
  2  1  2  0  0  0  0
  3 12  1  0  0  0  0
  4 11  1  0  0  0  0
  5 10  2  0  0  0  0
  7  9  1  0  0  0  0
  8 10  1  0  0  0  0
  8  7  1  0  0  0  0
  9 11  1  0  0  0  0
  9  3  2  0  0  0  0
 10  4  1  0  0  0  0
 11 13  2  0  0  0  0
 12  6  2  0  0  0  0
 12  2  1  0  0  0  0
 13  6  1  0  0  0  0
 15 16  1  0  0  0  0
 15 18  1  0  0  0  0
 17 21  1  0  0  0  0
 19 15  2  0  0  0  0
 20 19  1  0  0  0  0
 20 17  2  0  0  0  0
 21 18  2  0  0  0  0
 21 14  1  0  0  0  0
 22 26  1  0  0  0  0
 23  2  1  0  0  0  0
 23 27  1  0  0  0  0
 24 23  2  0  0  0  0
 25 24  1  0  0  0  0
 25 22  2  0  0  0  0
 26 27  2  0  0  0  0
M  END
>  <MODEL>
6

>  <REMARK>
 VINA RESULT:      -9.0      1.502      2.049
  Name = 
  3 active torsions:
  status: ('A' for Active; 'I' for Inactive)
    1  A    between atoms: C_1  and  C_18
    2  A    between atoms: C_9  and  C_15
    3  A    between atoms: C_15  and  C_19
                            x       y       z     vdW  Elec       q    Type
                         _______ _______ _______ _____ _____    ______ ____

>  <TORSDO>
F 3

$$$$
=
 OpenBabel10272401083D

 27 30  0  0  0  0  0  0  0  0999 V2000
  186.3610  178.5600  140.6240 C   0  0  0  0  0  3  0  0  0  0  0  0
  187.5850  178.0650  140.8970 C   0  0  0  0  0  0  0  0  0  0  0  0
  189.3100  178.0690  142.7220 C   0  0  0  0  0  3  0  0  0  0  0  0
  189.1930  176.9140  146.2680 N   0  0  0  0  0  2  0  0  0  0  0  0
  190.9090  176.8500  147.8440 O   0  0  0  0  0  0  0  0  0  0  0  0
  187.1060  177.1840  143.1920 C   0  0  0  0  0  3  0  0  0  0  0  0
  191.0680  178.2070  144.5050 C   0  0  0  0  0  2  0  0  0  0  0  0
  191.6080  177.2820  145.5980 C   0  0  0  0  0  2  0  0  0  0  0  0
  189.7070  177.7840  144.0300 C   0  0  0  0  0  0  0  0  0  0  0  0
  190.5680  177.0270  146.6470 C   0  0  0  0  0  0  0  0  0  0  0  0
  188.7910  177.2080  144.9280 C   0  0  0  0  0  0  0  0  0  0  0  0
  188.0090  177.7680  142.2900 C   0  0  0  0  0  0  0  0  0  0  0  0
  187.4940  176.9080  144.5060 C   0  0  0  0  0  3  0  0  0  0  0  0
  183.6570  177.4710  140.1900 N   0  0  0  0  0  1  0  0  0  0  0  0
  183.2200  179.1760  143.4630 C   0  0  0  0  0  0  0  0  0  0  0  0
  182.1450  179.4000  144.4650 C   0  0  0  0  0  1  0  0  0  0  0  0
  185.2560  178.7410  141.5840 C   0  0  0  0  0  0  0  0  0  0  0  0
  182.9620  178.4140  142.3220 C   0  0  0  0  0  3  0  0  0  0  0  0
  184.4820  179.7430  143.6550 C   0  0  0  0  0  3  0  0  0  0  0  0
  185.4930  179.5310  142.7140 C   0  0  0  0  0  3  0  0  0  0  0  0
  183.9690  178.1970  141.3760 C   0  0  0  0  0  0  0  0  0  0  0  0
  190.3380  177.5200  137.6360 C   0  0  0  0  0  3  0  0  0  0  0  0
  188.5430  177.8810  139.7730 C   0  0  0  0  0  0  0  0  0  0  0  0
  188.4460  178.6690  138.6130 C   0  0  0  0  0  3  0  0  0  0  0  0
  189.3390  178.4910  137.5520 C   0  0  0  0  0  3  0  0  0  0  0  0
  190.4460  176.7250  138.7800 C   0  0  0  0  0  3  0  0  0  0  0  0
  189.5530  176.9030  139.8410 C   0  0  0  0  0  3  0  0  0  0  0  0
  1  2  2  0  0  0  0
  1 17  1  0  0  0  0
  2 12  1  0  0  0  0
  3  9  1  0  0  0  0
  4 10  1  0  0  0  0
  6 13  2  0  0  0  0
  7  8  1  0  0  0  0
  8 10  1  0  0  0  0
  9  7  1  0  0  0  0
  9 11  2  0  0  0  0
 10  5  2  0  0  0  0
 11  4  1  0  0  0  0
 12  3  2  0  0  0  0
 12  6  1  0  0  0  0
 13 11  1  0  0  0  0
 14 21  1  0  0  0  0
 15 19  1  0  0  0  0
 15 16  1  0  0  0  0
 17 20  1  0  0  0  0
 18 15  2  0  0  0  0
 20 19  2  0  0  0  0
 21 17  2  0  0  0  0
 21 18  1  0  0  0  0
 22 26  1  0  0  0  0
 23 27  1  0  0  0  0
 23  2  1  0  0  0  0
 24 23  2  0  0  0  0
 25 22  2  0  0  0  0
 25 24  1  0  0  0  0
 26 27  2  0  0  0  0
M  END
>  <MODEL>
7

>  <REMARK>
 VINA RESULT:      -8.9      2.634      6.850
  Name = 
  3 active torsions:
  status: ('A' for Active; 'I' for Inactive)
    1  A    between atoms: C_1  and  C_18
    2  A    between atoms: C_9  and  C_15
    3  A    between atoms: C_15  and  C_19
                            x       y       z     vdW  Elec       q    Type
                         _______ _______ _______ _____ _____    ______ ____

>  <TORSDO>
F 3

$$$$
=
 OpenBabel10272401083D

 27 30  0  0  0  0  0  0  0  0999 V2000
  185.0460  178.3960  145.3430 C   0  0  0  0  0  3  0  0  0  0  0  0
  184.9080  178.3670  144.0030 C   0  0  0  0  0  0  0  0  0  0  0  0
  187.0530  177.2540  143.3180 C   0  0  0  0  0  3  0  0  0  0  0  0
  189.4300  177.9260  140.5210 N   0  0  0  0  0  2  0  0  0  0  0  0
  191.4710  176.9010  140.0560 O   0  0  0  0  0  0  0  0  0  0  0  0
  186.2390  179.1310  142.0230 C   0  0  0  0  0  3  0  0  0  0  0  0
  189.1300  176.0150  142.6550 C   0  0  0  0  0  2  0  0  0  0  0  0
  190.5430  176.3900  142.2010 C   0  0  0  0  0  2  0  0  0  0  0  0
  188.1600  177.1470  142.4740 C   0  0  0  0  0  0  0  0  0  0  0  0
  190.5140  177.0560  140.8580 C   0  0  0  0  0  0  0  0  0  0  0  0
  188.2980  178.0310  141.3880 C   0  0  0  0  0  0  0  0  0  0  0  0
  186.0850  178.2480  143.1030 C   0  0  0  0  0  0  0  0  0  0  0  0
  187.3380  179.0200  141.1670 C   0  0  0  0  0  3  0  0  0  0  0  0
  185.8770  180.1040  147.5970 N   0  0  0  0  0  1  0  0  0  0  0  0
  188.7100  177.7040  147.4430 C   0  0  0  0  0  0  0  0  0  0  0  0
  189.9850  177.4430  148.1590 C   0  0  0  0  0  1  0  0  0  0  0  0
  186.2950  178.1830  146.0990 C   0  0  0  0  0  0  0  0  0  0  0  0
  187.8760  178.7440  147.8590 C   0  0  0  0  0  3  0  0  0  0  0  0
  188.3540  176.9210  146.3420 C   0  0  0  0  0  3  0  0  0  0  0  0
  187.1550  177.1650  145.6700 C   0  0  0  0  0  3  0  0  0  0  0  0
  186.6730  178.9950  147.1900 C   0  0  0  0  0  0  0  0  0  0  0  0
  180.9620  178.7980  142.3430 C   0  0  0  0  0  3  0  0  0  0  0  0
  183.5450  178.5230  143.4260 C   0  0  0  0  0  0  0  0  0  0  0  0
  182.4390  178.7720  144.2590 C   0  0  0  0  0  3  0  0  0  0  0  0
  181.1570  178.9100  143.7210 C   0  0  0  0  0  3  0  0  0  0  0  0
  182.0480  178.5470  141.5020 C   0  0  0  0  0  3  0  0  0  0  0  0
  183.3310  178.4090  142.0400 C   0  0  0  0  0  3  0  0  0  0  0  0
  1 17  1  0  0  0  0
  2  1  2  0  0  0  0
  4 10  1  0  0  0  0
  4 11  1  0  0  0  0
  5 10  2  0  0  0  0
  6 12  2  0  0  0  0
  8  7  1  0  0  0  0
  9  7  1  0  0  0  0
  9  3  2  0  0  0  0
 10  8  1  0  0  0  0
 11  9  1  0  0  0  0
 12  3  1  0  0  0  0
 12  2  1  0  0  0  0
 13 11  2  0  0  0  0
 13  6  1  0  0  0  0
 15 18  1  0  0  0  0
 15 16  1  0  0  0  0
 17 21  1  0  0  0  0
 19 15  2  0  0  0  0
 20 17  2  0  0  0  0
 20 19  1  0  0  0  0
 21 14  1  0  0  0  0
 21 18  2  0  0  0  0
 22 25  1  0  0  0  0
 23  2  1  0  0  0  0
 23 24  1  0  0  0  0
 25 24  2  0  0  0  0
 26 27  1  0  0  0  0
 26 22  2  0  0  0  0
 27 23  2  0  0  0  0
M  END
>  <MODEL>
8

>  <REMARK>
 VINA RESULT:      -8.8      1.658      2.716
  Name = 
  3 active torsions:
  status: ('A' for Active; 'I' for Inactive)
    1  A    between atoms: C_1  and  C_18
    2  A    between atoms: C_9  and  C_15
    3  A    between atoms: C_15  and  C_19
                            x       y       z     vdW  Elec       q    Type
                         _______ _______ _______ _____ _____    ______ ____

>  <TORSDO>
F 3

$$$$
=
 OpenBabel10272401083D

 27 30  0  0  0  0  0  0  0  0999 V2000
  185.9570  178.2650  145.0790 C   0  0  0  0  0  3  0  0  0  0  0  0
  187.2710  177.9640  145.0790 C   0  0  0  0  0  0  0  0  0  0  0  0
  188.1040  178.4530  142.7610 C   0  0  0  0  0  3  0  0  0  0  0  0
  189.9900  176.3790  140.2980 N   0  0  0  0  0  2  0  0  0  0  0  0
  190.6030  176.8990  138.1110 O   0  0  0  0  0  0  0  0  0  0  0  0
  188.5230  176.2710  143.7230 C   0  0  0  0  0  3  0  0  0  0  0  0
  188.9820  179.0690  140.4940 C   0  0  0  0  0  2  0  0  0  0  0  0
  189.0420  178.4070  139.1150 C   0  0  0  0  0  2  0  0  0  0  0  0
  188.7620  178.0670  141.5910 C   0  0  0  0  0  0  0  0  0  0  0  0
  189.9420  177.2090  139.1350 C   0  0  0  0  0  0  0  0  0  0  0  0
  189.3160  176.7790  141.4940 C   0  0  0  0  0  0  0  0  0  0  0  0
  187.9750  177.5580  143.8340 C   0  0  0  0  0  0  0  0  0  0  0  0
  189.1930  175.8840  142.5600 C   0  0  0  0  0  3  0  0  0  0  0  0
  183.1540  179.1630  145.2210 N   0  0  0  0  0  1  0  0  0  0  0  0
  183.5090  178.5170  141.5790 C   0  0  0  0  0  0  0  0  0  0  0  0
  182.6780  178.6000  140.3500 C   0  0  0  0  0  1  0  0  0  0  0  0
  185.0850  178.3760  143.8940 C   0  0  0  0  0  0  0  0  0  0  0  0
  182.9730  178.9010  142.8100 C   0  0  0  0  0  3  0  0  0  0  0  0
  184.8190  178.0380  141.5050 C   0  0  0  0  0  3  0  0  0  0  0  0
  185.6010  177.9630  142.6600 C   0  0  0  0  0  3  0  0  0  0  0  0
  183.7500  178.8280  143.9710 C   0  0  0  0  0  0  0  0  0  0  0  0
  189.3870  178.0360  148.8250 C   0  0  0  0  0  3  0  0  0  0  0  0
  188.0030  177.9810  146.3750 C   0  0  0  0  0  0  0  0  0  0  0  0
  187.3440  178.3360  147.5650 C   0  0  0  0  0  3  0  0  0  0  0  0
  188.0310  178.3620  148.7820 C   0  0  0  0  0  3  0  0  0  0  0  0
  190.0580  177.6840  147.6510 C   0  0  0  0  0  3  0  0  0  0  0  0
  189.3710  177.6590  146.4350 C   0  0  0  0  0  3  0  0  0  0  0  0
  1  2  2  0  0  0  0
  2 23  1  0  0  0  0
  3 12  1  0  0  0  0
  4 11  1  0  0  0  0
  5 10  2  0  0  0  0
  6 12  2  0  0  0  0
  7  9  1  0  0  0  0
  8 10  1  0  0  0  0
  8  7  1  0  0  0  0
  9  3  2  0  0  0  0
 10  4  1  0  0  0  0
 11  9  1  0  0  0  0
 11 13  2  0  0  0  0
 12  2  1  0  0  0  0
 13  6  1  0  0  0  0
 15 18  1  0  0  0  0
 16 15  1  0  0  0  0
 17 21  1  0  0  0  0
 17  1  1  0  0  0  0
 18 21  2  0  0  0  0
 19 15  2  0  0  0  0
 19 20  1  0  0  0  0
 20 17  2  0  0  0  0
 21 14  1  0  0  0  0
 23 27  2  0  0  0  0
 23 24  1  0  0  0  0
 24 25  2  0  0  0  0
 25 22  1  0  0  0  0
 26 22  2  0  0  0  0
 27 26  1  0  0  0  0
M  END
>  <MODEL>
9

>  <REMARK>
 VINA RESULT:      -8.7      1.572      5.265
  Name = 
  3 active torsions:
  status: ('A' for Active; 'I' for Inactive)
    1  A    between atoms: C_1  and  C_18
    2  A    between atoms: C_9  and  C_15
    3  A    between atoms: C_15  and  C_19
                            x       y       z     vdW  Elec       q    Type
                         _______ _______ _______ _____ _____    ______ ____

>  <TORSDO>
F 3

$$$$
