=
 OpenBabel10272400333D

 31 35  0  0  1  0  0  0  0  0999 V2000
  183.6880  178.9660  144.6720 C   0  0  0  0  0  0  0  0  0  0  0  0
  186.7490  178.7040  142.5000 N   0  0  0  0  0  0  0  0  0  0  0  0
  187.7690  177.9810  143.2250 C   0  0  0  0  0  0  0  0  0  0  0  0
  184.1950  177.4180  138.1060 O   0  0  0  0  0  0  0  0  0  0  0  0
  185.3620  177.7890  137.7990 C   0  0  0  0  0  0  0  0  0  0  0  0
  188.7500  177.1360  145.2830 C   0  0  0  0  0  0  0  0  0  0  0  0
  185.3800  178.7480  142.9460 C   0  0  0  0  0  0  0  0  0  0  0  0
  182.6850  178.7690  143.7170 C   0  0  0  0  0  3  0  0  0  0  0  0
  187.7470  177.8530  144.6220 C   0  0  0  0  0  3  0  0  0  0  0  0
  185.9360  178.5260  140.1750 C   0  0  0  0  0  0  0  0  0  0  0  0
  183.3570  179.1630  145.9710 F   0  0  0  0  0  0  0  0  0  0  0  0
  188.7940  177.4960  141.0190 C   0  0  0  0  0  2  0  0  0  0  0  0
  188.7170  177.0070  146.7620 C   0  0  0  0  0  1  0  0  0  0  0  0
  184.7210  178.3520  140.6150 N   0  0  0  0  0  0  0  0  0  0  0  0
  186.9860  179.1040  141.0960 C   0  0  2  0  0  3  0  0  0  0  0  0
  186.2460  178.3250  138.7890 N   0  0  0  0  0  2  0  0  0  0  0  0
  185.0320  178.9530  144.2880 C   0  0  0  0  0  3  0  0  0  0  0  0
  189.7790  176.5380  144.5500 C   0  0  0  0  0  3  0  0  0  0  0  0
  184.3660  178.5670  141.9880 C   0  0  0  0  0  0  0  0  0  0  0  0
  183.0240  178.5670  142.3770 C   0  0  0  0  0  3  0  0  0  0  0  0
  188.3590  178.8370  140.6370 N   0  0  0  0  0  2  0  0  0  0  0  0
  188.8120  177.3860  142.5040 C   0  0  0  0  0  0  0  0  0  0  0  0
  189.8090  176.6590  143.1590 C   0  0  0  0  0  3  0  0  0  0  0  0
  187.3320  175.1470  135.9410 C   0  0  1  0  0  3  0  0  0  0  0  0
  185.2140  176.4700  135.6640 C   0  0  0  0  0  2  0  0  0  0  0  0
  188.0560  178.7880  136.9610 C   0  0  0  0  0  1  0  0  0  0  0  0
  187.9040  173.8320  136.4270 C   0  0  0  0  0  1  0  0  0  0  0  0
  185.8170  175.1440  136.1320 C   0  0  0  0  0  2  0  0  0  0  0  0
  187.3850  177.6260  136.2490 C   0  0  2  0  0  3  0  0  0  0  0  0
  185.8510  177.6630  136.3830 C   0  0  2  0  0  3  0  0  0  0  0  0
  187.9640  176.2940  136.7240 C   0  0  0  0  0  2  0  0  0  0  0  0
  1 11  1  0  0  0  0
  2  7  1  0  0  0  0
  2  3  1  0  0  0  0
  3  9  1  0  0  0  0
  5  4  2  0  0  0  0
  5 16  1  0  0  0  0
  6 13  1  0  0  0  0
  7 17  2  0  0  0  0
  8  1  2  0  0  0  0
  9  6  2  0  0  0  0
 10 14  2  0  0  0  0
 12 22  1  0  0  0  0
 14 19  1  0  0  0  0
 15 10  1  6  0  0  0
 15  2  1  0  0  0  0
 16 10  1  0  0  0  0
 17  1  1  0  0  0  0
 18  6  1  0  0  0  0
 19 20  2  0  0  0  0
 19  7  1  0  0  0  0
 20  8  1  0  0  0  0
 21 12  1  0  0  0  0
 21 15  1  0  0  0  0
 22 23  1  0  0  0  0
 22  3  2  0  0  0  0
 23 18  2  0  0  0  0
 24 28  1  0  0  0  0
 24 27  1  1  0  0  0
 24 31  1  0  0  0  0
 25 28  1  0  0  0  0
 25 30  1  0  0  0  0
 29 30  1  0  0  0  0
 29 31  1  0  0  0  0
 29 26  1  1  0  0  0
 30  5  1  1  0  0  0
M  END
>  <MODEL>
1

>  <REMARK>
 VINA RESULT:      -9.5      0.000      0.000
  Name = 
  1 active torsions:
  status: ('A' for Active; 'I' for Inactive)
    1  A    between atoms: C_9  and  C_22
                            x       y       z     vdW  Elec       q    Type
                         _______ _______ _______ _____ _____    ______ ____

>  <TORSDO>
F 1

$$$$
=
 OpenBabel10272400333D

 31 35  0  0  1  0  0  0  0  0999 V2000
  181.0540  178.8610  143.2680 C   0  0  0  0  0  0  0  0  0  0  0  0
  184.6910  178.9570  142.3110 N   0  0  0  0  0  0  0  0  0  0  0  0
  185.4770  178.4990  143.4350 C   0  0  0  0  0  0  0  0  0  0  0  0
  184.0640  176.8340  137.5590 O   0  0  0  0  0  0  0  0  0  0  0  0
  185.2000  177.3790  137.6090 C   0  0  0  0  0  0  0  0  0  0  0  0
  185.7690  178.0380  145.8030 C   0  0  0  0  0  0  0  0  0  0  0  0
  183.2600  178.7940  142.2610 C   0  0  0  0  0  0  0  0  0  0  0  0
  180.4910  178.4000  142.0730 C   0  0  0  0  0  3  0  0  0  0  0  0
  184.9780  178.4980  144.7460 C   0  0  0  0  0  3  0  0  0  0  0  0
  184.7880  178.4220  139.9010 C   0  0  0  0  0  0  0  0  0  0  0  0
  180.2600  179.1140  144.3360 F   0  0  0  0  0  0  0  0  0  0  0  0
  187.2730  178.0060  141.7970 C   0  0  0  0  0  2  0  0  0  0  0  0
  185.2320  178.0410  147.1880 C   0  0  0  0  0  1  0  0  0  0  0  0
  183.5320  178.0730  139.9300 N   0  0  0  0  0  0  0  0  0  0  0  0
  185.3530  179.2620  141.0240 C   0  0  2  0  0  3  0  0  0  0  0  0
  185.5940  178.1540  138.7460 N   0  0  0  0  0  2  0  0  0  0  0  0
  182.4350  179.0560  143.3630 C   0  0  0  0  0  3  0  0  0  0  0  0
  187.0630  177.5700  145.5560 C   0  0  0  0  0  3  0  0  0  0  0  0
  182.6880  178.3460  141.0570 C   0  0  0  0  0  0  0  0  0  0  0  0
  181.3080  178.1400  140.9690 C   0  0  0  0  0  3  0  0  0  0  0  0
  186.8230  179.2060  141.0960 N   0  0  0  0  0  2  0  0  0  0  0  0
  186.7780  178.0380  143.2010 C   0  0  0  0  0  0  0  0  0  0  0  0
  187.5680  177.5660  144.2520 C   0  0  0  0  0  3  0  0  0  0  0  0
  186.4810  174.3860  135.6790 C   0  0  1  0  0  3  0  0  0  0  0  0
  185.4950  176.6510  135.2210 C   0  0  0  0  0  2  0  0  0  0  0  0
  188.1200  176.9120  138.0800 C   0  0  0  0  0  1  0  0  0  0  0  0
  186.1590  172.9150  135.8320 C   0  0  0  0  0  1  0  0  0  0  0  0
  185.2010  175.1560  135.3630 C   0  0  0  0  0  2  0  0  0  0  0  0
  187.4250  176.3920  136.8330 C   0  0  2  0  0  3  0  0  0  0  0  0
  186.1730  177.2140  136.4740 C   0  0  2  0  0  3  0  0  0  0  0  0
  187.1070  174.9050  136.9710 C   0  0  0  0  0  2  0  0  0  0  0  0
  1 17  1  0  0  0  0
  1 11  1  0  0  0  0
  2  3  1  0  0  0  0
  3  9  1  0  0  0  0
  4  5  2  0  0  0  0
  5 16  1  0  0  0  0
  6 13  1  0  0  0  0
  7  2  1  0  0  0  0
  7 17  2  0  0  0  0
  8  1  2  0  0  0  0
  9  6  2  0  0  0  0
 10 14  2  0  0  0  0
 12 22  1  0  0  0  0
 14 19  1  0  0  0  0
 15 10  1  6  0  0  0
 15 21  1  0  0  0  0
 15  2  1  0  0  0  0
 16 10  1  0  0  0  0
 18  6  1  0  0  0  0
 19  7  1  0  0  0  0
 20 19  2  0  0  0  0
 20  8  1  0  0  0  0
 21 12  1  0  0  0  0
 22  3  2  0  0  0  0
 22 23  1  0  0  0  0
 23 18  2  0  0  0  0
 24 27  1  1  0  0  0
 24 31  1  0  0  0  0
 25 28  1  0  0  0  0
 25 30  1  0  0  0  0
 28 24  1  0  0  0  0
 29 31  1  0  0  0  0
 29 26  1  1  0  0  0
 30 29  1  0  0  0  0
 30  5  1  1  0  0  0
M  END
>  <MODEL>
2

>  <REMARK>
 VINA RESULT:      -9.3      1.500      2.148
  Name = 
  1 active torsions:
  status: ('A' for Active; 'I' for Inactive)
    1  A    between atoms: C_9  and  C_22
                            x       y       z     vdW  Elec       q    Type
                         _______ _______ _______ _____ _____    ______ ____

>  <TORSDO>
F 1

$$$$
=
 OpenBabel10272400333D

 31 35  0  0  1  0  0  0  0  0999 V2000
  185.1110  178.7010  146.0860 C   0  0  0  0  0  0  0  0  0  0  0  0
  187.0640  178.5700  142.8740 N   0  0  0  0  0  0  0  0  0  0  0  0
  188.2770  177.8180  143.1010 C   0  0  0  0  0  0  0  0  0  0  0  0
  182.9670  177.4910  139.7850 O   0  0  0  0  0  0  0  0  0  0  0  0
  183.9230  177.8840  139.0620 C   0  0  0  0  0  0  0  0  0  0  0  0
  189.9780  176.8770  144.5600 C   0  0  0  0  0  0  0  0  0  0  0  0
  185.9820  178.5820  143.8250 C   0  0  0  0  0  0  0  0  0  0  0  0
  183.8100  178.5450  145.5960 C   0  0  0  0  0  3  0  0  0  0  0  0
  188.8060  177.6190  144.3850 C   0  0  0  0  0  3  0  0  0  0  0  0
  185.3970  178.5040  141.0510 C   0  0  0  0  0  0  0  0  0  0  0  0
  185.3210  178.8290  147.4190 F   0  0  0  0  0  0  0  0  0  0  0  0
  188.3430  177.4520  140.6480 C   0  0  0  0  0  2  0  0  0  0  0  0
  190.5290  176.6720  145.9240 C   0  0  0  0  0  1  0  0  0  0  0  0
  184.4520  178.2990  141.9260 N   0  0  0  0  0  0  0  0  0  0  0  0
  186.7330  179.0420  141.5110 C   0  0  2  0  0  3  0  0  0  0  0  0
  185.1340  178.3760  139.6470 N   0  0  0  0  0  2  0  0  0  0  0  0
  186.1950  178.7160  145.2040 C   0  0  0  0  0  3  0  0  0  0  0  0
  190.6270  176.3240  143.4530 C   0  0  0  0  0  3  0  0  0  0  0  0
  184.6700  178.4420  143.3370 C   0  0  0  0  0  0  0  0  0  0  0  0
  183.5900  178.4140  144.2230 C   0  0  0  0  0  3  0  0  0  0  0  0
  187.8110  178.8080  140.5350 N   0  0  0  0  0  2  0  0  0  0  0  0
  188.9430  177.2680  141.9980 C   0  0  0  0  0  0  0  0  0  0  0  0
  190.1070  176.5150  142.1700 C   0  0  0  0  0  3  0  0  0  0  0  0
  182.7990  175.2290  136.6120 C   0  0  1  0  0  3  0  0  0  0  0  0
  182.3630  177.6530  137.1050 C   0  0  0  0  0  2  0  0  0  0  0  0
  186.1770  176.9280  137.3400 C   0  0  0  0  0  1  0  0  0  0  0  0
  182.3070  173.8180  136.8580 C   0  0  0  0  0  1  0  0  0  0  0  0
  181.8780  176.2180  137.3230 C   0  0  0  0  0  2  0  0  0  0  0  0
  184.7300  176.7890  136.9000 C   0  0  2  0  0  3  0  0  0  0  0  0
  183.8130  177.8340  137.5630 C   0  0  2  0  0  3  0  0  0  0  0  0
  184.2270  175.3660  137.1320 C   0  0  0  0  0  2  0  0  0  0  0  0
  1 11  1  0  0  0  0
  2  3  1  0  0  0  0
  2  7  1  0  0  0  0
  3  9  1  0  0  0  0
  5 16  1  0  0  0  0
  5  4  2  0  0  0  0
  6 13  1  0  0  0  0
  7 17  1  0  0  0  0
  8  1  1  0  0  0  0
  9  6  2  0  0  0  0
 10 15  1  0  0  0  0
 10 14  2  0  0  0  0
 12 22  1  0  0  0  0
 14 19  1  0  0  0  0
 15 21  1  6  0  0  0
 15  2  1  0  0  0  0
 16 10  1  0  0  0  0
 17  1  2  0  0  0  0
 18  6  1  0  0  0  0
 19  7  2  0  0  0  0
 19 20  1  0  0  0  0
 20  8  2  0  0  0  0
 21 12  1  0  0  0  0
 22 23  1  0  0  0  0
 22  3  2  0  0  0  0
 23 18  2  0  0  0  0
 24 27  1  1  0  0  0
 24 31  1  0  0  0  0
 24 28  1  0  0  0  0
 25 28  1  0  0  0  0
 25 30  1  0  0  0  0
 29 31  1  0  0  0  0
 29 26  1  1  0  0  0
 29 30  1  0  0  0  0
 30  5  1  1  0  0  0
M  END
>  <MODEL>
3

>  <REMARK>
 VINA RESULT:      -9.1      1.706      2.323
  Name = 
  1 active torsions:
  status: ('A' for Active; 'I' for Inactive)
    1  A    between atoms: C_9  and  C_22
                            x       y       z     vdW  Elec       q    Type
                         _______ _______ _______ _____ _____    ______ ____

>  <TORSDO>
F 1

$$$$
=
 OpenBabel10272400333D

 31 35  0  0  1  0  0  0  0  0999 V2000
  181.4770  178.9370  142.7830 C   0  0  0  0  0  0  0  0  0  0  0  0
  185.1880  178.9040  142.1680 N   0  0  0  0  0  0  0  0  0  0  0  0
  185.8510  178.4370  143.3650 C   0  0  0  0  0  0  0  0  0  0  0  0
  184.9350  176.7340  137.4020 O   0  0  0  0  0  0  0  0  0  0  0  0
  186.0800  177.2440  137.5520 C   0  0  0  0  0  0  0  0  0  0  0  0
  185.9070  178.0000  145.7560 C   0  0  0  0  0  0  0  0  0  0  0  0
  183.7640  178.7860  141.9870 C   0  0  0  0  0  0  0  0  0  0  0  0
  181.0130  178.4770  141.5460 C   0  0  0  0  0  3  0  0  0  0  0  0
  185.2320  178.4700  144.6240 C   0  0  0  0  0  3  0  0  0  0  0  0
  185.4910  178.3320  139.7840 C   0  0  0  0  0  0  0  0  0  0  0  0
  180.5950  179.2300  143.7700 F   0  0  0  0  0  0  0  0  0  0  0  0
  187.7740  177.8640  141.9080 C   0  0  0  0  0  2  0  0  0  0  0  0
  185.2440  178.0400  147.0840 C   0  0  0  0  0  1  0  0  0  0  0  0
  184.2260  178.0230  139.6990 N   0  0  0  0  0  0  0  0  0  0  0  0
  185.9770  179.1700  140.9450 C   0  0  2  0  0  3  0  0  0  0  0  0
  186.3920  178.0230  138.7120 N   0  0  0  0  0  2  0  0  0  0  0  0
  182.8480  179.0890  143.0040 C   0  0  0  0  0  3  0  0  0  0  0  0
  187.2020  177.4890  145.6350 C   0  0  0  0  0  3  0  0  0  0  0  0
  183.2910  178.3380  140.7400 C   0  0  0  0  0  0  0  0  0  0  0  0
  181.9190  178.1750  140.5260 C   0  0  0  0  0  3  0  0  0  0  0  0
  187.4310  179.0680  141.1550 N   0  0  0  0  0  2  0  0  0  0  0  0
  187.1520  177.9320  143.2590 C   0  0  0  0  0  0  0  0  0  0  0  0
  187.8250  177.4500  144.3840 C   0  0  0  0  0  3  0  0  0  0  0  0
  189.8420  176.8770  137.7110 C   0  0  1  0  0  3  0  0  0  0  0  0
  187.8680  175.6940  136.7040 C   0  0  0  0  0  2  0  0  0  0  0  0
  187.4820  179.5360  136.2330 C   0  0  0  0  0  1  0  0  0  0  0  0
  190.7780  176.9110  138.9020 C   0  0  0  0  0  1  0  0  0  0  0  0
  188.8380  175.7400  137.8860 C   0  0  0  0  0  2  0  0  0  0  0  0
  188.1600  178.1890  136.4090 C   0  0  2  0  0  3  0  0  0  0  0  0
  187.1470  177.0320  136.5140 C   0  0  2  0  0  3  0  0  0  0  0  0
  189.1150  178.2150  137.6000 C   0  0  0  0  0  2  0  0  0  0  0  0
  1 17  1  0  0  0  0
  1 11  1  0  0  0  0
  2  3  1  0  0  0  0
  3  9  1  0  0  0  0
  4  5  2  0  0  0  0
  5 16  1  0  0  0  0
  6 13  1  0  0  0  0
  7  2  1  0  0  0  0
  7 17  2  0  0  0  0
  8  1  2  0  0  0  0
  9  6  2  0  0  0  0
 12 22  1  0  0  0  0
 14 10  2  0  0  0  0
 14 19  1  0  0  0  0
 15 10  1  6  0  0  0
 15 21  1  0  0  0  0
 15  2  1  0  0  0  0
 16 10  1  0  0  0  0
 18  6  1  0  0  0  0
 19  7  1  0  0  0  0
 20 19  2  0  0  0  0
 20  8  1  0  0  0  0
 21 12  1  0  0  0  0
 22  3  2  0  0  0  0
 22 23  1  0  0  0  0
 23 18  2  0  0  0  0
 24 28  1  0  0  0  0
 24 27  1  1  0  0  0
 25 28  1  0  0  0  0
 29 26  1  1  0  0  0
 29 30  1  0  0  0  0
 29 31  1  0  0  0  0
 30 25  1  0  0  0  0
 30  5  1  1  0  0  0
 31 24  1  0  0  0  0
M  END
>  <MODEL>
4

>  <REMARK>
 VINA RESULT:      -9.0      1.555      2.383
  Name = 
  1 active torsions:
  status: ('A' for Active; 'I' for Inactive)
    1  A    between atoms: C_9  and  C_22
                            x       y       z     vdW  Elec       q    Type
                         _______ _______ _______ _____ _____    ______ ____

>  <TORSDO>
F 1

$$$$
=
 OpenBabel10272400333D

 31 35  0  0  1  0  0  0  0  0999 V2000
  186.6410  178.4060  147.3000 C   0  0  0  0  0  0  0  0  0  0  0  0
  187.9820  178.3420  143.7860 N   0  0  0  0  0  0  0  0  0  0  0  0
  189.1650  177.5130  143.7580 C   0  0  0  0  0  0  0  0  0  0  0  0
  183.3420  177.6610  141.4410 O   0  0  0  0  0  0  0  0  0  0  0  0
  184.1780  178.0400  140.5750 C   0  0  0  0  0  0  0  0  0  0  0  0
  191.0330  176.4010  144.8450 C   0  0  0  0  0  0  0  0  0  0  0  0
  187.0880  178.3620  144.9160 C   0  0  0  0  0  0  0  0  0  0  0  0
  185.2660  178.3500  147.0460 C   0  0  0  0  0  3  0  0  0  0  0  0
  189.8990  177.2150  144.9160 C   0  0  0  0  0  3  0  0  0  0  0  0
  186.0180  178.4680  142.2920 C   0  0  0  0  0  0  0  0  0  0  0  0
  187.0910  178.4510  148.5770 F   0  0  0  0  0  0  0  0  0  0  0  0
  188.7720  177.2780  141.3200 C   0  0  0  0  0  2  0  0  0  0  0  0
  191.8030  176.0930  146.0770 C   0  0  0  0  0  1  0  0  0  0  0  0
  185.2310  178.2690  143.3130 N   0  0  0  0  0  0  0  0  0  0  0  0
  187.4460  178.9050  142.5270 C   0  0  2  0  0  3  0  0  0  0  0  0
  185.5020  178.4310  140.9540 N   0  0  0  0  0  2  0  0  0  0  0  0
  187.5500  178.4100  146.2380 C   0  0  0  0  0  3  0  0  0  0  0  0
  191.4390  175.8740  143.6160 C   0  0  0  0  0  3  0  0  0  0  0  0
  185.7050  178.3220  144.6660 C   0  0  0  0  0  0  0  0  0  0  0  0
  184.7990  178.3060  145.7300 C   0  0  0  0  0  3  0  0  0  0  0  0
  188.3160  178.6660  141.3630 N   0  0  0  0  0  2  0  0  0  0  0  0
  189.5880  176.9870  142.5300 C   0  0  0  0  0  0  0  0  0  0  0  0
  190.7140  176.1630  142.4570 C   0  0  0  0  0  3  0  0  0  0  0  0
  181.2270  179.4550  138.6760 C   0  0  1  0  0  3  0  0  0  0  0  0
  183.7370  179.5120  138.5860 C   0  0  0  0  0  2  0  0  0  0  0  0
  182.5280  175.8860  139.3110 C   0  0  0  0  0  1  0  0  0  0  0  0
  179.9990  180.1840  139.1800 C   0  0  0  0  0  1  0  0  0  0  0  0
  182.4790  180.2360  139.0680 C   0  0  0  0  0  2  0  0  0  0  0  0
  182.5080  177.3110  138.7860 C   0  0  2  0  0  3  0  0  0  0  0  0
  183.8010  178.0780  139.1200 C   0  0  2  0  0  3  0  0  0  0  0  0
  181.2670  178.0530  139.2780 C   0  0  0  0  0  2  0  0  0  0  0  0
  1 11  1  0  0  0  0
  2  7  1  0  0  0  0
  3  2  1  0  0  0  0
  3  9  1  0  0  0  0
  5 16  1  0  0  0  0
  5  4  2  0  0  0  0
  6  9  2  0  0  0  0
  6 13  1  0  0  0  0
  7 17  1  0  0  0  0
  8  1  1  0  0  0  0
 10 15  1  0  0  0  0
 10 14  2  0  0  0  0
 12 21  1  0  0  0  0
 12 22  1  0  0  0  0
 14 19  1  0  0  0  0
 15 21  1  6  0  0  0
 15  2  1  0  0  0  0
 16 10  1  0  0  0  0
 17  1  2  0  0  0  0
 18  6  1  0  0  0  0
 19  7  2  0  0  0  0
 19 20  1  0  0  0  0
 20  8  2  0  0  0  0
 22  3  2  0  0  0  0
 23 22  1  0  0  0  0
 23 18  2  0  0  0  0
 24 28  1  0  0  0  0
 24 27  1  1  0  0  0
 24 31  1  0  0  0  0
 25 28  1  0  0  0  0
 25 30  1  0  0  0  0
 29 30  1  0  0  0  0
 29 31  1  0  0  0  0
 29 26  1  1  0  0  0
 30  5  1  1  0  0  0
M  END
>  <MODEL>
5

>  <REMARK>
 VINA RESULT:      -8.8      2.931      4.220
  Name = 
  1 active torsions:
  status: ('A' for Active; 'I' for Inactive)
    1  A    between atoms: C_9  and  C_22
                            x       y       z     vdW  Elec       q    Type
                         _______ _______ _______ _____ _____    ______ ____

>  <TORSDO>
F 1

$$$$
=
 OpenBabel10272400333D

 31 35  0  0  1  0  0  0  0  0999 V2000
  190.0810  174.0140  135.5970 C   0  0  0  0  0  0  0  0  0  0  0  0
  188.1610  176.8010  137.2390 N   0  0  0  0  0  0  0  0  0  0  0  0
  186.7620  176.6580  136.9050 C   0  0  0  0  0  0  0  0  0  0  0  0
  190.5620  176.4570  141.8860 O   0  0  0  0  0  0  0  0  0  0  0  0
  189.9630  177.5650  141.8250 C   0  0  0  0  0  0  0  0  0  0  0  0
  184.9640  175.7890  135.5190 C   0  0  0  0  0  0  0  0  0  0  0  0
  189.1190  175.7560  136.9850 C   0  0  0  0  0  0  0  0  0  0  0  0
  190.9960  173.7070  136.6100 C   0  0  0  0  0  3  0  0  0  0  0  0
  186.3280  175.9090  135.8000 C   0  0  0  0  0  3  0  0  0  0  0  0
  189.3100  177.2690  139.3750 C   0  0  0  0  0  0  0  0  0  0  0  0
  190.1000  173.3180  134.4340 F   0  0  0  0  0  0  0  0  0  0  0  0
  186.2860  178.0390  138.9100 C   0  0  0  0  0  2  0  0  0  0  0  0
  184.5160  174.9940  134.3470 C   0  0  0  0  0  1  0  0  0  0  0  0
  190.0240  176.1880  139.2260 N   0  0  0  0  0  0  0  0  0  0  0  0
  188.5890  177.8560  138.1830 C   0  0  2  0  0  3  0  0  0  0  0  0
  189.3270  177.9910  140.6140 N   0  0  0  0  0  2  0  0  0  0  0  0
  189.1440  175.0340  135.7840 C   0  0  0  0  0  3  0  0  0  0  0  0
  184.0230  176.4120  136.3440 C   0  0  0  0  0  3  0  0  0  0  0  0
  190.0510  175.4540  137.9940 C   0  0  0  0  0  0  0  0  0  0  0  0
  190.9790  174.4250  137.8090 C   0  0  0  0  0  3  0  0  0  0  0  0
  187.5020  178.7730  138.5660 N   0  0  0  0  0  2  0  0  0  0  0  0
  185.8100  177.2860  137.7170 C   0  0  0  0  0  0  0  0  0  0  0  0
  184.4450  177.1580  137.4470 C   0  0  0  0  0  3  0  0  0  0  0  0
  191.1530  177.2270  145.4000 C   0  0  1  0  0  3  0  0  0  0  0  0
  191.2890  178.8760  143.5100 C   0  0  0  0  0  2  0  0  0  0  0  0
  187.6790  177.4500  143.7560 C   0  0  0  0  0  1  0  0  0  0  0  0
  191.8710  176.0840  146.0870 C   0  0  0  0  0  1  0  0  0  0  0  0
  192.0000  177.7310  144.2340 C   0  0  0  0  0  2  0  0  0  0  0  0
  189.0660  177.8860  144.1950 C   0  0  2  0  0  3  0  0  0  0  0  0
  189.8950  178.4610  143.0310 C   0  0  2  0  0  3  0  0  0  0  0  0
  189.7950  176.7440  144.9000 C   0  0  0  0  0  2  0  0  0  0  0  0
  1 17  2  0  0  0  0
  1  8  1  0  0  0  0
  2 15  1  0  0  0  0
  3  2  1  0  0  0  0
  3 22  1  0  0  0  0
  5  4  2  0  0  0  0
  6  9  1  0  0  0  0
  6 18  2  0  0  0  0
  7  2  1  0  0  0  0
  7 19  2  0  0  0  0
  8 20  2  0  0  0  0
  9  3  2  0  0  0  0
 10 16  1  0  0  0  0
 11  1  1  0  0  0  0
 13  6  1  0  0  0  0
 14 10  2  0  0  0  0
 15 21  1  1  0  0  0
 15 10  1  0  0  0  0
 16  5  1  0  0  0  0
 17  7  1  0  0  0  0
 18 23  1  0  0  0  0
 19 14  1  0  0  0  0
 20 19  1  0  0  0  0
 21 12  1  0  0  0  0
 22 12  1  0  0  0  0
 23 22  2  0  0  0  0
 24 27  1  6  0  0  0
 25 28  1  0  0  0  0
 28 24  1  0  0  0  0
 29 26  1  6  0  0  0
 29 31  1  0  0  0  0
 30  5  1  6  0  0  0
 30 25  1  0  0  0  0
 30 29  1  0  0  0  0
 31 24  1  0  0  0  0
M  END
>  <MODEL>
6

>  <REMARK>
 VINA RESULT:      -8.5      3.731      8.679
  Name = 
  1 active torsions:
  status: ('A' for Active; 'I' for Inactive)
    1  A    between atoms: C_9  and  C_22
                            x       y       z     vdW  Elec       q    Type
                         _______ _______ _______ _____ _____    ______ ____

>  <TORSDO>
F 1

$$$$
=
 OpenBabel10272400333D

 31 35  0  0  1  0  0  0  0  0999 V2000
  186.8070  176.4800  135.5950 C   0  0  0  0  0  0  0  0  0  0  0  0
  185.4630  178.1550  138.6840 N   0  0  0  0  0  0  0  0  0  0  0  0
  184.0880  177.7490  138.8690 C   0  0  0  0  0  0  0  0  0  0  0  0
  189.6700  177.2420  141.6760 O   0  0  0  0  0  0  0  0  0  0  0  0
  188.9710  178.1360  142.2270 C   0  0  0  0  0  0  0  0  0  0  0  0
  181.9900  176.8390  138.0460 C   0  0  0  0  0  0  0  0  0  0  0  0
  186.3370  177.4930  137.7490 C   0  0  0  0  0  0  0  0  0  0  0  0
  188.1020  176.1660  136.0220 C   0  0  0  0  0  3  0  0  0  0  0  0
  183.3140  177.2280  137.8210 C   0  0  0  0  0  3  0  0  0  0  0  0
  187.3600  178.3300  140.2580 C   0  0  0  0  0  0  0  0  0  0  0  0
  186.4050  176.1390  134.3470 F   0  0  0  0  0  0  0  0  0  0  0  0
  184.3660  178.3910  141.2480 C   0  0  0  0  0  2  0  0  0  0  0  0
  181.1790  176.2890  136.9300 C   0  0  0  0  0  1  0  0  0  0  0  0
  188.0660  177.5460  139.4920 N   0  0  0  0  0  0  0  0  0  0  0  0
  186.1250  179.0010  139.7010 C   0  0  2  0  0  3  0  0  0  0  0  0
  187.8250  178.6840  141.5670 N   0  0  0  0  0  2  0  0  0  0  0  0
  185.9260  177.1390  136.4560 C   0  0  0  0  0  3  0  0  0  0  0  0
  181.4320  176.9630  139.3220 C   0  0  0  0  0  3  0  0  0  0  0  0
  187.6450  177.1890  138.1670 C   0  0  0  0  0  0  0  0  0  0  0  0
  188.5200  176.5180  137.3080 C   0  0  0  0  0  3  0  0  0  0  0  0
  185.2090  179.4770  140.7510 N   0  0  0  0  0  2  0  0  0  0  0  0
  183.5150  177.8780  140.1400 C   0  0  0  0  0  0  0  0  0  0  0  0
  182.1970  177.4790  140.3720 C   0  0  0  0  0  3  0  0  0  0  0  0
  191.1770  176.8190  145.0050 C   0  0  1  0  0  3  0  0  0  0  0  0
  190.8190  178.9500  143.7250 C   0  0  0  0  0  2  0  0  0  0  0  0
  187.3840  177.3770  144.6490 C   0  0  0  0  0  1  0  0  0  0  0  0
  192.0070  175.5540  145.0770 C   0  0  0  0  0  1  0  0  0  0  0  0
  191.6530  177.6720  143.8320 C   0  0  0  0  0  2  0  0  0  0  0  0
  188.8610  177.7190  144.7450 C   0  0  2  0  0  3  0  0  0  0  0  0
  189.3250  178.6390  143.6000 C   0  0  2  0  0  3  0  0  0  0  0  0
  189.7070  176.4510  144.8310 C   0  0  0  0  0  2  0  0  0  0  0  0
  1  8  2  0  0  0  0
  1 17  1  0  0  0  0
  2  3  1  0  0  0  0
  2 15  1  0  0  0  0
  3 22  1  0  0  0  0
  4  5  2  0  0  0  0
  6 18  2  0  0  0  0
  7 19  1  0  0  0  0
  7  2  1  0  0  0  0
  8 20  1  0  0  0  0
  9  6  1  0  0  0  0
  9  3  2  0  0  0  0
 10 16  1  0  0  0  0
 11  1  1  0  0  0  0
 13  6  1  0  0  0  0
 14 10  2  0  0  0  0
 15 10  1  1  0  0  0
 15 21  1  0  0  0  0
 16  5  1  0  0  0  0
 17  7  2  0  0  0  0
 18 23  1  0  0  0  0
 19 14  1  0  0  0  0
 20 19  2  0  0  0  0
 21 12  1  0  0  0  0
 22 23  2  0  0  0  0
 22 12  1  0  0  0  0
 24 27  1  6  0  0  0
 25 28  1  0  0  0  0
 28 24  1  0  0  0  0
 29 26  1  6  0  0  0
 29 31  1  0  0  0  0
 30  5  1  6  0  0  0
 30 25  1  0  0  0  0
 30 29  1  0  0  0  0
 31 24  1  0  0  0  0
M  END
>  <MODEL>
7

>  <REMARK>
 VINA RESULT:      -8.4      3.111      7.819
  Name = 
  1 active torsions:
  status: ('A' for Active; 'I' for Inactive)
    1  A    between atoms: C_9  and  C_22
                            x       y       z     vdW  Elec       q    Type
                         _______ _______ _______ _____ _____    ______ ____

>  <TORSDO>
F 1

$$$$
=
 OpenBabel10272400333D

 31 35  0  0  1  0  0  0  0  0999 V2000
  190.9720  176.8710  142.6810 C   0  0  0  0  0  0  0  0  0  0  0  0
  189.8340  177.8680  139.2370 N   0  0  0  0  0  0  0  0  0  0  0  0
  190.5750  177.0980  138.2640 C   0  0  0  0  0  0  0  0  0  0  0  0
  184.7070  177.8610  140.3320 O   0  0  0  0  0  0  0  0  0  0  0  0
  184.8860  178.4890  139.2530 C   0  0  0  0  0  0  0  0  0  0  0  0
  192.4750  175.7350  137.6030 C   0  0  0  0  0  0  0  0  0  0  0  0
  189.8450  177.5420  140.6410 C   0  0  0  0  0  0  0  0  0  0  0  0
  189.7510  176.8780  143.3620 C   0  0  0  0  0  3  0  0  0  0  0  0
  191.7960  176.4790  138.5730 C   0  0  0  0  0  3  0  0  0  0  0  0
  187.4310  178.4100  139.4320 C   0  0  0  0  0  0  0  0  0  0  0  0
  192.1110  176.5400  143.3370 F   0  0  0  0  0  0  0  0  0  0  0  0
  188.7330  177.5920  136.6780 C   0  0  0  0  0  2  0  0  0  0  0  0
  193.7670  175.0830  137.9390 C   0  0  0  0  0  1  0  0  0  0  0  0
  187.4170  177.9070  140.6350 N   0  0  0  0  0  0  0  0  0  0  0  0
  188.7510  178.7730  138.7920 C   0  0  2  0  0  3  0  0  0  0  0  0
  186.2070  178.7650  138.7740 N   0  0  0  0  0  2  0  0  0  0  0  0
  191.0200  177.2000  141.3240 C   0  0  0  0  0  3  0  0  0  0  0  0
  191.9370  175.6010  136.3200 C   0  0  0  0  0  3  0  0  0  0  0  0
  188.6210  177.5620  141.3340 C   0  0  0  0  0  0  0  0  0  0  0  0
  188.5760  177.2210  142.6880 C   0  0  0  0  0  3  0  0  0  0  0  0
  188.6620  178.9000  137.3270 N   0  0  0  0  0  2  0  0  0  0  0  0
  190.0510  176.9650  136.9720 C   0  0  0  0  0  0  0  0  0  0  0  0
  190.7210  176.2130  136.0050 C   0  0  0  0  0  3  0  0  0  0  0  0
  181.1540  177.9120  139.4900 C   0  0  1  0  0  3  0  0  0  0  0  0
  182.7600  179.8300  139.2590 C   0  0  0  0  0  2  0  0  0  0  0  0
  183.8500  176.9130  136.9290 C   0  0  0  0  0  1  0  0  0  0  0  0
  180.3530  177.0940  140.4800 C   0  0  0  0  0  1  0  0  0  0  0  0
  181.9270  178.9980  140.2350 C   0  0  0  0  0  2  0  0  0  0  0  0
  182.9390  177.8150  137.7430 C   0  0  2  0  0  3  0  0  0  0  0  0
  183.7100  178.9530  138.4380 C   0  0  2  0  0  3  0  0  0  0  0  0
  182.1170  176.9970  138.7380 C   0  0  0  0  0  2  0  0  0  0  0  0
  1 11  1  0  0  0  0
  1  8  1  0  0  0  0
  2  7  1  0  0  0  0
  3  9  1  0  0  0  0
  3  2  1  0  0  0  0
  5  4  2  0  0  0  0
  6 13  1  0  0  0  0
  6  9  2  0  0  0  0
  7 17  1  0  0  0  0
  7 19  2  0  0  0  0
 10 14  2  0  0  0  0
 12 22  1  0  0  0  0
 12 21  1  0  0  0  0
 14 19  1  0  0  0  0
 15 21  1  6  0  0  0
 15  2  1  0  0  0  0
 15 10  1  0  0  0  0
 16  5  1  0  0  0  0
 16 10  1  0  0  0  0
 17  1  2  0  0  0  0
 18  6  1  0  0  0  0
 19 20  1  0  0  0  0
 20  8  2  0  0  0  0
 22  3  2  0  0  0  0
 23 18  2  0  0  0  0
 23 22  1  0  0  0  0
 24 28  1  0  0  0  0
 24 27  1  1  0  0  0
 25 28  1  0  0  0  0
 29 26  1  1  0  0  0
 29 30  1  0  0  0  0
 29 31  1  0  0  0  0
 30  5  1  1  0  0  0
 30 25  1  0  0  0  0
 31 24  1  0  0  0  0
M  END
>  <MODEL>
8

>  <REMARK>
 VINA RESULT:      -8.4      3.173      6.091
  Name = 
  1 active torsions:
  status: ('A' for Active; 'I' for Inactive)
    1  A    between atoms: C_9  and  C_22
                            x       y       z     vdW  Elec       q    Type
                         _______ _______ _______ _____ _____    ______ ____

>  <TORSDO>
F 1

$$$$
=
 OpenBabel10272400333D

 31 35  0  0  1  0  0  0  0  0999 V2000
  191.2250  176.3680  144.4950 C   0  0  0  0  0  0  0  0  0  0  0  0
  187.5580  177.1870  144.3110 N   0  0  0  0  0  0  0  0  0  0  0  0
  187.1740  177.8630  145.5300 C   0  0  0  0  0  0  0  0  0  0  0  0
  187.6380  178.9480  139.3730 O   0  0  0  0  0  0  0  0  0  0  0  0
  186.4410  178.7160  139.6980 C   0  0  0  0  0  0  0  0  0  0  0  0
  187.5270  178.4480  147.8620 C   0  0  0  0  0  0  0  0  0  0  0  0
  188.9390  176.9740  143.9570 C   0  0  0  0  0  0  0  0  0  0  0  0
  191.6100  176.6360  143.1770 C   0  0  0  0  0  3  0  0  0  0  0  0
  187.9310  177.7710  146.7070 C   0  0  0  0  0  3  0  0  0  0  0  0
  187.0740  177.6630  141.9360 C   0  0  0  0  0  0  0  0  0  0  0  0
  192.1460  175.9480  145.3970 F   0  0  0  0  0  0  0  0  0  0  0  0
  185.2420  178.7580  144.2580 C   0  0  0  0  0  2  0  0  0  0  0  0
  188.3350  178.3440  149.1040 C   0  0  0  0  0  1  0  0  0  0  0  0
  188.3520  177.6780  141.6790 N   0  0  0  0  0  0  0  0  0  0  0  0
  186.5780  177.0290  143.2150 C   0  0  2  0  0  3  0  0  0  0  0  0
  186.1260  178.0990  140.9510 N   0  0  0  0  0  2  0  0  0  0  0  0
  189.8940  176.5390  144.8850 C   0  0  0  0  0  3  0  0  0  0  0  0
  186.3660  179.2260  147.8460 C   0  0  0  0  0  3  0  0  0  0  0  0
  189.3280  177.2270  142.6290 C   0  0  0  0  0  0  0  0  0  0  0  0
  190.6620  177.0680  142.2460 C   0  0  0  0  0  3  0  0  0  0  0  0
  185.2190  177.4640  143.5800 N   0  0  0  0  0  2  0  0  0  0  0  0
  186.0070  178.6370  145.5290 C   0  0  0  0  0  0  0  0  0  0  0  0
  185.6070  179.3250  146.6770 C   0  0  0  0  0  3  0  0  0  0  0  0
  183.0240  177.2470  139.0040 C   0  0  1  0  0  3  0  0  0  0  0  0
  184.0500  179.4750  139.5480 C   0  0  0  0  0  2  0  0  0  0  0  0
  186.2380  177.6250  136.9180 C   0  0  0  0  0  1  0  0  0  0  0  0
  182.3450  176.0300  139.5960 C   0  0  0  0  0  1  0  0  0  0  0  0
  183.3460  178.2410  140.1170 C   0  0  0  0  0  2  0  0  0  0  0  0
  185.0030  178.0380  137.6990 C   0  0  2  0  0  3  0  0  0  0  0  0
  185.3160  179.0950  138.7750 C   0  0  2  0  0  3  0  0  0  0  0  0
  184.3030  176.8170  138.2910 C   0  0  0  0  0  2  0  0  0  0  0  0
  1 17  1  0  0  0  0
  1 11  1  0  0  0  0
  2  3  1  0  0  0  0
  3  9  1  0  0  0  0
  4  5  2  0  0  0  0
  5 16  1  0  0  0  0
  6 13  1  0  0  0  0
  7  2  1  0  0  0  0
  7 17  2  0  0  0  0
  8  1  2  0  0  0  0
  9  6  2  0  0  0  0
 12 22  1  0  0  0  0
 14 10  2  0  0  0  0
 14 19  1  0  0  0  0
 15 10  1  6  0  0  0
 15 21  1  0  0  0  0
 15  2  1  0  0  0  0
 16 10  1  0  0  0  0
 18  6  1  0  0  0  0
 19  7  1  0  0  0  0
 20 19  2  0  0  0  0
 20  8  1  0  0  0  0
 21 12  1  0  0  0  0
 22  3  2  0  0  0  0
 22 23  1  0  0  0  0
 23 18  2  0  0  0  0
 24 27  1  1  0  0  0
 24 28  1  0  0  0  0
 25 28  1  0  0  0  0
 29 26  1  1  0  0  0
 29 31  1  0  0  0  0
 29 30  1  0  0  0  0
 30 25  1  0  0  0  0
 30  5  1  1  0  0  0
 31 24  1  0  0  0  0
M  END
>  <MODEL>
9

>  <REMARK>
 VINA RESULT:      -8.1      2.574      4.956
  Name = 
  1 active torsions:
  status: ('A' for Active; 'I' for Inactive)
    1  A    between atoms: C_9  and  C_22
                            x       y       z     vdW  Elec       q    Type
                         _______ _______ _______ _____ _____    ______ ____

>  <TORSDO>
F 1

$$$$
