=
 OpenBabel10272401043D

 27 31  0  0  1  0  0  0  0  0999 V2000
  190.7980  178.7960  143.9660 C   0  0  0  0  0  2  0  0  0  0  0  0
  188.4370  178.0190  144.4830 C   0  0  0  0  0  0  0  0  0  0  0  0
  188.5490  178.3630  141.9250 C   0  0  0  0  0  2  0  0  0  0  0  0
  183.8890  178.2540  144.1790 S   0  0  0  0  0  0  0  0  0  0  0  0
  183.2470  178.2100  141.6160 O   0  0  0  0  0  0  0  0  0  0  0  0
  187.6240  177.8820  145.6250 C   0  0  0  0  0  3  0  0  0  0  0  0
  185.5800  178.4890  141.9490 C   0  0  1  0  0  3  0  0  0  0  0  0
  190.8340  175.8020  138.8040 O   0  0  0  0  0  0  0  0  0  0  0  0
  185.7670  179.8320  141.4240 N   0  0  0  0  0  1  0  0  0  0  0  0
  190.6600  176.4440  139.8730 C   0  0  0  0  0  0  0  0  0  0  0  0
  186.3990  178.3050  143.1840 C   0  0  0  0  0  0  0  0  0  0  0  0
  189.8670  177.8870  144.6400 N   0  0  0  0  0  0  0  0  0  0  0  0
  184.1670  178.3260  142.4080 C   0  0  0  0  0  0  0  0  0  0  0  0
  185.6610  178.1690  144.3490 C   0  0  0  0  0  0  0  0  0  0  0  0
  191.6640  178.0390  142.9610 C   0  0  0  0  0  2  0  0  0  0  0  0
  187.8030  178.2170  143.2220 C   0  0  0  0  0  0  0  0  0  0  0  0
  189.3920  176.5700  140.4860 N   0  0  0  0  0  2  0  0  0  0  0  0
  186.2700  177.9570  145.5400 N   0  0  0  0  0  0  0  0  0  0  0  0
  191.7470  177.1310  140.6030 C   0  0  0  0  0  2  0  0  0  0  0  0
  190.9590  177.9480  141.6190 C   0  0  1  0  0  3  0  0  0  0  0  0
  189.5900  177.2800  141.7350 C   0  0  1  0  0  3  0  0  0  0  0  0
  191.5400  175.3950  147.5050 N   0  0  0  0  0  2  0  0  0  0  0  0
  190.3740  176.9400  145.6390 C   0  0  0  0  0  3  0  0  0  0  0  0
  191.6190  176.2040  145.1390 C   0  0  0  0  0  2  0  0  0  0  0  0
  192.2180  175.2780  146.2110 C   0  0  0  0  0  2  0  0  0  0  0  0
  191.5320  176.8010  147.9000 C   0  0  0  0  0  2  0  0  0  0  0  0
  190.5940  177.6120  147.0010 C   0  0  0  0  0  2  0  0  0  0  0  0
  1 12  1  0  0  0  0
  2 12  1  0  0  0  0
  2  6  1  0  0  0  0
  3 16  1  0  0  0  0
  4 14  1  0  0  0  0
  5 13  2  0  0  0  0
  7  9  1  1  0  0  0
  7 13  1  0  0  0  0
  7 11  1  0  0  0  0
  8 10  2  0  0  0  0
 10 17  1  0  0  0  0
 10 19  1  0  0  0  0
 11 16  1  0  0  0  0
 11 14  2  0  0  0  0
 12 23  1  0  0  0  0
 13  4  1  0  0  0  0
 14 18  1  0  0  0  0
 15  1  1  0  0  0  0
 16  2  2  0  0  0  0
 17 21  1  0  0  0  0
 18  6  2  0  0  0  0
 20 19  1  6  0  0  0
 20 21  1  0  0  0  0
 20 15  1  0  0  0  0
 21  3  1  6  0  0  0
 22 26  1  0  0  0  0
 23 27  1  0  0  0  0
 24 23  1  0  0  0  0
 24 25  1  0  0  0  0
 25 22  1  0  0  0  0
 27 26  1  0  0  0  0
M  END
>  <MODEL>
1

>  <REMARK>
 VINA RESULT:      -7.8      0.000      0.000
  Name = 
  1 active torsions:
  status: ('A' for Active; 'I' for Inactive)
    1  A    between atoms: C_9  and  N_15
                            x       y       z     vdW  Elec       q    Type
                         _______ _______ _______ _____ _____    ______ ____

>  <TORSDO>
F 1

$$$$
=
 OpenBabel10272401043D

 27 31  0  0  1  0  0  0  0  0999 V2000
  189.6050  178.4630  137.7640 C   0  0  0  0  0  2  0  0  0  0  0  0
  189.0740  177.4540  140.0320 C   0  0  0  0  0  0  0  0  0  0  0  0
  186.8640  178.4520  139.1400 C   0  0  0  0  0  2  0  0  0  0  0  0
  187.2550  177.5160  144.2170 S   0  0  0  0  0  0  0  0  0  0  0  0
  184.6890  178.1010  143.9740 O   0  0  0  0  0  0  0  0  0  0  0  0
  189.7960  176.9830  141.1460 C   0  0  0  0  0  3  0  0  0  0  0  0
  185.8730  178.4080  141.9410 C   0  0  1  0  0  3  0  0  0  0  0  0
  184.2550  176.9080  135.6290 O   0  0  0  0  0  0  0  0  0  0  0  0
  185.7610  179.8490  141.7820 N   0  0  0  0  0  1  0  0  0  0  0  0
  185.3090  177.2420  136.2290 C   0  0  0  0  0  0  0  0  0  0  0  0
  187.2420  177.9560  141.5530 C   0  0  0  0  0  0  0  0  0  0  0  0
  189.6880  177.3620  138.7270 N   0  0  0  0  0  0  0  0  0  0  0  0
  185.7580  178.0580  143.3900 C   0  0  0  0  0  0  0  0  0  0  0  0
  188.0120  177.4850  142.6040 C   0  0  0  0  0  0  0  0  0  0  0  0
  188.8260  178.0380  136.5200 C   0  0  0  0  0  2  0  0  0  0  0  0
  187.7490  177.9360  140.2410 C   0  0  0  0  0  0  0  0  0  0  0  0
  185.4500  177.1370  137.6330 N   0  0  0  0  0  2  0  0  0  0  0  0
  189.2610  177.0050  142.3940 N   0  0  0  0  0  0  0  0  0  0  0  0
  186.5080  177.7740  135.5470 C   0  0  0  0  0  2  0  0  0  0  0  0
  187.3380  178.2580  136.7290 C   0  0  1  0  0  3  0  0  0  0  0  0
  186.8140  177.5110  137.9540 C   0  0  1  0  0  3  0  0  0  0  0  0
  192.1850  174.2270  137.6510 N   0  0  0  0  0  2  0  0  0  0  0  0
  190.5630  176.2180  138.4480 C   0  0  0  0  0  3  0  0  0  0  0  0
  189.8800  175.1930  137.5400 C   0  0  0  0  0  2  0  0  0  0  0  0
  190.8170  174.0340  137.1610 C   0  0  0  0  0  2  0  0  0  0  0  0
  192.6640  175.5280  137.1910 C   0  0  0  0  0  2  0  0  0  0  0  0
  191.9300  176.6640  137.9110 C   0  0  0  0  0  2  0  0  0  0  0  0
  1 12  1  0  0  0  0
  2 16  2  0  0  0  0
  2  6  1  0  0  0  0
  3 16  1  0  0  0  0
  6 18  2  0  0  0  0
  7  9  1  1  0  0  0
  7 13  1  0  0  0  0
  8 10  2  0  0  0  0
 10 17  1  0  0  0  0
 11  7  1  0  0  0  0
 11 14  2  0  0  0  0
 12  2  1  0  0  0  0
 13  5  2  0  0  0  0
 13  4  1  0  0  0  0
 14  4  1  0  0  0  0
 15 20  1  0  0  0  0
 15  1  1  0  0  0  0
 16 11  1  0  0  0  0
 17 21  1  0  0  0  0
 18 14  1  0  0  0  0
 19 10  1  0  0  0  0
 20 19  1  6  0  0  0
 20 21  1  0  0  0  0
 21  3  1  1  0  0  0
 23 12  1  0  0  0  0
 24 23  1  0  0  0  0
 25 24  1  0  0  0  0
 25 22  1  0  0  0  0
 26 22  1  0  0  0  0
 26 27  1  0  0  0  0
 27 23  1  0  0  0  0
M  END
>  <MODEL>
2

>  <REMARK>
 VINA RESULT:      -7.6      3.445      6.028
  Name = 
  1 active torsions:
  status: ('A' for Active; 'I' for Inactive)
    1  A    between atoms: C_9  and  N_15
                            x       y       z     vdW  Elec       q    Type
                         _______ _______ _______ _____ _____    ______ ____

>  <TORSDO>
F 1

$$$$
=
 OpenBabel10272401043D

 27 31  0  0  1  0  0  0  0  0999 V2000
  189.6250  179.1260  143.1960 C   0  0  0  0  0  2  0  0  0  0  0  0
  189.4080  177.8410  141.0180 C   0  0  0  0  0  0  0  0  0  0  0  0
  191.6930  177.1840  142.0300 C   0  0  0  0  0  2  0  0  0  0  0  0
  190.9200  176.3400  136.9810 S   0  0  0  0  0  0  0  0  0  0  0  0
  193.2110  175.0880  137.3900 O   0  0  0  0  0  0  0  0  0  0  0  0
  188.5880  177.8820  139.8730 C   0  0  0  0  0  3  0  0  0  0  0  0
  192.4790  176.2670  139.3150 C   0  0  1  0  0  3  0  0  0  0  0  0
  192.5020  174.5860  145.7870 O   0  0  0  0  0  0  0  0  0  0  0  0
  193.5210  177.2760  139.4220 N   0  0  0  0  0  1  0  0  0  0  0  0
  191.9590  175.4860  145.0960 C   0  0  0  0  0  0  0  0  0  0  0  0
  191.1480  176.8730  139.6180 C   0  0  0  0  0  0  0  0  0  0  0  0
  188.8540  178.2860  142.2750 N   0  0  0  0  0  0  0  0  0  0  0  0
  192.3700  175.8140  137.8950 C   0  0  0  0  0  0  0  0  0  0  0  0
  190.2910  176.9500  138.5320 C   0  0  0  0  0  0  0  0  0  0  0  0
  189.8850  178.3920  144.5110 C   0  0  0  0  0  2  0  0  0  0  0  0
  190.7220  177.3000  140.8880 C   0  0  0  0  0  0  0  0  0  0  0  0
  191.8230  175.3900  143.6910 N   0  0  0  0  0  2  0  0  0  0  0  0
  189.0360  177.4420  138.6680 N   0  0  0  0  0  0  0  0  0  0  0  0
  191.4050  176.7330  145.6640 C   0  0  0  0  0  2  0  0  0  0  0  0
  191.1440  177.5500  144.4040 C   0  0  1  0  0  3  0  0  0  0  0  0
  191.0690  176.5480  143.2540 C   0  0  1  0  0  3  0  0  0  0  0  0
  184.8110  177.8780  143.1150 N   0  0  0  0  0  2  0  0  0  0  0  0
  187.4320  178.0410  142.5350 C   0  0  0  0  0  3  0  0  0  0  0  0
  187.1360  177.9720  144.0360 C   0  0  0  0  0  2  0  0  0  0  0  0
  185.6340  177.8100  144.3260 C   0  0  0  0  0  2  0  0  0  0  0  0
  185.1290  179.1140  142.4060 C   0  0  0  0  0  2  0  0  0  0  0  0
  186.5360  179.0490  141.8030 C   0  0  0  0  0  2  0  0  0  0  0  0
  1 15  1  0  0  0  0
  2 12  1  0  0  0  0
  4 13  1  0  0  0  0
  4 14  1  0  0  0  0
  5 13  2  0  0  0  0
  6  2  2  0  0  0  0
  7  9  1  6  0  0  0
  7 11  1  0  0  0  0
 10 19  1  0  0  0  0
 10  8  2  0  0  0  0
 11 16  2  0  0  0  0
 12 23  1  0  0  0  0
 12  1  1  0  0  0  0
 13  7  1  0  0  0  0
 14 18  2  0  0  0  0
 14 11  1  0  0  0  0
 16  2  1  0  0  0  0
 16  3  1  0  0  0  0
 17 10  1  0  0  0  0
 18  6  1  0  0  0  0
 20 15  1  1  0  0  0
 20 19  1  0  0  0  0
 21  3  1  6  0  0  0
 21 17  1  0  0  0  0
 21 20  1  0  0  0  0
 22 25  1  0  0  0  0
 23 24  1  0  0  0  0
 24 25  1  0  0  0  0
 26 22  1  0  0  0  0
 27 26  1  0  0  0  0
 27 23  1  0  0  0  0
M  END
>  <MODEL>
3

>  <REMARK>
 VINA RESULT:      -7.0      3.328      6.447
  Name = 
  1 active torsions:
  status: ('A' for Active; 'I' for Inactive)
    1  A    between atoms: C_9  and  N_15
                            x       y       z     vdW  Elec       q    Type
                         _______ _______ _______ _____ _____    ______ ____

>  <TORSDO>
F 1

$$$$
=
 OpenBabel10272401043D

 27 31  0  0  1  0  0  0  0  0999 V2000
  188.9800  178.2040  136.5960 C   0  0  0  0  0  2  0  0  0  0  0  0
  190.0350  175.9490  136.1020 C   0  0  0  0  0  0  0  0  0  0  0  0
  191.1640  176.8300  138.2530 C   0  0  0  0  0  2  0  0  0  0  0  0
  193.5690  173.1100  135.5740 S   0  0  0  0  0  0  0  0  0  0  0  0
  195.0230  173.2090  137.7780 O   0  0  0  0  0  0  0  0  0  0  0  0
  190.0910  175.0520  135.0180 C   0  0  0  0  0  3  0  0  0  0  0  0
  193.3670  174.9080  137.7210 C   0  0  1  0  0  3  0  0  0  0  0  0
  189.2970  177.2570  142.4790 O   0  0  0  0  0  0  0  0  0  0  0  0
  194.2030  176.0950  137.6460 N   0  0  0  0  0  1  0  0  0  0  0  0
  189.3640  177.3560  141.2260 C   0  0  0  0  0  0  0  0  0  0  0  0
  192.1820  175.0590  136.8250 C   0  0  0  0  0  0  0  0  0  0  0  0
  188.8670  176.7880  136.2400 N   0  0  0  0  0  0  0  0  0  0  0  0
  194.1110  173.7380  137.1640 C   0  0  0  0  0  0  0  0  0  0  0  0
  192.1750  174.2090  135.7310 C   0  0  0  0  0  0  0  0  0  0  0  0
  188.3230  178.4780  137.9480 C   0  0  0  0  0  2  0  0  0  0  0  0
  191.1050  175.9370  137.0450 C   0  0  0  0  0  0  0  0  0  0  0  0
  190.1070  176.4540  140.4300 N   0  0  0  0  0  2  0  0  0  0  0  0
  191.1440  174.2090  134.8530 N   0  0  0  0  0  0  0  0  0  0  0  0
  188.6810  178.4130  140.4500 C   0  0  0  0  0  2  0  0  0  0  0  0
  189.3110  178.2320  139.0740 C   0  0  1  0  0  3  0  0  0  0  0  0
  189.8720  176.8120  139.0450 C   0  0  1  0  0  3  0  0  0  0  0  0
  185.0600  175.4550  135.2650 N   0  0  0  0  0  2  0  0  0  0  0  0
  187.5670  176.2440  135.8300 C   0  0  0  0  0  3  0  0  0  0  0  0
  186.8890  175.4820  136.9710 C   0  0  0  0  0  2  0  0  0  0  0  0
  185.4850  174.9870  136.5870 C   0  0  0  0  0  2  0  0  0  0  0  0
  185.1880  176.9090  135.2230 C   0  0  0  0  0  2  0  0  0  0  0  0
  186.6630  177.3250  135.2230 C   0  0  0  0  0  2  0  0  0  0  0  0
  1 15  1  0  0  0  0
  2 12  1  0  0  0  0
  2 16  1  0  0  0  0
  4 14  1  0  0  0  0
  4 13  1  0  0  0  0
  6  2  2  0  0  0  0
  7  9  1  6  0  0  0
 10  8  2  0  0  0  0
 11 16  2  0  0  0  0
 11  7  1  0  0  0  0
 12  1  1  0  0  0  0
 13  7  1  0  0  0  0
 13  5  2  0  0  0  0
 14 11  1  0  0  0  0
 16  3  1  0  0  0  0
 17 10  1  0  0  0  0
 18  6  1  0  0  0  0
 18 14  2  0  0  0  0
 19 10  1  0  0  0  0
 20 15  1  6  0  0  0
 20 19  1  0  0  0  0
 21  3  1  6  0  0  0
 21 20  1  0  0  0  0
 21 17  1  0  0  0  0
 22 25  1  0  0  0  0
 23 12  1  0  0  0  0
 23 24  1  0  0  0  0
 25 24  1  0  0  0  0
 26 22  1  0  0  0  0
 27 26  1  0  0  0  0
 27 23  1  0  0  0  0
M  END
>  <MODEL>
4

>  <REMARK>
 VINA RESULT:      -6.9      5.170      9.540
  Name = 
  1 active torsions:
  status: ('A' for Active; 'I' for Inactive)
    1  A    between atoms: C_9  and  N_15
                            x       y       z     vdW  Elec       q    Type
                         _______ _______ _______ _____ _____    ______ ____

>  <TORSDO>
F 1

$$$$
=
 OpenBabel10272401043D

 27 31  0  0  1  0  0  0  0  0999 V2000
  188.4860  178.0390  136.3240 C   0  0  0  0  0  2  0  0  0  0  0  0
  187.9180  177.7740  138.7830 C   0  0  0  0  0  0  0  0  0  0  0  0
  185.6670  177.9650  137.5300 C   0  0  0  0  0  2  0  0  0  0  0  0
  185.7200  178.8950  142.6230 S   0  0  0  0  0  0  0  0  0  0  0  0
  183.1280  178.8570  142.1110 O   0  0  0  0  0  0  0  0  0  0  0  0
  188.5990  177.8560  140.0140 C   0  0  0  0  0  3  0  0  0  0  0  0
  184.4330  178.6810  140.1370 C   0  0  1  0  0  3  0  0  0  0  0  0
  183.7090  174.8530  134.7020 O   0  0  0  0  0  0  0  0  0  0  0  0
  184.0930  179.9330  139.4800 N   0  0  0  0  0  1  0  0  0  0  0  0
  184.6280  175.5670  135.1800 C   0  0  0  0  0  0  0  0  0  0  0  0
  185.8900  178.3970  139.9750 C   0  0  0  0  0  0  0  0  0  0  0  0
  188.6620  177.3660  137.6140 N   0  0  0  0  0  0  0  0  0  0  0  0
  184.2400  178.8250  141.6120 C   0  0  0  0  0  0  0  0  0  0  0  0
  186.6240  178.4670  141.1480 C   0  0  0  0  0  0  0  0  0  0  0  0
  187.9130  177.0770  135.2840 C   0  0  0  0  0  2  0  0  0  0  0  0
  186.5160  178.0320  138.7690 C   0  0  0  0  0  0  0  0  0  0  0  0
  184.6490  175.9720  136.5350 N   0  0  0  0  0  2  0  0  0  0  0  0
  187.9510  178.1950  141.1580 N   0  0  0  0  0  0  0  0  0  0  0  0
  185.7790  176.0570  134.3930 C   0  0  0  0  0  2  0  0  0  0  0  0
  186.3970  177.0630  135.3560 C   0  0  1  0  0  3  0  0  0  0  0  0
  185.8920  176.6870  136.7470 C   0  0  1  0  0  3  0  0  0  0  0  0
  191.7510  174.6000  137.7820 N   0  0  0  0  0  2  0  0  0  0  0  0
  189.7410  176.3870  137.7800 C   0  0  0  0  0  3  0  0  0  0  0  0
  189.3420  175.0100  137.2450 C   0  0  0  0  0  2  0  0  0  0  0  0
  190.4960  173.9970  137.3260 C   0  0  0  0  0  2  0  0  0  0  0  0
  192.0510  175.7480  136.9290 C   0  0  0  0  0  2  0  0  0  0  0  0
  191.0640  176.8900  137.1860 C   0  0  0  0  0  2  0  0  0  0  0  0
  1 12  1  0  0  0  0
  2  6  1  0  0  0  0
  3 16  1  0  0  0  0
  6 18  2  0  0  0  0
  7  9  1  6  0  0  0
  7 13  1  0  0  0  0
  8 10  2  0  0  0  0
 10 17  1  0  0  0  0
 11  7  1  0  0  0  0
 11 14  2  0  0  0  0
 12 23  1  0  0  0  0
 12  2  1  0  0  0  0
 13  5  2  0  0  0  0
 13  4  1  0  0  0  0
 14 18  1  0  0  0  0
 14  4  1  0  0  0  0
 15 20  1  0  0  0  0
 15  1  1  0  0  0  0
 16  2  2  0  0  0  0
 16 11  1  0  0  0  0
 17 21  1  0  0  0  0
 19 10  1  0  0  0  0
 20 19  1  6  0  0  0
 20 21  1  0  0  0  0
 21  3  1  1  0  0  0
 24 25  1  0  0  0  0
 24 23  1  0  0  0  0
 25 22  1  0  0  0  0
 26 27  1  0  0  0  0
 26 22  1  0  0  0  0
 27 23  1  0  0  0  0
M  END
>  <MODEL>
5

>  <REMARK>
 VINA RESULT:      -6.8      4.599      6.769
  Name = 
  1 active torsions:
  status: ('A' for Active; 'I' for Inactive)
    1  A    between atoms: C_9  and  N_15
                            x       y       z     vdW  Elec       q    Type
                         _______ _______ _______ _____ _____    ______ ____

>  <TORSDO>
F 1

$$$$
=
 OpenBabel10272401043D

 27 31  0  0  1  0  0  0  0  0999 V2000
  188.2440  176.1790  143.0260 C   0  0  0  0  0  2  0  0  0  0  0  0
  189.1570  177.3260  140.9540 C   0  0  0  0  0  0  0  0  0  0  0  0
  186.5980  177.6810  140.9190 C   0  0  0  0  0  2  0  0  0  0  0  0
  189.2140  178.2810  136.4910 S   0  0  0  0  0  0  0  0  0  0  0  0
  186.8190  179.1790  135.8260 O   0  0  0  0  0  0  0  0  0  0  0  0
  190.3640  177.3360  140.2270 C   0  0  0  0  0  3  0  0  0  0  0  0
  186.8570  178.2690  138.0170 C   0  0  1  0  0  3  0  0  0  0  0  0
  184.0580  180.3750  143.7130 O   0  0  0  0  0  0  0  0  0  0  0  0
  185.9850  177.1180  137.8440 N   0  0  0  0  0  1  0  0  0  0  0  0
  184.9340  179.5260  143.4050 C   0  0  0  0  0  0  0  0  0  0  0  0
  188.0180  177.9060  138.8830 C   0  0  0  0  0  0  0  0  0  0  0  0
  189.2130  177.0640  142.3740 N   0  0  0  0  0  0  0  0  0  0  0  0
  187.4680  178.6330  136.7030 C   0  0  0  0  0  0  0  0  0  0  0  0
  189.2400  177.8890  138.2290 C   0  0  0  0  0  0  0  0  0  0  0  0
  187.3970  176.9530  144.0350 C   0  0  0  0  0  2  0  0  0  0  0  0
  187.9500  177.6410  140.2630 C   0  0  0  0  0  0  0  0  0  0  0  0
  185.6050  179.5440  142.1600 N   0  0  0  0  0  2  0  0  0  0  0  0
  190.3850  177.6140  138.8980 N   0  0  0  0  0  0  0  0  0  0  0  0
  185.3590  178.4260  144.2960 C   0  0  0  0  0  2  0  0  0  0  0  0
  186.1940  177.5750  143.3470 C   0  0  1  0  0  3  0  0  0  0  0  0
  186.6030  178.4930  142.1980 C   0  0  1  0  0  3  0  0  0  0  0  0
  192.3190  178.4490  144.7510 N   0  0  0  0  0  2  0  0  0  0  0  0
  190.3740  177.5500  143.1270 C   0  0  0  0  0  3  0  0  0  0  0  0
  190.2150  179.0200  143.5230 C   0  0  0  0  0  2  0  0  0  0  0  0
  191.3810  179.5170  144.3940 C   0  0  0  0  0  2  0  0  0  0  0  0
  191.5690  177.3560  145.3640 C   0  0  0  0  0  2  0  0  0  0  0  0
  190.6940  176.6470  144.3250 C   0  0  0  0  0  2  0  0  0  0  0  0
  1 15  1  0  0  0  0
  2 12  1  0  0  0  0
  4 13  1  0  0  0  0
  4 14  1  0  0  0  0
  5 13  2  0  0  0  0
  6  2  2  0  0  0  0
  7  9  1  6  0  0  0
  7 11  1  0  0  0  0
 10  8  2  0  0  0  0
 10 19  1  0  0  0  0
 11 16  2  0  0  0  0
 12  1  1  0  0  0  0
 12 23  1  0  0  0  0
 13  7  1  0  0  0  0
 14 11  1  0  0  0  0
 14 18  2  0  0  0  0
 16  3  1  0  0  0  0
 16  2  1  0  0  0  0
 17 21  1  0  0  0  0
 17 10  1  0  0  0  0
 18  6  1  0  0  0  0
 20 15  1  1  0  0  0
 20 19  1  0  0  0  0
 21  3  1  6  0  0  0
 21 20  1  0  0  0  0
 22 26  1  0  0  0  0
 23 24  1  0  0  0  0
 23 27  1  0  0  0  0
 24 25  1  0  0  0  0
 25 22  1  0  0  0  0
 27 26  1  0  0  0  0
M  END
>  <MODEL>
6

>  <REMARK>
 VINA RESULT:      -6.8      3.062      5.416
  Name = 
  1 active torsions:
  status: ('A' for Active; 'I' for Inactive)
    1  A    between atoms: C_9  and  N_15
                            x       y       z     vdW  Elec       q    Type
                         _______ _______ _______ _____ _____    ______ ____

>  <TORSDO>
F 1

$$$$
=
 OpenBabel10272401043D

 27 31  0  0  1  0  0  0  0  0999 V2000
  188.3990  176.4960  135.6810 C   0  0  0  0  0  2  0  0  0  0  0  0
  190.1350  174.7420  136.2770 C   0  0  0  0  0  0  0  0  0  0  0  0
  190.6870  176.8300  137.6960 C   0  0  0  0  0  2  0  0  0  0  0  0
  194.3960  173.2830  137.0120 S   0  0  0  0  0  0  0  0  0  0  0  0
  195.4850  174.8550  138.8360 O   0  0  0  0  0  0  0  0  0  0  0  0
  190.5840  173.5150  135.7500 C   0  0  0  0  0  3  0  0  0  0  0  0
  193.4130  175.7010  138.0490 C   0  0  1  0  0  3  0  0  0  0  0  0
  188.3000  178.5480  141.2830 O   0  0  0  0  0  0  0  0  0  0  0  0
  193.8560  176.9130  137.3800 N   0  0  0  0  0  1  0  0  0  0  0  0
  188.4790  178.0690  140.1330 C   0  0  0  0  0  0  0  0  0  0  0  0
  192.3500  175.0300  137.2410 C   0  0  0  0  0  0  0  0  0  0  0  0
  188.7600  175.1240  136.0490 N   0  0  0  0  0  0  0  0  0  0  0  0
  194.5350  174.7140  138.0840 C   0  0  0  0  0  0  0  0  0  0  0  0
  192.7280  173.8180  136.6870 C   0  0  0  0  0  0  0  0  0  0  0  0
  187.5370  177.1390  136.7660 C   0  0  0  0  0  2  0  0  0  0  0  0
  191.0410  175.5120  137.0630 C   0  0  0  0  0  0  0  0  0  0  0  0
  189.5470  177.1920  139.8330 N   0  0  0  0  0  2  0  0  0  0  0  0
  191.8530  173.0800  135.9620 N   0  0  0  0  0  0  0  0  0  0  0  0
  187.6050  178.3630  138.9780 C   0  0  0  0  0  2  0  0  0  0  0  0
  188.4160  177.7760  137.8290 C   0  0  1  0  0  3  0  0  0  0  0  0
  189.3780  176.7700  138.4560 C   0  0  1  0  0  3  0  0  0  0  0  0
  185.6680  172.3590  135.9410 N   0  0  0  0  0  2  0  0  0  0  0  0
  187.7420  174.0690  136.0060 C   0  0  0  0  0  3  0  0  0  0  0  0
  187.0150  173.9310  137.3460 C   0  0  0  0  0  2  0  0  0  0  0  0
  185.8810  172.8940  137.2890 C   0  0  0  0  0  2  0  0  0  0  0  0
  185.4720  173.4780  135.0220 C   0  0  0  0  0  2  0  0  0  0  0  0
  186.7760  174.2570  134.8280 C   0  0  0  0  0  2  0  0  0  0  0  0
  1 12  1  0  0  0  0
  1 15  1  0  0  0  0
  2 16  1  0  0  0  0
  4 13  1  0  0  0  0
  6 18  1  0  0  0  0
  6  2  2  0  0  0  0
  7  9  1  6  0  0  0
  7 13  1  0  0  0  0
 10  8  2  0  0  0  0
 11  7  1  0  0  0  0
 12  2  1  0  0  0  0
 13  5  2  0  0  0  0
 14  4  1  0  0  0  0
 14 11  1  0  0  0  0
 16 11  2  0  0  0  0
 16  3  1  0  0  0  0
 17 10  1  0  0  0  0
 18 14  2  0  0  0  0
 19 10  1  0  0  0  0
 20 15  1  6  0  0  0
 20 21  1  0  0  0  0
 20 19  1  0  0  0  0
 21  3  1  6  0  0  0
 21 17  1  0  0  0  0
 22 25  1  0  0  0  0
 23 12  1  0  0  0  0
 23 24  1  0  0  0  0
 25 24  1  0  0  0  0
 26 22  1  0  0  0  0
 27 26  1  0  0  0  0
 27 23  1  0  0  0  0
M  END
>  <MODEL>
7

>  <REMARK>
 VINA RESULT:      -6.7      5.608      9.618
  Name = 
  1 active torsions:
  status: ('A' for Active; 'I' for Inactive)
    1  A    between atoms: C_9  and  N_15
                            x       y       z     vdW  Elec       q    Type
                         _______ _______ _______ _____ _____    ______ ____

>  <TORSDO>
F 1

$$$$
=
 OpenBabel10272401043D

 27 31  0  0  1  0  0  0  0  0999 V2000
  187.9120  176.2630  143.6170 C   0  0  0  0  0  2  0  0  0  0  0  0
  187.1980  177.8110  141.7360 C   0  0  0  0  0  0  0  0  0  0  0  0
  185.3270  177.9100  143.5160 C   0  0  0  0  0  2  0  0  0  0  0  0
  184.2140  179.4650  138.7040 S   0  0  0  0  0  0  0  0  0  0  0  0
  182.0510  180.2140  140.0250 O   0  0  0  0  0  0  0  0  0  0  0  0
  187.5770  178.0560  140.4020 C   0  0  0  0  0  3  0  0  0  0  0  0
  183.5470  178.9750  141.3880 C   0  0  1  0  0  3  0  0  0  0  0  0
  185.4970  179.8570  147.7230 O   0  0  0  0  0  0  0  0  0  0  0  0
  182.7510  177.7850  141.6450 N   0  0  0  0  0  1  0  0  0  0  0  0
  185.8910  179.1600  146.7520 C   0  0  0  0  0  0  0  0  0  0  0  0
  184.9710  178.5960  141.1460 C   0  0  0  0  0  0  0  0  0  0  0  0
  188.2020  177.3330  142.6580 N   0  0  0  0  0  0  0  0  0  0  0  0
  183.1030  179.6030  140.1060 C   0  0  0  0  0  0  0  0  0  0  0  0
  185.4100  178.8060  139.8490 C   0  0  0  0  0  0  0  0  0  0  0  0
  188.0170  176.7780  145.0520 C   0  0  0  0  0  2  0  0  0  0  0  0
  185.8580  178.1100  142.1240 C   0  0  0  0  0  0  0  0  0  0  0  0
  185.5260  179.4430  145.4150 N   0  0  0  0  0  2  0  0  0  0  0  0
  186.6910  178.5430  139.4950 N   0  0  0  0  0  0  0  0  0  0  0  0
  186.7700  177.9800  146.8930 C   0  0  0  0  0  2  0  0  0  0  0  0
  186.6950  177.3780  145.4950 C   0  0  1  0  0  3  0  0  0  0  0  0
  186.2380  178.5040  144.5700 C   0  0  1  0  0  3  0  0  0  0  0  0
  192.1860  178.4630  142.3990 N   0  0  0  0  0  2  0  0  0  0  0  0
  189.5810  177.8060  142.4940 C   0  0  0  0  0  3  0  0  0  0  0  0
  190.0730  178.5530  143.7350 C   0  0  0  0  0  2  0  0  0  0  0  0
  191.5480  178.9730  143.6150 C   0  0  0  0  0  2  0  0  0  0  0  0
  191.9940  177.0160  142.3440 C   0  0  0  0  0  2  0  0  0  0  0  0
  190.5260  176.6720  142.0740 C   0  0  0  0  0  2  0  0  0  0  0  0
  1 15  1  0  0  0  0
  2 16  1  0  0  0  0
  2 12  1  0  0  0  0
  4 14  1  0  0  0  0
  4 13  1  0  0  0  0
  5 13  2  0  0  0  0
  6  2  2  0  0  0  0
  7  9  1  6  0  0  0
 10 19  1  0  0  0  0
 10  8  2  0  0  0  0
 11  7  1  0  0  0  0
 11 16  2  0  0  0  0
 12  1  1  0  0  0  0
 13  7  1  0  0  0  0
 14 11  1  0  0  0  0
 16  3  1  0  0  0  0
 17 10  1  0  0  0  0
 18 14  2  0  0  0  0
 18  6  1  0  0  0  0
 20 15  1  6  0  0  0
 20 19  1  0  0  0  0
 21  3  1  6  0  0  0
 21 17  1  0  0  0  0
 21 20  1  0  0  0  0
 22 25  1  0  0  0  0
 23 12  1  0  0  0  0
 23 24  1  0  0  0  0
 25 24  1  0  0  0  0
 26 22  1  0  0  0  0
 27 26  1  0  0  0  0
 27 23  1  0  0  0  0
M  END
>  <MODEL>
8

>  <REMARK>
 VINA RESULT:      -6.6      3.248      5.194
  Name = 
  1 active torsions:
  status: ('A' for Active; 'I' for Inactive)
    1  A    between atoms: C_9  and  N_15
                            x       y       z     vdW  Elec       q    Type
                         _______ _______ _______ _____ _____    ______ ____

>  <TORSDO>
F 1

$$$$
=
 OpenBabel10272401043D

 27 31  0  0  1  0  0  0  0  0999 V2000
  192.1580  178.0380  140.0110 C   0  0  0  0  0  2  0  0  0  0  0  0
  189.6810  177.9160  140.5500 C   0  0  0  0  0  0  0  0  0  0  0  0
  189.9350  177.1360  138.1010 C   0  0  0  0  0  2  0  0  0  0  0  0
  185.2620  178.6860  139.7030 S   0  0  0  0  0  0  0  0  0  0  0  0
  184.7060  177.6700  137.3280 O   0  0  0  0  0  0  0  0  0  0  0  0
  188.8190  178.3940  141.5570 C   0  0  0  0  0  3  0  0  0  0  0  0
  187.0390  177.7070  137.7610 C   0  0  1  0  0  3  0  0  0  0  0  0
  191.8180  173.1900  136.5500 O   0  0  0  0  0  0  0  0  0  0  0  0
  187.4820  178.6610  136.7570 N   0  0  0  0  0  1  0  0  0  0  0  0
  191.7290  174.2380  137.2400 C   0  0  0  0  0  0  0  0  0  0  0  0
  187.7700  177.9360  139.0420 C   0  0  0  0  0  0  0  0  0  0  0  0
  191.0570  177.6470  140.8960 N   0  0  0  0  0  0  0  0  0  0  0  0
  185.6050  177.9670  138.0960 C   0  0  0  0  0  0  0  0  0  0  0  0
  186.9830  178.4130  140.0770 C   0  0  0  0  0  0  0  0  0  0  0  0
  192.9050  176.8080  139.4980 C   0  0  0  0  0  2  0  0  0  0  0  0
  189.1330  177.6600  139.2590 C   0  0  0  0  0  0  0  0  0  0  0  0
  190.4860  174.7990  137.6130 N   0  0  0  0  0  2  0  0  0  0  0  0
  187.5050  178.6300  141.3080 N   0  0  0  0  0  0  0  0  0  0  0  0
  192.8980  174.9950  137.7370 C   0  0  0  0  0  2  0  0  0  0  0  0
  192.2380  176.2710  138.2440 C   0  0  1  0  0  3  0  0  0  0  0  0
  190.7690  175.9280  138.4780 C   0  0  1  0  0  3  0  0  0  0  0  0
  191.6050  176.2840  144.7770 N   0  0  0  0  0  2  0  0  0  0  0  0
  191.3520  177.1420  142.2410 C   0  0  0  0  0  3  0  0  0  0  0  0
  191.3920  178.2720  143.2720 C   0  0  0  0  0  2  0  0  0  0  0  0
  191.6070  177.7480  144.7020 C   0  0  0  0  0  2  0  0  0  0  0  0
  190.3770  175.7880  144.1610 C   0  0  0  0  0  2  0  0  0  0  0  0
  190.4020  176.0070  142.6450 C   0  0  0  0  0  2  0  0  0  0  0  0
  1 12  1  0  0  0  0
  2 12  1  0  0  0  0
  2  6  1  0  0  0  0
  3 16  1  0  0  0  0
  4 14  1  0  0  0  0
  5 13  2  0  0  0  0
  7  9  1  6  0  0  0
  7 13  1  0  0  0  0
  7 11  1  0  0  0  0
  8 10  2  0  0  0  0
 10 17  1  0  0  0  0
 10 19  1  0  0  0  0
 11 16  1  0  0  0  0
 11 14  2  0  0  0  0
 12 23  1  0  0  0  0
 13  4  1  0  0  0  0
 14 18  1  0  0  0  0
 15  1  1  0  0  0  0
 16  2  2  0  0  0  0
 17 21  1  0  0  0  0
 18  6  2  0  0  0  0
 20 19  1  1  0  0  0
 20 21  1  0  0  0  0
 20 15  1  0  0  0  0
 21  3  1  6  0  0  0
 23 27  1  0  0  0  0
 23 24  1  0  0  0  0
 24 25  1  0  0  0  0
 25 22  1  0  0  0  0
 26 22  1  0  0  0  0
 27 26  1  0  0  0  0
M  END
>  <MODEL>
9

>  <REMARK>
 VINA RESULT:      -6.6      2.784      4.066
  Name = 
  1 active torsions:
  status: ('A' for Active; 'I' for Inactive)
    1  A    between atoms: C_9  and  N_15
                            x       y       z     vdW  Elec       q    Type
                         _______ _______ _______ _____ _____    ______ ____

>  <TORSDO>
F 1

$$$$
