=
 OpenBabel10272400593D

 27 30  0  0  1  0  0  0  0  0999 V2000
  187.8090  177.7170  146.2360 O   0  0  0  0  0  1  0  0  0  0  0  0
  187.9260  178.5240  142.6330 N   0  0  0  0  0  2  0  0  0  0  0  0
  190.3360  178.2460  142.4510 N   0  0  0  0  0  2  0  0  0  0  0  0
  187.4570  177.8730  143.8510 C   0  0  1  0  0  3  0  0  0  0  0  0
  188.2940  178.3100  145.0670 C   0  0  2  0  0  3  0  0  0  0  0  0
  189.0120  177.7020  142.1120 C   0  0  2  0  0  3  0  0  0  0  0  0
  191.8220  179.2640  144.0980 C   0  0  0  0  0  1  0  0  0  0  0  0
  189.7970  178.0210  144.9130 C   0  0  2  0  0  3  0  0  0  0  0  0
  190.3920  178.8750  143.7780 C   0  0  2  0  0  3  0  0  0  0  0  0
  188.6670  177.1610  137.8540 C   0  0  0  0  0  3  0  0  0  0  0  0
  186.7480  178.5660  137.8200 F   0  0  0  0  0  0  0  0  0  0  0  0
  190.8320  176.0850  140.6340 O   0  0  0  0  0  1  0  0  0  0  0  0
  187.8410  178.1530  139.9060 C   0  0  0  0  0  0  0  0  0  0  0  0
  186.9120  178.9580  140.5570 O   0  0  0  0  0  1  0  0  0  0  0  0
  188.8780  177.5270  140.6280 C   0  0  0  0  0  0  0  0  0  0  0  0
  187.7420  177.9670  138.5220 C   0  0  0  0  0  0  0  0  0  0  0  0
  189.6930  176.5380  138.5650 C   0  0  0  0  0  3  0  0  0  0  0  0
  189.8020  176.7170  139.9470 C   0  0  0  0  0  0  0  0  0  0  0  0
  183.2740  178.7060  144.3750 C   0  0  0  0  0  3  0  0  0  0  0  0
  186.0020  178.1650  144.0490 C   0  0  0  0  0  0  0  0  0  0  0  0
  185.4920  178.4800  145.3170 C   0  0  0  0  0  3  0  0  0  0  0  0
  184.1300  178.7500  145.4780 C   0  0  0  0  0  3  0  0  0  0  0  0
  183.7790  178.3930  143.1100 C   0  0  0  0  0  3  0  0  0  0  0  0
  185.1410  178.1230  142.9470 C   0  0  0  0  0  3  0  0  0  0  0  0
  190.9230  176.0780  146.0020 C   0  0  0  0  0  2  0  0  0  0  0  0
  191.6160  176.3210  144.6800 C   0  0  0  0  0  2  0  0  0  0  0  0
  190.1170  176.5250  144.7960 C   0  0  0  0  0  3  0  0  0  0  0  0
  2  4  1  0  0  0  0
  3  9  1  0  0  0  0
  4 20  1  1  0  0  0
  4  5  1  0  0  0  0
  5  1  1  1  0  0  0
  6 15  1  6  0  0  0
  6  3  1  0  0  0  0
  6  2  1  0  0  0  0
  8 27  1  6  0  0  0
  8  5  1  0  0  0  0
  9  7  1  1  0  0  0
  9  8  1  0  0  0  0
 10 16  2  0  0  0  0
 10 17  1  0  0  0  0
 11 16  1  0  0  0  0
 13 14  1  0  0  0  0
 13 15  2  0  0  0  0
 16 13  1  0  0  0  0
 17 18  2  0  0  0  0
 18 15  1  0  0  0  0
 18 12  1  0  0  0  0
 19 22  1  0  0  0  0
 20 21  1  0  0  0  0
 21 22  2  0  0  0  0
 23 19  2  0  0  0  0
 24 23  1  0  0  0  0
 24 20  2  0  0  0  0
 26 27  1  0  0  0  0
 26 25  1  0  0  0  0
 27 25  1  0  0  0  0
M  END
>  <MODEL>
1

>  <REMARK>
 VINA RESULT:      -8.6      0.000      0.000
  Name = 
  3 active torsions:
  status: ('A' for Active; 'I' for Inactive)
    1  A    between atoms: C_9  and  C_15
    2  A    between atoms: C_14  and  C_19
    3  A    between atoms: C_22  and  C_24
                            x       y       z     vdW  Elec       q    Type
                         _______ _______ _______ _____ _____    ______ ____

>  <TORSDO>
F 3

$$$$
=
 OpenBabel10272400593D

 27 30  0  0  1  0  0  0  0  0999 V2000
  191.5800  176.6530  140.2030 O   0  0  0  0  0  1  0  0  0  0  0  0
  188.5900  178.5390  141.2720 N   0  0  0  0  0  2  0  0  0  0  0  0
  187.6110  178.6260  139.0470 N   0  0  0  0  0  2  0  0  0  0  0  0
  189.6050  177.4920  141.3110 C   0  0  1  0  0  3  0  0  0  0  0  0
  190.5850  177.6310  140.1320 C   0  0  2  0  0  3  0  0  0  0  0  0
  187.5250  178.0560  140.4000 C   0  0  2  0  0  3  0  0  0  0  0  0
  188.9740  179.2590  137.1240 C   0  0  0  0  0  1  0  0  0  0  0  0
  189.9000  177.5880  138.7560 C   0  0  2  0  0  3  0  0  0  0  0  0
  188.9890  178.8160  138.5740 C   0  0  2  0  0  3  0  0  0  0  0  0
  183.6440  178.8580  142.0840 C   0  0  0  0  0  3  0  0  0  0  0  0
  184.4190  178.1720  144.2250 F   0  0  0  0  0  0  0  0  0  0  0  0
  185.3610  179.0340  138.8290 O   0  0  0  0  0  1  0  0  0  0  0  0
  185.9330  178.1140  142.3760 C   0  0  0  0  0  0  0  0  0  0  0  0
  186.9390  177.6370  143.2090 O   0  0  0  0  0  1  0  0  0  0  0  0
  186.1800  178.3330  141.0050 C   0  0  0  0  0  0  0  0  0  0  0  0
  184.6650  178.3790  142.9080 C   0  0  0  0  0  0  0  0  0  0  0  0
  183.8840  179.0740  140.7260 C   0  0  0  0  0  3  0  0  0  0  0  0
  185.1460  178.8130  140.1840 C   0  0  0  0  0  0  0  0  0  0  0  0
  191.6330  177.5590  145.0980 C   0  0  0  0  0  3  0  0  0  0  0  0
  190.3160  177.5310  142.6270 C   0  0  0  0  0  0  0  0  0  0  0  0
  190.9800  178.6880  143.0600 C   0  0  0  0  0  3  0  0  0  0  0  0
  191.6370  178.7010  144.2930 C   0  0  0  0  0  3  0  0  0  0  0  0
  190.9730  176.4040  144.6710 C   0  0  0  0  0  3  0  0  0  0  0  0
  190.3150  176.3900  143.4380 C   0  0  0  0  0  3  0  0  0  0  0  0
  190.0960  175.3870  137.5960 C   0  0  0  0  0  2  0  0  0  0  0  0
  188.9250  176.1210  136.9820 C   0  0  0  0  0  2  0  0  0  0  0  0
  189.2040  176.2520  138.4670 C   0  0  0  0  0  3  0  0  0  0  0  0
  2  4  1  0  0  0  0
  3  6  1  0  0  0  0
  4 20  1  1  0  0  0
  5  1  1  6  0  0  0
  5  4  1  0  0  0  0
  6 15  1  1  0  0  0
  6  2  1  0  0  0  0
  8 27  1  1  0  0  0
  8  5  1  0  0  0  0
  9  7  1  6  0  0  0
  9  8  1  0  0  0  0
  9  3  1  0  0  0  0
 10 16  1  0  0  0  0
 12 18  1  0  0  0  0
 13 16  2  0  0  0  0
 13 14  1  0  0  0  0
 15 13  1  0  0  0  0
 16 11  1  0  0  0  0
 17 10  2  0  0  0  0
 18 17  1  0  0  0  0
 18 15  2  0  0  0  0
 20 21  2  0  0  0  0
 20 24  1  0  0  0  0
 21 22  1  0  0  0  0
 22 19  2  0  0  0  0
 23 19  1  0  0  0  0
 24 23  2  0  0  0  0
 25 27  1  0  0  0  0
 26 25  1  0  0  0  0
 26 27  1  0  0  0  0
M  END
>  <MODEL>
2

>  <REMARK>
 VINA RESULT:      -8.5      2.129      5.956
  Name = 
  3 active torsions:
  status: ('A' for Active; 'I' for Inactive)
    1  A    between atoms: C_9  and  C_15
    2  A    between atoms: C_14  and  C_19
    3  A    between atoms: C_22  and  C_24
                            x       y       z     vdW  Elec       q    Type
                         _______ _______ _______ _____ _____    ______ ____

>  <TORSDO>
F 3

$$$$
=
 OpenBabel10272400593D

 27 30  0  0  1  0  0  0  0  0999 V2000
  187.8000  177.7950  146.4550 O   0  0  0  0  0  1  0  0  0  0  0  0
  187.9620  178.5540  142.8440 N   0  0  0  0  0  2  0  0  0  0  0  0
  190.3760  178.2990  142.7010 N   0  0  0  0  0  2  0  0  0  0  0  0
  187.4810  177.9150  144.0650 C   0  0  1  0  0  3  0  0  0  0  0  0
  188.2970  178.3770  145.2860 C   0  0  2  0  0  3  0  0  0  0  0  0
  189.0630  177.7360  142.3510 C   0  0  2  0  0  3  0  0  0  0  0  0
  191.8280  179.3540  144.3550 C   0  0  0  0  0  1  0  0  0  0  0  0
  189.8040  178.1010  145.1580 C   0  0  2  0  0  3  0  0  0  0  0  0
  190.4070  178.9460  144.0200 C   0  0  2  0  0  3  0  0  0  0  0  0
  188.7100  177.2160  138.0900 C   0  0  0  0  0  3  0  0  0  0  0  0
  190.5500  175.7100  138.1110 F   0  0  0  0  0  0  0  0  0  0  0  0
  187.0750  179.0790  140.8160 O   0  0  0  0  0  1  0  0  0  0  0  0
  189.8340  176.6870  140.1720 C   0  0  0  0  0  0  0  0  0  0  0  0
  190.8330  175.9960  140.8510 O   0  0  0  0  0  1  0  0  0  0  0  0
  188.9530  177.5410  140.8670 C   0  0  0  0  0  0  0  0  0  0  0  0
  189.7070  176.5280  138.7860 C   0  0  0  0  0  0  0  0  0  0  0  0
  187.8370  178.0630  138.7740 C   0  0  0  0  0  3  0  0  0  0  0  0
  187.9550  178.2290  140.1570 C   0  0  0  0  0  0  0  0  0  0  0  0
  183.2830  178.7140  144.5160 C   0  0  0  0  0  3  0  0  0  0  0  0
  186.0210  178.1960  144.2370 C   0  0  0  0  0  0  0  0  0  0  0  0
  185.4870  178.5090  145.4960 C   0  0  0  0  0  3  0  0  0  0  0  0
  184.1200  178.7670  145.6340 C   0  0  0  0  0  3  0  0  0  0  0  0
  183.8120  178.4030  143.2600 C   0  0  0  0  0  3  0  0  0  0  0  0
  185.1790  178.1440  143.1210 C   0  0  0  0  0  3  0  0  0  0  0  0
  190.7660  176.1420  146.3680 C   0  0  0  0  0  2  0  0  0  0  0  0
  191.6410  176.4050  145.1630 C   0  0  0  0  0  2  0  0  0  0  0  0
  190.1400  176.6070  145.0660 C   0  0  0  0  0  3  0  0  0  0  0  0
  2  4  1  0  0  0  0
  3  9  1  0  0  0  0
  4 20  1  1  0  0  0
  4  5  1  0  0  0  0
  5  1  1  1  0  0  0
  6 15  1  6  0  0  0
  6  3  1  0  0  0  0
  6  2  1  0  0  0  0
  8 27  1  6  0  0  0
  8  5  1  0  0  0  0
  9  7  1  1  0  0  0
  9  8  1  0  0  0  0
 10 17  2  0  0  0  0
 10 16  1  0  0  0  0
 11 16  1  0  0  0  0
 13 14  1  0  0  0  0
 13 15  1  0  0  0  0
 16 13  2  0  0  0  0
 17 18  1  0  0  0  0
 18 12  1  0  0  0  0
 18 15  2  0  0  0  0
 19 22  1  0  0  0  0
 20 21  1  0  0  0  0
 21 22  2  0  0  0  0
 23 19  2  0  0  0  0
 24 23  1  0  0  0  0
 24 20  2  0  0  0  0
 26 25  1  0  0  0  0
 27 26  1  0  0  0  0
 27 25  1  0  0  0  0
M  END
>  <MODEL>
3

>  <REMARK>
 VINA RESULT:      -8.5      0.951      1.877
  Name = 
  3 active torsions:
  status: ('A' for Active; 'I' for Inactive)
    1  A    between atoms: C_9  and  C_15
    2  A    between atoms: C_14  and  C_19
    3  A    between atoms: C_22  and  C_24
                            x       y       z     vdW  Elec       q    Type
                         _______ _______ _______ _____ _____    ______ ____

>  <TORSDO>
F 3

$$$$
=
 OpenBabel10272400593D

 27 30  0  0  1  0  0  0  0  0999 V2000
  191.5710  176.6430  140.3060 O   0  0  0  0  0  1  0  0  0  0  0  0
  188.5670  178.5300  141.3350 N   0  0  0  0  0  2  0  0  0  0  0  0
  187.6060  178.5950  139.1020 N   0  0  0  0  0  2  0  0  0  0  0  0
  189.5850  177.4870  141.3910 C   0  0  1  0  0  3  0  0  0  0  0  0
  190.5740  177.6180  140.2190 C   0  0  2  0  0  3  0  0  0  0  0  0
  187.5110  178.0370  140.4590 C   0  0  2  0  0  3  0  0  0  0  0  0
  188.9830  179.2160  137.1850 C   0  0  0  0  0  1  0  0  0  0  0  0
  189.9000  177.5620  138.8380 C   0  0  2  0  0  3  0  0  0  0  0  0
  188.9870  178.7860  138.6380 C   0  0  2  0  0  3  0  0  0  0  0  0
  183.6550  178.8280  142.2060 C   0  0  0  0  0  3  0  0  0  0  0  0
  182.8300  179.5370  140.0920 F   0  0  0  0  0  0  0  0  0  0  0  0
  186.9780  177.6020  143.2230 O   0  0  0  0  0  1  0  0  0  0  0  0
  185.1010  178.8090  140.2610 C   0  0  0  0  0  0  0  0  0  0  0  0
  185.2830  179.0490  138.9020 O   0  0  0  0  0  1  0  0  0  0  0  0
  186.1600  178.3150  141.0500 C   0  0  0  0  0  0  0  0  0  0  0  0
  183.8530  179.0620  140.8440 C   0  0  0  0  0  0  0  0  0  0  0  0
  184.7010  178.3410  142.9920 C   0  0  0  0  0  3  0  0  0  0  0  0
  185.9510  178.0850  142.4200 C   0  0  0  0  0  0  0  0  0  0  0  0
  191.6070  177.6770  145.1780 C   0  0  0  0  0  3  0  0  0  0  0  0
  190.2850  177.5380  142.7130 C   0  0  0  0  0  0  0  0  0  0  0  0
  190.3250  176.4170  143.5570 C   0  0  0  0  0  3  0  0  0  0  0  0
  190.9840  176.4880  144.7860 C   0  0  0  0  0  3  0  0  0  0  0  0
  191.5690  178.7950  144.3400 C   0  0  0  0  0  3  0  0  0  0  0  0
  190.9100  178.7260  143.1090 C   0  0  0  0  0  3  0  0  0  0  0  0
  190.1110  175.3530  137.6960 C   0  0  0  0  0  2  0  0  0  0  0  0
  188.9420  176.0780  137.0690 C   0  0  0  0  0  2  0  0  0  0  0  0
  189.2100  176.2220  138.5550 C   0  0  0  0  0  3  0  0  0  0  0  0
  2  4  1  0  0  0  0
  3  6  1  0  0  0  0
  4 20  1  1  0  0  0
  5  1  1  6  0  0  0
  5  4  1  0  0  0  0
  6 15  1  1  0  0  0
  6  2  1  0  0  0  0
  8 27  1  1  0  0  0
  8  5  1  0  0  0  0
  9  7  1  6  0  0  0
  9  8  1  0  0  0  0
  9  3  1  0  0  0  0
 10 17  1  0  0  0  0
 11 16  1  0  0  0  0
 13 16  1  0  0  0  0
 13 15  2  0  0  0  0
 14 13  1  0  0  0  0
 15 18  1  0  0  0  0
 16 10  2  0  0  0  0
 18 17  2  0  0  0  0
 18 12  1  0  0  0  0
 20 24  2  0  0  0  0
 20 21  1  0  0  0  0
 21 22  2  0  0  0  0
 22 19  1  0  0  0  0
 23 19  2  0  0  0  0
 24 23  1  0  0  0  0
 25 27  1  0  0  0  0
 26 25  1  0  0  0  0
 26 27  1  0  0  0  0
M  END
>  <MODEL>
4

>  <REMARK>
 VINA RESULT:      -8.3      1.872      5.741
  Name = 
  3 active torsions:
  status: ('A' for Active; 'I' for Inactive)
    1  A    between atoms: C_9  and  C_15
    2  A    between atoms: C_14  and  C_19
    3  A    between atoms: C_22  and  C_24
                            x       y       z     vdW  Elec       q    Type
                         _______ _______ _______ _____ _____    ______ ____

>  <TORSDO>
F 3

$$$$
=
 OpenBabel10272400593D

 27 30  0  0  1  0  0  0  0  0999 V2000
  188.2920  178.6360  140.3380 O   0  0  0  0  0  1  0  0  0  0  0  0
  190.4810  175.7880  139.4750 N   0  0  0  0  0  2  0  0  0  0  0  0
  189.7640  175.6900  137.1530 N   0  0  0  0  0  2  0  0  0  0  0  0
  190.1190  177.0850  140.0360 C   0  0  1  0  0  3  0  0  0  0  0  0
  188.6410  177.4140  139.7570 C   0  0  2  0  0  3  0  0  0  0  0  0
  190.8510  176.0240  138.0850 C   0  0  2  0  0  3  0  0  0  0  0  0
  187.3900  175.7690  136.5920 C   0  0  0  0  0  1  0  0  0  0  0  0
  188.2850  177.4190  138.2620 C   0  0  2  0  0  3  0  0  0  0  0  0
  188.4250  176.0020  137.6740 C   0  0  2  0  0  3  0  0  0  0  0  0
  194.4570  173.8820  137.1070 C   0  0  0  0  0  3  0  0  0  0  0  0
  193.1670  172.1110  136.1830 F   0  0  0  0  0  0  0  0  0  0  0  0
  193.4390  177.0570  138.6760 O   0  0  0  0  0  1  0  0  0  0  0  0
  192.0360  174.0060  137.1020 C   0  0  0  0  0  0  0  0  0  0  0  0
  190.8090  173.4340  136.7810 O   0  0  0  0  0  1  0  0  0  0  0  0
  192.0970  175.2650  137.7340 C   0  0  0  0  0  0  0  0  0  0  0  0
  193.2170  173.3210  136.7900 C   0  0  0  0  0  0  0  0  0  0  0  0
  194.5220  175.1270  137.7340 C   0  0  0  0  0  3  0  0  0  0  0  0
  193.3490  175.8190  138.0490 C   0  0  0  0  0  0  0  0  0  0  0  0
  190.9460  177.1080  144.2530 C   0  0  0  0  0  3  0  0  0  0  0  0
  190.4210  177.1010  141.5020 C   0  0  0  0  0  0  0  0  0  0  0  0
  191.6070  177.6680  141.9930 C   0  0  0  0  0  3  0  0  0  0  0  0
  191.8680  177.6700  143.3660 C   0  0  0  0  0  3  0  0  0  0  0  0
  189.7630  176.5430  143.7680 C   0  0  0  0  0  3  0  0  0  0  0  0
  189.5010  176.5390  142.3950 C   0  0  0  0  0  3  0  0  0  0  0  0
  188.0480  179.5380  136.9660 C   0  0  0  0  0  2  0  0  0  0  0  0
  188.5750  178.4840  136.0180 C   0  0  0  0  0  2  0  0  0  0  0  0
  189.0320  178.4960  137.4650 C   0  0  0  0  0  3  0  0  0  0  0  0
  2  4  1  0  0  0  0
  3  9  1  0  0  0  0
  3  6  1  0  0  0  0
  4 20  1  1  0  0  0
  5  4  1  0  0  0  0
  5  1  1  6  0  0  0
  6 15  1  6  0  0  0
  6  2  1  0  0  0  0
  8 27  1  6  0  0  0
  8  5  1  0  0  0  0
  9  7  1  6  0  0  0
  9  8  1  0  0  0  0
 10 17  1  0  0  0  0
 11 16  1  0  0  0  0
 13 15  2  0  0  0  0
 14 13  1  0  0  0  0
 15 18  1  0  0  0  0
 16 13  1  0  0  0  0
 16 10  2  0  0  0  0
 17 18  2  0  0  0  0
 18 12  1  0  0  0  0
 20 21  2  0  0  0  0
 20 24  1  0  0  0  0
 21 22  1  0  0  0  0
 22 19  2  0  0  0  0
 23 19  1  0  0  0  0
 24 23  2  0  0  0  0
 25 27  1  0  0  0  0
 26 25  1  0  0  0  0
 26 27  1  0  0  0  0
M  END
>  <MODEL>
5

>  <REMARK>
 VINA RESULT:      -7.9      3.831      6.759
  Name = 
  3 active torsions:
  status: ('A' for Active; 'I' for Inactive)
    1  A    between atoms: C_9  and  C_15
    2  A    between atoms: C_14  and  C_19
    3  A    between atoms: C_22  and  C_24
                            x       y       z     vdW  Elec       q    Type
                         _______ _______ _______ _____ _____    ______ ____

>  <TORSDO>
F 3

$$$$
=
 OpenBabel10272400593D

 27 30  0  0  1  0  0  0  0  0999 V2000
  191.9110  177.6720  140.8690 O   0  0  0  0  0  1  0  0  0  0  0  0
  188.2880  177.1430  141.3500 N   0  0  0  0  0  2  0  0  0  0  0  0
  188.3820  177.3550  143.7710 N   0  0  0  0  0  2  0  0  0  0  0  0
  189.4990  177.7130  140.7700 C   0  0  1  0  0  3  0  0  0  0  0  0
  190.7560  177.1560  141.4610 C   0  0  2  0  0  3  0  0  0  0  0  0
  187.9510  177.9670  142.5050 C   0  0  2  0  0  3  0  0  0  0  0  0
  190.0870  176.1640  145.0480 C   0  0  0  0  0  1  0  0  0  0  0  0
  190.7840  177.4060  142.9780 C   0  0  2  0  0  3  0  0  0  0  0  0
  189.6530  176.6240  143.6700 C   0  0  2  0  0  3  0  0  0  0  0  0
  183.7290  178.8120  142.5370 C   0  0  0  0  0  3  0  0  0  0  0  0
  183.6320  178.2960  144.8560 F   0  0  0  0  0  0  0  0  0  0  0  0
  186.5500  178.7880  140.1660 O   0  0  0  0  0  1  0  0  0  0  0  0
  185.7310  178.1360  143.7240 C   0  0  0  0  0  0  0  0  0  0  0  0
  186.3440  177.7380  144.9080 O   0  0  0  0  0  1  0  0  0  0  0  0
  186.4800  178.2610  142.5360 C   0  0  0  0  0  0  0  0  0  0  0  0
  184.3580  178.4140  143.7180 C   0  0  0  0  0  0  0  0  0  0  0  0
  184.4660  178.9350  141.3580 C   0  0  0  0  0  3  0  0  0  0  0  0
  185.8360  178.6610  141.3530 C   0  0  0  0  0  0  0  0  0  0  0  0
  189.5480  177.0150  136.5300 C   0  0  0  0  0  3  0  0  0  0  0  0
  189.5190  177.4540  139.2950 C   0  0  0  0  0  0  0  0  0  0  0  0
  189.7400  176.1650  138.7880 C   0  0  0  0  0  3  0  0  0  0  0  0
  189.7540  175.9470  137.4080 C   0  0  0  0  0  3  0  0  0  0  0  0
  189.3270  178.3000  137.0320 C   0  0  0  0  0  3  0  0  0  0  0  0
  189.3130  178.5200  138.4120 C   0  0  0  0  0  3  0  0  0  0  0  0
  192.1040  179.2050  144.0960 C   0  0  0  0  0  2  0  0  0  0  0  0
  190.8040  179.0600  144.8540 C   0  0  0  0  0  2  0  0  0  0  0  0
  190.8220  178.8950  143.3450 C   0  0  0  0  0  3  0  0  0  0  0  0
  2  6  1  0  0  0  0
  4 20  1  6  0  0  0
  4  2  1  0  0  0  0
  4  5  1  0  0  0  0
  5  1  1  6  0  0  0
  5  8  1  0  0  0  0
  6 15  1  1  0  0  0
  6  3  1  0  0  0  0
  8 27  1  6  0  0  0
  8  9  1  0  0  0  0
  9  3  1  0  0  0  0
  9  7  1  1  0  0  0
 10 16  1  0  0  0  0
 12 18  1  0  0  0  0
 13 14  1  0  0  0  0
 15 13  1  0  0  0  0
 16 13  2  0  0  0  0
 16 11  1  0  0  0  0
 17 10  2  0  0  0  0
 18 17  1  0  0  0  0
 18 15  2  0  0  0  0
 19 23  2  0  0  0  0
 19 22  1  0  0  0  0
 21 20  1  0  0  0  0
 22 21  2  0  0  0  0
 23 24  1  0  0  0  0
 24 20  2  0  0  0  0
 25 26  1  0  0  0  0
 27 25  1  0  0  0  0
 27 26  1  0  0  0  0
M  END
>  <MODEL>
6

>  <REMARK>
 VINA RESULT:      -7.9      2.048      5.602
  Name = 
  3 active torsions:
  status: ('A' for Active; 'I' for Inactive)
    1  A    between atoms: C_9  and  C_15
    2  A    between atoms: C_14  and  C_19
    3  A    between atoms: C_22  and  C_24
                            x       y       z     vdW  Elec       q    Type
                         _______ _______ _______ _____ _____    ______ ____

>  <TORSDO>
F 3

$$$$
=
 OpenBabel10272400593D

 27 30  0  0  1  0  0  0  0  0999 V2000
  190.5850  176.6410  140.7650 O   0  0  0  0  0  1  0  0  0  0  0  0
  187.4260  178.5450  140.5780 N   0  0  0  0  0  2  0  0  0  0  0  0
  187.3630  178.5750  138.1470 N   0  0  0  0  0  2  0  0  0  0  0  0
  188.3440  177.5020  141.0230 C   0  0  1  0  0  3  0  0  0  0  0  0
  189.6980  177.6140  140.3000 C   0  0  2  0  0  3  0  0  0  0  0  0
  186.7680  178.0380  139.3800 C   0  0  2  0  0  3  0  0  0  0  0  0
  189.3570  179.1650  136.8690 C   0  0  0  0  0  1  0  0  0  0  0  0
  189.5850  177.5360  138.7690 C   0  0  2  0  0  3  0  0  0  0  0  0
  188.8190  178.7570  138.2260 C   0  0  2  0  0  3  0  0  0  0  0  0
  182.5520  178.9000  139.5460 C   0  0  0  0  0  3  0  0  0  0  0  0
  182.2190  177.7240  137.5070 F   0  0  0  0  0  0  0  0  0  0  0  0
  185.6080  179.5380  141.5040 O   0  0  0  0  0  1  0  0  0  0  0  0
  184.4280  177.8700  138.4090 C   0  0  0  0  0  0  0  0  0  0  0  0
  184.9190  177.1310  137.3370 O   0  0  0  0  0  1  0  0  0  0  0  0
  185.2960  178.3260  139.4230 C   0  0  0  0  0  0  0  0  0  0  0  0
  183.0600  178.1590  138.4770 C   0  0  0  0  0  0  0  0  0  0  0  0
  183.4070  179.3560  140.5510 C   0  0  0  0  0  3  0  0  0  0  0  0
  184.7750  179.0730  140.4930 C   0  0  0  0  0  0  0  0  0  0  0  0
  188.7620  177.6900  145.2950 C   0  0  0  0  0  3  0  0  0  0  0  0
  188.5040  177.5740  142.5090 C   0  0  0  0  0  0  0  0  0  0  0  0
  189.6580  178.1230  143.0890 C   0  0  0  0  0  3  0  0  0  0  0  0
  189.7850  178.1800  144.4790 C   0  0  0  0  0  3  0  0  0  0  0  0
  187.6110  177.1420  144.7220 C   0  0  0  0  0  3  0  0  0  0  0  0
  187.4820  177.0850  143.3310 C   0  0  0  0  0  3  0  0  0  0  0  0
  190.1790  175.3510  137.7210 C   0  0  0  0  0  2  0  0  0  0  0  0
  189.2480  176.0710  136.7710 C   0  0  0  0  0  2  0  0  0  0  0  0
  189.0410  176.1920  138.2690 C   0  0  0  0  0  3  0  0  0  0  0  0
  2  4  1  0  0  0  0
  3  9  1  0  0  0  0
  3  6  1  0  0  0  0
  4 20  1  1  0  0  0
  5  1  1  1  0  0  0
  5  4  1  0  0  0  0
  6 15  1  1  0  0  0
  6  2  1  0  0  0  0
  8 27  1  1  0  0  0
  8  5  1  0  0  0  0
  9  7  1  6  0  0  0
  9  8  1  0  0  0  0
 10 17  1  0  0  0  0
 11 16  1  0  0  0  0
 13 16  1  0  0  0  0
 13 15  2  0  0  0  0
 14 13  1  0  0  0  0
 15 18  1  0  0  0  0
 16 10  2  0  0  0  0
 18 17  2  0  0  0  0
 18 12  1  0  0  0  0
 20 21  2  0  0  0  0
 20 24  1  0  0  0  0
 21 22  1  0  0  0  0
 22 19  2  0  0  0  0
 23 19  1  0  0  0  0
 24 23  2  0  0  0  0
 25 27  1  0  0  0  0
 26 25  1  0  0  0  0
 26 27  1  0  0  0  0
M  END
>  <MODEL>
7

>  <REMARK>
 VINA RESULT:      -7.8      2.433      5.466
  Name = 
  3 active torsions:
  status: ('A' for Active; 'I' for Inactive)
    1  A    between atoms: C_9  and  C_15
    2  A    between atoms: C_14  and  C_19
    3  A    between atoms: C_22  and  C_24
                            x       y       z     vdW  Elec       q    Type
                         _______ _______ _______ _____ _____    ______ ____

>  <TORSDO>
F 3

$$$$
=
 OpenBabel10272400593D

 27 30  0  0  1  0  0  0  0  0999 V2000
  191.9520  177.6670  140.8670 O   0  0  0  0  0  1  0  0  0  0  0  0
  188.3240  177.1400  141.3190 N   0  0  0  0  0  2  0  0  0  0  0  0
  188.3980  177.3550  143.7410 N   0  0  0  0  0  2  0  0  0  0  0  0
  189.5400  177.7090  140.7480 C   0  0  1  0  0  3  0  0  0  0  0  0
  190.7910  177.1530  141.4510 C   0  0  2  0  0  3  0  0  0  0  0  0
  187.9780  177.9660  142.4710 C   0  0  2  0  0  3  0  0  0  0  0  0
  190.0930  176.1660  145.0330 C   0  0  0  0  0  1  0  0  0  0  0  0
  190.8070  177.4050  142.9670 C   0  0  2  0  0  3  0  0  0  0  0  0
  189.6690  176.6240  143.6510 C   0  0  2  0  0  3  0  0  0  0  0  0
  183.7560  178.8070  142.5760 C   0  0  0  0  0  3  0  0  0  0  0  0
  183.7880  179.3150  140.2530 F   0  0  0  0  0  0  0  0  0  0  0  0
  186.4460  177.7520  144.8620 O   0  0  0  0  0  1  0  0  0  0  0  0
  185.8250  178.6600  141.3200 C   0  0  0  0  0  0  0  0  0  0  0  0
  186.5040  178.7880  140.1130 O   0  0  0  0  0  1  0  0  0  0  0  0
  186.5070  178.2600  142.4880 C   0  0  0  0  0  0  0  0  0  0  0  0
  184.4510  178.9300  141.3710 C   0  0  0  0  0  0  0  0  0  0  0  0
  184.4280  178.4130  143.7340 C   0  0  0  0  0  3  0  0  0  0  0  0
  185.7980  178.1410  143.6950 C   0  0  0  0  0  0  0  0  0  0  0  0
  189.6220  177.0040  136.5100 C   0  0  0  0  0  3  0  0  0  0  0  0
  189.5720  177.4480  139.2740 C   0  0  0  0  0  0  0  0  0  0  0  0
  189.8390  176.1660  138.7700 C   0  0  0  0  0  3  0  0  0  0  0  0
  189.8640  175.9460  137.3910 C   0  0  0  0  0  3  0  0  0  0  0  0
  189.3560  178.2820  137.0080 C   0  0  0  0  0  3  0  0  0  0  0  0
  189.3310  178.5040  138.3890 C   0  0  0  0  0  3  0  0  0  0  0  0
  192.1170  179.2040  144.0960 C   0  0  0  0  0  2  0  0  0  0  0  0
  190.8090  179.0610  144.8410 C   0  0  0  0  0  2  0  0  0  0  0  0
  190.8420  178.8940  143.3330 C   0  0  0  0  0  3  0  0  0  0  0  0
  2  6  1  0  0  0  0
  4 20  1  6  0  0  0
  4  2  1  0  0  0  0
  4  5  1  0  0  0  0
  5  1  1  6  0  0  0
  5  8  1  0  0  0  0
  6 15  1  1  0  0  0
  6  3  1  0  0  0  0
  8 27  1  6  0  0  0
  8  9  1  0  0  0  0
  9  3  1  0  0  0  0
  9  7  1  1  0  0  0
 10 17  1  0  0  0  0
 11 16  1  0  0  0  0
 13 16  1  0  0  0  0
 13 15  2  0  0  0  0
 14 13  1  0  0  0  0
 15 18  1  0  0  0  0
 16 10  2  0  0  0  0
 18 17  2  0  0  0  0
 18 12  1  0  0  0  0
 19 23  2  0  0  0  0
 19 22  1  0  0  0  0
 21 20  1  0  0  0  0
 22 21  2  0  0  0  0
 23 24  1  0  0  0  0
 24 20  2  0  0  0  0
 25 26  1  0  0  0  0
 27 25  1  0  0  0  0
 27 26  1  0  0  0  0
M  END
>  <MODEL>
8

>  <REMARK>
 VINA RESULT:      -7.8      1.606      5.440
  Name = 
  3 active torsions:
  status: ('A' for Active; 'I' for Inactive)
    1  A    between atoms: C_9  and  C_15
    2  A    between atoms: C_14  and  C_19
    3  A    between atoms: C_22  and  C_24
                            x       y       z     vdW  Elec       q    Type
                         _______ _______ _______ _____ _____    ______ ____

>  <TORSDO>
F 3

$$$$
=
 OpenBabel10272400593D

 27 30  0  0  1  0  0  0  0  0999 V2000
  190.8910  176.6740  140.6780 O   0  0  0  0  0  1  0  0  0  0  0  0
  187.7360  178.5810  140.9110 N   0  0  0  0  0  2  0  0  0  0  0  0
  187.3390  178.5900  138.5120 N   0  0  0  0  0  2  0  0  0  0  0  0
  188.7060  177.5400  141.2340 C   0  0  1  0  0  3  0  0  0  0  0  0
  189.9480  177.6450  140.3310 C   0  0  2  0  0  3  0  0  0  0  0  0
  186.9190  178.0650  139.8200 C   0  0  2  0  0  3  0  0  0  0  0  0
  189.1370  179.1670  136.9660 C   0  0  0  0  0  1  0  0  0  0  0  0
  189.6250  177.5540  138.8300 C   0  0  2  0  0  3  0  0  0  0  0  0
  188.7920  178.7720  138.3880 C   0  0  2  0  0  3  0  0  0  0  0  0
  182.7410  178.8830  140.4670 C   0  0  0  0  0  3  0  0  0  0  0  0
  183.1450  179.1640  142.7930 F   0  0  0  0  0  0  0  0  0  0  0  0
  185.0250  178.0690  137.6920 O   0  0  0  0  0  1  0  0  0  0  0  0
  184.9810  178.6320  141.3580 C   0  0  0  0  0  0  0  0  0  0  0  0
  185.8440  178.6480  142.4490 O   0  0  0  0  0  1  0  0  0  0  0  0
  185.4670  178.3550  140.0630 C   0  0  0  0  0  0  0  0  0  0  0  0
  183.6200  178.8960  141.5520 C   0  0  0  0  0  0  0  0  0  0  0  0
  183.2170  178.6070  139.1840 C   0  0  0  0  0  3  0  0  0  0  0  0
  184.5740  178.3430  138.9790 C   0  0  0  0  0  0  0  0  0  0  0  0
  189.7160  177.7530  145.4060 C   0  0  0  0  0  3  0  0  0  0  0  0
  189.0700  177.6240  142.6840 C   0  0  0  0  0  0  0  0  0  0  0  0
  190.1140  178.4520  143.1230 C   0  0  0  0  0  3  0  0  0  0  0  0
  190.4360  178.5150  144.4810 C   0  0  0  0  0  3  0  0  0  0  0  0
  188.6750  176.9270  144.9720 C   0  0  0  0  0  3  0  0  0  0  0  0
  188.3520  176.8630  143.6130 C   0  0  0  0  0  3  0  0  0  0  0  0
  190.0640  175.3650  137.7160 C   0  0  0  0  0  2  0  0  0  0  0  0
  189.0020  176.0790  136.9100 C   0  0  0  0  0  2  0  0  0  0  0  0
  189.0170  176.2060  138.4220 C   0  0  0  0  0  3  0  0  0  0  0  0
  2  4  1  0  0  0  0
  3  6  1  0  0  0  0
  4 20  1  1  0  0  0
  5  1  1  1  0  0  0
  5  4  1  0  0  0  0
  6 15  1  1  0  0  0
  6  2  1  0  0  0  0
  8 27  1  1  0  0  0
  8  5  1  0  0  0  0
  9  7  1  6  0  0  0
  9  3  1  0  0  0  0
  9  8  1  0  0  0  0
 10 16  1  0  0  0  0
 12 18  1  0  0  0  0
 13 16  2  0  0  0  0
 13 14  1  0  0  0  0
 15 13  1  0  0  0  0
 16 11  1  0  0  0  0
 17 10  2  0  0  0  0
 18 17  1  0  0  0  0
 18 15  2  0  0  0  0
 20 21  2  0  0  0  0
 20 24  1  0  0  0  0
 21 22  1  0  0  0  0
 22 19  2  0  0  0  0
 23 19  1  0  0  0  0
 24 23  2  0  0  0  0
 25 27  1  0  0  0  0
 26 25  1  0  0  0  0
 26 27  1  0  0  0  0
M  END
>  <MODEL>
9

>  <REMARK>
 VINA RESULT:      -7.7      2.362      5.594
  Name = 
  3 active torsions:
  status: ('A' for Active; 'I' for Inactive)
    1  A    between atoms: C_9  and  C_15
    2  A    between atoms: C_14  and  C_19
    3  A    between atoms: C_22  and  C_24
                            x       y       z     vdW  Elec       q    Type
                         _______ _______ _______ _____ _____    ______ ____

>  <TORSDO>
F 3

$$$$
