=
 OpenBabel10272402113D

 32 37  0  0  1  0  0  0  0  0999 V2000
  186.7240  177.8410  144.6130 C   0  0  1  0  0  3  0  0  0  0  0  0
  186.0870  178.3040  142.2340 C   0  0  0  0  0  0  0  0  0  0  0  0
  186.4520  178.5240  145.9470 C   0  0  0  0  0  2  0  0  0  0  0  0
  185.7120  178.2690  143.5830 C   0  0  0  0  0  0  0  0  0  0  0  0
  185.1420  178.6000  141.2420 C   0  0  0  0  0  0  0  0  0  0  0  0
  189.4740  178.3720  138.7660 C   0  0  0  0  0  2  0  0  0  0  0  0
  187.5520  178.2010  141.8720 C   0  0  1  0  0  3  0  0  0  0  0  0
  187.1010  178.4800  138.0300 C   0  0  0  0  0  2  0  0  0  0  0  0
  186.7350  178.2670  139.4720 C   0  0  0  0  0  0  0  0  0  0  0  0
  184.3860  178.5610  143.9530 C   0  0  0  0  0  0  0  0  0  0  0  0
  185.5600  178.6630  139.8690 N   0  0  0  0  0  0  0  0  0  0  0  0
  183.4480  178.8670  142.9610 C   0  0  0  0  0  3  0  0  0  0  0  0
  183.9960  178.7250  145.3990 C   0  0  0  0  0  2  0  0  0  0  0  0
  188.2500  177.4040  142.8060 O   0  0  0  0  0  0  0  0  0  0  0  0
  188.1550  178.0400  144.0620 C   0  0  2  0  0  3  0  0  0  0  0  0
  187.6980  177.6170  140.4630 C   0  0  1  0  0  3  0  0  0  0  0  0
  183.8130  178.8730  141.6070 C   0  0  0  0  0  0  0  0  0  0  0  0
  185.0340  178.1630  146.3800 C   0  0  0  0  0  2  0  0  0  0  0  0
  188.4920  177.9670  137.6830 C   0  0  0  0  0  2  0  0  0  0  0  0
  189.1730  177.5710  140.0280 C   0  0  0  0  0  2  0  0  0  0  0  0
  191.6810  177.1450  144.8570 C   0  0  2  0  0  3  0  0  0  0  0  0
  191.8820  177.0180  148.2900 O   0  0  0  0  0  0  0  0  0  0  0  0
  191.7300  176.2770  143.5990 C   0  0  0  0  0  1  0  0  0  0  0  0
  189.6920  177.2820  147.4560 C   0  0  0  0  0  3  0  0  0  0  0  0
  189.2790  177.5120  144.9820 C   0  0  2  0  0  3  0  0  0  0  0  0
  191.5990  176.2120  146.0710 C   0  0  0  0  0  2  0  0  0  0  0  0
  188.8700  177.5410  146.4340 C   0  0  0  0  0  3  0  0  0  0  0  0
  190.6020  178.1560  144.8150 N   0  0  0  0  0  0  0  0  0  0  0  0
  190.7360  178.9510  143.5920 C   0  0  0  0  0  1  0  0  0  0  0  0
  191.1000  176.8730  147.3150 C   0  0  0  0  0  0  0  0  0  0  0  0
  182.7780  179.1830  140.5770 C   0  0  0  0  0  2  0  0  0  0  0  0
  181.4070  178.7630  141.0720 C   0  0  0  0  0  1  0  0  0  0  0  0
  1  3  1  1  0  0  0
  2  4  1  0  0  0  0
  3 18  1  0  0  0  0
  4 10  2  0  0  0  0
  4  1  1  0  0  0  0
  5 17  1  0  0  0  0
  5  2  2  0  0  0  0
  6 20  1  0  0  0  0
  7  2  1  1  0  0  0
  7 14  1  0  0  0  0
  8  9  1  0  0  0  0
  9 11  2  0  0  0  0
  9 16  1  0  0  0  0
 10 13  1  0  0  0  0
 11  5  1  0  0  0  0
 12 10  1  0  0  0  0
 13 18  1  0  0  0  0
 15 14  1  6  0  0  0
 15  1  1  0  0  0  0
 15 25  1  0  0  0  0
 16 20  1  6  0  0  0
 16  7  1  0  0  0  0
 17 12  2  0  0  0  0
 19  8  1  0  0  0  0
 19  6  1  0  0  0  0
 21 23  1  6  0  0  0
 21 26  1  0  0  0  0
 25 27  1  1  0  0  0
 26 30  1  0  0  0  0
 27 24  2  0  0  0  0
 28 21  1  0  0  0  0
 28 25  1  0  0  0  0
 29 28  1  0  0  0  0
 30 24  1  0  0  0  0
 30 22  2  0  0  0  0
 31 32  1  0  0  0  0
 31 17  1  0  0  0  0
M  END
>  <MODEL>
1

>  <REMARK>
 VINA RESULT:     -11.7      0.000      0.000
  Name = 
  2 active torsions:
  status: ('A' for Active; 'I' for Inactive)
    1  A    between atoms: C_13  and  C_29
    2  A    between atoms: C_16  and  C_27
                            x       y       z     vdW  Elec       q    Type
                         _______ _______ _______ _____ _____    ______ ____

>  <TORSDO>
F 2

$$$$
=
 OpenBabel10272402113D

 32 37  0  0  1  0  0  0  0  0999 V2000
  189.9190  176.7760  142.7250 C   0  0  1  0  0  3  0  0  0  0  0  0
  187.9330  177.6010  144.0110 C   0  0  0  0  0  0  0  0  0  0  0  0
  191.4160  177.0580  142.7690 C   0  0  0  0  0  2  0  0  0  0  0  0
  189.2680  177.1760  144.0220 C   0  0  0  0  0  0  0  0  0  0  0  0
  187.2670  177.8830  145.2110 C   0  0  0  0  0  0  0  0  0  0  0  0
  184.0160  179.2380  141.6710 C   0  0  0  0  0  2  0  0  0  0  0  0
  187.2740  177.9270  142.6900 C   0  0  1  0  0  3  0  0  0  0  0  0
  183.8230  178.9520  144.1340 C   0  0  0  0  0  2  0  0  0  0  0  0
  185.1950  178.3400  144.0820 C   0  0  0  0  0  0  0  0  0  0  0  0
  189.9590  177.0590  145.2430 C   0  0  0  0  0  0  0  0  0  0  0  0
  185.9090  178.3500  145.1700 N   0  0  0  0  0  0  0  0  0  0  0  0
  189.2940  177.3530  146.4390 C   0  0  0  0  0  3  0  0  0  0  0  0
  191.4420  176.7980  145.2790 C   0  0  0  0  0  2  0  0  0  0  0  0
  187.7970  177.1270  141.6500 O   0  0  0  0  0  0  0  0  0  0  0  0
  189.1720  177.4230  141.5370 C   0  0  2  0  0  3  0  0  0  0  0  0
  185.7590  177.7260  142.8020 C   0  0  1  0  0  3  0  0  0  0  0  0
  187.9490  177.7480  146.4330 C   0  0  0  0  0  0  0  0  0  0  0  0
  192.0060  176.2880  143.9460 C   0  0  0  0  0  2  0  0  0  0  0  0
  183.0800  178.8690  142.8070 C   0  0  0  0  0  2  0  0  0  0  0  0
  185.0440  178.1260  141.5000 C   0  0  0  0  0  2  0  0  0  0  0  0
  188.9300  177.1470  137.8310 C   0  0  2  0  0  3  0  0  0  0  0  0
  192.1080  176.4350  136.7190 O   0  0  0  0  0  0  0  0  0  0  0  0
  187.5290  176.5550  137.9800 C   0  0  0  0  0  1  0  0  0  0  0  0
  191.8690  176.3890  139.0640 C   0  0  0  0  0  3  0  0  0  0  0  0
  189.6700  176.9790  140.1420 C   0  0  2  0  0  3  0  0  0  0  0  0
  189.8840  176.0110  137.4460 C   0  0  0  0  0  2  0  0  0  0  0  0
  191.1430  176.6560  140.1550 C   0  0  0  0  0  3  0  0  0  0  0  0
  189.3640  177.9030  139.0270 N   0  0  0  0  0  0  0  0  0  0  0  0
  188.3580  178.9200  139.3430 C   0  0  0  0  0  1  0  0  0  0  0  0
  191.3260  176.3130  137.6970 C   0  0  0  0  0  0  0  0  0  0  0  0
  187.2700  178.0320  147.7310 C   0  0  0  0  0  2  0  0  0  0  0  0
  188.2830  178.0390  148.8600 C   0  0  0  0  0  1  0  0  0  0  0  0
  1  3  1  1  0  0  0
  1  4  1  0  0  0  0
  2  4  2  0  0  0  0
  2  5  1  0  0  0  0
  3 18  1  0  0  0  0
  4 10  1  0  0  0  0
  5 17  2  0  0  0  0
  6 19  1  0  0  0  0
  7 14  1  6  0  0  0
  7 16  1  0  0  0  0
  7  2  1  0  0  0  0
  9  8  1  0  0  0  0
  9 11  2  0  0  0  0
 10 13  1  0  0  0  0
 10 12  2  0  0  0  0
 11  5  1  0  0  0  0
 15 14  1  1  0  0  0
 15  1  1  0  0  0  0
 16 20  1  6  0  0  0
 16  9  1  0  0  0  0
 17 12  1  0  0  0  0
 17 31  1  0  0  0  0
 18 13  1  0  0  0  0
 19  8  1  0  0  0  0
 20  6  1  0  0  0  0
 21 23  1  1  0  0  0
 21 28  1  0  0  0  0
 22 30  2  0  0  0  0
 24 27  2  0  0  0  0
 25 27  1  1  0  0  0
 25 15  1  0  0  0  0
 26 30  1  0  0  0  0
 26 21  1  0  0  0  0
 28 29  1  0  0  0  0
 28 25  1  0  0  0  0
 30 24  1  0  0  0  0
 31 32  1  0  0  0  0
M  END
>  <MODEL>
2

>  <REMARK>
 VINA RESULT:     -10.1      2.179      6.535
  Name = 
  2 active torsions:
  status: ('A' for Active; 'I' for Inactive)
    1  A    between atoms: C_13  and  C_29
    2  A    between atoms: C_16  and  C_27
                            x       y       z     vdW  Elec       q    Type
                         _______ _______ _______ _____ _____    ______ ____

>  <TORSDO>
F 2

$$$$
=
 OpenBabel10272402113D

 32 37  0  0  1  0  0  0  0  0999 V2000
  189.9470  177.0220  143.0210 C   0  0  1  0  0  3  0  0  0  0  0  0
  187.6400  177.7610  143.6610 C   0  0  0  0  0  0  0  0  0  0  0  0
  191.3520  177.3610  143.5010 C   0  0  0  0  0  2  0  0  0  0  0  0
  188.9280  177.3890  144.0670 C   0  0  0  0  0  0  0  0  0  0  0  0
  186.6400  178.0110  144.6100 C   0  0  0  0  0  0  0  0  0  0  0  0
  184.5230  179.2550  140.2610 C   0  0  0  0  0  2  0  0  0  0  0  0
  187.3860  178.0680  142.2020 C   0  0  1  0  0  3  0  0  0  0  0  0
  183.6250  178.9490  142.5600 C   0  0  0  0  0  2  0  0  0  0  0  0
  184.9750  178.3920  142.9180 C   0  0  0  0  0  0  0  0  0  0  0  0
  189.2330  177.2930  145.4380 C   0  0  0  0  0  0  0  0  0  0  0  0
  185.3370  178.4240  144.1680 N   0  0  0  0  0  0  0  0  0  0  0  0
  188.2350  177.5540  146.3840 C   0  0  0  0  0  3  0  0  0  0  0  0
  190.6490  177.0890  145.9100 C   0  0  0  0  0  2  0  0  0  0  0  0
  188.2230  177.2940  141.3670 O   0  0  0  0  0  0  0  0  0  0  0  0
  189.5570  177.6450  141.6610 C   0  0  2  0  0  3  0  0  0  0  0  0
  185.9140  177.8070  141.8650 C   0  0  1  0  0  3  0  0  0  0  0  0
  186.9370  177.8970  145.9790 C   0  0  0  0  0  0  0  0  0  0  0  0
  191.5990  176.6090  144.8050 C   0  0  0  0  0  2  0  0  0  0  0  0
  183.3100  178.8450  141.0740 C   0  0  0  0  0  2  0  0  0  0  0  0
  185.5990  178.1860  140.4070 C   0  0  0  0  0  2  0  0  0  0  0  0
  190.2690  176.9980  138.0640 C   0  0  2  0  0  3  0  0  0  0  0  0
  193.6960  177.0450  137.7480 O   0  0  0  0  0  0  0  0  0  0  0  0
  189.0520  176.0770  138.0030 C   0  0  0  0  0  1  0  0  0  0  0  0
  192.9270  177.1400  139.9750 C   0  0  0  0  0  3  0  0  0  0  0  0
  190.4610  177.2280  140.4790 C   0  0  2  0  0  3  0  0  0  0  0  0
  191.5270  176.1200  138.0510 C   0  0  0  0  0  2  0  0  0  0  0  0
  191.9230  177.3010  140.8420 C   0  0  0  0  0  3  0  0  0  0  0  0
  190.2190  177.9400  139.2030 N   0  0  0  0  0  0  0  0  0  0  0  0
  188.9580  178.6840  139.1560 C   0  0  0  0  0  1  0  0  0  0  0  0
  192.7560  176.8080  138.5490 C   0  0  0  0  0  0  0  0  0  0  0  0
  185.8950  178.1470  147.0190 C   0  0  0  0  0  2  0  0  0  0  0  0
  185.9990  179.5700  147.5310 C   0  0  0  0  0  1  0  0  0  0  0  0
  1  3  1  1  0  0  0
  1  4  1  0  0  0  0
  2  4  2  0  0  0  0
  2  5  1  0  0  0  0
  3 18  1  0  0  0  0
  4 10  1  0  0  0  0
  5 17  2  0  0  0  0
  6 20  1  0  0  0  0
  6 19  1  0  0  0  0
  7 14  1  6  0  0  0
  7  2  1  0  0  0  0
  8  9  1  0  0  0  0
  9 11  2  0  0  0  0
 10 13  1  0  0  0  0
 10 12  2  0  0  0  0
 11  5  1  0  0  0  0
 15 14  1  6  0  0  0
 15  1  1  0  0  0  0
 16 20  1  6  0  0  0
 16  7  1  0  0  0  0
 16  9  1  0  0  0  0
 17 12  1  0  0  0  0
 17 31  1  0  0  0  0
 18 13  1  0  0  0  0
 19  8  1  0  0  0  0
 21 23  1  1  0  0  0
 21 28  1  0  0  0  0
 22 30  2  0  0  0  0
 24 27  2  0  0  0  0
 25 27  1  1  0  0  0
 25 15  1  0  0  0  0
 26 21  1  0  0  0  0
 26 30  1  0  0  0  0
 28 25  1  0  0  0  0
 29 28  1  0  0  0  0
 30 24  1  0  0  0  0
 31 32  1  0  0  0  0
M  END
>  <MODEL>
3

>  <REMARK>
 VINA RESULT:     -10.0      2.352      5.781
  Name = 
  2 active torsions:
  status: ('A' for Active; 'I' for Inactive)
    1  A    between atoms: C_13  and  C_29
    2  A    between atoms: C_16  and  C_27
                            x       y       z     vdW  Elec       q    Type
                         _______ _______ _______ _____ _____    ______ ____

>  <TORSDO>
F 2

$$$$
=
 OpenBabel10272402113D

 32 37  0  0  1  0  0  0  0  0999 V2000
  183.9590  178.9060  141.8610 C   0  0  1  0  0  3  0  0  0  0  0  0
  186.3170  178.2510  142.3990 C   0  0  0  0  0  0  0  0  0  0  0  0
  182.5870  178.4840  142.3720 C   0  0  0  0  0  2  0  0  0  0  0  0
  185.0280  178.5490  142.8590 C   0  0  0  0  0  0  0  0  0  0  0  0
  187.3580  178.0140  143.3060 C   0  0  0  0  0  0  0  0  0  0  0  0
  189.3830  177.0260  138.8490 C   0  0  0  0  0  2  0  0  0  0  0  0
  186.5350  178.0080  140.9220 C   0  0  1  0  0  3  0  0  0  0  0  0
  190.3420  177.2910  141.1290 C   0  0  0  0  0  2  0  0  0  0  0  0
  188.9810  177.7720  141.5490 C   0  0  0  0  0  0  0  0  0  0  0  0
  184.7640  178.5810  144.2420 C   0  0  0  0  0  0  0  0  0  0  0  0
  188.6630  177.6780  142.8080 N   0  0  0  0  0  0  0  0  0  0  0  0
  185.8040  178.3320  145.1450 C   0  0  0  0  0  3  0  0  0  0  0  0
  183.3570  178.7020  144.7660 C   0  0  0  0  0  2  0  0  0  0  0  0
  185.6370  178.7730  140.1440 O   0  0  0  0  0  0  0  0  0  0  0  0
  184.3310  178.3500  140.4670 C   0  0  2  0  0  3  0  0  0  0  0  0
  187.9820  178.3490  140.5490 C   0  0  1  0  0  3  0  0  0  0  0  0
  187.1020  178.0650  144.6870 C   0  0  0  0  0  0  0  0  0  0  0  0
  182.3500  179.1770  143.7100 C   0  0  0  0  0  2  0  0  0  0  0  0
  190.6020  177.4630  139.6380 C   0  0  0  0  0  2  0  0  0  0  0  0
  188.2650  178.0380  139.0690 C   0  0  0  0  0  2  0  0  0  0  0  0
  182.1640  177.6920  137.5110 C   0  0  2  0  0  3  0  0  0  0  0  0
  180.0670  180.4070  137.2420 O   0  0  0  0  0  0  0  0  0  0  0  0
  183.3330  176.9810  136.8300 C   0  0  0  0  0  1  0  0  0  0  0  0
  181.7670  180.6510  138.8580 C   0  0  0  0  0  3  0  0  0  0  0  0
  183.3700  178.7670  139.3300 C   0  0  2  0  0  3  0  0  0  0  0  0
  181.9780  179.0540  136.8320 C   0  0  0  0  0  2  0  0  0  0  0  0
  182.7430  180.1130  139.5960 C   0  0  0  0  0  3  0  0  0  0  0  0
  182.3230  177.7800  138.9790 N   0  0  0  0  0  0  0  0  0  0  0  0
  182.5530  176.4380  139.5190 C   0  0  0  0  0  1  0  0  0  0  0  0
  181.2010  180.0390  137.6430 C   0  0  0  0  0  0  0  0  0  0  0  0
  188.1880  177.8270  145.6830 C   0  0  0  0  0  2  0  0  0  0  0  0
  187.5970  177.6630  147.0700 C   0  0  0  0  0  1  0  0  0  0  0  0
  1  3  1  1  0  0  0
  1  4  1  0  0  0  0
  2  4  2  0  0  0  0
  2  5  1  0  0  0  0
  3 18  1  0  0  0  0
  4 10  1  0  0  0  0
  5 17  2  0  0  0  0
  6 20  1  0  0  0  0
  6 19  1  0  0  0  0
  7 14  1  6  0  0  0
  7  2  1  0  0  0  0
  8  9  1  0  0  0  0
  9 11  2  0  0  0  0
 10 13  1  0  0  0  0
 10 12  2  0  0  0  0
 11  5  1  0  0  0  0
 15 14  1  6  0  0  0
 15  1  1  0  0  0  0
 16 20  1  6  0  0  0
 16  7  1  0  0  0  0
 16  9  1  0  0  0  0
 17 12  1  0  0  0  0
 17 31  1  0  0  0  0
 18 13  1  0  0  0  0
 19  8  1  0  0  0  0
 21 23  1  6  0  0  0
 21 28  1  0  0  0  0
 22 30  2  0  0  0  0
 24 27  2  0  0  0  0
 25 27  1  1  0  0  0
 25 15  1  0  0  0  0
 26 21  1  0  0  0  0
 26 30  1  0  0  0  0
 28 25  1  0  0  0  0
 28 29  1  0  0  0  0
 30 24  1  0  0  0  0
 31 32  1  0  0  0  0
M  END
>  <MODEL>
4

>  <REMARK>
 VINA RESULT:     -10.0      2.757      7.430
  Name = 
  2 active torsions:
  status: ('A' for Active; 'I' for Inactive)
    1  A    between atoms: C_13  and  C_29
    2  A    between atoms: C_16  and  C_27
                            x       y       z     vdW  Elec       q    Type
                         _______ _______ _______ _____ _____    ______ ____

>  <TORSDO>
F 2

$$$$
=
 OpenBabel10272402113D

 32 37  0  0  1  0  0  0  0  0999 V2000
  186.1700  178.0970  144.5310 C   0  0  1  0  0  3  0  0  0  0  0  0
  188.4950  177.6070  143.7370 C   0  0  0  0  0  0  0  0  0  0  0  0
  185.2690  177.5330  145.6220 C   0  0  0  0  0  2  0  0  0  0  0  0
  187.6120  177.7670  144.8120 C   0  0  0  0  0  0  0  0  0  0  0  0
  189.8630  177.3990  143.9660 C   0  0  0  0  0  0  0  0  0  0  0  0
  189.3630  176.8630  139.0260 C   0  0  0  0  0  2  0  0  0  0  0  0
  187.9380  177.4760  142.3370 C   0  0  1  0  0  3  0  0  0  0  0  0
  191.3410  177.0620  140.5210 C   0  0  0  0  0  2  0  0  0  0  0  0
  190.3680  177.4020  141.6160 C   0  0  0  0  0  0  0  0  0  0  0  0
  188.0910  177.6910  146.1340 C   0  0  0  0  0  0  0  0  0  0  0  0
  190.7420  177.2040  142.8470 N   0  0  0  0  0  0  0  0  0  0  0  0
  189.4540  177.4730  146.3590 C   0  0  0  0  0  3  0  0  0  0  0  0
  187.1450  177.6630  147.3060 C   0  0  0  0  0  2  0  0  0  0  0  0
  186.7400  178.2110  142.1970 O   0  0  0  0  0  0  0  0  0  0  0  0
  185.7990  177.6630  143.0950 C   0  0  2  0  0  3  0  0  0  0  0  0
  188.9770  177.9570  141.3190 C   0  0  1  0  0  3  0  0  0  0  0  0
  190.3460  177.3430  145.2850 C   0  0  0  0  0  0  0  0  0  0  0  0
  185.7220  178.1190  146.9560 C   0  0  0  0  0  2  0  0  0  0  0  0
  190.7960  177.3480  139.1280 C   0  0  0  0  0  2  0  0  0  0  0  0
  188.4760  177.7640  139.8770 C   0  0  0  0  0  2  0  0  0  0  0  0
  182.5980  179.5380  143.4190 C   0  0  2  0  0  3  0  0  0  0  0  0
  181.1400  179.4810  140.3020 O   0  0  0  0  0  0  0  0  0  0  0  0
  182.4490  179.0090  144.8450 C   0  0  0  0  0  1  0  0  0  0  0  0
  183.0580  178.1250  140.5000 C   0  0  0  0  0  3  0  0  0  0  0  0
  184.3770  178.0700  142.6450 C   0  0  2  0  0  3  0  0  0  0  0  0
  181.5970  178.7890  142.5310 C   0  0  0  0  0  2  0  0  0  0  0  0
  184.1400  177.7500  141.1900 C   0  0  0  0  0  3  0  0  0  0  0  0
  183.9910  179.4720  142.9260 N   0  0  0  0  0  0  0  0  0  0  0  0
  184.8700  180.1620  143.8730 C   0  0  0  0  0  1  0  0  0  0  0  0
  181.9120  178.8520  141.0710 C   0  0  0  0  0  0  0  0  0  0  0  0
  191.7960  177.1330  145.5670 C   0  0  0  0  0  2  0  0  0  0  0  0
  191.9690  176.1620  146.7190 C   0  0  0  0  0  1  0  0  0  0  0  0
  1  4  1  0  0  0  0
  1  3  1  1  0  0  0
  2  5  2  0  0  0  0
  2  4  1  0  0  0  0
  3 18  1  0  0  0  0
  4 10  2  0  0  0  0
  5 17  1  0  0  0  0
  6 19  1  0  0  0  0
  6 20  1  0  0  0  0
  7 14  1  1  0  0  0
  7  2  1  0  0  0  0
  8  9  1  0  0  0  0
  9 11  2  0  0  0  0
 10 12  1  0  0  0  0
 10 13  1  0  0  0  0
 11  5  1  0  0  0  0
 15 14  1  6  0  0  0
 15  1  1  0  0  0  0
 16 20  1  6  0  0  0
 16  9  1  0  0  0  0
 16  7  1  0  0  0  0
 17 31  1  0  0  0  0
 17 12  2  0  0  0  0
 18 13  1  0  0  0  0
 19  8  1  0  0  0  0
 21 23  1  1  0  0  0
 22 30  2  0  0  0  0
 24 30  1  0  0  0  0
 24 27  2  0  0  0  0
 25 27  1  6  0  0  0
 25 28  1  0  0  0  0
 25 15  1  0  0  0  0
 26 21  1  0  0  0  0
 28 21  1  0  0  0  0
 28 29  1  0  0  0  0
 30 26  1  0  0  0  0
 31 32  1  0  0  0  0
M  END
>  <MODEL>
5

>  <REMARK>
 VINA RESULT:      -9.6      2.037      6.692
  Name = 
  2 active torsions:
  status: ('A' for Active; 'I' for Inactive)
    1  A    between atoms: C_13  and  C_29
    2  A    between atoms: C_16  and  C_27
                            x       y       z     vdW  Elec       q    Type
                         _______ _______ _______ _____ _____    ______ ____

>  <TORSDO>
F 2

$$$$
=
 OpenBabel10272402113D

 32 37  0  0  1  0  0  0  0  0999 V2000
  189.6300  177.6240  142.2080 C   0  0  1  0  0  3  0  0  0  0  0  0
  187.8750  178.0840  140.4790 C   0  0  0  0  0  0  0  0  0  0  0  0
  190.7770  176.6290  142.3330 C   0  0  0  0  0  2  0  0  0  0  0  0
  189.2090  177.7690  140.7700 C   0  0  0  0  0  0  0  0  0  0  0  0
  187.4740  178.3250  139.1590 C   0  0  0  0  0  0  0  0  0  0  0  0
  183.2100  178.3980  141.7570 C   0  0  0  0  0  2  0  0  0  0  0  0
  186.8380  177.9820  141.5750 C   0  0  1  0  0  3  0  0  0  0  0  0
  183.7870  179.0350  139.4230 C   0  0  0  0  0  2  0  0  0  0  0  0
  185.2250  178.8530  139.8230 C   0  0  0  0  0  0  0  0  0  0  0  0
  190.1510  177.6640  139.7280 C   0  0  0  0  0  0  0  0  0  0  0  0
  186.0930  178.6120  138.8840 N   0  0  0  0  0  0  0  0  0  0  0  0
  189.7440  177.8940  138.4090 C   0  0  0  0  0  3  0  0  0  0  0  0
  191.5390  177.1380  139.9810 C   0  0  0  0  0  2  0  0  0  0  0  0
  187.4020  178.2750  142.8370 O   0  0  0  0  0  0  0  0  0  0  0  0
  188.4000  177.3100  143.0900 C   0  0  2  0  0  3  0  0  0  0  0  0
  185.6760  178.9370  141.2790 C   0  0  1  0  0  3  0  0  0  0  0  0
  188.4160  178.2390  138.1190 C   0  0  0  0  0  0  0  0  0  0  0  0
  191.9290  177.1270  141.4650 C   0  0  0  0  0  2  0  0  0  0  0  0
  182.8700  179.3230  140.6050 C   0  0  0  0  0  2  0  0  0  0  0  0
  184.5620  178.8030  142.3320 C   0  0  0  0  0  2  0  0  0  0  0  0
  190.5630  177.7100  146.0940 C   0  0  2  0  0  3  0  0  0  0  0  0
  188.4260  177.9610  148.7810 O   0  0  0  0  0  0  0  0  0  0  0  0
  191.6070  176.8010  145.4470 C   0  0  0  0  0  1  0  0  0  0  0  0
  187.3670  177.4090  146.7470 C   0  0  0  0  0  3  0  0  0  0  0  0
  188.6880  177.2680  144.6080 C   0  0  2  0  0  3  0  0  0  0  0  0
  189.8670  176.9140  147.2050 C   0  0  0  0  0  2  0  0  0  0  0  0
  187.4150  177.2880  145.4170 C   0  0  0  0  0  3  0  0  0  0  0  0
  189.6260  178.2980  145.1120 N   0  0  0  0  0  0  0  0  0  0  0  0
  190.3920  178.9820  144.0670 C   0  0  0  0  0  1  0  0  0  0  0  0
  188.5480  177.4790  147.6250 C   0  0  0  0  0  0  0  0  0  0  0  0
  188.0270  178.4980  136.7010 C   0  0  0  0  0  2  0  0  0  0  0  0
  188.8780  177.6620  135.7650 C   0  0  0  0  0  1  0  0  0  0  0  0
  1  3  1  6  0  0  0
  1 15  1  0  0  0  0
  2  4  1  0  0  0  0
  4  1  1  0  0  0  0
  5  2  2  0  0  0  0
  6 20  1  0  0  0  0
  7  2  1  6  0  0  0
  7 14  1  0  0  0  0
  8  9  1  0  0  0  0
  8 19  1  0  0  0  0
  9 16  1  0  0  0  0
 10 13  1  0  0  0  0
 10  4  2  0  0  0  0
 11  5  1  0  0  0  0
 11  9  2  0  0  0  0
 12 10  1  0  0  0  0
 13 18  1  0  0  0  0
 15 14  1  1  0  0  0
 15 25  1  0  0  0  0
 16  7  1  0  0  0  0
 16 20  1  1  0  0  0
 17 12  2  0  0  0  0
 17  5  1  0  0  0  0
 18  3  1  0  0  0  0
 19  6  1  0  0  0  0
 21 23  1  6  0  0  0
 21 26  1  0  0  0  0
 24 30  1  0  0  0  0
 25 28  1  0  0  0  0
 25 27  1  1  0  0  0
 26 30  1  0  0  0  0
 27 24  2  0  0  0  0
 28 21  1  0  0  0  0
 29 28  1  0  0  0  0
 30 22  2  0  0  0  0
 31 17  1  0  0  0  0
 32 31  1  0  0  0  0
M  END
>  <MODEL>
6

>  <REMARK>
 VINA RESULT:      -9.5      1.400      4.715
  Name = 
  2 active torsions:
  status: ('A' for Active; 'I' for Inactive)
    1  A    between atoms: C_13  and  C_29
    2  A    between atoms: C_16  and  C_27
                            x       y       z     vdW  Elec       q    Type
                         _______ _______ _______ _____ _____    ______ ____

>  <TORSDO>
F 2

$$$$
=
 OpenBabel10272402113D

 32 37  0  0  1  0  0  0  0  0999 V2000
  188.8930  177.4730  140.8920 C   0  0  1  0  0  3  0  0  0  0  0  0
  188.0120  177.8760  143.2030 C   0  0  0  0  0  0  0  0  0  0  0  0
  190.1410  177.9030  140.1310 C   0  0  0  0  0  2  0  0  0  0  0  0
  189.1090  177.5990  142.3760 C   0  0  0  0  0  0  0  0  0  0  0  0
  188.1600  177.9000  144.5960 C   0  0  0  0  0  0  0  0  0  0  0  0
  183.4630  179.4230  143.8480 C   0  0  0  0  0  2  0  0  0  0  0  0
  186.7110  178.3280  142.5760 C   0  0  1  0  0  3  0  0  0  0  0  0
  184.7250  178.7460  145.8810 C   0  0  0  0  0  2  0  0  0  0  0  0
  185.8160  178.2990  144.9480 C   0  0  0  0  0  0  0  0  0  0  0  0
  190.3770  177.3730  142.9430 C   0  0  0  0  0  0  0  0  0  0  0  0
  187.0270  178.2200  145.4190 N   0  0  0  0  0  0  0  0  0  0  0  0
  190.5240  177.4090  144.3350 C   0  0  0  0  0  3  0  0  0  0  0  0
  191.6100  177.2680  142.0830 C   0  0  0  0  0  2  0  0  0  0  0  0
  186.5390  177.7550  141.2960 O   0  0  0  0  0  0  0  0  0  0  0  0
  187.5970  178.2100  140.4810 C   0  0  2  0  0  3  0  0  0  0  0  0
  185.5380  177.9510  143.4870 C   0  0  1  0  0  3  0  0  0  0  0  0
  189.4210  177.6550  145.1650 C   0  0  0  0  0  0  0  0  0  0  0  0
  191.3010  177.0300  140.5990 C   0  0  0  0  0  2  0  0  0  0  0  0
  183.3530  178.7880  145.2210 C   0  0  0  0  0  2  0  0  0  0  0  0
  184.2040  178.4660  142.9210 C   0  0  0  0  0  2  0  0  0  0  0  0
  185.1560  177.9480  137.6820 C   0  0  2  0  0  3  0  0  0  0  0  0
  186.9280  178.6080  134.8070 O   0  0  0  0  0  0  0  0  0  0  0  0
  184.4290  176.8360  138.4380 C   0  0  0  0  0  1  0  0  0  0  0  0
  188.2590  178.4140  136.7430 C   0  0  0  0  0  3  0  0  0  0  0  0
  187.2010  178.0380  138.9970 C   0  0  2  0  0  3  0  0  0  0  0  0
  185.9310  177.3030  136.5260 C   0  0  0  0  0  2  0  0  0  0  0  0
  188.3550  178.3380  138.0750 C   0  0  0  0  0  3  0  0  0  0  0  0
  185.9980  178.7860  138.5640 N   0  0  0  0  0  0  0  0  0  0  0  0
  185.1780  179.3010  139.6630 C   0  0  0  0  0  1  0  0  0  0  0  0
  187.0280  178.1570  135.9770 C   0  0  0  0  0  0  0  0  0  0  0  0
  189.6150  177.6630  146.6450 C   0  0  0  0  0  2  0  0  0  0  0  0
  190.7590  176.7450  147.0270 C   0  0  0  0  0  1  0  0  0  0  0  0
  1  3  1  6  0  0  0
  1  4  1  0  0  0  0
  2  5  1  0  0  0  0
  3 18  1  0  0  0  0
  4 10  1  0  0  0  0
  4  2  2  0  0  0  0
  5 17  2  0  0  0  0
  5 11  1  0  0  0  0
  6 19  1  0  0  0  0
  7 14  1  6  0  0  0
  7  2  1  0  0  0  0
  7 16  1  0  0  0  0
  9 11  2  0  0  0  0
  9  8  1  0  0  0  0
 10 12  2  0  0  0  0
 12 17  1  0  0  0  0
 13 10  1  0  0  0  0
 15  1  1  0  0  0  0
 15 14  1  1  0  0  0
 16 20  1  6  0  0  0
 16  9  1  0  0  0  0
 17 31  1  0  0  0  0
 18 13  1  0  0  0  0
 19  8  1  0  0  0  0
 20  6  1  0  0  0  0
 21 23  1  1  0  0  0
 21 28  1  0  0  0  0
 22 30  2  0  0  0  0
 24 27  2  0  0  0  0
 25 27  1  6  0  0  0
 25 15  1  0  0  0  0
 26 21  1  0  0  0  0
 28 25  1  0  0  0  0
 28 29  1  0  0  0  0
 30 26  1  0  0  0  0
 30 24  1  0  0  0  0
 31 32  1  0  0  0  0
M  END
>  <MODEL>
7

>  <REMARK>
 VINA RESULT:      -9.4      2.133      7.784
  Name = 
  2 active torsions:
  status: ('A' for Active; 'I' for Inactive)
    1  A    between atoms: C_13  and  C_29
    2  A    between atoms: C_16  and  C_27
                            x       y       z     vdW  Elec       q    Type
                         _______ _______ _______ _____ _____    ______ ____

>  <TORSDO>
F 2

$$$$
=
 OpenBabel10272402113D

 32 37  0  0  1  0  0  0  0  0999 V2000
  187.0970  178.3630  141.2690 C   0  0  1  0  0  3  0  0  0  0  0  0
  186.0760  178.3140  143.5560 C   0  0  0  0  0  0  0  0  0  0  0  0
  186.6870  177.8310  139.9010 C   0  0  0  0  0  2  0  0  0  0  0  0
  185.9000  178.4690  142.1750 C   0  0  0  0  0  0  0  0  0  0  0  0
  185.0020  178.5070  144.4360 C   0  0  0  0  0  0  0  0  0  0  0  0
  188.6900  176.8480  147.3670 C   0  0  0  0  0  2  0  0  0  0  0  0
  187.3840  177.7600  144.0760 C   0  0  1  0  0  3  0  0  0  0  0  0
  186.4590  177.8410  147.8420 C   0  0  0  0  0  2  0  0  0  0  0  0
  186.3810  178.1470  146.3720 C   0  0  0  0  0  0  0  0  0  0  0  0
  184.6300  178.7910  141.6600 C   0  0  0  0  0  0  0  0  0  0  0  0
  185.2020  178.3080  145.8450 N   0  0  0  0  0  0  0  0  0  0  0  0
  183.5570  178.9720  142.5400 C   0  0  0  0  0  3  0  0  0  0  0  0
  184.3610  178.7720  140.1780 C   0  0  0  0  0  2  0  0  0  0  0  0
  188.4600  178.1270  143.2360 O   0  0  0  0  0  0  0  0  0  0  0  0
  188.2190  177.5610  141.9660 C   0  0  2  0  0  3  0  0  0  0  0  0
  187.6310  178.2630  145.5020 C   0  0  1  0  0  3  0  0  0  0  0  0
  183.7380  178.8480  143.9250 C   0  0  0  0  0  0  0  0  0  0  0  0
  185.6360  178.7750  139.3240 C   0  0  0  0  0  2  0  0  0  0  0  0
  187.8890  177.6860  148.3450 C   0  0  0  0  0  2  0  0  0  0  0  0
  188.9140  177.6560  146.0950 C   0  0  0  0  0  2  0  0  0  0  0  0
  191.8720  176.9230  141.6250 C   0  0  2  0  0  3  0  0  0  0  0  0
  192.4620  176.5390  138.2560 O   0  0  0  0  0  0  0  0  0  0  0  0
  192.1310  177.8530  142.8100 C   0  0  0  0  0  1  0  0  0  0  0  0
  190.2740  177.2440  138.7830 C   0  0  0  0  0  3  0  0  0  0  0  0
  189.5500  177.4980  141.1820 C   0  0  2  0  0  3  0  0  0  0  0  0
  192.2950  177.6580  140.3480 C   0  0  0  0  0  2  0  0  0  0  0  0
  189.3160  177.4500  139.6930 C   0  0  0  0  0  3  0  0  0  0  0  0
  190.4820  176.4200  141.5840 N   0  0  0  0  0  0  0  0  0  0  0  0
  190.1610  175.7910  142.8680 C   0  0  0  0  0  1  0  0  0  0  0  0
  191.7060  177.0930  139.0950 C   0  0  0  0  0  0  0  0  0  0  0  0
  182.5730  179.0690  144.8320 C   0  0  0  0  0  2  0  0  0  0  0  0
  181.2780  178.7880  144.0960 C   0  0  0  0  0  1  0  0  0  0  0  0
  1  3  1  6  0  0  0
  1 15  1  0  0  0  0
  1  4  1  0  0  0  0
  2  7  1  0  0  0  0
  2  5  1  0  0  0  0
  4  2  2  0  0  0  0
  5 11  1  0  0  0  0
  6 19  1  0  0  0  0
  7 14  1  6  0  0  0
  7 16  1  0  0  0  0
  8 19  1  0  0  0  0
  9  8  1  0  0  0  0
 10  4  1  0  0  0  0
 10 12  2  0  0  0  0
 11  9  2  0  0  0  0
 12 17  1  0  0  0  0
 13 10  1  0  0  0  0
 15 14  1  1  0  0  0
 16 20  1  1  0  0  0
 16  9  1  0  0  0  0
 17  5  2  0  0  0  0
 17 31  1  0  0  0  0
 18  3  1  0  0  0  0
 18 13  1  0  0  0  0
 20  6  1  0  0  0  0
 21 23  1  1  0  0  0
 22 30  2  0  0  0  0
 24 30  1  0  0  0  0
 24 27  2  0  0  0  0
 25 27  1  6  0  0  0
 25 28  1  0  0  0  0
 25 15  1  0  0  0  0
 26 21  1  0  0  0  0
 28 21  1  0  0  0  0
 28 29  1  0  0  0  0
 30 26  1  0  0  0  0
 32 31  1  0  0  0  0
M  END
>  <MODEL>
8

>  <REMARK>
 VINA RESULT:      -9.4      2.128      5.596
  Name = 
  2 active torsions:
  status: ('A' for Active; 'I' for Inactive)
    1  A    between atoms: C_13  and  C_29
    2  A    between atoms: C_16  and  C_27
                            x       y       z     vdW  Elec       q    Type
                         _______ _______ _______ _____ _____    ______ ____

>  <TORSDO>
F 2

$$$$
=
 OpenBabel10272402113D

 32 37  0  0  1  0  0  0  0  0999 V2000
  186.6150  177.9860  142.9970 C   0  0  1  0  0  3  0  0  0  0  0  0
  187.3890  177.9600  140.6150 C   0  0  0  0  0  0  0  0  0  0  0  0
  185.7620  178.9280  143.8370 C   0  0  0  0  0  2  0  0  0  0  0  0
  186.3570  178.2040  141.5300 C   0  0  0  0  0  0  0  0  0  0  0  0
  187.1530  178.0570  139.2360 C   0  0  0  0  0  0  0  0  0  0  0  0
  192.0760  177.2880  139.5750 C   0  0  0  0  0  2  0  0  0  0  0  0
  188.8000  177.7720  141.1250 C   0  0  1  0  0  3  0  0  0  0  0  0
  190.4820  177.2670  137.6670 C   0  0  0  0  0  2  0  0  0  0  0  0
  189.3880  177.3560  138.6940 C   0  0  0  0  0  0  0  0  0  0  0  0
  185.0810  178.5790  141.0690 C   0  0  0  0  0  0  0  0  0  0  0  0
  188.2370  177.8350  138.3200 N   0  0  0  0  0  0  0  0  0  0  0  0
  184.8520  178.6850  139.6930 C   0  0  0  0  0  3  0  0  0  0  0  0
  184.0100  179.0370  142.0230 C   0  0  0  0  0  2  0  0  0  0  0  0
  188.8010  177.1760  142.4060 O   0  0  0  0  0  0  0  0  0  0  0  0
  188.1320  178.0550  143.2840 C   0  0  2  0  0  3  0  0  0  0  0  0
  189.5980  176.9120  140.1400 C   0  0  1  0  0  3  0  0  0  0  0  0
  185.8750  178.4110  138.7730 C   0  0  0  0  0  0  0  0  0  0  0  0
  184.2980  178.6770  143.4870 C   0  0  0  0  0  2  0  0  0  0  0  0
  191.7750  176.6810  138.2190 C   0  0  0  0  0  2  0  0  0  0  0  0
  191.0630  176.7640  140.5860 C   0  0  0  0  0  2  0  0  0  0  0  0
  190.5750  177.4840  146.0360 C   0  0  2  0  0  3  0  0  0  0  0  0
  188.7990  177.7940  148.9670 O   0  0  0  0  0  0  0  0  0  0  0  0
  191.3090  176.4730  145.1560 C   0  0  0  0  0  1  0  0  0  0  0  0
  187.4690  177.8180  147.0200 C   0  0  0  0  0  3  0  0  0  0  0  0
  188.5300  177.7140  144.7390 C   0  0  2  0  0  3  0  0  0  0  0  0
  189.8040  176.7050  147.1080 C   0  0  0  0  0  2  0  0  0  0  0  0
  187.3730  177.8970  145.6890 C   0  0  0  0  0  3  0  0  0  0  0  0
  189.7280  178.4140  145.2570 N   0  0  0  0  0  0  0  0  0  0  0  0
  190.5450  179.0590  144.2260 C   0  0  0  0  0  1  0  0  0  0  0  0
  188.7020  177.4820  147.7530 C   0  0  0  0  0  0  0  0  0  0  0  0
  185.5840  178.5150  137.3130 C   0  0  0  0  0  2  0  0  0  0  0  0
  184.9600  177.2270  136.8120 C   0  0  0  0  0  1  0  0  0  0  0  0
  1 15  1  0  0  0  0
  1  3  1  1  0  0  0
  2  4  1  0  0  0  0
  4  1  1  0  0  0  0
  5  2  2  0  0  0  0
  6 20  1  0  0  0  0
  7  2  1  6  0  0  0
  7 14  1  0  0  0  0
  8 19  1  0  0  0  0
  8  9  1  0  0  0  0
  9 16  1  0  0  0  0
 10  4  2  0  0  0  0
 10 13  1  0  0  0  0
 11  9  2  0  0  0  0
 11  5  1  0  0  0  0
 12 10  1  0  0  0  0
 13 18  1  0  0  0  0
 15 14  1  6  0  0  0
 15 25  1  0  0  0  0
 16 20  1  1  0  0  0
 16  7  1  0  0  0  0
 17  5  1  0  0  0  0
 17 12  2  0  0  0  0
 18  3  1  0  0  0  0
 19  6  1  0  0  0  0
 21 23  1  6  0  0  0
 21 26  1  0  0  0  0
 24 30  1  0  0  0  0
 25 28  1  0  0  0  0
 25 27  1  1  0  0  0
 26 30  1  0  0  0  0
 27 24  2  0  0  0  0
 28 21  1  0  0  0  0
 29 28  1  0  0  0  0
 30 22  2  0  0  0  0
 31 17  1  0  0  0  0
 32 31  1  0  0  0  0
M  END
>  <MODEL>
9

>  <REMARK>
 VINA RESULT:      -9.3      1.558      2.707
  Name = 
  2 active torsions:
  status: ('A' for Active; 'I' for Inactive)
    1  A    between atoms: C_13  and  C_29
    2  A    between atoms: C_16  and  C_27
                            x       y       z     vdW  Elec       q    Type
                         _______ _______ _______ _____ _____    ______ ____

>  <TORSDO>
F 2

$$$$
