=
 OpenBabel10272400403D

 25 29  0  0  1  0  0  0  0  0999 V2000
  186.7700  177.7400  144.6600 C   0  0  0  0  0  0  0  0  0  0  0  0
  188.1390  177.3730  144.2060 C   0  0  0  0  0  0  0  0  0  0  0  0
  187.6050  177.7150  147.0200 C   0  0  0  0  0  3  0  0  0  0  0  0
  185.8180  178.2470  143.8610 C   0  0  0  0  0  0  0  0  0  0  0  0
  183.8440  179.2470  143.4040 C   0  0  0  0  0  3  0  0  0  0  0  0
  188.8530  177.6020  146.5530 C   0  0  0  0  0  3  0  0  0  0  0  0
  184.2750  178.7210  145.8110 C   0  0  0  0  0  3  0  0  0  0  0  0
  184.5580  178.7120  144.3760 C   0  0  2  0  0  3  0  0  0  0  0  0
  190.5450  176.9210  144.7160 C   0  0  2  0  0  3  0  0  0  0  0  0
  191.6010  177.7000  145.4830 C   0  0  0  0  0  1  0  0  0  0  0  0
  188.4180  177.1100  142.7470 C   0  0  0  0  0  2  0  0  0  0  0  0
  184.6450  179.1240  142.1730 C   0  0  0  0  0  3  0  0  0  0  0  0
  186.4270  177.4820  146.1240 C   0  0  0  0  0  0  0  0  0  0  0  0
  185.1770  178.1750  146.6370 C   0  0  0  0  0  3  0  0  0  0  0  0
  190.7800  177.0990  143.2840 N   0  0  0  0  0  2  0  0  0  0  0  0
  185.8190  178.5480  142.4370 C   0  0  0  0  0  3  0  0  0  0  0  0
  189.7410  176.3840  142.5540 C   0  0  2  0  0  3  0  0  0  0  0  0
  189.1390  177.3370  145.1200 C   0  0  0  0  0  0  0  0  0  0  0  0
  190.0810  176.3370  141.0740 C   0  0  0  0  0  2  0  0  0  0  0  0
  189.4700  177.4610  140.3770 N   0  0  0  0  0  2  0  0  0  0  0  0
  189.7190  177.7430  138.9970 C   0  0  0  0  0  0  0  0  0  0  0  0
  190.4400  176.9700  138.3090 O   0  0  0  0  0  0  0  0  0  0  0  0
  189.0850  178.9340  138.3580 C   0  0  2  0  0  3  0  0  0  0  0  0
  187.7550  178.5680  137.8440 N   0  0  0  0  0  2  0  0  0  0  0  0
  188.8960  178.7000  136.9290 C   0  0  0  0  0  2  0  0  0  0  0  0
  1 13  1  0  0  0  0
  2  1  2  0  0  0  0
  2 18  1  0  0  0  0
  4  8  1  0  0  0  0
  4  1  1  0  0  0  0
  6  3  1  0  0  0  0
  7 14  2  0  0  0  0
  8  5  1  1  0  0  0
  8  7  1  0  0  0  0
  9 18  1  0  0  0  0
  9 10  1  1  0  0  0
 11  2  1  0  0  0  0
 12 16  1  0  0  0  0
 12  5  2  0  0  0  0
 13 14  1  0  0  0  0
 13  3  2  0  0  0  0
 15  9  1  0  0  0  0
 16  4  2  0  0  0  0
 17 19  1  6  0  0  0
 17 11  1  0  0  0  0
 17 15  1  0  0  0  0
 18  6  2  0  0  0  0
 20 19  1  0  0  0  0
 21 20  1  0  0  0  0
 22 21  2  0  0  0  0
 23 21  1  1  0  0  0
 24 23  1  0  0  0  0
 25 24  1  0  0  0  0
 25 23  1  0  0  0  0
M  END
>  <MODEL>
1

>  <REMARK>
 VINA RESULT:     -10.2      0.000      0.000
  Name = 
  3 active torsions:
  status: ('A' for Active; 'I' for Inactive)
    1  A    between atoms: C_2  and  C_21
    2  A    between atoms: C_6  and  N_15
    3  A    between atoms: C_6  and  C_23
                            x       y       z     vdW  Elec       q    Type
                         _______ _______ _______ _____ _____    ______ ____

>  <TORSDO>
F 3

$$$$
=
 OpenBabel10272400403D

 25 29  0  0  1  0  0  0  0  0999 V2000
  186.8080  177.8520  144.5580 C   0  0  0  0  0  0  0  0  0  0  0  0
  188.0790  177.6620  143.8090 C   0  0  0  0  0  0  0  0  0  0  0  0
  188.1290  177.9030  146.6830 C   0  0  0  0  0  3  0  0  0  0  0  0
  185.6530  178.2480  144.0000 C   0  0  0  0  0  0  0  0  0  0  0  0
  183.5230  179.0030  144.0110 C   0  0  0  0  0  3  0  0  0  0  0  0
  189.2510  177.9490  145.9580 C   0  0  0  0  0  3  0  0  0  0  0  0
  184.5220  178.5050  146.2500 C   0  0  0  0  0  3  0  0  0  0  0  0
  184.4880  178.5480  144.7880 C   0  0  0  0  0  0  0  0  0  0  0  0
  190.5750  177.5030  143.7780 C   0  0  2  0  0  3  0  0  0  0  0  0
  191.6730  178.3960  144.3320 C   0  0  0  0  0  1  0  0  0  0  0  0
  188.0660  177.4520  142.3150 C   0  0  0  0  0  2  0  0  0  0  0  0
  184.0480  178.9930  142.6340 C   0  0  0  0  0  3  0  0  0  0  0  0
  186.8210  177.5370  146.0500 C   0  0  1  0  0  3  0  0  0  0  0  0
  185.6390  178.0650  146.8440 C   0  0  0  0  0  3  0  0  0  0  0  0
  190.4730  177.7250  142.3360 N   0  0  0  0  0  2  0  0  0  0  0  0
  185.3110  178.5630  142.6210 C   0  0  0  0  0  3  0  0  0  0  0  0
  189.3920  176.8960  141.8180 C   0  0  2  0  0  3  0  0  0  0  0  0
  189.2510  177.7380  144.4870 C   0  0  0  0  0  0  0  0  0  0  0  0
  189.4080  176.9090  140.2990 C   0  0  0  0  0  2  0  0  0  0  0  0
  190.6040  176.2450  139.7980 N   0  0  0  0  0  2  0  0  0  0  0  0
  191.0700  176.4040  138.4550 C   0  0  0  0  0  0  0  0  0  0  0  0
  190.4850  177.1940  137.6660 O   0  0  0  0  0  0  0  0  0  0  0  0
  192.2850  175.6620  138.0020 C   0  0  2  0  0  3  0  0  0  0  0  0
  193.4710  176.5230  138.1470 N   0  0  0  0  0  2  0  0  0  0  0  0
  192.8620  176.3100  136.8270 C   0  0  0  0  0  2  0  0  0  0  0  0
  1 13  1  0  0  0  0
  2 18  2  0  0  0  0
  2  1  1  0  0  0  0
  4  1  2  0  0  0  0
  4  8  1  0  0  0  0
  5  8  2  0  0  0  0
  6  3  2  0  0  0  0
  7 14  2  0  0  0  0
  8  7  1  0  0  0  0
  9 10  1  1  0  0  0
  9 18  1  0  0  0  0
 11  2  1  0  0  0  0
 12  5  1  0  0  0  0
 13  3  1  1  0  0  0
 13 14  1  0  0  0  0
 15  9  1  0  0  0  0
 16 12  2  0  0  0  0
 16  4  1  0  0  0  0
 17 19  1  6  0  0  0
 17 11  1  0  0  0  0
 17 15  1  0  0  0  0
 18  6  1  0  0  0  0
 20 19  1  0  0  0  0
 21 20  1  0  0  0  0
 22 21  2  0  0  0  0
 23 24  1  0  0  0  0
 23 21  1  1  0  0  0
 25 23  1  0  0  0  0
 25 24  1  0  0  0  0
M  END
>  <MODEL>
2

>  <REMARK>
 VINA RESULT:     -10.1      1.665      1.984
  Name = 
  3 active torsions:
  status: ('A' for Active; 'I' for Inactive)
    1  A    between atoms: C_2  and  C_21
    2  A    between atoms: C_6  and  N_15
    3  A    between atoms: C_6  and  C_23
                            x       y       z     vdW  Elec       q    Type
                         _______ _______ _______ _____ _____    ______ ____

>  <TORSDO>
F 3

$$$$
=
 OpenBabel10272400403D

 25 29  0  0  1  0  0  0  0  0999 V2000
  186.0150  178.0640  144.5270 C   0  0  0  0  0  0  0  0  0  0  0  0
  187.3690  177.6720  145.0020 C   0  0  0  0  0  0  0  0  0  0  0  0
  185.3590  178.4790  146.9060 C   0  0  0  0  0  3  0  0  0  0  0  0
  185.7240  178.3910  143.2580 C   0  0  0  0  0  0  0  0  0  0  0  0
  184.4360  179.2280  141.6010 C   0  0  0  0  0  3  0  0  0  0  0  0
  186.6380  178.3290  147.2620 C   0  0  0  0  0  3  0  0  0  0  0  0
  183.3850  179.1430  143.8690 C   0  0  0  0  0  3  0  0  0  0  0  0
  184.4320  178.8950  142.8770 C   0  0  2  0  0  3  0  0  0  0  0  0
  189.0200  177.3990  146.8610 C   0  0  2  0  0  3  0  0  0  0  0  0
  189.5060  178.3350  147.9550 C   0  0  0  0  0  1  0  0  0  0  0  0
  188.4080  177.1690  144.0300 C   0  0  0  0  0  2  0  0  0  0  0  0
  185.7830  178.9200  141.0870 C   0  0  0  0  0  3  0  0  0  0  0  0
  184.8840  178.0530  145.5500 C   0  0  0  0  0  0  0  0  0  0  0  0
  183.6170  178.7810  145.1370 C   0  0  0  0  0  3  0  0  0  0  0  0
  190.0390  177.3330  145.8130 N   0  0  0  0  0  2  0  0  0  0  0  0
  186.5540  178.4400  142.0640 C   0  0  0  0  0  3  0  0  0  0  0  0
  189.5500  176.4670  144.7490 C   0  0  2  0  0  3  0  0  0  0  0  0
  187.6680  177.8290  146.3150 C   0  0  0  0  0  0  0  0  0  0  0  0
  190.6660  176.1760  143.7600 C   0  0  0  0  0  2  0  0  0  0  0  0
  190.1440  176.1470  142.4000 N   0  0  0  0  0  2  0  0  0  0  0  0
  190.6970  176.9380  141.3440 C   0  0  0  0  0  0  0  0  0  0  0  0
  191.7170  177.6500  141.5470 O   0  0  0  0  0  0  0  0  0  0  0  0
  190.0870  176.8840  139.9820 C   0  0  2  0  0  3  0  0  0  0  0  0
  190.7270  175.8160  139.1970 N   0  0  0  0  0  2  0  0  0  0  0  0
  191.0830  177.2220  138.9690 C   0  0  0  0  0  2  0  0  0  0  0  0
  1  2  2  0  0  0  0
  1 13  1  0  0  0  0
  2 18  1  0  0  0  0
  3  6  1  0  0  0  0
  4  1  1  0  0  0  0
  7 14  2  0  0  0  0
  8  5  1  1  0  0  0
  8  4  1  0  0  0  0
  8  7  1  0  0  0  0
  9 10  1  1  0  0  0
 11 17  1  0  0  0  0
 11  2  1  0  0  0  0
 12  5  2  0  0  0  0
 12 16  1  0  0  0  0
 13  3  2  0  0  0  0
 14 13  1  0  0  0  0
 15  9  1  0  0  0  0
 16  4  2  0  0  0  0
 17 19  1  6  0  0  0
 17 15  1  0  0  0  0
 18  9  1  0  0  0  0
 18  6  2  0  0  0  0
 20 19  1  0  0  0  0
 21 22  2  0  0  0  0
 21 20  1  0  0  0  0
 23 21  1  1  0  0  0
 24 23  1  0  0  0  0
 25 24  1  0  0  0  0
 25 23  1  0  0  0  0
M  END
>  <MODEL>
3

>  <REMARK>
 VINA RESULT:     -10.1      1.784      2.384
  Name = 
  3 active torsions:
  status: ('A' for Active; 'I' for Inactive)
    1  A    between atoms: C_2  and  C_21
    2  A    between atoms: C_6  and  N_15
    3  A    between atoms: C_6  and  C_23
                            x       y       z     vdW  Elec       q    Type
                         _______ _______ _______ _____ _____    ______ ____

>  <TORSDO>
F 3

$$$$
=
 OpenBabel10272400403D

 25 29  0  0  1  0  0  0  0  0999 V2000
  185.4060  178.4290  143.9130 C   0  0  0  0  0  0  0  0  0  0  0  0
  184.5670  178.5340  142.6890 C   0  0  0  0  0  0  0  0  0  0  0  0
  183.3780  178.9510  145.2830 C   0  0  0  0  0  3  0  0  0  0  0  0
  186.6100  177.8370  143.9550 C   0  0  0  0  0  0  0  0  0  0  0  0
  188.4260  176.9560  144.9710 C   0  0  0  0  0  3  0  0  0  0  0  0
  182.6290  178.8220  144.1840 C   0  0  0  0  0  3  0  0  0  0  0  0
  186.7340  178.0150  146.4780 C   0  0  0  0  0  3  0  0  0  0  0  0
  187.3210  177.6410  145.1910 C   0  0  0  0  0  0  0  0  0  0  0  0
  182.3330  178.8570  141.6120 C   0  0  2  0  0  3  0  0  0  0  0  0
  180.9820  178.1910  141.8180 C   0  0  0  0  0  1  0  0  0  0  0  0
  185.1860  178.4000  141.3190 C   0  0  0  0  0  2  0  0  0  0  0  0
  188.4810  176.6920  143.5220 C   0  0  0  0  0  3  0  0  0  0  0  0
  184.8690  179.0720  145.1860 C   0  0  1  0  0  3  0  0  0  0  0  0
  185.5570  178.6550  146.4740 C   0  0  0  0  0  3  0  0  0  0  0  0
  182.9460  178.3090  140.4030 N   0  0  0  0  0  2  0  0  0  0  0  0
  187.4030  177.1960  142.9170 C   0  0  0  0  0  3  0  0  0  0  0  0
  184.2570  178.9210  140.2330 C   0  0  2  0  0  3  0  0  0  0  0  0
  183.2280  178.6960  142.8300 C   0  0  0  0  0  0  0  0  0  0  0  0
  184.8250  178.5670  138.8700 C   0  0  0  0  0  2  0  0  0  0  0  0
  186.2710  178.7490  138.8590 N   0  0  0  0  0  2  0  0  0  0  0  0
  187.1440  177.9490  138.0560 C   0  0  0  0  0  0  0  0  0  0  0  0
  186.6730  177.0880  137.2650 O   0  0  0  0  0  0  0  0  0  0  0  0
  188.6190  178.1690  138.1240 C   0  0  2  0  0  3  0  0  0  0  0  0
  188.9650  179.4160  137.4220 N   0  0  0  0  0  2  0  0  0  0  0  0
  189.2000  178.1140  136.7850 C   0  0  0  0  0  2  0  0  0  0  0  0
  1  4  2  0  0  0  0
  1 13  1  0  0  0  0
  2 18  2  0  0  0  0
  2  1  1  0  0  0  0
  4  8  1  0  0  0  0
  5  8  2  0  0  0  0
  6  3  2  0  0  0  0
  8  7  1  0  0  0  0
  9 10  1  1  0  0  0
  9 18  1  0  0  0  0
 11  2  1  0  0  0  0
 12  5  1  0  0  0  0
 13  3  1  1  0  0  0
 13 14  1  0  0  0  0
 14  7  2  0  0  0  0
 15  9  1  0  0  0  0
 16 12  2  0  0  0  0
 16  4  1  0  0  0  0
 17 19  1  6  0  0  0
 17 15  1  0  0  0  0
 17 11  1  0  0  0  0
 18  6  1  0  0  0  0
 20 19  1  0  0  0  0
 21 20  1  0  0  0  0
 22 21  2  0  0  0  0
 23 21  1  6  0  0  0
 24 23  1  0  0  0  0
 25 24  1  0  0  0  0
 25 23  1  0  0  0  0
M  END
>  <MODEL>
4

>  <REMARK>
 VINA RESULT:     -10.0      2.159      4.986
  Name = 
  3 active torsions:
  status: ('A' for Active; 'I' for Inactive)
    1  A    between atoms: C_2  and  C_21
    2  A    between atoms: C_6  and  N_15
    3  A    between atoms: C_6  and  C_23
                            x       y       z     vdW  Elec       q    Type
                         _______ _______ _______ _____ _____    ______ ____

>  <TORSDO>
F 3

$$$$
=
 OpenBabel10272400403D

 25 29  0  0  1  0  0  0  0  0999 V2000
  186.3300  178.2560  144.5590 C   0  0  0  0  0  0  0  0  0  0  0  0
  185.2310  178.5010  143.5860 C   0  0  0  0  0  0  0  0  0  0  0  0
  184.7350  178.7870  146.4130 C   0  0  0  0  0  3  0  0  0  0  0  0
  187.4620  177.5950  144.2700 C   0  0  0  0  0  0  0  0  0  0  0  0
  189.3990  176.5380  144.7560 C   0  0  0  0  0  3  0  0  0  0  0  0
  183.7360  178.7840  145.5250 C   0  0  0  0  0  3  0  0  0  0  0  0
  188.2010  177.5740  146.6910 C   0  0  0  0  0  3  0  0  0  0  0  0
  188.4320  177.2660  145.2800 C   0  0  0  0  0  0  0  0  0  0  0  0
  182.8330  179.0310  143.1110 C   0  0  2  0  0  3  0  0  0  0  0  0
  181.5270  178.4290  143.6010 C   0  0  0  0  0  1  0  0  0  0  0  0
  185.4910  178.4360  142.1010 C   0  0  0  0  0  2  0  0  0  0  0  0
  189.0840  176.3820  143.3250 C   0  0  0  0  0  3  0  0  0  0  0  0
  186.1630  178.8310  145.9610 C   0  0  1  0  0  3  0  0  0  0  0  0
  187.1080  178.2780  147.0140 C   0  0  0  0  0  3  0  0  0  0  0  0
  183.0960  178.5420  141.7580 N   0  0  0  0  0  2  0  0  0  0  0  0
  187.9330  176.9900  143.0330 C   0  0  0  0  0  3  0  0  0  0  0  0
  184.3690  179.0900  141.3090 C   0  0  2  0  0  3  0  0  0  0  0  0
  183.9810  178.7270  144.0600 C   0  0  0  0  0  0  0  0  0  0  0  0
  184.5650  178.8080  139.8290 C   0  0  0  0  0  2  0  0  0  0  0  0
  185.9840  178.7880  139.5000 N   0  0  0  0  0  2  0  0  0  0  0  0
  186.5100  178.0480  138.3940 C   0  0  0  0  0  0  0  0  0  0  0  0
  185.7360  177.4310  137.6140 O   0  0  0  0  0  0  0  0  0  0  0  0
  187.9810  178.0460  138.1390 C   0  0  2  0  0  3  0  0  0  0  0  0
  188.6040  176.9180  138.8530 N   0  0  0  0  0  2  0  0  0  0  0  0
  188.7100  178.2840  139.3820 C   0  0  0  0  0  2  0  0  0  0  0  0
  1 13  1  0  0  0  0
  2 18  2  0  0  0  0
  2  1  1  0  0  0  0
  4  1  2  0  0  0  0
  4  8  1  0  0  0  0
  5  8  2  0  0  0  0
  6  3  2  0  0  0  0
  7 14  2  0  0  0  0
  8  7  1  0  0  0  0
  9 10  1  1  0  0  0
  9 18  1  0  0  0  0
 11  2  1  0  0  0  0
 12  5  1  0  0  0  0
 13  3  1  1  0  0  0
 13 14  1  0  0  0  0
 15  9  1  0  0  0  0
 16 12  2  0  0  0  0
 16  4  1  0  0  0  0
 17 19  1  6  0  0  0
 17 15  1  0  0  0  0
 17 11  1  0  0  0  0
 18  6  1  0  0  0  0
 20 19  1  0  0  0  0
 21 20  1  0  0  0  0
 22 21  2  0  0  0  0
 23 21  1  1  0  0  0
 23 24  1  0  0  0  0
 23 25  1  0  0  0  0
 24 25  1  0  0  0  0
M  END
>  <MODEL>
5

>  <REMARK>
 VINA RESULT:      -9.8      2.024      4.825
  Name = 
  3 active torsions:
  status: ('A' for Active; 'I' for Inactive)
    1  A    between atoms: C_2  and  C_21
    2  A    between atoms: C_6  and  N_15
    3  A    between atoms: C_6  and  C_23
                            x       y       z     vdW  Elec       q    Type
                         _______ _______ _______ _____ _____    ______ ____

>  <TORSDO>
F 3

$$$$
=
 OpenBabel10272400403D

 25 29  0  0  1  0  0  0  0  0999 V2000
  186.8780  177.8710  144.6400 C   0  0  0  0  0  0  0  0  0  0  0  0
  188.0220  177.7780  143.6930 C   0  0  0  0  0  0  0  0  0  0  0  0
  188.4920  177.6000  146.5330 C   0  0  0  0  0  3  0  0  0  0  0  0
  185.6670  178.3550  144.3190 C   0  0  0  0  0  0  0  0  0  0  0  0
  183.5860  179.1220  144.7510 C   0  0  0  0  0  3  0  0  0  0  0  0
  189.4990  177.7390  145.6650 C   0  0  0  0  0  3  0  0  0  0  0  0
  184.8810  178.2950  146.7250 C   0  0  0  0  0  3  0  0  0  0  0  0
  184.6380  178.5500  145.3050 C   0  0  0  0  0  0  0  0  0  0  0  0
  190.4810  177.6000  143.2730 C   0  0  2  0  0  3  0  0  0  0  0  0
  191.6740  178.3930  143.7810 C   0  0  0  0  0  1  0  0  0  0  0  0
  187.7870  177.7880  142.2030 C   0  0  0  0  0  2  0  0  0  0  0  0
  183.9060  179.3070  143.3240 C   0  0  0  0  0  3  0  0  0  0  0  0
  187.0960  177.3430  146.0540 C   0  0  1  0  0  3  0  0  0  0  0  0
  186.0580  177.7620  147.0790 C   0  0  0  0  0  3  0  0  0  0  0  0
  190.1790  178.0300  141.9080 N   0  0  0  0  0  2  0  0  0  0  0  0
  185.1400  178.8700  143.0650 C   0  0  0  0  0  3  0  0  0  0  0  0
  189.0090  177.2960  141.4420 C   0  0  2  0  0  3  0  0  0  0  0  0
  189.2800  177.7430  144.1950 C   0  0  0  0  0  0  0  0  0  0  0  0
  188.8070  177.5290  139.9550 C   0  0  0  0  0  2  0  0  0  0  0  0
  187.3870  177.6270  139.6450 N   0  0  0  0  0  2  0  0  0  0  0  0
  186.8950  178.2780  138.4700 C   0  0  0  0  0  0  0  0  0  0  0  0
  187.6970  178.7390  137.6140 O   0  0  0  0  0  0  0  0  0  0  0  0
  185.4230  178.3710  138.2370 C   0  0  2  0  0  3  0  0  0  0  0  0
  184.9080  179.6160  138.8290 N   0  0  0  0  0  2  0  0  0  0  0  0
  184.7070  178.3300  139.5090 C   0  0  0  0  0  2  0  0  0  0  0  0
  1 13  1  0  0  0  0
  2 18  2  0  0  0  0
  2  1  1  0  0  0  0
  4  1  2  0  0  0  0
  4  8  1  0  0  0  0
  5  8  2  0  0  0  0
  6  3  2  0  0  0  0
  7 14  2  0  0  0  0
  8  7  1  0  0  0  0
  9 10  1  1  0  0  0
  9 18  1  0  0  0  0
 11  2  1  0  0  0  0
 12  5  1  0  0  0  0
 13  3  1  1  0  0  0
 13 14  1  0  0  0  0
 15  9  1  0  0  0  0
 16 12  2  0  0  0  0
 16  4  1  0  0  0  0
 17 19  1  6  0  0  0
 17 15  1  0  0  0  0
 17 11  1  0  0  0  0
 18  6  1  0  0  0  0
 20 19  1  0  0  0  0
 21 20  1  0  0  0  0
 22 21  2  0  0  0  0
 23 21  1  1  0  0  0
 23 24  1  0  0  0  0
 23 25  1  0  0  0  0
 24 25  1  0  0  0  0
M  END
>  <MODEL>
6

>  <REMARK>
 VINA RESULT:      -9.7      1.711      2.026
  Name = 
  3 active torsions:
  status: ('A' for Active; 'I' for Inactive)
    1  A    between atoms: C_2  and  C_21
    2  A    between atoms: C_6  and  N_15
    3  A    between atoms: C_6  and  C_23
                            x       y       z     vdW  Elec       q    Type
                         _______ _______ _______ _____ _____    ______ ____

>  <TORSDO>
F 3

$$$$
=
 OpenBabel10272400403D

 25 29  0  0  1  0  0  0  0  0999 V2000
  185.9560  178.4590  144.3430 C   0  0  0  0  0  0  0  0  0  0  0  0
  185.2830  178.5460  143.0190 C   0  0  0  0  0  0  0  0  0  0  0  0
  183.7520  178.9230  145.4340 C   0  0  0  0  0  3  0  0  0  0  0  0
  187.1590  177.8980  144.5440 C   0  0  0  0  0  0  0  0  0  0  0  0
  188.8480  177.0620  145.7910 C   0  0  0  0  0  3  0  0  0  0  0  0
  183.1580  178.7780  144.2450 C   0  0  0  0  0  3  0  0  0  0  0  0
  186.9440  178.0710  147.0610 C   0  0  0  0  0  3  0  0  0  0  0  0
  187.7050  177.7170  145.8620 C   0  0  0  0  0  0  0  0  0  0  0  0
  183.2020  178.8130  141.6570 C   0  0  2  0  0  3  0  0  0  0  0  0
  181.8550  178.1110  141.6830 C   0  0  0  0  0  1  0  0  0  0  0  0
  186.0810  178.4320  141.7430 C   0  0  0  0  0  2  0  0  0  0  0  0
  189.1000  176.8040  144.3610 C   0  0  0  0  0  3  0  0  0  0  0  0
  185.2380  179.0840  145.5340 C   0  0  1  0  0  3  0  0  0  0  0  0
  185.7620  178.6800  146.9010 C   0  0  0  0  0  3  0  0  0  0  0  0
  183.9840  178.2860  140.5390 N   0  0  0  0  0  2  0  0  0  0  0  0
  188.0990  177.2810  143.6200 C   0  0  0  0  0  3  0  0  0  0  0  0
  185.2890  178.9330  140.5440 C   0  0  2  0  0  3  0  0  0  0  0  0
  183.9330  178.6720  142.9820 C   0  0  0  0  0  0  0  0  0  0  0  0
  186.0410  178.5980  139.2670 C   0  0  0  0  0  2  0  0  0  0  0  0
  187.4550  178.3910  139.5500 N   0  0  0  0  0  2  0  0  0  0  0  0
  188.3300  177.7000  138.6530 C   0  0  0  0  0  0  0  0  0  0  0  0
  187.9080  177.2980  137.5350 O   0  0  0  0  0  0  0  0  0  0  0  0
  189.7610  177.4940  139.0270 C   0  0  2  0  0  3  0  0  0  0  0  0
  189.8600  176.4110  140.0200 N   0  0  0  0  0  2  0  0  0  0  0  0
  189.9660  177.8160  140.4370 C   0  0  0  0  0  2  0  0  0  0  0  0
  1  4  2  0  0  0  0
  1 13  1  0  0  0  0
  2  1  1  0  0  0  0
  4  8  1  0  0  0  0
  5  8  2  0  0  0  0
  6  3  2  0  0  0  0
  8  7  1  0  0  0  0
  9 10  1  1  0  0  0
  9 18  1  0  0  0  0
 11  2  1  0  0  0  0
 12  5  1  0  0  0  0
 13  3  1  1  0  0  0
 13 14  1  0  0  0  0
 14  7  2  0  0  0  0
 15 17  1  0  0  0  0
 15  9  1  0  0  0  0
 16 12  2  0  0  0  0
 16  4  1  0  0  0  0
 17 19  1  6  0  0  0
 17 11  1  0  0  0  0
 18  2  2  0  0  0  0
 18  6  1  0  0  0  0
 19 20  1  0  0  0  0
 21 20  1  0  0  0  0
 22 21  2  0  0  0  0
 23 21  1  1  0  0  0
 23 24  1  0  0  0  0
 23 25  1  0  0  0  0
 24 25  1  0  0  0  0
M  END
>  <MODEL>
7

>  <REMARK>
 VINA RESULT:      -9.6      1.683      4.680
  Name = 
  3 active torsions:
  status: ('A' for Active; 'I' for Inactive)
    1  A    between atoms: C_2  and  C_21
    2  A    between atoms: C_6  and  N_15
    3  A    between atoms: C_6  and  C_23
                            x       y       z     vdW  Elec       q    Type
                         _______ _______ _______ _____ _____    ______ ____

>  <TORSDO>
F 3

$$$$
=
 OpenBabel10272400403D

 25 29  0  0  1  0  0  0  0  0999 V2000
  187.1490  178.1860  145.4840 C   0  0  0  0  0  0  0  0  0  0  0  0
  186.2550  178.4070  144.3160 C   0  0  0  0  0  0  0  0  0  0  0  0
  185.2040  178.6400  146.9920 C   0  0  0  0  0  3  0  0  0  0  0  0
  188.3390  177.5670  145.4200 C   0  0  0  0  0  0  0  0  0  0  0  0
  190.1790  176.5690  146.2700 C   0  0  0  0  0  3  0  0  0  0  0  0
  184.4000  178.6150  145.9250 C   0  0  0  0  0  3  0  0  0  0  0  0
  188.5890  177.5400  147.9390 C   0  0  0  0  0  3  0  0  0  0  0  0
  189.1030  177.2580  146.5980 C   0  0  0  0  0  0  0  0  0  0  0  0
  183.9800  178.8620  143.3820 C   0  0  2  0  0  3  0  0  0  0  0  0
  182.6250  178.2110  143.6030 C   0  0  0  0  0  1  0  0  0  0  0  0
  186.8030  178.3690  142.9110 C   0  0  0  0  0  2  0  0  0  0  0  0
  190.1560  176.4200  144.8040 C   0  0  0  0  0  3  0  0  0  0  0  0
  186.6910  178.7370  146.8300 C   0  0  1  0  0  3  0  0  0  0  0  0
  187.4300  178.2030  148.0450 C   0  0  0  0  0  3  0  0  0  0  0  0
  184.5200  178.4000  142.1040 N   0  0  0  0  0  2  0  0  0  0  0  0
  189.0640  176.9940  144.2960 C   0  0  0  0  0  3  0  0  0  0  0  0
  185.8360  178.9960  141.9180 C   0  0  2  0  0  3  0  0  0  0  0  0
  184.9290  178.5850  144.5370 C   0  0  0  0  0  0  0  0  0  0  0  0
  186.3280  178.7400  140.5040 C   0  0  0  0  0  2  0  0  0  0  0  0
  187.7310  178.3470  140.5180 N   0  0  0  0  0  2  0  0  0  0  0  0
  188.5160  178.2420  139.3260 C   0  0  0  0  0  0  0  0  0  0  0  0
  188.0240  178.5580  138.2090 O   0  0  0  0  0  0  0  0  0  0  0  0
  189.9390  177.7990  139.4140 C   0  0  2  0  0  3  0  0  0  0  0  0
  190.0070  176.3330  139.2940 N   0  0  0  0  0  2  0  0  0  0  0  0
  190.1400  176.9790  140.6060 C   0  0  0  0  0  2  0  0  0  0  0  0
  1 13  1  0  0  0  0
  2 18  2  0  0  0  0
  2  1  1  0  0  0  0
  4  1  2  0  0  0  0
  4  8  1  0  0  0  0
  5  8  2  0  0  0  0
  6  3  2  0  0  0  0
  7 14  2  0  0  0  0
  8  7  1  0  0  0  0
  9 10  1  1  0  0  0
  9 18  1  0  0  0  0
 11  2  1  0  0  0  0
 12  5  1  0  0  0  0
 13  3  1  1  0  0  0
 13 14  1  0  0  0  0
 15  9  1  0  0  0  0
 16 12  2  0  0  0  0
 16  4  1  0  0  0  0
 17 19  1  6  0  0  0
 17 15  1  0  0  0  0
 17 11  1  0  0  0  0
 18  6  1  0  0  0  0
 19 20  1  0  0  0  0
 21 20  1  0  0  0  0
 22 21  2  0  0  0  0
 23 21  1  1  0  0  0
 23 25  1  0  0  0  0
 24 23  1  0  0  0  0
 24 25  1  0  0  0  0
M  END
>  <MODEL>
8

>  <REMARK>
 VINA RESULT:      -9.5      1.629      4.516
  Name = 
  3 active torsions:
  status: ('A' for Active; 'I' for Inactive)
    1  A    between atoms: C_2  and  C_21
    2  A    between atoms: C_6  and  N_15
    3  A    between atoms: C_6  and  C_23
                            x       y       z     vdW  Elec       q    Type
                         _______ _______ _______ _____ _____    ______ ____

>  <TORSDO>
F 3

$$$$
=
 OpenBabel10272400403D

 25 29  0  0  1  0  0  0  0  0999 V2000
  186.8730  178.1120  144.8220 C   0  0  0  0  0  0  0  0  0  0  0  0
  185.7410  178.4340  143.9120 C   0  0  0  0  0  0  0  0  0  0  0  0
  185.3540  178.5230  146.7680 C   0  0  0  0  0  3  0  0  0  0  0  0
  187.9870  177.4650  144.4450 C   0  0  0  0  0  0  0  0  0  0  0  0
  189.9300  176.3610  144.7810 C   0  0  0  0  0  3  0  0  0  0  0  0
  184.3230  178.5910  145.9210 C   0  0  0  0  0  3  0  0  0  0  0  0
  188.8150  177.2660  146.8290 C   0  0  0  0  0  3  0  0  0  0  0  0
  188.9900  177.0580  145.3920 C   0  0  0  0  0  0  0  0  0  0  0  0
  183.3330  179.0150  143.5660 C   0  0  2  0  0  3  0  0  0  0  0  0
  182.0400  178.3890  144.0620 C   0  0  0  0  0  1  0  0  0  0  0  0
  185.9460  178.4720  142.4170 C   0  0  0  0  0  2  0  0  0  0  0  0
  189.5600  176.3090  143.3560 C   0  0  0  0  0  3  0  0  0  0  0  0
  186.7640  178.5870  146.2670 C   0  0  1  0  0  3  0  0  0  0  0  0
  187.7420  177.9540  147.2420 C   0  0  0  0  0  3  0  0  0  0  0  0
  183.5410  178.6210  142.1730 N   0  0  0  0  0  2  0  0  0  0  0  0
  188.4050  176.9450  143.1520 C   0  0  0  0  0  3  0  0  0  0  0  0
  184.8020  179.1900  141.7160 C   0  0  2  0  0  3  0  0  0  0  0  0
  184.5120  178.6360  144.4480 C   0  0  0  0  0  0  0  0  0  0  0  0
  184.9400  179.0120  140.2140 C   0  0  0  0  0  2  0  0  0  0  0  0
  184.0570  179.9330  139.5100 N   0  0  0  0  0  2  0  0  0  0  0  0
  182.8250  179.5180  138.9130 C   0  0  0  0  0  0  0  0  0  0  0  0
  182.4260  178.3280  139.0360 O   0  0  0  0  0  0  0  0  0  0  0  0
  181.9880  180.5110  138.1760 C   0  0  2  0  0  3  0  0  0  0  0  0
  181.0400  181.1440  139.1080 N   0  0  0  0  0  2  0  0  0  0  0  0
  180.5880  180.0960  138.1840 C   0  0  0  0  0  2  0  0  0  0  0  0
  1 13  1  0  0  0  0
  2 18  2  0  0  0  0
  2  1  1  0  0  0  0
  4  1  2  0  0  0  0
  4  8  1  0  0  0  0
  5  8  2  0  0  0  0
  6  3  2  0  0  0  0
  7 14  2  0  0  0  0
  8  7  1  0  0  0  0
  9 10  1  1  0  0  0
  9 18  1  0  0  0  0
 11  2  1  0  0  0  0
 12  5  1  0  0  0  0
 13  3  1  1  0  0  0
 13 14  1  0  0  0  0
 15  9  1  0  0  0  0
 16 12  2  0  0  0  0
 16  4  1  0  0  0  0
 17 19  1  6  0  0  0
 17 15  1  0  0  0  0
 17 11  1  0  0  0  0
 18  6  1  0  0  0  0
 20 19  1  0  0  0  0
 21 22  2  0  0  0  0
 21 20  1  0  0  0  0
 23 25  1  0  0  0  0
 23 21  1  1  0  0  0
 23 24  1  0  0  0  0
 25 24  1  0  0  0  0
M  END
>  <MODEL>
9

>  <REMARK>
 VINA RESULT:      -9.2      3.225      5.745
  Name = 
  3 active torsions:
  status: ('A' for Active; 'I' for Inactive)
    1  A    between atoms: C_2  and  C_21
    2  A    between atoms: C_6  and  N_15
    3  A    between atoms: C_6  and  C_23
                            x       y       z     vdW  Elec       q    Type
                         _______ _______ _______ _____ _____    ______ ____

>  <TORSDO>
F 3

$$$$
