=
 OpenBabel10272414513D

 37 42  0  0  1  0  0  0  0  0999 V2000
  187.1720  177.3040  136.8210 C   0  0  1  0  0  0  0  0  0  0  0  0
  186.0420  175.1510  135.5970 C   0  0  1  0  0  0  0  0  0  0  0  0
  183.3690  176.1380  137.9030 C   0  0  2  0  0  3  0  0  0  0  0  0
  188.6720  176.8800  136.9990 C   0  0  2  0  0  0  0  0  0  0  0  0
  183.5640  175.8210  134.9780 C   0  0  0  0  0  2  0  0  0  0  0  0
  184.2610  176.9490  138.8410 C   0  0  2  0  0  3  0  0  0  0  0  0
  189.2840  177.7000  138.1180 C   0  0  0  0  0  0  0  0  0  0  0  0
  188.2920  174.4010  136.4540 C   0  0  0  0  0  2  0  0  0  0  0  0
  184.0310  174.8830  137.3220 C   0  0  0  0  0  2  0  0  0  0  0  0
  183.3640  177.8330  139.7340 C   0  0  2  0  0  3  0  0  0  0  0  0
  182.4560  177.9000  134.7020 O   0  0  0  0  0  1  0  0  0  0  0  0
  189.3760  177.1140  135.8120 O   0  0  0  0  0  1  0  0  0  0  0  0
  186.4910  176.6430  135.6030 C   0  0  0  0  0  2  0  0  0  0  0  0
  182.2210  178.3880  137.5240 C   0  0  0  0  0  2  0  0  0  0  0  0
  188.8690  175.4150  137.4170 C   0  0  0  0  0  2  0  0  0  0  0  0
  183.2590  177.1790  135.5880 C   0  0  1  0  0  3  0  0  0  0  0  0
  186.7910  174.3360  136.6530 C   0  0  0  0  0  2  0  0  0  0  0  0
  188.4120  178.2730  139.2020 C   0  0  0  0  0  2  0  0  0  0  0  0
  185.1540  177.7430  138.1070 O   0  0  0  0  0  0  0  0  0  0  0  0
  182.5410  177.0040  136.9250 C   0  0  1  0  0  3  0  0  0  0  0  0
  186.3820  177.0710  138.1330 C   0  0  2  0  0  3  0  0  0  0  0  0
  184.5120  175.0100  135.8670 C   0  0  2  0  0  3  0  0  0  0  0  0
  187.1710  177.4030  139.4230 C   0  0  0  0  0  2  0  0  0  0  0  0
  190.4880  177.8960  138.1560 O   0  0  0  0  0  0  0  0  0  0  0  0
  187.1280  178.7990  136.4800 C   0  0  0  0  0  1  0  0  0  0  0  0
  182.0820  178.3470  139.0460 C   0  0  0  0  0  2  0  0  0  0  0  0
  184.5390  179.9170  139.7550 O   0  0  0  0  0  0  0  0  0  0  0  0
  184.1280  178.9290  140.4250 C   0  0  0  0  0  0  0  0  0  0  0  0
  183.5220  179.1700  142.8400 C   0  0  0  0  0  3  0  0  0  0  0  0
  184.4630  178.8240  141.8580 C   0  0  0  0  0  0  0  0  0  0  0  0
  185.7250  178.3580  142.2550 C   0  0  0  0  0  3  0  0  0  0  0  0
  187.6190  177.6580  144.0940 Cl  0  0  0  0  0  0  0  0  0  0  0  0
  185.0990  178.5900  144.5820 C   0  0  0  0  0  3  0  0  0  0  0  0
  186.0410  178.2420  143.6120 C   0  0  0  0  0  0  0  0  0  0  0  0
  183.8390  179.0550  144.1960 C   0  0  0  0  0  3  0  0  0  0  0  0
  186.0050  173.1660  134.3460 C   0  0  0  0  0  1  0  0  0  0  0  0
  186.3580  174.5280  134.3550 O   0  0  0  0  0  0  0  0  0  0  0  0
  1 25  1  6  0  0  0
  1  4  1  0  0  0  0
  1 21  1  0  0  0  0
  2 37  1  6  0  0  0
  2 13  1  0  0  0  0
  2 22  1  0  0  0  0
  2 17  1  0  0  0  0
  3  9  1  6  0  0  0
  3  6  1  0  0  0  0
  4 12  1  6  0  0  0
  4 15  1  0  0  0  0
  4  7  1  0  0  0  0
  5 16  1  0  0  0  0
  6 19  1  6  0  0  0
  6 10  1  0  0  0  0
  7 24  2  0  0  0  0
  7 18  1  0  0  0  0
  8 17  1  0  0  0  0
  8 15  1  0  0  0  0
 10 28  1  6  0  0  0
 13  1  1  0  0  0  0
 14 26  1  0  0  0  0
 16 11  1  6  0  0  0
 16 20  1  0  0  0  0
 18 23  1  0  0  0  0
 19 21  1  0  0  0  0
 20 14  1  1  0  0  0
 20  3  1  0  0  0  0
 21 23  1  1  0  0  0
 22  5  1  1  0  0  0
 22  9  1  0  0  0  0
 26 10  1  0  0  0  0
 27 28  2  0  0  0  0
 28 30  1  0  0  0  0
 29 35  1  0  0  0  0
 30 31  1  0  0  0  0
 30 29  2  0  0  0  0
 31 34  2  0  0  0  0
 34 32  1  0  0  0  0
 34 33  1  0  0  0  0
 35 33  2  0  0  0  0
 36 37  1  0  0  0  0
M  END
>  <MODEL>
1

>  <REMARK>
 VINA RESULT:      -6.5      0.000      0.000
  Name = 
  3 active torsions:
  status: ('A' for Active; 'I' for Inactive)
    1  A    between atoms: C_3  and  O_32
    2  A    between atoms: C_6  and  C_31
    3  A    between atoms: C_14  and  C_31
                            x       y       z     vdW  Elec       q    Type
                         _______ _______ _______ _____ _____    ______ ____

>  <TORSDO>
F 3

$$$$
=
 OpenBabel10272414513D

 37 42  0  0  1  0  0  0  0  0999 V2000
  186.5210  177.5890  136.8950 C   0  0  1  0  0  0  0  0  0  0  0  0
  184.8870  175.7220  135.7750 C   0  0  1  0  0  0  0  0  0  0  0  0
  183.0140  176.5710  138.8080 C   0  0  2  0  0  3  0  0  0  0  0  0
  187.9600  177.0320  136.6170 C   0  0  2  0  0  0  0  0  0  0  0  0
  182.4220  176.6560  135.9200 C   0  0  0  0  0  2  0  0  0  0  0  0
  184.1980  177.1720  139.5630 C   0  0  2  0  0  3  0  0  0  0  0  0
  188.9230  177.6380  137.6200 C   0  0  0  0  0  0  0  0  0  0  0  0
  187.1860  174.6910  135.9070 C   0  0  0  0  0  2  0  0  0  0  0  0
  183.3650  175.3650  137.9300 C   0  0  0  0  0  2  0  0  0  0  0  0
  183.6600  177.9870  140.7580 C   0  0  2  0  0  3  0  0  0  0  0  0
  181.5150  178.8310  136.1940 O   0  0  0  0  0  1  0  0  0  0  0  0
  188.3610  177.3780  135.3200 O   0  0  0  0  0  1  0  0  0  0  0  0
  185.4840  177.1590  135.8340 C   0  0  0  0  0  2  0  0  0  0  0  0
  182.0600  178.9330  139.0130 C   0  0  0  0  0  2  0  0  0  0  0  0
  188.0960  175.5130  136.7940 C   0  0  0  0  0  2  0  0  0  0  0  0
  182.4330  177.9340  136.7430 C   0  0  1  0  0  3  0  0  0  0  0  0
  185.7870  174.7110  136.4910 C   0  0  0  0  0  2  0  0  0  0  0  0
  188.4230  178.1160  138.9560 C   0  0  0  0  0  2  0  0  0  0  0  0
  184.9570  177.9930  138.7140 O   0  0  0  0  0  0  0  0  0  0  0  0
  182.0650  177.6270  138.1940 C   0  0  1  0  0  3  0  0  0  0  0  0
  186.0690  177.2330  138.3340 C   0  0  2  0  0  3  0  0  0  0  0  0
  183.4700  175.6590  136.4240 C   0  0  2  0  0  3  0  0  0  0  0  0
  187.1920  177.3200  139.3960 C   0  0  0  0  0  2  0  0  0  0  0  0
  190.1110  177.7360  137.3570 O   0  0  0  0  0  0  0  0  0  0  0  0
  186.5550  179.1160  136.7550 C   0  0  0  0  0  1  0  0  0  0  0  0
  182.3100  178.6880  140.5020 C   0  0  0  0  0  2  0  0  0  0  0  0
  185.1910  179.8200  140.6220 O   0  0  0  0  0  0  0  0  0  0  0  0
  184.6900  178.9140  141.3430 C   0  0  0  0  0  0  0  0  0  0  0  0
  184.4440  179.2420  143.8120 C   0  0  0  0  0  3  0  0  0  0  0  0
  185.1700  178.7270  142.7260 C   0  0  0  0  0  0  0  0  0  0  0  0
  186.3530  178.0150  142.9720 C   0  0  0  0  0  3  0  0  0  0  0  0
  188.2820  176.9310  144.5730 Cl  0  0  0  0  0  0  0  0  0  0  0  0
  186.0770  178.3400  145.3550 C   0  0  0  0  0  3  0  0  0  0  0  0
  186.8050  177.8230  144.2810 C   0  0  0  0  0  0  0  0  0  0  0  0
  184.8960  179.0500  145.1200 C   0  0  0  0  0  3  0  0  0  0  0  0
  184.1950  173.9940  134.3460 C   0  0  0  0  0  1  0  0  0  0  0  0
  184.8070  175.2580  134.4300 O   0  0  0  0  0  0  0  0  0  0  0  0
  1 25  1  6  0  0  0
  1 21  1  0  0  0  0
  2 37  1  6  0  0  0
  2 13  1  0  0  0  0
  2 22  1  0  0  0  0
  2 17  1  0  0  0  0
  3  9  1  6  0  0  0
  3  6  1  0  0  0  0
  4 12  1  6  0  0  0
  4 15  1  0  0  0  0
  4  1  1  0  0  0  0
  4  7  1  0  0  0  0
  5 16  1  0  0  0  0
  6 19  1  6  0  0  0
  6 10  1  0  0  0  0
  7 18  1  0  0  0  0
  8 17  1  0  0  0  0
  8 15  1  0  0  0  0
 10 28  1  6  0  0  0
 13  1  1  0  0  0  0
 14 26  1  0  0  0  0
 16 11  1  6  0  0  0
 16 20  1  0  0  0  0
 18 23  1  0  0  0  0
 20  3  1  0  0  0  0
 20 14  1  1  0  0  0
 21 19  1  0  0  0  0
 21 23  1  1  0  0  0
 22  5  1  1  0  0  0
 22  9  1  0  0  0  0
 24  7  2  0  0  0  0
 26 10  1  0  0  0  0
 27 28  2  0  0  0  0
 28 30  1  0  0  0  0
 29 35  1  0  0  0  0
 30 31  1  0  0  0  0
 30 29  2  0  0  0  0
 31 34  2  0  0  0  0
 34 32  1  0  0  0  0
 34 33  1  0  0  0  0
 35 33  2  0  0  0  0
 36 37  1  0  0  0  0
M  END
>  <MODEL>
2

>  <REMARK>
 VINA RESULT:      -6.3      1.025      1.200
  Name = 
  3 active torsions:
  status: ('A' for Active; 'I' for Inactive)
    1  A    between atoms: C_3  and  O_32
    2  A    between atoms: C_6  and  C_31
    3  A    between atoms: C_14  and  C_31
                            x       y       z     vdW  Elec       q    Type
                         _______ _______ _______ _____ _____    ______ ____

>  <TORSDO>
F 3

$$$$
=
 OpenBabel10272414513D

 37 42  0  0  1  0  0  0  0  0999 V2000
  186.2730  176.3710  135.8450 C   0  0  1  0  0  0  0  0  0  0  0  0
  185.7280  173.7390  135.4150 C   0  0  1  0  0  0  0  0  0  0  0  0
  183.0620  174.6390  137.7640 C   0  0  2  0  0  3  0  0  0  0  0  0
  187.8390  176.4190  135.8960 C   0  0  2  0  0  0  0  0  0  0  0  0
  183.1230  173.5370  135.0290 C   0  0  0  0  0  2  0  0  0  0  0  0
  183.7470  175.8910  138.3090 C   0  0  2  0  0  3  0  0  0  0  0  0
  188.2680  177.6600  136.6540 C   0  0  0  0  0  0  0  0  0  0  0  0
  188.1560  173.8790  136.0830 C   0  0  0  0  0  2  0  0  0  0  0  0
  184.0140  173.4830  137.4370 C   0  0  0  0  0  2  0  0  0  0  0  0
  182.7010  176.7370  139.0650 C   0  0  2  0  0  3  0  0  0  0  0  0
  181.4430  175.0850  134.3920 O   0  0  0  0  0  1  0  0  0  0  0  0
  188.3560  176.4660  134.5950 O   0  0  0  0  0  1  0  0  0  0  0  0
  185.7240  175.2290  134.9610 C   0  0  0  0  0  2  0  0  0  0  0  0
  181.2860  176.3040  136.9890 C   0  0  0  0  0  2  0  0  0  0  0  0
  188.4830  175.2440  136.6470 C   0  0  0  0  0  2  0  0  0  0  0  0
  182.4840  174.8880  135.3020 C   0  0  1  0  0  3  0  0  0  0  0  0
  186.7570  173.4920  136.5200 C   0  0  0  0  0  2  0  0  0  0  0  0
  187.3500  178.2820  137.6700 C   0  0  0  0  0  2  0  0  0  0  0  0
  184.3150  176.6360  137.2640 O   0  0  0  0  0  0  0  0  0  0  0  0
  181.9480  174.9370  136.7320 C   0  0  1  0  0  3  0  0  0  0  0  0
  185.6830  176.3400  137.2770 C   0  0  2  0  0  3  0  0  0  0  0  0
  184.3290  173.2950  135.9440 C   0  0  2  0  0  3  0  0  0  0  0  0
  186.4350  177.2270  138.2980 C   0  0  0  0  0  2  0  0  0  0  0  0
  189.3640  178.1610  136.4530 O   0  0  0  0  0  0  0  0  0  0  0  0
  185.7720  177.6360  135.1350 C   0  0  0  0  0  1  0  0  0  0  0  0
  181.2780  176.6790  138.4720 C   0  0  0  0  0  2  0  0  0  0  0  0
  183.0580  179.0080  138.4040 O   0  0  0  0  0  0  0  0  0  0  0  0
  183.1630  178.1450  139.3200 C   0  0  0  0  0  0  0  0  0  0  0  0
  185.1330  178.9490  140.6360 C   0  0  0  0  0  3  0  0  0  0  0  0
  183.8010  178.5080  140.6000 C   0  0  0  0  0  0  0  0  0  0  0  0
  183.0730  178.4320  141.7970 C   0  0  0  0  0  3  0  0  0  0  0  0
  182.7490  178.6910  144.4960 Cl  0  0  0  0  0  0  0  0  0  0  0  0
  184.9950  179.2250  143.0370 C   0  0  0  0  0  3  0  0  0  0  0  0
  183.6690  178.7890  143.0110 C   0  0  0  0  0  0  0  0  0  0  0  0
  185.7280  179.3050  141.8500 C   0  0  0  0  0  3  0  0  0  0  0  0
  186.0470  171.5240  134.7100 C   0  0  0  0  0  1  0  0  0  0  0  0
  186.1190  172.8810  134.3460 O   0  0  0  0  0  0  0  0  0  0  0  0
  1 25  1  6  0  0  0
  1  4  1  0  0  0  0
  1 21  1  0  0  0  0
  2 37  1  6  0  0  0
  2 22  1  0  0  0  0
  2 17  1  0  0  0  0
  3  9  1  6  0  0  0
  3  6  1  0  0  0  0
  4 12  1  6  0  0  0
  4 15  1  0  0  0  0
  4  7  1  0  0  0  0
  5 16  1  0  0  0  0
  6 19  1  6  0  0  0
  6 10  1  0  0  0  0
  7 18  1  0  0  0  0
  8 17  1  0  0  0  0
  8 15  1  0  0  0  0
 10 28  1  6  0  0  0
 13  2  1  0  0  0  0
 13  1  1  0  0  0  0
 14 26  1  0  0  0  0
 16 11  1  6  0  0  0
 16 20  1  0  0  0  0
 18 23  1  0  0  0  0
 19 21  1  0  0  0  0
 20 14  1  1  0  0  0
 20  3  1  0  0  0  0
 21 23  1  1  0  0  0
 22  5  1  6  0  0  0
 22  9  1  0  0  0  0
 24  7  2  0  0  0  0
 26 10  1  0  0  0  0
 27 28  2  0  0  0  0
 28 30  1  0  0  0  0
 29 35  1  0  0  0  0
 30 29  2  0  0  0  0
 30 31  1  0  0  0  0
 31 34  2  0  0  0  0
 34 33  1  0  0  0  0
 34 32  1  0  0  0  0
 35 33  2  0  0  0  0
 37 36  1  0  0  0  0
M  END
>  <MODEL>
3

>  <REMARK>
 VINA RESULT:      -6.2      1.630      2.050
  Name = 
  3 active torsions:
  status: ('A' for Active; 'I' for Inactive)
    1  A    between atoms: C_3  and  O_32
    2  A    between atoms: C_6  and  C_31
    3  A    between atoms: C_14  and  C_31
                            x       y       z     vdW  Elec       q    Type
                         _______ _______ _______ _____ _____    ______ ____

>  <TORSDO>
F 3

$$$$
=
 OpenBabel10272414513D

 37 42  0  0  1  0  0  0  0  0999 V2000
  185.7490  176.0680  135.9010 C   0  0  1  0  0  0  0  0  0  0  0  0
  183.7690  174.2290  135.5670 C   0  0  1  0  0  0  0  0  0  0  0  0
  182.3980  176.2580  138.2930 C   0  0  2  0  0  3  0  0  0  0  0  0
  187.0620  175.2320  135.7110 C   0  0  2  0  0  0  0  0  0  0  0  0
  181.4780  175.5410  135.5850 C   0  0  0  0  0  2  0  0  0  0  0  0
  183.7300  176.8670  138.7240 C   0  0  2  0  0  3  0  0  0  0  0  0
  188.2070  175.9560  136.3910 C   0  0  0  0  0  0  0  0  0  0  0  0
  185.9170  172.9390  135.8540 C   0  0  0  0  0  2  0  0  0  0  0  0
  182.4840  174.8000  137.8280 C   0  0  0  0  0  2  0  0  0  0  0  0
  183.4480  178.0840  139.6300 C   0  0  2  0  0  3  0  0  0  0  0  0
  180.8930  177.8090  135.2080 O   0  0  0  0  0  1  0  0  0  0  0  0
  187.3450  175.0930  134.3460 O   0  0  0  0  0  1  0  0  0  0  0  0
  184.5460  175.5020  135.1150 C   0  0  0  0  0  2  0  0  0  0  0  0
  181.7820  178.6870  137.7960 C   0  0  0  0  0  2  0  0  0  0  0  0
  187.0240  173.8390  136.3580 C   0  0  0  0  0  2  0  0  0  0  0  0
  181.7490  176.9920  135.9480 C   0  0  1  0  0  3  0  0  0  0  0  0
  184.6130  173.3600  136.5020 C   0  0  0  0  0  2  0  0  0  0  0  0
  187.9370  176.8960  137.5340 C   0  0  0  0  0  2  0  0  0  0  0  0
  184.4790  177.2550  137.6030 O   0  0  0  0  0  0  0  0  0  0  0  0
  181.5230  177.2090  137.4440 C   0  0  1  0  0  3  0  0  0  0  0  0
  185.4330  176.2490  137.4060 C   0  0  2  0  0  3  0  0  0  0  0  0
  182.4440  174.5950  136.3040 C   0  0  2  0  0  3  0  0  0  0  0  0
  186.6770  176.4790  138.2980 C   0  0  0  0  0  2  0  0  0  0  0  0
  189.3580  175.7790  136.0240 O   0  0  0  0  0  0  0  0  0  0  0  0
  185.9590  177.4520  135.2730 C   0  0  0  0  0  1  0  0  0  0  0  0
  182.1760  178.8770  139.2610 C   0  0  0  0  0  2  0  0  0  0  0  0
  184.8230  179.9460  139.0240 O   0  0  0  0  0  0  0  0  0  0  0  0
  184.6500  178.9710  139.8060 C   0  0  0  0  0  0  0  0  0  0  0  0
  187.0220  178.5760  140.5000 C   0  0  0  0  0  3  0  0  0  0  0  0
  185.6620  178.6700  140.8370 C   0  0  0  0  0  0  0  0  0  0  0  0
  185.2760  178.4900  142.1740 C   0  0  0  0  0  3  0  0  0  0  0  0
  185.7370  178.0000  144.8200 Cl  0  0  0  0  0  0  0  0  0  0  0  0
  187.5830  178.1270  142.8120 C   0  0  0  0  0  3  0  0  0  0  0  0
  186.2330  178.2200  143.1570 C   0  0  0  0  0  0  0  0  0  0  0  0
  187.9780  178.3050  141.4820 C   0  0  0  0  0  3  0  0  0  0  0  0
  182.5860  172.3530  134.8000 C   0  0  0  0  0  1  0  0  0  0  0  0
  183.4690  173.3920  134.4530 O   0  0  0  0  0  0  0  0  0  0  0  0
  1 25  1  6  0  0  0
  1 21  1  0  0  0  0
  2 37  1  6  0  0  0
  2 22  1  0  0  0  0
  2 17  1  0  0  0  0
  3  9  1  6  0  0  0
  3  6  1  0  0  0  0
  4 12  1  6  0  0  0
  4  1  1  0  0  0  0
  4 15  1  0  0  0  0
  4  7  1  0  0  0  0
  5 16  1  0  0  0  0
  6 19  1  6  0  0  0
  6 10  1  0  0  0  0
  7 18  1  0  0  0  0
  8 15  1  0  0  0  0
  8 17  1  0  0  0  0
 10 28  1  6  0  0  0
 13  2  1  0  0  0  0
 13  1  1  0  0  0  0
 14 26  1  0  0  0  0
 16 11  1  6  0  0  0
 16 20  1  0  0  0  0
 18 23  1  0  0  0  0
 20 14  1  1  0  0  0
 20  3  1  0  0  0  0
 21 19  1  0  0  0  0
 21 23  1  1  0  0  0
 22  5  1  6  0  0  0
 22  9  1  0  0  0  0
 24  7  2  0  0  0  0
 26 10  1  0  0  0  0
 27 28  2  0  0  0  0
 28 30  1  0  0  0  0
 29 30  2  0  0  0  0
 29 35  1  0  0  0  0
 30 31  1  0  0  0  0
 31 34  2  0  0  0  0
 33 34  1  0  0  0  0
 34 32  1  0  0  0  0
 35 33  2  0  0  0  0
 37 36  1  0  0  0  0
M  END
>  <MODEL>
4

>  <REMARK>
 VINA RESULT:      -5.7      1.464      2.269
  Name = 
  3 active torsions:
  status: ('A' for Active; 'I' for Inactive)
    1  A    between atoms: C_3  and  O_32
    2  A    between atoms: C_6  and  C_31
    3  A    between atoms: C_14  and  C_31
                            x       y       z     vdW  Elec       q    Type
                         _______ _______ _______ _____ _____    ______ ____

>  <TORSDO>
F 3

$$$$
=
 OpenBabel10272414513D

 37 42  0  0  1  0  0  0  0  0999 V2000
  186.1270  176.3750  137.1110 C   0  0  1  0  0  0  0  0  0  0  0  0
  188.2500  177.1120  135.5740 C   0  0  1  0  0  0  0  0  0  0  0  0
  189.1660  178.5880  138.8010 C   0  0  2  0  0  3  0  0  0  0  0  0
  184.9020  176.5300  136.1440 C   0  0  2  0  0  0  0  0  0  0  0  0
  190.4320  176.6410  136.9840 C   0  0  0  0  0  2  0  0  0  0  0  0
  187.7560  178.5770  139.3870 C   0  0  2  0  0  3  0  0  0  0  0  0
  183.6420  176.6930  136.9710 C   0  0  0  0  0  0  0  0  0  0  0  0
  186.1740  177.8490  134.3460 C   0  0  0  0  0  2  0  0  0  0  0  0
  189.2300  178.8880  137.2990 C   0  0  0  0  0  2  0  0  0  0  0  0
  187.8520  178.7910  140.9120 C   0  0  2  0  0  3  0  0  0  0  0  0
  190.9030  175.2460  138.8440 O   0  0  0  0  0  1  0  0  0  0  0  0
  184.7850  175.3910  135.3370 O   0  0  0  0  0  1  0  0  0  0  0  0
  187.4460  176.0470  136.3780 C   0  0  0  0  0  2  0  0  0  0  0  0
  189.6710  177.0110  140.7470 C   0  0  0  0  0  2  0  0  0  0  0  0
  184.9590  177.7750  135.2460 C   0  0  0  0  0  2  0  0  0  0  0  0
  190.0250  176.2320  138.3900 C   0  0  1  0  0  3  0  0  0  0  0  0
  187.3650  178.2940  135.1700 C   0  0  0  0  0  2  0  0  0  0  0  0
  183.7180  177.2480  138.3670 C   0  0  0  0  0  2  0  0  0  0  0  0
  187.1140  177.3620  139.1030 O   0  0  0  0  0  0  0  0  0  0  0  0
  190.0670  177.4430  139.3210 C   0  0  1  0  0  3  0  0  0  0  0  0
  186.2580  177.6180  138.0250 C   0  0  2  0  0  3  0  0  0  0  0  0
  189.4560  177.6640  136.3960 C   0  0  2  0  0  3  0  0  0  0  0  0
  184.9090  178.1990  138.5120 C   0  0  0  0  0  2  0  0  0  0  0  0
  182.5540  176.3830  136.5110 O   0  0  0  0  0  0  0  0  0  0  0  0
  185.8970  175.1400  137.9910 C   0  0  0  0  0  1  0  0  0  0  0  0
  189.1020  178.1680  141.5690 C   0  0  0  0  0  2  0  0  0  0  0  0
  185.4770  178.5300  141.0310 O   0  0  0  0  0  0  0  0  0  0  0  0
  186.5820  178.4320  141.6330 C   0  0  0  0  0  0  0  0  0  0  0  0
  187.6400  177.2250  143.5530 C   0  0  0  0  0  3  0  0  0  0  0  0
  186.6100  178.0380  143.0550 C   0  0  0  0  0  0  0  0  0  0  0  0
  185.6120  178.4890  143.9320 C   0  0  0  0  0  3  0  0  0  0  0  0
  184.3920  178.7030  146.3650 Cl  0  0  0  0  0  0  0  0  0  0  0  0
  186.6700  177.3210  145.7690 C   0  0  0  0  0  3  0  0  0  0  0  0
  185.6420  178.1320  145.2830 C   0  0  0  0  0  0  0  0  0  0  0  0
  187.6700  176.8670  144.9030 C   0  0  0  0  0  3  0  0  0  0  0  0
  188.7090  175.1640  134.3500 C   0  0  0  0  0  1  0  0  0  0  0  0
  188.7290  176.5700  134.3460 O   0  0  0  0  0  0  0  0  0  0  0  0
  1 25  1  1  0  0  0
  1 21  1  0  0  0  0
  2 37  1  6  0  0  0
  2 13  1  0  0  0  0
  2 22  1  0  0  0  0
  3  9  1  6  0  0  0
  3 20  1  0  0  0  0
  3  6  1  0  0  0  0
  4 12  1  6  0  0  0
  4  7  1  0  0  0  0
  4  1  1  0  0  0  0
  5 16  1  0  0  0  0
  6 19  1  1  0  0  0
  6 10  1  0  0  0  0
  7 18  1  0  0  0  0
  8 17  1  0  0  0  0
  8 15  1  0  0  0  0
 10 26  1  0  0  0  0
 10 28  1  1  0  0  0
 13  1  1  0  0  0  0
 14 26  1  0  0  0  0
 15  4  1  0  0  0  0
 16 11  1  1  0  0  0
 16 20  1  0  0  0  0
 17  2  1  0  0  0  0
 18 23  1  0  0  0  0
 20 14  1  1  0  0  0
 21 23  1  1  0  0  0
 21 19  1  0  0  0  0
 22  5  1  1  0  0  0
 22  9  1  0  0  0  0
 24  7  2  0  0  0  0
 27 28  2  0  0  0  0
 28 30  1  0  0  0  0
 29 35  1  0  0  0  0
 30 29  2  0  0  0  0
 30 31  1  0  0  0  0
 31 34  2  0  0  0  0
 34 33  1  0  0  0  0
 34 32  1  0  0  0  0
 35 33  2  0  0  0  0
 37 36  1  0  0  0  0
M  END
>  <MODEL>
5

>  <REMARK>
 VINA RESULT:      -5.6      1.869      4.990
  Name = 
  3 active torsions:
  status: ('A' for Active; 'I' for Inactive)
    1  A    between atoms: C_3  and  O_32
    2  A    between atoms: C_6  and  C_31
    3  A    between atoms: C_14  and  C_31
                            x       y       z     vdW  Elec       q    Type
                         _______ _______ _______ _____ _____    ______ ____

>  <TORSDO>
F 3

$$$$
=
 OpenBabel10272414513D

 37 42  0  0  1  0  0  0  0  0999 V2000
  183.8720  174.9060  135.9280 C   0  0  1  0  0  0  0  0  0  0  0  0
  181.5140  174.3470  137.1680 C   0  0  1  0  0  0  0  0  0  0  0  0
  182.7600  177.1100  139.2290 C   0  0  2  0  0  3  0  0  0  0  0  0
  184.4280  173.4920  135.5400 C   0  0  2  0  0  0  0  0  0  0  0  0
  180.3170  176.6530  137.6400 C   0  0  0  0  0  2  0  0  0  0  0  0
  184.2200  176.9820  138.8010 C   0  0  2  0  0  3  0  0  0  0  0  0
  185.9300  173.5890  135.3530 C   0  0  0  0  0  0  0  0  0  0  0  0
  182.7810  172.1720  137.0000 C   0  0  0  0  0  2  0  0  0  0  0  0
  182.0140  175.7780  139.3580 C   0  0  0  0  0  2  0  0  0  0  0  0
  184.9700  178.2680  139.2080 C   0  0  2  0  0  3  0  0  0  0  0  0
  180.5400  178.8260  136.7150 O   0  0  0  0  0  1  0  0  0  0  0  0
  183.8380  173.0600  134.3460 O   0  0  0  0  0  1  0  0  0  0  0  0
  182.3300  174.9600  135.9910 C   0  0  0  0  0  2  0  0  0  0  0  0
  182.9540  179.4210  138.1550 C   0  0  0  0  0  2  0  0  0  0  0  0
  184.2240  172.4160  136.6170 C   0  0  0  0  0  2  0  0  0  0  0  0
  181.2710  177.7800  137.2810 C   0  0  1  0  0  3  0  0  0  0  0  0
  182.3240  173.2880  137.9190 C   0  0  0  0  0  2  0  0  0  0  0  0
  186.7120  174.6640  136.0570 C   0  0  0  0  0  2  0  0  0  0  0  0
  184.3110  176.7800  137.4150 O   0  0  0  0  0  0  0  0  0  0  0  0
  182.0050  178.2660  138.5300 C   0  0  1  0  0  3  0  0  0  0  0  0
  184.5310  175.4090  137.2360 C   0  0  2  0  0  3  0  0  0  0  0  0
  181.0710  175.4380  138.1910 C   0  0  2  0  0  3  0  0  0  0  0  0
  186.0340  175.0640  137.3700 C   0  0  0  0  0  2  0  0  0  0  0  0
  186.5180  172.7940  134.6380 O   0  0  0  0  0  0  0  0  0  0  0  0
  184.2120  175.8880  134.7980 C   0  0  0  0  0  1  0  0  0  0  0  0
  184.1230  179.5550  139.1320 C   0  0  0  0  0  2  0  0  0  0  0  0
  186.3390  178.7950  137.3180 O   0  0  0  0  0  0  0  0  0  0  0  0
  186.2990  178.4110  138.5200 C   0  0  0  0  0  0  0  0  0  0  0  0
  187.7530  178.3860  140.5560 C   0  0  0  0  0  3  0  0  0  0  0  0
  187.5480  178.0380  139.2120 C   0  0  0  0  0  0  0  0  0  0  0  0
  188.5400  177.3130  138.5350 C   0  0  0  0  0  3  0  0  0  0  0  0
  190.9470  176.0380  138.3350 Cl  0  0  0  0  0  0  0  0  0  0  0  0
  189.9150  177.2960  140.5280 C   0  0  0  0  0  3  0  0  0  0  0  0
  189.7190  176.9440  139.1910 C   0  0  0  0  0  0  0  0  0  0  0  0
  188.9320  178.0180  141.2110 C   0  0  0  0  0  3  0  0  0  0  0  0
  180.1850  173.8370  135.3030 C   0  0  0  0  0  1  0  0  0  0  0  0
  180.3620  173.6600  136.6870 O   0  0  0  0  0  0  0  0  0  0  0  0
  1 25  1  6  0  0  0
  1 13  1  0  0  0  0
  1 21  1  0  0  0  0
  2 37  1  6  0  0  0
  2 17  1  0  0  0  0
  2 22  1  0  0  0  0
  3  9  1  6  0  0  0
  4 12  1  6  0  0  0
  4  1  1  0  0  0  0
  4 15  1  0  0  0  0
  6 19  1  6  0  0  0
  6 10  1  0  0  0  0
  6  3  1  0  0  0  0
  7  4  1  0  0  0  0
  7 18  1  0  0  0  0
  8 17  1  0  0  0  0
 10 28  1  6  0  0  0
 13  2  1  0  0  0  0
 14 26  1  0  0  0  0
 15  8  1  0  0  0  0
 16 11  1  1  0  0  0
 16  5  1  0  0  0  0
 16 20  1  0  0  0  0
 18 23  1  0  0  0  0
 20 14  1  6  0  0  0
 20  3  1  0  0  0  0
 21 23  1  6  0  0  0
 21 19  1  0  0  0  0
 22  5  1  6  0  0  0
 22  9  1  0  0  0  0
 24  7  2  0  0  0  0
 26 10  1  0  0  0  0
 27 28  2  0  0  0  0
 28 30  1  0  0  0  0
 29 35  1  0  0  0  0
 30 29  2  0  0  0  0
 31 34  2  0  0  0  0
 31 30  1  0  0  0  0
 32 34  1  0  0  0  0
 33 35  2  0  0  0  0
 34 33  1  0  0  0  0
 36 37  1  0  0  0  0
M  END
>  <MODEL>
6

>  <REMARK>
 VINA RESULT:      -5.3      2.543      4.607
  Name = 
  3 active torsions:
  status: ('A' for Active; 'I' for Inactive)
    1  A    between atoms: C_3  and  O_32
    2  A    between atoms: C_6  and  C_31
    3  A    between atoms: C_14  and  C_31
                            x       y       z     vdW  Elec       q    Type
                         _______ _______ _______ _____ _____    ______ ____

>  <TORSDO>
F 3

$$$$
=
 OpenBabel10272414513D

 37 42  0  0  1  0  0  0  0  0999 V2000
  189.0460  177.2350  136.9640 C   0  0  1  0  0  0  0  0  0  0  0  0
  191.3670  176.8110  138.3220 C   0  0  1  0  0  0  0  0  0  0  0  0
  190.7680  173.4900  136.8930 C   0  0  2  0  0  3  0  0  0  0  0  0
  188.2330  178.1820  137.9130 C   0  0  2  0  0  0  0  0  0  0  0  0
  192.9660  175.4480  136.7240 C   0  0  0  0  0  2  0  0  0  0  0  0
  189.2770  173.6960  136.6320 C   0  0  2  0  0  3  0  0  0  0  0  0
  186.7580  178.0640  137.5780 C   0  0  0  0  0  0  0  0  0  0  0  0
  189.7460  177.8390  139.9580 C   0  0  0  0  0  2  0  0  0  0  0  0
  191.2880  174.1540  138.1740 C   0  0  0  0  0  2  0  0  0  0  0  0
  188.7880  172.5970  135.6660 C   0  0  2  0  0  3  0  0  0  0  0  0
  193.0390  175.1290  134.3740 O   0  0  0  0  0  1  0  0  0  0  0  0
  188.6460  179.5080  137.7310 O   0  0  0  0  0  1  0  0  0  0  0  0
  190.5760  177.3890  137.1120 C   0  0  0  0  0  2  0  0  0  0  0  0
  190.8790  173.2340  134.3540 C   0  0  0  0  0  2  0  0  0  0  0  0
  188.3380  177.8260  139.4040 C   0  0  0  0  0  2  0  0  0  0  0  0
  192.1890  175.0520  135.4790 C   0  0  1  0  0  3  0  0  0  0  0  0
  190.4530  176.5700  139.5260 C   0  0  0  0  0  2  0  0  0  0  0  0
  186.2240  176.8100  136.9410 C   0  0  0  0  0  2  0  0  0  0  0  0
  189.0450  174.9670  136.0840 O   0  0  0  0  0  0  0  0  0  0  0  0
  191.6480  173.6300  135.6290 C   0  0  1  0  0  3  0  0  0  0  0  0
  188.5860  175.7660  137.1380 C   0  0  2  0  0  3  0  0  0  0  0  0
  192.0660  175.4640  137.9630 C   0  0  2  0  0  3  0  0  0  0  0  0
  187.0620  175.5930  137.3440 C   0  0  0  0  0  2  0  0  0  0  0  0
  185.9910  178.9800  137.8280 O   0  0  0  0  0  0  0  0  0  0  0  0
  188.7880  177.6630  135.5140 C   0  0  0  0  0  1  0  0  0  0  0  0
  189.8300  172.1530  134.6180 C   0  0  0  0  0  2  0  0  0  0  0  0
  187.3200  173.9480  134.3460 O   0  0  0  0  0  0  0  0  0  0  0  0
  187.4510  172.9110  135.0530 C   0  0  0  0  0  0  0  0  0  0  0  0
  186.2530  170.7180  134.9160 C   0  0  0  0  0  3  0  0  0  0  0  0
  186.2780  172.0590  135.3300 C   0  0  0  0  0  0  0  0  0  0  0  0
  185.1780  172.5790  136.0280 C   0  0  0  0  0  3  0  0  0  0  0  0
  182.7060  172.4330  137.1790 Cl  0  0  0  0  0  0  0  0  0  0  0  0
  184.0540  170.4390  135.8890 C   0  0  0  0  0  3  0  0  0  0  0  0
  184.0710  171.7720  136.3060 C   0  0  0  0  0  0  0  0  0  0  0  0
  185.1460  169.9120  135.1930 C   0  0  0  0  0  3  0  0  0  0  0  0
  193.0530  177.2490  139.8950 C   0  0  0  0  0  1  0  0  0  0  0  0
  192.3470  177.7390  138.7810 O   0  0  0  0  0  0  0  0  0  0  0  0
  1 25  1  6  0  0  0
  1 13  1  0  0  0  0
  1 21  1  0  0  0  0
  1  4  1  0  0  0  0
  2 37  1  1  0  0  0
  2 17  1  0  0  0  0
  3  9  1  1  0  0  0
  4 12  1  6  0  0  0
  4 15  1  0  0  0  0
  6 19  1  6  0  0  0
  6  3  1  0  0  0  0
  7 24  2  0  0  0  0
  7  4  1  0  0  0  0
 10 28  1  6  0  0  0
 10  6  1  0  0  0  0
 13  2  1  0  0  0  0
 14 26  1  0  0  0  0
 15  8  1  0  0  0  0
 16 11  1  6  0  0  0
 16 20  1  0  0  0  0
 16  5  1  0  0  0  0
 17  8  1  0  0  0  0
 18 23  1  0  0  0  0
 18  7  1  0  0  0  0
 19 21  1  0  0  0  0
 20 14  1  6  0  0  0
 20  3  1  0  0  0  0
 21 23  1  6  0  0  0
 22  5  1  6  0  0  0
 22  9  1  0  0  0  0
 22  2  1  0  0  0  0
 26 10  1  0  0  0  0
 27 28  2  0  0  0  0
 28 30  1  0  0  0  0
 29 35  2  0  0  0  0
 29 30  1  0  0  0  0
 30 31  2  0  0  0  0
 31 34  1  0  0  0  0
 33 34  2  0  0  0  0
 34 32  1  0  0  0  0
 35 33  1  0  0  0  0
 37 36  1  0  0  0  0
M  END
>  <MODEL>
7

>  <REMARK>
 VINA RESULT:      -4.9      3.619      7.821
  Name = 
  3 active torsions:
  status: ('A' for Active; 'I' for Inactive)
    1  A    between atoms: C_3  and  O_32
    2  A    between atoms: C_6  and  C_31
    3  A    between atoms: C_14  and  C_31
                            x       y       z     vdW  Elec       q    Type
                         _______ _______ _______ _____ _____    ______ ____

>  <TORSDO>
F 3

$$$$
=
 OpenBabel10272414513D

 37 42  0  0  1  0  0  0  0  0999 V2000
  186.4700  177.5540  136.9270 C   0  0  1  0  0  0  0  0  0  0  0  0
  184.3090  176.0600  136.2150 C   0  0  1  0  0  0  0  0  0  0  0  0
  183.4040  177.0300  139.6310 C   0  0  2  0  0  3  0  0  0  0  0  0
  187.6770  176.7800  136.2910 C   0  0  2  0  0  0  0  0  0  0  0  0
  182.1590  177.3870  136.9820 C   0  0  0  0  0  2  0  0  0  0  0  0
  184.8220  177.3760  140.0790 C   0  0  2  0  0  3  0  0  0  0  0  0
  188.9450  177.1530  137.0340 C   0  0  0  0  0  0  0  0  0  0  0  0
  186.3490  174.6490  135.7570 C   0  0  0  0  0  2  0  0  0  0  0  0
  183.3120  175.8360  138.6740 C   0  0  0  0  0  2  0  0  0  0  0  0
  184.7430  178.1970  141.3840 C   0  0  2  0  0  3  0  0  0  0  0  0
  181.7480  179.6630  137.5070 O   0  0  0  0  0  1  0  0  0  0  0  0
  187.8090  177.1300  134.9410 O   0  0  0  0  0  1  0  0  0  0  0  0
  185.1490  177.3700  136.1490 C   0  0  0  0  0  2  0  0  0  0  0  0
  182.9650  179.5020  140.1050 C   0  0  0  0  0  2  0  0  0  0  0  0
  187.5780  175.2510  136.4040 C   0  0  0  0  0  2  0  0  0  0  0  0
  182.5950  178.5920  137.7970 C   0  0  1  0  0  3  0  0  0  0  0  0
  185.1590  174.8710  136.6690 C   0  0  0  0  0  2  0  0  0  0  0  0
  188.8760  177.6280  138.4600 C   0  0  0  0  0  2  0  0  0  0  0  0
  185.4880  178.1060  139.0830 O   0  0  0  0  0  0  0  0  0  0  0  0
  182.5390  178.2660  139.2890 C   0  0  1  0  0  3  0  0  0  0  0  0
  186.3230  177.1940  138.4260 C   0  0  2  0  0  3  0  0  0  0  0  0
  183.1020  176.1980  137.1940 C   0  0  2  0  0  3  0  0  0  0  0  0
  187.6650  177.0260  139.1790 C   0  0  0  0  0  2  0  0  0  0  0  0
  190.0330  177.0640  136.4880 O   0  0  0  0  0  0  0  0  0  0  0  0
  186.7420  179.0590  136.8070 C   0  0  0  0  0  1  0  0  0  0  0  0
  183.5180  179.1300  141.4810 C   0  0  0  0  0  2  0  0  0  0  0  0
  186.2800  180.0190  141.1830 O   0  0  0  0  0  0  0  0  0  0  0  0
  186.0310  178.9000  141.7110 C   0  0  0  0  0  0  0  0  0  0  0  0
  186.6400  177.4230  143.6370 C   0  0  0  0  0  3  0  0  0  0  0  0
  187.0360  178.2620  142.5830 C   0  0  0  0  0  0  0  0  0  0  0  0
  188.4040  178.4730  142.3560 C   0  0  0  0  0  3  0  0  0  0  0  0
  191.0630  178.1310  142.8740 Cl  0  0  0  0  0  0  0  0  0  0  0  0
  188.9570  177.0280  144.2170 C   0  0  0  0  0  3  0  0  0  0  0  0
  189.3600  177.8590  143.1700 C   0  0  0  0  0  0  0  0  0  0  0  0
  187.5960  176.8100  144.4510 C   0  0  0  0  0  3  0  0  0  0  0  0
  182.5720  175.0620  134.9920 C   0  0  0  0  0  1  0  0  0  0  0  0
  183.8260  175.6970  134.9240 O   0  0  0  0  0  0  0  0  0  0  0  0
  1 25  1  6  0  0  0
  1 21  1  0  0  0  0
  2 37  1  6  0  0  0
  2 17  1  0  0  0  0
  2 22  1  0  0  0  0
  3  9  1  6  0  0  0
  3  6  1  0  0  0  0
  4 12  1  6  0  0  0
  4 15  1  0  0  0  0
  4  1  1  0  0  0  0
  4  7  1  0  0  0  0
  5 16  1  0  0  0  0
  6 19  1  6  0  0  0
  6 10  1  0  0  0  0
  7 18  1  0  0  0  0
  8 15  1  0  0  0  0
  8 17  1  0  0  0  0
 10 26  1  0  0  0  0
 10 28  1  6  0  0  0
 13  2  1  0  0  0  0
 13  1  1  0  0  0  0
 14 26  1  0  0  0  0
 16 11  1  1  0  0  0
 16 20  1  0  0  0  0
 18 23  1  0  0  0  0
 20  3  1  0  0  0  0
 20 14  1  1  0  0  0
 21 19  1  0  0  0  0
 21 23  1  1  0  0  0
 22  5  1  1  0  0  0
 22  9  1  0  0  0  0
 24  7  2  0  0  0  0
 27 28  2  0  0  0  0
 28 30  1  0  0  0  0
 29 35  1  0  0  0  0
 30 29  2  0  0  0  0
 31 30  1  0  0  0  0
 31 34  2  0  0  0  0
 32 34  1  0  0  0  0
 33 35  2  0  0  0  0
 34 33  1  0  0  0  0
 37 36  1  0  0  0  0
M  END
>  <MODEL>
8

>  <REMARK>
 VINA RESULT:      -4.1      1.636      2.466
  Name = 
  3 active torsions:
  status: ('A' for Active; 'I' for Inactive)
    1  A    between atoms: C_3  and  O_32
    2  A    between atoms: C_6  and  C_31
    3  A    between atoms: C_14  and  C_31
                            x       y       z     vdW  Elec       q    Type
                         _______ _______ _______ _____ _____    ______ ____

>  <TORSDO>
F 3

$$$$
=
 OpenBabel10272414513D

 37 42  0  0  1  0  0  0  0  0999 V2000
  189.3960  177.3620  137.7920 C   0  0  1  0  0  0  0  0  0  0  0  0
  188.7440  175.5050  135.9110 C   0  0  1  0  0  0  0  0  0  0  0  0
  185.4490  176.2720  137.3190 C   0  0  2  0  0  3  0  0  0  0  0  0
  190.7430  176.8240  138.3880 C   0  0  2  0  0  0  0  0  0  0  0  0
  186.6280  176.4150  134.6200 C   0  0  0  0  0  2  0  0  0  0  0  0
  185.9690  176.8660  138.6260 C   0  0  2  0  0  3  0  0  0  0  0  0
  190.9400  177.4160  139.7700 C   0  0  0  0  0  0  0  0  0  0  0  0
  190.5660  174.4920  137.3310 C   0  0  0  0  0  2  0  0  0  0  0  0
  186.2650  175.0880  136.7880 C   0  0  0  0  0  2  0  0  0  0  0  0
  184.8250  177.6490  139.3030 C   0  0  2  0  0  3  0  0  0  0  0  0
  185.6870  178.5760  134.3480 O   0  0  0  0  0  1  0  0  0  0  0  0
  191.8120  177.2020  137.5640 O   0  0  0  0  0  1  0  0  0  0  0  0
  189.1690  176.9470  136.3220 C   0  0  0  0  0  2  0  0  0  0  0  0
  184.5050  178.6200  136.9670 C   0  0  0  0  0  2  0  0  0  0  0  0
  190.7820  175.3020  138.5900 C   0  0  0  0  0  2  0  0  0  0  0  0
  186.1380  177.6750  135.3150 C   0  0  1  0  0  3  0  0  0  0  0  0
  189.0860  174.4880  137.0010 C   0  0  0  0  0  2  0  0  0  0  0  0
  189.7520  177.8600  140.5790 C   0  0  0  0  0  2  0  0  0  0  0  0
  187.0620  177.7120  138.3810 O   0  0  0  0  0  0  0  0  0  0  0  0
  185.0060  177.3330  136.2840 C   0  0  1  0  0  3  0  0  0  0  0  0
  188.2050  176.9710  138.7020 C   0  0  2  0  0  3  0  0  0  0  0  0
  187.2140  175.4160  135.6230 C   0  0  2  0  0  3  0  0  0  0  0  0
  188.5080  177.0430  140.2190 C   0  0  0  0  0  2  0  0  0  0  0  0
  192.0600  177.5300  140.2420 O   0  0  0  0  0  0  0  0  0  0  0  0
  189.4750  178.8920  137.7170 C   0  0  0  0  0  1  0  0  0  0  0  0
  183.8550  178.3440  138.3240 C   0  0  0  0  0  2  0  0  0  0  0  0
  186.3560  179.2540  140.2000 O   0  0  0  0  0  0  0  0  0  0  0  0
  185.3100  178.5720  140.3870 C   0  0  0  0  0  0  0  0  0  0  0  0
  183.2160  178.6450  141.7540 C   0  0  0  0  0  3  0  0  0  0  0  0
  184.6180  178.6330  141.6890 C   0  0  0  0  0  0  0  0  0  0  0  0
  185.3580  178.6620  142.8800 C   0  0  0  0  0  3  0  0  0  0  0  0
  185.6420  178.7380  145.5950 Cl  0  0  0  0  0  0  0  0  0  0  0  0
  183.3110  178.7170  144.1720 C   0  0  0  0  0  3  0  0  0  0  0  0
  184.7060  178.7040  144.1170 C   0  0  0  0  0  0  0  0  0  0  0  0
  182.5650  178.6880  142.9900 C   0  0  0  0  0  3  0  0  0  0  0  0
  190.4830  175.9730  134.4060 C   0  0  0  0  0  1  0  0  0  0  0  0
  189.4640  175.0710  134.7600 O   0  0  0  0  0  0  0  0  0  0  0  0
  1 25  1  1  0  0  0
  1  4  1  0  0  0  0
  1 21  1  0  0  0  0
  2 37  1  6  0  0  0
  2 13  1  0  0  0  0
  2 17  1  0  0  0  0
  3  9  1  6  0  0  0
  3  6  1  0  0  0  0
  4 12  1  6  0  0  0
  4 15  1  0  0  0  0
  4  7  1  0  0  0  0
  5 16  1  0  0  0  0
  6 19  1  6  0  0  0
  6 10  1  0  0  0  0
  7 24  2  0  0  0  0
  7 18  1  0  0  0  0
  8 15  1  0  0  0  0
 10 28  1  1  0  0  0
 13  1  1  0  0  0  0
 14 26  1  0  0  0  0
 16 11  1  6  0  0  0
 16 20  1  0  0  0  0
 17  8  1  0  0  0  0
 19 21  1  0  0  0  0
 20 14  1  1  0  0  0
 20  3  1  0  0  0  0
 21 23  1  1  0  0  0
 22  5  1  1  0  0  0
 22  2  1  0  0  0  0
 22  9  1  0  0  0  0
 23 18  1  0  0  0  0
 26 10  1  0  0  0  0
 27 28  2  0  0  0  0
 28 30  1  0  0  0  0
 29 35  1  0  0  0  0
 30 29  2  0  0  0  0
 30 31  1  0  0  0  0
 31 34  2  0  0  0  0
 34 33  1  0  0  0  0
 34 32  1  0  0  0  0
 35 33  2  0  0  0  0
 36 37  1  0  0  0  0
M  END
>  <MODEL>
9

>  <REMARK>
 VINA RESULT:      -3.7      1.748      2.418
  Name = 
  3 active torsions:
  status: ('A' for Active; 'I' for Inactive)
    1  A    between atoms: C_3  and  O_32
    2  A    between atoms: C_6  and  C_31
    3  A    between atoms: C_14  and  C_31
                            x       y       z     vdW  Elec       q    Type
                         _______ _______ _______ _____ _____    ______ ____

>  <TORSDO>
F 3

$$$$
