=
 OpenBabel10272400473D

 25 28  0  0  0  0  0  0  0  0999 V2000
  187.2540  177.8670  145.6870 C   0  0  0  0  0  0  0  0  0  0  0  0
  188.5260  177.4220  145.3330 C   0  0  0  0  0  0  0  0  0  0  0  0
  187.8200  177.8660  147.9850 C   0  0  0  0  0  3  0  0  0  0  0  0
  186.1630  178.1620  144.9040 C   0  0  0  0  0  0  0  0  0  0  0  0
  183.6800  178.8960  143.9270 C   0  0  0  0  0  3  0  0  0  0  0  0
  189.0740  177.4300  147.6750 N   0  0  0  0  0  0  0  0  0  0  0  0
  185.1670  178.5570  145.7730 C   0  0  0  0  0  0  0  0  0  0  0  0
  183.9070  178.9330  145.3150 C   0  0  0  0  0  3  0  0  0  0  0  0
  190.7550  176.7490  146.0380 N   0  0  0  0  0  0  0  0  0  0  0  0
  191.7570  176.5020  147.0610 C   0  0  0  0  0  1  0  0  0  0  0  0
  188.9100  177.1870  143.9710 N   0  0  0  0  0  0  0  0  0  0  0  0
  184.7010  178.4900  143.0390 C   0  0  0  0  0  3  0  0  0  0  0  0
  186.9350  178.0750  146.9800 N   0  0  0  0  0  0  0  0  0  0  0  0
  185.6560  178.5010  147.0710 C   0  0  0  0  0  3  0  0  0  0  0  0
  191.0780  176.5340  144.6870 N   0  0  0  0  0  2  0  0  0  0  0  0
  185.9660  178.1150  143.5250 C   0  0  0  0  0  3  0  0  0  0  0  0
  190.1060  176.7710  143.6580 C   0  0  0  0  0  0  0  0  0  0  0  0
  189.4410  177.2060  146.3760 C   0  0  0  0  0  0  0  0  0  0  0  0
  190.4770  176.5360  142.2590 C   0  0  0  0  0  3  0  0  0  0  0  0
  190.0530  177.3180  141.2710 C   0  0  0  0  0  3  0  0  0  0  0  0
  190.4440  177.0490  139.8560 C   0  0  0  0  0  2  0  0  0  0  0  0
  189.2260  176.9870  138.9430 C   0  0  0  0  0  2  0  0  0  0  0  0
  188.5270  178.3040  138.8860 C   0  0  0  0  0  0  0  0  0  0  0  0
  187.2820  178.4530  139.4810 O   0  0  0  0  0  1  0  0  0  0  0  0
  189.0570  179.2740  138.2860 O   0  0  0  0  0  0  0  0  0  0  0  0
  1 13  1  0  0  0  0
  2  1  1  0  0  0  0
  2 18  2  0  0  0  0
  4  1  2  0  0  0  0
  4  7  1  0  0  0  0
  5  8  2  0  0  0  0
  6  3  2  0  0  0  0
  7 14  2  0  0  0  0
  8  7  1  0  0  0  0
  9 18  1  0  0  0  0
  9 10  1  0  0  0  0
 11  2  1  0  0  0  0
 12 16  2  0  0  0  0
 12  5  1  0  0  0  0
 13 14  1  0  0  0  0
 13  3  1  0  0  0  0
 15  9  1  0  0  0  0
 16  4  1  0  0  0  0
 17 11  2  0  0  0  0
 17 15  1  0  0  0  0
 18  6  1  0  0  0  0
 19 17  1  0  0  0  0
 20 19  2  0  0  0  0
 21 20  1  0  0  0  0
 22 21  1  0  0  0  0
 23 22  1  0  0  0  0
 23 24  1  0  0  0  0
 25 23  2  0  0  0  0
M  END
>  <MODEL>
1

>  <REMARK>
 VINA RESULT:     -10.0      0.000      0.000
  Name = 
  4 active torsions:
  status: ('A' for Active; 'I' for Inactive)
    1  A    between atoms: C_2  and  C_25
    2  A    between atoms: C_6  and  C_23
    3  A    between atoms: C_15  and  C_21
    4  A    between atoms: C_21  and  C_25
                            x       y       z     vdW  Elec       q    Type
                         _______ _______ _______ _____ _____    ______ ____

>  <TORSDO>
F 4

$$$$
=
 OpenBabel10272400473D

 25 28  0  0  0  0  0  0  0  0999 V2000
  187.1780  177.9020  145.6750 C   0  0  0  0  0  0  0  0  0  0  0  0
  188.4620  177.4660  145.3590 C   0  0  0  0  0  0  0  0  0  0  0  0
  187.6820  177.9260  147.9880 C   0  0  0  0  0  3  0  0  0  0  0  0
  186.1050  178.1800  144.8610 C   0  0  0  0  0  0  0  0  0  0  0  0
  183.6420  178.8830  143.8130 C   0  0  0  0  0  3  0  0  0  0  0  0
  188.9470  177.4990  147.7150 N   0  0  0  0  0  0  0  0  0  0  0  0
  185.0830  178.5740  145.7000 C   0  0  0  0  0  0  0  0  0  0  0  0
  183.8320  178.9350  145.2060 C   0  0  0  0  0  3  0  0  0  0  0  0
  190.6780  176.8180  146.1300 N   0  0  0  0  0  0  0  0  0  0  0  0
  191.6540  176.5890  147.1810 C   0  0  0  0  0  1  0  0  0  0  0  0
  188.8840  177.2220  144.0100 N   0  0  0  0  0  0  0  0  0  0  0  0
  184.6900  178.4790  142.9560 C   0  0  0  0  0  3  0  0  0  0  0  0
  186.8220  178.1190  146.9580 N   0  0  0  0  0  0  0  0  0  0  0  0
  185.5380  178.5340  147.0110 C   0  0  0  0  0  3  0  0  0  0  0  0
  191.0380  176.5950  144.7890 N   0  0  0  0  0  2  0  0  0  0  0  0
  185.9450  178.1200  143.4780 C   0  0  0  0  0  3  0  0  0  0  0  0
  190.0910  176.8130  143.7330 C   0  0  0  0  0  0  0  0  0  0  0  0
  189.3510  177.2670  146.4280 C   0  0  0  0  0  0  0  0  0  0  0  0
  190.5010  176.5700  142.3460 C   0  0  0  0  0  3  0  0  0  0  0  0
  191.1200  177.4920  141.6160 C   0  0  0  0  0  3  0  0  0  0  0  0
  191.5200  177.2140  140.2050 C   0  0  0  0  0  2  0  0  0  0  0  0
  190.3910  177.5330  139.2330 C   0  0  0  0  0  2  0  0  0  0  0  0
  189.9010  176.2990  138.5520 C   0  0  0  0  0  0  0  0  0  0  0  0
  188.6070  176.2490  138.0540 O   0  0  0  0  0  0  0  0  0  0  0  0
  190.6540  175.2970  138.4450 O   0  0  0  0  0  1  0  0  0  0  0  0
  1 13  1  0  0  0  0
  2  1  1  0  0  0  0
  2 18  2  0  0  0  0
  4  1  2  0  0  0  0
  4  7  1  0  0  0  0
  5  8  2  0  0  0  0
  6  3  2  0  0  0  0
  7 14  2  0  0  0  0
  8  7  1  0  0  0  0
  9 18  1  0  0  0  0
  9 10  1  0  0  0  0
 11  2  1  0  0  0  0
 12 16  2  0  0  0  0
 12  5  1  0  0  0  0
 13 14  1  0  0  0  0
 13  3  1  0  0  0  0
 15  9  1  0  0  0  0
 16  4  1  0  0  0  0
 17 11  2  0  0  0  0
 17 15  1  0  0  0  0
 18  6  1  0  0  0  0
 19 17  1  0  0  0  0
 20 19  2  0  0  0  0
 21 20  1  0  0  0  0
 22 21  1  0  0  0  0
 23 22  1  0  0  0  0
 24 23  2  0  0  0  0
 25 23  1  0  0  0  0
M  END
>  <MODEL>
2

>  <REMARK>
 VINA RESULT:      -9.5      1.124      1.227
  Name = 
  4 active torsions:
  status: ('A' for Active; 'I' for Inactive)
    1  A    between atoms: C_2  and  C_25
    2  A    between atoms: C_6  and  C_23
    3  A    between atoms: C_15  and  C_21
    4  A    between atoms: C_21  and  C_25
                            x       y       z     vdW  Elec       q    Type
                         _______ _______ _______ _____ _____    ______ ____

>  <TORSDO>
F 4

$$$$
=
 OpenBabel10272400473D

 25 28  0  0  0  0  0  0  0  0999 V2000
  189.2750  177.5620  143.7780 C   0  0  0  0  0  0  0  0  0  0  0  0
  188.6360  177.8700  142.5790 C   0  0  0  0  0  0  0  0  0  0  0  0
  191.3170  177.1380  142.6590 C   0  0  0  0  0  3  0  0  0  0  0  0
  188.7940  177.5450  145.0660 C   0  0  0  0  0  0  0  0  0  0  0  0
  188.4610  177.3220  147.8050 C   0  0  0  0  0  3  0  0  0  0  0  0
  190.7240  177.4330  141.4670 N   0  0  0  0  0  0  0  0  0  0  0  0
  189.8550  177.1680  145.8640 C   0  0  0  0  0  0  0  0  0  0  0  0
  189.7220  177.0460  147.2440 C   0  0  0  0  0  3  0  0  0  0  0  0
  188.7720  178.1090  140.1620 N   0  0  0  0  0  0  0  0  0  0  0  0
  189.5010  178.0540  138.9070 C   0  0  0  0  0  1  0  0  0  0  0  0
  187.2540  178.2490  142.5170 N   0  0  0  0  0  0  0  0  0  0  0  0
  187.3760  177.7080  146.9860 C   0  0  0  0  0  3  0  0  0  0  0  0
  190.5760  177.2090  143.7910 N   0  0  0  0  0  0  0  0  0  0  0  0
  190.9680  176.9590  145.0610 C   0  0  0  0  0  3  0  0  0  0  0  0
  187.4150  178.4740  140.1590 N   0  0  0  0  0  2  0  0  0  0  0  0
  187.5350  177.8240  145.5940 C   0  0  0  0  0  3  0  0  0  0  0  0
  186.6730  178.5350  141.3850 C   0  0  0  0  0  0  0  0  0  0  0  0
  189.4050  177.7960  141.4070 C   0  0  0  0  0  0  0  0  0  0  0  0
  185.2580  178.9200  141.3450 C   0  0  0  0  0  3  0  0  0  0  0  0
  184.3350  178.3140  142.0850 C   0  0  0  0  0  3  0  0  0  0  0  0
  182.9020  178.7260  142.0160 C   0  0  0  0  0  2  0  0  0  0  0  0
  182.3400  179.0210  143.4010 C   0  0  0  0  0  2  0  0  0  0  0  0
  180.8620  179.2180  143.3520 C   0  0  0  0  0  0  0  0  0  0  0  0
  180.0130  178.2050  143.7740 O   0  0  0  0  0  1  0  0  0  0  0  0
  180.3840  180.2970  142.9140 O   0  0  0  0  0  0  0  0  0  0  0  0
  1 13  1  0  0  0  0
  1  4  2  0  0  0  0
  2  1  1  0  0  0  0
  3 13  1  0  0  0  0
  4 16  1  0  0  0  0
  4  7  1  0  0  0  0
  6  3  2  0  0  0  0
  7  8  1  0  0  0  0
  8  5  2  0  0  0  0
  9 18  1  0  0  0  0
 10  9  1  0  0  0  0
 11  2  1  0  0  0  0
 12  5  1  0  0  0  0
 13 14  1  0  0  0  0
 14  7  2  0  0  0  0
 15  9  1  0  0  0  0
 15 17  1  0  0  0  0
 16 12  2  0  0  0  0
 17 11  2  0  0  0  0
 18  6  1  0  0  0  0
 18  2  2  0  0  0  0
 19 17  1  0  0  0  0
 19 20  2  0  0  0  0
 21 20  1  0  0  0  0
 21 22  1  0  0  0  0
 23 22  1  0  0  0  0
 23 24  1  0  0  0  0
 25 23  2  0  0  0  0
M  END
>  <MODEL>
3

>  <REMARK>
 VINA RESULT:      -9.2      3.149      6.181
  Name = 
  4 active torsions:
  status: ('A' for Active; 'I' for Inactive)
    1  A    between atoms: C_2  and  C_25
    2  A    between atoms: C_6  and  C_23
    3  A    between atoms: C_15  and  C_21
    4  A    between atoms: C_21  and  C_25
                            x       y       z     vdW  Elec       q    Type
                         _______ _______ _______ _____ _____    ______ ____

>  <TORSDO>
F 4

$$$$
=
 OpenBabel10272400473D

 25 28  0  0  0  0  0  0  0  0999 V2000
  189.6140  177.4440  143.6530 C   0  0  0  0  0  0  0  0  0  0  0  0
  188.9280  177.7560  142.4810 C   0  0  0  0  0  0  0  0  0  0  0  0
  191.6110  177.0270  142.4530 C   0  0  0  0  0  3  0  0  0  0  0  0
  189.1830  177.4220  144.9590 C   0  0  0  0  0  0  0  0  0  0  0  0
  188.9580  177.1880  147.7070 C   0  0  0  0  0  3  0  0  0  0  0  0
  190.9720  177.3260  141.2870 N   0  0  0  0  0  0  0  0  0  0  0  0
  190.2750  177.0430  145.7130 C   0  0  0  0  0  0  0  0  0  0  0  0
  190.1960  176.9160  147.0970 C   0  0  0  0  0  3  0  0  0  0  0  0
  188.9690  178.0040  140.0610 N   0  0  0  0  0  0  0  0  0  0  0  0
  189.6490  177.9550  138.7780 C   0  0  0  0  0  1  0  0  0  0  0  0
  187.5440  178.1340  142.4740 N   0  0  0  0  0  0  0  0  0  0  0  0
  187.8410  177.5750  146.9330 C   0  0  0  0  0  3  0  0  0  0  0  0
  190.9150  177.0930  143.6140 N   0  0  0  0  0  0  0  0  0  0  0  0
  191.3560  176.8390  144.8660 C   0  0  0  0  0  3  0  0  0  0  0  0
  187.6130  178.3680  140.1120 N   0  0  0  0  0  2  0  0  0  0  0  0
  187.9450  177.6970  145.5360 C   0  0  0  0  0  3  0  0  0  0  0  0
  186.9190  178.4230  141.3670 C   0  0  0  0  0  0  0  0  0  0  0  0
  189.6510  177.6870  141.2800 C   0  0  0  0  0  0  0  0  0  0  0  0
  185.5030  178.8060  141.3830 C   0  0  0  0  0  3  0  0  0  0  0  0
  184.6520  178.3410  142.2910 C   0  0  0  0  0  3  0  0  0  0  0  0
  183.2150  178.7460  142.2770 C   0  0  0  0  0  2  0  0  0  0  0  0
  182.6490  178.8420  143.6880 C   0  0  0  0  0  2  0  0  0  0  0  0
  183.6730  179.3450  144.6480 C   0  0  0  0  0  0  0  0  0  0  0  0
  183.7680  178.7890  145.9160 O   0  0  0  0  0  1  0  0  0  0  0  0
  184.4410  180.2850  144.3150 O   0  0  0  0  0  0  0  0  0  0  0  0
  1  4  2  0  0  0  0
  2  1  1  0  0  0  0
  3 13  1  0  0  0  0
  4 16  1  0  0  0  0
  4  7  1  0  0  0  0
  6  3  2  0  0  0  0
  7  8  1  0  0  0  0
  8  5  2  0  0  0  0
  9 15  1  0  0  0  0
  9 18  1  0  0  0  0
 10  9  1  0  0  0  0
 11  2  1  0  0  0  0
 12  5  1  0  0  0  0
 13  1  1  0  0  0  0
 13 14  1  0  0  0  0
 14  7  2  0  0  0  0
 15 17  1  0  0  0  0
 16 12  2  0  0  0  0
 17 19  1  0  0  0  0
 17 11  2  0  0  0  0
 18  6  1  0  0  0  0
 18  2  2  0  0  0  0
 19 20  2  0  0  0  0
 21 20  1  0  0  0  0
 21 22  1  0  0  0  0
 22 23  1  0  0  0  0
 23 24  1  0  0  0  0
 25 23  2  0  0  0  0
M  END
>  <MODEL>
4

>  <REMARK>
 VINA RESULT:      -9.1      2.671      6.015
  Name = 
  4 active torsions:
  status: ('A' for Active; 'I' for Inactive)
    1  A    between atoms: C_2  and  C_25
    2  A    between atoms: C_6  and  C_23
    3  A    between atoms: C_15  and  C_21
    4  A    between atoms: C_21  and  C_25
                            x       y       z     vdW  Elec       q    Type
                         _______ _______ _______ _____ _____    ______ ____

>  <TORSDO>
F 4

$$$$
=
 OpenBabel10272400473D

 25 28  0  0  0  0  0  0  0  0999 V2000
  186.3010  178.3920  142.3380 C   0  0  0  0  0  0  0  0  0  0  0  0
  187.6160  178.0250  142.0610 C   0  0  0  0  0  0  0  0  0  0  0  0
  185.8520  178.7710  140.0440 C   0  0  0  0  0  3  0  0  0  0  0  0
  185.6300  178.4680  143.5350 C   0  0  0  0  0  0  0  0  0  0  0  0
  183.7650  178.8190  145.5500 C   0  0  0  0  0  3  0  0  0  0  0  0
  187.1330  178.4170  139.7370 N   0  0  0  0  0  0  0  0  0  0  0  0
  184.3520  178.8870  143.2290 C   0  0  0  0  0  0  0  0  0  0  0  0
  183.3890  179.0730  144.2180 C   0  0  0  0  0  3  0  0  0  0  0  0
  189.3630  177.6730  140.4040 N   0  0  0  0  0  0  0  0  0  0  0  0
  189.8520  177.6710  139.0360 C   0  0  0  0  0  1  0  0  0  0  0  0
  188.5410  177.6380  143.0860 N   0  0  0  0  0  0  0  0  0  0  0  0
  185.0750  178.3910  145.8610 C   0  0  0  0  0  3  0  0  0  0  0  0
  185.4640  178.7500  141.3430 N   0  0  0  0  0  0  0  0  0  0  0  0
  184.2540  179.0610  141.8560 C   0  0  0  0  0  3  0  0  0  0  0  0
  190.2280  177.3020  141.4480 N   0  0  0  0  0  2  0  0  0  0  0  0
  186.0300  178.2100  144.8450 C   0  0  0  0  0  3  0  0  0  0  0  0
  189.7690  177.2970  142.8080 C   0  0  0  0  0  0  0  0  0  0  0  0
  188.0160  178.0470  140.7150 C   0  0  0  0  0  0  0  0  0  0  0  0
  190.6990  176.9050  143.8730 C   0  0  0  0  0  3  0  0  0  0  0  0
  190.6360  177.4210  145.0960 C   0  0  0  0  0  3  0  0  0  0  0  0
  191.6000  177.0050  146.1560 C   0  0  0  0  0  2  0  0  0  0  0  0
  190.8820  176.4230  147.3670 C   0  0  0  0  0  2  0  0  0  0  0  0
  189.6220  177.1680  147.6560 C   0  0  0  0  0  0  0  0  0  0  0  0
  188.4130  176.7060  147.1540 O   0  0  0  0  0  0  0  0  0  0  0  0
  189.6560  178.2240  148.3400 O   0  0  0  0  0  1  0  0  0  0  0  0
  1  4  2  0  0  0  0
  2  1  1  0  0  0  0
  2 11  1  0  0  0  0
  3 13  1  0  0  0  0
  4 16  1  0  0  0  0
  5 12  1  0  0  0  0
  6  3  2  0  0  0  0
  6 18  1  0  0  0  0
  7  4  1  0  0  0  0
  7  8  1  0  0  0  0
  8  5  2  0  0  0  0
  9 18  1  0  0  0  0
  9 15  1  0  0  0  0
 10  9  1  0  0  0  0
 13 14  1  0  0  0  0
 13  1  1  0  0  0  0
 14  7  2  0  0  0  0
 15 17  1  0  0  0  0
 16 12  2  0  0  0  0
 17 11  2  0  0  0  0
 17 19  1  0  0  0  0
 18  2  2  0  0  0  0
 19 20  2  0  0  0  0
 20 21  1  0  0  0  0
 21 22  1  0  0  0  0
 22 23  1  0  0  0  0
 23 25  1  0  0  0  0
 24 23  2  0  0  0  0
M  END
>  <MODEL>
5

>  <REMARK>
 VINA RESULT:      -8.9      3.125      5.578
  Name = 
  4 active torsions:
  status: ('A' for Active; 'I' for Inactive)
    1  A    between atoms: C_2  and  C_25
    2  A    between atoms: C_6  and  C_23
    3  A    between atoms: C_15  and  C_21
    4  A    between atoms: C_21  and  C_25
                            x       y       z     vdW  Elec       q    Type
                         _______ _______ _______ _____ _____    ______ ____

>  <TORSDO>
F 4

$$$$
=
 OpenBabel10272400473D

 25 28  0  0  0  0  0  0  0  0999 V2000
  188.2160  177.6640  144.4760 C   0  0  0  0  0  0  0  0  0  0  0  0
  187.9910  177.8450  143.1120 C   0  0  0  0  0  0  0  0  0  0  0  0
  185.9860  178.2680  144.9920 C   0  0  0  0  0  3  0  0  0  0  0  0
  189.3510  177.2770  145.1480 C   0  0  0  0  0  0  0  0  0  0  0  0
  191.2370  176.5690  147.0470 C   0  0  0  0  0  3  0  0  0  0  0  0
  185.7310  178.4540  143.6660 N   0  0  0  0  0  0  0  0  0  0  0  0
  189.0140  177.2610  146.4860 C   0  0  0  0  0  0  0  0  0  0  0  0
  189.9380  176.9100  147.4660 C   0  0  0  0  0  3  0  0  0  0  0  0
  186.4480  178.4440  141.3300 N   0  0  0  0  0  0  0  0  0  0  0  0
  185.1420  178.8650  140.8510 C   0  0  0  0  0  1  0  0  0  0  0  0
  189.0120  177.6330  142.1270 N   0  0  0  0  0  0  0  0  0  0  0  0
  191.5790  176.5860  145.6760 C   0  0  0  0  0  3  0  0  0  0  0  0
  187.2280  177.8750  145.3680 N   0  0  0  0  0  0  0  0  0  0  0  0
  187.6840  177.6360  146.6180 C   0  0  0  0  0  3  0  0  0  0  0  0
  187.4850  178.2220  140.4080 N   0  0  0  0  0  2  0  0  0  0  0  0
  190.6290  176.9440  144.7040 C   0  0  0  0  0  3  0  0  0  0  0  0
  188.7830  177.8070  140.8560 C   0  0  0  0  0  0  0  0  0  0  0  0
  186.7050  178.2510  142.7250 C   0  0  0  0  0  0  0  0  0  0  0  0
  189.8420  177.5850  139.8650 C   0  0  0  0  0  3  0  0  0  0  0  0
  189.5870  177.1330  138.6420 C   0  0  0  0  0  3  0  0  0  0  0  0
  190.6870  176.9120  137.6580 C   0  0  0  0  0  2  0  0  0  0  0  0
  191.7180  175.9230  138.1880 C   0  0  0  0  0  2  0  0  0  0  0  0
  193.0750  176.5390  138.2500 C   0  0  0  0  0  0  0  0  0  0  0  0
  193.8970  176.5210  137.1320 O   0  0  0  0  0  0  0  0  0  0  0  0
  193.4820  177.0610  139.3210 O   0  0  0  0  0  1  0  0  0  0  0  0
  1  4  2  0  0  0  0
  1 13  1  0  0  0  0
  2  1  1  0  0  0  0
  3 13  1  0  0  0  0
  4  7  1  0  0  0  0
  5  8  2  0  0  0  0
  6  3  2  0  0  0  0
  7 14  2  0  0  0  0
  7  8  1  0  0  0  0
  9 18  1  0  0  0  0
 10  9  1  0  0  0  0
 11  2  1  0  0  0  0
 12  5  1  0  0  0  0
 13 14  1  0  0  0  0
 15 17  1  0  0  0  0
 15  9  1  0  0  0  0
 16  4  1  0  0  0  0
 16 12  2  0  0  0  0
 17 11  2  0  0  0  0
 18  2  2  0  0  0  0
 18  6  1  0  0  0  0
 19 17  1  0  0  0  0
 20 19  2  0  0  0  0
 21 22  1  0  0  0  0
 21 20  1  0  0  0  0
 22 23  1  0  0  0  0
 23 25  1  0  0  0  0
 24 23  2  0  0  0  0
M  END
>  <MODEL>
6

>  <REMARK>
 VINA RESULT:      -8.8      2.430      4.963
  Name = 
  4 active torsions:
  status: ('A' for Active; 'I' for Inactive)
    1  A    between atoms: C_2  and  C_25
    2  A    between atoms: C_6  and  C_23
    3  A    between atoms: C_15  and  C_21
    4  A    between atoms: C_21  and  C_25
                            x       y       z     vdW  Elec       q    Type
                         _______ _______ _______ _____ _____    ______ ____

>  <TORSDO>
F 4

$$$$
=
 OpenBabel10272400473D

 25 28  0  0  0  0  0  0  0  0999 V2000
  187.7510  177.7360  145.6580 C   0  0  0  0  0  0  0  0  0  0  0  0
  186.9430  178.0720  144.5740 C   0  0  0  0  0  0  0  0  0  0  0  0
  185.9840  178.1240  147.1840 C   0  0  0  0  0  3  0  0  0  0  0  0
  189.0680  177.3410  145.6990 C   0  0  0  0  0  0  0  0  0  0  0  0
  191.6030  176.5230  146.4520 C   0  0  0  0  0  3  0  0  0  0  0  0
  185.1640  178.4600  146.1470 N   0  0  0  0  0  0  0  0  0  0  0  0
  189.3610  177.1360  147.0320 C   0  0  0  0  0  0  0  0  0  0  0  0
  190.6260  176.7240  147.4440 C   0  0  0  0  0  3  0  0  0  0  0  0
  184.7660  178.7910  143.7580 N   0  0  0  0  0  0  0  0  0  0  0  0
  183.3830  179.1830  143.9690 C   0  0  0  0  0  1  0  0  0  0  0  0
  187.4190  178.0520  143.2210 N   0  0  0  0  0  0  0  0  0  0  0  0
  191.3000  176.7350  145.0880 C   0  0  0  0  0  3  0  0  0  0  0  0
  187.2630  177.7680  146.9140 N   0  0  0  0  0  0  0  0  0  0  0  0
  188.2280  177.4040  147.7870 C   0  0  0  0  0  3  0  0  0  0  0  0
  185.2840  178.7540  142.4530 N   0  0  0  0  0  2  0  0  0  0  0  0
  190.0150  177.1510  144.6950 C   0  0  0  0  0  3  0  0  0  0  0  0
  186.6480  178.3710  142.2190 C   0  0  0  0  0  0  0  0  0  0  0  0
  185.6180  178.4400  144.8550 C   0  0  0  0  0  0  0  0  0  0  0  0
  187.1550  178.3440  140.8430 C   0  0  0  0  0  3  0  0  0  0  0  0
  188.4500  178.4480  140.5620 C   0  0  0  0  0  3  0  0  0  0  0  0
  188.9340  178.4230  139.1500 C   0  0  0  0  0  2  0  0  0  0  0  0
  189.8440  177.2280  138.8940 C   0  0  0  0  0  2  0  0  0  0  0  0
  190.7630  176.9930  140.0450 C   0  0  0  0  0  0  0  0  0  0  0  0
  190.3970  176.1150  141.0560 O   0  0  0  0  0  1  0  0  0  0  0  0
  191.8620  177.6020  140.1100 O   0  0  0  0  0  0  0  0  0  0  0  0
  1  4  2  0  0  0  0
  1 13  1  0  0  0  0
  2 18  2  0  0  0  0
  2  1  1  0  0  0  0
  4  7  1  0  0  0  0
  5  8  2  0  0  0  0
  6  3  2  0  0  0  0
  7  8  1  0  0  0  0
  7 14  2  0  0  0  0
  9 10  1  0  0  0  0
  9 18  1  0  0  0  0
 11  2  1  0  0  0  0
 12  5  1  0  0  0  0
 13  3  1  0  0  0  0
 13 14  1  0  0  0  0
 15  9  1  0  0  0  0
 16 12  2  0  0  0  0
 16  4  1  0  0  0  0
 17 15  1  0  0  0  0
 17 11  2  0  0  0  0
 18  6  1  0  0  0  0
 19 17  1  0  0  0  0
 20 19  2  0  0  0  0
 21 20  1  0  0  0  0
 22 21  1  0  0  0  0
 22 23  1  0  0  0  0
 23 25  2  0  0  0  0
 23 24  1  0  0  0  0
M  END
>  <MODEL>
7

>  <REMARK>
 VINA RESULT:      -8.8      1.941      4.667
  Name = 
  4 active torsions:
  status: ('A' for Active; 'I' for Inactive)
    1  A    between atoms: C_2  and  C_25
    2  A    between atoms: C_6  and  C_23
    3  A    between atoms: C_15  and  C_21
    4  A    between atoms: C_21  and  C_25
                            x       y       z     vdW  Elec       q    Type
                         _______ _______ _______ _____ _____    ______ ____

>  <TORSDO>
F 4

$$$$
=
 OpenBabel10272400473D

 25 28  0  0  0  0  0  0  0  0999 V2000
  187.8020  177.6890  145.5690 C   0  0  0  0  0  0  0  0  0  0  0  0
  186.9960  178.0510  144.4910 C   0  0  0  0  0  0  0  0  0  0  0  0
  186.0300  178.0390  147.0990 C   0  0  0  0  0  3  0  0  0  0  0  0
  189.1190  177.2950  145.6040 C   0  0  0  0  0  0  0  0  0  0  0  0
  191.6530  176.4610  146.3430 C   0  0  0  0  0  3  0  0  0  0  0  0
  185.2130  178.3980  146.0680 N   0  0  0  0  0  0  0  0  0  0  0  0
  189.4090  177.0570  146.9320 C   0  0  0  0  0  0  0  0  0  0  0  0
  190.6730  176.6370  147.3380 C   0  0  0  0  0  3  0  0  0  0  0  0
  184.8210  178.7860  143.6880 N   0  0  0  0  0  0  0  0  0  0  0  0
  183.4370  179.1720  143.9040 C   0  0  0  0  0  1  0  0  0  0  0  0
  187.4750  178.0640  143.1390 N   0  0  0  0  0  0  0  0  0  0  0  0
  191.3530  176.7060  144.9840 C   0  0  0  0  0  3  0  0  0  0  0  0
  187.3110  177.6910  146.8240 N   0  0  0  0  0  0  0  0  0  0  0  0
  188.2740  177.3070  147.6910 C   0  0  0  0  0  3  0  0  0  0  0  0
  185.3420  178.7820  142.3830 N   0  0  0  0  0  2  0  0  0  0  0  0
  190.0690  177.1290  144.5980 C   0  0  0  0  0  3  0  0  0  0  0  0
  186.7060  178.4050  142.1430 C   0  0  0  0  0  0  0  0  0  0  0  0
  185.6700  178.4110  144.7780 C   0  0  0  0  0  0  0  0  0  0  0  0
  187.2180  178.4120  140.7680 C   0  0  0  0  0  3  0  0  0  0  0  0
  188.5080  178.2630  140.4900 C   0  0  0  0  0  3  0  0  0  0  0  0
  188.9980  178.2800  139.0800 C   0  0  0  0  0  2  0  0  0  0  0  0
  188.1640  177.3680  138.1890 C   0  0  0  0  0  2  0  0  0  0  0  0
  187.4660  178.1450  137.1240 C   0  0  0  0  0  0  0  0  0  0  0  0
  187.7250  179.5000  136.9720 O   0  0  0  0  0  1  0  0  0  0  0  0
  186.6300  177.5780  136.3740 O   0  0  0  0  0  0  0  0  0  0  0  0
  1  4  2  0  0  0  0
  1 13  1  0  0  0  0
  2 18  2  0  0  0  0
  2  1  1  0  0  0  0
  4  7  1  0  0  0  0
  5  8  2  0  0  0  0
  6  3  2  0  0  0  0
  7  8  1  0  0  0  0
  7 14  2  0  0  0  0
  9 10  1  0  0  0  0
  9 18  1  0  0  0  0
 11  2  1  0  0  0  0
 12  5  1  0  0  0  0
 13  3  1  0  0  0  0
 13 14  1  0  0  0  0
 15  9  1  0  0  0  0
 16 12  2  0  0  0  0
 16  4  1  0  0  0  0
 17 15  1  0  0  0  0
 17 11  2  0  0  0  0
 18  6  1  0  0  0  0
 19 17  1  0  0  0  0
 20 19  2  0  0  0  0
 21 20  1  0  0  0  0
 22 21  1  0  0  0  0
 23 22  1  0  0  0  0
 24 23  1  0  0  0  0
 25 23  2  0  0  0  0
M  END
>  <MODEL>
8

>  <REMARK>
 VINA RESULT:      -8.7      1.808      4.608
  Name = 
  4 active torsions:
  status: ('A' for Active; 'I' for Inactive)
    1  A    between atoms: C_2  and  C_25
    2  A    between atoms: C_6  and  C_23
    3  A    between atoms: C_15  and  C_21
    4  A    between atoms: C_21  and  C_25
                            x       y       z     vdW  Elec       q    Type
                         _______ _______ _______ _____ _____    ______ ____

>  <TORSDO>
F 4

$$$$
=
 OpenBabel10272400473D

 25 28  0  0  0  0  0  0  0  0999 V2000
  186.4030  178.1930  144.3210 C   0  0  0  0  0  0  0  0  0  0  0  0
  186.5100  178.2960  142.9360 C   0  0  0  0  0  0  0  0  0  0  0  0
  184.1330  178.8630  144.2640 C   0  0  0  0  0  3  0  0  0  0  0  0
  187.3370  177.8300  145.2630 C   0  0  0  0  0  0  0  0  0  0  0  0
  188.7030  177.2070  147.5880 C   0  0  0  0  0  3  0  0  0  0  0  0
  184.2020  178.9740  142.9070 N   0  0  0  0  0  0  0  0  0  0  0  0
  186.6950  177.9000  146.4820 C   0  0  0  0  0  0  0  0  0  0  0  0
  187.3530  177.5930  147.6700 C   0  0  0  0  0  3  0  0  0  0  0  0
  185.4460  178.8130  140.8100 N   0  0  0  0  0  0  0  0  0  0  0  0
  184.3020  179.2250  140.0150 C   0  0  0  0  0  1  0  0  0  0  0  0
  187.7270  178.0090  142.2320 N   0  0  0  0  0  0  0  0  0  0  0  0
  189.3580  177.1370  146.3380 C   0  0  0  0  0  3  0  0  0  0  0  0
  185.2400  178.4730  144.9430 N   0  0  0  0  0  0  0  0  0  0  0  0
  185.3830  178.3030  146.2760 C   0  0  0  0  0  3  0  0  0  0  0  0
  186.6630  178.5190  140.1710 N   0  0  0  0  0  2  0  0  0  0  0  0
  188.6740  177.4510  145.1510 C   0  0  0  0  0  3  0  0  0  0  0  0
  187.8080  178.1110  140.9350 C   0  0  0  0  0  0  0  0  0  0  0  0
  185.3630  178.7000  142.2350 C   0  0  0  0  0  0  0  0  0  0  0  0
  189.0620  177.8130  140.2360 C   0  0  0  0  0  3  0  0  0  0  0  0
  190.1660  177.4510  140.8810 C   0  0  0  0  0  3  0  0  0  0  0  0
  191.4290  177.1600  140.1410 C   0  0  0  0  0  2  0  0  0  0  0  0
  191.1530  176.8120  138.6830 C   0  0  0  0  0  2  0  0  0  0  0  0
  192.4140  176.4760  137.9610 C   0  0  0  0  0  0  0  0  0  0  0  0
  193.6430  176.7290  138.5560 O   0  0  0  0  0  1  0  0  0  0  0  0
  192.3670  175.9790  136.8050 O   0  0  0  0  0  0  0  0  0  0  0  0
  1 13  1  0  0  0  0
  1  4  2  0  0  0  0
  2  1  1  0  0  0  0
  3 13  1  0  0  0  0
  4  7  1  0  0  0  0
  5  8  2  0  0  0  0
  6  3  2  0  0  0  0
  7  8  1  0  0  0  0
  9 18  1  0  0  0  0
 10  9  1  0  0  0  0
 11  2  1  0  0  0  0
 12  5  1  0  0  0  0
 13 14  1  0  0  0  0
 14  7  2  0  0  0  0
 15  9  1  0  0  0  0
 15 17  1  0  0  0  0
 16  4  1  0  0  0  0
 16 12  2  0  0  0  0
 17 11  2  0  0  0  0
 18  6  1  0  0  0  0
 18  2  2  0  0  0  0
 19 20  2  0  0  0  0
 19 17  1  0  0  0  0
 21 20  1  0  0  0  0
 22 21  1  0  0  0  0
 23 24  1  0  0  0  0
 23 22  1  0  0  0  0
 25 23  2  0  0  0  0
M  END
>  <MODEL>
9

>  <REMARK>
 VINA RESULT:      -8.7      2.600      4.821
  Name = 
  4 active torsions:
  status: ('A' for Active; 'I' for Inactive)
    1  A    between atoms: C_2  and  C_25
    2  A    between atoms: C_6  and  C_23
    3  A    between atoms: C_15  and  C_21
    4  A    between atoms: C_21  and  C_25
                            x       y       z     vdW  Elec       q    Type
                         _______ _______ _______ _____ _____    ______ ____

>  <TORSDO>
F 4

$$$$
