=
 OpenBabel10272413123D

 32 36  0  0  1  0  0  0  0  0999 V2000
  188.3410  177.9090  142.7610 C   0  0  0  0  0  0  0  0  0  0  0  0
  185.5550  178.3510  142.9130 C   0  0  0  0  0  0  0  0  0  0  0  0
  189.8540  177.8500  142.7640 C   0  0  0  0  0  3  0  0  0  0  0  0
  187.6150  178.1510  141.5560 C   0  0  2  0  0  3  0  0  0  0  0  0
  185.4140  178.6500  140.5130 C   0  0  0  0  0  3  0  0  0  0  0  0
  182.0650  178.7990  144.2810 C   0  0  0  0  0  3  0  0  0  0  0  0
  186.2030  178.3850  141.6480 C   0  0  0  0  0  0  0  0  0  0  0  0
  182.0350  179.0750  141.9310 O   0  0  0  0  0  0  0  0  0  0  0  0
  183.4150  178.8440  141.8440 C   0  0  0  0  0  0  0  0  0  0  0  0
  188.2890  178.1300  140.3660 C   0  0  0  0  0  0  0  0  0  0  0  0
  184.0440  178.8770  140.6050 C   0  0  0  0  0  3  0  0  0  0  0  0
  189.7250  177.7870  140.3130 C   0  0  0  0  0  3  0  0  0  0  0  0
  186.3030  178.0820  144.0590 C   0  0  0  0  0  3  0  0  0  0  0  0
  187.6730  177.8530  144.0010 C   0  0  0  0  0  0  0  0  0  0  0  0
  184.1610  178.5820  143.0090 C   0  0  0  0  0  0  0  0  0  0  0  0
  190.4460  177.6230  141.4140 C   0  0  0  0  0  3  0  0  0  0  0  0
  181.3750  179.0470  143.1670 C   0  0  0  0  0  3  0  0  0  0  0  0
  183.5190  178.5580  144.1920 C   0  0  0  0  0  3  0  0  0  0  0  0
  188.4740  177.5560  147.7020 C   0  0  0  0  0  0  0  0  0  0  0  0
  187.8770  177.7780  148.9370 O   0  0  0  0  0  1  0  0  0  0  0  0
  188.3810  177.5820  145.2720 C   0  0  0  0  0  0  0  0  0  0  0  0
  189.7830  177.0710  147.6460 C   0  0  0  0  0  3  0  0  0  0  0  0
  189.7000  177.1080  145.2310 C   0  0  0  0  0  3  0  0  0  0  0  0
  187.7710  177.8210  146.5200 C   0  0  0  0  0  0  0  0  0  0  0  0
  186.4800  178.3350  146.5880 O   0  0  0  0  0  1  0  0  0  0  0  0
  190.4050  176.8480  146.4080 C   0  0  0  0  0  0  0  0  0  0  0  0
  192.3530  175.6820  147.3880 C   0  0  0  0  0  1  0  0  0  0  0  0
  191.7150  176.3700  146.3220 O   0  0  0  0  0  0  0  0  0  0  0  0
  187.6410  178.3950  139.1540 O   0  0  0  0  0  0  0  0  0  0  0  0
  187.8820  177.6460  138.0220 N   0  0  0  0  0  2  0  0  0  0  0  0
  188.0150  178.5840  136.9230 C   0  0  0  0  0  2  0  0  0  0  0  0
  188.8400  179.6380  137.3100 O   0  0  0  0  0  1  0  0  0  0  0  0
  1  3  1  0  0  0  0
  1 14  2  0  0  0  0
  2 15  1  0  0  0  0
  2 13  2  0  0  0  0
  4 10  1  6  0  0  0
  4  7  1  0  0  0  0
  4  1  1  0  0  0  0
  5 11  1  0  0  0  0
  5  7  2  0  0  0  0
  7  2  1  0  0  0  0
  8 17  1  0  0  0  0
  9  8  1  0  0  0  0
  9 15  1  0  0  0  0
 11  9  2  0  0  0  0
 12 10  2  0  0  0  0
 12 16  1  0  0  0  0
 14 13  1  0  0  0  0
 14 21  1  0  0  0  0
 15 18  2  0  0  0  0
 16  3  2  0  0  0  0
 17  6  2  0  0  0  0
 18  6  1  0  0  0  0
 19 20  1  0  0  0  0
 21 24  1  0  0  0  0
 22 19  1  0  0  0  0
 23 21  2  0  0  0  0
 23 26  1  0  0  0  0
 24 25  1  0  0  0  0
 24 19  2  0  0  0  0
 26 22  2  0  0  0  0
 28 26  1  0  0  0  0
 28 27  1  0  0  0  0
 29 10  1  0  0  0  0
 30 29  1  0  0  0  0
 31 32  1  0  0  0  0
 31 30  1  0  0  0  0
M  END
>  <MODEL>
1

>  <REMARK>
 VINA RESULT:     -10.9      0.000      0.000
  Name = 
  5 active torsions:
  status: ('A' for Active; 'I' for Inactive)
    1  A    between atoms: C_13  and  N_18
    2  A    between atoms: C_14  and  O_29
    3  A    between atoms: O_15  and  C_26
    4  A    between atoms: C_16  and  C_27
    5  A    between atoms: N_18  and  O_29
                            x       y       z     vdW  Elec       q    Type
                         _______ _______ _______ _____ _____    ______ ____

>  <TORSDO>
F 5

$$$$
=
 OpenBabel10272413123D

 32 36  0  0  0  0  0  0  0  0999 V2000
  189.2290  177.2710  143.1480 C   0  0  0  0  0  0  0  0  0  0  0  0
  186.5500  178.0210  143.6380 C   0  0  0  0  0  0  0  0  0  0  0  0
  190.5900  176.7010  142.8090 C   0  0  0  0  0  2  0  0  0  0  0  0
  188.7600  177.3080  144.4960 C   0  0  0  0  0  0  0  0  0  0  0  0
  186.8440  177.7240  146.0250 C   0  0  0  0  0  3  0  0  0  0  0  0
  182.9720  179.0980  143.1000 C   0  0  0  0  0  3  0  0  0  0  0  0
  187.3950  177.6790  144.7310 C   0  0  0  0  0  0  0  0  0  0  0  0
  183.3630  178.7780  145.4130 O   0  0  0  0  0  0  0  0  0  0  0  0
  184.6980  178.4160  145.1800 C   0  0  0  0  0  0  0  0  0  0  0  0
  189.6330  177.0090  145.5050 C   0  0  0  0  0  0  0  0  0  0  0  0
  185.5190  178.0850  146.2510 C   0  0  0  0  0  3  0  0  0  0  0  0
  191.0550  176.7280  145.2200 C   0  0  0  0  0  3  0  0  0  0  0  0
  187.0640  177.9970  142.3420 C   0  0  0  0  0  3  0  0  0  0  0  0
  188.3810  177.6390  142.0830 C   0  0  0  0  0  0  0  0  0  0  0  0
  185.2010  178.3880  143.8650 C   0  0  0  0  0  0  0  0  0  0  0  0
  191.5110  176.6170  143.9800 C   0  0  0  0  0  3  0  0  0  0  0  0
  182.5120  179.1180  144.3520 C   0  0  0  0  0  3  0  0  0  0  0  0
  184.3760  178.7160  142.8540 C   0  0  0  0  0  3  0  0  0  0  0  0
  188.5040  178.1810  138.3260 C   0  0  0  0  0  0  0  0  0  0  0  0
  187.7420  178.7460  137.3110 O   0  0  0  0  0  1  0  0  0  0  0  0
  188.8320  177.6380  140.6730 C   0  0  0  0  0  0  0  0  0  0  0  0
  189.7290  177.5850  138.0180 C   0  0  0  0  0  3  0  0  0  0  0  0
  190.0530  177.0310  140.3480 C   0  0  0  0  0  3  0  0  0  0  0  0
  188.0460  178.2040  139.6500 C   0  0  0  0  0  0  0  0  0  0  0  0
  186.8090  178.7710  139.9400 O   0  0  0  0  0  1  0  0  0  0  0  0
  190.5090  177.0020  139.0280 C   0  0  0  0  0  0  0  0  0  0  0  0
  192.1200  176.0100  137.4360 C   0  0  0  0  0  1  0  0  0  0  0  0
  191.7350  176.3930  138.7480 O   0  0  0  0  0  0  0  0  0  0  0  0
  189.2250  176.9920  146.8440 O   0  0  0  0  0  0  0  0  0  0  0  0
  190.0320  177.4680  147.8550 N   0  0  0  0  0  2  0  0  0  0  0  0
  189.2350  178.4160  148.6110 C   0  0  0  0  0  2  0  0  0  0  0  0
  188.0880  177.7810  149.0870 O   0  0  0  0  0  1  0  0  0  0  0  0
  1  4  1  0  0  0  0
  2 15  1  0  0  0  0
  2  7  1  0  0  0  0
  3  1  1  0  0  0  0
  3 16  1  0  0  0  0
  4  7  1  0  0  0  0
  4 10  2  0  0  0  0
  5 11  1  0  0  0  0
  6 17  2  0  0  0  0
  7  5  2  0  0  0  0
  9  8  1  0  0  0  0
  9 11  2  0  0  0  0
 10 29  1  0  0  0  0
 12 10  1  0  0  0  0
 13  2  2  0  0  0  0
 14 13  1  0  0  0  0
 14  1  2  0  0  0  0
 15  9  1  0  0  0  0
 16 12  2  0  0  0  0
 17  8  1  0  0  0  0
 18  6  1  0  0  0  0
 18 15  2  0  0  0  0
 19 24  1  0  0  0  0
 20 19  1  0  0  0  0
 21 14  1  0  0  0  0
 22 19  2  0  0  0  0
 22 26  1  0  0  0  0
 23 21  1  0  0  0  0
 24 25  1  0  0  0  0
 24 21  2  0  0  0  0
 26 23  2  0  0  0  0
 27 28  1  0  0  0  0
 28 26  1  0  0  0  0
 29 30  1  0  0  0  0
 30 31  1  0  0  0  0
 31 32  1  0  0  0  0
M  END
>  <MODEL>
2

>  <REMARK>
 VINA RESULT:     -10.9      2.502      6.412
  Name = 
  5 active torsions:
  status: ('A' for Active; 'I' for Inactive)
    1  A    between atoms: C_13  and  N_18
    2  A    between atoms: C_14  and  O_29
    3  A    between atoms: O_15  and  C_26
    4  A    between atoms: C_16  and  C_27
    5  A    between atoms: N_18  and  O_29
                            x       y       z     vdW  Elec       q    Type
                         _______ _______ _______ _____ _____    ______ ____

>  <TORSDO>
F 5

$$$$
=
 OpenBabel10272413123D

 32 36  0  0  1  0  0  0  0  0999 V2000
  186.4250  178.0540  144.2750 C   0  0  0  0  0  0  0  0  0  0  0  0
  186.7350  178.2390  141.4720 C   0  0  0  0  0  0  0  0  0  0  0  0
  186.2680  177.7580  145.7510 C   0  0  0  0  0  3  0  0  0  0  0  0
  185.3110  178.4720  143.4840 C   0  0  2  0  0  3  0  0  0  0  0  0
  184.4290  178.9360  141.2070 C   0  0  0  0  0  3  0  0  0  0  0  0
  188.2460  178.1080  138.0160 C   0  0  0  0  0  3  0  0  0  0  0  0
  185.4780  178.5510  142.0630 C   0  0  0  0  0  0  0  0  0  0  0  0
  185.9820  178.7810  137.8650 O   0  0  0  0  0  0  0  0  0  0  0  0
  185.8220  178.7040  139.2550 C   0  0  0  0  0  0  0  0  0  0  0  0
  184.1420  178.7990  144.1140 C   0  0  0  0  0  0  0  0  0  0  0  0
  184.5940  179.0120  139.8270 C   0  0  0  0  0  3  0  0  0  0  0  0
  184.0490  178.7960  145.5900 C   0  0  0  0  0  3  0  0  0  0  0  0
  187.8000  177.8620  142.2900 C   0  0  0  0  0  3  0  0  0  0  0  0
  187.6680  177.7750  143.6700 C   0  0  0  0  0  0  0  0  0  0  0  0
  186.9040  178.3140  140.0690 C   0  0  0  0  0  0  0  0  0  0  0  0
  185.0370  178.3490  146.3520 C   0  0  0  0  0  3  0  0  0  0  0  0
  187.2100  178.4780  137.2610 C   0  0  0  0  0  3  0  0  0  0  0  0
  188.0790  178.0250  139.4800 C   0  0  0  0  0  3  0  0  0  0  0  0
  191.0070  176.2460  144.6370 C   0  0  0  0  0  0  0  0  0  0  0  0
  192.0500  175.5270  144.0650 O   0  0  0  0  0  1  0  0  0  0  0  0
  188.8540  177.3610  144.4530 C   0  0  0  0  0  0  0  0  0  0  0  0
  191.0660  176.5850  145.9910 C   0  0  0  0  0  3  0  0  0  0  0  0
  188.9200  177.6830  145.8150 C   0  0  0  0  0  3  0  0  0  0  0  0
  189.9020  176.6230  143.8650 C   0  0  0  0  0  0  0  0  0  0  0  0
  189.8390  176.2500  142.5260 O   0  0  0  0  0  1  0  0  0  0  0  0
  190.0190  177.3030  146.5890 C   0  0  0  0  0  0  0  0  0  0  0  0
  188.9400  178.2430  148.6060 C   0  0  0  0  0  1  0  0  0  0  0  0
  190.0470  177.6510  147.9420 O   0  0  0  0  0  0  0  0  0  0  0  0
  183.0050  179.1810  143.3940 O   0  0  0  0  0  0  0  0  0  0  0  0
  181.7380  178.8050  143.7840 N   0  0  0  0  0  2  0  0  0  0  0  0
  180.8420  179.1810  142.7060 C   0  0  0  0  0  2  0  0  0  0  0  0
  180.3570  180.4680  142.9340 O   0  0  0  0  0  1  0  0  0  0  0  0
  1  3  1  0  0  0  0
  2  7  1  0  0  0  0
  2 13  2  0  0  0  0
  3 16  2  0  0  0  0
  4  7  1  1  0  0  0
  4 10  1  0  0  0  0
  4  1  1  0  0  0  0
  5  7  2  0  0  0  0
  6 18  1  0  0  0  0
  8  9  1  0  0  0  0
  9 11  2  0  0  0  0
  9 15  1  0  0  0  0
 10 12  2  0  0  0  0
 11  5  1  0  0  0  0
 12 16  1  0  0  0  0
 13 14  1  0  0  0  0
 14  1  2  0  0  0  0
 14 21  1  0  0  0  0
 15  2  1  0  0  0  0
 17  8  1  0  0  0  0
 17  6  2  0  0  0  0
 18 15  2  0  0  0  0
 19 22  1  0  0  0  0
 20 19  1  0  0  0  0
 21 23  2  0  0  0  0
 22 26  2  0  0  0  0
 23 26  1  0  0  0  0
 24 21  1  0  0  0  0
 24 19  2  0  0  0  0
 25 24  1  0  0  0  0
 26 28  1  0  0  0  0
 28 27  1  0  0  0  0
 29 30  1  0  0  0  0
 29 10  1  0  0  0  0
 31 32  1  0  0  0  0
 31 30  1  0  0  0  0
M  END
>  <MODEL>
3

>  <REMARK>
 VINA RESULT:     -10.7      2.193      5.280
  Name = 
  5 active torsions:
  status: ('A' for Active; 'I' for Inactive)
    1  A    between atoms: C_13  and  N_18
    2  A    between atoms: C_14  and  O_29
    3  A    between atoms: O_15  and  C_26
    4  A    between atoms: C_16  and  C_27
    5  A    between atoms: N_18  and  O_29
                            x       y       z     vdW  Elec       q    Type
                         _______ _______ _______ _____ _____    ______ ____

>  <TORSDO>
F 5

$$$$
=
 OpenBabel10272413123D

 32 36  0  0  0  0  0  0  0  0999 V2000
  188.0110  177.8420  141.4320 C   0  0  0  0  0  0  0  0  0  0  0  0
  189.3400  177.2300  143.8490 C   0  0  0  0  0  0  0  0  0  0  0  0
  187.4260  178.3220  140.1220 C   0  0  0  0  0  2  0  0  0  0  0  0
  187.3300  178.0610  142.6680 C   0  0  0  0  0  0  0  0  0  0  0  0
  187.4300  177.9590  145.1500 C   0  0  0  0  0  3  0  0  0  0  0  0
  191.9810  176.1180  146.3070 C   0  0  0  0  0  3  0  0  0  0  0  0
  188.0190  177.7570  143.8880 C   0  0  0  0  0  0  0  0  0  0  0  0
  190.0650  176.8540  147.4840 O   0  0  0  0  0  0  0  0  0  0  0  0
  189.3920  177.1500  146.2900 C   0  0  0  0  0  0  0  0  0  0  0  0
  186.0460  178.5300  142.6380 C   0  0  0  0  0  0  0  0  0  0  0  0
  188.1010  177.6620  146.3330 C   0  0  0  0  0  3  0  0  0  0  0  0
  185.3430  178.7360  141.3540 C   0  0  0  0  0  3  0  0  0  0  0  0
  189.9530  177.0070  142.6160 C   0  0  0  0  0  3  0  0  0  0  0  0
  189.3100  177.2950  141.4180 C   0  0  0  0  0  0  0  0  0  0  0  0
  190.0250  176.9290  145.0510 C   0  0  0  0  0  0  0  0  0  0  0  0
  185.9640  178.6090  140.1890 C   0  0  0  0  0  3  0  0  0  0  0  0
  191.3660  176.3360  147.4710 C   0  0  0  0  0  3  0  0  0  0  0  0
  191.2760  176.4300  145.0480 C   0  0  0  0  0  3  0  0  0  0  0  0
  192.1030  176.9390  138.8680 C   0  0  0  0  0  0  0  0  0  0  0  0
  193.4810  177.0890  138.7770 O   0  0  0  0  0  1  0  0  0  0  0  0
  190.0450  177.0300  140.1600 C   0  0  0  0  0  0  0  0  0  0  0  0
  191.3780  176.5350  137.7450 C   0  0  0  0  0  3  0  0  0  0  0  0
  189.3290  176.6370  139.0210 C   0  0  0  0  0  3  0  0  0  0  0  0
  191.4420  177.1950  140.0760 C   0  0  0  0  0  0  0  0  0  0  0  0
  192.1700  177.6290  141.1800 O   0  0  0  0  0  1  0  0  0  0  0  0
  189.9850  176.3860  137.8140 C   0  0  0  0  0  0  0  0  0  0  0  0
  187.8700  176.3510  136.5330 C   0  0  0  0  0  1  0  0  0  0  0  0
  189.2330  175.9900  136.7050 O   0  0  0  0  0  0  0  0  0  0  0  0
  185.3370  178.7990  143.8140 O   0  0  0  0  0  0  0  0  0  0  0  0
  184.2410  179.6350  143.8270 N   0  0  0  0  0  2  0  0  0  0  0  0
  183.2830  179.0500  144.7480 C   0  0  0  0  0  2  0  0  0  0  0  0
  183.9030  178.8160  145.9740 O   0  0  0  0  0  1  0  0  0  0  0  0
  1  4  1  0  0  0  0
  2  7  1  0  0  0  0
  2 15  1  0  0  0  0
  3 16  1  0  0  0  0
  3  1  1  0  0  0  0
  4  7  1  0  0  0  0
  5 11  1  0  0  0  0
  6 17  2  0  0  0  0
  7  5  2  0  0  0  0
  9 11  2  0  0  0  0
  9  8  1  0  0  0  0
 10  4  2  0  0  0  0
 10 29  1  0  0  0  0
 12 10  1  0  0  0  0
 13  2  2  0  0  0  0
 14  1  2  0  0  0  0
 14 13  1  0  0  0  0
 15  9  1  0  0  0  0
 16 12  2  0  0  0  0
 17  8  1  0  0  0  0
 18 15  2  0  0  0  0
 18  6  1  0  0  0  0
 19 24  1  0  0  0  0
 20 19  1  0  0  0  0
 21 14  1  0  0  0  0
 22 26  1  0  0  0  0
 22 19  2  0  0  0  0
 23 21  1  0  0  0  0
 24 21  2  0  0  0  0
 24 25  1  0  0  0  0
 26 23  2  0  0  0  0
 27 28  1  0  0  0  0
 28 26  1  0  0  0  0
 29 30  1  0  0  0  0
 30 31  1  0  0  0  0
 31 32  1  0  0  0  0
M  END
>  <MODEL>
4

>  <REMARK>
 VINA RESULT:     -10.5      2.482      7.471
  Name = 
  5 active torsions:
  status: ('A' for Active; 'I' for Inactive)
    1  A    between atoms: C_13  and  N_18
    2  A    between atoms: C_14  and  O_29
    3  A    between atoms: O_15  and  C_26
    4  A    between atoms: C_16  and  C_27
    5  A    between atoms: N_18  and  O_29
                            x       y       z     vdW  Elec       q    Type
                         _______ _______ _______ _____ _____    ______ ____

>  <TORSDO>
F 5

$$$$
=
 OpenBabel10272413123D

 32 36  0  0  1  0  0  0  0  0999 V2000
  185.2900  178.4630  143.9120 C   0  0  0  0  0  0  0  0  0  0  0  0
  187.6050  177.9180  142.3870 C   0  0  0  0  0  0  0  0  0  0  0  0
  184.0670  178.9420  144.6640 C   0  0  0  0  0  3  0  0  0  0  0  0
  186.5170  178.1990  144.5930 C   0  0  2  0  0  3  0  0  0  0  0  0
  188.9410  177.6830  144.3940 C   0  0  0  0  0  3  0  0  0  0  0  0
  189.9190  177.3620  139.4570 C   0  0  0  0  0  3  0  0  0  0  0  0
  187.6870  177.9350  143.8070 C   0  0  0  0  0  0  0  0  0  0  0  0
  191.1360  177.1550  141.4760 O   0  0  0  0  0  0  0  0  0  0  0  0
  189.9900  177.4130  142.2430 C   0  0  0  0  0  0  0  0  0  0  0  0
  186.5230  178.1890  145.9600 C   0  0  0  0  0  0  0  0  0  0  0  0
  190.0750  177.4270  143.6300 C   0  0  0  0  0  3  0  0  0  0  0  0
  185.2710  178.3700  146.7250 C   0  0  0  0  0  3  0  0  0  0  0  0
  186.3760  178.1530  141.7690 C   0  0  0  0  0  3  0  0  0  0  0  0
  185.2260  178.4140  142.5050 C   0  0  0  0  0  0  0  0  0  0  0  0
  188.7570  177.6580  141.6070 C   0  0  0  0  0  0  0  0  0  0  0  0
  184.1290  178.6840  146.1320 C   0  0  0  0  0  3  0  0  0  0  0  0
  191.0780  177.1340  140.0770 C   0  0  0  0  0  3  0  0  0  0  0  0
  188.7120  177.6350  140.2620 C   0  0  0  0  0  3  0  0  0  0  0  0
  182.7750  179.3990  139.7760 C   0  0  0  0  0  0  0  0  0  0  0  0
  182.7760  179.9010  138.4800 O   0  0  0  0  0  1  0  0  0  0  0  0
  183.9710  178.6580  141.7590 C   0  0  0  0  0  0  0  0  0  0  0  0
  181.5600  179.1200  140.4060 C   0  0  0  0  0  3  0  0  0  0  0  0
  182.7440  178.3960  142.3840 C   0  0  0  0  0  3  0  0  0  0  0  0
  183.9830  179.1780  140.4490 C   0  0  0  0  0  0  0  0  0  0  0  0
  185.1860  179.4900  139.8240 O   0  0  0  0  0  1  0  0  0  0  0  0
  181.5380  178.6200  141.7160 C   0  0  0  0  0  0  0  0  0  0  0  0
  180.1970  178.4230  143.7850 C   0  0  0  0  0  1  0  0  0  0  0  0
  180.3370  178.3390  142.3740 O   0  0  0  0  0  0  0  0  0  0  0  0
  187.7000  177.9730  146.6850 O   0  0  0  0  0  0  0  0  0  0  0  0
  187.6870  177.7770  148.0500 N   0  0  0  0  0  2  0  0  0  0  0  0
  189.0220  178.0880  148.5270 C   0  0  0  0  0  2  0  0  0  0  0  0
  189.9580  177.3650  147.7890 O   0  0  0  0  0  1  0  0  0  0  0  0
  1  4  1  0  0  0  0
  1  3  1  0  0  0  0
  2  7  1  0  0  0  0
  3 16  2  0  0  0  0
  4  7  1  6  0  0  0
  4 10  1  0  0  0  0
  6 17  2  0  0  0  0
  6 18  1  0  0  0  0
  7  5  2  0  0  0  0
  8  9  1  0  0  0  0
  9 11  2  0  0  0  0
 10 29  1  0  0  0  0
 10 12  2  0  0  0  0
 11  5  1  0  0  0  0
 13  2  2  0  0  0  0
 13 14  1  0  0  0  0
 14  1  2  0  0  0  0
 15  9  1  0  0  0  0
 15  2  1  0  0  0  0
 16 12  1  0  0  0  0
 17  8  1  0  0  0  0
 18 15  2  0  0  0  0
 19 22  2  0  0  0  0
 19 24  1  0  0  0  0
 20 19  1  0  0  0  0
 21 23  1  0  0  0  0
 21 14  1  0  0  0  0
 22 26  1  0  0  0  0
 24 21  2  0  0  0  0
 25 24  1  0  0  0  0
 26 28  1  0  0  0  0
 26 23  2  0  0  0  0
 28 27  1  0  0  0  0
 29 30  1  0  0  0  0
 30 31  1  0  0  0  0
 32 31  1  0  0  0  0
M  END
>  <MODEL>
5

>  <REMARK>
 VINA RESULT:     -10.5      2.534      8.102
  Name = 
  5 active torsions:
  status: ('A' for Active; 'I' for Inactive)
    1  A    between atoms: C_13  and  N_18
    2  A    between atoms: C_14  and  O_29
    3  A    between atoms: O_15  and  C_26
    4  A    between atoms: C_16  and  C_27
    5  A    between atoms: N_18  and  O_29
                            x       y       z     vdW  Elec       q    Type
                         _______ _______ _______ _____ _____    ______ ____

>  <TORSDO>
F 5

$$$$
=
 OpenBabel10272413123D

 32 36  0  0  0  0  0  0  0  0999 V2000
  186.2530  178.3330  141.9010 C   0  0  0  0  0  0  0  0  0  0  0  0
  187.1300  178.0580  144.5730 C   0  0  0  0  0  0  0  0  0  0  0  0
  185.8850  178.6510  140.4680 C   0  0  0  0  0  2  0  0  0  0  0  0
  185.3030  178.4820  142.9570 C   0  0  0  0  0  0  0  0  0  0  0  0
  184.8990  178.4990  145.4100 C   0  0  0  0  0  3  0  0  0  0  0  0
  189.3450  177.5190  147.5820 C   0  0  0  0  0  3  0  0  0  0  0  0
  185.7630  178.3510  144.3080 C   0  0  0  0  0  0  0  0  0  0  0  0
  187.1320  177.9610  148.2970 O   0  0  0  0  0  0  0  0  0  0  0  0
  186.6850  178.0880  146.9740 C   0  0  0  0  0  0  0  0  0  0  0  0
  183.9950  178.7210  142.6370 C   0  0  0  0  0  0  0  0  0  0  0  0
  185.3480  178.3710  146.7210 C   0  0  0  0  0  3  0  0  0  0  0  0
  183.5520  178.7490  141.2270 C   0  0  0  0  0  3  0  0  0  0  0  0
  188.0140  177.8940  143.5060 C   0  0  0  0  0  3  0  0  0  0  0  0
  187.5980  178.0180  142.1860 C   0  0  0  0  0  0  0  0  0  0  0  0
  187.5890  177.9290  145.9060 C   0  0  0  0  0  0  0  0  0  0  0  0
  184.4140  178.6850  140.2220 C   0  0  0  0  0  3  0  0  0  0  0  0
  188.4740  177.6740  148.5810 C   0  0  0  0  0  3  0  0  0  0  0  0
  188.8760  177.6530  146.1890 C   0  0  0  0  0  3  0  0  0  0  0  0
  190.9090  177.5170  140.3950 C   0  0  0  0  0  0  0  0  0  0  0  0
  192.2600  177.3620  140.6860 O   0  0  0  0  0  1  0  0  0  0  0  0
  188.6110  177.8320  141.1230 C   0  0  0  0  0  0  0  0  0  0  0  0
  190.4860  177.5070  139.0640 C   0  0  0  0  0  3  0  0  0  0  0  0
  188.2020  177.8340  139.7820 C   0  0  0  0  0  3  0  0  0  0  0  0
  189.9790  177.6870  141.4280 C   0  0  0  0  0  0  0  0  0  0  0  0
  190.4170  177.7280  142.7480 O   0  0  0  0  0  1  0  0  0  0  0  0
  189.1280  177.6700  138.7500 C   0  0  0  0  0  0  0  0  0  0  0  0
  187.5570  178.4340  137.0000 C   0  0  0  0  0  1  0  0  0  0  0  0
  188.6770  177.6710  137.4280 O   0  0  0  0  0  0  0  0  0  0  0  0
  183.0240  178.9110  143.6250 O   0  0  0  0  0  0  0  0  0  0  0  0
  181.7770  179.4190  143.3300 N   0  0  0  0  0  2  0  0  0  0  0  0
  180.8130  178.5910  144.0310 C   0  0  0  0  0  2  0  0  0  0  0  0
  179.9820  177.9630  143.1050 O   0  0  0  0  0  1  0  0  0  0  0  0
  1 14  2  0  0  0  0
  1  4  1  0  0  0  0
  2 15  1  0  0  0  0
  3  1  1  0  0  0  0
  4  7  1  0  0  0  0
  5 11  1  0  0  0  0
  6 17  2  0  0  0  0
  7  2  1  0  0  0  0
  7  5  2  0  0  0  0
  8 17  1  0  0  0  0
  9  8  1  0  0  0  0
 10  4  2  0  0  0  0
 10 29  1  0  0  0  0
 11  9  2  0  0  0  0
 12 10  1  0  0  0  0
 13  2  2  0  0  0  0
 14 13  1  0  0  0  0
 15 18  2  0  0  0  0
 15  9  1  0  0  0  0
 16  3  1  0  0  0  0
 16 12  2  0  0  0  0
 18  6  1  0  0  0  0
 19 20  1  0  0  0  0
 19 24  1  0  0  0  0
 21 24  2  0  0  0  0
 21 14  1  0  0  0  0
 22 19  2  0  0  0  0
 23 21  1  0  0  0  0
 24 25  1  0  0  0  0
 26 22  1  0  0  0  0
 26 23  2  0  0  0  0
 27 28  1  0  0  0  0
 28 26  1  0  0  0  0
 30 29  1  0  0  0  0
 30 31  1  0  0  0  0
 32 31  1  0  0  0  0
M  END
>  <MODEL>
6

>  <REMARK>
 VINA RESULT:     -10.1      2.175      6.791
  Name = 
  5 active torsions:
  status: ('A' for Active; 'I' for Inactive)
    1  A    between atoms: C_13  and  N_18
    2  A    between atoms: C_14  and  O_29
    3  A    between atoms: O_15  and  C_26
    4  A    between atoms: C_16  and  C_27
    5  A    between atoms: N_18  and  O_29
                            x       y       z     vdW  Elec       q    Type
                         _______ _______ _______ _____ _____    ______ ____

>  <TORSDO>
F 5

$$$$
=
 OpenBabel10272413123D

 32 36  0  0  1  0  0  0  0  0999 V2000
  187.4590  177.9740  143.6120 C   0  0  0  0  0  0  0  0  0  0  0  0
  188.9890  177.5650  141.2720 C   0  0  0  0  0  0  0  0  0  0  0  0
  186.6340  177.9950  144.8810 C   0  0  0  0  0  3  0  0  0  0  0  0
  186.8690  178.2620  142.3440 C   0  0  2  0  0  3  0  0  0  0  0  0
  187.1430  178.2790  139.8730 C   0  0  0  0  0  3  0  0  0  0  0  0
  191.8340  176.6680  138.9600 C   0  0  0  0  0  3  0  0  0  0  0  0
  187.6510  178.0400  141.1640 C   0  0  0  0  0  0  0  0  0  0  0  0
  189.9730  177.3800  137.6840 O   0  0  0  0  0  0  0  0  0  0  0  0
  189.2100  177.5980  138.8400 C   0  0  0  0  0  0  0  0  0  0  0  0
  185.5940  178.7550  142.3080 C   0  0  0  0  0  0  0  0  0  0  0  0
  187.9050  178.0630  138.7290 C   0  0  0  0  0  3  0  0  0  0  0  0
  184.8630  179.0600  143.5560 C   0  0  0  0  0  3  0  0  0  0  0  0
  189.5300  177.3260  142.5350 C   0  0  0  0  0  3  0  0  0  0  0  0
  188.7950  177.5300  143.6970 C   0  0  0  0  0  0  0  0  0  0  0  0
  189.7650  177.3440  140.1090 C   0  0  0  0  0  0  0  0  0  0  0  0
  185.3500  178.7430  144.7470 C   0  0  0  0  0  3  0  0  0  0  0  0
  191.2910  176.9130  137.7660 C   0  0  0  0  0  3  0  0  0  0  0  0
  191.0320  176.8950  140.1780 C   0  0  0  0  0  3  0  0  0  0  0  0
  191.2660  176.2810  146.2960 C   0  0  0  0  0  0  0  0  0  0  0  0
  192.4740  175.5970  146.3680 O   0  0  0  0  0  1  0  0  0  0  0  0
  189.4540  177.2410  144.9900 C   0  0  0  0  0  0  0  0  0  0  0  0
  190.6430  176.7060  147.4710 C   0  0  0  0  0  3  0  0  0  0  0  0
  188.8330  177.6500  146.1790 C   0  0  0  0  0  3  0  0  0  0  0  0
  190.6730  176.5380  145.0530 C   0  0  0  0  0  0  0  0  0  0  0  0
  191.2870  176.0810  143.8910 O   0  0  0  0  0  1  0  0  0  0  0  0
  189.4200  177.3900  147.4190 C   0  0  0  0  0  0  0  0  0  0  0  0
  187.4800  178.4160  148.5610 C   0  0  0  0  0  1  0  0  0  0  0  0
  188.7700  177.8200  148.5790 O   0  0  0  0  0  0  0  0  0  0  0  0
  184.9470  179.0230  141.0970 O   0  0  0  0  0  0  0  0  0  0  0  0
  183.5860  178.8610  140.9480 N   0  0  0  0  0  2  0  0  0  0  0  0
  183.2680  179.2470  139.5860 C   0  0  0  0  0  2  0  0  0  0  0  0
  184.1070  180.2880  139.1910 O   0  0  0  0  0  1  0  0  0  0  0  0
  1 14  2  0  0  0  0
  1  3  1  0  0  0  0
  2 13  2  0  0  0  0
  4  7  1  1  0  0  0
  4  1  1  0  0  0  0
  5  7  2  0  0  0  0
  6 18  1  0  0  0  0
  7  2  1  0  0  0  0
  8 17  1  0  0  0  0
  8  9  1  0  0  0  0
  9 15  1  0  0  0  0
 10  4  1  0  0  0  0
 10 12  2  0  0  0  0
 11  9  2  0  0  0  0
 11  5  1  0  0  0  0
 12 16  1  0  0  0  0
 13 14  1  0  0  0  0
 14 21  1  0  0  0  0
 15 18  2  0  0  0  0
 15  2  1  0  0  0  0
 16  3  2  0  0  0  0
 17  6  2  0  0  0  0
 19 20  1  0  0  0  0
 19 22  1  0  0  0  0
 21 24  1  0  0  0  0
 21 23  2  0  0  0  0
 23 26  1  0  0  0  0
 24 19  2  0  0  0  0
 25 24  1  0  0  0  0
 26 22  2  0  0  0  0
 26 28  1  0  0  0  0
 27 28  1  0  0  0  0
 29 10  1  0  0  0  0
 30 29  1  0  0  0  0
 31 30  1  0  0  0  0
 32 31  1  0  0  0  0
M  END
>  <MODEL>
7

>  <REMARK>
 VINA RESULT:      -9.9      1.916      5.321
  Name = 
  5 active torsions:
  status: ('A' for Active; 'I' for Inactive)
    1  A    between atoms: C_13  and  N_18
    2  A    between atoms: C_14  and  O_29
    3  A    between atoms: O_15  and  C_26
    4  A    between atoms: C_16  and  C_27
    5  A    between atoms: N_18  and  O_29
                            x       y       z     vdW  Elec       q    Type
                         _______ _______ _______ _____ _____    ______ ____

>  <TORSDO>
F 5

$$$$
=
 OpenBabel10272413123D

 32 36  0  0  1  0  0  0  0  0999 V2000
  186.9670  177.9930  144.0210 C   0  0  0  0  0  0  0  0  0  0  0  0
  188.6710  177.6350  141.7950 C   0  0  0  0  0  0  0  0  0  0  0  0
  186.0550  178.3770  145.1660 C   0  0  0  0  0  3  0  0  0  0  0  0
  188.3400  177.6710  144.2480 C   0  0  2  0  0  3  0  0  0  0  0  0
  190.5650  177.2040  143.2430 C   0  0  0  0  0  3  0  0  0  0  0  0
  189.9310  177.4160  138.2440 C   0  0  0  0  0  3  0  0  0  0  0  0
  189.1970  177.5030  143.1110 C   0  0  0  0  0  0  0  0  0  0  0  0
  191.7160  177.0090  139.7430 O   0  0  0  0  0  0  0  0  0  0  0  0
  190.8760  177.1730  140.8540 C   0  0  0  0  0  0  0  0  0  0  0  0
  188.7760  177.5170  145.5350 C   0  0  0  0  0  0  0  0  0  0  0  0
  191.3950  177.0400  142.1370 C   0  0  0  0  0  3  0  0  0  0  0  0
  187.8340  177.6030  146.6710 C   0  0  0  0  0  3  0  0  0  0  0  0
  187.3160  177.9230  141.6250 C   0  0  0  0  0  3  0  0  0  0  0  0
  186.4630  178.0930  142.7080 C   0  0  0  0  0  0  0  0  0  0  0  0
  189.5120  177.4710  140.6690 C   0  0  0  0  0  0  0  0  0  0  0  0
  186.5700  177.9660  146.5040 C   0  0  0  0  0  3  0  0  0  0  0  0
  191.2210  177.1350  138.4390 C   0  0  0  0  0  3  0  0  0  0  0  0
  189.0460  177.5910  139.4120 C   0  0  0  0  0  3  0  0  0  0  0  0
  183.2590  179.0430  140.9040 C   0  0  0  0  0  0  0  0  0  0  0  0
  182.8200  179.3810  139.6290 O   0  0  0  0  0  1  0  0  0  0  0  0
  185.0430  178.4020  142.4260 C   0  0  0  0  0  0  0  0  0  0  0  0
  182.3440  178.9970  141.9590 C   0  0  0  0  0  3  0  0  0  0  0  0
  184.1160  178.3730  143.4780 C   0  0  0  0  0  3  0  0  0  0  0  0
  184.6100  178.7540  141.1330 C   0  0  0  0  0  0  0  0  0  0  0  0
  185.5180  178.8350  140.0810 O   0  0  0  0  0  1  0  0  0  0  0  0
  182.7690  178.6660  143.2530 C   0  0  0  0  0  0  0  0  0  0  0  0
  180.4690  178.5860  144.1570 C   0  0  0  0  0  1  0  0  0  0  0  0
  181.8780  178.6190  144.3290 O   0  0  0  0  0  0  0  0  0  0  0  0
  190.1160  177.2370  145.8250 O   0  0  0  0  0  0  0  0  0  0  0  0
  190.5240  176.8710  147.0900 N   0  0  0  0  0  2  0  0  0  0  0  0
  191.8540  176.3080  146.9510 C   0  0  0  0  0  2  0  0  0  0  0  0
  192.1890  175.6150  148.1130 O   0  0  0  0  0  1  0  0  0  0  0  0
  1  4  1  0  0  0  0
  1  3  1  0  0  0  0
  2  7  1  0  0  0  0
  3 16  2  0  0  0  0
  4  7  1  6  0  0  0
  4 10  1  0  0  0  0
  6 17  2  0  0  0  0
  6 18  1  0  0  0  0
  7  5  2  0  0  0  0
  8  9  1  0  0  0  0
  9 11  2  0  0  0  0
 10 29  1  0  0  0  0
 10 12  2  0  0  0  0
 11  5  1  0  0  0  0
 13  2  2  0  0  0  0
 13 14  1  0  0  0  0
 14  1  2  0  0  0  0
 15  9  1  0  0  0  0
 15  2  1  0  0  0  0
 16 12  1  0  0  0  0
 17  8  1  0  0  0  0
 18 15  2  0  0  0  0
 19 24  2  0  0  0  0
 19 22  1  0  0  0  0
 20 19  1  0  0  0  0
 21 14  1  0  0  0  0
 21 23  2  0  0  0  0
 22 26  2  0  0  0  0
 24 21  1  0  0  0  0
 25 24  1  0  0  0  0
 26 23  1  0  0  0  0
 26 28  1  0  0  0  0
 27 28  1  0  0  0  0
 29 30  1  0  0  0  0
 31 30  1  0  0  0  0
 31 32  1  0  0  0  0
M  END
>  <MODEL>
8

>  <REMARK>
 VINA RESULT:      -9.9      2.418      7.733
  Name = 
  5 active torsions:
  status: ('A' for Active; 'I' for Inactive)
    1  A    between atoms: C_13  and  N_18
    2  A    between atoms: C_14  and  O_29
    3  A    between atoms: O_15  and  C_26
    4  A    between atoms: C_16  and  C_27
    5  A    between atoms: N_18  and  O_29
                            x       y       z     vdW  Elec       q    Type
                         _______ _______ _______ _____ _____    ______ ____

>  <TORSDO>
F 5

$$$$
=
 OpenBabel10272413123D

 32 36  0  0  0  0  0  0  0  0999 V2000
  189.4670  176.9990  138.0200 C   0  0  0  0  0  0  0  0  0  0  0  0
  189.9450  177.0950  140.8030 C   0  0  0  0  0  0  0  0  0  0  0  0
  189.3550  177.0830  136.5130 C   0  0  0  0  0  2  0  0  0  0  0  0
  188.4880  177.6010  138.8670 C   0  0  0  0  0  0  0  0  0  0  0  0
  187.8460  178.2440  141.1810 C   0  0  0  0  0  3  0  0  0  0  0  0
  191.5940  176.6830  144.1740 C   0  0  0  0  0  3  0  0  0  0  0  0
  188.7480  177.6540  140.2760 C   0  0  0  0  0  0  0  0  0  0  0  0
  189.5250  177.8030  144.4360 O   0  0  0  0  0  0  0  0  0  0  0  0
  189.2730  177.7490  143.0580 C   0  0  0  0  0  0  0  0  0  0  0  0
  187.3380  178.0820  138.3060 C   0  0  0  0  0  0  0  0  0  0  0  0
  188.1000  178.2940  142.5490 C   0  0  0  0  0  3  0  0  0  0  0  0
  187.0720  177.9170  136.8610 C   0  0  0  0  0  3  0  0  0  0  0  0
  190.8580  176.4920  139.9370 C   0  0  0  0  0  3  0  0  0  0  0  0
  190.6350  176.4290  138.5680 C   0  0  0  0  0  0  0  0  0  0  0  0
  190.2070  177.1450  142.1940 C   0  0  0  0  0  0  0  0  0  0  0  0
  187.9840  177.4260  136.0340 C   0  0  0  0  0  3  0  0  0  0  0  0
  190.6980  177.2600  144.9770 C   0  0  0  0  0  3  0  0  0  0  0  0
  191.3310  176.6270  142.7230 C   0  0  0  0  0  3  0  0  0  0  0  0
  192.5100  173.8610  136.4900 C   0  0  0  0  0  0  0  0  0  0  0  0
  192.3640  172.5570  136.0310 O   0  0  0  0  0  1  0  0  0  0  0  0
  191.6650  175.7740  137.7300 C   0  0  0  0  0  0  0  0  0  0  0  0
  193.6610  174.5820  136.1650 C   0  0  0  0  0  3  0  0  0  0  0  0
  192.8320  176.4810  137.4070 C   0  0  0  0  0  3  0  0  0  0  0  0
  191.5120  174.4490  137.2780 C   0  0  0  0  0  0  0  0  0  0  0  0
  190.3850  173.7100  137.6240 O   0  0  0  0  0  1  0  0  0  0  0  0
  193.8300  175.8960  136.6260 C   0  0  0  0  0  0  0  0  0  0  0  0
  195.2150  177.1860  135.0330 C   0  0  0  0  0  1  0  0  0  0  0  0
  194.9750  176.6380  136.3220 O   0  0  0  0  0  0  0  0  0  0  0  0
  186.3560  178.7150  139.0760 O   0  0  0  0  0  0  0  0  0  0  0  0
  185.1400  179.0860  138.5430 N   0  0  0  0  0  2  0  0  0  0  0  0
  184.1690  178.9930  139.6170 C   0  0  0  0  0  2  0  0  0  0  0  0
  184.7140  179.5330  140.7820 O   0  0  0  0  0  1  0  0  0  0  0  0
  1 14  2  0  0  0  0
  1  4  1  0  0  0  0
  2 15  1  0  0  0  0
  3  1  1  0  0  0  0
  4  7  1  0  0  0  0
  5 11  1  0  0  0  0
  6 17  2  0  0  0  0
  7  2  1  0  0  0  0
  7  5  2  0  0  0  0
  8 17  1  0  0  0  0
  9  8  1  0  0  0  0
 10  4  2  0  0  0  0
 10 29  1  0  0  0  0
 11  9  2  0  0  0  0
 12 10  1  0  0  0  0
 13  2  2  0  0  0  0
 14 13  1  0  0  0  0
 15 18  2  0  0  0  0
 15  9  1  0  0  0  0
 16  3  1  0  0  0  0
 16 12  2  0  0  0  0
 18  6  1  0  0  0  0
 19 24  1  0  0  0  0
 20 19  1  0  0  0  0
 21 14  1  0  0  0  0
 22 19  2  0  0  0  0
 22 26  1  0  0  0  0
 23 21  1  0  0  0  0
 24 25  1  0  0  0  0
 24 21  2  0  0  0  0
 26 23  2  0  0  0  0
 27 28  1  0  0  0  0
 28 26  1  0  0  0  0
 30 29  1  0  0  0  0
 30 31  1  0  0  0  0
 31 32  1  0  0  0  0
M  END
>  <MODEL>
9

>  <REMARK>
 VINA RESULT:      -9.9      3.730      7.920
  Name = 
  5 active torsions:
  status: ('A' for Active; 'I' for Inactive)
    1  A    between atoms: C_13  and  N_18
    2  A    between atoms: C_14  and  O_29
    3  A    between atoms: O_15  and  C_26
    4  A    between atoms: C_16  and  C_27
    5  A    between atoms: N_18  and  O_29
                            x       y       z     vdW  Elec       q    Type
                         _______ _______ _______ _____ _____    ______ ____

>  <TORSDO>
F 5

$$$$
