=
 OpenBabel10272402013D

 28 31  0  0  1  0  0  0  0  0999 V2000
  186.4970  177.3660  145.7310 C   0  0  1  0  0  3  0  0  0  0  0  0
  187.7090  177.5890  144.8540 C   0  0  1  0  0  3  0  0  0  0  0  0
  187.8810  176.8940  146.1910 C   0  0  1  0  0  3  0  0  0  0  0  0
  189.9380  177.2350  147.5360 C   0  0  0  0  0  1  0  0  0  0  0  0
  188.5960  177.8290  147.1590 C   0  0  0  0  0  2  0  0  0  0  0  0
  186.0410  178.6970  146.3150 C   0  0  0  0  0  2  0  0  0  0  0  0
  185.6520  179.5690  145.2630 O   0  0  0  0  0  0  0  0  0  0  0  0
  183.8660  178.8550  142.1100 C   0  0  0  0  0  3  0  0  0  0  0  0
  184.6090  179.2700  144.3830 C   0  0  0  0  0  0  0  0  0  0  0  0
  182.2720  178.7810  143.9300 C   0  0  0  0  0  0  0  0  0  0  0  0
  184.8880  179.1550  143.0160 C   0  0  0  0  0  3  0  0  0  0  0  0
  183.2930  179.0810  144.8370 C   0  0  0  0  0  3  0  0  0  0  0  0
  181.0050  178.5990  144.3740 F   0  0  0  0  0  0  0  0  0  0  0  0
  182.5580  178.6680  142.5670 C   0  0  0  0  0  3  0  0  0  0  0  0
  187.7260  176.5470  143.7450 C   0  0  0  0  0  2  0  0  0  0  0  0
  188.9580  177.5820  141.7170 C   0  0  2  0  0  0  0  0  0  0  0  0
  190.8320  178.1740  143.0920 N   0  0  0  0  0  0  0  0  0  0  0  0
  189.8610  178.7130  142.1490 C   0  0  0  0  0  2  0  0  0  0  0  0
  191.0070  179.1740  144.1300 C   0  0  0  0  0  1  0  0  0  0  0  0
  190.2090  177.0090  143.7170 C   0  0  2  0  0  3  0  0  0  0  0  0
  191.2000  175.8620  143.7630 C   0  0  0  0  0  1  0  0  0  0  0  0
  187.6730  178.0680  141.4550 O   0  0  0  0  0  1  0  0  0  0  0  0
  188.9990  176.6050  142.8880 C   0  0  1  0  0  3  0  0  0  0  0  0
  189.5340  176.9320  140.4630 C   0  0  0  0  0  2  0  0  0  0  0  0
  188.7670  177.3070  139.2860 N   0  0  0  0  0  0  0  0  0  0  0  0
  189.3170  176.5370  138.1620 C   0  0  0  0  0  2  0  0  0  0  0  0
  189.7150  177.9250  138.3490 C   0  0  1  0  0  3  0  0  0  0  0  0
  188.9500  178.8060  137.3850 C   0  0  0  0  0  1  0  0  0  0  0  0
  1  3  1  0  0  0  0
  1  6  1  1  0  0  0
  2 15  1  6  0  0  0
  2  1  1  0  0  0  0
  2  3  1  0  0  0  0
  3  5  1  1  0  0  0
  5  4  1  0  0  0  0
  7  6  1  0  0  0  0
  8 14  2  0  0  0  0
  8 11  1  0  0  0  0
  9 12  1  0  0  0  0
  9  7  1  0  0  0  0
 10 13  1  0  0  0  0
 10 12  2  0  0  0  0
 11  9  2  0  0  0  0
 14 10  1  0  0  0  0
 16 22  1  6  0  0  0
 16 18  1  0  0  0  0
 16 23  1  0  0  0  0
 17 20  1  0  0  0  0
 17 19  1  0  0  0  0
 18 17  1  0  0  0  0
 20 21  1  6  0  0  0
 23 20  1  0  0  0  0
 23 15  1  1  0  0  0
 24 16  1  0  0  0  0
 25 24  1  0  0  0  0
 26 27  1  0  0  0  0
 26 25  1  0  0  0  0
 27 28  1  6  0  0  0
 27 25  1  0  0  0  0
M  END
>  <MODEL>
1

>  <REMARK>
 VINA RESULT:      -8.0      0.000      0.000
  Name = 
  8 active torsions:
  status: ('A' for Active; 'I' for Inactive)
    1  A    between atoms: C_1  and  C_11
    2  A    between atoms: N_6  and  C_11
    3  A    between atoms: C_9  and  O_18
    4  A    between atoms: C_10  and  C_14
    5  A    between atoms: C_14  and  O_18
    6  A    between atoms: C_17  and  C_19
    7  A    between atoms: C_19  and  C_27
    8  A    between atoms: C_20  and  C_25
                            x       y       z     vdW  Elec       q    Type
                         _______ _______ _______ _____ _____    ______ ____

>  <TORSDO>
F 8

$$$$
=
 OpenBabel10272402013D

 28 31  0  0  1  0  0  0  0  0999 V2000
  187.9980  178.7710  141.1960 C   0  0  1  0  0  3  0  0  0  0  0  0
  188.5170  177.3610  141.0140 C   0  0  1  0  0  3  0  0  0  0  0  0
  188.9000  178.4260  140.0040 C   0  0  1  0  0  3  0  0  0  0  0  0
  188.9330  178.8050  137.5520 C   0  0  0  0  0  1  0  0  0  0  0  0
  188.1690  178.1650  138.6930 C   0  0  0  0  0  2  0  0  0  0  0  0
  186.5070  178.8050  140.8880 C   0  0  0  0  0  2  0  0  0  0  0  0
  185.8130  177.9650  141.8010 O   0  0  0  0  0  0  0  0  0  0  0  0
  182.2170  178.7720  142.0290 C   0  0  0  0  0  3  0  0  0  0  0  0
  184.5780  178.3110  142.3530 C   0  0  0  0  0  0  0  0  0  0  0  0
  183.1710  178.8830  144.2510 C   0  0  0  0  0  0  0  0  0  0  0  0
  183.4680  178.4290  141.5080 C   0  0  0  0  0  3  0  0  0  0  0  0
  184.4220  178.5400  143.7300 C   0  0  0  0  0  3  0  0  0  0  0  0
  183.0280  179.1010  145.5800 F   0  0  0  0  0  0  0  0  0  0  0  0
  182.0680  178.9990  143.4000 C   0  0  0  0  0  3  0  0  0  0  0  0
  189.6860  177.1300  141.9610 C   0  0  0  0  0  2  0  0  0  0  0  0
  188.6120  177.0480  144.3150 C   0  0  2  0  0  0  0  0  0  0  0  0
  190.7460  177.3880  145.3570 N   0  0  0  0  0  0  0  0  0  0  0  0
  189.5840  176.5080  145.3380 C   0  0  0  0  0  2  0  0  0  0  0  0
  191.9130  176.5360  145.4980 C   0  0  0  0  0  1  0  0  0  0  0  0
  190.8230  178.0110  144.0370 C   0  0  2  0  0  3  0  0  0  0  0  0
  191.0950  179.4960  144.1880 C   0  0  0  0  0  1  0  0  0  0  0  0
  187.9070  175.9960  143.7240 O   0  0  0  0  0  1  0  0  0  0  0  0
  189.4940  177.8050  143.3270 C   0  0  1  0  0  3  0  0  0  0  0  0
  187.6430  178.0040  145.0020 C   0  0  0  0  0  2  0  0  0  0  0  0
  187.2510  177.4950  146.3070 N   0  0  0  0  0  0  0  0  0  0  0  0
  186.3390  178.4900  146.8900 C   0  0  0  0  0  2  0  0  0  0  0  0
  187.7370  178.4660  147.2970 C   0  0  1  0  0  3  0  0  0  0  0  0
  187.8630  177.7800  148.6390 C   0  0  0  0  0  1  0  0  0  0  0  0
  1  6  1  6  0  0  0
  2  1  1  0  0  0  0
  2 15  1  1  0  0  0
  3  5  1  6  0  0  0
  3  2  1  0  0  0  0
  3  1  1  0  0  0  0
  4  5  1  0  0  0  0
  6  7  1  0  0  0  0
  7  9  1  0  0  0  0
  8 14  1  0  0  0  0
  9 12  2  0  0  0  0
 10 13  1  0  0  0  0
 11  8  2  0  0  0  0
 11  9  1  0  0  0  0
 12 10  1  0  0  0  0
 14 10  2  0  0  0  0
 16 22  1  6  0  0  0
 16 24  1  0  0  0  0
 16 18  1  0  0  0  0
 17 19  1  0  0  0  0
 18 17  1  0  0  0  0
 20 21  1  1  0  0  0
 20 17  1  0  0  0  0
 23 15  1  6  0  0  0
 23 20  1  0  0  0  0
 23 16  1  0  0  0  0
 24 25  1  0  0  0  0
 25 26  1  0  0  0  0
 25 27  1  0  0  0  0
 26 27  1  0  0  0  0
 27 28  1  1  0  0  0
M  END
>  <MODEL>
2

>  <REMARK>
 VINA RESULT:      -7.4      1.946      5.260
  Name = 
  8 active torsions:
  status: ('A' for Active; 'I' for Inactive)
    1  A    between atoms: C_1  and  C_11
    2  A    between atoms: N_6  and  C_11
    3  A    between atoms: C_9  and  O_18
    4  A    between atoms: C_10  and  C_14
    5  A    between atoms: C_14  and  O_18
    6  A    between atoms: C_17  and  C_19
    7  A    between atoms: C_19  and  C_27
    8  A    between atoms: C_20  and  C_25
                            x       y       z     vdW  Elec       q    Type
                         _______ _______ _______ _____ _____    ______ ____

>  <TORSDO>
F 8

$$$$
=
 OpenBabel10272402013D

 28 31  0  0  1  0  0  0  0  0999 V2000
  186.0720  178.9180  143.5820 C   0  0  1  0  0  3  0  0  0  0  0  0
  186.2390  178.0920  142.3260 C   0  0  1  0  0  3  0  0  0  0  0  0
  185.1920  179.1890  142.3560 C   0  0  1  0  0  3  0  0  0  0  0  0
  183.4120  178.0970  141.0140 C   0  0  0  0  0  1  0  0  0  0  0  0
  183.8040  178.5610  142.4020 C   0  0  0  0  0  2  0  0  0  0  0  0
  185.4240  178.0660  144.6660 C   0  0  0  0  0  2  0  0  0  0  0  0
  185.8130  178.5480  145.9450 O   0  0  0  0  0  0  0  0  0  0  0  0
  188.3710  178.0560  148.5630 C   0  0  0  0  0  3  0  0  0  0  0  0
  187.0170  178.1860  146.5520 C   0  0  0  0  0  0  0  0  0  0  0  0
  189.2580  177.2500  146.4600 C   0  0  0  0  0  0  0  0  0  0  0  0
  187.1780  178.4090  147.9250 C   0  0  0  0  0  3  0  0  0  0  0  0
  188.0660  177.6030  145.8210 C   0  0  0  0  0  3  0  0  0  0  0  0
  190.2650  176.6880  145.7490 F   0  0  0  0  0  0  0  0  0  0  0  0
  189.4110  177.4770  147.8300 C   0  0  0  0  0  3  0  0  0  0  0  0
  187.4570  178.5860  141.5570 C   0  0  0  0  0  2  0  0  0  0  0  0
  189.3900  177.7500  140.0530 C   0  0  2  0  0  0  0  0  0  0  0  0
  190.7380  177.2530  141.9740 N   0  0  0  0  0  0  0  0  0  0  0  0
  190.7300  177.9810  140.7110 C   0  0  0  0  0  2  0  0  0  0  0  0
  191.4150  178.1000  142.9400 C   0  0  0  0  0  1  0  0  0  0  0  0
  189.3450  177.1380  142.4020 C   0  0  2  0  0  3  0  0  0  0  0  0
  189.0710  175.7240  142.8750 C   0  0  0  0  0  1  0  0  0  0  0  0
  189.0200  178.8770  139.3140 O   0  0  0  0  0  1  0  0  0  0  0  0
  188.4480  177.4640  141.2180 C   0  0  1  0  0  3  0  0  0  0  0  0
  189.4860  176.5340  139.1360 C   0  0  0  0  0  2  0  0  0  0  0  0
  190.4190  176.7790  138.0470 N   0  0  0  0  0  0  0  0  0  0  0  0
  190.2970  175.6410  137.1250 C   0  0  0  0  0  2  0  0  0  0  0  0
  191.3960  175.6820  138.0800 C   0  0  1  0  0  3  0  0  0  0  0  0
  192.6610  176.1280  137.3790 C   0  0  0  0  0  1  0  0  0  0  0  0
  1  6  1  1  0  0  0
  2 15  1  6  0  0  0
  2  3  1  0  0  0  0
  2  1  1  0  0  0  0
  3  5  1  1  0  0  0
  3  1  1  0  0  0  0
  4  5  1  0  0  0  0
  6  7  1  0  0  0  0
  7  9  1  0  0  0  0
  9 11  2  0  0  0  0
 10 14  1  0  0  0  0
 11  8  1  0  0  0  0
 12 10  2  0  0  0  0
 12  9  1  0  0  0  0
 13 10  1  0  0  0  0
 14  8  2  0  0  0  0
 16 22  1  6  0  0  0
 16 18  1  0  0  0  0
 16 23  1  0  0  0  0
 17 20  1  0  0  0  0
 17 19  1  0  0  0  0
 18 17  1  0  0  0  0
 20 21  1  6  0  0  0
 23 15  1  1  0  0  0
 23 20  1  0  0  0  0
 24 16  1  0  0  0  0
 25 27  1  0  0  0  0
 25 24  1  0  0  0  0
 26 25  1  0  0  0  0
 26 27  1  0  0  0  0
 27 28  1  6  0  0  0
M  END
>  <MODEL>
3

>  <REMARK>
 VINA RESULT:      -7.1      2.378      4.676
  Name = 
  8 active torsions:
  status: ('A' for Active; 'I' for Inactive)
    1  A    between atoms: C_1  and  C_11
    2  A    between atoms: N_6  and  C_11
    3  A    between atoms: C_9  and  O_18
    4  A    between atoms: C_10  and  C_14
    5  A    between atoms: C_14  and  O_18
    6  A    between atoms: C_17  and  C_19
    7  A    between atoms: C_19  and  C_27
    8  A    between atoms: C_20  and  C_25
                            x       y       z     vdW  Elec       q    Type
                         _______ _______ _______ _____ _____    ______ ____

>  <TORSDO>
F 8

$$$$
=
 OpenBabel10272402013D

 28 31  0  0  1  0  0  0  0  0999 V2000
  190.5360  177.5680  141.4760 C   0  0  1  0  0  3  0  0  0  0  0  0
  189.7550  176.8440  140.4030 C   0  0  1  0  0  3  0  0  0  0  0  0
  189.0180  177.7550  141.3660 C   0  0  1  0  0  3  0  0  0  0  0  0
  187.0480  177.7420  142.8740 C   0  0  0  0  0  1  0  0  0  0  0  0
  188.1900  176.9110  142.3260 C   0  0  0  0  0  2  0  0  0  0  0  0
  190.9880  176.5700  142.5340 C   0  0  0  0  0  2  0  0  0  0  0  0
  191.5730  177.2670  143.6260 O   0  0  0  0  0  0  0  0  0  0  0  0
  189.3190  177.6650  146.5240 C   0  0  0  0  0  3  0  0  0  0  0  0
  191.0820  177.1730  144.9300 C   0  0  0  0  0  0  0  0  0  0  0  0
  191.2820  176.4430  147.2400 C   0  0  0  0  0  0  0  0  0  0  0  0
  189.8390  177.7430  145.2290 C   0  0  0  0  0  3  0  0  0  0  0  0
  191.8020  176.5210  145.9450 C   0  0  0  0  0  3  0  0  0  0  0  0
  191.9820  175.8120  148.2130 F   0  0  0  0  0  0  0  0  0  0  0  0
  190.0400  177.0150  147.5300 C   0  0  0  0  0  3  0  0  0  0  0  0
  189.9360  177.5660  139.0740 C   0  0  0  0  0  2  0  0  0  0  0  0
  188.4110  178.3720  137.1440 C   0  0  2  0  0  0  0  0  0  0  0  0
  189.1480  176.5710  135.7410 N   0  0  0  0  0  0  0  0  0  0  0  0
  189.0040  178.0210  135.8000 C   0  0  0  0  0  2  0  0  0  0  0  0
  190.4100  176.3030  135.0740 C   0  0  0  0  0  1  0  0  0  0  0  0
  189.2820  176.1060  137.1200 C   0  0  2  0  0  3  0  0  0  0  0  0
  188.4030  174.8880  137.3360 C   0  0  0  0  0  1  0  0  0  0  0  0
  188.8910  179.6150  137.5680 O   0  0  0  0  0  1  0  0  0  0  0  0
  188.8420  177.2250  138.0530 C   0  0  1  0  0  3  0  0  0  0  0  0
  186.8910  178.4130  137.0260 C   0  0  0  0  0  2  0  0  0  0  0  0
  186.2640  177.9410  138.2500 N   0  0  0  0  0  0  0  0  0  0  0  0
  184.8810  177.5830  137.9020 C   0  0  0  0  0  2  0  0  0  0  0  0
  185.1570  178.8650  138.5350 C   0  0  1  0  0  3  0  0  0  0  0  0
  184.8180  178.7870  140.0080 C   0  0  0  0  0  1  0  0  0  0  0  0
  1  6  1  1  0  0  0
  2 15  1  6  0  0  0
  2  3  1  0  0  0  0
  2  1  1  0  0  0  0
  3  1  1  0  0  0  0
  3  5  1  1  0  0  0
  5  4  1  0  0  0  0
  6  7  1  0  0  0  0
  7  9  1  0  0  0  0
  8 14  1  0  0  0  0
  9 11  1  0  0  0  0
  9 12  2  0  0  0  0
 10 14  2  0  0  0  0
 10 13  1  0  0  0  0
 11  8  2  0  0  0  0
 12 10  1  0  0  0  0
 16 22  1  1  0  0  0
 16 23  1  0  0  0  0
 17 18  1  0  0  0  0
 17 20  1  0  0  0  0
 18 16  1  0  0  0  0
 19 17  1  0  0  0  0
 20 21  1  6  0  0  0
 20 23  1  0  0  0  0
 23 15  1  1  0  0  0
 24 16  1  0  0  0  0
 24 25  1  0  0  0  0
 25 27  1  0  0  0  0
 26 25  1  0  0  0  0
 26 27  1  0  0  0  0
 27 28  1  1  0  0  0
M  END
>  <MODEL>
4

>  <REMARK>
 VINA RESULT:      -7.0      3.676      6.635
  Name = 
  8 active torsions:
  status: ('A' for Active; 'I' for Inactive)
    1  A    between atoms: C_1  and  C_11
    2  A    between atoms: N_6  and  C_11
    3  A    between atoms: C_9  and  O_18
    4  A    between atoms: C_10  and  C_14
    5  A    between atoms: C_14  and  O_18
    6  A    between atoms: C_17  and  C_19
    7  A    between atoms: C_19  and  C_27
    8  A    between atoms: C_20  and  C_25
                            x       y       z     vdW  Elec       q    Type
                         _______ _______ _______ _____ _____    ______ ____

>  <TORSDO>
F 8

$$$$
=
 OpenBabel10272402013D

 28 31  0  0  1  0  0  0  0  0999 V2000
  188.7170  177.1880  140.8600 C   0  0  1  0  0  3  0  0  0  0  0  0
  189.7570  177.9030  140.0260 C   0  0  1  0  0  3  0  0  0  0  0  0
  190.2100  176.9610  141.1260 C   0  0  1  0  0  3  0  0  0  0  0  0
  191.6020  176.8620  143.1770 C   0  0  0  0  0  1  0  0  0  0  0  0
  190.7940  177.7730  142.2760 C   0  0  0  0  0  2  0  0  0  0  0  0
  188.0400  178.1870  141.7900 C   0  0  0  0  0  2  0  0  0  0  0  0
  187.0820  177.5130  142.5950 O   0  0  0  0  0  0  0  0  0  0  0  0
  188.1920  177.4810  146.1170 C   0  0  0  0  0  3  0  0  0  0  0  0
  187.0430  177.6400  143.9850 C   0  0  0  0  0  0  0  0  0  0  0  0
  185.8690  178.1590  146.0500 C   0  0  0  0  0  0  0  0  0  0  0  0
  188.1990  177.3620  144.7240 C   0  0  0  0  0  3  0  0  0  0  0  0
  185.8750  178.0400  144.6570 C   0  0  0  0  0  3  0  0  0  0  0  0
  184.7410  178.5460  146.6910 F   0  0  0  0  0  0  0  0  0  0  0  0
  187.0280  177.8790  146.7800 C   0  0  0  0  0  3  0  0  0  0  0  0
  189.8930  177.2000  138.6820 C   0  0  0  0  0  2  0  0  0  0  0  0
  188.2340  178.3590  137.0670 C   0  0  2  0  0  0  0  0  0  0  0  0
  188.2570  176.4610  135.6000 N   0  0  0  0  0  0  0  0  0  0  0  0
  188.4540  177.9050  135.6440 C   0  0  0  0  0  2  0  0  0  0  0  0
  189.2690  175.9280  134.7050 C   0  0  0  0  0  1  0  0  0  0  0  0
  188.5550  175.9560  136.9380 C   0  0  2  0  0  3  0  0  0  0  0  0
  187.4870  174.9630  137.3590 C   0  0  0  0  0  1  0  0  0  0  0  0
  189.0540  179.4550  137.3520 O   0  0  0  0  0  1  0  0  0  0  0  0
  188.5700  177.1300  137.9060 C   0  0  1  0  0  3  0  0  0  0  0  0
  186.7690  178.7420  137.2490 C   0  0  0  0  0  2  0  0  0  0  0  0
  186.2500  178.2220  138.5040 N   0  0  0  0  0  0  0  0  0  0  0  0
  184.9240  177.6590  138.2100 C   0  0  0  0  0  2  0  0  0  0  0  0
  185.0300  178.9870  138.8000 C   0  0  1  0  0  3  0  0  0  0  0  0
  184.7470  178.9060  140.2850 C   0  0  0  0  0  1  0  0  0  0  0  0
  1  3  1  0  0  0  0
  1  6  1  1  0  0  0
  2 15  1  6  0  0  0
  2  1  1  0  0  0  0
  2  3  1  0  0  0  0
  3  5  1  1  0  0  0
  5  4  1  0  0  0  0
  6  7  1  0  0  0  0
  7  9  1  0  0  0  0
  8 14  1  0  0  0  0
  9 12  2  0  0  0  0
  9 11  1  0  0  0  0
 10 13  1  0  0  0  0
 10 14  2  0  0  0  0
 11  8  2  0  0  0  0
 12 10  1  0  0  0  0
 16 24  1  0  0  0  0
 16 22  1  1  0  0  0
 16 23  1  0  0  0  0
 17 18  1  0  0  0  0
 17 20  1  0  0  0  0
 18 16  1  0  0  0  0
 19 17  1  0  0  0  0
 20 21  1  1  0  0  0
 20 23  1  0  0  0  0
 23 15  1  6  0  0  0
 24 25  1  0  0  0  0
 25 27  1  0  0  0  0
 26 25  1  0  0  0  0
 26 27  1  0  0  0  0
 27 28  1  1  0  0  0
M  END
>  <MODEL>
5

>  <REMARK>
 VINA RESULT:      -7.0      2.382      5.473
  Name = 
  8 active torsions:
  status: ('A' for Active; 'I' for Inactive)
    1  A    between atoms: C_1  and  C_11
    2  A    between atoms: N_6  and  C_11
    3  A    between atoms: C_9  and  O_18
    4  A    between atoms: C_10  and  C_14
    5  A    between atoms: C_14  and  O_18
    6  A    between atoms: C_17  and  C_19
    7  A    between atoms: C_19  and  C_27
    8  A    between atoms: C_20  and  C_25
                            x       y       z     vdW  Elec       q    Type
                         _______ _______ _______ _____ _____    ______ ____

>  <TORSDO>
F 8

$$$$
=
 OpenBabel10272402013D

 28 31  0  0  1  0  0  0  0  0999 V2000
  188.6080  177.1230  141.7910 C   0  0  1  0  0  3  0  0  0  0  0  0
  189.8960  177.6260  141.1780 C   0  0  1  0  0  3  0  0  0  0  0  0
  189.9030  177.1310  142.6120 C   0  0  1  0  0  3  0  0  0  0  0  0
  191.5380  178.6340  143.7180 C   0  0  0  0  0  1  0  0  0  0  0  0
  190.0660  178.3170  143.5550 C   0  0  0  0  0  2  0  0  0  0  0  0
  187.6750  178.3000  142.0470 C   0  0  0  0  0  2  0  0  0  0  0  0
  186.4490  177.8260  142.5880 O   0  0  0  0  0  0  0  0  0  0  0  0
  184.4860  178.8010  145.5600 C   0  0  0  0  0  3  0  0  0  0  0  0
  186.0970  178.0080  143.9270 C   0  0  0  0  0  0  0  0  0  0  0  0
  186.5610  177.7990  146.3040 C   0  0  0  0  0  0  0  0  0  0  0  0
  184.8680  178.6060  144.2290 C   0  0  0  0  0  3  0  0  0  0  0  0
  186.9430  177.6040  144.9740 C   0  0  0  0  0  3  0  0  0  0  0  0
  187.3810  177.4070  147.3080 F   0  0  0  0  0  0  0  0  0  0  0  0
  185.3320  178.3980  146.5970 C   0  0  0  0  0  3  0  0  0  0  0  0
  190.4790  176.5470  140.2750 C   0  0  0  0  0  2  0  0  0  0  0  0
  190.9900  175.8810  137.8270 C   0  0  2  0  0  0  0  0  0  0  0  0
  188.8050  176.5800  137.1260 N   0  0  0  0  0  0  0  0  0  0  0  0
  189.7330  175.4560  137.1050 C   0  0  0  0  0  2  0  0  0  0  0  0
  187.4810  176.0250  137.3490 C   0  0  0  0  0  1  0  0  0  0  0  0
  189.1400  177.3800  138.3020 C   0  0  2  0  0  3  0  0  0  0  0  0
  189.1610  178.8510  137.9310 C   0  0  0  0  0  1  0  0  0  0  0  0
  191.5670  174.7820  138.4700 O   0  0  0  0  0  1  0  0  0  0  0  0
  190.5160  176.9590  138.7970 C   0  0  1  0  0  3  0  0  0  0  0  0
  191.9720  176.4690  136.8180 C   0  0  0  0  0  2  0  0  0  0  0  0
  193.3410  176.1240  137.1670 N   0  0  0  0  0  0  0  0  0  0  0  0
  194.1810  176.5430  136.0370 C   0  0  0  0  0  2  0  0  0  0  0  0
  193.7920  175.1460  136.1670 C   0  0  1  0  0  3  0  0  0  0  0  0
  194.9440  174.3500  136.7420 C   0  0  0  0  0  1  0  0  0  0  0  0
  1  6  1  1  0  0  0
  1  3  1  0  0  0  0
  2 15  1  6  0  0  0
  2  1  1  0  0  0  0
  2  3  1  0  0  0  0
  3  5  1  1  0  0  0
  5  4  1  0  0  0  0
  6  7  1  0  0  0  0
  7  9  1  0  0  0  0
  8 14  1  0  0  0  0
  9 11  1  0  0  0  0
  9 12  2  0  0  0  0
 10 14  2  0  0  0  0
 10 13  1  0  0  0  0
 11  8  2  0  0  0  0
 12 10  1  0  0  0  0
 16 22  1  1  0  0  0
 16 23  1  0  0  0  0
 17 19  1  0  0  0  0
 17 20  1  0  0  0  0
 18 17  1  0  0  0  0
 18 16  1  0  0  0  0
 20 21  1  6  0  0  0
 20 23  1  0  0  0  0
 23 15  1  1  0  0  0
 24 25  1  0  0  0  0
 24 16  1  0  0  0  0
 26 27  1  0  0  0  0
 26 25  1  0  0  0  0
 27 28  1  1  0  0  0
 27 25  1  0  0  0  0
M  END
>  <MODEL>
6

>  <REMARK>
 VINA RESULT:      -6.8      2.986      5.123
  Name = 
  8 active torsions:
  status: ('A' for Active; 'I' for Inactive)
    1  A    between atoms: C_1  and  C_11
    2  A    between atoms: N_6  and  C_11
    3  A    between atoms: C_9  and  O_18
    4  A    between atoms: C_10  and  C_14
    5  A    between atoms: C_14  and  O_18
    6  A    between atoms: C_17  and  C_19
    7  A    between atoms: C_19  and  C_27
    8  A    between atoms: C_20  and  C_25
                            x       y       z     vdW  Elec       q    Type
                         _______ _______ _______ _____ _____    ______ ____

>  <TORSDO>
F 8

$$$$
=
 OpenBabel10272402013D

 28 31  0  0  1  0  0  0  0  0999 V2000
  189.0610  178.0810  140.5260 C   0  0  1  0  0  3  0  0  0  0  0  0
  189.6210  176.6920  140.7360 C   0  0  1  0  0  3  0  0  0  0  0  0
  190.3680  177.6630  139.8410 C   0  0  1  0  0  3  0  0  0  0  0  0
  190.8180  175.8380  138.2210 C   0  0  0  0  0  1  0  0  0  0  0  0
  190.2260  177.2230  138.3890 C   0  0  0  0  0  2  0  0  0  0  0  0
  187.8180  177.9990  139.6500 C   0  0  0  0  0  2  0  0  0  0  0  0
  186.8060  178.8450  140.1800 O   0  0  0  0  0  0  0  0  0  0  0  0
  183.1990  178.4080  140.8400 C   0  0  0  0  0  3  0  0  0  0  0  0
  185.4460  178.6280  139.9490 C   0  0  0  0  0  0  0  0  0  0  0  0
  183.5740  178.2050  138.4570 C   0  0  0  0  0  0  0  0  0  0  0  0
  184.5660  178.6210  141.0380 C   0  0  0  0  0  3  0  0  0  0  0  0
  184.9420  178.4180  138.6540 C   0  0  0  0  0  3  0  0  0  0  0  0
  183.0950  178.0040  137.2060 F   0  0  0  0  0  0  0  0  0  0  0  0
  182.7030  178.2000  139.5490 C   0  0  0  0  0  3  0  0  0  0  0  0
  190.3150  176.6280  142.0900 C   0  0  0  0  0  2  0  0  0  0  0  0
  188.5050  177.0170  143.8990 C   0  0  2  0  0  0  0  0  0  0  0  0
  190.1690  177.6680  145.4980 N   0  0  0  0  0  0  0  0  0  0  0  0
  189.0530  176.7560  145.2820 C   0  0  0  0  0  2  0  0  0  0  0  0
  191.1900  176.9180  146.2090 C   0  0  0  0  0  1  0  0  0  0  0  0
  190.7110  177.9900  144.1800 C   0  0  2  0  0  3  0  0  0  0  0  0
  190.9670  179.4820  144.0830 C   0  0  0  0  0  1  0  0  0  0  0  0
  188.0050  175.8320  143.3510 O   0  0  0  0  0  1  0  0  0  0  0  0
  189.6950  177.5770  143.1260 C   0  0  1  0  0  3  0  0  0  0  0  0
  187.3930  178.0570  143.9890 C   0  0  0  0  0  2  0  0  0  0  0  0
  186.3680  177.6390  144.9320 N   0  0  0  0  0  0  0  0  0  0  0  0
  185.1550  178.4010  144.6000 C   0  0  0  0  0  2  0  0  0  0  0  0
  185.9990  178.8340  145.7050 C   0  0  1  0  0  3  0  0  0  0  0  0
  185.3810  178.4000  147.0160 C   0  0  0  0  0  1  0  0  0  0  0  0
  1  6  1  6  0  0  0
  1  2  1  0  0  0  0
  2 15  1  1  0  0  0
  3  5  1  6  0  0  0
  3  1  1  0  0  0  0
  3  2  1  0  0  0  0
  4  5  1  0  0  0  0
  6  7  1  0  0  0  0
  8 11  1  0  0  0  0
  9  7  1  0  0  0  0
  9 11  2  0  0  0  0
 10 12  2  0  0  0  0
 10 14  1  0  0  0  0
 12  9  1  0  0  0  0
 13 10  1  0  0  0  0
 14  8  2  0  0  0  0
 16 22  1  6  0  0  0
 16 24  1  0  0  0  0
 16 18  1  0  0  0  0
 17 19  1  0  0  0  0
 18 17  1  0  0  0  0
 20 21  1  1  0  0  0
 20 17  1  0  0  0  0
 23 15  1  6  0  0  0
 23 16  1  0  0  0  0
 23 20  1  0  0  0  0
 24 25  1  0  0  0  0
 25 27  1  0  0  0  0
 26 25  1  0  0  0  0
 26 27  1  0  0  0  0
 27 28  1  1  0  0  0
M  END
>  <MODEL>
7

>  <REMARK>
 VINA RESULT:      -6.8      2.550      5.595
  Name = 
  8 active torsions:
  status: ('A' for Active; 'I' for Inactive)
    1  A    between atoms: C_1  and  C_11
    2  A    between atoms: N_6  and  C_11
    3  A    between atoms: C_9  and  O_18
    4  A    between atoms: C_10  and  C_14
    5  A    between atoms: C_14  and  O_18
    6  A    between atoms: C_17  and  C_19
    7  A    between atoms: C_19  and  C_27
    8  A    between atoms: C_20  and  C_25
                            x       y       z     vdW  Elec       q    Type
                         _______ _______ _______ _____ _____    ______ ____

>  <TORSDO>
F 8

$$$$
=
 OpenBabel10272402013D

 28 31  0  0  1  0  0  0  0  0999 V2000
  188.5100  177.2760  140.8400 C   0  0  1  0  0  3  0  0  0  0  0  0
  189.6360  177.9780  140.1140 C   0  0  1  0  0  3  0  0  0  0  0  0
  189.9690  176.9540  141.1820 C   0  0  1  0  0  3  0  0  0  0  0  0
  190.8270  176.6490  143.4910 C   0  0  0  0  0  1  0  0  0  0  0  0
  190.5190  177.6670  142.4110 C   0  0  0  0  0  2  0  0  0  0  0  0
  187.8270  178.2570  141.7840 C   0  0  0  0  0  2  0  0  0  0  0  0
  186.7910  177.5910  142.4940 O   0  0  0  0  0  0  0  0  0  0  0  0
  184.9700  178.7610  145.4860 C   0  0  0  0  0  3  0  0  0  0  0  0
  186.5030  177.8600  143.8330 C   0  0  0  0  0  0  0  0  0  0  0  0
  187.0790  177.8060  146.1940 C   0  0  0  0  0  0  0  0  0  0  0  0
  185.2890  178.4800  144.1540 C   0  0  0  0  0  3  0  0  0  0  0  0
  187.3980  177.5240  144.8630 C   0  0  0  0  0  3  0  0  0  0  0  0
  187.9460  177.4780  147.1820 F   0  0  0  0  0  0  0  0  0  0  0  0
  185.8650  178.4240  146.5060 C   0  0  0  0  0  3  0  0  0  0  0  0
  189.8220  177.3440  138.7420 C   0  0  0  0  0  2  0  0  0  0  0  0
  188.1680  178.4660  137.0970 C   0  0  2  0  0  0  0  0  0  0  0  0
  188.2510  176.5660  135.6360 N   0  0  0  0  0  0  0  0  0  0  0  0
  188.4200  178.0140  135.6790 C   0  0  0  0  0  2  0  0  0  0  0  0
  189.2880  176.0510  134.7590 C   0  0  0  0  0  1  0  0  0  0  0  0
  188.5370  176.0700  136.9800 C   0  0  2  0  0  3  0  0  0  0  0  0
  187.4820  175.0580  137.3860 C   0  0  0  0  0  1  0  0  0  0  0  0
  188.9610  179.5790  137.3920 O   0  0  0  0  0  1  0  0  0  0  0  0
  188.5140  177.2460  137.9450 C   0  0  1  0  0  3  0  0  0  0  0  0
  186.6930  178.8220  137.2550 C   0  0  0  0  0  2  0  0  0  0  0  0
  186.1580  178.2760  138.4920 N   0  0  0  0  0  0  0  0  0  0  0  0
  184.8500  177.6920  138.1630 C   0  0  0  0  0  2  0  0  0  0  0  0
  184.9180  179.0130  138.7720 C   0  0  1  0  0  3  0  0  0  0  0  0
  184.6060  178.9080  140.2490 C   0  0  0  0  0  1  0  0  0  0  0  0
  1  3  1  0  0  0  0
  1  6  1  1  0  0  0
  2 15  1  6  0  0  0
  2  1  1  0  0  0  0
  2  3  1  0  0  0  0
  3  5  1  1  0  0  0
  5  4  1  0  0  0  0
  6  7  1  0  0  0  0
  7  9  1  0  0  0  0
  8 14  1  0  0  0  0
  9 11  1  0  0  0  0
  9 12  2  0  0  0  0
 10 14  2  0  0  0  0
 10 13  1  0  0  0  0
 11  8  2  0  0  0  0
 12 10  1  0  0  0  0
 16 24  1  0  0  0  0
 16 22  1  1  0  0  0
 16 23  1  0  0  0  0
 17 18  1  0  0  0  0
 17 20  1  0  0  0  0
 18 16  1  0  0  0  0
 19 17  1  0  0  0  0
 20 21  1  1  0  0  0
 20 23  1  0  0  0  0
 23 15  1  6  0  0  0
 24 25  1  0  0  0  0
 25 27  1  0  0  0  0
 26 25  1  0  0  0  0
 26 27  1  0  0  0  0
 27 28  1  1  0  0  0
M  END
>  <MODEL>
8

>  <REMARK>
 VINA RESULT:      -6.8      2.589      5.453
  Name = 
  8 active torsions:
  status: ('A' for Active; 'I' for Inactive)
    1  A    between atoms: C_1  and  C_11
    2  A    between atoms: N_6  and  C_11
    3  A    between atoms: C_9  and  O_18
    4  A    between atoms: C_10  and  C_14
    5  A    between atoms: C_14  and  O_18
    6  A    between atoms: C_17  and  C_19
    7  A    between atoms: C_19  and  C_27
    8  A    between atoms: C_20  and  C_25
                            x       y       z     vdW  Elec       q    Type
                         _______ _______ _______ _____ _____    ______ ____

>  <TORSDO>
F 8

$$$$
=
 OpenBabel10272402013D

 28 31  0  0  1  0  0  0  0  0999 V2000
  185.9570  178.4740  142.9870 C   0  0  1  0  0  3  0  0  0  0  0  0
  184.6320  178.2420  142.2940 C   0  0  1  0  0  3  0  0  0  0  0  0
  184.7580  179.3810  143.2880 C   0  0  1  0  0  3  0  0  0  0  0  0
  182.5320  178.7790  144.2060 C   0  0  0  0  0  1  0  0  0  0  0  0
  183.9840  179.0320  144.5540 C   0  0  0  0  0  2  0  0  0  0  0  0
  186.1990  177.3640  144.0020 C   0  0  0  0  0  2  0  0  0  0  0  0
  187.3620  177.6610  144.7620 O   0  0  0  0  0  0  0  0  0  0  0  0
  190.0090  175.8350  142.9480 C   0  0  0  0  0  3  0  0  0  0  0  0
  188.6220  177.1510  144.4420 C   0  0  0  0  0  0  0  0  0  0  0  0
  190.9960  176.8870  144.8920 C   0  0  0  0  0  0  0  0  0  0  0  0
  188.7610  176.3600  143.2960 C   0  0  0  0  0  3  0  0  0  0  0  0
  189.7480  177.4120  145.2400 C   0  0  0  0  0  3  0  0  0  0  0  0
  192.0780  177.1430  145.6650 F   0  0  0  0  0  0  0  0  0  0  0  0
  191.1260  176.0980  143.7450 C   0  0  0  0  0  3  0  0  0  0  0  0
  184.6980  178.8060  140.8810 C   0  0  0  0  0  2  0  0  0  0  0  0
  183.1930  179.4630  138.8800 C   0  0  2  0  0  0  0  0  0  0  0  0
  183.2300  177.2130  138.0480 N   0  0  0  0  0  0  0  0  0  0  0  0
  183.4830  178.6000  137.6750 C   0  0  0  0  0  2  0  0  0  0  0  0
  184.2730  176.4160  137.4270 C   0  0  0  0  0  1  0  0  0  0  0  0
  183.4220  177.1250  139.4930 C   0  0  2  0  0  3  0  0  0  0  0  0
  182.2900  176.3260  140.1120 C   0  0  0  0  0  1  0  0  0  0  0  0
  184.0370  180.5770  138.8850 O   0  0  0  0  0  1  0  0  0  0  0  0
  183.4240  178.5340  140.0680 C   0  0  1  0  0  3  0  0  0  0  0  0
  181.7360  179.9130  138.8340 C   0  0  0  0  0  2  0  0  0  0  0  0
  181.6450  181.3630  138.7580 N   0  0  0  0  0  0  0  0  0  0  0  0
  180.2500  181.7120  139.0610 C   0  0  0  0  0  2  0  0  0  0  0  0
  180.6970  181.6640  137.6760 C   0  0  1  0  0  3  0  0  0  0  0  0
  180.9520  183.0700  137.1760 C   0  0  0  0  0  1  0  0  0  0  0  0
  1  3  1  0  0  0  0
  1  6  1  1  0  0  0
  2 15  1  6  0  0  0
  2  1  1  0  0  0  0
  2  3  1  0  0  0  0
  3  5  1  1  0  0  0
  4  5  1  0  0  0  0
  6  7  1  0  0  0  0
  8 11  2  0  0  0  0
  8 14  1  0  0  0  0
  9  7  1  0  0  0  0
  9 12  2  0  0  0  0
 10 12  1  0  0  0  0
 10 13  1  0  0  0  0
 11  9  1  0  0  0  0
 14 10  2  0  0  0  0
 16 22  1  1  0  0  0
 16 23  1  0  0  0  0
 17 20  1  0  0  0  0
 18 17  1  0  0  0  0
 18 16  1  0  0  0  0
 19 17  1  0  0  0  0
 20 23  1  0  0  0  0
 20 21  1  1  0  0  0
 23 15  1  6  0  0  0
 24 16  1  0  0  0  0
 25 24  1  0  0  0  0
 25 26  1  0  0  0  0
 27 28  1  1  0  0  0
 27 25  1  0  0  0  0
 27 26  1  0  0  0  0
M  END
>  <MODEL>
9

>  <REMARK>
 VINA RESULT:      -6.7      4.178      7.438
  Name = 
  8 active torsions:
  status: ('A' for Active; 'I' for Inactive)
    1  A    between atoms: C_1  and  C_11
    2  A    between atoms: N_6  and  C_11
    3  A    between atoms: C_9  and  O_18
    4  A    between atoms: C_10  and  C_14
    5  A    between atoms: C_14  and  O_18
    6  A    between atoms: C_17  and  C_19
    7  A    between atoms: C_19  and  C_27
    8  A    between atoms: C_20  and  C_25
                            x       y       z     vdW  Elec       q    Type
                         _______ _______ _______ _____ _____    ______ ____

>  <TORSDO>
F 8

$$$$
