=
 OpenBabel10272400333D

 31 34  0  0  1  0  0  0  0  0999 V2000
  183.4790  178.9730  141.1460 C   0  0  0  0  0  0  0  0  0  0  0  0
  186.7410  178.2450  139.4380 C   0  0  0  0  0  0  0  0  0  0  0  0
  186.3650  178.2150  137.9500 C   0  0  2  0  0  3  0  0  0  0  0  0
  185.3130  176.8550  136.3300 C   0  0  0  0  0  2  0  0  0  0  0  0
  185.7600  178.4510  140.4500 C   0  0  0  0  0  0  0  0  0  0  0  0
  183.8400  178.8210  142.4840 C   0  0  0  0  0  3  0  0  0  0  0  0
  185.0850  177.4670  137.6800 C   0  0  0  0  0  2  0  0  0  0  0  0
  188.4170  177.9370  141.2040 C   0  0  0  0  0  0  0  0  0  0  0  0
  182.2040  179.2940  140.8200 F   0  0  0  0  0  0  0  0  0  0  0  0
  189.1660  179.0630  137.8170 C   0  0  0  0  0  2  0  0  0  0  0  0
  186.7290  176.9870  136.0170 N   0  0  0  0  0  0  0  0  0  0  0  0
  187.4270  178.0470  142.1760 C   0  0  0  0  0  3  0  0  0  0  0  0
  188.1040  178.1130  139.8450 C   0  0  0  0  0  0  0  0  0  0  0  0
  184.4310  178.7920  140.1390 C   0  0  0  0  0  3  0  0  0  0  0  0
  187.2420  175.6400  135.8310 C   0  0  0  0  0  1  0  0  0  0  0  0
  186.1150  178.3260  141.8150 C   0  0  0  0  0  0  0  0  0  0  0  0
  185.1560  178.5000  142.8180 C   0  0  0  0  0  3  0  0  0  0  0  0
  189.1690  178.1810  138.9360 O   0  0  0  0  0  0  0  0  0  0  0  0
  188.3390  178.5020  136.6700 C   0  0  0  0  0  2  0  0  0  0  0  0
  187.3740  177.5210  137.1520 N   0  0  1  0  0  0  0  0  0  0  0  0
  189.8300  177.7240  141.6510 C   0  0  0  0  0  2  0  0  0  0  0  0
  190.6860  179.1220  144.0940 C   0  0  0  0  0  1  0  0  0  0  0  0
  189.4860  175.8280  143.0500 O   0  0  0  0  0  0  0  0  0  0  0  0
  189.8800  177.0230  142.9760 C   0  0  0  0  0  0  0  0  0  0  0  0
  190.3680  177.7000  144.1500 N   0  0  0  0  0  0  0  0  0  0  0  0
  191.6850  176.6020  145.8220 C   0  0  0  0  0  2  0  0  0  0  0  0
  190.4930  177.0120  145.4060 C   0  0  0  0  0  0  0  0  0  0  0  0
  189.3780  176.7540  146.2120 O   0  0  0  0  0  0  0  0  0  0  0  0
  188.4660  177.7660  146.6210 C   0  0  0  0  0  3  0  0  0  0  0  0
  188.2230  177.6510  148.1100 C   0  0  0  0  0  1  0  0  0  0  0  0
  187.1480  177.6080  145.8870 C   0  0  0  0  0  1  0  0  0  0  0  0
  1  6  1  0  0  0  0
  2 13  2  0  0  0  0
  2  5  1  0  0  0  0
  3  7  1  1  0  0  0
  3  2  1  0  0  0  0
  4  7  1  0  0  0  0
  5 16  2  0  0  0  0
  6 17  2  0  0  0  0
  8 21  1  0  0  0  0
  8 12  2  0  0  0  0
  9  1  1  0  0  0  0
 10 18  1  0  0  0  0
 11  4  1  0  0  0  0
 11 20  1  0  0  0  0
 13  8  1  0  0  0  0
 14  5  1  0  0  0  0
 14  1  2  0  0  0  0
 15 11  1  0  0  0  0
 16 12  1  0  0  0  0
 16 17  1  0  0  0  0
 18 13  1  0  0  0  0
 19 10  1  0  0  0  0
 20 19  1  6  0  0  0
 20  3  1  0  0  0  0
 21 24  1  0  0  0  0
 22 25  1  0  0  0  0
 24 23  2  0  0  0  0
 24 25  1  0  0  0  0
 25 27  1  0  0  0  0
 27 26  2  0  0  0  0
 27 28  1  0  0  0  0
 28 29  1  0  0  0  0
 29 30  1  0  0  0  0
 31 29  1  0  0  0  0
M  END
>  <MODEL>
1

>  <REMARK>
 VINA RESULT:      -8.4      0.000      0.000
  Name = 
  5 active torsions:
  status: ('A' for Active; 'I' for Inactive)
    1  A    between atoms: C_1  and  O_24
    2  A    between atoms: C_9  and  C_23
    3  A    between atoms: C_15  and  C_23
    4  A    between atoms: C_19  and  N_22
    5  A    between atoms: C_19  and  O_24
                            x       y       z     vdW  Elec       q    Type
                         _______ _______ _______ _____ _____    ______ ____

>  <TORSDO>
F 5

$$$$
=
 OpenBabel10272400333D

 31 34  0  0  1  0  0  0  0  0999 V2000
  185.2530  178.7340  139.1190 C   0  0  0  0  0  0  0  0  0  0  0  0
  188.5800  177.0560  138.6730 C   0  0  0  0  0  0  0  0  0  0  0  0
  188.4790  176.4300  137.2740 C   0  0  2  0  0  3  0  0  0  0  0  0
  187.5040  174.6110  136.1230 C   0  0  0  0  0  2  0  0  0  0  0  0
  187.4870  177.7600  139.2540 C   0  0  0  0  0  0  0  0  0  0  0  0
  185.3330  179.1330  140.4520 C   0  0  0  0  0  3  0  0  0  0  0  0
  187.1540  175.7580  137.0240 C   0  0  0  0  0  2  0  0  0  0  0  0
  189.8270  177.3770  140.7630 C   0  0  0  0  0  0  0  0  0  0  0  0
  184.1370  179.0000  138.3980 F   0  0  0  0  0  0  0  0  0  0  0  0
  191.3650  176.8820  137.4930 C   0  0  0  0  0  2  0  0  0  0  0  0
  188.9540  174.4690  136.1330 N   0  0  0  0  0  0  0  0  0  0  0  0
  188.7150  177.9790  141.3440 C   0  0  0  0  0  3  0  0  0  0  0  0
  189.8000  176.9860  139.4130 C   0  0  0  0  0  0  0  0  0  0  0  0
  186.3200  178.0550  138.5250 C   0  0  0  0  0  3  0  0  0  0  0  0
  189.2380  173.1290  136.6220 C   0  0  0  0  0  1  0  0  0  0  0  0
  187.5620  178.1960  140.6000 C   0  0  0  0  0  0  0  0  0  0  0  0
  186.4870  178.8660  141.1910 C   0  0  0  0  0  3  0  0  0  0  0  0
  191.0060  176.5640  138.8340 O   0  0  0  0  0  0  0  0  0  0  0  0
  190.6690  175.9640  136.4990 C   0  0  0  0  0  2  0  0  0  0  0  0
  189.4710  175.3730  137.0830 N   0  0  1  0  0  0  0  0  0  0  0  0
  191.0730  177.2460  141.5810 C   0  0  0  0  0  2  0  0  0  0  0  0
  191.1610  178.9480  143.9800 C   0  0  0  0  0  1  0  0  0  0  0  0
  190.4130  175.4900  143.0490 O   0  0  0  0  0  0  0  0  0  0  0  0
  190.7710  176.6950  142.9430 C   0  0  0  0  0  0  0  0  0  0  0  0
  190.8870  177.5220  144.1160 N   0  0  0  0  0  0  0  0  0  0  0  0
  191.7110  176.5500  146.1440 C   0  0  0  0  0  2  0  0  0  0  0  0
  190.6770  176.9810  145.4310 C   0  0  0  0  0  0  0  0  0  0  0  0
  189.3960  176.8900  145.9870 O   0  0  0  0  0  0  0  0  0  0  0  0
  188.3050  177.6950  145.5590 C   0  0  0  0  0  3  0  0  0  0  0  0
  187.4240  178.0200  146.7460 C   0  0  0  0  0  1  0  0  0  0  0  0
  187.4870  176.9550  144.5190 C   0  0  0  0  0  1  0  0  0  0  0  0
  1  6  1  0  0  0  0
  2  5  2  0  0  0  0
  2 13  1  0  0  0  0
  3  7  1  1  0  0  0
  3  2  1  0  0  0  0
  4 11  1  0  0  0  0
  4  7  1  0  0  0  0
  5 16  1  0  0  0  0
  6 17  2  0  0  0  0
  8 12  1  0  0  0  0
  8 21  1  0  0  0  0
  9  1  1  0  0  0  0
 10 18  1  0  0  0  0
 11 15  1  0  0  0  0
 11 20  1  0  0  0  0
 13  8  2  0  0  0  0
 14  1  2  0  0  0  0
 14  5  1  0  0  0  0
 16 17  1  0  0  0  0
 16 12  2  0  0  0  0
 18 13  1  0  0  0  0
 19 10  1  0  0  0  0
 20 19  1  6  0  0  0
 20  3  1  0  0  0  0
 21 24  1  0  0  0  0
 22 25  1  0  0  0  0
 24 23  2  0  0  0  0
 24 25  1  0  0  0  0
 25 27  1  0  0  0  0
 27 28  1  0  0  0  0
 27 26  2  0  0  0  0
 29 28  1  0  0  0  0
 29 30  1  0  0  0  0
 31 29  1  0  0  0  0
M  END
>  <MODEL>
2

>  <REMARK>
 VINA RESULT:      -8.1      1.775      2.220
  Name = 
  5 active torsions:
  status: ('A' for Active; 'I' for Inactive)
    1  A    between atoms: C_1  and  O_24
    2  A    between atoms: C_9  and  C_23
    3  A    between atoms: C_15  and  C_23
    4  A    between atoms: C_19  and  N_22
    5  A    between atoms: C_19  and  O_24
                            x       y       z     vdW  Elec       q    Type
                         _______ _______ _______ _____ _____    ______ ____

>  <TORSDO>
F 5

$$$$
=
 OpenBabel10272400333D

 31 34  0  0  1  0  0  0  0  0999 V2000
  184.4030  178.3360  144.0670 C   0  0  0  0  0  0  0  0  0  0  0  0
  187.9050  177.6240  142.9200 C   0  0  0  0  0  0  0  0  0  0  0  0
  188.5980  177.1100  144.1900 C   0  0  2  0  0  3  0  0  0  0  0  0
  189.5120  177.8590  146.2360 C   0  0  0  0  0  2  0  0  0  0  0  0
  186.5470  178.0560  142.9360 C   0  0  0  0  0  0  0  0  0  0  0  0
  183.8730  178.9530  142.9350 C   0  0  0  0  0  3  0  0  0  0  0  0
  188.2580  177.9180  145.4150 C   0  0  0  0  0  2  0  0  0  0  0  0
  188.0330  178.2930  140.5620 C   0  0  0  0  0  0  0  0  0  0  0  0
  183.6350  178.1730  145.1710 F   0  0  0  0  0  0  0  0  0  0  0  0
  190.1340  175.7420  142.1040 C   0  0  0  0  0  2  0  0  0  0  0  0
  190.5710  177.3280  145.3870 N   0  0  0  0  0  0  0  0  0  0  0  0
  186.7370  178.7950  140.6250 C   0  0  0  0  0  3  0  0  0  0  0  0
  188.5960  177.6370  141.6710 C   0  0  0  0  0  0  0  0  0  0  0  0
  185.7270  177.8910  144.0670 C   0  0  0  0  0  3  0  0  0  0  0  0
  191.6090  178.3450  145.3310 C   0  0  0  0  0  1  0  0  0  0  0  0
  185.9850  178.6610  141.7850 C   0  0  0  0  0  0  0  0  0  0  0  0
  184.6620  179.1140  141.7950 C   0  0  0  0  0  3  0  0  0  0  0  0
  189.8250  176.9870  141.4860 O   0  0  0  0  0  0  0  0  0  0  0  0
  190.5520  175.9310  143.5550 C   0  0  0  0  0  2  0  0  0  0  0  0
  190.0530  177.1950  144.0830 N   0  0  1  0  0  0  0  0  0  0  0  0
  188.7680  178.3850  139.2610 C   0  0  0  0  0  2  0  0  0  0  0  0
  186.6770  178.2540  137.1960 C   0  0  0  0  0  1  0  0  0  0  0  0
  189.3450  176.1740  138.5890 O   0  0  0  0  0  0  0  0  0  0  0  0
  188.5620  177.1510  138.4340 C   0  0  0  0  0  0  0  0  0  0  0  0
  187.4900  177.0760  137.4760 N   0  0  0  0  0  0  0  0  0  0  0  0
  187.5440  175.8050  135.4470 C   0  0  0  0  0  2  0  0  0  0  0  0
  187.2370  175.8700  136.7370 C   0  0  0  0  0  0  0  0  0  0  0  0
  186.6640  174.7460  137.3450 O   0  0  0  0  0  0  0  0  0  0  0  0
  185.3900  174.2310  136.9780 C   0  0  0  0  0  3  0  0  0  0  0  0
  184.3210  175.2500  137.3120 C   0  0  0  0  0  1  0  0  0  0  0  0
  185.1090  172.9470  137.7350 C   0  0  0  0  0  1  0  0  0  0  0  0
  1 14  1  0  0  0  0
  1  9  1  0  0  0  0
  2  5  1  0  0  0  0
  2  3  1  0  0  0  0
  3  7  1  1  0  0  0
  5 14  2  0  0  0  0
  6  1  2  0  0  0  0
  7  4  1  0  0  0  0
  8 12  2  0  0  0  0
  8 13  1  0  0  0  0
 10 19  1  0  0  0  0
 11  4  1  0  0  0  0
 12 16  1  0  0  0  0
 13  2  2  0  0  0  0
 15 11  1  0  0  0  0
 16 17  2  0  0  0  0
 16  5  1  0  0  0  0
 17  6  1  0  0  0  0
 18 13  1  0  0  0  0
 18 10  1  0  0  0  0
 20 19  1  1  0  0  0
 20  3  1  0  0  0  0
 20 11  1  0  0  0  0
 21  8  1  0  0  0  0
 22 25  1  0  0  0  0
 24 23  2  0  0  0  0
 24 21  1  0  0  0  0
 25 24  1  0  0  0  0
 26 27  2  0  0  0  0
 27 28  1  0  0  0  0
 27 25  1  0  0  0  0
 29 30  1  0  0  0  0
 29 28  1  0  0  0  0
 29 31  1  0  0  0  0
M  END
>  <MODEL>
3

>  <REMARK>
 VINA RESULT:      -7.4      1.879      6.955
  Name = 
  5 active torsions:
  status: ('A' for Active; 'I' for Inactive)
    1  A    between atoms: C_1  and  O_24
    2  A    between atoms: C_9  and  C_23
    3  A    between atoms: C_15  and  C_23
    4  A    between atoms: C_19  and  N_22
    5  A    between atoms: C_19  and  O_24
                            x       y       z     vdW  Elec       q    Type
                         _______ _______ _______ _____ _____    ______ ____

>  <TORSDO>
F 5

$$$$
=
 OpenBabel10272400333D

 31 34  0  0  1  0  0  0  0  0999 V2000
  182.3520  179.0240  142.5020 C   0  0  0  0  0  0  0  0  0  0  0  0
  185.2220  178.2390  140.2140 C   0  0  0  0  0  0  0  0  0  0  0  0
  184.5400  177.9730  138.8650 C   0  0  2  0  0  3  0  0  0  0  0  0
  183.2860  176.3360  137.7120 C   0  0  0  0  0  2  0  0  0  0  0  0
  184.4670  178.5340  141.3860 C   0  0  0  0  0  0  0  0  0  0  0  0
  183.0030  179.0870  143.7330 C   0  0  0  0  0  3  0  0  0  0  0  0
  183.3010  177.1250  138.9880 C   0  0  0  0  0  2  0  0  0  0  0  0
  187.2590  178.2840  141.5840 C   0  0  0  0  0  0  0  0  0  0  0  0
  181.0140  179.2230  142.4320 F   0  0  0  0  0  0  0  0  0  0  0  0
  187.1640  178.9470  137.9990 C   0  0  0  0  0  2  0  0  0  0  0  0
  184.5860  176.5000  137.0750 N   0  0  0  0  0  0  0  0  0  0  0  0
  186.4940  178.4770  142.7300 C   0  0  0  0  0  3  0  0  0  0  0  0
  186.6470  178.2430  140.3190 C   0  0  0  0  0  0  0  0  0  0  0  0
  183.0780  178.7520  141.3390 C   0  0  0  0  0  3  0  0  0  0  0  0
  185.1610  175.1710  136.9530 C   0  0  0  0  0  1  0  0  0  0  0  0
  185.1160  178.6280  142.6400 C   0  0  0  0  0  0  0  0  0  0  0  0
  184.3830  178.8910  143.8020 C   0  0  0  0  0  3  0  0  0  0  0  0
  187.4820  178.2380  139.1930 O   0  0  0  0  0  0  0  0  0  0  0  0
  186.1610  178.1810  137.1490 C   0  0  0  0  0  2  0  0  0  0  0  0
  185.4100  177.2280  137.9570 N   0  0  1  0  0  0  0  0  0  0  0  0
  188.7470  178.2150  141.7260 C   0  0  0  0  0  2  0  0  0  0  0  0
  190.5820  179.1860  143.8110 C   0  0  0  0  0  1  0  0  0  0  0  0
  188.6250  176.2050  142.9960 O   0  0  0  0  0  0  0  0  0  0  0  0
  189.1420  177.3500  142.8850 C   0  0  0  0  0  0  0  0  0  0  0  0
  190.0950  177.8130  143.8600 N   0  0  0  0  0  0  0  0  0  0  0  0
  191.6350  176.2260  144.7810 C   0  0  0  0  0  2  0  0  0  0  0  0
  190.5390  176.9600  144.9280 C   0  0  0  0  0  0  0  0  0  0  0  0
  189.8360  176.8760  146.1360 O   0  0  0  0  0  0  0  0  0  0  0  0
  188.9050  177.8630  146.5610 C   0  0  0  0  0  3  0  0  0  0  0  0
  188.9740  178.0050  148.0670 C   0  0  0  0  0  1  0  0  0  0  0  0
  187.4980  177.4590  146.1630 C   0  0  0  0  0  1  0  0  0  0  0  0
  1  6  1  0  0  0  0
  2 13  2  0  0  0  0
  2  5  1  0  0  0  0
  3  7  1  1  0  0  0
  3  2  1  0  0  0  0
  4  7  1  0  0  0  0
  5 16  2  0  0  0  0
  6 17  2  0  0  0  0
  8 21  1  0  0  0  0
  8 12  2  0  0  0  0
  9  1  1  0  0  0  0
 10 18  1  0  0  0  0
 11  4  1  0  0  0  0
 11 20  1  0  0  0  0
 13  8  1  0  0  0  0
 14  5  1  0  0  0  0
 14  1  2  0  0  0  0
 15 11  1  0  0  0  0
 16 12  1  0  0  0  0
 16 17  1  0  0  0  0
 18 13  1  0  0  0  0
 19 10  1  0  0  0  0
 20 19  1  6  0  0  0
 20  3  1  0  0  0  0
 21 24  1  0  0  0  0
 22 25  1  0  0  0  0
 24 23  2  0  0  0  0
 24 25  1  0  0  0  0
 25 27  1  0  0  0  0
 26 27  2  0  0  0  0
 27 28  1  0  0  0  0
 28 29  1  0  0  0  0
 29 30  1  0  0  0  0
 31 29  1  0  0  0  0
M  END
>  <MODEL>
4

>  <REMARK>
 VINA RESULT:      -7.3      1.276      1.576
  Name = 
  5 active torsions:
  status: ('A' for Active; 'I' for Inactive)
    1  A    between atoms: C_1  and  O_24
    2  A    between atoms: C_9  and  C_23
    3  A    between atoms: C_15  and  C_23
    4  A    between atoms: C_19  and  N_22
    5  A    between atoms: C_19  and  O_24
                            x       y       z     vdW  Elec       q    Type
                         _______ _______ _______ _____ _____    ______ ____

>  <TORSDO>
F 5

$$$$
=
 OpenBabel10272400333D

 31 34  0  0  1  0  0  0  0  0999 V2000
  183.6160  178.8900  141.2100 C   0  0  0  0  0  0  0  0  0  0  0  0
  186.8570  178.2680  139.4220 C   0  0  0  0  0  0  0  0  0  0  0  0
  186.4420  178.2030  137.9460 C   0  0  2  0  0  3  0  0  0  0  0  0
  185.4010  176.7790  136.3740 C   0  0  0  0  0  2  0  0  0  0  0  0
  185.8950  178.4490  140.4590 C   0  0  0  0  0  0  0  0  0  0  0  0
  184.0180  178.7700  142.5400 C   0  0  0  0  0  3  0  0  0  0  0  0
  185.1860  177.4010  137.7210 C   0  0  0  0  0  2  0  0  0  0  0  0
  188.5910  178.0520  141.1460 C   0  0  0  0  0  0  0  0  0  0  0  0
  182.3200  179.1550  140.9160 F   0  0  0  0  0  0  0  0  0  0  0  0
  189.2020  179.1590  137.7250 C   0  0  0  0  0  2  0  0  0  0  0  0
  186.8020  176.9630  136.0200 N   0  0  0  0  0  0  0  0  0  0  0  0
  187.6240  178.1360  142.1420 C   0  0  0  0  0  3  0  0  0  0  0  0
  188.2340  178.1960  139.7940 C   0  0  0  0  0  0  0  0  0  0  0  0
  184.5460  178.7320  140.1800 C   0  0  0  0  0  3  0  0  0  0  0  0
  187.3640  175.6350  135.8360 C   0  0  0  0  0  1  0  0  0  0  0  0
  186.2930  178.3570  141.8150 C   0  0  0  0  0  0  0  0  0  0  0  0
  185.3550  178.5060  142.8420 C   0  0  0  0  0  3  0  0  0  0  0  0
  189.2710  178.2940  138.8540 O   0  0  0  0  0  0  0  0  0  0  0  0
  188.3670  178.5490  136.6090 C   0  0  0  0  0  2  0  0  0  0  0  0
  187.4560  177.5370  137.1290 N   0  0  1  0  0  0  0  0  0  0  0  0
  190.0230  177.9010  141.5560 C   0  0  0  0  0  2  0  0  0  0  0  0
  190.0440  175.5750  143.3580 C   0  0  0  0  0  1  0  0  0  0  0  0
  190.3730  179.2150  143.5100 O   0  0  0  0  0  0  0  0  0  0  0  0
  190.1820  178.0620  143.0380 C   0  0  0  0  0  0  0  0  0  0  0  0
  190.1190  176.9210  143.9140 N   0  0  0  0  0  0  0  0  0  0  0  0
  189.1080  177.4200  146.0270 C   0  0  0  0  0  2  0  0  0  0  0  0
  190.1910  177.0760  145.3420 C   0  0  0  0  0  0  0  0  0  0  0  0
  191.3880  176.8740  146.0390 O   0  0  0  0  0  0  0  0  0  0  0  0
  191.6580  175.6990  146.7930 C   0  0  0  0  0  3  0  0  0  0  0  0
  192.5500  176.0480  147.9650 C   0  0  0  0  0  1  0  0  0  0  0  0
  192.3560  174.6710  145.9250 C   0  0  0  0  0  1  0  0  0  0  0  0
  1  6  1  0  0  0  0
  2 13  2  0  0  0  0
  2  5  1  0  0  0  0
  3  7  1  1  0  0  0
  3  2  1  0  0  0  0
  4  7  1  0  0  0  0
  5 16  2  0  0  0  0
  6 17  2  0  0  0  0
  8 21  1  0  0  0  0
  8 12  2  0  0  0  0
  9  1  1  0  0  0  0
 10 18  1  0  0  0  0
 11  4  1  0  0  0  0
 11 20  1  0  0  0  0
 13  8  1  0  0  0  0
 14  5  1  0  0  0  0
 14  1  2  0  0  0  0
 15 11  1  0  0  0  0
 16 12  1  0  0  0  0
 16 17  1  0  0  0  0
 18 13  1  0  0  0  0
 19 10  1  0  0  0  0
 20 19  1  6  0  0  0
 20  3  1  0  0  0  0
 21 24  1  0  0  0  0
 22 25  1  0  0  0  0
 24 23  2  0  0  0  0
 24 25  1  0  0  0  0
 25 27  1  0  0  0  0
 27 26  2  0  0  0  0
 27 28  1  0  0  0  0
 28 29  1  0  0  0  0
 29 30  1  0  0  0  0
 31 29  1  0  0  0  0
M  END
>  <MODEL>
5

>  <REMARK>
 VINA RESULT:      -7.0      1.045      1.897
  Name = 
  5 active torsions:
  status: ('A' for Active; 'I' for Inactive)
    1  A    between atoms: C_1  and  O_24
    2  A    between atoms: C_9  and  C_23
    3  A    between atoms: C_15  and  C_23
    4  A    between atoms: C_19  and  N_22
    5  A    between atoms: C_19  and  O_24
                            x       y       z     vdW  Elec       q    Type
                         _______ _______ _______ _____ _____    ______ ____

>  <TORSDO>
F 5

$$$$
=
 OpenBabel10272400333D

 31 34  0  0  1  0  0  0  0  0999 V2000
  184.7980  178.5580  144.9050 C   0  0  0  0  0  0  0  0  0  0  0  0
  183.8040  178.8240  141.2960 C   0  0  0  0  0  0  0  0  0  0  0  0
  182.2890  179.0670  141.3600 C   0  0  2  0  0  3  0  0  0  0  0  0
  180.2470  177.9450  141.7510 C   0  0  0  0  0  2  0  0  0  0  0  0
  184.5760  178.6180  142.4750 C   0  0  0  0  0  0  0  0  0  0  0  0
  186.1330  178.1720  144.7850 C   0  0  0  0  0  3  0  0  0  0  0  0
  181.5940  178.1860  142.3650 C   0  0  0  0  0  2  0  0  0  0  0  0
  185.8290  178.4240  139.9670 C   0  0  0  0  0  0  0  0  0  0  0  0
  184.2450  178.7130  146.1320 F   0  0  0  0  0  0  0  0  0  0  0  0
  182.9780  180.4030  138.8460 C   0  0  0  0  0  2  0  0  0  0  0  0
  180.3060  178.3930  140.3660 N   0  0  0  0  0  0  0  0  0  0  0  0
  186.5420  178.1340  141.1260 C   0  0  0  0  0  3  0  0  0  0  0  0
  184.4900  178.8450  140.0430 C   0  0  0  0  0  0  0  0  0  0  0  0
  184.0280  178.7800  143.7610 C   0  0  0  0  0  3  0  0  0  0  0  0
  180.0030  177.2350  139.5400 C   0  0  0  0  0  1  0  0  0  0  0  0
  185.9400  178.2510  142.3720 C   0  0  0  0  0  0  0  0  0  0  0  0
  186.7030  178.0200  143.5210 C   0  0  0  0  0  3  0  0  0  0  0  0
  183.8850  179.3050  138.8640 O   0  0  0  0  0  0  0  0  0  0  0  0
  181.5860  179.9800  139.2900 C   0  0  0  0  0  2  0  0  0  0  0  0
  181.6390  178.7600  140.0880 N   0  0  1  0  0  0  0  0  0  0  0  0
  186.5490  178.3670  138.6560 C   0  0  0  0  0  2  0  0  0  0  0  0
  187.8510  175.9090  137.6970 C   0  0  0  0  0  1  0  0  0  0  0  0
  188.7140  179.0360  139.3880 O   0  0  0  0  0  0  0  0  0  0  0  0
  188.0170  178.1320  138.8540 C   0  0  0  0  0  0  0  0  0  0  0  0
  188.6270  176.8940  138.4420 N   0  0  0  0  0  0  0  0  0  0  0  0
  190.9190  176.8370  137.7490 C   0  0  0  0  0  2  0  0  0  0  0  0
  190.0160  176.6280  138.7000 C   0  0  0  0  0  0  0  0  0  0  0  0
  190.4500  176.1460  139.9400 O   0  0  0  0  0  0  0  0  0  0  0  0
  190.4760  176.9440  141.1170 C   0  0  0  0  0  3  0  0  0  0  0  0
  191.9080  177.3080  141.4450 C   0  0  0  0  0  1  0  0  0  0  0  0
  189.8770  176.1770  142.2800 C   0  0  0  0  0  1  0  0  0  0  0  0
  1  9  1  0  0  0  0
  2  3  1  0  0  0  0
  2  5  1  0  0  0  0
  3  7  1  1  0  0  0
  4  7  1  0  0  0  0
  5 14  1  0  0  0  0
  6  1  1  0  0  0  0
  8 13  1  0  0  0  0
  8 12  2  0  0  0  0
 10 18  1  0  0  0  0
 10 19  1  0  0  0  0
 11  4  1  0  0  0  0
 12 16  1  0  0  0  0
 13  2  2  0  0  0  0
 14  1  2  0  0  0  0
 15 11  1  0  0  0  0
 16  5  2  0  0  0  0
 16 17  1  0  0  0  0
 17  6  2  0  0  0  0
 18 13  1  0  0  0  0
 20 19  1  6  0  0  0
 20 11  1  0  0  0  0
 20  3  1  0  0  0  0
 21 24  1  0  0  0  0
 21  8  1  0  0  0  0
 22 25  1  0  0  0  0
 24 23  2  0  0  0  0
 25 27  1  0  0  0  0
 25 24  1  0  0  0  0
 26 27  2  0  0  0  0
 27 28  1  0  0  0  0
 28 29  1  0  0  0  0
 29 30  1  0  0  0  0
 29 31  1  0  0  0  0
M  END
>  <MODEL>
6

>  <REMARK>
 VINA RESULT:      -6.9      2.947      5.584
  Name = 
  5 active torsions:
  status: ('A' for Active; 'I' for Inactive)
    1  A    between atoms: C_1  and  O_24
    2  A    between atoms: C_9  and  C_23
    3  A    between atoms: C_15  and  C_23
    4  A    between atoms: C_19  and  N_22
    5  A    between atoms: C_19  and  O_24
                            x       y       z     vdW  Elec       q    Type
                         _______ _______ _______ _____ _____    ______ ____

>  <TORSDO>
F 5

$$$$
=
 OpenBabel10272400333D

 31 34  0  0  1  0  0  0  0  0999 V2000
  187.0670  177.9510  136.8500 C   0  0  0  0  0  0  0  0  0  0  0  0
  190.4600  176.7340  137.8950 C   0  0  0  0  0  0  0  0  0  0  0  0
  191.0150  176.0860  136.6180 C   0  0  2  0  0  3  0  0  0  0  0  0
  190.8210  174.1420  135.2900 C   0  0  0  0  0  2  0  0  0  0  0  0
  189.1490  177.2900  137.9380 C   0  0  0  0  0  0  0  0  0  0  0  0
  186.5470  178.3710  138.0730 C   0  0  0  0  0  3  0  0  0  0  0  0
  189.9990  175.2390  135.8970 C   0  0  0  0  0  2  0  0  0  0  0  0
  190.6950  177.2410  140.2850 C   0  0  0  0  0  0  0  0  0  0  0  0
  186.3200  178.0570  135.7240 F   0  0  0  0  0  0  0  0  0  0  0  0
  193.4830  176.9260  137.9550 C   0  0  0  0  0  2  0  0  0  0  0  0
  192.1460  174.1960  135.8940 N   0  0  0  0  0  0  0  0  0  0  0  0
  189.3790  177.6930  140.3270 C   0  0  0  0  0  3  0  0  0  0  0  0
  191.2690  176.8370  139.0670 C   0  0  0  0  0  0  0  0  0  0  0  0
  188.3570  177.4180  136.7830 C   0  0  0  0  0  3  0  0  0  0  0  0
  192.3620  172.9130  136.5400 C   0  0  0  0  0  1  0  0  0  0  0  0
  188.6150  177.7450  139.1680 C   0  0  0  0  0  0  0  0  0  0  0  0
  187.3200  178.2690  139.2310 C   0  0  0  0  0  3  0  0  0  0  0  0
  192.6470  176.5760  139.0530 O   0  0  0  0  0  0  0  0  0  0  0  0
  193.3690  175.9130  136.8250 C   0  0  0  0  0  2  0  0  0  0  0  0
  192.1170  175.1720  136.9110 N   0  0  1  0  0  0  0  0  0  0  0  0
  191.5030  177.2880  141.5440 C   0  0  0  0  0  2  0  0  0  0  0  0
  190.1260  175.4010  143.3330 C   0  0  0  0  0  1  0  0  0  0  0  0
  190.6270  179.0040  142.9430 O   0  0  0  0  0  0  0  0  0  0  0  0
  190.6780  177.7680  142.7000 C   0  0  0  0  0  0  0  0  0  0  0  0
  189.9520  176.8370  143.5250 N   0  0  0  0  0  0  0  0  0  0  0  0
  187.7780  177.2860  144.4240 C   0  0  0  0  0  2  0  0  0  0  0  0
  189.0960  177.2940  144.5850 C   0  0  0  0  0  0  0  0  0  0  0  0
  189.6180  177.7570  145.7980 O   0  0  0  0  0  0  0  0  0  0  0  0
  189.7030  176.9490  146.9650 C   0  0  0  0  0  3  0  0  0  0  0  0
  189.1980  177.7330  148.1570 C   0  0  0  0  0  1  0  0  0  0  0  0
  191.1420  176.5390  147.2120 C   0  0  0  0  0  1  0  0  0  0  0  0
  1  6  1  0  0  0  0
  2  5  2  0  0  0  0
  2 13  1  0  0  0  0
  3  7  1  1  0  0  0
  3 20  1  0  0  0  0
  3  2  1  0  0  0  0
  4 11  1  0  0  0  0
  4  7  1  0  0  0  0
  5 16  1  0  0  0  0
  6 17  2  0  0  0  0
  8 12  1  0  0  0  0
  8 21  1  0  0  0  0
  9  1  1  0  0  0  0
 10 18  1  0  0  0  0
 11 15  1  0  0  0  0
 11 20  1  0  0  0  0
 13  8  2  0  0  0  0
 14  1  2  0  0  0  0
 14  5  1  0  0  0  0
 16 17  1  0  0  0  0
 16 12  2  0  0  0  0
 18 13  1  0  0  0  0
 19 10  1  0  0  0  0
 20 19  1  6  0  0  0
 21 24  1  0  0  0  0
 22 25  1  0  0  0  0
 24 23  2  0  0  0  0
 24 25  1  0  0  0  0
 25 27  1  0  0  0  0
 26 27  2  0  0  0  0
 27 28  1  0  0  0  0
 28 29  1  0  0  0  0
 29 31  1  0  0  0  0
 29 30  1  0  0  0  0
M  END
>  <MODEL>
7

>  <REMARK>
 VINA RESULT:      -6.7      3.138      4.292
  Name = 
  5 active torsions:
  status: ('A' for Active; 'I' for Inactive)
    1  A    between atoms: C_1  and  O_24
    2  A    between atoms: C_9  and  C_23
    3  A    between atoms: C_15  and  C_23
    4  A    between atoms: C_19  and  N_22
    5  A    between atoms: C_19  and  O_24
                            x       y       z     vdW  Elec       q    Type
                         _______ _______ _______ _____ _____    ______ ____

>  <TORSDO>
F 5

$$$$
=
 OpenBabel10272400333D

 31 34  0  0  1  0  0  0  0  0999 V2000
  190.5610  177.2290  141.7470 C   0  0  0  0  0  0  0  0  0  0  0  0
  188.8110  176.7090  138.4680 C   0  0  0  0  0  0  0  0  0  0  0  0
  189.8220  175.8920  137.6500 C   0  0  2  0  0  3  0  0  0  0  0  0
  191.8390  176.1140  136.4400 C   0  0  0  0  0  2  0  0  0  0  0  0
  189.1120  177.1640  139.7840 C   0  0  0  0  0  0  0  0  0  0  0  0
  189.6840  178.1090  142.3800 C   0  0  0  0  0  3  0  0  0  0  0  0
  191.2340  176.4000  137.7830 C   0  0  0  0  0  2  0  0  0  0  0  0
  186.6740  177.9100  138.6020 C   0  0  0  0  0  0  0  0  0  0  0  0
  191.6930  176.8320  142.3760 F   0  0  0  0  0  0  0  0  0  0  0  0
  187.2870  175.0110  136.4750 C   0  0  0  0  0  2  0  0  0  0  0  0
  190.7540  175.7690  135.5310 N   0  0  0  0  0  0  0  0  0  0  0  0
  187.0290  178.4190  139.8470 C   0  0  0  0  0  3  0  0  0  0  0  0
  187.5150  176.9970  137.9420 C   0  0  0  0  0  0  0  0  0  0  0  0
  190.2770  176.7600  140.4620 C   0  0  0  0  0  3  0  0  0  0  0  0
  190.7900  176.7410  134.4510 C   0  0  0  0  0  1  0  0  0  0  0  0
  188.2190  178.0370  140.4520 C   0  0  0  0  0  0  0  0  0  0  0  0
  188.5140  178.5110  141.7340 C   0  0  0  0  0  3  0  0  0  0  0  0
  187.0190  176.3750  136.7870 O   0  0  0  0  0  0  0  0  0  0  0  0
  188.6710  174.8420  135.8650 C   0  0  0  0  0  2  0  0  0  0  0  0
  189.5380  175.9600  136.2180 N   0  0  1  0  0  0  0  0  0  0  0  0
  185.3410  178.2840  138.0340 C   0  0  0  0  0  2  0  0  0  0  0  0
  183.3480  176.4950  139.2530 C   0  0  0  0  0  1  0  0  0  0  0  0
  184.5310  179.9450  139.5350 O   0  0  0  0  0  0  0  0  0  0  0  0
  184.4110  178.7660  139.1070 C   0  0  0  0  0  0  0  0  0  0  0  0
  183.3940  177.8990  139.6440 N   0  0  0  0  0  0  0  0  0  0  0  0
  181.1480  178.1780  140.4290 C   0  0  0  0  0  2  0  0  0  0  0  0
  182.4470  178.3770  140.6150 C   0  0  0  0  0  0  0  0  0  0  0  0
  182.8620  179.0590  141.7650 O   0  0  0  0  0  0  0  0  0  0  0  0
  183.4880  178.4130  142.8670 C   0  0  0  0  0  3  0  0  0  0  0  0
  182.8720  178.9110  144.1570 C   0  0  0  0  0  1  0  0  0  0  0  0
  184.9730  178.7180  142.8740 C   0  0  0  0  0  1  0  0  0  0  0  0
  1  9  1  0  0  0  0
  1  6  1  0  0  0  0
  2  5  1  0  0  0  0
  3  7  1  6  0  0  0
  3  2  1  0  0  0  0
  4  7  1  0  0  0  0
  5 16  2  0  0  0  0
  5 14  1  0  0  0  0
  8 12  2  0  0  0  0
 10 18  1  0  0  0  0
 11 20  1  0  0  0  0
 11  4  1  0  0  0  0
 12 16  1  0  0  0  0
 13  2  2  0  0  0  0
 13  8  1  0  0  0  0
 14  1  2  0  0  0  0
 15 11  1  0  0  0  0
 16 17  1  0  0  0  0
 17  6  2  0  0  0  0
 18 13  1  0  0  0  0
 19 10  1  0  0  0  0
 20 19  1  6  0  0  0
 20  3  1  0  0  0  0
 21  8  1  0  0  0  0
 21 24  1  0  0  0  0
 22 25  1  0  0  0  0
 24 23  2  0  0  0  0
 24 25  1  0  0  0  0
 25 27  1  0  0  0  0
 26 27  2  0  0  0  0
 27 28  1  0  0  0  0
 28 29  1  0  0  0  0
 29 31  1  0  0  0  0
 29 30  1  0  0  0  0
M  END
>  <MODEL>
8

>  <REMARK>
 VINA RESULT:      -6.4      3.779      6.127
  Name = 
  5 active torsions:
  status: ('A' for Active; 'I' for Inactive)
    1  A    between atoms: C_1  and  O_24
    2  A    between atoms: C_9  and  C_23
    3  A    between atoms: C_15  and  C_23
    4  A    between atoms: C_19  and  N_22
    5  A    between atoms: C_19  and  O_24
                            x       y       z     vdW  Elec       q    Type
                         _______ _______ _______ _____ _____    ______ ____

>  <TORSDO>
F 5

$$$$
=
 OpenBabel10272400333D

 31 34  0  0  1  0  0  0  0  0999 V2000
  183.3510  178.7880  142.5380 C   0  0  0  0  0  0  0  0  0  0  0  0
  183.1870  177.6260  138.9740 C   0  0  0  0  0  0  0  0  0  0  0  0
  181.7660  177.0560  138.8500 C   0  0  2  0  0  3  0  0  0  0  0  0
  180.4670  175.1710  139.4340 C   0  0  0  0  0  2  0  0  0  0  0  0
  183.6780  178.1390  140.2090 C   0  0  0  0  0  0  0  0  0  0  0  0
  184.6980  179.1340  142.6440 C   0  0  0  0  0  3  0  0  0  0  0  0
  181.3640  176.2140  140.0330 C   0  0  0  0  0  2  0  0  0  0  0  0
  185.3990  178.0270  137.9900 C   0  0  0  0  0  0  0  0  0  0  0  0
  182.5320  178.9250  143.6090 F   0  0  0  0  0  0  0  0  0  0  0  0
  182.2860  177.9060  136.0950 C   0  0  0  0  0  2  0  0  0  0  0  0
  180.6160  175.2370  137.9870 N   0  0  0  0  0  0  0  0  0  0  0  0
  185.8850  178.4360  139.2280 C   0  0  0  0  0  3  0  0  0  0  0  0
  184.0420  177.6980  137.8320 C   0  0  0  0  0  0  0  0  0  0  0  0
  182.8460  178.2980  141.3320 C   0  0  0  0  0  3  0  0  0  0  0  0
  181.0890  173.9320  137.5570 C   0  0  0  0  0  1  0  0  0  0  0  0
  185.0370  178.5190  140.3250 C   0  0  0  0  0  0  0  0  0  0  0  0
  185.5390  179.0010  141.5380 C   0  0  0  0  0  3  0  0  0  0  0  0
  183.5740  177.4790  136.5290 O   0  0  0  0  0  0  0  0  0  0  0  0
  181.1990  176.9440  136.5520 C   0  0  0  0  0  2  0  0  0  0  0  0
  181.6410  176.1620  137.7000 N   0  0  1  0  0  0  0  0  0  0  0  0
  186.3340  178.0380  136.8210 C   0  0  0  0  0  2  0  0  0  0  0  0
  188.0400  175.7050  137.3710 C   0  0  0  0  0  1  0  0  0  0  0  0
  188.2460  179.3570  137.3450 O   0  0  0  0  0  0  0  0  0  0  0  0
  187.7570  178.1970  137.2660 C   0  0  0  0  0  0  0  0  0  0  0  0
  188.5580  177.0480  137.6000 N   0  0  0  0  0  0  0  0  0  0  0  0
  190.9290  176.7900  137.3730 C   0  0  0  0  0  2  0  0  0  0  0  0
  189.8960  177.1960  138.1030 C   0  0  0  0  0  0  0  0  0  0  0  0
  190.1460  177.7600  139.3600 O   0  0  0  0  0  0  0  0  0  0  0  0
  190.1140  177.0080  140.5670 C   0  0  0  0  0  3  0  0  0  0  0  0
  188.8910  177.3980  141.3690 C   0  0  0  0  0  1  0  0  0  0  0  0
  191.3580  177.2880  141.3880 C   0  0  0  0  0  1  0  0  0  0  0  0
  1  6  1  0  0  0  0
  1  9  1  0  0  0  0
  2  5  1  0  0  0  0
  3  2  1  0  0  0  0
  3  7  1  1  0  0  0
  4  7  1  0  0  0  0
  5 16  2  0  0  0  0
  5 14  1  0  0  0  0
  8 12  2  0  0  0  0
 10 18  1  0  0  0  0
 10 19  1  0  0  0  0
 11  4  1  0  0  0  0
 12 16  1  0  0  0  0
 13  8  1  0  0  0  0
 13  2  2  0  0  0  0
 14  1  2  0  0  0  0
 15 11  1  0  0  0  0
 16 17  1  0  0  0  0
 17  6  2  0  0  0  0
 18 13  1  0  0  0  0
 20 19  1  6  0  0  0
 20 11  1  0  0  0  0
 20  3  1  0  0  0  0
 21 24  1  0  0  0  0
 21  8  1  0  0  0  0
 22 25  1  0  0  0  0
 24 23  2  0  0  0  0
 24 25  1  0  0  0  0
 25 27  1  0  0  0  0
 26 27  2  0  0  0  0
 27 28  1  0  0  0  0
 28 29  1  0  0  0  0
 29 30  1  0  0  0  0
 29 31  1  0  0  0  0
M  END
>  <MODEL>
9

>  <REMARK>
 VINA RESULT:      -6.3      3.095      5.579
  Name = 
  5 active torsions:
  status: ('A' for Active; 'I' for Inactive)
    1  A    between atoms: C_1  and  O_24
    2  A    between atoms: C_9  and  C_23
    3  A    between atoms: C_15  and  C_23
    4  A    between atoms: C_19  and  N_22
    5  A    between atoms: C_19  and  O_24
                            x       y       z     vdW  Elec       q    Type
                         _______ _______ _______ _____ _____    ______ ____

>  <TORSDO>
F 5

$$$$
