=
 OpenBabel10272414573D

 37 40  0  0  1  0  0  0  0  0999 V2000
  189.8130  178.7590  142.9050 C   0  0  0  0  0  2  0  0  0  0  0  0
  186.8800  177.2540  143.1600 C   0  0  0  0  0  0  0  0  0  0  0  0
  191.6470  177.4860  145.8760 C   0  0  0  0  0  2  0  0  0  0  0  0
  189.1260  177.4440  142.5000 C   0  0  2  0  0  3  0  0  0  0  0  0
  191.0790  177.4690  144.6720 C   0  0  1  0  0  3  0  0  0  0  0  0
  187.7480  177.7080  142.1290 N   0  0  0  0  0  0  0  0  0  0  0  0
  191.4140  179.9230  144.3410 C   0  0  0  0  0  1  0  0  0  0  0  0
  190.2880  176.2240  144.4580 C   0  0  2  0  0  0  0  0  0  0  0  0
  190.1390  175.6370  145.8540 C   0  0  0  0  0  2  0  0  0  0  0  0
  191.1560  178.5950  143.6460 C   0  0  2  0  0  0  0  0  0  0  0  0
  191.0930  175.2340  143.6280 C   0  0  0  0  0  1  0  0  0  0  0  0
  185.6260  177.2360  143.0430 O   0  0  0  0  0  0  0  0  0  0  0  0
  188.9800  176.5260  143.7200 C   0  0  1  0  0  3  0  0  0  0  0  0
  191.2670  176.2760  146.6670 C   0  0  1  0  0  3  0  0  0  0  0  0
  187.6110  176.8140  144.3820 C   0  0  1  0  0  3  0  0  0  0  0  0
  192.3520  175.4010  146.7260 O   0  0  0  0  0  0  0  0  0  0  0  0
  193.0160  175.7690  147.8020 O   0  0  0  0  0  1  0  0  0  0  0  0
  192.1690  177.7000  141.5380 C   0  0  0  0  0  2  0  0  0  0  0  0
  192.2900  178.3820  142.6790 C   0  0  0  0  0  3  0  0  0  0  0  0
  187.6080  178.0030  145.3730 C   0  0  2  0  0  3  0  0  0  0  0  0
  187.7130  177.5820  146.7020 O   0  0  0  0  0  0  0  0  0  0  0  0
  188.7100  178.1700  148.7800 C   0  0  0  0  0  1  0  0  0  0  0  0
  188.5900  178.4880  147.3050 C   0  0  0  0  0  2  0  0  0  0  0  0
  186.3590  178.8840  145.2020 C   0  0  0  0  0  2  0  0  0  0  0  0
  185.2890  178.5950  146.2480 C   0  0  1  0  0  3  0  0  0  0  0  0
  185.4100  179.4920  147.3100 O   0  0  0  0  0  1  0  0  0  0  0  0
  183.7800  179.4730  144.5250 C   0  0  0  0  0  2  0  0  0  0  0  0
  183.9420  178.7360  145.6210 C   0  0  0  0  0  3  0  0  0  0  0  0
  187.3360  178.3210  140.8710 C   0  0  0  0  0  2  0  0  0  0  0  0
  188.4880  178.3630  139.8680 C   0  0  0  0  0  2  0  0  0  0  0  0
  188.9130  178.1890  137.4010 C   0  0  0  0  0  3  0  0  0  0  0  0
  188.0120  178.1460  138.4710 C   0  0  0  0  0  0  0  0  0  0  0  0
  186.6490  177.9460  138.2260 C   0  0  0  0  0  3  0  0  0  0  0  0
  184.8670  177.5970  136.6820 F   0  0  0  0  0  0  0  0  0  0  0  0
  187.0890  177.8260  135.8490 C   0  0  0  0  0  3  0  0  0  0  0  0
  186.1870  177.7850  136.9170 C   0  0  0  0  0  0  0  0  0  0  0  0
  188.4520  178.0260  136.0910 C   0  0  0  0  0  3  0  0  0  0  0  0
  1 10  1  0  0  0  0
  2 15  1  0  0  0  0
  3 14  1  0  0  0  0
  4  1  1  1  0  0  0
  4 13  1  0  0  0  0
  5  3  1  1  0  0  0
  6  4  1  0  0  0  0
  6  2  1  0  0  0  0
  8 11  1  6  0  0  0
  8  5  1  0  0  0  0
  8  9  1  0  0  0  0
  9 14  1  0  0  0  0
 10  7  1  1  0  0  0
 10  5  1  0  0  0  0
 12  2  2  0  0  0  0
 13 15  1  0  0  0  0
 13  8  1  0  0  0  0
 14 16  1  0  0  0  0
 15 20  1  0  0  0  0
 16 17  1  0  0  0  0
 18 19  2  0  0  0  0
 19 10  1  0  0  0  0
 20 21  1  0  0  0  0
 21 23  1  0  0  0  0
 23 22  1  0  0  0  0
 24 20  1  0  0  0  0
 24 25  1  0  0  0  0
 25 26  1  0  0  0  0
 27 28  2  0  0  0  0
 28 25  1  0  0  0  0
 29  6  1  0  0  0  0
 30 29  1  0  0  0  0
 31 32  1  0  0  0  0
 32 30  1  0  0  0  0
 33 32  2  0  0  0  0
 34 36  1  0  0  0  0
 35 37  1  0  0  0  0
 35 36  2  0  0  0  0
 36 33  1  0  0  0  0
 37 31  2  0  0  0  0
M  END
>  <MODEL>
1

>  <REMARK>
 VINA RESULT:      -6.0      0.000      0.000
  Name = 
  11 active torsions:
  status: ('A' for Active; 'I' for Inactive)
    1  A    between atoms: C_1  and  O_5
    2  A    between atoms: C_1  and  C_33
    3  A    between atoms: C_1  and  C_36
    4  A    between atoms: O_3  and  C_32
    5  A    between atoms: O_5  and  C_23
    6  A    between atoms: C_6  and  C_31
    7  A    between atoms: N_14  and  C_37
    8  A    between atoms: C_17  and  C_33
    9  A    between atoms: C_17  and  C_34
   10  A    between atoms: C_24  and  C_28
   11  A    between atoms: C_31  and  C_37
                            x       y       z     vdW  Elec       q    Type
                         _______ _______ _______ _____ _____    ______ ____

>  <TORSDO>
F 11

$$$$
=
 OpenBabel10272414573D

 37 40  0  0  1  0  0  0  0  0999 V2000
  189.7440  178.7160  142.9110 C   0  0  0  0  0  2  0  0  0  0  0  0
  186.8400  177.1790  143.2760 C   0  0  0  0  0  0  0  0  0  0  0  0
  191.6860  177.5040  145.8380 C   0  0  0  0  0  2  0  0  0  0  0  0
  189.0600  177.3880  142.5440 C   0  0  2  0  0  3  0  0  0  0  0  0
  191.0800  177.4650  144.6520 C   0  0  1  0  0  3  0  0  0  0  0  0
  187.6690  177.6310  142.2130 N   0  0  0  0  0  0  0  0  0  0  0  0
  191.3740  179.9190  144.2810 C   0  0  0  0  0  1  0  0  0  0  0  0
  190.2990  176.2070  144.4790 C   0  0  2  0  0  0  0  0  0  0  0  0
  190.2010  175.6370  145.8860 C   0  0  0  0  0  2  0  0  0  0  0  0
  191.1110  178.5790  143.6110 C   0  0  2  0  0  0  0  0  0  0  0  0
  191.0900  175.2170  143.6370 C   0  0  0  0  0  1  0  0  0  0  0  0
  185.5830  177.1450  143.1990 O   0  0  0  0  0  0  0  0  0  0  0  0
  188.9640  176.4840  143.7790 C   0  0  1  0  0  3  0  0  0  0  0  0
  191.3460  176.3000  146.6550 C   0  0  1  0  0  3  0  0  0  0  0  0
  187.6140  176.7640  144.4800 C   0  0  1  0  0  3  0  0  0  0  0  0
  192.4430  175.4390  146.6910 O   0  0  0  0  0  0  0  0  0  0  0  0
  193.0790  175.7580  147.7990 O   0  0  0  0  0  1  0  0  0  0  0  0
  192.0700  177.6650  141.4850 C   0  0  0  0  0  2  0  0  0  0  0  0
  192.2170  178.3670  142.6110 C   0  0  0  0  0  3  0  0  0  0  0  0
  187.6270  177.9650  145.4560 C   0  0  2  0  0  3  0  0  0  0  0  0
  187.7060  177.5590  146.7910 O   0  0  0  0  0  0  0  0  0  0  0  0
  188.6560  178.1910  148.8780 C   0  0  0  0  0  1  0  0  0  0  0  0
  188.6310  178.4240  147.3830 C   0  0  0  0  0  2  0  0  0  0  0  0
  186.4010  178.8730  145.2590 C   0  0  0  0  0  2  0  0  0  0  0  0
  185.3180  178.6320  146.3040 C   0  0  1  0  0  3  0  0  0  0  0  0
  185.4740  179.5290  147.3620 O   0  0  0  0  0  1  0  0  0  0  0  0
  183.8620  179.4830  144.5230 C   0  0  0  0  0  2  0  0  0  0  0  0
  183.9790  178.8250  145.6740 C   0  0  0  0  0  3  0  0  0  0  0  0
  187.2100  178.2220  140.9610 C   0  0  0  0  0  2  0  0  0  0  0  0
  186.0100  179.1420  141.1860 C   0  0  0  0  0  2  0  0  0  0  0  0
  183.5590  178.7860  140.7810 C   0  0  0  0  0  3  0  0  0  0  0  0
  184.8700  178.7910  140.2900 C   0  0  0  0  0  0  0  0  0  0  0  0
  185.1190  178.4210  138.9640 C   0  0  0  0  0  3  0  0  0  0  0  0
  184.3060  177.6850  136.8480 F   0  0  0  0  0  0  0  0  0  0  0  0
  182.7520  178.0460  138.6210 C   0  0  0  0  0  3  0  0  0  0  0  0
  184.0610  178.0490  138.1290 C   0  0  0  0  0  0  0  0  0  0  0  0
  182.5010  178.4150  139.9450 C   0  0  0  0  0  3  0  0  0  0  0  0
  1 10  1  0  0  0  0
  2 15  1  0  0  0  0
  3 14  1  0  0  0  0
  4  1  1  1  0  0  0
  4 13  1  0  0  0  0
  5  3  1  1  0  0  0
  6  4  1  0  0  0  0
  6  2  1  0  0  0  0
  8 11  1  6  0  0  0
  8  5  1  0  0  0  0
  8  9  1  0  0  0  0
  9 14  1  0  0  0  0
 10  7  1  1  0  0  0
 10  5  1  0  0  0  0
 12  2  2  0  0  0  0
 13  8  1  0  0  0  0
 13 15  1  0  0  0  0
 14 16  1  0  0  0  0
 15 20  1  0  0  0  0
 16 17  1  0  0  0  0
 18 19  2  0  0  0  0
 19 10  1  0  0  0  0
 20 21  1  0  0  0  0
 21 23  1  0  0  0  0
 23 22  1  0  0  0  0
 24 20  1  0  0  0  0
 24 25  1  0  0  0  0
 25 26  1  0  0  0  0
 27 28  2  0  0  0  0
 28 25  1  0  0  0  0
 29 30  1  0  0  0  0
 29  6  1  0  0  0  0
 32 31  1  0  0  0  0
 32 30  1  0  0  0  0
 33 32  2  0  0  0  0
 34 36  1  0  0  0  0
 35 37  1  0  0  0  0
 36 35  2  0  0  0  0
 36 33  1  0  0  0  0
 37 31  2  0  0  0  0
M  END
>  <MODEL>
2

>  <REMARK>
 VINA RESULT:      -5.7      1.362      2.009
  Name = 
  11 active torsions:
  status: ('A' for Active; 'I' for Inactive)
    1  A    between atoms: C_1  and  O_5
    2  A    between atoms: C_1  and  C_33
    3  A    between atoms: C_1  and  C_36
    4  A    between atoms: O_3  and  C_32
    5  A    between atoms: O_5  and  C_23
    6  A    between atoms: C_6  and  C_31
    7  A    between atoms: N_14  and  C_37
    8  A    between atoms: C_17  and  C_33
    9  A    between atoms: C_17  and  C_34
   10  A    between atoms: C_24  and  C_28
   11  A    between atoms: C_31  and  C_37
                            x       y       z     vdW  Elec       q    Type
                         _______ _______ _______ _____ _____    ______ ____

>  <TORSDO>
F 11

$$$$
=
 OpenBabel10272414573D

 37 40  0  0  1  0  0  0  0  0999 V2000
  190.1700  174.3320  137.1430 C   0  0  0  0  0  2  0  0  0  0  0  0
  192.3000  176.5590  138.3400 C   0  0  0  0  0  0  0  0  0  0  0  0
  187.1580  176.3860  136.4230 C   0  0  0  0  0  2  0  0  0  0  0  0
  191.2310  175.3300  136.6490 C   0  0  2  0  0  3  0  0  0  0  0  0
  188.3910  175.9060  136.2780 C   0  0  1  0  0  3  0  0  0  0  0  0
  192.3440  175.3590  137.5790 N   0  0  0  0  0  0  0  0  0  0  0  0
  187.8100  173.7350  137.3730 C   0  0  0  0  0  1  0  0  0  0  0  0
  189.3680  176.9900  135.9780 C   0  0  2  0  0  0  0  0  0  0  0  0
  188.6220  178.2680  136.3310 C   0  0  0  0  0  2  0  0  0  0  0  0
  188.7940  174.4450  136.4550 C   0  0  2  0  0  0  0  0  0  0  0  0
  189.6610  177.0280  134.4860 C   0  0  0  0  0  1  0  0  0  0  0  0
  193.2190  176.9060  139.1290 O   0  0  0  0  0  0  0  0  0  0  0  0
  190.6860  176.7620  136.7260 C   0  0  1  0  0  3  0  0  0  0  0  0
  187.1430  177.8750  136.2990 C   0  0  1  0  0  3  0  0  0  0  0  0
  191.0570  177.3470  138.1100 C   0  0  1  0  0  3  0  0  0  0  0  0
  186.5920  178.2330  135.0690 O   0  0  0  0  0  0  0  0  0  0  0  0
  185.6420  177.3460  134.8590 O   0  0  0  0  0  1  0  0  0  0  0  0
  189.3790  172.5320  134.9500 C   0  0  0  0  0  2  0  0  0  0  0  0
  188.7780  173.7070  135.1430 C   0  0  0  0  0  3  0  0  0  0  0  0
  190.0700  176.9930  139.2480 C   0  0  2  0  0  3  0  0  0  0  0  0
  189.4750  178.1290  139.8040 O   0  0  0  0  0  0  0  0  0  0  0  0
  187.4250  178.5900  140.9200 C   0  0  0  0  0  1  0  0  0  0  0  0
  188.1000  177.8780  139.7670 C   0  0  0  0  0  2  0  0  0  0  0  0
  190.7480  176.1660  140.3540 C   0  0  0  0  0  2  0  0  0  0  0  0
  190.4070  176.6650  141.7530 C   0  0  1  0  0  3  0  0  0  0  0  0
  190.0450  175.5890  142.5640 O   0  0  0  0  0  1  0  0  0  0  0  0
  191.4510  178.3310  143.2200 C   0  0  0  0  0  2  0  0  0  0  0  0
  191.5990  177.3530  142.3300 C   0  0  0  0  0  3  0  0  0  0  0  0
  193.3600  174.3160  137.6810 C   0  0  0  0  0  2  0  0  0  0  0  0
  193.9530  173.9810  136.3140 C   0  0  0  0  0  2  0  0  0  0  0  0
  194.4560  176.2220  135.3020 C   0  0  0  0  0  3  0  0  0  0  0  0
  194.9180  175.0240  135.8600 C   0  0  0  0  0  0  0  0  0  0  0  0
  196.2940  174.7820  135.9490 C   0  0  0  0  0  3  0  0  0  0  0  0
  198.5350  175.4960  135.5680 F   0  0  0  0  0  0  0  0  0  0  0  0
  196.7410  176.9330  134.9310 C   0  0  0  0  0  3  0  0  0  0  0  0
  197.2050  175.7350  135.4860 C   0  0  0  0  0  0  0  0  0  0  0  0
  195.3680  177.1770  134.8410 C   0  0  0  0  0  3  0  0  0  0  0  0
  2 12  2  0  0  0  0
  4 13  1  0  0  0  0
  4  1  1  1  0  0  0
  4  6  1  0  0  0  0
  5  3  1  1  0  0  0
  5 10  1  0  0  0  0
  6 29  1  0  0  0  0
  6  2  1  0  0  0  0
  8 11  1  6  0  0  0
  8  5  1  0  0  0  0
  8  9  1  0  0  0  0
  8 13  1  0  0  0  0
 10  1  1  0  0  0  0
 10  7  1  1  0  0  0
 13 15  1  0  0  0  0
 14  9  1  0  0  0  0
 14  3  1  0  0  0  0
 15  2  1  0  0  0  0
 15 20  1  0  0  0  0
 16 14  1  0  0  0  0
 17 16  1  0  0  0  0
 18 19  2  0  0  0  0
 19 10  1  0  0  0  0
 20 21  1  0  0  0  0
 20 24  1  0  0  0  0
 23 21  1  0  0  0  0
 23 22  1  0  0  0  0
 24 25  1  0  0  0  0
 25 28  1  0  0  0  0
 25 26  1  0  0  0  0
 28 27  2  0  0  0  0
 30 29  1  0  0  0  0
 31 32  1  0  0  0  0
 32 33  2  0  0  0  0
 32 30  1  0  0  0  0
 35 36  2  0  0  0  0
 36 34  1  0  0  0  0
 36 33  1  0  0  0  0
 37 35  1  0  0  0  0
 37 31  2  0  0  0  0
M  END
>  <MODEL>
3

>  <REMARK>
 VINA RESULT:      -5.6      5.312      9.016
  Name = 
  11 active torsions:
  status: ('A' for Active; 'I' for Inactive)
    1  A    between atoms: C_1  and  O_5
    2  A    between atoms: C_1  and  C_33
    3  A    between atoms: C_1  and  C_36
    4  A    between atoms: O_3  and  C_32
    5  A    between atoms: O_5  and  C_23
    6  A    between atoms: C_6  and  C_31
    7  A    between atoms: N_14  and  C_37
    8  A    between atoms: C_17  and  C_33
    9  A    between atoms: C_17  and  C_34
   10  A    between atoms: C_24  and  C_28
   11  A    between atoms: C_31  and  C_37
                            x       y       z     vdW  Elec       q    Type
                         _______ _______ _______ _____ _____    ______ ____

>  <TORSDO>
F 11

$$$$
=
 OpenBabel10272414573D

 37 40  0  0  1  0  0  0  0  0999 V2000
  190.6110  174.7770  137.5280 C   0  0  0  0  0  2  0  0  0  0  0  0
  191.9210  177.2620  139.2720 C   0  0  0  0  0  0  0  0  0  0  0  0
  187.1090  175.9030  137.0030 C   0  0  0  0  0  2  0  0  0  0  0  0
  191.3050  176.1320  137.3080 C   0  0  2  0  0  3  0  0  0  0  0  0
  188.4320  175.8660  136.8560 C   0  0  1  0  0  3  0  0  0  0  0  0
  192.3470  176.3140  138.3020 N   0  0  0  0  0  0  0  0  0  0  0  0
  188.5590  173.4480  137.4760 C   0  0  0  0  0  1  0  0  0  0  0  0
  189.0180  177.2360  136.8360 C   0  0  2  0  0  0  0  0  0  0  0  0
  187.9040  178.1220  137.3720 C   0  0  0  0  0  2  0  0  0  0  0  0
  189.2740  174.5960  136.7810 C   0  0  2  0  0  0  0  0  0  0  0  0
  189.2930  177.6620  135.4020 C   0  0  0  0  0  1  0  0  0  0  0  0
  192.6780  177.7090  140.1740 O   0  0  0  0  0  0  0  0  0  0  0  0
  190.3360  177.2800  137.6170 C   0  0  1  0  0  3  0  0  0  0  0  0
  186.6250  177.3080  137.1630 C   0  0  1  0  0  3  0  0  0  0  0  0
  190.4930  177.6580  139.1090 C   0  0  1  0  0  3  0  0  0  0  0  0
  185.9970  177.7190  135.9870 O   0  0  0  0  0  0  0  0  0  0  0  0
  184.8020  177.1680  136.0390 O   0  0  0  0  0  1  0  0  0  0  0  0
  190.3920  173.2450  134.9930 C   0  0  0  0  0  2  0  0  0  0  0  0
  189.5010  174.1700  135.3550 C   0  0  0  0  0  3  0  0  0  0  0  0
  189.6620  176.7950  140.0880 C   0  0  2  0  0  3  0  0  0  0  0  0
  188.3170  177.1730  140.1130 O   0  0  0  0  0  0  0  0  0  0  0  0
  186.9800  178.7750  141.2570 C   0  0  0  0  0  1  0  0  0  0  0  0
  188.3130  178.4830  140.6040 C   0  0  0  0  0  2  0  0  0  0  0  0
  190.2400  176.8320  141.5130 C   0  0  0  0  0  2  0  0  0  0  0  0
  189.5120  175.8930  142.4670 C   0  0  1  0  0  3  0  0  0  0  0  0
  190.4120  174.9710  143.0020 O   0  0  0  0  0  1  0  0  0  0  0  0
  189.5500  177.7230  144.0990 C   0  0  0  0  0  2  0  0  0  0  0  0
  188.8980  176.6930  143.5660 C   0  0  0  0  0  3  0  0  0  0  0  0
  193.6390  175.6380  138.2750 C   0  0  0  0  0  2  0  0  0  0  0  0
  194.1370  175.4440  136.8440 C   0  0  0  0  0  2  0  0  0  0  0  0
  194.0710  173.5110  135.2440 C   0  0  0  0  0  3  0  0  0  0  0  0
  194.3520  174.0020  136.5240 C   0  0  0  0  0  0  0  0  0  0  0  0
  194.7920  173.1280  137.5250 C   0  0  0  0  0  3  0  0  0  0  0  0
  195.3750  170.9250  138.2190 F   0  0  0  0  0  0  0  0  0  0  0  0
  194.6760  171.2790  135.9670 C   0  0  0  0  0  3  0  0  0  0  0  0
  194.9540  171.7680  137.2470 C   0  0  0  0  0  0  0  0  0  0  0  0
  194.2360  172.1500  134.9660 C   0  0  0  0  0  3  0  0  0  0  0  0
  2 12  2  0  0  0  0
  3 14  1  0  0  0  0
  4  1  1  1  0  0  0
  4 13  1  0  0  0  0
  4  6  1  0  0  0  0
  5  3  1  1  0  0  0
  6  2  1  0  0  0  0
  8 11  1  6  0  0  0
  8  5  1  0  0  0  0
  8  9  1  0  0  0  0
  8 13  1  0  0  0  0
 10  5  1  0  0  0  0
 10  7  1  1  0  0  0
 10  1  1  0  0  0  0
 13 15  1  0  0  0  0
 14  9  1  0  0  0  0
 15  2  1  0  0  0  0
 15 20  1  0  0  0  0
 16 17  1  0  0  0  0
 16 14  1  0  0  0  0
 18 19  2  0  0  0  0
 19 10  1  0  0  0  0
 20 21  1  0  0  0  0
 20 24  1  0  0  0  0
 21 23  1  0  0  0  0
 23 22  1  0  0  0  0
 24 25  1  0  0  0  0
 25 26  1  0  0  0  0
 25 28  1  0  0  0  0
 28 27  2  0  0  0  0
 29  6  1  0  0  0  0
 30 29  1  0  0  0  0
 31 32  1  0  0  0  0
 32 30  1  0  0  0  0
 32 33  2  0  0  0  0
 35 36  2  0  0  0  0
 36 33  1  0  0  0  0
 36 34  1  0  0  0  0
 37 31  2  0  0  0  0
 37 35  1  0  0  0  0
M  END
>  <MODEL>
4

>  <REMARK>
 VINA RESULT:      -5.6      4.980      8.401
  Name = 
  11 active torsions:
  status: ('A' for Active; 'I' for Inactive)
    1  A    between atoms: C_1  and  O_5
    2  A    between atoms: C_1  and  C_33
    3  A    between atoms: C_1  and  C_36
    4  A    between atoms: O_3  and  C_32
    5  A    between atoms: O_5  and  C_23
    6  A    between atoms: C_6  and  C_31
    7  A    between atoms: N_14  and  C_37
    8  A    between atoms: C_17  and  C_33
    9  A    between atoms: C_17  and  C_34
   10  A    between atoms: C_24  and  C_28
   11  A    between atoms: C_31  and  C_37
                            x       y       z     vdW  Elec       q    Type
                         _______ _______ _______ _____ _____    ______ ____

>  <TORSDO>
F 11

$$$$
=
 OpenBabel10272414573D

 37 40  0  0  1  0  0  0  0  0999 V2000
  188.0470  177.4680  136.8940 C   0  0  0  0  0  2  0  0  0  0  0  0
  190.4480  176.0220  138.6460 C   0  0  0  0  0  0  0  0  0  0  0  0
  187.2030  174.8770  134.3670 C   0  0  0  0  0  2  0  0  0  0  0  0
  188.2220  176.5350  138.1040 C   0  0  2  0  0  3  0  0  0  0  0  0
  187.2680  175.4690  135.5580 C   0  0  1  0  0  3  0  0  0  0  0  0
  189.3870  176.9410  138.8680 N   0  0  0  0  0  0  0  0  0  0  0  0
  187.3940  177.7550  134.5550 C   0  0  0  0  0  1  0  0  0  0  0  0
  187.6230  174.4990  136.6320 C   0  0  2  0  0  0  0  0  0  0  0  0
  188.1410  173.2850  135.8760 C   0  0  0  0  0  2  0  0  0  0  0  0
  187.0720  176.9610  135.8120 C   0  0  2  0  0  0  0  0  0  0  0  0
  186.3690  174.0720  137.3810 C   0  0  0  0  0  1  0  0  0  0  0  0
  191.5320  176.0570  139.2870 O   0  0  0  0  0  0  0  0  0  0  0  0
  188.5980  175.1240  137.6350 C   0  0  1  0  0  3  0  0  0  0  0  0
  187.5670  173.4310  134.4650 C   0  0  1  0  0  3  0  0  0  0  0  0
  190.1420  175.0280  137.5790 C   0  0  1  0  0  3  0  0  0  0  0  0
  186.4140  172.6540  134.3480 O   0  0  0  0  0  0  0  0  0  0  0  0
  186.7280  171.5060  134.9130 O   0  0  0  0  0  1  0  0  0  0  0  0
  184.6150  177.0870  135.3450 C   0  0  0  0  0  2  0  0  0  0  0  0
  185.6440  177.2750  136.1730 C   0  0  0  0  0  3  0  0  0  0  0  0
  190.7760  175.5500  136.2680 C   0  0  2  0  0  3  0  0  0  0  0  0
  190.9800  174.5280  135.3370 O   0  0  0  0  0  0  0  0  0  0  0  0
  191.9630  172.3680  135.1710 C   0  0  0  0  0  1  0  0  0  0  0  0
  191.3840  173.4210  136.0900 C   0  0  0  0  0  2  0  0  0  0  0  0
  192.1010  176.2870  136.5300 C   0  0  0  0  0  2  0  0  0  0  0  0
  193.2200  175.8330  135.6000 C   0  0  1  0  0  3  0  0  0  0  0  0
  193.4830  176.8270  134.6570 O   0  0  0  0  0  1  0  0  0  0  0  0
  194.3620  174.9490  137.5830 C   0  0  0  0  0  2  0  0  0  0  0  0
  194.4460  175.5660  136.4070 C   0  0  0  0  0  3  0  0  0  0  0  0
  189.4320  178.1050  139.7480 C   0  0  0  0  0  2  0  0  0  0  0  0
  188.2840  178.0860  140.7550 C   0  0  0  0  0  2  0  0  0  0  0  0
  187.9010  177.5310  143.1730 C   0  0  0  0  0  3  0  0  0  0  0  0
  188.7790  177.9160  142.1530 C   0  0  0  0  0  0  0  0  0  0  0  0
  190.1190  178.1880  142.4520 C   0  0  0  0  0  3  0  0  0  0  0  0
  191.8770  178.3420  144.0530 F   0  0  0  0  0  0  0  0  0  0  0  0
  189.7040  177.6870  144.7840 C   0  0  0  0  0  3  0  0  0  0  0  0
  190.5810  178.0730  143.7660 C   0  0  0  0  0  0  0  0  0  0  0  0
  188.3650  177.4150  144.4880 C   0  0  0  0  0  3  0  0  0  0  0  0
  2  6  1  0  0  0  0
  2 12  2  0  0  0  0
  3 14  1  0  0  0  0
  4  1  1  6  0  0  0
  4  6  1  0  0  0  0
  5  3  1  6  0  0  0
  5 10  1  0  0  0  0
  5  8  1  0  0  0  0
  6 29  1  0  0  0  0
  8 11  1  1  0  0  0
  8 13  1  0  0  0  0
  9  8  1  0  0  0  0
 10  7  1  6  0  0  0
 10 19  1  0  0  0  0
 10  1  1  0  0  0  0
 13  4  1  0  0  0  0
 14  9  1  0  0  0  0
 15 13  1  0  0  0  0
 15  2  1  0  0  0  0
 16 14  1  0  0  0  0
 16 17  1  0  0  0  0
 18 19  2  0  0  0  0
 20 24  1  0  0  0  0
 20 15  1  0  0  0  0
 21 23  1  0  0  0  0
 21 20  1  0  0  0  0
 22 23  1  0  0  0  0
 25 28  1  0  0  0  0
 25 24  1  0  0  0  0
 26 25  1  0  0  0  0
 28 27  2  0  0  0  0
 29 30  1  0  0  0  0
 30 32  1  0  0  0  0
 31 37  1  0  0  0  0
 32 33  1  0  0  0  0
 32 31  2  0  0  0  0
 33 36  2  0  0  0  0
 36 34  1  0  0  0  0
 36 35  1  0  0  0  0
 37 35  2  0  0  0  0
M  END
>  <MODEL>
5

>  <REMARK>
 VINA RESULT:      -5.5      4.991      9.998
  Name = 
  11 active torsions:
  status: ('A' for Active; 'I' for Inactive)
    1  A    between atoms: C_1  and  O_5
    2  A    between atoms: C_1  and  C_33
    3  A    between atoms: C_1  and  C_36
    4  A    between atoms: O_3  and  C_32
    5  A    between atoms: O_5  and  C_23
    6  A    between atoms: C_6  and  C_31
    7  A    between atoms: N_14  and  C_37
    8  A    between atoms: C_17  and  C_33
    9  A    between atoms: C_17  and  C_34
   10  A    between atoms: C_24  and  C_28
   11  A    between atoms: C_31  and  C_37
                            x       y       z     vdW  Elec       q    Type
                         _______ _______ _______ _____ _____    ______ ____

>  <TORSDO>
F 11

$$$$
=
 OpenBabel10272414573D

 37 40  0  0  1  0  0  0  0  0999 V2000
  187.2390  175.3900  136.2850 C   0  0  0  0  0  2  0  0  0  0  0  0
  188.0530  178.5670  136.7000 C   0  0  0  0  0  0  0  0  0  0  0  0
  183.7690  175.2540  137.6060 C   0  0  0  0  0  2  0  0  0  0  0  0
  187.1350  176.7370  135.5510 C   0  0  2  0  0  3  0  0  0  0  0  0
  184.7650  175.5440  136.7710 C   0  0  1  0  0  3  0  0  0  0  0  0
  188.3370  177.5160  135.7870 N   0  0  0  0  0  0  0  0  0  0  0  0
  186.1350  173.5960  137.5280 C   0  0  0  0  0  1  0  0  0  0  0  0
  184.6590  176.9400  136.2590 C   0  0  2  0  0  0  0  0  0  0  0  0
  183.6580  177.6010  137.1950 C   0  0  0  0  0  2  0  0  0  0  0  0
  185.9160  174.6090  136.4140 C   0  0  2  0  0  0  0  0  0  0  0  0
  184.0510  176.9370  134.8650 C   0  0  0  0  0  1  0  0  0  0  0  0
  188.8790  179.4760  136.9790 O   0  0  0  0  0  0  0  0  0  0  0  0
  186.0390  177.6020  136.1860 C   0  0  1  0  0  3  0  0  0  0  0  0
  182.8850  176.4390  137.8210 C   0  0  1  0  0  3  0  0  0  0  0  0
  186.6870  178.4720  137.2890 C   0  0  1  0  0  3  0  0  0  0  0  0
  181.6850  176.2540  137.1340 O   0  0  0  0  0  0  0  0  0  0  0  0
  181.0890  175.2650  137.7670 O   0  0  0  0  0  1  0  0  0  0  0  0
  184.9420  172.6770  135.1550 C   0  0  0  0  0  2  0  0  0  0  0  0
  185.6210  173.8250  135.1630 C   0  0  0  0  0  3  0  0  0  0  0  0
  186.8270  177.7760  138.6640 C   0  0  2  0  0  3  0  0  0  0  0  0
  186.5680  178.6470  139.7260 O   0  0  0  0  0  0  0  0  0  0  0  0
  184.8150  178.8710  141.3190 C   0  0  0  0  0  1  0  0  0  0  0  0
  185.1770  178.6510  139.8660 C   0  0  0  0  0  2  0  0  0  0  0  0
  188.2150  177.1370  138.8410 C   0  0  0  0  0  2  0  0  0  0  0  0
  188.9770  177.7070  140.0320 C   0  0  1  0  0  3  0  0  0  0  0  0
  188.6810  176.9710  141.1800 O   0  0  0  0  0  1  0  0  0  0  0  0
  191.2980  177.3020  140.7140 C   0  0  0  0  0  2  0  0  0  0  0  0
  190.4410  177.6400  139.7530 C   0  0  0  0  0  3  0  0  0  0  0  0
  189.6240  177.2590  135.1490 C   0  0  0  0  0  2  0  0  0  0  0  0
  189.8640  175.7610  134.9640 C   0  0  0  0  0  2  0  0  0  0  0  0
  191.3580  173.9230  135.7940 C   0  0  0  0  0  3  0  0  0  0  0  0
  191.0010  175.2770  135.8000 C   0  0  0  0  0  0  0  0  0  0  0  0
  191.6830  176.1740  136.6290 C   0  0  0  0  0  3  0  0  0  0  0  0
  193.3750  176.5900  138.2550 F   0  0  0  0  0  0  0  0  0  0  0  0
  193.0780  174.3690  137.4410 C   0  0  0  0  0  3  0  0  0  0  0  0
  192.7210  175.7210  137.4490 C   0  0  0  0  0  0  0  0  0  0  0  0
  192.3970  173.4710  136.6130 C   0  0  0  0  0  3  0  0  0  0  0  0
  1 10  1  0  0  0  0
  2 12  2  0  0  0  0
  2 15  1  0  0  0  0
  3 14  1  0  0  0  0
  4  6  1  0  0  0  0
  4 13  1  0  0  0  0
  4  1  1  1  0  0  0
  5  3  1  1  0  0  0
  6  2  1  0  0  0  0
  8 11  1  6  0  0  0
  8  5  1  0  0  0  0
  8  9  1  0  0  0  0
  9 14  1  0  0  0  0
 10  5  1  0  0  0  0
 10  7  1  1  0  0  0
 13  8  1  0  0  0  0
 13 15  1  0  0  0  0
 15 20  1  0  0  0  0
 16 17  1  0  0  0  0
 16 14  1  0  0  0  0
 18 19  2  0  0  0  0
 19 10  1  0  0  0  0
 20 24  1  0  0  0  0
 20 21  1  0  0  0  0
 21 23  1  0  0  0  0
 23 22  1  0  0  0  0
 24 25  1  0  0  0  0
 25 26  1  0  0  0  0
 28 25  1  0  0  0  0
 28 27  2  0  0  0  0
 29  6  1  0  0  0  0
 30 29  1  0  0  0  0
 30 32  1  0  0  0  0
 31 32  2  0  0  0  0
 31 37  1  0  0  0  0
 32 33  1  0  0  0  0
 33 36  2  0  0  0  0
 35 36  1  0  0  0  0
 36 34  1  0  0  0  0
 37 35  2  0  0  0  0
M  END
>  <MODEL>
6

>  <REMARK>
 VINA RESULT:      -5.5      4.635      8.883
  Name = 
  11 active torsions:
  status: ('A' for Active; 'I' for Inactive)
    1  A    between atoms: C_1  and  O_5
    2  A    between atoms: C_1  and  C_33
    3  A    between atoms: C_1  and  C_36
    4  A    between atoms: O_3  and  C_32
    5  A    between atoms: O_5  and  C_23
    6  A    between atoms: C_6  and  C_31
    7  A    between atoms: N_14  and  C_37
    8  A    between atoms: C_17  and  C_33
    9  A    between atoms: C_17  and  C_34
   10  A    between atoms: C_24  and  C_28
   11  A    between atoms: C_31  and  C_37
                            x       y       z     vdW  Elec       q    Type
                         _______ _______ _______ _____ _____    ______ ____

>  <TORSDO>
F 11

$$$$
=
 OpenBabel10272414573D

 37 40  0  0  1  0  0  0  0  0999 V2000
  185.5440  175.7750  137.2930 C   0  0  0  0  0  2  0  0  0  0  0  0
  184.9940  178.6890  138.7540 C   0  0  0  0  0  0  0  0  0  0  0  0
  182.1420  174.7480  136.2070 C   0  0  0  0  0  2  0  0  0  0  0  0
  185.4390  177.2680  136.9390 C   0  0  2  0  0  3  0  0  0  0  0  0
  183.2830  175.4340  136.2170 C   0  0  1  0  0  3  0  0  0  0  0  0
  186.0250  178.0630  138.0010 N   0  0  0  0  0  0  0  0  0  0  0  0
  184.5610  173.5370  137.2250 C   0  0  0  0  0  1  0  0  0  0  0  0
  183.0440  176.8950  136.0450 C   0  0  2  0  0  0  0  0  0  0  0  0
  181.5540  177.0580  136.3040 C   0  0  0  0  0  2  0  0  0  0  0  0
  184.6690  174.8350  136.4400 C   0  0  2  0  0  0  0  0  0  0  0  0
  183.3050  177.2970  134.6010 C   0  0  0  0  0  1  0  0  0  0  0  0
  185.2210  179.5430  139.6520 O   0  0  0  0  0  0  0  0  0  0  0  0
  183.9710  177.7120  136.9510 C   0  0  1  0  0  3  0  0  0  0  0  0
  180.9660  175.6630  136.0870 C   0  0  1  0  0  3  0  0  0  0  0  0
  183.6320  178.2220  138.3720 C   0  0  1  0  0  3  0  0  0  0  0  0
  180.4400  175.5740  134.7980 O   0  0  0  0  0  0  0  0  0  0  0  0
  180.3700  174.2820  134.5550 O   0  0  0  0  0  1  0  0  0  0  0  0
  185.1640  173.3470  134.4880 C   0  0  0  0  0  2  0  0  0  0  0  0
  185.3400  174.5010  135.1340 C   0  0  0  0  0  3  0  0  0  0  0  0
  183.2250  177.1170  139.3760 C   0  0  2  0  0  3  0  0  0  0  0  0
  181.8700  176.7880  139.2790 O   0  0  0  0  0  0  0  0  0  0  0  0
  180.3560  175.0400  139.8350 C   0  0  0  0  0  1  0  0  0  0  0  0
  181.7990  175.4290  139.5990 C   0  0  0  0  0  2  0  0  0  0  0  0
  183.5620  177.5120  140.8240 C   0  0  0  0  0  2  0  0  0  0  0  0
  182.6720  178.6330  141.3500 C   0  0  1  0  0  3  0  0  0  0  0  0
  181.3650  178.1680  141.4990 O   0  0  0  0  0  1  0  0  0  0  0  0
  184.4100  178.7340  143.0780 C   0  0  0  0  0  2  0  0  0  0  0  0
  183.1960  179.0950  142.6680 C   0  0  0  0  0  3  0  0  0  0  0  0
  187.4590  178.2090  138.2270 C   0  0  0  0  0  2  0  0  0  0  0  0
  188.0650  176.9310  138.8060 C   0  0  0  0  0  2  0  0  0  0  0  0
  190.3730  177.0520  139.7840 C   0  0  0  0  0  3  0  0  0  0  0  0
  188.9920  177.2230  139.9380 C   0  0  0  0  0  0  0  0  0  0  0  0
  188.4730  177.6250  141.1730 C   0  0  0  0  0  3  0  0  0  0  0  0
  188.8240  178.2410  143.4480 F   0  0  0  0  0  0  0  0  0  0  0  0
  190.7100  177.6890  142.0970 C   0  0  0  0  0  3  0  0  0  0  0  0
  189.3300  177.8580  142.2520 C   0  0  0  0  0  0  0  0  0  0  0  0
  191.2310  177.2880  140.8630 C   0  0  0  0  0  3  0  0  0  0  0  0
  2 12  2  0  0  0  0
  4 13  1  0  0  0  0
  4  1  1  1  0  0  0
  4  6  1  0  0  0  0
  5  3  1  1  0  0  0
  5 10  1  0  0  0  0
  6 29  1  0  0  0  0
  6  2  1  0  0  0  0
  8 11  1  6  0  0  0
  8  5  1  0  0  0  0
  8  9  1  0  0  0  0
  8 13  1  0  0  0  0
 10  7  1  1  0  0  0
 10  1  1  0  0  0  0
 13 15  1  0  0  0  0
 14  3  1  0  0  0  0
 14  9  1  0  0  0  0
 15  2  1  0  0  0  0
 15 20  1  0  0  0  0
 16 14  1  0  0  0  0
 17 16  1  0  0  0  0
 18 19  2  0  0  0  0
 19 10  1  0  0  0  0
 20 24  1  0  0  0  0
 21 20  1  0  0  0  0
 21 23  1  0  0  0  0
 23 22  1  0  0  0  0
 24 25  1  0  0  0  0
 25 26  1  0  0  0  0
 25 28  1  0  0  0  0
 28 27  2  0  0  0  0
 29 30  1  0  0  0  0
 30 32  1  0  0  0  0
 31 32  2  0  0  0  0
 31 37  1  0  0  0  0
 32 33  1  0  0  0  0
 33 36  2  0  0  0  0
 35 36  1  0  0  0  0
 36 34  1  0  0  0  0
 37 35  2  0  0  0  0
M  END
>  <MODEL>
7

>  <REMARK>
 VINA RESULT:      -5.0      4.409      9.219
  Name = 
  11 active torsions:
  status: ('A' for Active; 'I' for Inactive)
    1  A    between atoms: C_1  and  O_5
    2  A    between atoms: C_1  and  C_33
    3  A    between atoms: C_1  and  C_36
    4  A    between atoms: O_3  and  C_32
    5  A    between atoms: O_5  and  C_23
    6  A    between atoms: C_6  and  C_31
    7  A    between atoms: N_14  and  C_37
    8  A    between atoms: C_17  and  C_33
    9  A    between atoms: C_17  and  C_34
   10  A    between atoms: C_24  and  C_28
   11  A    between atoms: C_31  and  C_37
                            x       y       z     vdW  Elec       q    Type
                         _______ _______ _______ _____ _____    ______ ____

>  <TORSDO>
F 11

$$$$
=
 OpenBabel10272414573D

 37 40  0  0  1  0  0  0  0  0999 V2000
  185.3810  175.7880  137.3390 C   0  0  0  0  0  2  0  0  0  0  0  0
  184.7340  178.6850  138.7950 C   0  0  0  0  0  0  0  0  0  0  0  0
  182.0320  174.7050  136.1470 C   0  0  0  0  0  2  0  0  0  0  0  0
  185.2600  177.2800  136.9880 C   0  0  2  0  0  3  0  0  0  0  0  0
  183.1600  175.4110  136.1940 C   0  0  1  0  0  3  0  0  0  0  0  0
  185.7990  178.0810  138.0710 N   0  0  0  0  0  0  0  0  0  0  0  0
  184.4410  173.5330  137.2310 C   0  0  0  0  0  1  0  0  0  0  0  0
  182.9000  176.8680  136.0210 C   0  0  2  0  0  0  0  0  0  0  0  0
  181.4000  177.0040  136.2360 C   0  0  0  0  0  2  0  0  0  0  0  0
  184.5490  174.8360  136.4550 C   0  0  2  0  0  0  0  0  0  0  0  0
  183.1960  177.2810  134.5870 C   0  0  0  0  0  1  0  0  0  0  0  0
  184.9190  179.5380  139.7020 O   0  0  0  0  0  0  0  0  0  0  0  0
  183.7840  177.6980  136.9580 C   0  0  1  0  0  3  0  0  0  0  0  0
  180.8440  175.5990  135.9950 C   0  0  1  0  0  3  0  0  0  0  0  0
  183.3930  178.1950  138.3700 C   0  0  1  0  0  3  0  0  0  0  0  0
  180.3580  175.5070  134.6910 O   0  0  0  0  0  0  0  0  0  0  0  0
  180.3550  174.2160  134.4280 O   0  0  0  0  0  1  0  0  0  0  0  0
  186.2870  173.6680  135.0830 C   0  0  0  0  0  2  0  0  0  0  0  0
  185.2650  174.5210  135.1690 C   0  0  0  0  0  3  0  0  0  0  0  0
  182.9760  177.0780  139.3570 C   0  0  2  0  0  3  0  0  0  0  0  0
  181.6170  176.7700  139.2620 O   0  0  0  0  0  0  0  0  0  0  0  0
  180.0700  175.0040  139.6490 C   0  0  0  0  0  1  0  0  0  0  0  0
  181.5260  175.4110  139.5800 C   0  0  0  0  0  2  0  0  0  0  0  0
  183.3280  177.4420  140.8100 C   0  0  0  0  0  2  0  0  0  0  0  0
  182.4180  178.5240  141.3810 C   0  0  1  0  0  3  0  0  0  0  0  0
  181.1090  178.0480  141.4620 O   0  0  0  0  0  1  0  0  0  0  0  0
  184.1840  178.7540  143.0670 C   0  0  0  0  0  2  0  0  0  0  0  0
  182.9030  178.9020  142.7400 C   0  0  0  0  0  3  0  0  0  0  0  0
  187.2230  178.2520  138.3400 C   0  0  0  0  0  2  0  0  0  0  0  0
  188.0090  178.4850  137.0510 C   0  0  0  0  0  2  0  0  0  0  0  0
  189.2460  176.6900  135.8070 C   0  0  0  0  0  3  0  0  0  0  0  0
  189.1500  177.5320  136.9210 C   0  0  0  0  0  0  0  0  0  0  0  0
  190.1040  177.4490  137.9410 C   0  0  0  0  0  3  0  0  0  0  0  0
  192.0710  176.4470  138.8400 F   0  0  0  0  0  0  0  0  0  0  0  0
  191.2470  175.6890  136.7350 C   0  0  0  0  0  3  0  0  0  0  0  0
  191.1520  176.5290  137.8490 C   0  0  0  0  0  0  0  0  0  0  0  0
  190.2950  175.7700  135.7140 C   0  0  0  0  0  3  0  0  0  0  0  0
  2 12  2  0  0  0  0
  4  1  1  1  0  0  0
  4  6  1  0  0  0  0
  5  3  1  1  0  0  0
  5 10  1  0  0  0  0
  6 29  1  0  0  0  0
  6  2  1  0  0  0  0
  8 11  1  6  0  0  0
  8  5  1  0  0  0  0
  8  9  1  0  0  0  0
  8 13  1  0  0  0  0
 10  7  1  1  0  0  0
 10  1  1  0  0  0  0
 13  4  1  0  0  0  0
 13 15  1  0  0  0  0
 14  3  1  0  0  0  0
 14  9  1  0  0  0  0
 15  2  1  0  0  0  0
 15 20  1  0  0  0  0
 16 14  1  0  0  0  0
 17 16  1  0  0  0  0
 18 19  2  0  0  0  0
 19 10  1  0  0  0  0
 20 24  1  0  0  0  0
 21 20  1  0  0  0  0
 21 23  1  0  0  0  0
 23 22  1  0  0  0  0
 24 25  1  0  0  0  0
 25 26  1  0  0  0  0
 25 28  1  0  0  0  0
 28 27  2  0  0  0  0
 30 29  1  0  0  0  0
 31 32  1  0  0  0  0
 32 30  1  0  0  0  0
 32 33  2  0  0  0  0
 35 36  2  0  0  0  0
 36 33  1  0  0  0  0
 36 34  1  0  0  0  0
 37 31  2  0  0  0  0
 37 35  1  0  0  0  0
M  END
>  <MODEL>
8

>  <REMARK>
 VINA RESULT:      -5.0      5.641      9.173
  Name = 
  11 active torsions:
  status: ('A' for Active; 'I' for Inactive)
    1  A    between atoms: C_1  and  O_5
    2  A    between atoms: C_1  and  C_33
    3  A    between atoms: C_1  and  C_36
    4  A    between atoms: O_3  and  C_32
    5  A    between atoms: O_5  and  C_23
    6  A    between atoms: C_6  and  C_31
    7  A    between atoms: N_14  and  C_37
    8  A    between atoms: C_17  and  C_33
    9  A    between atoms: C_17  and  C_34
   10  A    between atoms: C_24  and  C_28
   11  A    between atoms: C_31  and  C_37
                            x       y       z     vdW  Elec       q    Type
                         _______ _______ _______ _____ _____    ______ ____

>  <TORSDO>
F 11

$$$$
=
 OpenBabel10272414573D

 37 40  0  0  1  0  0  0  0  0999 V2000
  183.4240  176.2510  138.5770 C   0  0  0  0  0  2  0  0  0  0  0  0
  186.1560  178.1030  138.3850 C   0  0  0  0  0  0  0  0  0  0  0  0
  180.9760  178.5640  140.1480 C   0  0  0  0  0  2  0  0  0  0  0  0
  184.0960  177.2620  137.6330 C   0  0  2  0  0  3  0  0  0  0  0  0
  181.7650  178.0500  139.2060 C   0  0  1  0  0  3  0  0  0  0  0  0
  185.5330  177.0610  137.6460 N   0  0  0  0  0  0  0  0  0  0  0  0
  181.6480  175.7530  140.1830 C   0  0  0  0  0  1  0  0  0  0  0  0
  182.5050  179.1160  138.4730 C   0  0  2  0  0  0  0  0  0  0  0  0
  182.3460  180.3480  139.3520 C   0  0  0  0  0  2  0  0  0  0  0  0
  181.9550  176.5620  138.9320 C   0  0  2  0  0  0  0  0  0  0  0  0
  181.8190  179.4080  137.1470 C   0  0  0  0  0  1  0  0  0  0  0  0
  187.4050  178.2500  138.4460 O   0  0  0  0  0  0  0  0  0  0  0  0
  183.9480  178.6840  138.1890 C   0  0  1  0  0  3  0  0  0  0  0  0
  181.1220  180.0490  140.2210 C   0  0  1  0  0  3  0  0  0  0  0  0
  185.1770  178.9870  139.0790 C   0  0  1  0  0  3  0  0  0  0  0  0
  179.9950  180.6540  139.6640 O   0  0  0  0  0  0  0  0  0  0  0  0
  180.4300  181.8120  139.2120 O   0  0  0  0  0  1  0  0  0  0  0  0
  181.3210  175.0950  137.0040 C   0  0  0  0  0  2  0  0  0  0  0  0
  181.0200  176.0760  137.8570 C   0  0  0  0  0  3  0  0  0  0  0  0
  185.0590  178.4870  140.5390 C   0  0  2  0  0  3  0  0  0  0  0  0
  183.8850  178.9290  141.1550 O   0  0  0  0  0  0  0  0  0  0  0  0
  182.7530  178.7700  143.2410 C   0  0  0  0  0  1  0  0  0  0  0  0
  184.0830  178.7110  142.5210 C   0  0  0  0  0  2  0  0  0  0  0  0
  186.2770  178.9000  141.3820 C   0  0  0  0  0  2  0  0  0  0  0  0
  187.0960  177.7040  141.8550 C   0  0  1  0  0  3  0  0  0  0  0  0
  188.4100  177.8220  141.4010 O   0  0  0  0  0  1  0  0  0  0  0  0
  188.0910  177.1120  144.0180 C   0  0  0  0  0  2  0  0  0  0  0  0
  187.0810  177.6610  143.3470 C   0  0  0  0  0  3  0  0  0  0  0  0
  186.2170  175.9630  136.9710 C   0  0  0  0  0  2  0  0  0  0  0  0
  185.4350  175.4880  135.7470 C   0  0  0  0  0  2  0  0  0  0  0  0
  185.0920  173.4190  137.1270 C   0  0  0  0  0  3  0  0  0  0  0  0
  184.7710  174.1740  135.9920 C   0  0  0  0  0  0  0  0  0  0  0  0
  183.8580  173.6740  135.0580 C   0  0  0  0  0  3  0  0  0  0  0  0
  182.3840  171.9410  134.3480 F   0  0  0  0  0  0  0  0  0  0  0  0
  183.5830  171.6730  136.3920 C   0  0  0  0  0  3  0  0  0  0  0  0
  183.2630  172.4250  135.2570 C   0  0  0  0  0  0  0  0  0  0  0  0
  184.4950  172.1700  137.3270 C   0  0  0  0  0  3  0  0  0  0  0  0
  1 10  1  0  0  0  0
  2 12  2  0  0  0  0
  2 15  1  0  0  0  0
  3 14  1  0  0  0  0
  4  6  1  0  0  0  0
  4 13  1  0  0  0  0
  4  1  1  1  0  0  0
  5  3  1  1  0  0  0
  6  2  1  0  0  0  0
  8 11  1  6  0  0  0
  8  5  1  0  0  0  0
  8  9  1  0  0  0  0
  9 14  1  0  0  0  0
 10  5  1  0  0  0  0
 10  7  1  1  0  0  0
 13  8  1  0  0  0  0
 13 15  1  0  0  0  0
 15 20  1  0  0  0  0
 16 14  1  0  0  0  0
 17 16  1  0  0  0  0
 18 19  2  0  0  0  0
 19 10  1  0  0  0  0
 20 21  1  0  0  0  0
 20 24  1  0  0  0  0
 21 23  1  0  0  0  0
 23 22  1  0  0  0  0
 24 25  1  0  0  0  0
 25 28  1  0  0  0  0
 26 25  1  0  0  0  0
 28 27  2  0  0  0  0
 29  6  1  0  0  0  0
 30 32  1  0  0  0  0
 30 29  1  0  0  0  0
 31 37  1  0  0  0  0
 32 31  2  0  0  0  0
 33 36  2  0  0  0  0
 33 32  1  0  0  0  0
 34 36  1  0  0  0  0
 35 37  2  0  0  0  0
 36 35  1  0  0  0  0
M  END
>  <MODEL>
9

>  <REMARK>
 VINA RESULT:      -4.6      4.449      8.682
  Name = 
  11 active torsions:
  status: ('A' for Active; 'I' for Inactive)
    1  A    between atoms: C_1  and  O_5
    2  A    between atoms: C_1  and  C_33
    3  A    between atoms: C_1  and  C_36
    4  A    between atoms: O_3  and  C_32
    5  A    between atoms: O_5  and  C_23
    6  A    between atoms: C_6  and  C_31
    7  A    between atoms: N_14  and  C_37
    8  A    between atoms: C_17  and  C_33
    9  A    between atoms: C_17  and  C_34
   10  A    between atoms: C_24  and  C_28
   11  A    between atoms: C_31  and  C_37
                            x       y       z     vdW  Elec       q    Type
                         _______ _______ _______ _____ _____    ______ ____

>  <TORSDO>
F 11

$$$$
