=
 OpenBabel10272400403D

 25 28  0  0  1  0  0  0  0  0999 V2000
  187.2540  178.1870  145.8450 C   0  0  0  0  0  0  0  0  0  0  0  0
  188.5340  177.7240  145.5160 C   0  0  0  0  0  0  0  0  0  0  0  0
  187.6590  177.8340  148.2080 C   0  0  0  0  0  3  0  0  0  0  0  0
  186.2060  178.7680  144.9560 C   0  0  2  0  0  3  0  0  0  0  0  0
  183.4900  178.8690  144.2390 C   0  0  0  0  0  3  0  0  0  0  0  0
  188.9380  177.3470  147.9020 C   0  0  0  0  0  3  0  0  0  0  0  0
  185.1130  178.9860  145.9660 C   0  0  0  0  0  0  0  0  0  0  0  0
  183.8620  179.0430  145.6190 N   0  0  0  0  0  0  0  0  0  0  0  0
  190.6790  176.8140  146.2510 C   0  0  0  0  0  0  0  0  0  0  0  0
  191.6230  176.3440  147.3070 C   0  0  0  0  0  1  0  0  0  0  0  0
  188.9780  177.6880  144.1900 C   0  0  0  0  0  3  0  0  0  0  0  0
  184.3550  178.3130  143.3760 C   0  0  0  0  0  3  0  0  0  0  0  0
  186.8400  178.2560  147.1640 C   0  0  0  0  0  0  0  0  0  0  0  0
  185.5220  178.7640  147.3120 N   0  0  0  0  0  2  0  0  0  0  0  0
  191.1020  176.7840  144.9180 C   0  0  0  0  0  3  0  0  0  0  0  0
  185.6900  177.8160  143.8750 C   0  0  0  0  0  2  0  0  0  0  0  0
  190.2560  177.2130  143.8920 C   0  0  0  0  0  0  0  0  0  0  0  0
  189.3890  177.2870  146.5650 C   0  0  0  0  0  0  0  0  0  0  0  0
  190.7310  177.1970  142.4830 C   0  0  0  0  0  2  0  0  0  0  0  0
  189.7140  176.5950  141.6250 N   0  0  0  0  0  2  0  0  0  0  0  0
  189.8040  177.1220  140.2610 C   0  0  2  0  0  3  0  0  0  0  0  0
  191.1660  177.5280  139.9370 N   0  0  0  0  0  1  0  0  0  0  0  0
  188.8260  178.2310  140.0170 C   0  0  0  0  0  0  0  0  0  0  0  0
  188.9540  179.0180  138.8810 O   0  0  0  0  0  0  0  0  0  0  0  0
  187.8690  178.4310  140.8110 O   0  0  0  0  0  1  0  0  0  0  0  0
  1 13  1  0  0  0  0
  2  1  2  0  0  0  0
  2 18  1  0  0  0  0
  4 16  1  6  0  0  0
  4  1  1  0  0  0  0
  4  7  1  0  0  0  0
  5  8  1  0  0  0  0
  6  3  1  0  0  0  0
  7 14  1  0  0  0  0
  8  7  2  0  0  0  0
  9 18  1  0  0  0  0
  9 10  1  0  0  0  0
 11  2  1  0  0  0  0
 12 16  1  0  0  0  0
 12  5  2  0  0  0  0
 13 14  1  0  0  0  0
 13  3  2  0  0  0  0
 15  9  2  0  0  0  0
 17 11  2  0  0  0  0
 17 15  1  0  0  0  0
 18  6  2  0  0  0  0
 19 17  1  0  0  0  0
 20 19  1  0  0  0  0
 21 22  1  1  0  0  0
 21 20  1  0  0  0  0
 23 21  1  0  0  0  0
 23 25  1  0  0  0  0
 24 23  2  0  0  0  0
M  END
>  <MODEL>
1

>  <REMARK>
 VINA RESULT:     -10.6      0.000      0.000
  Name = 
  4 active torsions:
  status: ('A' for Active; 'I' for Inactive)
    1  A    between atoms: C_2  and  C_21
    2  A    between atoms: C_6  and  N_15
    3  A    between atoms: C_6  and  C_23
    4  A    between atoms: N_15  and  C_21
                            x       y       z     vdW  Elec       q    Type
                         _______ _______ _______ _____ _____    ______ ____

>  <TORSDO>
F 4

$$$$
=
 OpenBabel10272400403D

 25 28  0  0  1  0  0  0  0  0999 V2000
  187.2730  178.1720  145.8150 C   0  0  0  0  0  0  0  0  0  0  0  0
  188.5690  177.7360  145.5110 C   0  0  0  0  0  0  0  0  0  0  0  0
  187.6090  177.7450  148.1760 C   0  0  0  0  0  3  0  0  0  0  0  0
  186.2450  178.7680  144.9130 C   0  0  2  0  0  3  0  0  0  0  0  0
  183.5510  178.8580  144.1140 C   0  0  0  0  0  3  0  0  0  0  0  0
  188.9040  177.2850  147.8940 C   0  0  0  0  0  3  0  0  0  0  0  0
  185.1180  178.9380  145.8940 C   0  0  0  0  0  0  0  0  0  0  0  0
  183.8780  178.9910  145.5100 N   0  0  0  0  0  0  0  0  0  0  0  0
  190.7030  176.8300  146.2830 C   0  0  0  0  0  0  0  0  0  0  0  0
  191.6200  176.3370  147.3510 C   0  0  0  0  0  1  0  0  0  0  0  0
  189.0540  177.7510  144.1990 C   0  0  0  0  0  3  0  0  0  0  0  0
  184.4510  178.3430  143.2610 C   0  0  0  0  0  3  0  0  0  0  0  0
  186.8170  178.1910  147.1210 C   0  0  0  0  0  0  0  0  0  0  0  0
  185.4890  178.6770  147.2450 N   0  0  0  0  0  2  0  0  0  0  0  0
  191.1670  176.8500  144.9630 C   0  0  0  0  0  3  0  0  0  0  0  0
  185.7760  177.8470  143.7850 C   0  0  0  0  0  2  0  0  0  0  0  0
  190.3470  177.3030  143.9260 C   0  0  0  0  0  0  0  0  0  0  0  0
  189.3970  177.2760  146.5710 C   0  0  0  0  0  0  0  0  0  0  0  0
  190.8660  177.3400  142.5330 C   0  0  0  0  0  2  0  0  0  0  0  0
  189.8850  176.7530  141.6230 N   0  0  0  0  0  2  0  0  0  0  0  0
  189.6120  177.6530  140.5010 C   0  0  2  0  0  3  0  0  0  0  0  0
  188.2090  178.0460  140.4620 N   0  0  0  0  0  1  0  0  0  0  0  0
  190.0590  177.0770  139.1920 C   0  0  0  0  0  0  0  0  0  0  0  0
  190.6520  175.8210  139.1640 O   0  0  0  0  0  1  0  0  0  0  0  0
  189.8680  177.7010  138.1150 O   0  0  0  0  0  0  0  0  0  0  0  0
  1 13  1  0  0  0  0
  2  1  2  0  0  0  0
  2 18  1  0  0  0  0
  4 16  1  6  0  0  0
  4  1  1  0  0  0  0
  4  7  1  0  0  0  0
  5  8  1  0  0  0  0
  6  3  1  0  0  0  0
  7 14  1  0  0  0  0
  8  7  2  0  0  0  0
  9 18  1  0  0  0  0
  9 10  1  0  0  0  0
 11  2  1  0  0  0  0
 12 16  1  0  0  0  0
 12  5  2  0  0  0  0
 13 14  1  0  0  0  0
 13  3  2  0  0  0  0
 15  9  2  0  0  0  0
 17 11  2  0  0  0  0
 17 15  1  0  0  0  0
 18  6  2  0  0  0  0
 19 17  1  0  0  0  0
 20 19  1  0  0  0  0
 21 22  1  6  0  0  0
 21 20  1  0  0  0  0
 23 21  1  0  0  0  0
 24 23  1  0  0  0  0
 25 23  2  0  0  0  0
M  END
>  <MODEL>
2

>  <REMARK>
 VINA RESULT:     -10.3      0.978      1.240
  Name = 
  4 active torsions:
  status: ('A' for Active; 'I' for Inactive)
    1  A    between atoms: C_2  and  C_21
    2  A    between atoms: C_6  and  N_15
    3  A    between atoms: C_6  and  C_23
    4  A    between atoms: N_15  and  C_21
                            x       y       z     vdW  Elec       q    Type
                         _______ _______ _______ _____ _____    ______ ____

>  <TORSDO>
F 4

$$$$
=
 OpenBabel10272400403D

 25 28  0  0  1  0  0  0  0  0999 V2000
  189.2520  177.0420  144.0080 C   0  0  0  0  0  0  0  0  0  0  0  0
  188.3980  177.4400  145.0440 C   0  0  0  0  0  0  0  0  0  0  0  0
  191.0950  176.7410  145.5530 C   0  0  0  0  0  3  0  0  0  0  0  0
  188.9430  176.8170  142.5670 C   0  0  2  0  0  3  0  0  0  0  0  0
  189.7120  177.1800  139.8880 C   0  0  0  0  0  3  0  0  0  0  0  0
  190.2640  177.1560  146.6040 C   0  0  0  0  0  3  0  0  0  0  0  0
  190.3160  176.4630  142.0670 C   0  0  0  0  0  0  0  0  0  0  0  0
  190.6550  176.6240  140.8230 N   0  0  0  0  0  0  0  0  0  0  0  0
  188.0710  177.9090  147.4200 C   0  0  0  0  0  0  0  0  0  0  0  0
  188.5560  177.9970  148.8280 C   0  0  0  0  0  1  0  0  0  0  0  0
  187.0590  177.7660  144.8000 C   0  0  0  0  0  3  0  0  0  0  0  0
  188.6350  177.8440  140.3350 C   0  0  0  0  0  3  0  0  0  0  0  0
  190.5640  176.6840  144.2670 C   0  0  0  0  0  0  0  0  0  0  0  0
  191.2780  176.2920  143.1040 N   0  0  0  0  0  2  0  0  0  0  0  0
  186.7370  178.2330  147.1530 C   0  0  0  0  0  3  0  0  0  0  0  0
  188.4550  178.0590  141.8180 C   0  0  0  0  0  2  0  0  0  0  0  0
  186.2330  178.1670  145.8510 C   0  0  0  0  0  0  0  0  0  0  0  0
  188.9160  177.5060  146.3660 C   0  0  0  0  0  0  0  0  0  0  0  0
  184.8060  178.4910  145.5900 C   0  0  0  0  0  2  0  0  0  0  0  0
  184.7140  179.7080  144.7870 N   0  0  0  0  0  2  0  0  0  0  0  0
  183.8080  179.5150  143.6520 C   0  0  2  0  0  3  0  0  0  0  0  0
  182.6640  178.6890  144.0190 N   0  0  0  0  0  1  0  0  0  0  0  0
  184.5160  178.9720  142.4490 C   0  0  0  0  0  0  0  0  0  0  0  0
  185.5210  179.7220  141.8500 O   0  0  0  0  0  0  0  0  0  0  0  0
  184.2370  177.8300  141.9980 O   0  0  0  0  0  1  0  0  0  0  0  0
  1 13  2  0  0  0  0
  1  2  1  0  0  0  0
  2 18  1  0  0  0  0
  3  6  2  0  0  0  0
  4 16  1  6  0  0  0
  4  1  1  0  0  0  0
  5 12  2  0  0  0  0
  5  8  1  0  0  0  0
  7  4  1  0  0  0  0
  7 14  1  0  0  0  0
  8  7  2  0  0  0  0
  9 10  1  0  0  0  0
 11  2  2  0  0  0  0
 11 17  1  0  0  0  0
 12 16  1  0  0  0  0
 13  3  1  0  0  0  0
 14 13  1  0  0  0  0
 15  9  1  0  0  0  0
 17 15  2  0  0  0  0
 18  6  1  0  0  0  0
 18  9  2  0  0  0  0
 19 17  1  0  0  0  0
 20 19  1  0  0  0  0
 21 22  1  1  0  0  0
 21 20  1  0  0  0  0
 23 21  1  0  0  0  0
 24 23  2  0  0  0  0
 25 23  1  0  0  0  0
M  END
>  <MODEL>
3

>  <REMARK>
 VINA RESULT:     -10.0      1.537      5.389
  Name = 
  4 active torsions:
  status: ('A' for Active; 'I' for Inactive)
    1  A    between atoms: C_2  and  C_21
    2  A    between atoms: C_6  and  N_15
    3  A    between atoms: C_6  and  C_23
    4  A    between atoms: N_15  and  C_21
                            x       y       z     vdW  Elec       q    Type
                         _______ _______ _______ _____ _____    ______ ____

>  <TORSDO>
F 4

$$$$
=
 OpenBabel10272400403D

 25 28  0  0  1  0  0  0  0  0999 V2000
  187.5650  177.6450  145.3890 C   0  0  0  0  0  0  0  0  0  0  0  0
  186.6860  178.0590  144.3810 C   0  0  0  0  0  0  0  0  0  0  0  0
  185.9190  178.1040  147.1070 C   0  0  0  0  0  3  0  0  0  0  0  0
  188.9260  177.0470  145.2630 C   0  0  2  0  0  3  0  0  0  0  0  0
  191.5830  176.9780  146.1780 C   0  0  0  0  0  3  0  0  0  0  0  0
  185.0280  178.5430  146.1170 C   0  0  0  0  0  3  0  0  0  0  0  0
  189.2740  176.9060  146.7190 C   0  0  0  0  0  0  0  0  0  0  0  0
  190.5070  176.8630  147.1270 N   0  0  0  0  0  0  0  0  0  0  0  0
  184.4990  178.9510  143.7520 C   0  0  0  0  0  0  0  0  0  0  0  0
  183.1310  179.4490  144.0800 C   0  0  0  0  0  1  0  0  0  0  0  0
  187.0520  178.0190  143.0310 C   0  0  0  0  0  3  0  0  0  0  0  0
  191.3450  177.4690  144.9510 C   0  0  0  0  0  3  0  0  0  0  0  0
  187.1770  177.6520  146.7170 C   0  0  0  0  0  0  0  0  0  0  0  0
  188.1880  177.1840  147.5980 N   0  0  0  0  0  2  0  0  0  0  0  0
  184.8870  178.9050  142.4090 C   0  0  0  0  0  3  0  0  0  0  0  0
  189.9620  177.9570  144.5980 C   0  0  0  0  0  2  0  0  0  0  0  0
  186.1570  178.4470  142.0490 C   0  0  0  0  0  0  0  0  0  0  0  0
  185.3950  178.5260  144.7530 C   0  0  0  0  0  0  0  0  0  0  0  0
  186.5430  178.3810  140.6150 C   0  0  0  0  0  2  0  0  0  0  0  0
  187.9440  178.7680  140.4620 N   0  0  0  0  0  2  0  0  0  0  0  0
  188.6810  177.7610  139.6950 C   0  0  2  0  0  3  0  0  0  0  0  0
  189.7180  177.1310  140.5030 N   0  0  0  0  0  1  0  0  0  0  0  0
  189.2390  178.3170  138.4200 C   0  0  0  0  0  0  0  0  0  0  0  0
  190.0510  177.5210  137.6240 O   0  0  0  0  0  0  0  0  0  0  0  0
  188.9490  179.4840  138.0450 O   0  0  0  0  0  1  0  0  0  0  0  0
  1 13  1  0  0  0  0
  2 18  1  0  0  0  0
  2  1  2  0  0  0  0
  4 16  1  6  0  0  0
  4  1  1  0  0  0  0
  4  7  1  0  0  0  0
  5  8  1  0  0  0  0
  6  3  1  0  0  0  0
  7  8  2  0  0  0  0
  7 14  1  0  0  0  0
  9 10  1  0  0  0  0
  9 18  1  0  0  0  0
 11  2  1  0  0  0  0
 12  5  2  0  0  0  0
 13  3  2  0  0  0  0
 13 14  1  0  0  0  0
 15  9  2  0  0  0  0
 16 12  1  0  0  0  0
 17 15  1  0  0  0  0
 17 11  2  0  0  0  0
 18  6  2  0  0  0  0
 19 17  1  0  0  0  0
 20 19  1  0  0  0  0
 21 20  1  0  0  0  0
 21 22  1  1  0  0  0
 23 21  1  0  0  0  0
 24 23  2  0  0  0  0
 25 23  1  0  0  0  0
M  END
>  <MODEL>
4

>  <REMARK>
 VINA RESULT:      -9.9      1.792      4.731
  Name = 
  4 active torsions:
  status: ('A' for Active; 'I' for Inactive)
    1  A    between atoms: C_2  and  C_21
    2  A    between atoms: C_6  and  N_15
    3  A    between atoms: C_6  and  C_23
    4  A    between atoms: N_15  and  C_21
                            x       y       z     vdW  Elec       q    Type
                         _______ _______ _______ _____ _____    ______ ____

>  <TORSDO>
F 4

$$$$
=
 OpenBabel10272400403D

 25 28  0  0  1  0  0  0  0  0999 V2000
  185.8660  178.4750  144.6910 C   0  0  0  0  0  0  0  0  0  0  0  0
  187.1650  177.9630  144.7960 C   0  0  0  0  0  0  0  0  0  0  0  0
  185.6410  178.5860  147.1010 C   0  0  0  0  0  3  0  0  0  0  0  0
  185.1060  178.8690  143.4690 C   0  0  2  0  0  3  0  0  0  0  0  0
  182.6680  178.8180  142.0700 C   0  0  0  0  0  3  0  0  0  0  0  0
  186.9330  178.0550  147.2320 C   0  0  0  0  0  3  0  0  0  0  0  0
  183.8030  179.2730  144.1030 C   0  0  0  0  0  0  0  0  0  0  0  0
  182.6850  179.2570  143.4410 N   0  0  0  0  0  0  0  0  0  0  0  0
  189.0090  177.2210  146.2170 C   0  0  0  0  0  0  0  0  0  0  0  0
  189.6320  176.9680  147.5480 C   0  0  0  0  0  1  0  0  0  0  0  0
  187.9290  177.6740  143.6600 C   0  0  0  0  0  3  0  0  0  0  0  0
  183.6980  178.1100  141.5790 C   0  0  0  0  0  3  0  0  0  0  0  0
  185.1340  178.7950  145.8210 C   0  0  0  0  0  0  0  0  0  0  0  0
  183.8470  179.3170  145.5260 N   0  0  0  0  0  2  0  0  0  0  0  0
  189.7550  176.9360  145.0680 C   0  0  0  0  0  3  0  0  0  0  0  0
  184.8380  177.7240  142.4890 C   0  0  0  0  0  2  0  0  0  0  0  0
  189.2180  177.1560  143.7960 C   0  0  0  0  0  0  0  0  0  0  0  0
  187.7050  177.7400  146.0920 C   0  0  0  0  0  0  0  0  0  0  0  0
  190.0340  176.8710  142.5860 C   0  0  0  0  0  2  0  0  0  0  0  0
  189.8980  177.9660  141.6290 N   0  0  0  0  0  2  0  0  0  0  0  0
  189.4950  177.4620  140.3150 C   0  0  2  0  0  3  0  0  0  0  0  0
  190.6530  177.1150  139.5000 N   0  0  0  0  0  1  0  0  0  0  0  0
  188.5830  178.4110  139.6000 C   0  0  0  0  0  0  0  0  0  0  0  0
  189.0420  179.0850  138.4750 O   0  0  0  0  0  0  0  0  0  0  0  0
  187.3950  178.5760  139.9840 O   0  0  0  0  0  1  0  0  0  0  0  0
  1  2  2  0  0  0  0
  1 13  1  0  0  0  0
  2 18  1  0  0  0  0
  3  6  1  0  0  0  0
  4 16  1  6  0  0  0
  4  7  1  0  0  0  0
  4  1  1  0  0  0  0
  5  8  1  0  0  0  0
  7 14  1  0  0  0  0
  8  7  2  0  0  0  0
  9 10  1  0  0  0  0
 11 17  2  0  0  0  0
 11  2  1  0  0  0  0
 12  5  2  0  0  0  0
 12 16  1  0  0  0  0
 13  3  2  0  0  0  0
 14 13  1  0  0  0  0
 15  9  2  0  0  0  0
 17 15  1  0  0  0  0
 18  9  1  0  0  0  0
 18  6  2  0  0  0  0
 19 17  1  0  0  0  0
 20 19  1  0  0  0  0
 21 22  1  6  0  0  0
 21 20  1  0  0  0  0
 23 25  1  0  0  0  0
 23 21  1  0  0  0  0
 24 23  2  0  0  0  0
M  END
>  <MODEL>
5

>  <REMARK>
 VINA RESULT:      -9.7      1.099      1.723
  Name = 
  4 active torsions:
  status: ('A' for Active; 'I' for Inactive)
    1  A    between atoms: C_2  and  C_21
    2  A    between atoms: C_6  and  N_15
    3  A    between atoms: C_6  and  C_23
    4  A    between atoms: N_15  and  C_21
                            x       y       z     vdW  Elec       q    Type
                         _______ _______ _______ _____ _____    ______ ____

>  <TORSDO>
F 4

$$$$
=
 OpenBabel10272400403D

 25 28  0  0  1  0  0  0  0  0999 V2000
  188.2410  177.3270  143.3720 C   0  0  0  0  0  0  0  0  0  0  0  0
  186.9900  177.7840  143.8040 C   0  0  0  0  0  0  0  0  0  0  0  0
  189.0670  177.2280  145.6480 C   0  0  0  0  0  3  0  0  0  0  0  0
  188.6860  176.9640  141.9950 C   0  0  2  0  0  3  0  0  0  0  0  0
  190.6900  177.1150  140.0300 C   0  0  0  0  0  3  0  0  0  0  0  0
  187.8290  177.7050  146.1030 C   0  0  0  0  0  3  0  0  0  0  0  0
  190.1210  176.6150  142.2780 C   0  0  0  0  0  0  0  0  0  0  0  0
  191.0360  176.6770  141.3570 N   0  0  0  0  0  0  0  0  0  0  0  0
  185.5320  178.4500  145.6480 C   0  0  0  0  0  0  0  0  0  0  0  0
  185.2540  178.6790  147.0960 C   0  0  0  0  0  1  0  0  0  0  0  0
  185.9540  178.0400  142.8990 C   0  0  0  0  0  3  0  0  0  0  0  0
  189.5430  177.7780  139.8200 C   0  0  0  0  0  3  0  0  0  0  0  0
  189.2450  177.0390  144.2800 C   0  0  0  0  0  0  0  0  0  0  0  0
  190.4380  176.5710  143.6670 N   0  0  0  0  0  2  0  0  0  0  0  0
  184.5110  178.7020  144.7260 C   0  0  0  0  0  3  0  0  0  0  0  0
  188.6520  178.1170  140.9900 C   0  0  0  0  0  2  0  0  0  0  0  0
  184.7210  178.5040  143.3580 C   0  0  0  0  0  0  0  0  0  0  0  0
  186.7830  177.9860  145.1960 C   0  0  0  0  0  0  0  0  0  0  0  0
  183.6170  178.7530  142.3940 C   0  0  0  0  0  2  0  0  0  0  0  0
  183.7100  177.8110  141.2810 N   0  0  0  0  0  2  0  0  0  0  0  0
  183.2850  178.4410  140.0290 C   0  0  2  0  0  3  0  0  0  0  0  0
  182.7720  177.4550  139.0850 N   0  0  0  0  0  1  0  0  0  0  0  0
  184.3700  179.2750  139.4190 C   0  0  0  0  0  0  0  0  0  0  0  0
  185.6700  178.7890  139.3860 O   0  0  0  0  0  1  0  0  0  0  0  0
  184.1080  180.3940  138.9040 O   0  0  0  0  0  0  0  0  0  0  0  0
  1  2  2  0  0  0  0
  1 13  1  0  0  0  0
  2 18  1  0  0  0  0
  3  6  1  0  0  0  0
  4 16  1  6  0  0  0
  4  7  1  0  0  0  0
  4  1  1  0  0  0  0
  5  8  1  0  0  0  0
  7 14  1  0  0  0  0
  8  7  2  0  0  0  0
  9 10  1  0  0  0  0
 11 17  2  0  0  0  0
 11  2  1  0  0  0  0
 12  5  2  0  0  0  0
 12 16  1  0  0  0  0
 13  3  2  0  0  0  0
 14 13  1  0  0  0  0
 15  9  2  0  0  0  0
 17 15  1  0  0  0  0
 18  9  1  0  0  0  0
 18  6  2  0  0  0  0
 19 17  1  0  0  0  0
 20 19  1  0  0  0  0
 21 22  1  6  0  0  0
 21 20  1  0  0  0  0
 23 21  1  0  0  0  0
 24 23  1  0  0  0  0
 25 23  2  0  0  0  0
M  END
>  <MODEL>
6

>  <REMARK>
 VINA RESULT:      -9.5      2.450      5.613
  Name = 
  4 active torsions:
  status: ('A' for Active; 'I' for Inactive)
    1  A    between atoms: C_2  and  C_21
    2  A    between atoms: C_6  and  N_15
    3  A    between atoms: C_6  and  C_23
    4  A    between atoms: N_15  and  C_21
                            x       y       z     vdW  Elec       q    Type
                         _______ _______ _______ _____ _____    ______ ____

>  <TORSDO>
F 4

$$$$
=
 OpenBabel10272400403D

 25 28  0  0  1  0  0  0  0  0999 V2000
  187.4800  177.6850  145.2880 C   0  0  0  0  0  0  0  0  0  0  0  0
  186.5380  178.1020  144.3400 C   0  0  0  0  0  0  0  0  0  0  0  0
  185.9320  178.0960  147.1070 C   0  0  0  0  0  3  0  0  0  0  0  0
  188.8390  177.1080  145.0750 C   0  0  2  0  0  3  0  0  0  0  0  0
  191.5460  177.0640  145.8330 C   0  0  0  0  0  3  0  0  0  0  0  0
  184.9780  178.5370  146.1770 C   0  0  0  0  0  3  0  0  0  0  0  0
  189.2730  176.9510  146.5060 C   0  0  0  0  0  0  0  0  0  0  0  0
  190.5280  176.9190  146.8410 N   0  0  0  0  0  0  0  0  0  0  0  0
  184.3070  178.9720  143.8530 C   0  0  0  0  0  0  0  0  0  0  0  0
  182.9540  179.4450  144.2680 C   0  0  0  0  0  1  0  0  0  0  0  0
  186.8260  178.0860  142.9710 C   0  0  0  0  0  3  0  0  0  0  0  0
  191.2310  177.5690  144.6300 C   0  0  0  0  0  3  0  0  0  0  0  0
  187.1700  177.6670  146.6370 C   0  0  0  0  0  0  0  0  0  0  0  0
  188.2370  177.2010  147.4510 N   0  0  0  0  0  2  0  0  0  0  0  0
  184.6170  178.9510  142.4890 C   0  0  0  0  0  3  0  0  0  0  0  0
  189.8220  178.0420  144.3650 C   0  0  0  0  0  2  0  0  0  0  0  0
  185.8700  178.5160  142.0490 C   0  0  0  0  0  0  0  0  0  0  0  0
  185.2660  178.5440  144.7940 C   0  0  0  0  0  0  0  0  0  0  0  0
  186.1730  178.4760  140.5940 C   0  0  0  0  0  2  0  0  0  0  0  0
  185.2300  179.3260  139.8700 N   0  0  0  0  0  2  0  0  0  0  0  0
  184.7830  178.6740  138.6370 C   0  0  2  0  0  3  0  0  0  0  0  0
  183.8160  177.6190  138.9130 N   0  0  0  0  0  1  0  0  0  0  0  0
  185.9300  178.1690  137.8160 C   0  0  0  0  0  0  0  0  0  0  0  0
  185.9870  176.8240  137.4750 O   0  0  0  0  0  1  0  0  0  0  0  0
  186.8210  178.9560  137.4010 O   0  0  0  0  0  0  0  0  0  0  0  0
  1 13  1  0  0  0  0
  2 18  1  0  0  0  0
  2  1  2  0  0  0  0
  4 16  1  6  0  0  0
  4  1  1  0  0  0  0
  4  7  1  0  0  0  0
  5  8  1  0  0  0  0
  6  3  1  0  0  0  0
  7  8  2  0  0  0  0
  7 14  1  0  0  0  0
  9 10  1  0  0  0  0
  9 18  1  0  0  0  0
 11  2  1  0  0  0  0
 12  5  2  0  0  0  0
 13  3  2  0  0  0  0
 13 14  1  0  0  0  0
 15  9  2  0  0  0  0
 16 12  1  0  0  0  0
 17 15  1  0  0  0  0
 17 11  2  0  0  0  0
 18  6  2  0  0  0  0
 19 17  1  0  0  0  0
 20 19  1  0  0  0  0
 21 22  1  1  0  0  0
 21 20  1  0  0  0  0
 23 21  1  0  0  0  0
 24 23  1  0  0  0  0
 25 23  2  0  0  0  0
M  END
>  <MODEL>
7

>  <REMARK>
 VINA RESULT:      -9.5      2.753      5.269
  Name = 
  4 active torsions:
  status: ('A' for Active; 'I' for Inactive)
    1  A    between atoms: C_2  and  C_21
    2  A    between atoms: C_6  and  N_15
    3  A    between atoms: C_6  and  C_23
    4  A    between atoms: N_15  and  C_21
                            x       y       z     vdW  Elec       q    Type
                         _______ _______ _______ _____ _____    ______ ____

>  <TORSDO>
F 4

$$$$
=
 OpenBabel10272400403D

 25 28  0  0  1  0  0  0  0  0999 V2000
  186.9910  178.2290  145.0040 C   0  0  0  0  0  0  0  0  0  0  0  0
  188.2030  177.8150  144.4360 C   0  0  0  0  0  0  0  0  0  0  0  0
  187.7900  177.7310  147.2370 C   0  0  0  0  0  3  0  0  0  0  0  0
  185.8040  178.8450  144.3430 C   0  0  2  0  0  3  0  0  0  0  0  0
  183.0050  178.9360  144.0960 C   0  0  0  0  0  3  0  0  0  0  0  0
  189.0040  177.2920  146.6900 C   0  0  0  0  0  3  0  0  0  0  0  0
  184.8940  178.9740  145.5330 C   0  0  0  0  0  0  0  0  0  0  0  0
  183.6020  179.0280  145.4040 N   0  0  0  0  0  0  0  0  0  0  0  0
  190.4490  176.9040  144.7400 C   0  0  0  0  0  0  0  0  0  0  0  0
  191.5610  176.3860  145.5900 C   0  0  0  0  0  1  0  0  0  0  0  0
  188.4190  177.8750  143.0550 C   0  0  0  0  0  3  0  0  0  0  0  0
  183.7190  178.4570  143.0660 C   0  0  0  0  0  3  0  0  0  0  0  0
  186.8040  178.2030  146.3750 C   0  0  0  0  0  0  0  0  0  0  0  0
  185.5250  178.6730  146.7740 N   0  0  0  0  0  2  0  0  0  0  0  0
  190.6430  176.9690  143.3570 C   0  0  0  0  0  3  0  0  0  0  0  0
  185.1230  177.9560  143.3000 C   0  0  0  0  0  2  0  0  0  0  0  0
  189.6330  177.4470  142.5170 C   0  0  0  0  0  0  0  0  0  0  0  0
  189.2260  177.3290  145.2950 C   0  0  0  0  0  0  0  0  0  0  0  0
  189.8660  177.5340  141.0510 C   0  0  0  0  0  2  0  0  0  0  0  0
  191.1240  176.8730  140.7100 N   0  0  0  0  0  2  0  0  0  0  0  0
  191.3070  176.8190  139.2580 C   0  0  2  0  0  3  0  0  0  0  0  0
  190.6550  175.6480  138.6830 N   0  0  0  0  0  1  0  0  0  0  0  0
  192.7510  176.8930  138.8660 C   0  0  0  0  0  0  0  0  0  0  0  0
  193.7000  177.2500  139.8150 O   0  0  0  0  0  1  0  0  0  0  0  0
  193.1170  176.5990  137.6980 O   0  0  0  0  0  0  0  0  0  0  0  0
  1 13  1  0  0  0  0
  2  1  2  0  0  0  0
  2 18  1  0  0  0  0
  4 16  1  6  0  0  0
  4  1  1  0  0  0  0
  4  7  1  0  0  0  0
  5  8  1  0  0  0  0
  6  3  1  0  0  0  0
  7 14  1  0  0  0  0
  8  7  2  0  0  0  0
  9 18  1  0  0  0  0
  9 10  1  0  0  0  0
 11  2  1  0  0  0  0
 12 16  1  0  0  0  0
 12  5  2  0  0  0  0
 13 14  1  0  0  0  0
 13  3  2  0  0  0  0
 15  9  2  0  0  0  0
 17 11  2  0  0  0  0
 17 15  1  0  0  0  0
 18  6  2  0  0  0  0
 19 17  1  0  0  0  0
 20 19  1  0  0  0  0
 21 22  1  1  0  0  0
 21 20  1  0  0  0  0
 23 21  1  0  0  0  0
 23 24  1  0  0  0  0
 25 23  2  0  0  0  0
M  END
>  <MODEL>
8

>  <REMARK>
 VINA RESULT:      -9.3      1.827      2.205
  Name = 
  4 active torsions:
  status: ('A' for Active; 'I' for Inactive)
    1  A    between atoms: C_2  and  C_21
    2  A    between atoms: C_6  and  N_15
    3  A    between atoms: C_6  and  C_23
    4  A    between atoms: N_15  and  C_21
                            x       y       z     vdW  Elec       q    Type
                         _______ _______ _______ _____ _____    ______ ____

>  <TORSDO>
F 4

$$$$
=
 OpenBabel10272400403D

 25 28  0  0  1  0  0  0  0  0999 V2000
  187.1670  178.2970  142.0010 C   0  0  0  0  0  0  0  0  0  0  0  0
  186.5460  178.2680  143.2550 C   0  0  0  0  0  0  0  0  0  0  0  0
  185.0870  178.8910  140.9090 C   0  0  0  0  0  3  0  0  0  0  0  0
  188.6100  178.1290  141.6610 C   0  0  2  0  0  3  0  0  0  0  0  0
  190.5310  176.9730  139.9650 C   0  0  0  0  0  3  0  0  0  0  0  0
  184.4390  178.8480  142.1510 C   0  0  0  0  0  3  0  0  0  0  0  0
  188.5290  178.2310  140.1630 C   0  0  0  0  0  0  0  0  0  0  0  0
  189.4310  177.7030  139.3910 N   0  0  0  0  0  0  0  0  0  0  0  0
  184.5100  178.5110  144.5850 C   0  0  0  0  0  0  0  0  0  0  0  0
  183.0520  178.7890  144.7280 C   0  0  0  0  0  1  0  0  0  0  0  0
  187.2670  177.9820  144.4190 C   0  0  0  0  0  3  0  0  0  0  0  0
  190.4590  176.5390  141.2330 C   0  0  0  0  0  3  0  0  0  0  0  0
  186.4520  178.6210  140.8610 C   0  0  0  0  0  0  0  0  0  0  0  0
  187.2450  178.6180  139.6820 N   0  0  0  0  0  2  0  0  0  0  0  0
  185.2490  178.2190  145.7360 C   0  0  0  0  0  3  0  0  0  0  0  0
  189.1960  176.7640  142.0270 C   0  0  0  0  0  2  0  0  0  0  0  0
  186.6190  177.9510  145.6550 C   0  0  0  0  0  0  0  0  0  0  0  0
  185.1530  178.5400  143.3310 C   0  0  0  0  0  0  0  0  0  0  0  0
  187.3940  177.6690  146.8920 C   0  0  0  0  0  2  0  0  0  0  0  0
  188.6030  176.9200  146.5580 N   0  0  0  0  0  2  0  0  0  0  0  0
  189.6010  177.0410  147.6230 C   0  0  2  0  0  3  0  0  0  0  0  0
  189.4210  178.2710  148.3840 N   0  0  0  0  0  1  0  0  0  0  0  0
  191.0010  176.9150  147.1030 C   0  0  0  0  0  0  0  0  0  0  0  0
  191.2190  176.8530  145.7330 O   0  0  0  0  0  0  0  0  0  0  0  0
  191.9820  176.9020  147.8920 O   0  0  0  0  0  1  0  0  0  0  0  0
  1  2  1  0  0  0  0
  2 18  2  0  0  0  0
  2 11  1  0  0  0  0
  3  6  2  0  0  0  0
  4  1  1  0  0  0  0
  4 16  1  6  0  0  0
  5 12  2  0  0  0  0
  6 18  1  0  0  0  0
  7  4  1  0  0  0  0
  8  5  1  0  0  0  0
  8  7  2  0  0  0  0
  9 10  1  0  0  0  0
  9 15  2  0  0  0  0
 11 17  2  0  0  0  0
 12 16  1  0  0  0  0
 13  3  1  0  0  0  0
 13  1  2  0  0  0  0
 14  7  1  0  0  0  0
 14 13  1  0  0  0  0
 17 15  1  0  0  0  0
 17 19  1  0  0  0  0
 18  9  1  0  0  0  0
 20 19  1  0  0  0  0
 20 21  1  0  0  0  0
 21 22  1  6  0  0  0
 23 21  1  0  0  0  0
 23 25  1  0  0  0  0
 24 23  2  0  0  0  0
M  END
>  <MODEL>
9

>  <REMARK>
 VINA RESULT:      -9.3      2.777      6.618
  Name = 
  4 active torsions:
  status: ('A' for Active; 'I' for Inactive)
    1  A    between atoms: C_2  and  C_21
    2  A    between atoms: C_6  and  N_15
    3  A    between atoms: C_6  and  C_23
    4  A    between atoms: N_15  and  C_21
                            x       y       z     vdW  Elec       q    Type
                         _______ _______ _______ _____ _____    ______ ____

>  <TORSDO>
F 4

$$$$
