=
 OpenBabel10272415123D

 34 38  0  0  1  0  0  0  0  0999 V2000
  190.6680  175.8450  138.0960 C   0  0  0  0  0  0  0  0  0  0  0  0
  190.5100  174.8020  134.3460 C   0  0  0  0  0  2  0  0  0  0  0  0
  189.7760  176.9490  135.4700 C   0  0  0  0  0  2  0  0  0  0  0  0
  190.9860  175.4350  139.2030 O   0  0  0  0  0  0  0  0  0  0  0  0
  188.9610  179.1900  138.3550 N   0  0  0  0  0  2  0  0  0  0  0  0
  188.7690  178.7930  136.9550 C   0  0  1  0  0  3  0  0  0  0  0  0
  189.7240  178.1180  139.0080 C   0  0  2  0  0  3  0  0  0  0  0  0
  189.2380  177.3650  136.8370 C   0  0  2  0  0  3  0  0  0  0  0  0
  190.3070  177.2890  137.8770 C   0  0  2  0  0  3  0  0  0  0  0  0
  187.3010  178.8880  136.5910 C   0  0  0  0  0  1  0  0  0  0  0  0
  190.9130  173.3440  134.6180 C   0  0  0  0  0  2  0  0  0  0  0  0
  192.0920  173.2250  135.5970 C   0  0  2  0  0  3  0  0  0  0  0  0
  190.6980  175.7130  135.5610 C   0  0  1  0  0  3  0  0  0  0  0  0
  191.8150  173.9200  136.9410 C   0  0  0  0  0  2  0  0  0  0  0  0
  190.6530  174.9220  136.8950 C   0  0  1  0  0  3  0  0  0  0  0  0
  188.7900  177.3090  139.9130 C   0  0  0  0  0  2  0  0  0  0  0  0
  186.9920  177.4220  142.1130 F   0  0  0  0  0  0  0  0  0  0  0  0
  191.0710  177.4160  142.9300 C   0  0  0  0  0  3  0  0  0  0  0  0
  188.3310  177.1780  146.1860 C   0  0  1  0  0  3  0  0  0  0  0  0
  187.7640  177.6040  144.8240 C   0  0  0  0  0  2  0  0  0  0  0  0
  188.7700  177.4630  143.7140 C   0  0  0  0  0  0  0  0  0  0  0  0
  189.2500  177.3520  141.3330 C   0  0  0  0  0  0  0  0  0  0  0  0
  190.6830  177.4740  145.3910 C   0  0  0  0  0  2  0  0  0  0  0  0
  190.1560  177.4850  143.9850 C   0  0  0  0  0  0  0  0  0  0  0  0
  189.6410  177.9420  146.4020 C   0  0  0  0  0  2  0  0  0  0  0  0
  190.6210  177.3560  141.6100 C   0  0  0  0  0  3  0  0  0  0  0  0
  188.3230  177.4110  142.3840 C   0  0  0  0  0  0  0  0  0  0  0  0
  188.0780  178.1390  148.3430 C   0  0  0  0  0  1  0  0  0  0  0  0
  187.3730  177.4610  147.2630 N   0  0  0  0  0  0  0  0  0  0  0  0
  186.4020  178.4320  146.7790 C   0  0  0  0  0  1  0  0  0  0  0  0
  193.3850  173.7630  134.9950 C   0  0  0  0  0  2  0  0  0  0  0  0
  194.4530  173.9750  136.0620 C   0  0  0  0  0  2  0  0  0  0  0  0
  195.2110  175.2760  135.8470 C   0  0  0  0  0  2  0  0  0  0  0  0
  194.2510  176.4510  135.8200 C   0  0  0  0  0  1  0  0  0  0  0  0
  1  4  2  0  0  0  0
  2 11  1  0  0  0  0
  3 13  1  0  0  0  0
  5  7  1  0  0  0  0
  6 10  1  1  0  0  0
  6  5  1  0  0  0  0
  7 16  1  1  0  0  0
  8  3  1  6  0  0  0
  8  6  1  0  0  0  0
  8  9  1  0  0  0  0
  9  1  1  1  0  0  0
  9  7  1  0  0  0  0
 11 12  1  0  0  0  0
 12 31  1  6  0  0  0
 12 14  1  0  0  0  0
 13  2  1  6  0  0  0
 13 15  1  0  0  0  0
 15 14  1  1  0  0  0
 15  1  1  0  0  0  0
 16 22  1  0  0  0  0
 17 27  1  0  0  0  0
 18 24  1  0  0  0  0
 19 25  1  0  0  0  0
 19 29  1  1  0  0  0
 20 19  1  0  0  0  0
 21 24  2  0  0  0  0
 21 20  1  0  0  0  0
 22 26  1  0  0  0  0
 22 27  2  0  0  0  0
 23 25  1  0  0  0  0
 24 23  1  0  0  0  0
 26 18  2  0  0  0  0
 27 21  1  0  0  0  0
 29 28  1  0  0  0  0
 30 29  1  0  0  0  0
 31 32  1  0  0  0  0
 33 32  1  0  0  0  0
 34 33  1  0  0  0  0
M  END
>  <MODEL>
1

>  <REMARK>
 VINA RESULT:      -8.4      0.000      0.000
  Name = 
  6 active torsions:
  status: ('A' for Active; 'I' for Inactive)
    1  A    between atoms: C_3  and  C_24
    2  A    between atoms: C_7  and  N_15
    3  A    between atoms: C_8  and  C_17
    4  A    between atoms: C_8  and  C_18
    5  A    between atoms: C_24  and  C_25
    6  A    between atoms: C_25  and  C_27
                            x       y       z     vdW  Elec       q    Type
                         _______ _______ _______ _____ _____    ______ ____

>  <TORSDO>
F 6

$$$$
=
 OpenBabel10272415123D

 34 38  0  0  1  0  0  0  0  0999 V2000
  187.8330  177.6930  144.0180 C   0  0  0  0  0  0  0  0  0  0  0  0
  187.7710  178.2280  147.8770 C   0  0  0  0  0  2  0  0  0  0  0  0
  185.8610  178.1340  146.2160 C   0  0  0  0  0  2  0  0  0  0  0  0
  188.5940  177.5410  143.0740 O   0  0  0  0  0  0  0  0  0  0  0  0
  184.2850  178.0770  142.8220 N   0  0  0  0  0  2  0  0  0  0  0  0
  184.2220  178.4030  144.2520 C   0  0  1  0  0  3  0  0  0  0  0  0
  185.6840  177.7500  142.5130 C   0  0  2  0  0  3  0  0  0  0  0  0
  185.6450  178.4810  144.7450 C   0  0  2  0  0  3  0  0  0  0  0  0
  186.3490  177.5090  143.8580 C   0  0  2  0  0  3  0  0  0  0  0  0
  183.5320  179.7390  144.4430 C   0  0  0  0  0  1  0  0  0  0  0  0
  189.2960  178.3780  147.9940 C   0  0  0  0  0  2  0  0  0  0  0  0
  190.0620  177.3190  147.1860 C   0  0  2  0  0  3  0  0  0  0  0  0
  187.3220  177.7200  146.5050 C   0  0  1  0  0  3  0  0  0  0  0  0
  189.6780  177.3220  145.6970 C   0  0  0  0  0  2  0  0  0  0  0  0
  188.3570  178.0440  145.3960 C   0  0  1  0  0  3  0  0  0  0  0  0
  186.3170  178.9100  141.7400 C   0  0  0  0  0  2  0  0  0  0  0  0
  188.7400  178.2160  140.4230 F   0  0  0  0  0  0  0  0  0  0  0  0
  185.2700  178.4190  138.1370 C   0  0  0  0  0  3  0  0  0  0  0  0
  188.8470  176.9970  136.3070 C   0  0  1  0  0  3  0  0  0  0  0  0
  188.9900  177.7210  137.6540 C   0  0  0  0  0  2  0  0  0  0  0  0
  187.6600  178.0010  138.2990 C   0  0  0  0  0  0  0  0  0  0  0  0
  186.3860  178.6060  140.2800 C   0  0  0  0  0  0  0  0  0  0  0  0
  186.4750  177.7510  136.0610 C   0  0  0  0  0  2  0  0  0  0  0  0
  186.4830  178.0950  137.5230 C   0  0  0  0  0  0  0  0  0  0  0  0
  187.8710  177.8060  135.4470 C   0  0  0  0  0  2  0  0  0  0  0  0
  185.2220  178.6800  139.5080 C   0  0  0  0  0  3  0  0  0  0  0  0
  187.6070  178.2730  139.6760 C   0  0  0  0  0  0  0  0  0  0  0  0
  191.0380  176.1020  136.5090 C   0  0  0  0  0  1  0  0  0  0  0  0
  190.1500  176.8660  135.6420 N   0  0  0  0  0  0  0  0  0  0  0  0
  189.9830  176.0410  134.4530 C   0  0  0  0  0  1  0  0  0  0  0  0
  189.8740  175.9200  147.7640 C   0  0  0  0  0  2  0  0  0  0  0  0
  191.0800  175.0320  147.4810 C   0  0  0  0  0  2  0  0  0  0  0  0
  192.3660  175.8410  147.3990 C   0  0  0  0  0  2  0  0  0  0  0  0
  193.0670  175.8600  148.7450 C   0  0  0  0  0  1  0  0  0  0  0  0
  1 15  1  0  0  0  0
  2 11  1  0  0  0  0
  4  1  2  0  0  0  0
  5  6  1  0  0  0  0
  6 10  1  6  0  0  0
  6  8  1  0  0  0  0
  7 16  1  1  0  0  0
  7  5  1  0  0  0  0
  7  9  1  0  0  0  0
  8  3  1  1  0  0  0
  9  1  1  6  0  0  0
  9  8  1  0  0  0  0
 12 31  1  1  0  0  0
 12 11  1  0  0  0  0
 13  3  1  6  0  0  0
 13  2  1  0  0  0  0
 14 12  1  0  0  0  0
 15 14  1  1  0  0  0
 15 13  1  0  0  0  0
 18 26  1  0  0  0  0
 19 29  1  6  0  0  0
 19 20  1  0  0  0  0
 20 21  1  0  0  0  0
 21 27  2  0  0  0  0
 22 16  1  0  0  0  0
 23 24  1  0  0  0  0
 24 18  2  0  0  0  0
 24 21  1  0  0  0  0
 25 23  1  0  0  0  0
 25 19  1  0  0  0  0
 26 22  2  0  0  0  0
 27 22  1  0  0  0  0
 27 17  1  0  0  0  0
 29 28  1  0  0  0  0
 30 29  1  0  0  0  0
 32 31  1  0  0  0  0
 33 32  1  0  0  0  0
 33 34  1  0  0  0  0
M  END
>  <MODEL>
2

>  <REMARK>
 VINA RESULT:      -8.1      2.553      9.596
  Name = 
  6 active torsions:
  status: ('A' for Active; 'I' for Inactive)
    1  A    between atoms: C_3  and  C_24
    2  A    between atoms: C_7  and  N_15
    3  A    between atoms: C_8  and  C_17
    4  A    between atoms: C_8  and  C_18
    5  A    between atoms: C_24  and  C_25
    6  A    between atoms: C_25  and  C_27
                            x       y       z     vdW  Elec       q    Type
                         _______ _______ _______ _____ _____    ______ ____

>  <TORSDO>
F 6

$$$$
=
 OpenBabel10272415123D

 34 38  0  0  1  0  0  0  0  0999 V2000
  183.6690  178.5790  140.2850 C   0  0  0  0  0  0  0  0  0  0  0  0
  180.0420  178.2870  138.8930 C   0  0  0  0  0  2  0  0  0  0  0  0
  180.8530  178.9950  141.1860 C   0  0  0  0  0  2  0  0  0  0  0  0
  184.8400  178.3970  139.9840 O   0  0  0  0  0  0  0  0  0  0  0  0
  183.3530  179.4660  143.9300 N   0  0  0  0  0  2  0  0  0  0  0  0
  181.9690  179.2540  143.4880 C   0  0  1  0  0  3  0  0  0  0  0  0
  184.2190  179.2430  142.7650 C   0  0  2  0  0  3  0  0  0  0  0  0
  182.0390  178.6830  142.0940 C   0  0  2  0  0  3  0  0  0  0  0  0
  183.2950  179.2860  141.5600 C   0  0  2  0  0  3  0  0  0  0  0  0
  181.2800  178.2740  144.4160 C   0  0  0  0  0  1  0  0  0  0  0  0
  180.4770  177.5950  137.5920 C   0  0  0  0  0  2  0  0  0  0  0  0
  181.7020  178.2600  136.9440 C   0  0  2  0  0  3  0  0  0  0  0  0
  181.2170  178.8590  139.6900 C   0  0  1  0  0  3  0  0  0  0  0  0
  182.9080  178.3280  137.8950 C   0  0  0  0  0  2  0  0  0  0  0  0
  182.5480  178.1260  139.3730 C   0  0  1  0  0  3  0  0  0  0  0  0
  184.9330  177.8960  142.9140 C   0  0  0  0  0  2  0  0  0  0  0  0
  187.6850  177.1960  142.7570 F   0  0  0  0  0  0  0  0  0  0  0  0
  186.1460  178.2240  146.4830 C   0  0  0  0  0  3  0  0  0  0  0  0
  190.3390  177.5580  146.1130 C   0  0  1  0  0  3  0  0  0  0  0  0
  189.4490  177.0740  144.9590 C   0  0  0  0  0  2  0  0  0  0  0  0
  188.0230  177.5340  145.1010 C   0  0  0  0  0  0  0  0  0  0  0  0
  185.8370  177.8980  144.1020 C   0  0  0  0  0  0  0  0  0  0  0  0
  188.3580  177.9320  147.5930 C   0  0  0  0  0  2  0  0  0  0  0  0
  187.4900  177.8610  146.3680 C   0  0  0  0  0  0  0  0  0  0  0  0
  189.6590  177.1530  147.4240 C   0  0  0  0  0  2  0  0  0  0  0  0
  185.3210  178.2370  145.3570 C   0  0  0  0  0  3  0  0  0  0  0  0
  187.1870  177.5400  143.9730 C   0  0  0  0  0  0  0  0  0  0  0  0
  191.8550  176.0210  147.1040 C   0  0  0  0  0  1  0  0  0  0  0  0
  191.6840  176.9760  146.0170 N   0  0  0  0  0  0  0  0  0  0  0  0
  191.7590  176.1790  144.8010 C   0  0  0  0  0  1  0  0  0  0  0  0
  181.3780  179.6560  136.4220 C   0  0  0  0  0  2  0  0  0  0  0  0
  180.4410  179.6000  135.2210 C   0  0  0  0  0  2  0  0  0  0  0  0
  180.5760  180.8370  134.3460 C   0  0  0  0  0  2  0  0  0  0  0  0
  180.5760  182.0920  135.1980 C   0  0  0  0  0  1  0  0  0  0  0  0
  4  1  2  0  0  0  0
  6  5  1  0  0  0  0
  6 10  1  1  0  0  0
  7 16  1  1  0  0  0
  7  5  1  0  0  0  0
  8  3  1  6  0  0  0
  8  6  1  0  0  0  0
  9  1  1  6  0  0  0
  9  8  1  0  0  0  0
  9  7  1  0  0  0  0
 11  2  1  0  0  0  0
 12 31  1  1  0  0  0
 12 11  1  0  0  0  0
 12 14  1  0  0  0  0
 13  2  1  6  0  0  0
 13  3  1  0  0  0  0
 15 14  1  6  0  0  0
 15 13  1  0  0  0  0
 15  1  1  0  0  0  0
 16 22  1  0  0  0  0
 17 27  1  0  0  0  0
 19 29  1  6  0  0  0
 19 25  1  0  0  0  0
 20 21  1  0  0  0  0
 20 19  1  0  0  0  0
 21 24  2  0  0  0  0
 22 26  1  0  0  0  0
 24 18  1  0  0  0  0
 24 23  1  0  0  0  0
 25 23  1  0  0  0  0
 26 18  2  0  0  0  0
 27 22  2  0  0  0  0
 27 21  1  0  0  0  0
 29 28  1  0  0  0  0
 30 29  1  0  0  0  0
 32 31  1  0  0  0  0
 33 34  1  0  0  0  0
 33 32  1  0  0  0  0
M  END
>  <MODEL>
3

>  <REMARK>
 VINA RESULT:      -8.0      6.239      8.572
  Name = 
  6 active torsions:
  status: ('A' for Active; 'I' for Inactive)
    1  A    between atoms: C_3  and  C_24
    2  A    between atoms: C_7  and  N_15
    3  A    between atoms: C_8  and  C_17
    4  A    between atoms: C_8  and  C_18
    5  A    between atoms: C_24  and  C_25
    6  A    between atoms: C_25  and  C_27
                            x       y       z     vdW  Elec       q    Type
                         _______ _______ _______ _____ _____    ______ ____

>  <TORSDO>
F 6

$$$$
=
 OpenBabel10272415123D

 34 38  0  0  1  0  0  0  0  0999 V2000
  188.0340  177.7310  143.9990 C   0  0  0  0  0  0  0  0  0  0  0  0
  187.6930  178.1590  147.8560 C   0  0  0  0  0  2  0  0  0  0  0  0
  185.9040  178.0540  146.0660 C   0  0  0  0  0  2  0  0  0  0  0  0
  188.8620  177.6270  143.1050 O   0  0  0  0  0  0  0  0  0  0  0  0
  184.5650  178.0410  142.5710 N   0  0  0  0  0  2  0  0  0  0  0  0
  184.3950  178.3270  144.0020 C   0  0  1  0  0  3  0  0  0  0  0  0
  185.9900  177.7650  142.3520 C   0  0  2  0  0  3  0  0  0  0  0  0
  185.7770  178.4340  144.5930 C   0  0  2  0  0  3  0  0  0  0  0  0
  186.5700  177.5080  143.7320 C   0  0  2  0  0  3  0  0  0  0  0  0
  183.6520  179.6360  144.1780 C   0  0  0  0  0  1  0  0  0  0  0  0
  189.2010  178.3500  148.0810 C   0  0  0  0  0  2  0  0  0  0  0  0
  190.0530  177.3370  147.3010 C   0  0  2  0  0  3  0  0  0  0  0  0
  187.3540  177.6750  146.4440 C   0  0  1  0  0  3  0  0  0  0  0  0
  189.7710  177.3690  145.7900 C   0  0  0  0  0  2  0  0  0  0  0  0
  188.4520  178.0600  145.4170 C   0  0  1  0  0  3  0  0  0  0  0  0
  186.6380  178.9640  141.6530 C   0  0  0  0  0  2  0  0  0  0  0  0
  185.1070  178.3780  139.3290 F   0  0  0  0  0  0  0  0  0  0  0  0
  189.2450  178.0380  139.0720 C   0  0  0  0  0  3  0  0  0  0  0  0
  186.9290  177.5670  135.5260 C   0  0  1  0  0  3  0  0  0  0  0  0
  186.1790  177.5090  136.8640 C   0  0  0  0  0  2  0  0  0  0  0  0
  187.0540  177.8830  138.0300 C   0  0  0  0  0  0  0  0  0  0  0  0
  187.2580  178.5580  140.3570 C   0  0  0  0  0  0  0  0  0  0  0  0
  189.1470  177.3920  136.6670 C   0  0  0  0  0  2  0  0  0  0  0  0
  188.4590  177.7450  137.9550 C   0  0  0  0  0  0  0  0  0  0  0  0
  188.2020  176.7270  135.6710 C   0  0  0  0  0  2  0  0  0  0  0  0
  188.6480  178.4360  140.2700 C   0  0  0  0  0  3  0  0  0  0  0  0
  186.4590  178.2750  139.2390 C   0  0  0  0  0  0  0  0  0  0  0  0
  186.2030  175.6110  134.3910 C   0  0  0  0  0  1  0  0  0  0  0  0
  186.0880  177.0630  134.4320 N   0  0  0  0  0  0  0  0  0  0  0  0
  184.6930  177.3210  134.7620 C   0  0  0  0  0  1  0  0  0  0  0  0
  189.8700  175.9180  147.8300 C   0  0  0  0  0  2  0  0  0  0  0  0
  191.0620  175.0340  147.4810 C   0  0  0  0  0  2  0  0  0  0  0  0
  192.3510  175.8380  147.3960 C   0  0  0  0  0  2  0  0  0  0  0  0
  193.0710  175.8260  148.7310 C   0  0  0  0  0  1  0  0  0  0  0  0
  1 15  1  0  0  0  0
  2 11  1  0  0  0  0
  4  1  2  0  0  0  0
  5  6  1  0  0  0  0
  6 10  1  6  0  0  0
  6  8  1  0  0  0  0
  7 16  1  1  0  0  0
  7  5  1  0  0  0  0
  7  9  1  0  0  0  0
  8  3  1  1  0  0  0
  9  1  1  6  0  0  0
  9  8  1  0  0  0  0
 12 31  1  1  0  0  0
 12 11  1  0  0  0  0
 13  3  1  6  0  0  0
 13  2  1  0  0  0  0
 14 12  1  0  0  0  0
 15 14  1  1  0  0  0
 15 13  1  0  0  0  0
 18 26  1  0  0  0  0
 19 29  1  6  0  0  0
 19 25  1  0  0  0  0
 19 20  1  0  0  0  0
 20 21  1  0  0  0  0
 21 27  2  0  0  0  0
 22 16  1  0  0  0  0
 23 24  1  0  0  0  0
 24 21  1  0  0  0  0
 24 18  2  0  0  0  0
 25 23  1  0  0  0  0
 26 22  2  0  0  0  0
 27 17  1  0  0  0  0
 27 22  1  0  0  0  0
 28 29  1  0  0  0  0
 29 30  1  0  0  0  0
 32 31  1  0  0  0  0
 33 32  1  0  0  0  0
 33 34  1  0  0  0  0
M  END
>  <MODEL>
4

>  <REMARK>
 VINA RESULT:      -7.8      3.346      9.526
  Name = 
  6 active torsions:
  status: ('A' for Active; 'I' for Inactive)
    1  A    between atoms: C_3  and  C_24
    2  A    between atoms: C_7  and  N_15
    3  A    between atoms: C_8  and  C_17
    4  A    between atoms: C_8  and  C_18
    5  A    between atoms: C_24  and  C_25
    6  A    between atoms: C_25  and  C_27
                            x       y       z     vdW  Elec       q    Type
                         _______ _______ _______ _____ _____    ______ ____

>  <TORSDO>
F 6

$$$$
=
 OpenBabel10272415123D

 34 38  0  0  1  0  0  0  0  0999 V2000
  183.8260  178.2050  140.1460 C   0  0  0  0  0  0  0  0  0  0  0  0
  179.9850  178.2290  139.4920 C   0  0  0  0  0  2  0  0  0  0  0  0
  181.3040  179.1040  141.4690 C   0  0  0  0  0  2  0  0  0  0  0  0
  184.8870  177.8310  139.6690 O   0  0  0  0  0  0  0  0  0  0  0  0
  184.3340  179.5750  143.6150 N   0  0  0  0  0  2  0  0  0  0  0  0
  182.8750  179.4960  143.4670 C   0  0  1  0  0  3  0  0  0  0  0  0
  184.9230  179.0940  142.3590 C   0  0  2  0  0  3  0  0  0  0  0  0
  182.6060  178.7510  142.1840 C   0  0  2  0  0  3  0  0  0  0  0  0
  183.7890  179.1090  141.3480 C   0  0  2  0  0  3  0  0  0  0  0  0
  182.2820  178.7420  144.6400 C   0  0  0  0  0  1  0  0  0  0  0  0
  180.0780  177.3270  138.2510 C   0  0  0  0  0  2  0  0  0  0  0  0
  181.2140  177.7360  137.3010 C   0  0  2  0  0  3  0  0  0  0  0  0
  181.3490  178.7330  139.9690 C   0  0  1  0  0  3  0  0  0  0  0  0
  182.5850  177.7600  137.9970 C   0  0  0  0  0  2  0  0  0  0  0  0
  182.5040  177.7950  139.5290 C   0  0  1  0  0  3  0  0  0  0  0  0
  185.5030  177.6930  142.5750 C   0  0  0  0  0  2  0  0  0  0  0  0
  186.7690  177.1550  145.0630 F   0  0  0  0  0  0  0  0  0  0  0  0
  189.1820  178.1760  141.8320 C   0  0  0  0  0  3  0  0  0  0  0  0
  191.0400  176.9690  145.4730 C   0  0  1  0  0  3  0  0  0  0  0  0
  189.5490  177.3300  145.5350 C   0  0  0  0  0  2  0  0  0  0  0  0
  188.9530  177.5470  144.1690 C   0  0  0  0  0  0  0  0  0  0  0  0
  186.9840  177.7490  142.7580 C   0  0  0  0  0  0  0  0  0  0  0  0
  191.2650  177.9410  143.1800 C   0  0  0  0  0  2  0  0  0  0  0  0
  189.7660  177.9180  143.0750 C   0  0  0  0  0  0  0  0  0  0  0  0
  191.7410  178.0360  144.6270 C   0  0  0  0  0  2  0  0  0  0  0  0
  187.7970  178.0990  141.6750 C   0  0  0  0  0  3  0  0  0  0  0  0
  187.5600  177.4790  144.0080 C   0  0  0  0  0  0  0  0  0  0  0  0
  190.5320  176.8790  147.7910 C   0  0  0  0  0  1  0  0  0  0  0  0
  191.6190  176.9020  146.8210 N   0  0  0  0  0  0  0  0  0  0  0  0
  192.2890  175.6190  146.9760 C   0  0  0  0  0  1  0  0  0  0  0  0
  180.9450  179.0860  136.6440 C   0  0  0  0  0  2  0  0  0  0  0  0
  181.0210  178.9940  135.1250 C   0  0  0  0  0  2  0  0  0  0  0  0
  181.1000  180.3700  134.4820 C   0  0  0  0  0  2  0  0  0  0  0  0
  180.4330  181.4070  135.3650 C   0  0  0  0  0  1  0  0  0  0  0  0
  4  1  2  0  0  0  0
  6  5  1  0  0  0  0
  6 10  1  1  0  0  0
  7 16  1  1  0  0  0
  7  5  1  0  0  0  0
  8  3  1  6  0  0  0
  8  6  1  0  0  0  0
  9  1  1  6  0  0  0
  9  8  1  0  0  0  0
  9  7  1  0  0  0  0
 11  2  1  0  0  0  0
 12 31  1  1  0  0  0
 12 14  1  0  0  0  0
 12 11  1  0  0  0  0
 13  2  1  1  0  0  0
 13  3  1  0  0  0  0
 15 14  1  6  0  0  0
 15 13  1  0  0  0  0
 15  1  1  0  0  0  0
 16 22  1  0  0  0  0
 18 24  1  0  0  0  0
 19 20  1  0  0  0  0
 19 29  1  1  0  0  0
 21 20  1  0  0  0  0
 22 27  2  0  0  0  0
 23 25  1  0  0  0  0
 24 23  1  0  0  0  0
 24 21  2  0  0  0  0
 25 19  1  0  0  0  0
 26 18  2  0  0  0  0
 26 22  1  0  0  0  0
 27 21  1  0  0  0  0
 27 17  1  0  0  0  0
 29 30  1  0  0  0  0
 29 28  1  0  0  0  0
 32 31  1  0  0  0  0
 33 32  1  0  0  0  0
 33 34  1  0  0  0  0
M  END
>  <MODEL>
5

>  <REMARK>
 VINA RESULT:      -7.6      5.348      8.249
  Name = 
  6 active torsions:
  status: ('A' for Active; 'I' for Inactive)
    1  A    between atoms: C_3  and  C_24
    2  A    between atoms: C_7  and  N_15
    3  A    between atoms: C_8  and  C_17
    4  A    between atoms: C_8  and  C_18
    5  A    between atoms: C_24  and  C_25
    6  A    between atoms: C_25  and  C_27
                            x       y       z     vdW  Elec       q    Type
                         _______ _______ _______ _____ _____    ______ ____

>  <TORSDO>
F 6

$$$$
=
 OpenBabel10272415123D

 34 38  0  0  1  0  0  0  0  0999 V2000
  182.4340  176.6760  139.0100 C   0  0  0  0  0  0  0  0  0  0  0  0
  180.5710  176.5830  135.5900 C   0  0  0  0  0  2  0  0  0  0  0  0
  181.7020  178.5150  136.7750 C   0  0  0  0  0  2  0  0  0  0  0  0
  182.7350  175.9790  139.9680 O   0  0  0  0  0  0  0  0  0  0  0  0
  183.3500  180.2720  139.6390 N   0  0  0  0  0  2  0  0  0  0  0  0
  182.5530  180.3120  138.4060 C   0  0  1  0  0  3  0  0  0  0  0  0
  183.4290  178.8670  140.0580 C   0  0  2  0  0  3  0  0  0  0  0  0
  181.9710  178.9340  138.2180 C   0  0  2  0  0  3  0  0  0  0  0  0
  183.0050  178.0580  138.8440 C   0  0  2  0  0  3  0  0  0  0  0  0
  181.4400  181.3300  138.5480 C   0  0  0  0  0  1  0  0  0  0  0  0
  180.0370  175.1560  135.7920 C   0  0  0  0  0  2  0  0  0  0  0  0
  181.1060  174.1910  136.3270 C   0  0  2  0  0  3  0  0  0  0  0  0
  181.6300  176.9780  136.6210 C   0  0  1  0  0  3  0  0  0  0  0  0
  181.7310  174.6750  137.6460 C   0  0  0  0  0  2  0  0  0  0  0  0
  181.4970  176.1640  137.9350 C   0  0  1  0  0  3  0  0  0  0  0  0
  182.5140  178.6450  141.2650 C   0  0  0  0  0  2  0  0  0  0  0  0
  185.1850  177.6850  141.4310 F   0  0  0  0  0  0  0  0  0  0  0  0
  183.4060  179.1000  144.9140 C   0  0  0  0  0  3  0  0  0  0  0  0
  187.5290  178.0260  145.0120 C   0  0  1  0  0  3  0  0  0  0  0  0
  186.7110  177.5490  143.8040 C   0  0  0  0  0  2  0  0  0  0  0  0
  185.3300  178.1480  143.7730 C   0  0  0  0  0  0  0  0  0  0  0  0
  183.2960  178.6440  142.5380 C   0  0  0  0  0  0  0  0  0  0  0  0
  185.4620  178.6800  146.2580 C   0  0  0  0  0  2  0  0  0  0  0  0
  184.7130  178.6070  144.9590 C   0  0  0  0  0  0  0  0  0  0  0  0
  186.6900  177.7750  146.2690 C   0  0  0  0  0  2  0  0  0  0  0  0
  182.6980  179.1130  143.7110 C   0  0  0  0  0  3  0  0  0  0  0  0
  184.6100  178.1550  142.5680 C   0  0  0  0  0  0  0  0  0  0  0  0
  189.8170  178.1030  144.3810 C   0  0  0  0  0  1  0  0  0  0  0  0
  188.8140  177.3170  145.0870 N   0  0  0  0  0  0  0  0  0  0  0  0
  189.2550  177.3020  146.4750 C   0  0  0  0  0  1  0  0  0  0  0  0
  182.2030  173.9340  135.3000 C   0  0  0  0  0  2  0  0  0  0  0  0
  183.5770  173.8640  135.9550 C   0  0  0  0  0  2  0  0  0  0  0  0
  184.5240  174.9110  135.3880 C   0  0  0  0  0  2  0  0  0  0  0  0
  185.1200  175.7470  136.5050 C   0  0  0  0  0  1  0  0  0  0  0  0
  1  4  2  0  0  0  0
  2 11  1  0  0  0  0
  5  7  1  0  0  0  0
  6 10  1  1  0  0  0
  6  5  1  0  0  0  0
  7 16  1  1  0  0  0
  8  3  1  6  0  0  0
  8  6  1  0  0  0  0
  8  9  1  0  0  0  0
  9  1  1  1  0  0  0
  9  7  1  0  0  0  0
 11 12  1  0  0  0  0
 12 31  1  6  0  0  0
 12 14  1  0  0  0  0
 13  2  1  6  0  0  0
 13  3  1  0  0  0  0
 13 15  1  0  0  0  0
 15 14  1  6  0  0  0
 15  1  1  0  0  0  0
 16 22  1  0  0  0  0
 17 27  1  0  0  0  0
 18 24  1  0  0  0  0
 19 29  1  1  0  0  0
 19 25  1  0  0  0  0
 20 19  1  0  0  0  0
 21 20  1  0  0  0  0
 21 24  2  0  0  0  0
 22 27  2  0  0  0  0
 22 26  1  0  0  0  0
 23 25  1  0  0  0  0
 24 23  1  0  0  0  0
 26 18  2  0  0  0  0
 27 21  1  0  0  0  0
 28 29  1  0  0  0  0
 29 30  1  0  0  0  0
 31 32  1  0  0  0  0
 33 32  1  0  0  0  0
 33 34  1  0  0  0  0
M  END
>  <MODEL>
6

>  <REMARK>
 VINA RESULT:      -7.5      5.274      7.486
  Name = 
  6 active torsions:
  status: ('A' for Active; 'I' for Inactive)
    1  A    between atoms: C_3  and  C_24
    2  A    between atoms: C_7  and  N_15
    3  A    between atoms: C_8  and  C_17
    4  A    between atoms: C_8  and  C_18
    5  A    between atoms: C_24  and  C_25
    6  A    between atoms: C_25  and  C_27
                            x       y       z     vdW  Elec       q    Type
                         _______ _______ _______ _____ _____    ______ ____

>  <TORSDO>
F 6

$$$$
=
 OpenBabel10272415123D

 34 38  0  0  1  0  0  0  0  0999 V2000
  188.4760  177.4530  141.5340 C   0  0  0  0  0  0  0  0  0  0  0  0
  192.3500  177.0790  141.3720 C   0  0  0  0  0  2  0  0  0  0  0  0
  190.7640  176.7520  143.3190 C   0  0  0  0  0  2  0  0  0  0  0  0
  187.5030  177.7610  140.8600 O   0  0  0  0  0  0  0  0  0  0  0  0
  187.4950  176.9450  145.1320 N   0  0  0  0  0  2  0  0  0  0  0  0
  188.9630  176.9120  145.1480 C   0  0  1  0  0  3  0  0  0  0  0  0
  187.0830  177.1550  143.7380 C   0  0  2  0  0  3  0  0  0  0  0  0
  189.4250  177.3270  143.7750 C   0  0  2  0  0  3  0  0  0  0  0  0
  188.3130  176.8480  142.9010 C   0  0  2  0  0  3  0  0  0  0  0  0
  189.4860  177.8840  146.1870 C   0  0  0  0  0  1  0  0  0  0  0  0
  192.4610  177.6740  139.9600 C   0  0  0  0  0  2  0  0  0  0  0  0
  191.4030  177.1180  138.9930 C   0  0  2  0  0  3  0  0  0  0  0  0
  190.9080  176.7700  141.7800 C   0  0  1  0  0  3  0  0  0  0  0  0
  189.9690  177.3260  139.5060 C   0  0  0  0  0  2  0  0  0  0  0  0
  189.8830  177.6400  141.0060 C   0  0  1  0  0  3  0  0  0  0  0  0
  186.5940  178.5960  143.5650 C   0  0  0  0  0  2  0  0  0  0  0  0
  185.0180  178.5690  141.1980 F   0  0  0  0  0  0  0  0  0  0  0  0
  183.0440  178.8450  144.8500 C   0  0  0  0  0  3  0  0  0  0  0  0
  180.7290  178.3960  141.3010 C   0  0  1  0  0  3  0  0  0  0  0  0
  182.2030  178.7890  141.1280 C   0  0  0  0  0  2  0  0  0  0  0  0
  182.9680  178.7250  142.4230 C   0  0  0  0  0  0  0  0  0  0  0  0
  185.1030  178.6620  143.5860 C   0  0  0  0  0  0  0  0  0  0  0  0
  180.8050  178.8610  143.7560 C   0  0  0  0  0  2  0  0  0  0  0  0
  182.3040  178.8430  143.6640 C   0  0  0  0  0  0  0  0  0  0  0  0
  180.1500  179.2480  142.4340 C   0  0  0  0  0  2  0  0  0  0  0  0
  184.4370  178.7610  144.8110 C   0  0  0  0  0  3  0  0  0  0  0  0
  184.3700  178.6500  142.3890 C   0  0  0  0  0  0  0  0  0  0  0  0
  180.5330  179.7690  139.3720 C   0  0  0  0  0  1  0  0  0  0  0  0
  179.9820  178.6030  140.0520 N   0  0  0  0  0  0  0  0  0  0  0  0
  180.2510  177.4850  139.1590 C   0  0  0  0  0  1  0  0  0  0  0  0
  191.6340  175.6410  138.6920 C   0  0  0  0  0  2  0  0  0  0  0  0
  192.9580  175.4180  137.9720 C   0  0  0  0  0  2  0  0  0  0  0  0
  193.0130  176.1690  136.6500 C   0  0  0  0  0  2  0  0  0  0  0  0
  192.2120  175.4370  135.5900 C   0  0  0  0  0  1  0  0  0  0  0  0
  4  1  2  0  0  0  0
  5  6  1  0  0  0  0
  6 10  1  1  0  0  0
  7 16  1  1  0  0  0
  7  5  1  0  0  0  0
  8  3  1  6  0  0  0
  8  6  1  0  0  0  0
  9  1  1  6  0  0  0
  9  7  1  0  0  0  0
  9  8  1  0  0  0  0
 11  2  1  0  0  0  0
 12 31  1  1  0  0  0
 12 14  1  0  0  0  0
 12 11  1  0  0  0  0
 13  2  1  1  0  0  0
 13  3  1  0  0  0  0
 15 14  1  6  0  0  0
 15  1  1  0  0  0  0
 15 13  1  0  0  0  0
 16 22  1  0  0  0  0
 17 27  1  0  0  0  0
 19 29  1  6  0  0  0
 19 25  1  0  0  0  0
 20 19  1  0  0  0  0
 20 21  1  0  0  0  0
 21 24  1  0  0  0  0
 22 26  2  0  0  0  0
 24 23  1  0  0  0  0
 24 18  2  0  0  0  0
 25 23  1  0  0  0  0
 26 18  1  0  0  0  0
 27 21  2  0  0  0  0
 27 22  1  0  0  0  0
 28 29  1  0  0  0  0
 30 29  1  0  0  0  0
 32 31  1  0  0  0  0
 33 32  1  0  0  0  0
 34 33  1  0  0  0  0
M  END
>  <MODEL>
7

>  <REMARK>
 VINA RESULT:      -7.5      4.089      6.996
  Name = 
  6 active torsions:
  status: ('A' for Active; 'I' for Inactive)
    1  A    between atoms: C_3  and  C_24
    2  A    between atoms: C_7  and  N_15
    3  A    between atoms: C_8  and  C_17
    4  A    between atoms: C_8  and  C_18
    5  A    between atoms: C_24  and  C_25
    6  A    between atoms: C_25  and  C_27
                            x       y       z     vdW  Elec       q    Type
                         _______ _______ _______ _____ _____    ______ ____

>  <TORSDO>
F 6

$$$$
=
 OpenBabel10272415123D

 34 38  0  0  1  0  0  0  0  0999 V2000
  188.4230  177.0080  138.2730 C   0  0  0  0  0  0  0  0  0  0  0  0
  188.2880  177.1510  134.3820 C   0  0  0  0  0  2  0  0  0  0  0  0
  190.1160  176.3040  135.9170 C   0  0  0  0  0  2  0  0  0  0  0  0
  187.7890  177.3020  139.2760 O   0  0  0  0  0  0  0  0  0  0  0  0
  191.8620  175.7800  139.1860 N   0  0  0  0  0  2  0  0  0  0  0  0
  191.9050  175.9270  137.7250 C   0  0  1  0  0  3  0  0  0  0  0  0
  190.5140  176.1690  139.6200 C   0  0  2  0  0  3  0  0  0  0  0  0
  190.6320  176.6230  137.3180 C   0  0  2  0  0  3  0  0  0  0  0  0
  189.6650  176.1640  138.3600 C   0  0  2  0  0  3  0  0  0  0  0  0
  193.1040  176.7660  137.3310 C   0  0  0  0  0  1  0  0  0  0  0  0
  186.9990  177.9870  134.3460 C   0  0  0  0  0  2  0  0  0  0  0  0
  185.9290  177.4750  135.3240 C   0  0  2  0  0  3  0  0  0  0  0  0
  188.6060  176.6000  135.7740 C   0  0  1  0  0  3  0  0  0  0  0  0
  186.4370  177.4130  136.7740 C   0  0  0  0  0  2  0  0  0  0  0  0
  187.9660  177.4550  136.9000 C   0  0  1  0  0  3  0  0  0  0  0  0
  190.5740  177.5470  140.2860 C   0  0  0  0  0  2  0  0  0  0  0  0
  188.1680  177.9530  141.7460 F   0  0  0  0  0  0  0  0  0  0  0  0
  191.6110  177.0240  143.8870 C   0  0  0  0  0  3  0  0  0  0  0  0
  187.9010  177.2470  145.9730 C   0  0  1  0  0  3  0  0  0  0  0  0
  187.9450  177.8450  144.5590 C   0  0  0  0  0  2  0  0  0  0  0  0
  189.2350  177.5360  143.8460 C   0  0  0  0  0  0  0  0  0  0  0  0
  190.4990  177.4260  141.7730 C   0  0  0  0  0  0  0  0  0  0  0  0
  190.3930  177.0580  146.0610 C   0  0  0  0  0  2  0  0  0  0  0  0
  190.4120  177.2440  144.5710 C   0  0  0  0  0  0  0  0  0  0  0  0
  189.1670  177.6970  146.7070 C   0  0  0  0  0  2  0  0  0  0  0  0
  191.6560  177.1210  142.4960 C   0  0  0  0  0  3  0  0  0  0  0  0
  189.2880  177.6410  142.4470 C   0  0  0  0  0  0  0  0  0  0  0  0
  187.1020  178.4130  147.8820 C   0  0  0  0  0  1  0  0  0  0  0  0
  186.6940  177.6830  146.6880 N   0  0  0  0  0  0  0  0  0  0  0  0
  185.9970  178.6640  145.8680 C   0  0  0  0  0  1  0  0  0  0  0  0
  185.3890  176.1100  134.9080 C   0  0  0  0  0  2  0  0  0  0  0  0
  185.2120  175.1900  136.1100 C   0  0  0  0  0  2  0  0  0  0  0  0
  185.9070  173.8540  135.9000 C   0  0  0  0  0  2  0  0  0  0  0  0
  186.7750  173.5140  137.0970 C   0  0  0  0  0  1  0  0  0  0  0  0
  1  4  2  0  0  0  0
  5  7  1  0  0  0  0
  6 10  1  1  0  0  0
  6  5  1  0  0  0  0
  7 16  1  6  0  0  0
  8  3  1  6  0  0  0
  8  6  1  0  0  0  0
  8  9  1  0  0  0  0
  9  1  1  1  0  0  0
  9  7  1  0  0  0  0
 11  2  1  0  0  0  0
 11 12  1  0  0  0  0
 12 31  1  6  0  0  0
 12 14  1  0  0  0  0
 13  2  1  6  0  0  0
 13  3  1  0  0  0  0
 13 15  1  0  0  0  0
 15 14  1  1  0  0  0
 15  1  1  0  0  0  0
 16 22  1  0  0  0  0
 17 27  1  0  0  0  0
 18 24  1  0  0  0  0
 19 29  1  1  0  0  0
 19 25  1  0  0  0  0
 20 19  1  0  0  0  0
 21 20  1  0  0  0  0
 21 24  2  0  0  0  0
 22 27  2  0  0  0  0
 22 26  1  0  0  0  0
 23 25  1  0  0  0  0
 24 23  1  0  0  0  0
 26 18  2  0  0  0  0
 27 21  1  0  0  0  0
 29 28  1  0  0  0  0
 30 29  1  0  0  0  0
 31 32  1  0  0  0  0
 33 32  1  0  0  0  0
 33 34  1  0  0  0  0
M  END
>  <MODEL>
8

>  <REMARK>
 VINA RESULT:      -7.4      2.133      4.199
  Name = 
  6 active torsions:
  status: ('A' for Active; 'I' for Inactive)
    1  A    between atoms: C_3  and  C_24
    2  A    between atoms: C_7  and  N_15
    3  A    between atoms: C_8  and  C_17
    4  A    between atoms: C_8  and  C_18
    5  A    between atoms: C_24  and  C_25
    6  A    between atoms: C_25  and  C_27
                            x       y       z     vdW  Elec       q    Type
                         _______ _______ _______ _____ _____    ______ ____

>  <TORSDO>
F 6

$$$$
=
 OpenBabel10272415123D

 34 38  0  0  1  0  0  0  0  0999 V2000
  188.1690  177.2470  138.3260 C   0  0  0  0  0  0  0  0  0  0  0  0
  188.1600  177.3500  134.4320 C   0  0  0  0  0  2  0  0  0  0  0  0
  189.9070  176.4530  136.0320 C   0  0  0  0  0  2  0  0  0  0  0  0
  187.5160  177.5780  139.3050 O   0  0  0  0  0  0  0  0  0  0  0  0
  191.5300  175.9010  139.3590 N   0  0  0  0  0  2  0  0  0  0  0  0
  191.6240  176.0290  137.8990 C   0  0  1  0  0  3  0  0  0  0  0  0
  190.1850  176.3470  139.7460 C   0  0  2  0  0  3  0  0  0  0  0  0
  190.3900  176.7680  137.4450 C   0  0  2  0  0  3  0  0  0  0  0  0
  189.3760  176.3590  138.4610 C   0  0  2  0  0  3  0  0  0  0  0  0
  192.8650  176.8180  137.5330 C   0  0  0  0  0  1  0  0  0  0  0  0
  186.9050  178.2330  134.3460 C   0  0  0  0  0  2  0  0  0  0  0  0
  185.7870  177.7730  135.2950 C   0  0  2  0  0  3  0  0  0  0  0  0
  188.4140  176.8040  135.8390 C   0  0  1  0  0  3  0  0  0  0  0  0
  186.2480  177.7100  136.7610 C   0  0  0  0  0  2  0  0  0  0  0  0
  187.7730  177.6950  136.9350 C   0  0  1  0  0  3  0  0  0  0  0  0
  190.2770  177.7290  140.4000 C   0  0  0  0  0  2  0  0  0  0  0  0
  192.1930  176.9740  142.3610 F   0  0  0  0  0  0  0  0  0  0  0  0
  188.3380  177.8640  143.6460 C   0  0  0  0  0  3  0  0  0  0  0  0
  191.3490  177.1200  146.5690 C   0  0  1  0  0  3  0  0  0  0  0  0
  191.6620  176.7100  145.1220 C   0  0  0  0  0  2  0  0  0  0  0  0
  190.6200  177.1960  144.1500 C   0  0  0  0  0  0  0  0  0  0  0  0
  189.9570  177.6550  141.8570 C   0  0  0  0  0  0  0  0  0  0  0  0
  188.9320  177.4710  146.0340 C   0  0  0  0  0  2  0  0  0  0  0  0
  189.3030  177.4760  144.5790 C   0  0  0  0  0  0  0  0  0  0  0  0
  189.9180  176.6710  146.8790 C   0  0  0  0  0  2  0  0  0  0  0  0
  188.6610  177.9470  142.2900 C   0  0  0  0  0  3  0  0  0  0  0  0
  190.9370  177.2730  142.7850 C   0  0  0  0  0  0  0  0  0  0  0  0
  192.1800  177.1800  148.7930 C   0  0  0  0  0  1  0  0  0  0  0  0
  192.3060  176.5130  147.5040 N   0  0  0  0  0  0  0  0  0  0  0  0
  191.9030  175.1360  147.7510 C   0  0  0  0  0  1  0  0  0  0  0  0
  185.2080  176.4250  134.8780 C   0  0  0  0  0  2  0  0  0  0  0  0
  184.7840  175.6010  136.0870 C   0  0  0  0  0  2  0  0  0  0  0  0
  185.3050  174.1740  136.0050 C   0  0  0  0  0  2  0  0  0  0  0  0
  186.4770  173.9830  136.9480 C   0  0  0  0  0  1  0  0  0  0  0  0
  1  4  2  0  0  0  0
  5  7  1  0  0  0  0
  6 10  1  1  0  0  0
  6  5  1  0  0  0  0
  7 16  1  6  0  0  0
  8  3  1  6  0  0  0
  8  6  1  0  0  0  0
  8  9  1  0  0  0  0
  9  1  1  1  0  0  0
  9  7  1  0  0  0  0
 11  2  1  0  0  0  0
 11 12  1  0  0  0  0
 12 31  1  6  0  0  0
 12 14  1  0  0  0  0
 13  2  1  6  0  0  0
 13  3  1  0  0  0  0
 13 15  1  0  0  0  0
 15 14  1  1  0  0  0
 15  1  1  0  0  0  0
 16 22  1  0  0  0  0
 17 27  1  0  0  0  0
 18 24  1  0  0  0  0
 19 25  1  0  0  0  0
 19 29  1  1  0  0  0
 20 19  1  0  0  0  0
 21 24  2  0  0  0  0
 21 20  1  0  0  0  0
 22 26  1  0  0  0  0
 22 27  2  0  0  0  0
 23 25  1  0  0  0  0
 24 23  1  0  0  0  0
 26 18  2  0  0  0  0
 27 21  1  0  0  0  0
 29 30  1  0  0  0  0
 29 28  1  0  0  0  0
 31 32  1  0  0  0  0
 33 32  1  0  0  0  0
 33 34  1  0  0  0  0
M  END
>  <MODEL>
9

>  <REMARK>
 VINA RESULT:      -6.8      2.627      4.832
  Name = 
  6 active torsions:
  status: ('A' for Active; 'I' for Inactive)
    1  A    between atoms: C_3  and  C_24
    2  A    between atoms: C_7  and  N_15
    3  A    between atoms: C_8  and  C_17
    4  A    between atoms: C_8  and  C_18
    5  A    between atoms: C_24  and  C_25
    6  A    between atoms: C_25  and  C_27
                            x       y       z     vdW  Elec       q    Type
                         _______ _______ _______ _____ _____    ______ ____

>  <TORSDO>
F 6

$$$$
