=
 OpenBabel10272401433D

 55 57  0  0  1  0  0  0  0  0999 V2000
  187.6770  175.8440  136.0270 S   0  0  0  0  0  0  0  0  0  0  0  0
  190.6790  175.4360  136.4050 C   0  0  2  0  0  3  0  0  0  0  0  0
  189.8720  175.5320  137.7070 C   0  0  2  0  0  3  0  0  0  0  0  0
  188.7480  174.9230  134.8510 C   0  0  0  0  0  2  0  0  0  0  0  0
  188.3960  175.1440  137.5530 C   0  0  0  0  0  2  0  0  0  0  0  0
  190.0630  174.4110  135.4520 C   0  0  0  0  0  2  0  0  0  0  0  0
  192.1000  175.0380  136.7580 C   0  0  0  0  0  2  0  0  0  0  0  0
  192.9620  176.1330  136.6860 O   0  0  0  0  0  0  0  0  0  0  0  0
  193.4080  176.1150  135.3600 C   0  0  0  0  0  2  0  0  0  0  0  0
  194.9200  175.9650  135.3020 C   0  0  1  0  0  3  0  0  0  0  0  0
  195.5230  177.3330  135.0410 C   0  0  0  0  0  1  0  0  0  0  0  0
  195.3950  175.4600  136.5330 O   0  0  0  0  0  0  0  0  0  0  0  0
  196.4060  174.4870  136.3010 C   0  0  2  0  0  0  0  0  0  0  0  0
  196.5700  174.2730  134.9310 F   0  0  0  0  0  0  0  0  0  0  0  0
  196.5730  171.5710  135.0060 C   0  0  0  0  0  2  0  0  0  0  0  0
  194.3050  172.5290  135.1520 C   0  0  0  0  0  1  0  0  0  0  0  0
  194.9070  173.4080  138.0280 C   0  0  0  0  0  1  0  0  0  0  0  0
  196.0030  173.1230  136.9900 C   0  0  1  0  0  0  0  0  0  0  0  0
  197.9480  171.3840  137.1300 C   0  0  0  0  0  2  0  0  0  0  0  0
  194.9820  170.7950  136.7160 C   0  0  0  0  0  1  0  0  0  0  0  0
  197.9830  171.5210  135.6170 C   0  0  1  0  0  3  0  0  0  0  0  0
  195.4750  172.0350  135.9750 C   0  0  0  0  0  0  0  0  0  0  0  0
  197.2200  172.5700  137.7860 C   0  0  0  0  0  2  0  0  0  0  0  0
  198.7720  170.4070  135.0100 C   0  0  0  0  0  0  0  0  0  0  0  0
  200.1920  170.4020  135.0680 N   0  0  0  0  0  1  0  0  0  0  0  0
  198.1630  169.4610  134.4370 O   0  0  0  0  0  0  0  0  0  0  0  0
  197.7690  175.4990  138.0120 O   0  0  0  0  0  1  0  0  0  0  0  0
  197.7240  174.9950  136.8630 C   0  0  0  0  0  0  0  0  0  0  0  0
  198.8850  174.9340  136.1020 O   0  0  0  0  0  0  0  0  0  0  0  0
  190.0090  176.9170  138.3180 C   0  0  0  0  0  2  0  0  0  0  0  0
  190.0550  176.8000  139.7210 O   0  0  0  0  0  0  0  0  0  0  0  0
  188.8300  177.2580  140.2590 C   0  0  1  0  0  3  0  0  0  0  0  0
  187.6030  177.5070  142.3700 C   0  0  0  0  0  3  0  0  0  0  0  0
  188.8010  177.3920  141.7750 C   0  0  0  0  0  0  0  0  0  0  0  0
  190.1710  178.8140  143.3200 C   0  0  0  0  0  2  0  0  0  0  0  0
  191.6280  177.7510  145.0510 C   0  0  0  0  0  2  0  0  0  0  0  0
  190.2720  176.2930  143.5270 C   0  0  1  0  0  3  0  0  0  0  0  0
  191.5830  176.4250  144.2980 C   0  0  0  0  0  2  0  0  0  0  0  0
  191.4990  178.9130  144.0730 C   0  0  0  0  0  2  0  0  0  0  0  0
  190.0800  177.4820  142.5750 C   0  0  1  0  0  3  0  0  0  0  0  0
  190.2770  175.0970  142.8160 O   0  0  0  0  0  1  0  0  0  0  0  0
  187.3010  177.6200  143.8100 C   0  0  0  0  0  3  0  0  0  0  0  0
  186.1100  177.9350  144.3090 C   0  0  0  0  0  3  0  0  0  0  0  0
  185.8900  178.0760  145.7520 C   0  0  0  0  0  0  0  0  0  0  0  0
  184.8360  178.6310  146.1680 O   0  0  0  0  0  0  0  0  0  0  0  0
  186.8620  177.6290  146.6940 N   0  0  0  0  0  1  0  0  0  0  0  0
  188.2330  178.4300  139.4740 C   0  0  0  0  0  2  0  0  0  0  0  0
  186.7210  178.3380  139.4800 C   0  0  0  0  0  2  0  0  0  0  0  0
  186.2370  178.1140  138.0650 C   0  0  0  0  0  2  0  0  0  0  0  0
  184.0190  176.9400  137.8040 C   0  0  0  0  0  0  0  0  0  0  0  0
  184.5870  175.8490  137.5450 O   0  0  0  0  0  0  0  0  0  0  0  0
  184.7840  178.1260  138.0260 N   0  0  0  0  0  2  0  0  0  0  0  0
  182.5330  177.0010  137.8520 C   0  0  0  0  0  2  0  0  0  0  0  0
  181.9470  175.6810  138.3210 C   0  0  0  0  0  2  0  0  0  0  0  0
  180.7160  175.9110  139.0570 N   0  0  0  0  0  1  0  0  0  0  0  0
  1  5  1  0  0  0  0
  2  7  1  1  0  0  0
  2  3  1  0  0  0  0
  3 30  1  6  0  0  0
  4  6  1  0  0  0  0
  4  1  1  0  0  0  0
  5  3  1  0  0  0  0
  6  2  1  0  0  0  0
  8  7  1  0  0  0  0
  9  8  1  0  0  0  0
 10 11  1  1  0  0  0
 10  9  1  0  0  0  0
 10 12  1  0  0  0  0
 13 14  1  6  0  0  0
 13 12  1  0  0  0  0
 13 28  1  0  0  0  0
 13 18  1  0  0  0  0
 15 21  1  0  0  0  0
 15 22  1  0  0  0  0
 16 22  1  0  0  0  0
 18 23  1  0  0  0  0
 18 17  1  1  0  0  0
 19 23  1  0  0  0  0
 21 24  1  6  0  0  0
 21 19  1  0  0  0  0
 22 20  1  0  0  0  0
 22 18  1  0  0  0  0
 24 25  1  0  0  0  0
 26 24  2  0  0  0  0
 28 27  1  0  0  0  0
 29 28  2  0  0  0  0
 30 31  1  0  0  0  0
 31 32  1  0  0  0  0
 32 47  1  6  0  0  0
 32 34  1  0  0  0  0
 33 42  1  0  0  0  0
 34 33  2  0  0  0  0
 35 39  1  0  0  0  0
 37 41  1  6  0  0  0
 37 38  1  0  0  0  0
 38 36  1  0  0  0  0
 39 36  1  0  0  0  0
 40 34  1  1  0  0  0
 40 35  1  0  0  0  0
 40 37  1  0  0  0  0
 42 43  2  0  0  0  0
 43 44  1  0  0  0  0
 44 45  2  0  0  0  0
 44 46  1  0  0  0  0
 47 48  1  0  0  0  0
 49 48  1  0  0  0  0
 50 53  1  0  0  0  0
 50 52  1  0  0  0  0
 51 50  2  0  0  0  0
 52 49  1  0  0  0  0
 53 54  1  0  0  0  0
 54 55  1  0  0  0  0
M  END
>  <MODEL>
1

>  <REMARK>
 VINA RESULT:      -6.2      0.000      0.000
  Name = 
  22 active torsions:
  status: ('A' for Active; 'I' for Inactive)
    1  A    between atoms: C_1  and  C_29
    2  A    between atoms: C_2  and  O_28
    3  A    between atoms: C_2  and  C_31
    4  A    between atoms: C_4  and  C_40
    5  A    between atoms: C_6  and  C_14
    6  A    between atoms: C_6  and  C_20
    7  A    between atoms: C_6  and  O_22
    8  A    between atoms: C_8  and  O_22
    9  A    between atoms: C_8  and  C_35
   10  A    between atoms: C_10  and  C_32
   11  A    between atoms: C_13  and  N_48
   12  A    between atoms: C_13  and  C_52
   13  A    between atoms: C_19  and  C_45
   14  A    between atoms: C_26  and  C_49
   15  A    between atoms: C_27  and  C_54
   16  A    between atoms: O_28  and  C_33
   17  A    between atoms: C_32  and  C_39
   18  A    between atoms: C_33  and  C_34
   19  A    between atoms: C_33  and  C_49
   20  A    between atoms: C_34  and  C_52
   21  A    between atoms: C_35  and  O_51
   22  A    between atoms: O_51  and  C_54
                            x       y       z     vdW  Elec       q    Type
                         _______ _______ _______ _____ _____    ______ ____

>  <TORSDO>
F 22

$$$$
=
 OpenBabel10272401433D

 55 57  0  0  1  0  0  0  0  0999 V2000
  188.4410  178.8650  136.2560 S   0  0  0  0  0  0  0  0  0  0  0  0
  187.1010  176.2030  136.9160 C   0  0  2  0  0  3  0  0  0  0  0  0
  186.6280  177.3910  137.7650 C   0  0  2  0  0  3  0  0  0  0  0  0
  188.1380  177.5320  135.0280 C   0  0  0  0  0  2  0  0  0  0  0  0
  186.8180  178.7530  137.0870 C   0  0  0  0  0  2  0  0  0  0  0  0
  187.0410  176.5360  135.4250 C   0  0  0  0  0  2  0  0  0  0  0  0
  186.2080  175.0150  137.2250 C   0  0  0  0  0  2  0  0  0  0  0  0
  185.7170  174.4360  136.0540 O   0  0  0  0  0  0  0  0  0  0  0  0
  184.5950  173.7210  136.4860 C   0  0  0  0  0  2  0  0  0  0  0  0
  183.3150  174.3740  135.9880 C   0  0  1  0  0  3  0  0  0  0  0  0
  182.5350  173.3430  135.1920 C   0  0  0  0  0  1  0  0  0  0  0  0
  182.5450  174.8120  137.0880 O   0  0  0  0  0  0  0  0  0  0  0  0
  182.2050  176.1840  136.9290 C   0  0  2  0  0  0  0  0  0  0  0  0
  183.3450  176.9830  137.0420 F   0  0  0  0  0  0  0  0  0  0  0  0
  182.2740  178.8500  138.6870 C   0  0  0  0  0  2  0  0  0  0  0  0
  182.9730  176.7970  139.8620 C   0  0  0  0  0  1  0  0  0  0  0  0
  180.5620  175.3360  138.6540 C   0  0  0  0  0  1  0  0  0  0  0  0
  181.1660  176.6080  138.0420 C   0  0  1  0  0  0  0  0  0  0  0  0
  179.9910  178.8960  137.5840 C   0  0  0  0  0  2  0  0  0  0  0  0
  180.7770  177.7450  140.2990 C   0  0  0  0  0  1  0  0  0  0  0  0
  181.4040  179.4540  137.5730 C   0  0  1  0  0  3  0  0  0  0  0  0
  181.7990  177.4810  139.1960 C   0  0  0  0  0  0  0  0  0  0  0  0
  179.9850  177.3720  137.3770 C   0  0  0  0  0  2  0  0  0  0  0  0
  181.3790  180.9440  137.6840 C   0  0  0  0  0  0  0  0  0  0  0  0
  180.4670  181.7180  136.9160 N   0  0  0  0  0  1  0  0  0  0  0  0
  182.1820  181.5170  138.4720 O   0  0  0  0  0  0  0  0  0  0  0  0
  182.1170  177.2380  134.7640 O   0  0  0  0  0  0  0  0  0  0  0  0
  181.6140  176.3930  135.5440 C   0  0  0  0  0  0  0  0  0  0  0  0
  180.4970  175.6730  135.1380 O   0  0  0  0  0  1  0  0  0  0  0  0
  187.2910  177.3670  139.1320 C   0  0  0  0  0  2  0  0  0  0  0  0
  188.3260  178.3210  139.1600 O   0  0  0  0  0  0  0  0  0  0  0  0
  189.3840  177.8260  139.9590 C   0  0  1  0  0  3  0  0  0  0  0  0
  187.8980  178.1590  141.8820 C   0  0  0  0  0  3  0  0  0  0  0  0
  189.1430  177.8890  141.4600 C   0  0  0  0  0  0  0  0  0  0  0  0
  190.4440  179.0000  143.2930 C   0  0  0  0  0  2  0  0  0  0  0  0
  191.4530  177.6350  145.1270 C   0  0  0  0  0  2  0  0  0  0  0  0
  190.1590  176.4840  143.3140 C   0  0  1  0  0  3  0  0  0  0  0  0
  191.3400  176.3740  144.2740 C   0  0  0  0  0  2  0  0  0  0  0  0
  191.6400  178.8560  144.2350 C   0  0  0  0  0  2  0  0  0  0  0  0
  190.2830  177.7400  142.4400 C   0  0  1  0  0  3  0  0  0  0  0  0
  190.1060  175.3440  142.5190 O   0  0  0  0  0  1  0  0  0  0  0  0
  187.3980  178.2480  143.2680 C   0  0  0  0  0  3  0  0  0  0  0  0
  186.1470  177.9920  143.6370 C   0  0  0  0  0  3  0  0  0  0  0  0
  185.7050  178.1460  145.0280 C   0  0  0  0  0  0  0  0  0  0  0  0
  186.3120  177.5250  145.9430 O   0  0  0  0  0  0  0  0  0  0  0  0
  184.5830  178.9580  145.3600 N   0  0  0  0  0  1  0  0  0  0  0  0
  189.9670  176.5120  139.4310 C   0  0  0  0  0  2  0  0  0  0  0  0
  190.7960  176.7760  138.1900 C   0  0  0  0  0  2  0  0  0  0  0  0
  191.4160  175.4770  137.7290 C   0  0  0  0  0  2  0  0  0  0  0  0
  193.7110  174.7080  137.0170 C   0  0  0  0  0  0  0  0  0  0  0  0
  193.2240  173.7730  136.3310 O   0  0  0  0  0  0  0  0  0  0  0  0
  192.8660  175.5680  137.7820 N   0  0  0  0  0  2  0  0  0  0  0  0
  195.1860  174.9000  137.0530 C   0  0  0  0  0  2  0  0  0  0  0  0
  195.7860  174.2850  138.3060 C   0  0  0  0  0  2  0  0  0  0  0  0
  197.1020  174.8450  138.5610 N   0  0  0  0  0  1  0  0  0  0  0  0
  1  5  1  0  0  0  0
  2  7  1  6  0  0  0
  2  3  1  0  0  0  0
  3 30  1  1  0  0  0
  4  6  1  0  0  0  0
  4  1  1  0  0  0  0
  5  3  1  0  0  0  0
  6  2  1  0  0  0  0
  8  9  1  0  0  0  0
  8  7  1  0  0  0  0
 10 11  1  1  0  0  0
 10  9  1  0  0  0  0
 10 12  1  0  0  0  0
 13 14  1  1  0  0  0
 13 12  1  0  0  0  0
 13 18  1  0  0  0  0
 15 22  1  0  0  0  0
 18 17  1  1  0  0  0
 18 22  1  0  0  0  0
 21 19  1  0  0  0  0
 21 24  1  1  0  0  0
 21 15  1  0  0  0  0
 22 16  1  0  0  0  0
 22 20  1  0  0  0  0
 23 19  1  0  0  0  0
 23 18  1  0  0  0  0
 24 26  2  0  0  0  0
 25 24  1  0  0  0  0
 27 28  2  0  0  0  0
 28 13  1  0  0  0  0
 29 28  1  0  0  0  0
 30 31  1  0  0  0  0
 31 32  1  0  0  0  0
 32 47  1  6  0  0  0
 32 34  1  0  0  0  0
 33 42  1  0  0  0  0
 34 33  2  0  0  0  0
 35 39  1  0  0  0  0
 37 41  1  6  0  0  0
 37 38  1  0  0  0  0
 38 36  1  0  0  0  0
 39 36  1  0  0  0  0
 40 34  1  1  0  0  0
 40 35  1  0  0  0  0
 40 37  1  0  0  0  0
 42 43  2  0  0  0  0
 43 44  1  0  0  0  0
 44 46  1  0  0  0  0
 44 45  2  0  0  0  0
 48 47  1  0  0  0  0
 49 52  1  0  0  0  0
 49 48  1  0  0  0  0
 50 53  1  0  0  0  0
 50 52  1  0  0  0  0
 51 50  2  0  0  0  0
 53 54  1  0  0  0  0
 54 55  1  0  0  0  0
M  END
>  <MODEL>
2

>  <REMARK>
 VINA RESULT:      -5.3      3.437     11.066
  Name = 
  22 active torsions:
  status: ('A' for Active; 'I' for Inactive)
    1  A    between atoms: C_1  and  C_29
    2  A    between atoms: C_2  and  O_28
    3  A    between atoms: C_2  and  C_31
    4  A    between atoms: C_4  and  C_40
    5  A    between atoms: C_6  and  C_14
    6  A    between atoms: C_6  and  C_20
    7  A    between atoms: C_6  and  O_22
    8  A    between atoms: C_8  and  O_22
    9  A    between atoms: C_8  and  C_35
   10  A    between atoms: C_10  and  C_32
   11  A    between atoms: C_13  and  N_48
   12  A    between atoms: C_13  and  C_52
   13  A    between atoms: C_19  and  C_45
   14  A    between atoms: C_26  and  C_49
   15  A    between atoms: C_27  and  C_54
   16  A    between atoms: O_28  and  C_33
   17  A    between atoms: C_32  and  C_39
   18  A    between atoms: C_33  and  C_34
   19  A    between atoms: C_33  and  C_49
   20  A    between atoms: C_34  and  C_52
   21  A    between atoms: C_35  and  O_51
   22  A    between atoms: O_51  and  C_54
                            x       y       z     vdW  Elec       q    Type
                         _______ _______ _______ _____ _____    ______ ____

>  <TORSDO>
F 22

$$$$
=
 OpenBabel10272401433D

 55 57  0  0  1  0  0  0  0  0999 V2000
  187.9830  178.6810  137.6250 S   0  0  0  0  0  0  0  0  0  0  0  0
  190.4950  177.0180  138.1170 C   0  0  2  0  0  3  0  0  0  0  0  0
  189.3000  176.6630  139.0120 C   0  0  2  0  0  3  0  0  0  0  0  0
  189.2130  178.2620  136.3240 C   0  0  0  0  0  2  0  0  0  0  0  0
  187.9410  177.0320  138.4080 C   0  0  0  0  0  2  0  0  0  0  0  0
  190.0890  177.0440  136.6440 C   0  0  0  0  0  2  0  0  0  0  0  0
  191.5820  175.9830  138.3440 C   0  0  0  0  0  2  0  0  0  0  0  0
  192.7150  176.2670  137.5820 O   0  0  0  0  0  0  0  0  0  0  0  0
  192.4830  175.5860  136.3820 C   0  0  0  0  0  2  0  0  0  0  0  0
  192.5570  174.0820  136.5940 C   0  0  1  0  0  3  0  0  0  0  0  0
  191.1470  173.5230  136.5240 C   0  0  0  0  0  1  0  0  0  0  0  0
  193.3530  173.4980  135.5840 O   0  0  0  0  0  0  0  0  0  0  0  0
  194.0600  172.3800  136.1080 C   0  0  2  0  0  0  0  0  0  0  0  0
  194.0150  172.3870  137.5030 F   0  0  0  0  0  0  0  0  0  0  0  0
  196.1340  174.7510  136.6400 C   0  0  0  0  0  2  0  0  0  0  0  0
  195.2370  174.6340  134.3460 C   0  0  0  0  0  1  0  0  0  0  0  0
  195.7140  171.6040  134.3590 C   0  0  0  0  0  1  0  0  0  0  0  0
  195.5690  172.4370  135.6410 C   0  0  1  0  0  0  0  0  0  0  0  0
  197.2790  172.7000  137.6000 C   0  0  0  0  0  2  0  0  0  0  0  0
  197.5040  173.8770  134.7920 C   0  0  0  0  0  1  0  0  0  0  0  0
  196.5040  173.9690  137.9120 C   0  0  1  0  0  3  0  0  0  0  0  0
  196.0880  173.9020  135.3610 C   0  0  0  0  0  0  0  0  0  0  0  0
  196.4630  171.7460  136.7110 C   0  0  0  0  0  2  0  0  0  0  0  0
  197.2780  174.8380  138.8480 C   0  0  0  0  0  0  0  0  0  0  0  0
  196.8570  175.0180  140.1940 N   0  0  0  0  0  1  0  0  0  0  0  0
  198.3190  175.4190  138.4320 O   0  0  0  0  0  0  0  0  0  0  0  0
  193.6640  170.0040  136.1690 O   0  0  0  0  0  1  0  0  0  0  0  0
  193.4020  171.1000  135.6180 C   0  0  0  0  0  0  0  0  0  0  0  0
  192.5260  171.1270  134.5390 O   0  0  0  0  0  0  0  0  0  0  0  0
  189.4670  177.2760  140.3930 C   0  0  0  0  0  2  0  0  0  0  0  0
  188.6410  176.5910  141.3050 O   0  0  0  0  0  0  0  0  0  0  0  0
  188.1160  177.5190  142.2340 C   0  0  1  0  0  3  0  0  0  0  0  0
  189.6760  176.7630  143.9710 C   0  0  0  0  0  3  0  0  0  0  0  0
  188.4500  177.2320  143.6920 C   0  0  0  0  0  0  0  0  0  0  0  0
  187.9550  178.1930  145.9530 C   0  0  0  0  0  2  0  0  0  0  0  0
  185.6370  178.9290  146.5300 C   0  0  0  0  0  2  0  0  0  0  0  0
  186.0890  177.9740  144.2560 C   0  0  1  0  0  3  0  0  0  0  0  0
  185.0690  178.0940  145.3860 C   0  0  0  0  0  2  0  0  0  0  0  0
  186.9100  178.2860  147.0670 C   0  0  0  0  0  2  0  0  0  0  0  0
  187.4080  177.3860  144.7750 C   0  0  1  0  0  3  0  0  0  0  0  0
  185.5640  177.1720  143.2470 O   0  0  0  0  0  1  0  0  0  0  0  0
  190.2550  176.4350  145.2890 C   0  0  0  0  0  3  0  0  0  0  0  0
  191.4610  176.8140  145.6990 C   0  0  0  0  0  3  0  0  0  0  0  0
  191.9930  176.4120  147.0060 C   0  0  0  0  0  0  0  0  0  0  0  0
  191.8250  177.1680  148.0020 O   0  0  0  0  0  0  0  0  0  0  0  0
  192.7260  175.2000  147.1630 N   0  0  0  0  0  1  0  0  0  0  0  0
  188.2820  178.9730  141.7850 C   0  0  0  0  0  2  0  0  0  0  0  0
  186.9220  179.6070  141.5710 C   0  0  0  0  0  2  0  0  0  0  0  0
  186.0830  178.6880  140.7120 C   0  0  0  0  0  2  0  0  0  0  0  0
  184.1140  179.5140  139.3680 C   0  0  0  0  0  0  0  0  0  0  0  0
  184.7720  179.4510  138.2990 O   0  0  0  0  0  0  0  0  0  0  0  0
  184.7230  179.1940  140.6190 N   0  0  0  0  0  2  0  0  0  0  0  0
  182.6930  179.9540  139.3310 C   0  0  0  0  0  2  0  0  0  0  0  0
  181.8440  179.1380  140.2910 C   0  0  0  0  0  2  0  0  0  0  0  0
  181.5510  177.8350  139.7200 N   0  0  0  0  0  1  0  0  0  0  0  0
  1  5  1  0  0  0  0
  2  7  1  6  0  0  0
  2  3  1  0  0  0  0
  3 30  1  1  0  0  0
  4  6  1  0  0  0  0
  4  1  1  0  0  0  0
  5  3  1  0  0  0  0
  6  2  1  0  0  0  0
  8  7  1  0  0  0  0
  9 10  1  0  0  0  0
  9  8  1  0  0  0  0
 10 11  1  6  0  0  0
 12 13  1  0  0  0  0
 12 10  1  0  0  0  0
 13 14  1  1  0  0  0
 15 21  1  0  0  0  0
 16 22  1  0  0  0  0
 18 17  1  6  0  0  0
 18 13  1  0  0  0  0
 18 23  1  0  0  0  0
 19 21  1  0  0  0  0
 20 22  1  0  0  0  0
 21 24  1  1  0  0  0
 22 18  1  0  0  0  0
 22 15  1  0  0  0  0
 23 19  1  0  0  0  0
 24 25  1  0  0  0  0
 26 24  2  0  0  0  0
 28 13  1  0  0  0  0
 28 27  1  0  0  0  0
 29 28  2  0  0  0  0
 30 31  1  0  0  0  0
 31 32  1  0  0  0  0
 32 47  1  6  0  0  0
 32 34  1  0  0  0  0
 33 42  1  0  0  0  0
 34 33  2  0  0  0  0
 35 39  1  0  0  0  0
 36 39  1  0  0  0  0
 37 41  1  6  0  0  0
 37 40  1  0  0  0  0
 37 38  1  0  0  0  0
 38 36  1  0  0  0  0
 40 34  1  6  0  0  0
 40 35  1  0  0  0  0
 42 43  2  0  0  0  0
 43 44  1  0  0  0  0
 44 46  1  0  0  0  0
 44 45  2  0  0  0  0
 48 47  1  0  0  0  0
 49 48  1  0  0  0  0
 50 52  1  0  0  0  0
 51 50  2  0  0  0  0
 52 49  1  0  0  0  0
 53 50  1  0  0  0  0
 53 54  1  0  0  0  0
 55 54  1  0  0  0  0
M  END
>  <MODEL>
3

>  <REMARK>
 VINA RESULT:      -4.9      2.601      4.222
  Name = 
  22 active torsions:
  status: ('A' for Active; 'I' for Inactive)
    1  A    between atoms: C_1  and  C_29
    2  A    between atoms: C_2  and  O_28
    3  A    between atoms: C_2  and  C_31
    4  A    between atoms: C_4  and  C_40
    5  A    between atoms: C_6  and  C_14
    6  A    between atoms: C_6  and  C_20
    7  A    between atoms: C_6  and  O_22
    8  A    between atoms: C_8  and  O_22
    9  A    between atoms: C_8  and  C_35
   10  A    between atoms: C_10  and  C_32
   11  A    between atoms: C_13  and  N_48
   12  A    between atoms: C_13  and  C_52
   13  A    between atoms: C_19  and  C_45
   14  A    between atoms: C_26  and  C_49
   15  A    between atoms: C_27  and  C_54
   16  A    between atoms: O_28  and  C_33
   17  A    between atoms: C_32  and  C_39
   18  A    between atoms: C_33  and  C_34
   19  A    between atoms: C_33  and  C_49
   20  A    between atoms: C_34  and  C_52
   21  A    between atoms: C_35  and  O_51
   22  A    between atoms: O_51  and  C_54
                            x       y       z     vdW  Elec       q    Type
                         _______ _______ _______ _____ _____    ______ ____

>  <TORSDO>
F 22

$$$$
=
 OpenBabel10272401433D

 55 57  0  0  1  0  0  0  0  0999 V2000
  189.0770  177.3880  142.7760 S   0  0  0  0  0  0  0  0  0  0  0  0
  190.2840  176.9060  140.0140 C   0  0  2  0  0  3  0  0  0  0  0  0
  189.2630  178.0490  140.0810 C   0  0  2  0  0  3  0  0  0  0  0  0
  190.7790  176.7520  142.4910 C   0  0  0  0  0  2  0  0  0  0  0  0
  189.1160  178.6690  141.4750 C   0  0  0  0  0  2  0  0  0  0  0  0
  191.3490  177.0570  141.1010 C   0  0  0  0  0  2  0  0  0  0  0  0
  190.9300  176.9270  138.6400 C   0  0  0  0  0  2  0  0  0  0  0  0
  191.8980  175.9300  138.5230 O   0  0  0  0  0  0  0  0  0  0  0  0
  192.9460  176.5660  137.8490 C   0  0  0  0  0  2  0  0  0  0  0  0
  193.3270  175.7940  136.5950 C   0  0  1  0  0  3  0  0  0  0  0  0
  193.6930  176.7950  135.5140 C   0  0  0  0  0  1  0  0  0  0  0  0
  194.4330  174.9590  136.8690 O   0  0  0  0  0  0  0  0  0  0  0  0
  194.0560  173.5940  136.7350 C   0  0  2  0  0  0  0  0  0  0  0  0
  193.8170  173.0300  137.9890 F   0  0  0  0  0  0  0  0  0  0  0  0
  195.5910  171.0370  137.8800 C   0  0  0  0  0  2  0  0  0  0  0  0
  196.8590  173.1500  137.9660 C   0  0  0  0  0  1  0  0  0  0  0  0
  195.9730  173.7490  135.0920 C   0  0  0  0  0  1  0  0  0  0  0  0
  195.2150  172.7900  136.0210 C   0  0  1  0  0  0  0  0  0  0  0  0
  194.6800  170.2600  135.6440 C   0  0  0  0  0  2  0  0  0  0  0  0
  197.4020  171.4880  136.2760 C   0  0  0  0  0  1  0  0  0  0  0  0
  194.5090  170.2220  137.1530 C   0  0  1  0  0  3  0  0  0  0  0  0
  196.2410  172.1360  137.0280 C   0  0  0  0  0  0  0  0  0  0  0  0
  194.5930  171.6980  135.1040 C   0  0  0  0  0  2  0  0  0  0  0  0
  194.5060  168.8110  137.6430 C   0  0  0  0  0  0  0  0  0  0  0  0
  195.7200  168.0850  137.7880 N   0  0  0  0  0  1  0  0  0  0  0  0
  193.4060  168.2590  137.9290 O   0  0  0  0  0  0  0  0  0  0  0  0
  191.7050  173.1370  136.4670 O   0  0  0  0  0  1  0  0  0  0  0  0
  192.7740  173.5080  135.9230 C   0  0  0  0  0  0  0  0  0  0  0  0
  192.7770  173.8110  134.5670 O   0  0  0  0  0  0  0  0  0  0  0  0
  187.9160  177.5920  139.5440 C   0  0  0  0  0  2  0  0  0  0  0  0
  187.5860  178.3620  138.4110 O   0  0  0  0  0  0  0  0  0  0  0  0
  186.2070  178.2040  138.1370 C   0  0  1  0  0  3  0  0  0  0  0  0
  184.6160  176.8210  136.8800 C   0  0  0  0  0  3  0  0  0  0  0  0
  185.8810  177.2580  136.9900 C   0  0  0  0  0  0  0  0  0  0  0  0
  187.7640  177.9190  135.4730 C   0  0  0  0  0  2  0  0  0  0  0  0
  189.7410  176.4150  135.1900 C   0  0  0  0  0  2  0  0  0  0  0  0
  187.8790  175.7170  136.7180 C   0  0  1  0  0  3  0  0  0  0  0  0
  188.9420  175.2340  135.7330 C   0  0  0  0  0  2  0  0  0  0  0  0
  188.8120  177.3980  134.4870 C   0  0  0  0  0  2  0  0  0  0  0  0
  186.9620  176.7570  136.0600 C   0  0  1  0  0  3  0  0  0  0  0  0
  187.1370  174.6270  137.1620 O   0  0  0  0  0  1  0  0  0  0  0  0
  184.0390  175.9310  135.8550 C   0  0  0  0  0  3  0  0  0  0  0  0
  183.6830  174.6680  136.0650 C   0  0  0  0  0  3  0  0  0  0  0  0
  183.1580  173.8240  134.9870 C   0  0  0  0  0  0  0  0  0  0  0  0
  183.8270  172.8270  134.5980 O   0  0  0  0  0  0  0  0  0  0  0  0
  181.9220  174.1290  134.3460 N   0  0  0  0  0  1  0  0  0  0  0  0
  185.3610  178.0370  139.4020 C   0  0  0  0  0  2  0  0  0  0  0  0
  184.3570  179.1670  139.5060 C   0  0  0  0  0  2  0  0  0  0  0  0
  183.5700  179.0080  140.7860 C   0  0  0  0  0  2  0  0  0  0  0  0
  184.9450  178.8600  142.8960 C   0  0  0  0  0  0  0  0  0  0  0  0
  184.9040  180.1070  143.0520 O   0  0  0  0  0  0  0  0  0  0  0  0
  184.3400  178.2470  141.7560 N   0  0  0  0  0  2  0  0  0  0  0  0
  185.6560  178.0170  143.8950 C   0  0  0  0  0  2  0  0  0  0  0  0
  185.6580  178.6780  145.2630 C   0  0  0  0  0  2  0  0  0  0  0  0
  184.3010  178.7880  145.7700 N   0  0  0  0  0  1  0  0  0  0  0  0
  2  7  1  6  0  0  0
  2  3  1  0  0  0  0
  2  6  1  0  0  0  0
  3 30  1  1  0  0  0
  3  5  1  0  0  0  0
  4  1  1  0  0  0  0
  5  1  1  0  0  0  0
  6  4  1  0  0  0  0
  8  7  1  0  0  0  0
  9  8  1  0  0  0  0
 10 11  1  6  0  0  0
 10 12  1  0  0  0  0
 10  9  1  0  0  0  0
 13 12  1  0  0  0  0
 13 14  1  1  0  0  0
 18 17  1  6  0  0  0
 18 13  1  0  0  0  0
 18 22  1  0  0  0  0
 19 21  1  0  0  0  0
 20 22  1  0  0  0  0
 21 24  1  1  0  0  0
 21 15  1  0  0  0  0
 22 15  1  0  0  0  0
 22 16  1  0  0  0  0
 23 19  1  0  0  0  0
 23 18  1  0  0  0  0
 24 25  1  0  0  0  0
 24 26  2  0  0  0  0
 28 27  1  0  0  0  0
 28 13  1  0  0  0  0
 29 28  2  0  0  0  0
 31 30  1  0  0  0  0
 32 31  1  0  0  0  0
 32 47  1  1  0  0  0
 33 34  2  0  0  0  0
 34 32  1  0  0  0  0
 35 40  1  0  0  0  0
 36 38  1  0  0  0  0
 37 41  1  6  0  0  0
 38 37  1  0  0  0  0
 39 36  1  0  0  0  0
 39 35  1  0  0  0  0
 40 37  1  0  0  0  0
 40 34  1  1  0  0  0
 42 43  2  0  0  0  0
 42 33  1  0  0  0  0
 44 43  1  0  0  0  0
 45 44  2  0  0  0  0
 46 44  1  0  0  0  0
 47 48  1  0  0  0  0
 48 49  1  0  0  0  0
 49 52  1  0  0  0  0
 50 51  2  0  0  0  0
 50 53  1  0  0  0  0
 52 50  1  0  0  0  0
 53 54  1  0  0  0  0
 54 55  1  0  0  0  0
M  END
>  <MODEL>
4

>  <REMARK>
 VINA RESULT:      -4.9      2.651      6.230
  Name = 
  22 active torsions:
  status: ('A' for Active; 'I' for Inactive)
    1  A    between atoms: C_1  and  C_29
    2  A    between atoms: C_2  and  O_28
    3  A    between atoms: C_2  and  C_31
    4  A    between atoms: C_4  and  C_40
    5  A    between atoms: C_6  and  C_14
    6  A    between atoms: C_6  and  C_20
    7  A    between atoms: C_6  and  O_22
    8  A    between atoms: C_8  and  O_22
    9  A    between atoms: C_8  and  C_35
   10  A    between atoms: C_10  and  C_32
   11  A    between atoms: C_13  and  N_48
   12  A    between atoms: C_13  and  C_52
   13  A    between atoms: C_19  and  C_45
   14  A    between atoms: C_26  and  C_49
   15  A    between atoms: C_27  and  C_54
   16  A    between atoms: O_28  and  C_33
   17  A    between atoms: C_32  and  C_39
   18  A    between atoms: C_33  and  C_34
   19  A    between atoms: C_33  and  C_49
   20  A    between atoms: C_34  and  C_52
   21  A    between atoms: C_35  and  O_51
   22  A    between atoms: O_51  and  C_54
                            x       y       z     vdW  Elec       q    Type
                         _______ _______ _______ _____ _____    ______ ____

>  <TORSDO>
F 22

$$$$
=
 OpenBabel10272401433D

 55 57  0  0  1  0  0  0  0  0999 V2000
  188.3440  177.2150  142.9460 S   0  0  0  0  0  0  0  0  0  0  0  0
  189.5950  176.8440  140.1870 C   0  0  2  0  0  3  0  0  0  0  0  0
  188.6070  178.0140  140.2950 C   0  0  2  0  0  3  0  0  0  0  0  0
  190.0310  176.5430  142.6610 C   0  0  0  0  0  2  0  0  0  0  0  0
  188.4490  178.5630  141.7180 C   0  0  0  0  0  2  0  0  0  0  0  0
  190.6400  176.9040  141.3010 C   0  0  0  0  0  2  0  0  0  0  0  0
  190.2700  176.9190  138.8290 C   0  0  0  0  0  2  0  0  0  0  0  0
  190.8750  175.7050  138.5000 O   0  0  0  0  0  0  0  0  0  0  0  0
  192.1900  176.0680  138.1890 C   0  0  0  0  0  2  0  0  0  0  0  0
  192.6200  175.4520  136.8660 C   0  0  1  0  0  3  0  0  0  0  0  0
  192.1880  176.3820  135.7480 C   0  0  0  0  0  1  0  0  0  0  0  0
  194.0240  175.2990  136.8470 O   0  0  0  0  0  0  0  0  0  0  0  0
  194.3610  173.9290  136.6690 C   0  0  2  0  0  0  0  0  0  0  0  0
  194.1370  173.2160  137.8490 F   0  0  0  0  0  0  0  0  0  0  0  0
  196.4680  171.8300  137.8360 C   0  0  0  0  0  2  0  0  0  0  0  0
  196.6910  174.1310  138.6940 C   0  0  0  0  0  1  0  0  0  0  0  0
  196.3900  175.1840  135.8300 C   0  0  0  0  0  1  0  0  0  0  0  0
  195.8860  173.8020  136.2740 C   0  0  1  0  0  0  0  0  0  0  0  0
  196.5500  171.4590  135.3280 C   0  0  0  0  0  2  0  0  0  0  0  0
  198.2730  173.3040  137.0440 C   0  0  0  0  0  1  0  0  0  0  0  0
  196.0370  170.9380  136.6590 C   0  0  1  0  0  3  0  0  0  0  0  0
  196.8010  173.2780  137.4490 C   0  0  0  0  0  0  0  0  0  0  0  0
  196.0200  172.8720  135.0340 C   0  0  0  0  0  2  0  0  0  0  0  0
  196.4910  169.5320  136.8810 C   0  0  0  0  0  0  0  0  0  0  0  0
  196.9990  168.7510  135.8070 N   0  0  0  0  0  1  0  0  0  0  0  0
  196.4180  169.0360  138.0400 O   0  0  0  0  0  0  0  0  0  0  0  0
  193.4410  173.8630  134.4430 O   0  0  0  0  0  0  0  0  0  0  0  0
  193.4800  173.3350  135.5810 C   0  0  0  0  0  0  0  0  0  0  0  0
  192.6910  172.2220  135.8430 O   0  0  0  0  0  1  0  0  0  0  0  0
  187.2590  177.6290  139.7080 C   0  0  0  0  0  2  0  0  0  0  0  0
  186.9940  178.4440  138.5900 O   0  0  0  0  0  0  0  0  0  0  0  0
  185.6450  178.2630  138.2020 C   0  0  1  0  0  3  0  0  0  0  0  0
  184.2750  176.3570  137.4860 C   0  0  0  0  0  3  0  0  0  0  0  0
  185.3920  177.0750  137.2850 C   0  0  0  0  0  0  0  0  0  0  0  0
  186.8870  177.8710  135.4380 C   0  0  0  0  0  2  0  0  0  0  0  0
  189.0480  176.7040  134.9740 C   0  0  0  0  0  2  0  0  0  0  0  0
  187.5820  175.8760  136.8320 C   0  0  1  0  0  3  0  0  0  0  0  0
  188.5660  175.4730  135.7360 C   0  0  0  0  0  2  0  0  0  0  0  0
  187.8640  177.4290  134.3460 C   0  0  0  0  0  2  0  0  0  0  0  0
  186.4040  176.6640  136.2420 C   0  0  1  0  0  3  0  0  0  0  0  0
  187.1250  174.7330  137.4800 O   0  0  0  0  0  1  0  0  0  0  0  0
  183.7860  175.1890  136.7280 C   0  0  0  0  0  3  0  0  0  0  0  0
  183.8700  173.9300  137.1440 C   0  0  0  0  0  3  0  0  0  0  0  0
  183.4050  172.8110  136.3170 C   0  0  0  0  0  0  0  0  0  0  0  0
  182.7410  173.0470  135.2710 O   0  0  0  0  0  0  0  0  0  0  0  0
  183.6600  171.4600  136.6930 N   0  0  0  0  0  1  0  0  0  0  0  0
  184.6610  178.4330  139.3620 C   0  0  0  0  0  2  0  0  0  0  0  0
  183.9390  179.7590  139.2380 C   0  0  0  0  0  2  0  0  0  0  0  0
  182.4670  179.5440  139.5050 C   0  0  0  0  0  2  0  0  0  0  0  0
  181.1660  177.4920  140.1880 C   0  0  0  0  0  0  0  0  0  0  0  0
  180.6320  178.1070  141.1460 O   0  0  0  0  0  0  0  0  0  0  0  0
  182.1320  178.1360  139.3560 N   0  0  0  0  0  2  0  0  0  0  0  0
  180.8090  176.0700  139.9380 C   0  0  0  0  0  2  0  0  0  0  0  0
  180.4900  175.8370  138.4710 C   0  0  0  0  0  2  0  0  0  0  0  0
  180.5090  174.4160  138.1720 N   0  0  0  0  0  1  0  0  0  0  0  0
  2  7  1  6  0  0  0
  2  3  1  0  0  0  0
  2  6  1  0  0  0  0
  3 30  1  1  0  0  0
  3  5  1  0  0  0  0
  4  1  1  0  0  0  0
  5  1  1  0  0  0  0
  6  4  1  0  0  0  0
  8  7  1  0  0  0  0
  9  8  1  0  0  0  0
 10 11  1  6  0  0  0
 10  9  1  0  0  0  0
 12 10  1  0  0  0  0
 13 12  1  0  0  0  0
 13 14  1  1  0  0  0
 18 17  1  6  0  0  0
 18 13  1  0  0  0  0
 18 22  1  0  0  0  0
 19 21  1  0  0  0  0
 20 22  1  0  0  0  0
 21 24  1  1  0  0  0
 21 15  1  0  0  0  0
 22 15  1  0  0  0  0
 22 16  1  0  0  0  0
 23 19  1  0  0  0  0
 23 18  1  0  0  0  0
 24 26  2  0  0  0  0
 25 24  1  0  0  0  0
 27 28  2  0  0  0  0
 28 29  1  0  0  0  0
 28 13  1  0  0  0  0
 31 30  1  0  0  0  0
 32 31  1  0  0  0  0
 32 47  1  1  0  0  0
 34 33  2  0  0  0  0
 34 32  1  0  0  0  0
 35 40  1  0  0  0  0
 36 38  1  0  0  0  0
 37 41  1  6  0  0  0
 38 37  1  0  0  0  0
 39 36  1  0  0  0  0
 39 35  1  0  0  0  0
 40 37  1  0  0  0  0
 40 34  1  1  0  0  0
 42 43  2  0  0  0  0
 42 33  1  0  0  0  0
 44 46  1  0  0  0  0
 44 43  1  0  0  0  0
 45 44  2  0  0  0  0
 48 47  1  0  0  0  0
 48 49  1  0  0  0  0
 50 51  2  0  0  0  0
 52 49  1  0  0  0  0
 52 50  1  0  0  0  0
 53 50  1  0  0  0  0
 54 53  1  0  0  0  0
 55 54  1  0  0  0  0
M  END
>  <MODEL>
5

>  <REMARK>
 VINA RESULT:      -4.9      2.816      5.749
  Name = 
  22 active torsions:
  status: ('A' for Active; 'I' for Inactive)
    1  A    between atoms: C_1  and  C_29
    2  A    between atoms: C_2  and  O_28
    3  A    between atoms: C_2  and  C_31
    4  A    between atoms: C_4  and  C_40
    5  A    between atoms: C_6  and  C_14
    6  A    between atoms: C_6  and  C_20
    7  A    between atoms: C_6  and  O_22
    8  A    between atoms: C_8  and  O_22
    9  A    between atoms: C_8  and  C_35
   10  A    between atoms: C_10  and  C_32
   11  A    between atoms: C_13  and  N_48
   12  A    between atoms: C_13  and  C_52
   13  A    between atoms: C_19  and  C_45
   14  A    between atoms: C_26  and  C_49
   15  A    between atoms: C_27  and  C_54
   16  A    between atoms: O_28  and  C_33
   17  A    between atoms: C_32  and  C_39
   18  A    between atoms: C_33  and  C_34
   19  A    between atoms: C_33  and  C_49
   20  A    between atoms: C_34  and  C_52
   21  A    between atoms: C_35  and  O_51
   22  A    between atoms: O_51  and  C_54
                            x       y       z     vdW  Elec       q    Type
                         _______ _______ _______ _____ _____    ______ ____

>  <TORSDO>
F 22

$$$$
=
 OpenBabel10272401433D

 55 57  0  0  1  0  0  0  0  0999 V2000
  188.5310  176.9900  142.5580 S   0  0  0  0  0  0  0  0  0  0  0  0
  188.6320  177.4790  139.5460 C   0  0  2  0  0  3  0  0  0  0  0  0
  187.6910  178.4120  140.3190 C   0  0  2  0  0  3  0  0  0  0  0  0
  190.0140  176.6900  141.5140 C   0  0  0  0  0  2  0  0  0  0  0  0
  188.0630  178.5830  141.7970 C   0  0  0  0  0  2  0  0  0  0  0  0
  190.0220  177.4510  140.1830 C   0  0  0  0  0  2  0  0  0  0  0  0
  188.7200  177.9760  138.1140 C   0  0  0  0  0  2  0  0  0  0  0  0
  187.7600  177.3610  137.3080 O   0  0  0  0  0  0  0  0  0  0  0  0
  188.5000  176.8890  136.2190 C   0  0  0  0  0  2  0  0  0  0  0  0
  189.0800  175.5150  136.5180 C   0  0  1  0  0  3  0  0  0  0  0  0
  187.9280  174.5470  136.7170 C   0  0  0  0  0  1  0  0  0  0  0  0
  189.8800  175.0910  135.4340 O   0  0  0  0  0  0  0  0  0  0  0  0
  190.9830  174.3310  135.9120 C   0  0  2  0  0  0  0  0  0  0  0  0
  190.9700  174.2800  137.3080 F   0  0  0  0  0  0  0  0  0  0  0  0
  193.6690  174.6320  137.6160 C   0  0  0  0  0  2  0  0  0  0  0  0
  192.3480  176.6990  137.3630 C   0  0  0  0  0  1  0  0  0  0  0  0
  192.0070  176.0650  134.3820 C   0  0  0  0  0  1  0  0  0  0  0  0
  192.3350  174.9970  135.4350 C   0  0  1  0  0  0  0  0  0  0  0  0
  194.3990  173.3970  135.5240 C   0  0  0  0  0  2  0  0  0  0  0  0
  194.3790  176.4020  136.0600 C   0  0  0  0  0  1  0  0  0  0  0  0
  194.0590  173.2780  137.0000 C   0  0  1  0  0  3  0  0  0  0  0  0
  193.1560  175.6680  136.6050 C   0  0  0  0  0  0  0  0  0  0  0  0
  193.2060  173.9290  134.7120 C   0  0  0  0  0  2  0  0  0  0  0  0
  195.2000  172.6750  137.7530 C   0  0  0  0  0  0  0  0  0  0  0  0
  196.1640  173.4970  138.3980 N   0  0  0  0  0  1  0  0  0  0  0  0
  195.3050  171.4180  137.8110 O   0  0  0  0  0  0  0  0  0  0  0  0
  190.1960  172.6670  134.3580 O   0  0  0  0  0  0  0  0  0  0  0  0
  190.8770  172.9100  135.3840 C   0  0  0  0  0  0  0  0  0  0  0  0
  191.5070  171.8630  136.0460 O   0  0  0  0  0  1  0  0  0  0  0  0
  186.2480  177.9560  140.1710 C   0  0  0  0  0  2  0  0  0  0  0  0
  185.4230  179.0850  140.0050 O   0  0  0  0  0  0  0  0  0  0  0  0
  184.1100  178.7570  140.4180 C   0  0  1  0  0  3  0  0  0  0  0  0
  182.5440  176.9320  139.9260 C   0  0  0  0  0  3  0  0  0  0  0  0
  183.3140  177.9140  139.4310 C   0  0  0  0  0  0  0  0  0  0  0  0
  184.1860  176.9450  137.2900 C   0  0  0  0  0  2  0  0  0  0  0  0
  183.0180  177.4070  135.1290 C   0  0  0  0  0  2  0  0  0  0  0  0
  182.1120  178.3960  137.2480 C   0  0  1  0  0  3  0  0  0  0  0  0
  182.3110  178.6090  135.7500 C   0  0  0  0  0  2  0  0  0  0  0  0
  184.3740  177.1970  135.7930 C   0  0  0  0  0  2  0  0  0  0  0  0
  183.4540  178.1190  137.9400 C   0  0  1  0  0  3  0  0  0  0  0  0
  181.5070  179.5230  137.7950 O   0  0  0  0  0  1  0  0  0  0  0  0
  181.6620  176.0020  139.1950 C   0  0  0  0  0  3  0  0  0  0  0  0
  182.0810  175.0940  138.3200 C   0  0  0  0  0  3  0  0  0  0  0  0
  181.1440  174.2310  137.5930 C   0  0  0  0  0  0  0  0  0  0  0  0
  180.7130  174.5950  136.4650 O   0  0  0  0  0  0  0  0  0  0  0  0
  180.6840  173.0040  138.1540 N   0  0  0  0  0  1  0  0  0  0  0  0
  184.0370  178.3160  141.8820 C   0  0  0  0  0  2  0  0  0  0  0  0
  184.9840  179.1500  142.7210 C   0  0  0  0  0  2  0  0  0  0  0  0
  184.4460  179.2360  144.1310 C   0  0  0  0  0  2  0  0  0  0  0  0
  186.0790  178.2950  145.8090 C   0  0  0  0  0  0  0  0  0  0  0  0
  185.5590  177.1530  145.7270 O   0  0  0  0  0  0  0  0  0  0  0  0
  185.5400  179.3950  145.0750 N   0  0  0  0  0  2  0  0  0  0  0  0
  187.2490  178.5070  146.7030 C   0  0  0  0  0  2  0  0  0  0  0  0
  188.2920  177.4200  146.5040 C   0  0  0  0  0  2  0  0  0  0  0  0
  189.4360  177.9470  145.7800 N   0  0  0  0  0  1  0  0  0  0  0  0
  2  7  1  6  0  0  0
  2  6  1  0  0  0  0
  2  3  1  0  0  0  0
  3 30  1  1  0  0  0
  3  5  1  0  0  0  0
  4  1  1  0  0  0  0
  5  1  1  0  0  0  0
  6  4  1  0  0  0  0
  8  7  1  0  0  0  0
  9 10  1  0  0  0  0
  9  8  1  0  0  0  0
 10 11  1  6  0  0  0
 12 13  1  0  0  0  0
 12 10  1  0  0  0  0
 13 14  1  1  0  0  0
 18 17  1  6  0  0  0
 18 13  1  0  0  0  0
 18 22  1  0  0  0  0
 19 21  1  0  0  0  0
 20 22  1  0  0  0  0
 21 15  1  0  0  0  0
 21 24  1  1  0  0  0
 22 16  1  0  0  0  0
 22 15  1  0  0  0  0
 23 18  1  0  0  0  0
 23 19  1  0  0  0  0
 24 26  2  0  0  0  0
 24 25  1  0  0  0  0
 27 28  2  0  0  0  0
 28 13  1  0  0  0  0
 28 29  1  0  0  0  0
 31 30  1  0  0  0  0
 31 32  1  0  0  0  0
 32 47  1  1  0  0  0
 34 33  2  0  0  0  0
 34 32  1  0  0  0  0
 35 40  1  0  0  0  0
 36 38  1  0  0  0  0
 36 39  1  0  0  0  0
 37 41  1  1  0  0  0
 37 40  1  0  0  0  0
 38 37  1  0  0  0  0
 39 35  1  0  0  0  0
 40 34  1  1  0  0  0
 42 33  1  0  0  0  0
 43 42  2  0  0  0  0
 44 46  1  0  0  0  0
 44 43  1  0  0  0  0
 45 44  2  0  0  0  0
 47 48  1  0  0  0  0
 48 49  1  0  0  0  0
 49 52  1  0  0  0  0
 50 53  1  0  0  0  0
 51 50  2  0  0  0  0
 52 50  1  0  0  0  0
 54 53  1  0  0  0  0
 55 54  1  0  0  0  0
M  END
>  <MODEL>
6

>  <REMARK>
 VINA RESULT:      -4.7      3.091      7.422
  Name = 
  22 active torsions:
  status: ('A' for Active; 'I' for Inactive)
    1  A    between atoms: C_1  and  C_29
    2  A    between atoms: C_2  and  O_28
    3  A    between atoms: C_2  and  C_31
    4  A    between atoms: C_4  and  C_40
    5  A    between atoms: C_6  and  C_14
    6  A    between atoms: C_6  and  C_20
    7  A    between atoms: C_6  and  O_22
    8  A    between atoms: C_8  and  O_22
    9  A    between atoms: C_8  and  C_35
   10  A    between atoms: C_10  and  C_32
   11  A    between atoms: C_13  and  N_48
   12  A    between atoms: C_13  and  C_52
   13  A    between atoms: C_19  and  C_45
   14  A    between atoms: C_26  and  C_49
   15  A    between atoms: C_27  and  C_54
   16  A    between atoms: O_28  and  C_33
   17  A    between atoms: C_32  and  C_39
   18  A    between atoms: C_33  and  C_34
   19  A    between atoms: C_33  and  C_49
   20  A    between atoms: C_34  and  C_52
   21  A    between atoms: C_35  and  O_51
   22  A    between atoms: O_51  and  C_54
                            x       y       z     vdW  Elec       q    Type
                         _______ _______ _______ _____ _____    ______ ____

>  <TORSDO>
F 22

$$$$
=
 OpenBabel10272401433D

 55 57  0  0  1  0  0  0  0  0999 V2000
  188.5780  177.0920  143.1900 S   0  0  0  0  0  0  0  0  0  0  0  0
  188.8280  177.4570  140.1700 C   0  0  2  0  0  3  0  0  0  0  0  0
  187.9840  178.5240  140.8810 C   0  0  2  0  0  3  0  0  0  0  0  0
  190.0440  176.5770  142.2080 C   0  0  0  0  0  2  0  0  0  0  0  0
  188.3310  178.7020  142.3640 C   0  0  0  0  0  2  0  0  0  0  0  0
  190.1840  177.2840  140.8530 C   0  0  0  0  0  2  0  0  0  0  0  0
  189.0180  177.8880  138.7270 C   0  0  0  0  0  2  0  0  0  0  0  0
  188.0120  177.3690  137.9100 O   0  0  0  0  0  0  0  0  0  0  0  0
  188.6910  177.0070  136.7420 C   0  0  0  0  0  2  0  0  0  0  0  0
  189.7960  176.0080  137.0510 C   0  0  1  0  0  3  0  0  0  0  0  0
  189.1540  174.6630  137.3340 C   0  0  0  0  0  1  0  0  0  0  0  0
  190.6630  175.9010  135.9400 O   0  0  0  0  0  0  0  0  0  0  0  0
  191.5360  174.7910  136.1110 C   0  0  2  0  0  0  0  0  0  0  0  0
  191.6680  174.4810  137.4660 F   0  0  0  0  0  0  0  0  0  0  0  0
  194.3540  174.3810  137.5600 C   0  0  0  0  0  2  0  0  0  0  0  0
  193.5450  176.7100  137.4720 C   0  0  0  0  0  1  0  0  0  0  0  0
  192.8060  176.2970  134.5250 C   0  0  0  0  0  1  0  0  0  0  0  0
  192.9610  175.1390  135.5220 C   0  0  1  0  0  0  0  0  0  0  0  0
  194.5850  173.0960  135.3850 C   0  0  0  0  0  2  0  0  0  0  0  0
  195.3260  175.9970  135.9780 C   0  0  0  0  0  1  0  0  0  0  0  0
  194.3550  173.0010  136.8840 C   0  0  1  0  0  3  0  0  0  0  0  0
  194.0160  175.5500  136.6220 C   0  0  0  0  0  0  0  0  0  0  0  0
  193.4860  173.9270  134.6990 C   0  0  0  0  0  2  0  0  0  0  0  0
  195.3810  172.1160  137.5140 C   0  0  0  0  0  0  0  0  0  0  0  0
  196.4550  171.5840  136.7490 N   0  0  0  0  0  1  0  0  0  0  0  0
  195.2870  171.8390  138.7420 O   0  0  0  0  0  0  0  0  0  0  0  0
  190.1660  173.7350  134.4340 O   0  0  0  0  0  0  0  0  0  0  0  0
  190.9500  173.5810  135.4020 C   0  0  0  0  0  0  0  0  0  0  0  0
  191.2540  172.2960  135.8340 O   0  0  0  0  0  1  0  0  0  0  0  0
  186.5020  178.2410  140.6990 C   0  0  0  0  0  2  0  0  0  0  0  0
  185.8330  179.4480  140.4200 O   0  0  0  0  0  0  0  0  0  0  0  0
  184.4370  179.2210  140.4700 C   0  0  1  0  0  3  0  0  0  0  0  0
  184.7440  177.8570  138.4530 C   0  0  0  0  0  3  0  0  0  0  0  0
  183.8730  178.4170  139.3070 C   0  0  0  0  0  0  0  0  0  0  0  0
  181.9790  179.0790  137.8040 C   0  0  0  0  0  2  0  0  0  0  0  0
  179.9970  177.5810  137.5400 C   0  0  0  0  0  2  0  0  0  0  0  0
  181.8690  176.8800  139.0530 C   0  0  1  0  0  3  0  0  0  0  0  0
  180.3600  176.8450  138.8270 C   0  0  0  0  0  2  0  0  0  0  0  0
  180.4620  179.0300  137.6150 C   0  0  0  0  0  2  0  0  0  0  0  0
  182.3830  178.3260  139.0720 C   0  0  1  0  0  3  0  0  0  0  0  0
  182.1680  176.2430  140.2530 O   0  0  0  0  0  1  0  0  0  0  0  0
  184.4610  177.0150  137.2750 C   0  0  0  0  0  3  0  0  0  0  0  0
  185.3720  176.6270  136.3870 C   0  0  0  0  0  3  0  0  0  0  0  0
  185.0130  175.8280  135.2110 C   0  0  0  0  0  0  0  0  0  0  0  0
  185.9180  175.4510  134.4180 O   0  0  0  0  0  0  0  0  0  0  0  0
  183.6550  175.4990  134.9300 N   0  0  0  0  0  1  0  0  0  0  0  0
  183.9480  178.8150  141.8630 C   0  0  0  0  0  2  0  0  0  0  0  0
  184.9190  179.3080  142.9160 C   0  0  0  0  0  2  0  0  0  0  0  0
  185.0250  178.2720  144.0110 C   0  0  0  0  0  2  0  0  0  0  0  0
  186.4170  178.0330  146.1010 C   0  0  0  0  0  0  0  0  0  0  0  0
  186.4340  176.7800  145.9890 O   0  0  0  0  0  0  0  0  0  0  0  0
  185.6890  178.8380  145.1740 N   0  0  0  0  0  2  0  0  0  0  0  0
  187.1410  178.6790  147.2290 C   0  0  0  0  0  2  0  0  0  0  0  0
  188.0040  177.6740  147.9720 C   0  0  0  0  0  2  0  0  0  0  0  0
  189.1800  178.3280  148.5180 N   0  0  0  0  0  1  0  0  0  0  0  0
  2  7  1  6  0  0  0
  2  6  1  0  0  0  0
  2  3  1  0  0  0  0
  3 30  1  1  0  0  0
  3  5  1  0  0  0  0
  4  1  1  0  0  0  0
  5  1  1  0  0  0  0
  6  4  1  0  0  0  0
  8  7  1  0  0  0  0
  9 10  1  0  0  0  0
  9  8  1  0  0  0  0
 10 11  1  6  0  0  0
 12 13  1  0  0  0  0
 12 10  1  0  0  0  0
 13 14  1  1  0  0  0
 18 17  1  6  0  0  0
 18 13  1  0  0  0  0
 18 22  1  0  0  0  0
 19 21  1  0  0  0  0
 20 22  1  0  0  0  0
 21 24  1  1  0  0  0
 21 15  1  0  0  0  0
 22 16  1  0  0  0  0
 22 15  1  0  0  0  0
 23 19  1  0  0  0  0
 23 18  1  0  0  0  0
 24 26  2  0  0  0  0
 25 24  1  0  0  0  0
 27 28  2  0  0  0  0
 28 29  1  0  0  0  0
 28 13  1  0  0  0  0
 31 32  1  0  0  0  0
 31 30  1  0  0  0  0
 32 47  1  1  0  0  0
 33 34  2  0  0  0  0
 34 32  1  0  0  0  0
 35 40  1  0  0  0  0
 36 39  1  0  0  0  0
 36 38  1  0  0  0  0
 37 40  1  0  0  0  0
 37 41  1  1  0  0  0
 38 37  1  0  0  0  0
 39 35  1  0  0  0  0
 40 34  1  6  0  0  0
 42 33  1  0  0  0  0
 43 42  2  0  0  0  0
 44 43  1  0  0  0  0
 45 44  2  0  0  0  0
 46 44  1  0  0  0  0
 47 48  1  0  0  0  0
 48 49  1  0  0  0  0
 49 52  1  0  0  0  0
 50 53  1  0  0  0  0
 51 50  2  0  0  0  0
 52 50  1  0  0  0  0
 53 54  1  0  0  0  0
 54 55  1  0  0  0  0
M  END
>  <MODEL>
7

>  <REMARK>
 VINA RESULT:      -4.3      2.872      7.517
  Name = 
  22 active torsions:
  status: ('A' for Active; 'I' for Inactive)
    1  A    between atoms: C_1  and  C_29
    2  A    between atoms: C_2  and  O_28
    3  A    between atoms: C_2  and  C_31
    4  A    between atoms: C_4  and  C_40
    5  A    between atoms: C_6  and  C_14
    6  A    between atoms: C_6  and  C_20
    7  A    between atoms: C_6  and  O_22
    8  A    between atoms: C_8  and  O_22
    9  A    between atoms: C_8  and  C_35
   10  A    between atoms: C_10  and  C_32
   11  A    between atoms: C_13  and  N_48
   12  A    between atoms: C_13  and  C_52
   13  A    between atoms: C_19  and  C_45
   14  A    between atoms: C_26  and  C_49
   15  A    between atoms: C_27  and  C_54
   16  A    between atoms: O_28  and  C_33
   17  A    between atoms: C_32  and  C_39
   18  A    between atoms: C_33  and  C_34
   19  A    between atoms: C_33  and  C_49
   20  A    between atoms: C_34  and  C_52
   21  A    between atoms: C_35  and  O_51
   22  A    between atoms: O_51  and  C_54
                            x       y       z     vdW  Elec       q    Type
                         _______ _______ _______ _____ _____    ______ ____

>  <TORSDO>
F 22

$$$$
=
 OpenBabel10272401433D

 55 57  0  0  1  0  0  0  0  0999 V2000
  188.4180  178.6440  137.8780 S   0  0  0  0  0  0  0  0  0  0  0  0
  190.9110  176.8850  137.9910 C   0  0  2  0  0  3  0  0  0  0  0  0
  189.8180  176.5210  139.0050 C   0  0  2  0  0  3  0  0  0  0  0  0
  189.4710  178.2530  136.4220 C   0  0  0  0  0  2  0  0  0  0  0  0
  188.4100  176.9600  138.5850 C   0  0  0  0  0  2  0  0  0  0  0  0
  190.3350  176.9950  136.5790 C   0  0  0  0  0  2  0  0  0  0  0  0
  191.9790  175.8080  138.0400 C   0  0  0  0  0  2  0  0  0  0  0  0
  193.1500  176.2320  137.4090 O   0  0  0  0  0  0  0  0  0  0  0  0
  193.0850  175.6220  136.1520 C   0  0  0  0  0  2  0  0  0  0  0  0
  193.1930  174.1110  136.2800 C   0  0  1  0  0  3  0  0  0  0  0  0
  191.8170  173.5150  136.0440 C   0  0  0  0  0  1  0  0  0  0  0  0
  194.1010  173.6160  135.3180 O   0  0  0  0  0  0  0  0  0  0  0  0
  194.9380  172.6270  135.9030 C   0  0  2  0  0  0  0  0  0  0  0  0
  194.9370  172.7500  137.2940 F   0  0  0  0  0  0  0  0  0  0  0  0
  197.6270  171.9320  137.4830 C   0  0  0  0  0  2  0  0  0  0  0  0
  197.0930  174.3340  137.3220 C   0  0  0  0  0  1  0  0  0  0  0  0
  196.4380  173.9460  134.3520 C   0  0  0  0  0  1  0  0  0  0  0  0
  196.4180  172.7990  135.3730 C   0  0  1  0  0  0  0  0  0  0  0  0
  197.8030  170.5840  135.3420 C   0  0  0  0  0  2  0  0  0  0  0  0
  198.8430  173.3940  135.9210 C   0  0  0  0  0  1  0  0  0  0  0  0
  197.5000  170.5460  136.8300 C   0  0  1  0  0  3  0  0  0  0  0  0
  197.4640  173.1110  136.5130 C   0  0  0  0  0  0  0  0  0  0  0  0
  196.8370  171.5180  134.5950 C   0  0  0  0  0  2  0  0  0  0  0  0
  198.3910  169.5640  137.5200 C   0  0  0  0  0  0  0  0  0  0  0  0
  198.0860  168.1760  137.5180 N   0  0  0  0  0  1  0  0  0  0  0  0
  199.4260  169.9800  138.1120 O   0  0  0  0  0  0  0  0  0  0  0  0
  194.2570  170.9190  134.3460 O   0  0  0  0  0  0  0  0  0  0  0  0
  194.4050  171.2480  135.5480 C   0  0  0  0  0  0  0  0  0  0  0  0
  194.0510  170.3500  136.5480 O   0  0  0  0  0  1  0  0  0  0  0  0
  190.1670  177.0610  140.3820 C   0  0  0  0  0  2  0  0  0  0  0  0
  189.3280  176.4590  141.3400 O   0  0  0  0  0  0  0  0  0  0  0  0
  189.0870  177.3840  142.3840 C   0  0  1  0  0  3  0  0  0  0  0  0
  190.8100  176.4480  143.8590 C   0  0  0  0  0  3  0  0  0  0  0  0
  189.5670  176.9440  143.7600 C   0  0  0  0  0  0  0  0  0  0  0  0
  189.0640  178.0750  145.9400 C   0  0  0  0  0  2  0  0  0  0  0  0
  186.7080  178.2530  146.7530 C   0  0  0  0  0  2  0  0  0  0  0  0
  187.1660  177.1150  144.5660 C   0  0  1  0  0  3  0  0  0  0  0  0
  186.2790  177.1340  145.8090 C   0  0  0  0  0  2  0  0  0  0  0  0
  188.1590  178.0570  147.1730 C   0  0  0  0  0  2  0  0  0  0  0  0
  188.6450  176.9810  144.9560 C   0  0  1  0  0  3  0  0  0  0  0  0
  186.7840  176.0590  143.7450 O   0  0  0  0  0  1  0  0  0  0  0  0
  191.5180  175.9810  145.0670 C   0  0  0  0  0  3  0  0  0  0  0  0
  191.6010  176.6640  146.2050 C   0  0  0  0  0  3  0  0  0  0  0  0
  192.3620  176.1610  147.3530 C   0  0  0  0  0  0  0  0  0  0  0  0
  192.9980  175.0760  147.2480 O   0  0  0  0  0  0  0  0  0  0  0  0
  192.3690  176.8570  148.5960 N   0  0  0  0  0  1  0  0  0  0  0  0
  189.4180  178.8270  141.9920 C   0  0  0  0  0  2  0  0  0  0  0  0
  188.2240  179.4630  141.3080 C   0  0  0  0  0  2  0  0  0  0  0  0
  186.9800  178.6820  141.6650 C   0  0  0  0  0  2  0  0  0  0  0  0
  184.6770  179.2320  140.7940 C   0  0  0  0  0  0  0  0  0  0  0  0
  184.2660  179.5060  141.9500 O   0  0  0  0  0  0  0  0  0  0  0  0
  186.0110  178.7650  140.5850 N   0  0  0  0  0  2  0  0  0  0  0  0
  183.7540  179.3680  139.6350 C   0  0  0  0  0  2  0  0  0  0  0  0
  183.7950  178.1300  138.7560 C   0  0  0  0  0  2  0  0  0  0  0  0
  183.3700  176.9630  139.5100 N   0  0  0  0  0  1  0  0  0  0  0  0
  1  5  1  0  0  0  0
  2  7  1  6  0  0  0
  2  3  1  0  0  0  0
  3 30  1  1  0  0  0
  4  6  1  0  0  0  0
  4  1  1  0  0  0  0
  5  3  1  0  0  0  0
  6  2  1  0  0  0  0
  8  7  1  0  0  0  0
  9 10  1  0  0  0  0
  9  8  1  0  0  0  0
 10 11  1  6  0  0  0
 12 13  1  0  0  0  0
 12 10  1  0  0  0  0
 13 14  1  1  0  0  0
 18 17  1  6  0  0  0
 18 13  1  0  0  0  0
 18 22  1  0  0  0  0
 19 21  1  0  0  0  0
 20 22  1  0  0  0  0
 21 15  1  0  0  0  0
 21 24  1  1  0  0  0
 22 16  1  0  0  0  0
 22 15  1  0  0  0  0
 23 19  1  0  0  0  0
 23 18  1  0  0  0  0
 24 26  2  0  0  0  0
 25 24  1  0  0  0  0
 27 28  2  0  0  0  0
 28 13  1  0  0  0  0
 28 29  1  0  0  0  0
 30 31  1  0  0  0  0
 31 32  1  0  0  0  0
 32 47  1  6  0  0  0
 32 34  1  0  0  0  0
 33 42  1  0  0  0  0
 34 33  2  0  0  0  0
 35 39  1  0  0  0  0
 36 39  1  0  0  0  0
 37 41  1  6  0  0  0
 37 40  1  0  0  0  0
 37 38  1  0  0  0  0
 38 36  1  0  0  0  0
 40 34  1  6  0  0  0
 40 35  1  0  0  0  0
 42 43  2  0  0  0  0
 43 44  1  0  0  0  0
 44 46  1  0  0  0  0
 45 44  2  0  0  0  0
 48 49  1  0  0  0  0
 48 47  1  0  0  0  0
 50 51  2  0  0  0  0
 52 50  1  0  0  0  0
 52 49  1  0  0  0  0
 53 50  1  0  0  0  0
 54 55  1  0  0  0  0
 54 53  1  0  0  0  0
M  END
>  <MODEL>
8

>  <REMARK>
 VINA RESULT:      -4.3      2.426      3.904
  Name = 
  22 active torsions:
  status: ('A' for Active; 'I' for Inactive)
    1  A    between atoms: C_1  and  C_29
    2  A    between atoms: C_2  and  O_28
    3  A    between atoms: C_2  and  C_31
    4  A    between atoms: C_4  and  C_40
    5  A    between atoms: C_6  and  C_14
    6  A    between atoms: C_6  and  C_20
    7  A    between atoms: C_6  and  O_22
    8  A    between atoms: C_8  and  O_22
    9  A    between atoms: C_8  and  C_35
   10  A    between atoms: C_10  and  C_32
   11  A    between atoms: C_13  and  N_48
   12  A    between atoms: C_13  and  C_52
   13  A    between atoms: C_19  and  C_45
   14  A    between atoms: C_26  and  C_49
   15  A    between atoms: C_27  and  C_54
   16  A    between atoms: O_28  and  C_33
   17  A    between atoms: C_32  and  C_39
   18  A    between atoms: C_33  and  C_34
   19  A    between atoms: C_33  and  C_49
   20  A    between atoms: C_34  and  C_52
   21  A    between atoms: C_35  and  O_51
   22  A    between atoms: O_51  and  C_54
                            x       y       z     vdW  Elec       q    Type
                         _______ _______ _______ _____ _____    ______ ____

>  <TORSDO>
F 22

$$$$
=
 OpenBabel10272401433D

 55 57  0  0  1  0  0  0  0  0999 V2000
  191.1760  174.8440  135.5060 S   0  0  0  0  0  0  0  0  0  0  0  0
  188.4630  174.4870  136.8580 C   0  0  2  0  0  3  0  0  0  0  0  0
  189.0960  175.8740  137.0380 C   0  0  2  0  0  3  0  0  0  0  0  0
  189.8470  173.7410  134.8760 C   0  0  0  0  0  2  0  0  0  0  0  0
  190.0910  176.2490  135.9340 C   0  0  0  0  0  2  0  0  0  0  0  0
  188.4410  174.0810  135.3840 C   0  0  0  0  0  2  0  0  0  0  0  0
  187.0490  174.5370  137.4100 C   0  0  0  0  0  2  0  0  0  0  0  0
  186.2440  173.5630  136.8190 O   0  0  0  0  0  0  0  0  0  0  0  0
  184.9720  173.8280  137.3390 C   0  0  0  0  0  2  0  0  0  0  0  0
  183.8910  173.2660  136.4290 C   0  0  1  0  0  3  0  0  0  0  0  0
  183.4970  171.8960  136.9510 C   0  0  0  0  0  1  0  0  0  0  0  0
  182.7680  174.1230  136.4410 O   0  0  0  0  0  0  0  0  0  0  0  0
  183.1730  175.4510  136.7500 C   0  0  2  0  0  0  0  0  0  0  0  0
  184.1560  175.4400  137.7420 F   0  0  0  0  0  0  0  0  0  0  0  0
  183.0300  177.2240  139.4040 C   0  0  0  0  0  2  0  0  0  0  0  0
  181.8650  175.0540  139.5250 C   0  0  0  0  0  1  0  0  0  0  0  0
  180.6490  175.6000  136.7640 C   0  0  0  0  0  1  0  0  0  0  0  0
  181.9310  176.2800  137.2660 C   0  0  1  0  0  0  0  0  0  0  0  0
  182.4000  178.8350  137.5490 C   0  0  0  0  0  2  0  0  0  0  0  0
  180.5760  177.1000  139.2740 C   0  0  0  0  0  1  0  0  0  0  0  0
  183.4920  178.3800  138.5020 C   0  0  1  0  0  3  0  0  0  0  0  0
  181.8620  176.4020  138.8390 C   0  0  0  0  0  0  0  0  0  0  0  0
  181.9540  177.6950  136.6180 C   0  0  0  0  0  2  0  0  0  0  0  0
  183.9730  179.5260  139.3320 C   0  0  0  0  0  0  0  0  0  0  0  0
  184.8990  179.3220  140.3910 N   0  0  0  0  0  1  0  0  0  0  0  0
  183.5450  180.6880  139.0860 O   0  0  0  0  0  0  0  0  0  0  0  0
  183.2050  175.9410  134.3910 O   0  0  0  0  0  0  0  0  0  0  0  0
  183.7620  176.0950  135.5060 C   0  0  0  0  0  0  0  0  0  0  0  0
  184.9340  176.8360  135.5830 O   0  0  0  0  0  1  0  0  0  0  0  0
  189.7360  175.9930  138.4120 C   0  0  0  0  0  2  0  0  0  0  0  0
  188.8500  176.6650  139.2760 O   0  0  0  0  0  0  0  0  0  0  0  0
  189.5670  177.6590  139.9840 C   0  0  1  0  0  3  0  0  0  0  0  0
  188.0720  177.9740  141.9040 C   0  0  0  0  0  3  0  0  0  0  0  0
  189.3150  177.6910  141.4850 C   0  0  0  0  0  0  0  0  0  0  0  0
  190.6650  178.7570  143.3080 C   0  0  0  0  0  2  0  0  0  0  0  0
  191.6010  177.3650  145.1610 C   0  0  0  0  0  2  0  0  0  0  0  0
  190.2550  176.2590  143.3570 C   0  0  1  0  0  3  0  0  0  0  0  0
  191.4280  176.1010  144.3220 C   0  0  0  0  0  2  0  0  0  0  0  0
  191.8510  178.5650  144.2550 C   0  0  0  0  0  2  0  0  0  0  0  0
  190.4440  177.4970  142.4700 C   0  0  1  0  0  3  0  0  0  0  0  0
  190.1470  175.1130  142.5750 O   0  0  0  0  0  1  0  0  0  0  0  0
  187.5620  178.0390  143.2870 C   0  0  0  0  0  3  0  0  0  0  0  0
  186.2770  177.9850  143.6220 C   0  0  0  0  0  3  0  0  0  0  0  0
  185.8370  178.1030  145.0160 C   0  0  0  0  0  0  0  0  0  0  0  0
  186.6560  177.8690  145.9470 O   0  0  0  0  0  0  0  0  0  0  0  0
  184.4910  178.4440  145.3390 N   0  0  0  0  0  1  0  0  0  0  0  0
  191.0320  177.7620  139.5500 C   0  0  0  0  0  2  0  0  0  0  0  0
  191.5850  176.3810  139.2650 C   0  0  0  0  0  2  0  0  0  0  0  0
  192.8700  176.5180  138.4810 C   0  0  0  0  0  2  0  0  0  0  0  0
  194.6050  174.6880  138.5470 C   0  0  0  0  0  0  0  0  0  0  0  0
  195.3740  175.3930  139.2490 O   0  0  0  0  0  0  0  0  0  0  0  0
  193.3570  175.2070  138.0860 N   0  0  0  0  0  2  0  0  0  0  0  0
  195.0140  173.3080  138.1700 C   0  0  0  0  0  2  0  0  0  0  0  0
  196.3540  173.3120  137.4540 C   0  0  0  0  0  2  0  0  0  0  0  0
  196.3620  174.3210  136.4090 N   0  0  0  0  0  1  0  0  0  0  0  0
  1  5  1  0  0  0  0
  2  3  1  0  0  0  0
  2  7  1  6  0  0  0
  3 30  1  1  0  0  0
  4  6  1  0  0  0  0
  4  1  1  0  0  0  0
  5  3  1  0  0  0  0
  6  2  1  0  0  0  0
  8  9  1  0  0  0  0
  8  7  1  0  0  0  0
 10 12  1  0  0  0  0
 10 11  1  1  0  0  0
 10  9  1  0  0  0  0
 12 13  1  0  0  0  0
 13 18  1  0  0  0  0
 13 14  1  1  0  0  0
 18 17  1  6  0  0  0
 18 22  1  0  0  0  0
 19 21  1  0  0  0  0
 21 24  1  1  0  0  0
 21 15  1  0  0  0  0
 22 20  1  0  0  0  0
 22 15  1  0  0  0  0
 22 16  1  0  0  0  0
 23 18  1  0  0  0  0
 23 19  1  0  0  0  0
 24 25  1  0  0  0  0
 26 24  2  0  0  0  0
 27 28  2  0  0  0  0
 28 29  1  0  0  0  0
 28 13  1  0  0  0  0
 30 31  1  0  0  0  0
 31 32  1  0  0  0  0
 32 47  1  1  0  0  0
 32 34  1  0  0  0  0
 33 42  1  0  0  0  0
 34 33  2  0  0  0  0
 35 39  1  0  0  0  0
 37 41  1  6  0  0  0
 37 38  1  0  0  0  0
 38 36  1  0  0  0  0
 39 36  1  0  0  0  0
 40 34  1  1  0  0  0
 40 35  1  0  0  0  0
 40 37  1  0  0  0  0
 42 43  2  0  0  0  0
 43 44  1  0  0  0  0
 44 46  1  0  0  0  0
 44 45  2  0  0  0  0
 48 47  1  0  0  0  0
 49 48  1  0  0  0  0
 50 51  2  0  0  0  0
 52 49  1  0  0  0  0
 52 50  1  0  0  0  0
 53 50  1  0  0  0  0
 54 53  1  0  0  0  0
 55 54  1  0  0  0  0
M  END
>  <MODEL>
9

>  <REMARK>
 VINA RESULT:      -4.2      3.134     10.293
  Name = 
  22 active torsions:
  status: ('A' for Active; 'I' for Inactive)
    1  A    between atoms: C_1  and  C_29
    2  A    between atoms: C_2  and  O_28
    3  A    between atoms: C_2  and  C_31
    4  A    between atoms: C_4  and  C_40
    5  A    between atoms: C_6  and  C_14
    6  A    between atoms: C_6  and  C_20
    7  A    between atoms: C_6  and  O_22
    8  A    between atoms: C_8  and  O_22
    9  A    between atoms: C_8  and  C_35
   10  A    between atoms: C_10  and  C_32
   11  A    between atoms: C_13  and  N_48
   12  A    between atoms: C_13  and  C_52
   13  A    between atoms: C_19  and  C_45
   14  A    between atoms: C_26  and  C_49
   15  A    between atoms: C_27  and  C_54
   16  A    between atoms: O_28  and  C_33
   17  A    between atoms: C_32  and  C_39
   18  A    between atoms: C_33  and  C_34
   19  A    between atoms: C_33  and  C_49
   20  A    between atoms: C_34  and  C_52
   21  A    between atoms: C_35  and  O_51
   22  A    between atoms: O_51  and  C_54
                            x       y       z     vdW  Elec       q    Type
                         _______ _______ _______ _____ _____    ______ ____

>  <TORSDO>
F 22

$$$$
