=
 OpenBabel10272414003D

 30 35  0  0  1  0  0  0  0  0999 V2000
  193.3300  176.3930  135.7300 C   0  0  1  0  0  3  0  0  0  0  0  0
  196.5650  176.1800  135.0840 C   0  0  1  0  0  3  0  0  0  0  0  0
  196.0970  174.7020  138.7560 O   0  0  0  0  0  1  0  0  0  0  0  0
  192.0410  175.5760  135.6400 C   0  0  2  0  0  3  0  0  0  0  0  0
  194.0710  176.0810  137.0220 C   0  0  1  0  0  3  0  0  0  0  0  0
  191.5320  175.8900  138.0480 C   0  0  2  0  0  3  0  0  0  0  0  0
  190.9720  173.2640  135.5950 C   0  0  0  0  0  2  0  0  0  0  0  0
  193.4820  172.2960  136.8740 O   0  0  0  0  0  1  0  0  0  0  0  0
  193.1160  176.7940  138.3930 S   0  0  0  0  0  0  0  0  0  0  0  0
  191.0620  176.0600  136.6470 N   0  0  2  0  0  0  0  0  0  0  0  0
  197.8260  175.3770  134.8360 C   0  0  0  0  0  2  0  0  0  0  0  0
  189.8800  173.8870  136.4020 C   0  0  0  0  0  0  0  0  0  0  0  0
  195.3750  175.4980  134.4190 C   0  0  0  0  0  2  0  0  0  0  0  0
  194.2580  174.5660  137.2030 C   0  0  2  0  0  3  0  0  0  0  0  0
  197.2150  175.3790  136.2210 C   0  0  2  0  0  3  0  0  0  0  0  0
  194.1650  176.4290  134.4390 C   0  0  0  0  0  2  0  0  0  0  0  0
  193.0410  173.6720  134.5580 O   0  0  0  0  0  1  0  0  0  0  0  0
  193.0670  173.6290  136.9500 C   0  0  1  0  0  3  0  0  0  0  0  0
  192.2920  174.0350  135.6800 C   0  0  1  0  0  0  0  0  0  0  0  0
  188.9140  173.1590  136.8230 N   0  0  0  0  0  2  0  0  0  0  0  0
  195.6060  174.0090  137.6470 C   0  0  1  0  0  3  0  0  0  0  0  0
  196.6160  173.9980  136.5000 C   0  0  0  0  0  2  0  0  0  0  0  0
  189.7630  175.3880  136.4570 C   0  0  2  0  0  3  0  0  0  0  0  0
  190.4010  176.1630  139.0790 C   0  0  2  0  0  3  0  0  0  0  0  0
  190.1070  177.6450  139.2100 C   0  0  1  0  0  3  0  0  0  0  0  0
  188.6540  177.8210  139.5970 C   0  0  0  0  0  1  0  0  0  0  0  0
  190.8370  176.9140  140.3220 C   0  0  0  0  0  2  0  0  0  0  0  0
  189.3580  177.3290  135.0990 O   0  0  0  0  0  1  0  0  0  0  0  0
  187.4360  176.0170  135.6190 C   0  0  0  0  0  1  0  0  0  0  0  0
  188.9300  176.0220  135.3340 C   0  0  2  0  0  3  0  0  0  0  0  0
  1 16  1  6  0  0  0
  1  5  1  0  0  0  0
  2 13  1  6  0  0  0
  2 15  1  0  0  0  0
  4 19  1  0  0  0  0
  4  1  1  0  0  0  0
  4 10  1  0  0  0  0
  5 14  1  0  0  0  0
  5  9  1  0  0  0  0
  6  9  1  0  0  0  0
  6 24  1  0  0  0  0
  7 19  1  0  0  0  0
  7 12  1  0  0  0  0
  8 18  1  0  0  0  0
 10  6  1  0  0  0  0
 11  2  1  0  0  0  0
 11 15  1  0  0  0  0
 12 23  1  0  0  0  0
 12 20  2  0  0  0  0
 13 16  1  0  0  0  0
 14 21  1  0  0  0  0
 15 22  1  0  0  0  0
 17 19  1  0  0  0  0
 18 14  1  0  0  0  0
 19 18  1  0  0  0  0
 21  3  1  0  0  0  0
 22 21  1  0  0  0  0
 23 10  1  0  0  0  0
 24 25  1  0  0  0  0
 24 27  1  0  0  0  0
 25 26  1  0  0  0  0
 25 27  1  0  0  0  0
 28 30  1  0  0  0  0
 30 29  1  0  0  0  0
 30 23  1  0  0  0  0
M  END
>  <MODEL>
1

>  <REMARK>
 VINA RESULT:      -5.4      0.000      0.000
  Name = 
  2 active torsions:
  status: ('A' for Active; 'I' for Inactive)
    1  A    between atoms: C_6  and  C_8
    2  A    between atoms: C_27  and  C_30
                            x       y       z     vdW  Elec       q    Type
                         _______ _______ _______ _____ _____    ______ ____

>  <TORSDO>
F 2

$$$$
=
 OpenBabel10272414003D

 30 35  0  0  1  0  0  0  0  0999 V2000
  188.6050  176.0230  138.2590 C   0  0  1  0  0  3  0  0  0  0  0  0
  191.8240  176.2370  138.9810 C   0  0  1  0  0  3  0  0  0  0  0  0
  191.6140  174.1630  135.5840 O   0  0  0  0  0  1  0  0  0  0  0  0
  187.5140  176.7340  137.4570 C   0  0  2  0  0  3  0  0  0  0  0  0
  189.3740  175.0540  137.3720 C   0  0  1  0  0  3  0  0  0  0  0  0
  186.9130  174.6700  136.2180 C   0  0  2  0  0  3  0  0  0  0  0  0
  186.9480  178.2300  135.4740 C   0  0  0  0  0  2  0  0  0  0  0  0
  189.5830  177.4090  134.3540 O   0  0  0  0  0  1  0  0  0  0  0  0
  188.2700  173.6640  136.9860 S   0  0  0  0  0  0  0  0  0  0  0  0
  186.4410  175.7720  137.0970 N   0  0  2  0  0  0  0  0  0  0  0  0
  193.2270  176.7270  138.6870 C   0  0  0  0  0  2  0  0  0  0  0  0
  185.7380  177.3660  135.3240 C   0  0  0  0  0  0  0  0  0  0  0  0
  190.8110  177.3230  138.6380 C   0  0  0  0  0  2  0  0  0  0  0  0
  189.8670  175.7450  136.0920 C   0  0  2  0  0  3  0  0  0  0  0  0
  192.6070  175.6840  137.7820 C   0  0  2  0  0  3  0  0  0  0  0  0
  189.4350  176.9390  139.1750 C   0  0  0  0  0  2  0  0  0  0  0  0
  188.9030  178.5630  136.7340 O   0  0  0  0  0  1  0  0  0  0  0  0
  188.9000  176.6430  135.3050 C   0  0  1  0  0  3  0  0  0  0  0  0
  188.0780  177.5460  136.2470 C   0  0  1  0  0  0  0  0  0  0  0  0
  184.9360  177.5690  134.3460 N   0  0  0  0  0  2  0  0  0  0  0  0
  191.2940  175.5220  135.6020 C   0  0  1  0  0  3  0  0  0  0  0  0
  192.3030  176.3240  136.4250 C   0  0  0  0  0  2  0  0  0  0  0  0
  185.3120  176.4830  136.4680 C   0  0  2  0  0  3  0  0  0  0  0  0
  185.7340  173.8290  135.6520 C   0  0  2  0  0  3  0  0  0  0  0  0
  185.1740  172.8780  136.6920 C   0  0  1  0  0  3  0  0  0  0  0  0
  183.7070  172.6460  136.4000 C   0  0  0  0  0  1  0  0  0  0  0  0
  186.0060  172.3420  135.5410 C   0  0  0  0  0  2  0  0  0  0  0  0
  185.1290  177.9070  138.3950 O   0  0  0  0  0  1  0  0  0  0  0  0
  183.5290  176.1450  138.2620 C   0  0  0  0  0  1  0  0  0  0  0  0
  184.3830  177.1430  137.4970 C   0  0  2  0  0  3  0  0  0  0  0  0
  1 16  1  6  0  0  0
  2 13  1  6  0  0  0
  3 21  1  0  0  0  0
  4  1  1  0  0  0  0
  5  1  1  0  0  0  0
  6  9  1  0  0  0  0
  6 10  1  0  0  0  0
  7 19  1  0  0  0  0
  8 18  1  0  0  0  0
  9  5  1  0  0  0  0
 10  4  1  0  0  0  0
 11  2  1  0  0  0  0
 12  7  1  0  0  0  0
 12 23  1  0  0  0  0
 13 16  1  0  0  0  0
 14  5  1  0  0  0  0
 15 11  1  0  0  0  0
 15  2  1  0  0  0  0
 18 14  1  0  0  0  0
 18 19  1  0  0  0  0
 19 17  1  0  0  0  0
 19  4  1  0  0  0  0
 20 12  2  0  0  0  0
 21 14  1  0  0  0  0
 21 22  1  0  0  0  0
 22 15  1  0  0  0  0
 23 10  1  0  0  0  0
 23 30  1  0  0  0  0
 24  6  1  0  0  0  0
 24 25  1  0  0  0  0
 26 25  1  0  0  0  0
 27 24  1  0  0  0  0
 27 25  1  0  0  0  0
 30 29  1  0  0  0  0
 30 28  1  0  0  0  0
M  END
>  <MODEL>
2

>  <REMARK>
 VINA RESULT:      -4.7      3.062      5.870
  Name = 
  2 active torsions:
  status: ('A' for Active; 'I' for Inactive)
    1  A    between atoms: C_6  and  C_8
    2  A    between atoms: C_27  and  C_30
                            x       y       z     vdW  Elec       q    Type
                         _______ _______ _______ _____ _____    ______ ____

>  <TORSDO>
F 2

$$$$
=
 OpenBabel10272414003D

 30 35  0  0  1  0  0  0  0  0999 V2000
  191.2420  175.5230  134.7930 C   0  0  1  0  0  3  0  0  0  0  0  0
  188.0780  176.3940  134.3990 C   0  0  1  0  0  3  0  0  0  0  0  0
  188.0260  173.1610  136.7300 O   0  0  0  0  0  1  0  0  0  0  0  0
  192.4260  175.7290  135.7390 C   0  0  2  0  0  3  0  0  0  0  0  0
  190.3540  174.3900  135.2870 C   0  0  1  0  0  3  0  0  0  0  0  0
  192.7480  173.2890  136.0590 C   0  0  2  0  0  3  0  0  0  0  0  0
  193.2060  176.2610  138.1050 C   0  0  0  0  0  2  0  0  0  0  0  0
  190.4910  175.4040  138.9810 O   0  0  0  0  0  1  0  0  0  0  0  0
  191.2610  172.8330  135.0470 S   0  0  0  0  0  0  0  0  0  0  0  0
  193.3600  174.5780  135.6400 N   0  0  2  0  0  0  0  0  0  0  0  0
  186.7570  176.9020  134.9410 C   0  0  0  0  0  2  0  0  0  0  0  0
  194.2870  175.2640  137.8420 C   0  0  0  0  0  0  0  0  0  0  0  0
  189.2330  177.1300  135.0700 C   0  0  0  0  0  2  0  0  0  0  0  0
  189.9690  174.5880  136.7610 C   0  0  2  0  0  3  0  0  0  0  0  0
  187.2350  175.5230  135.3410 C   0  0  2  0  0  3  0  0  0  0  0  0
  190.5390  176.8160  134.3460 C   0  0  0  0  0  2  0  0  0  0  0  0
  191.3050  177.2930  137.1860 O   0  0  0  0  0  1  0  0  0  0  0  0
  191.0570  174.9860  137.7720 C   0  0  1  0  0  3  0  0  0  0  0  0
  191.9870  176.0740  137.1980 C   0  0  1  0  0  0  0  0  0  0  0  0
  195.1160  174.9730  138.7740 N   0  0  0  0  0  2  0  0  0  0  0  0
  188.5290  174.3720  137.2130 C   0  0  1  0  0  3  0  0  0  0  0  0
  187.6340  175.5460  136.8190 C   0  0  0  0  0  2  0  0  0  0  0  0
  194.5800  174.8450  136.4250 C   0  0  2  0  0  3  0  0  0  0  0  0
  193.8050  172.1560  136.1900 C   0  0  2  0  0  3  0  0  0  0  0  0
  194.3880  171.7750  134.8430 C   0  0  1  0  0  3  0  0  0  0  0  0
  195.8000  171.2710  135.0490 C   0  0  0  0  0  1  0  0  0  0  0  0
  193.4160  170.8410  135.5440 C   0  0  0  0  0  2  0  0  0  0  0  0
  195.1560  175.9300  134.3590 O   0  0  0  0  0  1  0  0  0  0  0  0
  196.9960  175.1710  135.6710 C   0  0  0  0  0  1  0  0  0  0  0  0
  195.5830  175.7320  135.6720 C   0  0  2  0  0  3  0  0  0  0  0  0
  1 16  1  1  0  0  0
  1  5  1  0  0  0  0
  1  4  1  0  0  0  0
  2 11  1  1  0  0  0
  2 13  1  0  0  0  0
  2 15  1  0  0  0  0
  3 21  1  0  0  0  0
  4 19  1  0  0  0  0
  5 14  1  0  0  0  0
  6 24  1  0  0  0  0
  9  5  1  0  0  0  0
  9  6  1  0  0  0  0
 10  4  1  0  0  0  0
 10  6  1  0  0  0  0
 10 23  1  0  0  0  0
 11 15  1  0  0  0  0
 12  7  1  0  0  0  0
 12 20  2  0  0  0  0
 14 21  1  0  0  0  0
 14 18  1  0  0  0  0
 15 22  1  0  0  0  0
 16 13  1  0  0  0  0
 17 19  1  0  0  0  0
 18  8  1  0  0  0  0
 19 18  1  0  0  0  0
 19  7  1  0  0  0  0
 22 21  1  0  0  0  0
 23 12  1  0  0  0  0
 25 26  1  0  0  0  0
 25 27  1  0  0  0  0
 25 24  1  0  0  0  0
 27 24  1  0  0  0  0
 28 30  1  0  0  0  0
 29 30  1  0  0  0  0
 30 23  1  0  0  0  0
M  END
>  <MODEL>
3

>  <REMARK>
 VINA RESULT:      -4.5      2.500      6.547
  Name = 
  2 active torsions:
  status: ('A' for Active; 'I' for Inactive)
    1  A    between atoms: C_6  and  C_8
    2  A    between atoms: C_27  and  C_30
                            x       y       z     vdW  Elec       q    Type
                         _______ _______ _______ _____ _____    ______ ____

>  <TORSDO>
F 2

$$$$
=
 OpenBabel10272414003D

 30 35  0  0  1  0  0  0  0  0999 V2000
  185.7320  177.6600  135.7010 C   0  0  1  0  0  3  0  0  0  0  0  0
  188.9160  177.5840  134.8160 C   0  0  1  0  0  3  0  0  0  0  0  0
  188.8420  176.5800  138.6720 O   0  0  0  0  0  1  0  0  0  0  0  0
  184.5070  176.7520  135.8240 C   0  0  2  0  0  3  0  0  0  0  0  0
  186.5900  177.5740  136.9550 C   0  0  1  0  0  3  0  0  0  0  0  0
  184.1560  177.3490  138.2070 C   0  0  2  0  0  3  0  0  0  0  0  0
  183.6240  174.3860  136.1640 C   0  0  0  0  0  2  0  0  0  0  0  0
  186.2910  173.7710  137.3390 O   0  0  0  0  0  1  0  0  0  0  0  0
  185.6860  178.3960  138.2990 S   0  0  0  0  0  0  0  0  0  0  0  0
  183.5720  177.2970  136.8400 N   0  0  2  0  0  0  0  0  0  0  0  0
  190.2140  176.8430  134.5670 C   0  0  0  0  0  2  0  0  0  0  0  0
  182.5500  175.0350  136.9740 C   0  0  0  0  0  0  0  0  0  0  0  0
  187.7370  176.7400  134.3460 C   0  0  0  0  0  2  0  0  0  0  0  0
  186.9080  176.1130  137.3100 C   0  0  2  0  0  3  0  0  0  0  0  0
  189.7100  176.9880  135.9870 C   0  0  2  0  0  3  0  0  0  0  0  0
  186.4630  177.5800  134.3490 C   0  0  0  0  0  2  0  0  0  0  0  0
  185.5710  174.7940  134.9120 O   0  0  0  0  0  1  0  0  0  0  0  0
  185.7790  175.0710  137.2790 C   0  0  1  0  0  3  0  0  0  0  0  0
  184.8820  175.2500  136.0380 C   0  0  1  0  0  0  0  0  0  0  0  0
  181.6780  174.3060  137.5640 N   0  0  0  0  0  2  0  0  0  0  0  0
  188.3250  175.7130  137.7070 C   0  0  1  0  0  3  0  0  0  0  0  0
  189.2450  175.6190  136.4890 C   0  0  0  0  0  2  0  0  0  0  0  0
  182.3190  176.5190  136.8470 C   0  0  2  0  0  3  0  0  0  0  0  0
  183.0880  177.6780  139.2860 C   0  0  2  0  0  3  0  0  0  0  0  0
  182.9000  179.1740  139.4500 C   0  0  1  0  0  3  0  0  0  0  0  0
  181.4790  179.4400  139.8980 C   0  0  0  0  0  1  0  0  0  0  0  0
  183.6220  178.3760  140.5220 C   0  0  0  0  0  2  0  0  0  0  0  0
  181.5910  176.1780  134.5820 O   0  0  0  0  0  1  0  0  0  0  0  0
  181.4460  178.4190  135.3830 C   0  0  0  0  0  1  0  0  0  0  0  0
  181.3570  176.9400  135.7270 C   0  0  2  0  0  3  0  0  0  0  0  0
  1 16  1  6  0  0  0
  1  4  1  0  0  0  0
  1  5  1  0  0  0  0
  2 13  1  6  0  0  0
  2 15  1  0  0  0  0
  4 19  1  0  0  0  0
  4 10  1  0  0  0  0
  5 14  1  0  0  0  0
  5  9  1  0  0  0  0
  6  9  1  0  0  0  0
  6 24  1  0  0  0  0
  7 12  1  0  0  0  0
 10 23  1  0  0  0  0
 10  6  1  0  0  0  0
 11  2  1  0  0  0  0
 11 15  1  0  0  0  0
 12 20  2  0  0  0  0
 13 16  1  0  0  0  0
 14 21  1  0  0  0  0
 15 22  1  0  0  0  0
 17 19  1  0  0  0  0
 18 14  1  0  0  0  0
 18  8  1  0  0  0  0
 19  7  1  0  0  0  0
 19 18  1  0  0  0  0
 21  3  1  0  0  0  0
 22 21  1  0  0  0  0
 23 12  1  0  0  0  0
 24 25  1  0  0  0  0
 24 27  1  0  0  0  0
 25 26  1  0  0  0  0
 25 27  1  0  0  0  0
 28 30  1  0  0  0  0
 29 30  1  0  0  0  0
 30 23  1  0  0  0  0
M  END
>  <MODEL>
4

>  <REMARK>
 VINA RESULT:      -4.3      5.075      7.526
  Name = 
  2 active torsions:
  status: ('A' for Active; 'I' for Inactive)
    1  A    between atoms: C_6  and  C_8
    2  A    between atoms: C_27  and  C_30
                            x       y       z     vdW  Elec       q    Type
                         _______ _______ _______ _____ _____    ______ ____

>  <TORSDO>
F 2

$$$$
=
 OpenBabel10272414003D

 30 35  0  0  1  0  0  0  0  0999 V2000
  184.0900  174.1600  137.5890 C   0  0  1  0  0  3  0  0  0  0  0  0
  181.5350  172.1330  137.0480 C   0  0  1  0  0  3  0  0  0  0  0  0
  179.9820  175.7980  137.2580 O   0  0  0  0  0  1  0  0  0  0  0  0
  185.0980  175.0340  136.8390 C   0  0  2  0  0  3  0  0  0  0  0  0
  182.7960  174.9240  137.8290 C   0  0  1  0  0  3  0  0  0  0  0  0
  184.4970  177.0560  138.1470 C   0  0  2  0  0  3  0  0  0  0  0  0
  185.6090  176.3940  134.7470 C   0  0  0  0  0  2  0  0  0  0  0  0
  182.6610  176.5190  134.3460 O   0  0  0  0  0  1  0  0  0  0  0  0
  183.1340  176.2040  139.0740 S   0  0  0  0  0  0  0  0  0  0  0  0
  185.5780  176.1260  137.7240 N   0  0  2  0  0  0  0  0  0  0  0  0
  180.4010  171.6170  136.1860 C   0  0  0  0  0  2  0  0  0  0  0  0
  186.3060  177.3340  135.6760 C   0  0  0  0  0  0  0  0  0  0  0  0
  182.7450  172.4570  136.1790 C   0  0  0  0  0  2  0  0  0  0  0  0
  182.2650  175.5410  136.5270 C   0  0  2  0  0  3  0  0  0  0  0  0
  180.2990  173.0040  136.7830 C   0  0  2  0  0  3  0  0  0  0  0  0
  183.9630  172.7210  137.0600 C   0  0  0  0  0  2  0  0  0  0  0  0
  184.3640  174.4050  134.6340 O   0  0  0  0  0  1  0  0  0  0  0  0
  183.2390  176.2830  135.5980 C   0  0  1  0  0  3  0  0  0  0  0  0
  184.5690  175.5190  135.4510 C   0  0  1  0  0  0  0  0  0  0  0  0
  186.8160  178.4140  135.2150 N   0  0  0  0  0  2  0  0  0  0  0  0
  180.7850  175.4320  136.1750 C   0  0  1  0  0  3  0  0  0  0  0  0
  180.4300  174.0370  135.6610 C   0  0  0  0  0  2  0  0  0  0  0  0
  186.6670  176.8710  137.0650 C   0  0  2  0  0  3  0  0  0  0  0  0
  185.0590  178.3210  138.8530 C   0  0  2  0  0  3  0  0  0  0  0  0
  184.5340  178.4520  140.2700 C   0  0  1  0  0  3  0  0  0  0  0  0
  185.5660  179.1780  141.1060 C   0  0  0  0  0  1  0  0  0  0  0  0
  184.0260  179.3810  139.1810 C   0  0  0  0  0  2  0  0  0  0  0  0
  188.9700  177.0350  137.7310 O   0  0  0  0  0  1  0  0  0  0  0  0
  188.5370  175.6120  135.8680 C   0  0  0  0  0  1  0  0  0  0  0  0
  188.0240  176.1650  137.1890 C   0  0  2  0  0  3  0  0  0  0  0  0
  1 16  1  6  0  0  0
  1  5  1  0  0  0  0
  2 13  1  6  0  0  0
  4  1  1  0  0  0  0
  4 10  1  0  0  0  0
  5  9  1  0  0  0  0
  6 24  1  0  0  0  0
  6  9  1  0  0  0  0
  7 19  1  0  0  0  0
  7 12  1  0  0  0  0
  8 18  1  0  0  0  0
 10  6  1  0  0  0  0
 11 15  1  0  0  0  0
 11  2  1  0  0  0  0
 12 23  1  0  0  0  0
 13 16  1  0  0  0  0
 14  5  1  0  0  0  0
 15  2  1  0  0  0  0
 17 19  1  0  0  0  0
 18 14  1  0  0  0  0
 19 18  1  0  0  0  0
 19  4  1  0  0  0  0
 20 12  2  0  0  0  0
 21 14  1  0  0  0  0
 21  3  1  0  0  0  0
 22 21  1  0  0  0  0
 22 15  1  0  0  0  0
 23 30  1  0  0  0  0
 23 10  1  0  0  0  0
 24 27  1  0  0  0  0
 24 25  1  0  0  0  0
 25 26  1  0  0  0  0
 27 25  1  0  0  0  0
 29 30  1  0  0  0  0
 30 28  1  0  0  0  0
M  END
>  <MODEL>
5

>  <REMARK>
 VINA RESULT:      -4.2      5.642     10.242
  Name = 
  2 active torsions:
  status: ('A' for Active; 'I' for Inactive)
    1  A    between atoms: C_6  and  C_8
    2  A    between atoms: C_27  and  C_30
                            x       y       z     vdW  Elec       q    Type
                         _______ _______ _______ _____ _____    ______ ____

>  <TORSDO>
F 2

$$$$
=
 OpenBabel10272414003D

 30 35  0  0  1  0  0  0  0  0999 V2000
  188.6880  174.6900  136.9940 C   0  0  1  0  0  3  0  0  0  0  0  0
  185.6780  175.2420  135.7460 C   0  0  1  0  0  3  0  0  0  0  0  0
  186.8440  178.7100  137.3260 O   0  0  0  0  0  1  0  0  0  0  0  0
  190.1690  174.7880  136.6220 C   0  0  2  0  0  3  0  0  0  0  0  0
  188.1780  176.0270  137.5110 C   0  0  1  0  0  3  0  0  0  0  0  0
  190.6950  176.1960  138.5970 C   0  0  2  0  0  3  0  0  0  0  0  0
  191.9450  175.9240  135.1920 C   0  0  0  0  0  2  0  0  0  0  0  0
  189.9900  178.1500  134.8830 O   0  0  0  0  0  1  0  0  0  0  0  0
  188.9250  176.3090  139.1440 S   0  0  0  0  0  0  0  0  0  0  0  0
  190.9910  174.9450  137.8490 N   0  0  2  0  0  0  0  0  0  0  0  0
  184.7450  175.9160  134.7590 C   0  0  0  0  0  2  0  0  0  0  0  0
  192.8140  175.8170  136.4020 C   0  0  0  0  0  0  0  0  0  0  0  0
  186.9830  174.8650  135.0540 C   0  0  0  0  0  2  0  0  0  0  0  0
  188.5210  177.1660  136.5390 C   0  0  2  0  0  3  0  0  0  0  0  0
  185.4070  176.7500  135.8340 C   0  0  2  0  0  3  0  0  0  0  0  0
  187.8100  173.9600  135.9630 C   0  0  0  0  0  2  0  0  0  0  0  0
  189.7970  175.4800  134.3460 O   0  0  0  0  0  1  0  0  0  0  0  0
  189.9390  177.2490  135.9520 C   0  0  1  0  0  3  0  0  0  0  0  0
  190.4510  175.8600  135.5210 C   0  0  1  0  0  0  0  0  0  0  0  0
  193.9920  176.3160  136.3780 N   0  0  0  0  0  2  0  0  0  0  0  0
  187.4690  178.2100  136.1810 C   0  0  1  0  0  3  0  0  0  0  0  0
  186.4500  177.6620  135.1820 C   0  0  0  0  0  2  0  0  0  0  0  0
  192.4250  174.8750  137.5130 C   0  0  2  0  0  3  0  0  0  0  0  0
  191.7310  176.4610  139.7240 C   0  0  2  0  0  3  0  0  0  0  0  0
  191.2870  177.5840  140.6410 C   0  0  1  0  0  3  0  0  0  0  0  0
  191.8660  177.3440  142.0190 C   0  0  0  0  0  1  0  0  0  0  0  0
  192.4190  177.8100  139.6540 C   0  0  0  0  0  2  0  0  0  0  0  0
  194.2160  173.3130  137.8670 O   0  0  0  0  0  1  0  0  0  0  0  0
  192.8990  172.9420  135.9150 C   0  0  0  0  0  1  0  0  0  0  0  0
  192.9240  173.4320  137.3550 C   0  0  2  0  0  3  0  0  0  0  0  0
  1 16  1  6  0  0  0
  1  5  1  0  0  0  0
  2 11  1  6  0  0  0
  2 15  1  0  0  0  0
  4  1  1  0  0  0  0
  4 10  1  0  0  0  0
  5  9  1  0  0  0  0
  6  9  1  0  0  0  0
  6 24  1  0  0  0  0
  7 19  1  0  0  0  0
  7 12  1  0  0  0  0
  8 18  1  0  0  0  0
 10  6  1  0  0  0  0
 11 15  1  0  0  0  0
 12 23  1  0  0  0  0
 13  2  1  0  0  0  0
 13 16  1  0  0  0  0
 14  5  1  0  0  0  0
 17 19  1  0  0  0  0
 18 14  1  0  0  0  0
 19 18  1  0  0  0  0
 19  4  1  0  0  0  0
 20 12  2  0  0  0  0
 21 14  1  0  0  0  0
 21  3  1  0  0  0  0
 22 15  1  0  0  0  0
 22 21  1  0  0  0  0
 23 10  1  0  0  0  0
 24 25  1  0  0  0  0
 25 26  1  0  0  0  0
 27 24  1  0  0  0  0
 27 25  1  0  0  0  0
 29 30  1  0  0  0  0
 30 23  1  0  0  0  0
 30 28  1  0  0  0  0
M  END
>  <MODEL>
6

>  <REMARK>
 VINA RESULT:      -3.7      2.481      6.554
  Name = 
  2 active torsions:
  status: ('A' for Active; 'I' for Inactive)
    1  A    between atoms: C_6  and  C_8
    2  A    between atoms: C_27  and  C_30
                            x       y       z     vdW  Elec       q    Type
                         _______ _______ _______ _____ _____    ______ ____

>  <TORSDO>
F 2

$$$$
=
 OpenBabel10272414003D

 30 35  0  0  1  0  0  0  0  0999 V2000
  182.6040  177.3590  136.6170 C   0  0  1  0  0  3  0  0  0  0  0  0
  182.7370  174.6840  134.6800 C   0  0  1  0  0  3  0  0  0  0  0  0
  184.5070  173.6350  138.0930 O   0  0  0  0  0  1  0  0  0  0  0  0
  181.7370  178.0050  137.6990 C   0  0  2  0  0  3  0  0  0  0  0  0
  183.5640  176.3520  137.2330 C   0  0  1  0  0  3  0  0  0  0  0  0
  183.6350  178.1700  139.2900 C   0  0  2  0  0  3  0  0  0  0  0  0
  180.0440  177.6630  139.5710 C   0  0  0  0  0  2  0  0  0  0  0  0
  181.0050  174.8450  139.6570 O   0  0  0  0  0  1  0  0  0  0  0  0
  184.8160  177.2810  138.1670 S   0  0  0  0  0  0  0  0  0  0  0  0
  182.5680  178.8950  138.5500 N   0  0  2  0  0  0  0  0  0  0  0  0
  182.3520  173.2560  134.3490 C   0  0  0  0  0  2  0  0  0  0  0  0
  180.7820  178.7560  140.2730 C   0  0  0  0  0  0  0  0  0  0  0  0
  181.5400  175.4220  135.2700 C   0  0  0  0  0  2  0  0  0  0  0  0
  182.8210  175.3570  138.1380 C   0  0  2  0  0  3  0  0  0  0  0  0
  183.2600  173.5190  135.5310 C   0  0  2  0  0  3  0  0  0  0  0  0
  181.8420  176.9150  135.3570 C   0  0  0  0  0  2  0  0  0  0  0  0
  179.9890  176.3520  137.6210 O   0  0  0  0  0  1  0  0  0  0  0  0
  181.7800  175.8870  139.1370 C   0  0  1  0  0  3  0  0  0  0  0  0
  180.8860  176.9670  138.4970 C   0  0  1  0  0  0  0  0  0  0  0  0
  180.4320  179.0930  141.4580 N   0  0  0  0  0  2  0  0  0  0  0  0
  183.1300  173.8660  138.0540 C   0  0  1  0  0  3  0  0  0  0  0  0
  182.4900  173.2270  136.8220 C   0  0  0  0  0  2  0  0  0  0  0  0
  181.7120  179.6440  139.4880 C   0  0  2  0  0  3  0  0  0  0  0  0
  184.3200  179.0690  140.3570 C   0  0  2  0  0  3  0  0  0  0  0  0
  185.3160  178.2880  141.1920 C   0  0  1  0  0  3  0  0  0  0  0  0
  186.4050  179.2310  141.6570 C   0  0  0  0  0  1  0  0  0  0  0  0
  183.9900  178.7180  141.7940 C   0  0  0  0  0  2  0  0  0  0  0  0
  182.0240  181.8200  138.5150 O   0  0  0  0  0  1  0  0  0  0  0  0
  179.9830  181.5090  139.7070 C   0  0  0  0  0  1  0  0  0  0  0  0
  181.0550  180.8700  138.8370 C   0  0  2  0  0  3  0  0  0  0  0  0
  1 16  1  6  0  0  0
  1  5  1  0  0  0  0
  1  4  1  0  0  0  0
  2 11  1  6  0  0  0
  2 13  1  0  0  0  0
  2 15  1  0  0  0  0
  4 19  1  0  0  0  0
  4 10  1  0  0  0  0
  5 14  1  0  0  0  0
  5  9  1  0  0  0  0
  6 24  1  0  0  0  0
  7 12  1  0  0  0  0
  9  6  1  0  0  0  0
 10  6  1  0  0  0  0
 10 23  1  0  0  0  0
 11 15  1  0  0  0  0
 12 20  2  0  0  0  0
 13 16  1  0  0  0  0
 14 18  1  0  0  0  0
 15 22  1  0  0  0  0
 17 19  1  0  0  0  0
 18  8  1  0  0  0  0
 19 18  1  0  0  0  0
 19  7  1  0  0  0  0
 21  3  1  0  0  0  0
 21 14  1  0  0  0  0
 22 21  1  0  0  0  0
 23 12  1  0  0  0  0
 24 25  1  0  0  0  0
 24 27  1  0  0  0  0
 25 26  1  0  0  0  0
 25 27  1  0  0  0  0
 28 30  1  0  0  0  0
 30 23  1  0  0  0  0
 30 29  1  0  0  0  0
M  END
>  <MODEL>
7

>  <REMARK>
 VINA RESULT:      -3.7      9.163     11.155
  Name = 
  2 active torsions:
  status: ('A' for Active; 'I' for Inactive)
    1  A    between atoms: C_6  and  C_8
    2  A    between atoms: C_27  and  C_30
                            x       y       z     vdW  Elec       q    Type
                         _______ _______ _______ _____ _____    ______ ____

>  <TORSDO>
F 2

$$$$
=
 OpenBabel10272414003D

 30 35  0  0  1  0  0  0  0  0999 V2000
  194.8410  172.5660  137.2860 C   0  0  1  0  0  3  0  0  0  0  0  0
  191.7190  173.6070  136.9750 C   0  0  1  0  0  3  0  0  0  0  0  0
  193.8880  176.8820  137.6510 O   0  0  0  0  0  1  0  0  0  0  0  0
  196.1110  172.3460  136.4630 C   0  0  2  0  0  3  0  0  0  0  0  0
  194.7540  174.0100  137.7590 C   0  0  1  0  0  3  0  0  0  0  0  0
  197.4790  173.7590  137.9760 C   0  0  2  0  0  3  0  0  0  0  0  0
  197.4760  173.0100  134.4170 C   0  0  0  0  0  2  0  0  0  0  0  0
  195.9180  175.5480  134.4460 O   0  0  0  0  0  1  0  0  0  0  0  0
  196.0310  174.2530  139.0270 S   0  0  0  0  0  0  0  0  0  0  0  0
  197.3050  172.4250  137.3430 N   0  0  2  0  0  0  0  0  0  0  0  0
  190.6360  174.3800  136.2490 C   0  0  0  0  0  2  0  0  0  0  0  0
  198.6650  172.8200  135.3000 C   0  0  0  0  0  0  0  0  0  0  0  0
  192.6440  172.9350  135.9680 C   0  0  0  0  0  2  0  0  0  0  0  0
  194.9370  174.9890  136.5890 C   0  0  2  0  0  3  0  0  0  0  0  0
  191.7410  175.1420  136.9480 C   0  0  2  0  0  3  0  0  0  0  0  0
  193.5650  171.9510  136.6840 C   0  0  0  0  0  2  0  0  0  0  0  0
  195.1280  172.9370  134.3460 O   0  0  0  0  0  1  0  0  0  0  0  0
  196.0760  174.7510  135.5840 C   0  0  1  0  0  3  0  0  0  0  0  0
  196.1840  173.2620  135.2000 C   0  0  1  0  0  0  0  0  0  0  0  0
  199.8350  173.0760  134.8460 N   0  0  0  0  0  2  0  0  0  0  0  0
  194.0100  176.1910  136.4440 C   0  0  1  0  0  3  0  0  0  0  0  0
  192.6440  175.7840  135.8910 C   0  0  0  0  0  2  0  0  0  0  0  0
  198.5170  172.0530  136.5890 C   0  0  2  0  0  3  0  0  0  0  0  0
  198.8580  173.8940  138.6810 C   0  0  2  0  0  3  0  0  0  0  0  0
  198.9740  175.2020  139.4400 C   0  0  1  0  0  3  0  0  0  0  0  0
  199.9090  175.0030  140.6130 C   0  0  0  0  0  1  0  0  0  0  0  0
  199.7430  175.0030  138.1460 C   0  0  0  0  0  2  0  0  0  0  0  0
  198.0270  169.8890  137.5130 O   0  0  0  0  0  1  0  0  0  0  0  0
  200.1530  170.0980  136.4550 C   0  0  0  0  0  1  0  0  0  0  0  0
  198.6950  170.5320  136.4720 C   0  0  2  0  0  3  0  0  0  0  0  0
  1 16  1  6  0  0  0
  1  5  1  0  0  0  0
  2 13  1  6  0  0  0
  4  1  1  0  0  0  0
  4 10  1  0  0  0  0
  5  9  1  0  0  0  0
  6 24  1  0  0  0  0
  6  9  1  0  0  0  0
  7 19  1  0  0  0  0
  7 12  1  0  0  0  0
  8 18  1  0  0  0  0
 10  6  1  0  0  0  0
 11 15  1  0  0  0  0
 11  2  1  0  0  0  0
 12 23  1  0  0  0  0
 13 16  1  0  0  0  0
 14  5  1  0  0  0  0
 15  2  1  0  0  0  0
 17 19  1  0  0  0  0
 18 14  1  0  0  0  0
 19 18  1  0  0  0  0
 19  4  1  0  0  0  0
 20 12  2  0  0  0  0
 21 14  1  0  0  0  0
 21  3  1  0  0  0  0
 22 21  1  0  0  0  0
 22 15  1  0  0  0  0
 23 10  1  0  0  0  0
 24 25  1  0  0  0  0
 25 26  1  0  0  0  0
 27 24  1  0  0  0  0
 27 25  1  0  0  0  0
 29 30  1  0  0  0  0
 30 23  1  0  0  0  0
 30 28  1  0  0  0  0
M  END
>  <MODEL>
8

>  <REMARK>
 VINA RESULT:      -3.5      3.467      7.294
  Name = 
  2 active torsions:
  status: ('A' for Active; 'I' for Inactive)
    1  A    between atoms: C_6  and  C_8
    2  A    between atoms: C_27  and  C_30
                            x       y       z     vdW  Elec       q    Type
                         _______ _______ _______ _____ _____    ______ ____

>  <TORSDO>
F 2

$$$$
=
 OpenBabel10272414003D

 30 35  0  0  1  0  0  0  0  0999 V2000
  188.3850  174.5570  137.3050 C   0  0  1  0  0  3  0  0  0  0  0  0
  185.2260  175.5230  137.1710 C   0  0  1  0  0  3  0  0  0  0  0  0
  187.3370  178.8270  137.8860 O   0  0  0  0  0  1  0  0  0  0  0  0
  189.6230  174.4050  136.4200 C   0  0  2  0  0  3  0  0  0  0  0  0
  188.2810  175.9780  137.8390 C   0  0  1  0  0  3  0  0  0  0  0  0
  191.0190  175.7940  137.9300 C   0  0  2  0  0  3  0  0  0  0  0  0
  190.8790  175.1860  134.3460 C   0  0  0  0  0  2  0  0  0  0  0  0
  189.2590  177.6780  134.5450 O   0  0  0  0  0  1  0  0  0  0  0  0
  189.6070  176.2070  139.0610 S   0  0  0  0  0  0  0  0  0  0  0  0
  190.8520  174.4810  137.2500 N   0  0  2  0  0  0  0  0  0  0  0  0
  184.0930  176.2930  136.5230 C   0  0  0  0  0  2  0  0  0  0  0  0
  192.1110  174.9940  135.1690 C   0  0  0  0  0  0  0  0  0  0  0  0
  186.1230  174.9170  136.0980 C   0  0  0  0  0  2  0  0  0  0  0  0
  188.3880  177.0080  136.7030 C   0  0  2  0  0  3  0  0  0  0  0  0
  185.2080  177.0580  137.2040 C   0  0  2  0  0  3  0  0  0  0  0  0
  187.1000  173.9320  136.7330 C   0  0  0  0  0  2  0  0  0  0  0  0
  188.5330  175.0510  134.3730 O   0  0  0  0  0  1  0  0  0  0  0  0
  189.4870  176.8410  135.6420 C   0  0  1  0  0  3  0  0  0  0  0  0
  189.6170  175.3720  135.1930 C   0  0  1  0  0  0  0  0  0  0  0  0
  193.2520  175.3010  134.6760 N   0  0  0  0  0  2  0  0  0  0  0  0
  187.4250  178.1880  136.6470 C   0  0  1  0  0  3  0  0  0  0  0  0
  186.0470  177.7660  136.1370 C   0  0  0  0  0  2  0  0  0  0  0  0
  192.0390  174.1730  136.4310 C   0  0  2  0  0  3  0  0  0  0  0  0
  192.4240  175.9400  138.5790 C   0  0  2  0  0  3  0  0  0  0  0  0
  192.6250  177.3190  139.1760 C   0  0  1  0  0  3  0  0  0  0  0  0
  193.5850  177.2100  140.3410 C   0  0  0  0  0  1  0  0  0  0  0  0
  193.3440  176.9310  137.8960 C   0  0  0  0  0  2  0  0  0  0  0  0
  193.5530  172.3150  136.6030 O   0  0  0  0  0  1  0  0  0  0  0  0
  191.9660  172.1880  134.8280 C   0  0  0  0  0  1  0  0  0  0  0  0
  192.2510  172.6640  136.2440 C   0  0  2  0  0  3  0  0  0  0  0  0
  1 16  1  6  0  0  0
  1  5  1  0  0  0  0
  2 13  1  6  0  0  0
  2 15  1  0  0  0  0
  4 10  1  0  0  0  0
  4  1  1  0  0  0  0
  5  9  1  0  0  0  0
  6 24  1  0  0  0  0
  6  9  1  0  0  0  0
  7 12  1  0  0  0  0
  7 19  1  0  0  0  0
  8 18  1  0  0  0  0
 10  6  1  0  0  0  0
 11  2  1  0  0  0  0
 11 15  1  0  0  0  0
 12 23  1  0  0  0  0
 13 16  1  0  0  0  0
 14  5  1  0  0  0  0
 17 19  1  0  0  0  0
 18 14  1  0  0  0  0
 19 18  1  0  0  0  0
 19  4  1  0  0  0  0
 20 12  2  0  0  0  0
 21 14  1  0  0  0  0
 21  3  1  0  0  0  0
 22 21  1  0  0  0  0
 22 15  1  0  0  0  0
 23 10  1  0  0  0  0
 24 25  1  0  0  0  0
 25 26  1  0  0  0  0
 27 24  1  0  0  0  0
 27 25  1  0  0  0  0
 29 30  1  0  0  0  0
 30 23  1  0  0  0  0
 30 28  1  0  0  0  0
M  END
>  <MODEL>
9

>  <REMARK>
 VINA RESULT:      -3.4      2.648      6.751
  Name = 
  2 active torsions:
  status: ('A' for Active; 'I' for Inactive)
    1  A    between atoms: C_6  and  C_8
    2  A    between atoms: C_27  and  C_30
                            x       y       z     vdW  Elec       q    Type
                         _______ _______ _______ _____ _____    ______ ____

>  <TORSDO>
F 2

$$$$
