=
 OpenBabel10272413113D

 32 37  0  0  1  0  0  0  0  0999 V2000
  187.0570  178.3070  141.8800 C   0  0  0  0  0  0  0  0  0  0  0  0
  188.5350  177.5080  143.8170 C   0  0  1  0  0  3  0  0  0  0  0  0
  186.8860  178.6080  140.5220 C   0  0  0  0  0  3  0  0  0  0  0  0
  188.2640  177.6890  142.3200 C   0  0  0  0  0  0  0  0  0  0  0  0
  189.8850  178.0900  144.3060 C   0  0  2  0  0  3  0  0  0  0  0  0
  186.9210  178.4790  148.5190 C   0  0  0  0  0  2  0  0  0  0  0  0
  187.4530  178.1490  144.7060 C   0  0  1  0  0  3  0  0  0  0  0  0
  189.2630  177.6430  148.1000 C   0  0  0  0  0  2  0  0  0  0  0  0
  189.0030  178.1400  146.6720 C   0  0  1  0  0  3  0  0  0  0  0  0
  191.1140  177.6950  143.4980 C   0  0  2  0  0  3  0  0  0  0  0  0
  189.1510  177.1730  141.3320 C   0  0  0  0  0  0  0  0  0  0  0  0
  190.1220  177.6560  145.7540 C   0  0  0  0  0  2  0  0  0  0  0  0
  190.2780  176.2050  141.5900 C   0  0  0  0  0  2  0  0  0  0  0  0
  188.9260  177.4590  139.9830 C   0  0  0  0  0  3  0  0  0  0  0  0
  186.0700  177.8870  144.1520 C   0  0  0  0  0  2  0  0  0  0  0  0
  191.4020  178.6430  142.5120 O   0  0  0  0  0  1  0  0  0  0  0  0
  185.9510  178.6700  142.8530 C   0  0  2  0  0  3  0  0  0  0  0  0
  187.6180  177.7050  146.1620 C   0  0  1  0  0  3  0  0  0  0  0  0
  191.0020  176.2860  142.9320 C   0  0  0  0  0  2  0  0  0  0  0  0
  187.8220  178.2000  139.5800 C   0  0  0  0  0  3  0  0  0  0  0  0
  187.9840  177.4640  148.9270 C   0  0  0  0  0  2  0  0  0  0  0  0
  186.5100  178.2980  147.0510 C   0  0  0  0  0  2  0  0  0  0  0  0
  182.1820  178.8730  142.3790 C   0  0  0  0  0  0  0  0  0  0  0  0
  180.9780  179.4410  143.0470 C   0  0  0  0  0  1  0  0  0  0  0  0
  184.5710  178.4930  142.2790 C   0  0  0  0  0  0  0  0  0  0  0  0
  182.0340  178.1830  141.2170 N   0  0  0  0  0  0  0  0  0  0  0  0
  184.3840  177.7870  141.0840 C   0  0  0  0  0  3  0  0  0  0  0  0
  183.4590  179.0430  142.9350 C   0  0  0  0  0  0  0  0  0  0  0  0
  183.6220  179.7500  144.1230 O   0  0  0  0  0  1  0  0  0  0  0  0
  183.0970  177.6440  140.5620 C   0  0  0  0  0  0  0  0  0  0  0  0
  184.1230  177.6980  138.1710 C   0  0  0  0  0  1  0  0  0  0  0  0
  182.8470  176.7440  139.0410 S   0  0  0  0  0  0  0  0  0  0  0  0
  1  4  1  0  0  0  0
  1 17  1  0  0  0  0
  2  4  1  6  0  0  0
  2  5  1  0  0  0  0
  2  7  1  0  0  0  0
  3  1  2  0  0  0  0
  5 12  1  1  0  0  0
  6 21  1  0  0  0  0
  7 15  1  6  0  0  0
  7 18  1  0  0  0  0
  8 21  1  0  0  0  0
  9 12  1  6  0  0  0
  9  8  1  0  0  0  0
 10 16  1  6  0  0  0
 10  5  1  0  0  0  0
 11 13  1  0  0  0  0
 11  4  2  0  0  0  0
 13 19  1  0  0  0  0
 14 11  1  0  0  0  0
 17 25  1  6  0  0  0
 17 15  1  0  0  0  0
 18  9  1  0  0  0  0
 18 22  1  1  0  0  0
 19 10  1  0  0  0  0
 20 14  2  0  0  0  0
 20  3  1  0  0  0  0
 22  6  1  0  0  0  0
 23 28  1  0  0  0  0
 23 24  1  0  0  0  0
 25 28  2  0  0  0  0
 26 23  2  0  0  0  0
 27 25  1  0  0  0  0
 28 29  1  0  0  0  0
 30 27  2  0  0  0  0
 30 26  1  0  0  0  0
 31 32  1  0  0  0  0
 32 30  1  0  0  0  0
M  END
>  <MODEL>
1

>  <REMARK>
 VINA RESULT:     -10.3      0.000      0.000
  Name = 
  2 active torsions:
  status: ('A' for Active; 'I' for Inactive)
    1  A    between atoms: S_15  and  C_26
    2  A    between atoms: C_16  and  C_27
                            x       y       z     vdW  Elec       q    Type
                         _______ _______ _______ _____ _____    ______ ____

>  <TORSDO>
F 2

$$$$
=
 OpenBabel10272413113D

 32 37  0  0  1  0  0  0  0  0999 V2000
  189.6210  178.0780  143.7250 C   0  0  0  0  0  0  0  0  0  0  0  0
  187.5050  177.7630  145.1380 C   0  0  1  0  0  3  0  0  0  0  0  0
  191.0170  178.1420  143.6190 C   0  0  0  0  0  3  0  0  0  0  0  0
  189.0240  177.6760  144.9550 C   0  0  0  0  0  0  0  0  0  0  0  0
  187.0470  178.5630  146.3830 C   0  0  2  0  0  3  0  0  0  0  0  0
  183.1160  179.2680  143.1080 C   0  0  0  0  0  2  0  0  0  0  0  0
  186.7910  178.4090  143.9370 C   0  0  1  0  0  3  0  0  0  0  0  0
  183.2690  178.6460  145.5470 C   0  0  0  0  0  2  0  0  0  0  0  0
  184.7700  178.8820  145.3380 C   0  0  1  0  0  3  0  0  0  0  0  0
  187.7150  178.1870  147.7000 C   0  0  2  0  0  3  0  0  0  0  0  0
  189.8660  177.1160  145.9570 C   0  0  0  0  0  0  0  0  0  0  0  0
  185.5370  178.3890  146.5620 C   0  0  0  0  0  2  0  0  0  0  0  0
  189.3960  176.3330  147.1570 C   0  0  0  0  0  2  0  0  0  0  0  0
  191.2540  177.1600  145.7990 C   0  0  0  0  0  3  0  0  0  0  0  0
  187.3660  177.9100  142.6300 C   0  0  0  0  0  2  0  0  0  0  0  0
  188.8250  178.9950  147.9570 O   0  0  0  0  0  1  0  0  0  0  0  0
  188.7800  178.4620  142.5220 C   0  0  2  0  0  3  0  0  0  0  0  0
  185.2750  178.2190  144.0440 C   0  0  1  0  0  3  0  0  0  0  0  0
  188.0490  176.7030  147.7730 C   0  0  0  0  0  2  0  0  0  0  0  0
  191.8300  177.7000  144.6550 C   0  0  0  0  0  3  0  0  0  0  0  0
  182.4920  178.4560  144.2380 C   0  0  0  0  0  2  0  0  0  0  0  0
  184.5540  178.8150  142.8210 C   0  0  0  0  0  2  0  0  0  0  0  0
  189.2130  177.6920  138.8220 C   0  0  0  0  0  0  0  0  0  0  0  0
  188.4320  177.7160  137.5540 C   0  0  0  0  0  1  0  0  0  0  0  0
  189.3890  178.0430  141.2110 C   0  0  0  0  0  0  0  0  0  0  0  0
  190.5120  177.2900  138.7950 N   0  0  0  0  0  0  0  0  0  0  0  0
  190.7240  177.6230  141.1490 C   0  0  0  0  0  3  0  0  0  0  0  0
  188.6240  178.0790  140.0350 C   0  0  0  0  0  0  0  0  0  0  0  0
  187.2960  178.4950  140.0720 O   0  0  0  0  0  1  0  0  0  0  0  0
  191.2730  177.2510  139.9220 C   0  0  0  0  0  0  0  0  0  0  0  0
  192.8720  176.4190  138.0440 C   0  0  0  0  0  1  0  0  0  0  0  0
  192.9730  176.7110  139.8320 S   0  0  0  0  0  0  0  0  0  0  0  0
  1  4  1  0  0  0  0
  2  4  1  6  0  0  0
  2  5  1  0  0  0  0
  3  1  2  0  0  0  0
  3 20  1  0  0  0  0
  4 11  2  0  0  0  0
  5 12  1  1  0  0  0
  5 10  1  0  0  0  0
  6 21  1  0  0  0  0
  7 15  1  6  0  0  0
  7 18  1  0  0  0  0
  7  2  1  0  0  0  0
  9  8  1  1  0  0  0
  9 12  1  0  0  0  0
 10 19  1  0  0  0  0
 10 16  1  6  0  0  0
 11 13  1  0  0  0  0
 13 19  1  0  0  0  0
 14 11  1  0  0  0  0
 17 25  1  6  0  0  0
 17 15  1  0  0  0  0
 17  1  1  0  0  0  0
 18 22  1  6  0  0  0
 18  9  1  0  0  0  0
 20 14  2  0  0  0  0
 21  8  1  0  0  0  0
 22  6  1  0  0  0  0
 23 28  1  0  0  0  0
 24 23  1  0  0  0  0
 26 23  2  0  0  0  0
 26 30  1  0  0  0  0
 27 25  1  0  0  0  0
 28 29  1  0  0  0  0
 28 25  2  0  0  0  0
 30 27  2  0  0  0  0
 31 32  1  0  0  0  0
 32 30  1  0  0  0  0
M  END
>  <MODEL>
2

>  <REMARK>
 VINA RESULT:     -10.0      3.098      5.953
  Name = 
  2 active torsions:
  status: ('A' for Active; 'I' for Inactive)
    1  A    between atoms: S_15  and  C_26
    2  A    between atoms: C_16  and  C_27
                            x       y       z     vdW  Elec       q    Type
                         _______ _______ _______ _____ _____    ______ ____

>  <TORSDO>
F 2

$$$$
=
 OpenBabel10272413113D

 32 37  0  0  1  0  0  0  0  0999 V2000
  188.7970  178.0550  141.0830 C   0  0  0  0  0  0  0  0  0  0  0  0
  188.7220  177.4590  143.5760 C   0  0  1  0  0  3  0  0  0  0  0  0
  189.5150  178.2200  139.8910 C   0  0  0  0  0  3  0  0  0  0  0  0
  189.4400  177.4880  142.2220 C   0  0  0  0  0  0  0  0  0  0  0  0
  189.5180  178.0900  144.7450 C   0  0  2  0  0  3  0  0  0  0  0  0
  184.6200  178.8870  146.1800 C   0  0  0  0  0  2  0  0  0  0  0  0
  187.3630  178.1810  143.5520 C   0  0  1  0  0  3  0  0  0  0  0  0
  186.6700  178.0210  147.3660 C   0  0  0  0  0  2  0  0  0  0  0  0
  187.3730  178.3730  146.0480 C   0  0  1  0  0  3  0  0  0  0  0  0
  190.9580  177.6200  144.9030 C   0  0  2  0  0  3  0  0  0  0  0  0
  190.7140  176.8790  142.0380 C   0  0  0  0  0  0  0  0  0  0  0  0
  188.7890  177.8030  146.0590 C   0  0  0  0  0  2  0  0  0  0  0  0
  191.3850  175.9450  143.0130 C   0  0  0  0  0  2  0  0  0  0  0  0
  191.3830  177.0280  140.8200 C   0  0  0  0  0  3  0  0  0  0  0  0
  186.6000  177.8610  142.2860 C   0  0  0  0  0  2  0  0  0  0  0  0
  191.8460  178.4660  144.2340 O   0  0  0  0  0  1  0  0  0  0  0  0
  187.3510  178.5110  141.1320 C   0  0  2  0  0  3  0  0  0  0  0  0
  186.5710  177.8850  144.8290 C   0  0  1  0  0  3  0  0  0  0  0  0
  191.1340  176.1610  144.5040 C   0  0  0  0  0  2  0  0  0  0  0  0
  190.8060  177.7230  139.7640 C   0  0  0  0  0  3  0  0  0  0  0  0
  185.1450  177.9220  147.2370 C   0  0  0  0  0  2  0  0  0  0  0  0
  185.1880  178.5600  144.7930 C   0  0  0  0  0  2  0  0  0  0  0  0
  184.6220  178.5170  138.4830 C   0  0  0  0  0  0  0  0  0  0  0  0
  183.2260  178.9980  138.2850 C   0  0  0  0  0  1  0  0  0  0  0  0
  186.6070  178.2730  139.8460 C   0  0  0  0  0  0  0  0  0  0  0  0
  185.2440  177.8520  137.4740 N   0  0  0  0  0  0  0  0  0  0  0  0
  187.2200  177.5910  138.7860 C   0  0  0  0  0  3  0  0  0  0  0  0
  185.2940  178.7420  139.6940 C   0  0  0  0  0  0  0  0  0  0  0  0
  184.6650  179.4240  140.7320 O   0  0  0  0  0  1  0  0  0  0  0  0
  186.5180  177.3920  137.5970 C   0  0  0  0  0  0  0  0  0  0  0  0
  188.7260  177.6300  136.2400 C   0  0  0  0  0  1  0  0  0  0  0  0
  187.2890  176.5220  136.2420 S   0  0  0  0  0  0  0  0  0  0  0  0
  1 17  1  0  0  0  0
  1  4  1  0  0  0  0
  2  4  1  6  0  0  0
  2  5  1  0  0  0  0
  3  1  2  0  0  0  0
  5 10  1  0  0  0  0
  5 12  1  1  0  0  0
  6 21  1  0  0  0  0
  7 15  1  6  0  0  0
  7  2  1  0  0  0  0
  7 18  1  0  0  0  0
  9 12  1  1  0  0  0
  9  8  1  0  0  0  0
 10 16  1  6  0  0  0
 11  4  2  0  0  0  0
 11 13  1  0  0  0  0
 13 19  1  0  0  0  0
 14 11  1  0  0  0  0
 17 25  1  6  0  0  0
 17 15  1  0  0  0  0
 18 22  1  6  0  0  0
 18  9  1  0  0  0  0
 19 10  1  0  0  0  0
 20  3  1  0  0  0  0
 20 14  2  0  0  0  0
 21  8  1  0  0  0  0
 22  6  1  0  0  0  0
 23 28  1  0  0  0  0
 24 23  1  0  0  0  0
 26 30  1  0  0  0  0
 26 23  2  0  0  0  0
 27 25  1  0  0  0  0
 28 25  2  0  0  0  0
 28 29  1  0  0  0  0
 30 27  2  0  0  0  0
 31 32  1  0  0  0  0
 32 30  1  0  0  0  0
M  END
>  <MODEL>
3

>  <REMARK>
 VINA RESULT:      -9.6      2.184      3.033
  Name = 
  2 active torsions:
  status: ('A' for Active; 'I' for Inactive)
    1  A    between atoms: S_15  and  C_26
    2  A    between atoms: C_16  and  C_27
                            x       y       z     vdW  Elec       q    Type
                         _______ _______ _______ _____ _____    ______ ____

>  <TORSDO>
F 2

$$$$
=
 OpenBabel10272413113D

 32 37  0  0  1  0  0  0  0  0999 V2000
  187.4560  178.4060  142.3010 C   0  0  0  0  0  0  0  0  0  0  0  0
  185.2660  178.1260  143.6040 C   0  0  1  0  0  3  0  0  0  0  0  0
  188.8530  178.5180  142.2750 C   0  0  0  0  0  3  0  0  0  0  0  0
  186.7950  178.0850  143.5220 C   0  0  0  0  0  0  0  0  0  0  0  0
  184.7010  179.0080  144.7450 C   0  0  2  0  0  3  0  0  0  0  0  0
  180.9650  179.2740  141.1870 C   0  0  0  0  0  2  0  0  0  0  0  0
  184.6080  178.6380  142.3100 C   0  0  1  0  0  3  0  0  0  0  0  0
  180.9830  178.8670  143.6760 C   0  0  0  0  0  2  0  0  0  0  0  0
  182.4860  179.1450  143.5390 C   0  0  1  0  0  3  0  0  0  0  0  0
  185.2950  178.7720  146.1280 C   0  0  2  0  0  3  0  0  0  0  0  0
  187.5910  177.6460  144.6180 C   0  0  0  0  0  0  0  0  0  0  0  0
  183.1900  178.7880  144.8460 C   0  0  0  0  0  2  0  0  0  0  0  0
  187.0720  176.9480  145.8510 C   0  0  0  0  0  2  0  0  0  0  0  0
  188.9840  177.7330  144.5420 C   0  0  0  0  0  3  0  0  0  0  0  0
  185.2830  178.0550  141.0890 C   0  0  0  0  0  2  0  0  0  0  0  0
  186.3570  179.6430  146.3810 O   0  0  0  0  0  1  0  0  0  0  0  0
  186.6810  178.6530  141.0200 C   0  0  2  0  0  3  0  0  0  0  0  0
  183.0960  178.3960  142.3410 C   0  0  1  0  0  3  0  0  0  0  0  0
  185.6760  177.3140  146.3490 C   0  0  0  0  0  2  0  0  0  0  0  0
  189.6120  178.1980  143.3930 C   0  0  0  0  0  3  0  0  0  0  0  0
  180.3000  178.5360  142.3440 C   0  0  0  0  0  2  0  0  0  0  0  0
  182.4340  178.8580  141.0290 C   0  0  0  0  0  2  0  0  0  0  0  0
  187.5070  177.8920  137.3860 C   0  0  0  0  0  0  0  0  0  0  0  0
  186.9450  178.0970  136.0220 C   0  0  0  0  0  1  0  0  0  0  0  0
  187.3870  178.1500  139.7890 C   0  0  0  0  0  0  0  0  0  0  0  0
  188.6920  177.2410  137.5240 N   0  0  0  0  0  0  0  0  0  0  0  0
  188.6100  177.4750  139.8980 C   0  0  0  0  0  3  0  0  0  0  0  0
  186.8280  178.3620  138.5200 C   0  0  0  0  0  0  0  0  0  0  0  0
  185.6150  179.0320  138.3880 O   0  0  0  0  0  1  0  0  0  0  0  0
  189.2540  177.0270  138.7450 C   0  0  0  0  0  0  0  0  0  0  0  0
  191.4240  177.2880  140.1580 C   0  0  0  0  0  1  0  0  0  0  0  0
  190.8120  176.1630  138.8710 S   0  0  0  0  0  0  0  0  0  0  0  0
  1  4  1  0  0  0  0
  2  4  1  6  0  0  0
  2  5  1  0  0  0  0
  3  1  2  0  0  0  0
  3 20  1  0  0  0  0
  4 11  2  0  0  0  0
  5 12  1  1  0  0  0
  5 10  1  0  0  0  0
  6 21  1  0  0  0  0
  7 15  1  6  0  0  0
  7 18  1  0  0  0  0
  7  2  1  0  0  0  0
  9  8  1  1  0  0  0
  9 12  1  0  0  0  0
 10 19  1  0  0  0  0
 10 16  1  6  0  0  0
 11 13  1  0  0  0  0
 13 19  1  0  0  0  0
 14 11  1  0  0  0  0
 17 25  1  6  0  0  0
 17 15  1  0  0  0  0
 17  1  1  0  0  0  0
 18 22  1  6  0  0  0
 18  9  1  0  0  0  0
 20 14  2  0  0  0  0
 21  8  1  0  0  0  0
 22  6  1  0  0  0  0
 23 26  2  0  0  0  0
 23 28  1  0  0  0  0
 24 23  1  0  0  0  0
 25 27  1  0  0  0  0
 26 30  1  0  0  0  0
 28 25  2  0  0  0  0
 29 28  1  0  0  0  0
 30 32  1  0  0  0  0
 30 27  2  0  0  0  0
 32 31  1  0  0  0  0
M  END
>  <MODEL>
4

>  <REMARK>
 VINA RESULT:      -9.4      2.801      6.184
  Name = 
  2 active torsions:
  status: ('A' for Active; 'I' for Inactive)
    1  A    between atoms: S_15  and  C_26
    2  A    between atoms: C_16  and  C_27
                            x       y       z     vdW  Elec       q    Type
                         _______ _______ _______ _____ _____    ______ ____

>  <TORSDO>
F 2

$$$$
=
 OpenBabel10272413113D

 32 37  0  0  1  0  0  0  0  0999 V2000
  184.4130  179.0600  142.3860 C   0  0  0  0  0  0  0  0  0  0  0  0
  182.1960  178.4600  141.2470 C   0  0  1  0  0  3  0  0  0  0  0  0
  185.1240  179.5220  143.5020 C   0  0  0  0  0  3  0  0  0  0  0  0
  183.0160  178.8020  142.4950 C   0  0  0  0  0  0  0  0  0  0  0  0
  180.9510  179.3550  141.0240 C   0  0  2  0  0  3  0  0  0  0  0  0
  182.2270  178.0110  136.2020 C   0  0  0  0  0  2  0  0  0  0  0  0
  183.0160  178.5470  139.9470 C   0  0  1  0  0  3  0  0  0  0  0  0
  180.0560  178.0710  137.4840 C   0  0  0  0  0  2  0  0  0  0  0  0
  180.9200  178.6990  138.5850 C   0  0  1  0  0  3  0  0  0  0  0  0
  180.0310  179.5300  142.2250 C   0  0  2  0  0  3  0  0  0  0  0  0
  182.4380  178.7850  143.7970 C   0  0  0  0  0  0  0  0  0  0  0  0
  180.1160  178.7740  139.8800 C   0  0  0  0  0  2  0  0  0  0  0  0
  181.0890  178.2080  144.1460 C   0  0  0  0  0  2  0  0  0  0  0  0
  183.1900  179.2140  144.8940 C   0  0  0  0  0  3  0  0  0  0  0  0
  184.3930  177.9500  140.1320 C   0  0  0  0  0  2  0  0  0  0  0  0
  180.3570  180.6770  142.9530 O   0  0  0  0  0  1  0  0  0  0  0  0
  185.1560  178.8670  141.0770 C   0  0  2  0  0  3  0  0  0  0  0  0
  182.2400  177.9330  138.7780 C   0  0  1  0  0  3  0  0  0  0  0  0
  179.9820  178.2830  143.0980 C   0  0  0  0  0  2  0  0  0  0  0  0
  184.5120  179.6140  144.7460 C   0  0  0  0  0  3  0  0  0  0  0  0
  180.8720  177.3440  136.4080 C   0  0  0  0  0  2  0  0  0  0  0  0
  183.0730  177.9670  137.4820 C   0  0  0  0  0  2  0  0  0  0  0  0
  188.7450  177.8290  140.3590 C   0  0  0  0  0  0  0  0  0  0  0  0
  189.7060  177.7610  139.2230 C   0  0  0  0  0  1  0  0  0  0  0  0
  186.5590  178.3530  141.2580 C   0  0  0  0  0  0  0  0  0  0  0  0
  189.1450  177.4250  141.5940 N   0  0  0  0  0  0  0  0  0  0  0  0
  187.0030  177.9280  142.5180 C   0  0  0  0  0  3  0  0  0  0  0  0
  187.4390  178.3040  140.1670 C   0  0  0  0  0  0  0  0  0  0  0  0
  187.0200  178.7230  138.9060 O   0  0  0  0  0  1  0  0  0  0  0  0
  188.3110  177.4670  142.6680 C   0  0  0  0  0  0  0  0  0  0  0  0
  190.0590  178.2990  144.4070 C   0  0  0  0  0  1  0  0  0  0  0  0
  188.8870  176.9200  144.2670 S   0  0  0  0  0  0  0  0  0  0  0  0
  1  4  2  0  0  0  0
  1  3  1  0  0  0  0
  2  4  1  1  0  0  0
  3 20  2  0  0  0  0
  4 11  1  0  0  0  0
  5 12  1  6  0  0  0
  5  2  1  0  0  0  0
  5 10  1  0  0  0  0
  6 21  1  0  0  0  0
  6 22  1  0  0  0  0
  7 15  1  1  0  0  0
  7  2  1  0  0  0  0
  9  8  1  6  0  0  0
  9 18  1  0  0  0  0
  9 12  1  0  0  0  0
 10 16  1  1  0  0  0
 10 19  1  0  0  0  0
 11 13  1  0  0  0  0
 11 14  2  0  0  0  0
 15 17  1  0  0  0  0
 17 25  1  1  0  0  0
 17  1  1  0  0  0  0
 18 22  1  6  0  0  0
 18  7  1  0  0  0  0
 19 13  1  0  0  0  0
 20 14  1  0  0  0  0
 21  8  1  0  0  0  0
 23 26  1  0  0  0  0
 24 23  1  0  0  0  0
 25 27  2  0  0  0  0
 26 30  2  0  0  0  0
 27 30  1  0  0  0  0
 28 23  2  0  0  0  0
 28 25  1  0  0  0  0
 29 28  1  0  0  0  0
 30 32  1  0  0  0  0
 32 31  1  0  0  0  0
M  END
>  <MODEL>
5

>  <REMARK>
 VINA RESULT:      -8.8      3.004      8.581
  Name = 
  2 active torsions:
  status: ('A' for Active; 'I' for Inactive)
    1  A    between atoms: S_15  and  C_26
    2  A    between atoms: C_16  and  C_27
                            x       y       z     vdW  Elec       q    Type
                         _______ _______ _______ _____ _____    ______ ____

>  <TORSDO>
F 2

$$$$
=
 OpenBabel10272413113D

 32 37  0  0  1  0  0  0  0  0999 V2000
  185.0310  178.7130  140.3210 C   0  0  0  0  0  0  0  0  0  0  0  0
  187.2590  177.8030  141.2030 C   0  0  1  0  0  3  0  0  0  0  0  0
  184.2420  179.1890  139.2650 C   0  0  0  0  0  3  0  0  0  0  0  0
  186.3200  178.1700  140.0500 C   0  0  0  0  0  0  0  0  0  0  0  0
  188.6650  178.4470  141.1250 C   0  0  2  0  0  3  0  0  0  0  0  0
  187.9800  177.8980  146.2160 C   0  0  0  0  0  2  0  0  0  0  0  0
  186.6950  178.1870  142.5830 C   0  0  1  0  0  3  0  0  0  0  0  0
  189.8840  177.3870  144.6430 C   0  0  0  0  0  2  0  0  0  0  0  0
  188.9790  178.0570  143.6010 C   0  0  1  0  0  3  0  0  0  0  0  0
  189.3910  178.3080  139.7930 C   0  0  2  0  0  3  0  0  0  0  0  0
  186.6620  177.9020  138.6940 C   0  0  0  0  0  0  0  0  0  0  0  0
  189.5580  177.8340  142.2060 C   0  0  0  0  0  2  0  0  0  0  0  0
  187.8070  177.0320  138.2370 C   0  0  0  0  0  2  0  0  0  0  0  0
  185.8300  178.3550  137.6670 C   0  0  0  0  0  3  0  0  0  0  0  0
  185.2200  177.8630  142.6770 C   0  0  0  0  0  2  0  0  0  0  0  0
  189.1630  179.4150  138.9710 O   0  0  0  0  0  1  0  0  0  0  0  0
  184.4910  178.8100  141.7350 C   0  0  2  0  0  3  0  0  0  0  0  0
  187.5280  177.5550  143.7020 C   0  0  1  0  0  3  0  0  0  0  0  0
  189.0670  176.9920  139.0970 C   0  0  0  0  0  2  0  0  0  0  0  0
  184.6450  179.0260  137.9450 C   0  0  0  0  0  3  0  0  0  0  0  0
  189.1390  176.9540  145.9110 C   0  0  0  0  0  2  0  0  0  0  0  0
  186.9410  177.8900  145.0870 C   0  0  0  0  0  2  0  0  0  0  0  0
  180.9120  178.7620  143.0210 C   0  0  0  0  0  0  0  0  0  0  0  0
  180.1220  179.1860  144.2110 C   0  0  0  0  0  1  0  0  0  0  0  0
  183.0080  178.5720  141.8260 C   0  0  0  0  0  0  0  0  0  0  0  0
  180.2770  178.1510  141.9860 N   0  0  0  0  0  0  0  0  0  0  0  0
  182.3240  177.9450  140.7760 C   0  0  0  0  0  3  0  0  0  0  0  0
  182.2950  178.9860  142.9610 C   0  0  0  0  0  0  0  0  0  0  0  0
  182.9540  179.6130  144.0160 O   0  0  0  0  0  1  0  0  0  0  0  0
  180.9470  177.7440  140.8740 C   0  0  0  0  0  0  0  0  0  0  0  0
  181.4530  175.8300  139.1850 C   0  0  0  0  0  1  0  0  0  0  0  0
  180.0650  176.9430  139.5430 S   0  0  0  0  0  0  0  0  0  0  0  0
  1 17  1  0  0  0  0
  2  4  1  6  0  0  0
  2  7  1  0  0  0  0
  3  1  2  0  0  0  0
  4  1  1  0  0  0  0
  5  2  1  0  0  0  0
  5 12  1  1  0  0  0
  7 15  1  6  0  0  0
  7 18  1  0  0  0  0
  8 21  1  0  0  0  0
  9 12  1  6  0  0  0
  9 18  1  0  0  0  0
  9  8  1  0  0  0  0
 10 16  1  6  0  0  0
 10  5  1  0  0  0  0
 11  4  2  0  0  0  0
 13 11  1  0  0  0  0
 13 19  1  0  0  0  0
 14 20  2  0  0  0  0
 14 11  1  0  0  0  0
 17 25  1  6  0  0  0
 17 15  1  0  0  0  0
 18 22  1  1  0  0  0
 19 10  1  0  0  0  0
 20  3  1  0  0  0  0
 21  6  1  0  0  0  0
 22  6  1  0  0  0  0
 23 24  1  0  0  0  0
 25 28  2  0  0  0  0
 26 23  2  0  0  0  0
 27 30  2  0  0  0  0
 27 25  1  0  0  0  0
 28 23  1  0  0  0  0
 28 29  1  0  0  0  0
 30 26  1  0  0  0  0
 31 32  1  0  0  0  0
 32 30  1  0  0  0  0
M  END
>  <MODEL>
6

>  <REMARK>
 VINA RESULT:      -8.6      1.638      2.932
  Name = 
  2 active torsions:
  status: ('A' for Active; 'I' for Inactive)
    1  A    between atoms: S_15  and  C_26
    2  A    between atoms: C_16  and  C_27
                            x       y       z     vdW  Elec       q    Type
                         _______ _______ _______ _____ _____    ______ ____

>  <TORSDO>
F 2

$$$$
=
 OpenBabel10272413113D

 32 37  0  0  1  0  0  0  0  0999 V2000
  187.8850  178.3090  140.7580 C   0  0  0  0  0  0  0  0  0  0  0  0
  188.5390  177.2780  138.5030 C   0  0  1  0  0  3  0  0  0  0  0  0
  186.9890  179.0420  141.5490 C   0  0  0  0  0  3  0  0  0  0  0  0
  187.5120  177.9290  139.4360 C   0  0  0  0  0  0  0  0  0  0  0  0
  188.7060  177.9800  137.1320 C   0  0  2  0  0  3  0  0  0  0  0  0
  193.3780  175.9110  137.8950 C   0  0  0  0  0  2  0  0  0  0  0  0
  189.9490  177.2090  139.1170 C   0  0  1  0  0  3  0  0  0  0  0  0
  191.7940  175.9770  135.9330 C   0  0  0  0  0  2  0  0  0  0  0  0
  190.9650  176.8850  136.8510 C   0  0  1  0  0  3  0  0  0  0  0  0
  187.4200  178.2750  136.3720 C   0  0  2  0  0  3  0  0  0  0  0  0
  186.1510  178.0920  139.0510 C   0  0  0  0  0  0  0  0  0  0  0  0
  189.5890  177.1130  136.2310 C   0  0  0  0  0  2  0  0  0  0  0  0
  185.4990  177.4500  137.8520 C   0  0  0  0  0  2  0  0  0  0  0  0
  185.2750  178.7930  139.8840 C   0  0  0  0  0  3  0  0  0  0  0  0
  189.8900  176.8060  140.5730 C   0  0  0  0  0  2  0  0  0  0  0  0
  186.9540  179.5650  136.6410 O   0  0  0  0  0  1  0  0  0  0  0  0
  189.2450  177.9570  141.3320 C   0  0  2  0  0  3  0  0  0  0  0  0
  190.8610  176.3110  138.2750 C   0  0  1  0  0  3  0  0  0  0  0  0
  186.3540  177.2130  136.6100 C   0  0  0  0  0  2  0  0  0  0  0  0
  185.6960  179.2960  141.1090 C   0  0  0  0  0  3  0  0  0  0  0  0
  192.8500  175.1530  136.6810 C   0  0  0  0  0  2  0  0  0  0  0  0
  192.2600  176.1930  138.9080 C   0  0  0  0  0  2  0  0  0  0  0  0
  190.3350  177.0440  144.8590 C   0  0  0  0  0  0  0  0  0  0  0  0
  191.5720  176.7140  145.6210 C   0  0  0  0  0  1  0  0  0  0  0  0
  189.2070  177.6370  142.8020 C   0  0  0  0  0  0  0  0  0  0  0  0
  189.1410  177.0640  145.5090 N   0  0  0  0  0  0  0  0  0  0  0  0
  187.9920  177.6490  143.5000 C   0  0  0  0  0  3  0  0  0  0  0  0
  190.3920  177.3310  143.4870 C   0  0  0  0  0  0  0  0  0  0  0  0
  191.6110  177.3150  142.8140 O   0  0  0  0  0  1  0  0  0  0  0  0
  187.9800  177.3610  144.8650 C   0  0  0  0  0  0  0  0  0  0  0  0
  187.2280  178.0010  147.2740 C   0  0  0  0  0  1  0  0  0  0  0  0
  186.4380  177.3710  145.7650 S   0  0  0  0  0  0  0  0  0  0  0  0
  1 17  1  0  0  0  0
  1  3  1  0  0  0  0
  2  7  1  0  0  0  0
  2  4  1  1  0  0  0
  4  1  2  0  0  0  0
  5 12  1  6  0  0  0
  5  2  1  0  0  0  0
  6 22  1  0  0  0  0
  7 15  1  1  0  0  0
  8 21  1  0  0  0  0
  9  8  1  6  0  0  0
  9 18  1  0  0  0  0
 10 19  1  0  0  0  0
 10 16  1  1  0  0  0
 10  5  1  0  0  0  0
 11  4  1  0  0  0  0
 11 14  2  0  0  0  0
 12  9  1  0  0  0  0
 13 11  1  0  0  0  0
 14 20  1  0  0  0  0
 15 17  1  0  0  0  0
 17 25  1  1  0  0  0
 18 22  1  1  0  0  0
 18  7  1  0  0  0  0
 19 13  1  0  0  0  0
 20  3  2  0  0  0  0
 21  6  1  0  0  0  0
 23 26  1  0  0  0  0
 23 24  1  0  0  0  0
 25 28  1  0  0  0  0
 25 27  2  0  0  0  0
 27 30  1  0  0  0  0
 28 23  2  0  0  0  0
 29 28  1  0  0  0  0
 30 26  2  0  0  0  0
 30 32  1  0  0  0  0
 32 31  1  0  0  0  0
M  END
>  <MODEL>
7

>  <REMARK>
 VINA RESULT:      -8.3      3.386      7.770
  Name = 
  2 active torsions:
  status: ('A' for Active; 'I' for Inactive)
    1  A    between atoms: S_15  and  C_26
    2  A    between atoms: C_16  and  C_27
                            x       y       z     vdW  Elec       q    Type
                         _______ _______ _______ _____ _____    ______ ____

>  <TORSDO>
F 2

$$$$
=
 OpenBabel10272413113D

 32 37  0  0  1  0  0  0  0  0999 V2000
  188.3020  177.2300  141.8790 C   0  0  0  0  0  0  0  0  0  0  0  0
  186.9190  178.2870  139.9970 C   0  0  1  0  0  3  0  0  0  0  0  0
  189.4780  176.6150  142.3290 C   0  0  0  0  0  3  0  0  0  0  0  0
  188.2450  177.7650  140.5600 C   0  0  0  0  0  0  0  0  0  0  0  0
  186.5030  177.6680  138.6390 C   0  0  2  0  0  3  0  0  0  0  0  0
  181.9420  178.8010  140.7840 C   0  0  0  0  0  2  0  0  0  0  0  0
  185.7300  178.0560  140.9480 C   0  0  1  0  0  3  0  0  0  0  0  0
  182.9350  179.1640  138.4940 C   0  0  0  0  0  2  0  0  0  0  0  0
  184.1090  178.3550  139.0620 C   0  0  1  0  0  3  0  0  0  0  0  0
  187.5700  177.6650  137.5520 C   0  0  2  0  0  3  0  0  0  0  0  0
  189.4620  177.8780  139.8300 C   0  0  0  0  0  0  0  0  0  0  0  0
  185.2890  178.4250  138.0960 C   0  0  0  0  0  2  0  0  0  0  0  0
  189.6640  178.7130  138.5900 C   0  0  0  0  0  2  0  0  0  0  0  0
  190.6270  177.2880  140.3300 C   0  0  0  0  0  3  0  0  0  0  0  0
  186.1120  178.3560  142.3800 C   0  0  0  0  0  2  0  0  0  0  0  0
  188.2840  176.4640  137.5430 O   0  0  0  0  0  1  0  0  0  0  0  0
  187.1070  177.2880  142.8130 C   0  0  2  0  0  3  0  0  0  0  0  0
  184.4990  178.8340  140.4720 C   0  0  1  0  0  3  0  0  0  0  0  0
  188.4820  178.8810  137.6380 C   0  0  0  0  0  2  0  0  0  0  0  0
  190.6300  176.6300  141.5530 C   0  0  0  0  0  3  0  0  0  0  0  0
  182.0030  179.7270  139.5740 C   0  0  0  0  0  2  0  0  0  0  0  0
  183.3190  178.6510  141.4440 C   0  0  0  0  0  2  0  0  0  0  0  0
  186.9270  178.2300  146.4930 C   0  0  0  0  0  0  0  0  0  0  0  0
  185.9670  178.8050  147.4780 C   0  0  0  0  0  1  0  0  0  0  0  0
  187.4850  177.5030  144.2530 C   0  0  0  0  0  0  0  0  0  0  0  0
  188.1740  177.8820  146.9080 N   0  0  0  0  0  0  0  0  0  0  0  0
  188.7630  177.1550  144.7110 C   0  0  0  0  0  3  0  0  0  0  0  0
  186.5560  178.0460  145.1530 C   0  0  0  0  0  0  0  0  0  0  0  0
  185.2800  178.3970  144.7200 O   0  0  0  0  0  1  0  0  0  0  0  0
  189.0900  177.3510  146.0540 C   0  0  0  0  0  0  0  0  0  0  0  0
  191.5190  177.5070  145.1320 C   0  0  0  0  0  1  0  0  0  0  0  0
  190.7160  176.9130  146.6480 S   0  0  0  0  0  0  0  0  0  0  0  0
  1  3  1  0  0  0  0
  1 17  1  0  0  0  0
  2  4  1  1  0  0  0
  2  7  1  0  0  0  0
  4  1  2  0  0  0  0
  5 12  1  6  0  0  0
  5  2  1  0  0  0  0
  6 22  1  0  0  0  0
  7 15  1  1  0  0  0
  8  9  1  0  0  0  0
  8 21  1  0  0  0  0
  9 12  1  6  0  0  0
  9 18  1  0  0  0  0
 10 16  1  1  0  0  0
 10 19  1  0  0  0  0
 10  5  1  0  0  0  0
 11 14  2  0  0  0  0
 11  4  1  0  0  0  0
 13 11  1  0  0  0  0
 14 20  1  0  0  0  0
 15 17  1  0  0  0  0
 17 25  1  1  0  0  0
 18  7  1  0  0  0  0
 18 22  1  1  0  0  0
 19 13  1  0  0  0  0
 20  3  2  0  0  0  0
 21  6  1  0  0  0  0
 23 26  1  0  0  0  0
 23 24  1  0  0  0  0
 25 27  2  0  0  0  0
 25 28  1  0  0  0  0
 27 30  1  0  0  0  0
 28 23  2  0  0  0  0
 29 28  1  0  0  0  0
 30 32  1  0  0  0  0
 30 26  2  0  0  0  0
 31 32  1  0  0  0  0
M  END
>  <MODEL>
8

>  <REMARK>
 VINA RESULT:      -8.2      2.996      6.560
  Name = 
  2 active torsions:
  status: ('A' for Active; 'I' for Inactive)
    1  A    between atoms: S_15  and  C_26
    2  A    between atoms: C_16  and  C_27
                            x       y       z     vdW  Elec       q    Type
                         _______ _______ _______ _____ _____    ______ ____

>  <TORSDO>
F 2

$$$$
=
 OpenBabel10272413113D

 32 37  0  0  1  0  0  0  0  0999 V2000
  186.9780  177.6850  142.5190 C   0  0  0  0  0  0  0  0  0  0  0  0
  187.6210  178.1000  144.9660 C   0  0  1  0  0  3  0  0  0  0  0  0
  186.0200  177.6780  141.4960 C   0  0  0  0  0  3  0  0  0  0  0  0
  186.6480  178.2370  143.7910 C   0  0  0  0  0  0  0  0  0  0  0  0
  187.0110  177.4750  146.2450 C   0  0  2  0  0  3  0  0  0  0  0  0
  191.9730  176.0830  146.5930 C   0  0  0  0  0  2  0  0  0  0  0  0
  188.8560  177.2450  144.6270 C   0  0  1  0  0  3  0  0  0  0  0  0
  190.3170  177.0720  148.2180 C   0  0  0  0  0  2  0  0  0  0  0  0
  189.3270  176.8850  147.0600 C   0  0  1  0  0  3  0  0  0  0  0  0
  185.6950  178.0780  146.7210 C   0  0  2  0  0  3  0  0  0  0  0  0
  185.4410  178.9840  143.9040 C   0  0  0  0  0  0  0  0  0  0  0  0
  188.0180  177.5950  147.3910 C   0  0  0  0  0  2  0  0  0  0  0  0
  185.0910  179.9140  145.0390 C   0  0  0  0  0  2  0  0  0  0  0  0
  184.5270  178.9880  142.8470 C   0  0  0  0  0  3  0  0  0  0  0  0
  189.3800  177.5700  143.2460 C   0  0  0  0  0  2  0  0  0  0  0  0
  184.6000  177.3760  146.2120 O   0  0  0  0  0  1  0  0  0  0  0  0
  188.3430  177.0820  142.2460 C   0  0  2  0  0  3  0  0  0  0  0  0
  189.9170  177.3700  145.7240 C   0  0  1  0  0  3  0  0  0  0  0  0
  185.6110  179.5720  146.4340 C   0  0  0  0  0  2  0  0  0  0  0  0
  184.7960  178.3120  141.6630 C   0  0  0  0  0  3  0  0  0  0  0  0
  191.7860  177.0220  147.7800 C   0  0  0  0  0  2  0  0  0  0  0  0
  191.1790  176.5600  145.3700 C   0  0  0  0  0  2  0  0  0  0  0  0
  190.5290  177.0920  139.1330 C   0  0  0  0  0  0  0  0  0  0  0  0
  191.8610  176.6080  138.6740 C   0  0  0  0  0  1  0  0  0  0  0  0
  188.8340  177.3290  140.8450 C   0  0  0  0  0  0  0  0  0  0  0  0
  189.7330  177.7680  138.2640 N   0  0  0  0  0  0  0  0  0  0  0  0
  188.0380  178.0230  139.9250 C   0  0  0  0  0  3  0  0  0  0  0  0
  190.0940  176.8580  140.4460 C   0  0  0  0  0  0  0  0  0  0  0  0
  190.9020  176.1640  141.3430 O   0  0  0  0  0  1  0  0  0  0  0  0
  188.5060  178.2320  138.6270 C   0  0  0  0  0  0  0  0  0  0  0  0
  186.0690  178.0380  137.7350 C   0  0  0  0  0  1  0  0  0  0  0  0
  187.5000  179.1170  137.4470 S   0  0  0  0  0  0  0  0  0  0  0  0
  1  4  1  0  0  0  0
  2  4  1  6  0  0  0
  2  5  1  0  0  0  0
  3 20  1  0  0  0  0
  3  1  2  0  0  0  0
  4 11  2  0  0  0  0
  5 10  1  0  0  0  0
  5 12  1  1  0  0  0
  6 21  1  0  0  0  0
  7 15  1  6  0  0  0
  7  2  1  0  0  0  0
  7 18  1  0  0  0  0
  9 12  1  1  0  0  0
  9  8  1  0  0  0  0
 10 16  1  6  0  0  0
 11 13  1  0  0  0  0
 13 19  1  0  0  0  0
 14 11  1  0  0  0  0
 17 25  1  6  0  0  0
 17  1  1  0  0  0  0
 17 15  1  0  0  0  0
 18 22  1  6  0  0  0
 18  9  1  0  0  0  0
 19 10  1  0  0  0  0
 20 14  2  0  0  0  0
 21  8  1  0  0  0  0
 22  6  1  0  0  0  0
 23 28  1  0  0  0  0
 24 23  1  0  0  0  0
 26 30  1  0  0  0  0
 26 23  2  0  0  0  0
 27 25  1  0  0  0  0
 28 25  2  0  0  0  0
 28 29  1  0  0  0  0
 30 27  2  0  0  0  0
 32 31  1  0  0  0  0
 32 30  1  0  0  0  0
M  END
>  <MODEL>
9

>  <REMARK>
 VINA RESULT:      -8.0      2.356      5.431
  Name = 
  2 active torsions:
  status: ('A' for Active; 'I' for Inactive)
    1  A    between atoms: S_15  and  C_26
    2  A    between atoms: C_16  and  C_27
                            x       y       z     vdW  Elec       q    Type
                         _______ _______ _______ _____ _____    ______ ____

>  <TORSDO>
F 2

$$$$
