=
 OpenBabel10272414343D

 43 47  0  0  1  0  0  0  0  0999 V2000
  191.4360  176.5100  147.1050 C   0  0  0  0  0  0  0  0  0  0  0  0
  187.4590  177.8570  144.2680 C   0  0  0  0  0  0  0  0  0  0  0  0
  189.2330  177.5730  142.6250 C   0  0  0  0  0  3  0  0  0  0  0  0
  189.2330  177.1630  146.3390 C   0  0  0  0  0  0  0  0  0  0  0  0
  191.9050  176.5330  145.7890 C   0  0  0  0  0  3  0  0  0  0  0  0
  192.3170  176.1650  148.1670 N   0  0  0  0  0  1  0  0  0  0  0  0
  189.6980  177.1890  145.0020 C   0  0  0  0  0  0  0  0  0  0  0  0
  190.1030  176.8230  147.3790 C   0  0  0  0  0  3  0  0  0  0  0  0
  191.0420  176.8700  144.7430 C   0  0  0  0  0  3  0  0  0  0  0  0
  188.3470  177.9160  141.6040 C   0  0  0  0  0  0  0  0  0  0  0  0
  188.8070  177.5370  143.9620 C   0  0  0  0  0  0  0  0  0  0  0  0
  187.0260  177.8190  145.6020 C   0  0  0  0  0  3  0  0  0  0  0  0
  186.5650  178.2170  143.2410 C   0  0  0  0  0  0  0  0  0  0  0  0
  187.0210  178.2370  141.9170 C   0  0  0  0  0  3  0  0  0  0  0  0
  187.9050  177.4750  146.6280 C   0  0  0  0  0  3  0  0  0  0  0  0
  188.8410  177.9780  140.1950 C   0  0  1  0  0  3  0  0  0  0  0  0
  190.2210  177.3570  140.0740 C   0  0  0  0  0  1  0  0  0  0  0  0
  187.9060  177.2880  139.3120 N   0  0  0  0  0  2  0  0  0  0  0  0
  188.4530  179.2210  138.1150 O   0  0  0  0  0  1  0  0  0  0  0  0
  187.6090  178.1060  138.1290 C   0  0  0  0  0  0  0  0  0  0  0  0
  186.2780  178.5340  138.1740 O   0  0  0  0  0  1  0  0  0  0  0  0
  187.8190  177.3260  136.8940 N   0  0  0  0  0  0  0  0  0  0  0  0
  185.7440  176.0120  137.3170 N   0  0  0  0  0  2  0  0  0  0  0  0
  186.9400  176.2360  136.5540 C   0  0  0  0  0  0  0  0  0  0  0  0
  187.2110  175.4950  135.5690 O   0  0  0  0  0  0  0  0  0  0  0  0
  184.8400  174.9050  137.1890 C   0  0  0  0  0  0  0  0  0  0  0  0
  182.5920  174.1110  136.7360 C   0  0  0  0  0  3  0  0  0  0  0  0
  184.3260  172.5350  137.3420 C   0  0  0  0  0  3  0  0  0  0  0  0
  183.0010  172.7970  136.9860 C   0  0  0  0  0  3  0  0  0  0  0  0
  185.2430  173.5860  137.4450 C   0  0  0  0  0  3  0  0  0  0  0  0
  183.5080  175.1600  136.8430 C   0  0  0  0  0  3  0  0  0  0  0  0
  188.9380  177.6250  135.9960 C   0  0  0  0  0  2  0  0  0  0  0  0
  190.6420  175.9030  135.3980 C   0  0  0  0  0  1  0  0  0  0  0  0
  190.1990  176.9030  136.4460 C   0  0  0  0  0  2  0  0  0  0  0  0
  185.1930  178.5170  143.5560 N   0  0  0  0  0  2  0  0  0  0  0  0
  182.9100  177.7810  140.5150 C   0  0  0  0  0  2  0  0  0  0  0  0
  181.8810  178.8520  140.8540 C   0  0  2  0  0  3  0  0  0  0  0  0
  182.8780  178.8570  143.1600 C   0  0  0  0  0  3  0  0  0  0  0  0
  184.2280  178.1070  141.2130 C   0  0  0  0  0  2  0  0  0  0  0  0
  184.0590  178.4470  142.6800 C   0  0  0  0  0  0  0  0  0  0  0  0
  181.6060  178.8250  142.3570 C   0  0  0  0  0  2  0  0  0  0  0  0
  180.5740  177.8400  139.1520 O   0  0  0  0  0  0  0  0  0  0  0  0
  180.6160  178.6310  140.0830 C   0  0  0  0  0  3  0  0  0  0  0  0
  1  8  1  0  0  0  0
  1  6  1  0  0  0  0
  2 12  1  0  0  0  0
  3 11  2  0  0  0  0
  4 15  1  0  0  0  0
  4  8  2  0  0  0  0
  5  1  2  0  0  0  0
  7  4  1  0  0  0  0
  9  7  2  0  0  0  0
  9  5  1  0  0  0  0
 10 14  2  0  0  0  0
 10  3  1  0  0  0  0
 11  2  1  0  0  0  0
 11  7  1  0  0  0  0
 12 15  2  0  0  0  0
 13 35  1  0  0  0  0
 13  2  2  0  0  0  0
 14 13  1  0  0  0  0
 16 17  1  1  0  0  0
 16 10  1  0  0  0  0
 18 16  1  0  0  0  0
 19 20  1  0  0  0  0
 20 21  1  0  0  0  0
 20 18  1  0  0  0  0
 22 20  1  0  0  0  0
 24 22  1  0  0  0  0
 24 23  1  0  0  0  0
 25 24  2  0  0  0  0
 26 23  1  0  0  0  0
 26 30  1  0  0  0  0
 27 31  1  0  0  0  0
 27 29  2  0  0  0  0
 28 30  2  0  0  0  0
 29 28  1  0  0  0  0
 31 26  2  0  0  0  0
 32 34  1  0  0  0  0
 32 22  1  0  0  0  0
 33 34  1  0  0  0  0
 36 37  1  0  0  0  0
 36 39  1  0  0  0  0
 37 43  1  6  0  0  0
 37 41  1  0  0  0  0
 39 40  1  0  0  0  0
 40 38  2  0  0  0  0
 40 35  1  0  0  0  0
 41 38  1  0  0  0  0
 42 43  2  0  0  0  0
M  END
>  <MODEL>
1

>  <REMARK>
 VINA RESULT:      -9.9      0.000      0.000
  Name = 
  10 active torsions:
  status: ('A' for Active; 'I' for Inactive)
    1  A    between atoms: N_1  and  C_34
    2  A    between atoms: N_1  and  C_35
    3  A    between atoms: C_2  and  N_6
    4  A    between atoms: C_2  and  C_27
    5  A    between atoms: N_4  and  C_12
    6  A    between atoms: N_4  and  C_15
    7  A    between atoms: N_6  and  C_12
    8  A    between atoms: C_11  and  N_14
    9  A    between atoms: C_15  and  C_42
   10  A    between atoms: C_19  and  C_37
                            x       y       z     vdW  Elec       q    Type
                         _______ _______ _______ _____ _____    ______ ____

>  <TORSDO>
F 10

$$$$
=
 OpenBabel10272414343D

 43 47  0  0  1  0  0  0  0  0999 V2000
  191.4440  176.4850  147.1090 C   0  0  0  0  0  0  0  0  0  0  0  0
  187.3550  177.8320  144.4360 C   0  0  0  0  0  0  0  0  0  0  0  0
  189.0820  177.6270  142.7310 C   0  0  0  0  0  3  0  0  0  0  0  0
  189.2060  177.1170  146.4300 C   0  0  0  0  0  0  0  0  0  0  0  0
  191.8700  176.5530  145.7810 C   0  0  0  0  0  3  0  0  0  0  0  0
  192.3640  176.1290  148.1340 N   0  0  0  0  0  1  0  0  0  0  0  0
  189.6280  177.1880  145.0810 C   0  0  0  0  0  0  0  0  0  0  0  0
  190.1150  176.7660  147.4330 C   0  0  0  0  0  3  0  0  0  0  0  0
  190.9690  176.9020  144.7710 C   0  0  0  0  0  3  0  0  0  0  0  0
  188.1570  177.9810  141.7480 C   0  0  0  0  0  0  0  0  0  0  0  0
  188.6990  177.5460  144.0790 C   0  0  0  0  0  0  0  0  0  0  0  0
  186.9660  177.7500  145.7810 C   0  0  0  0  0  3  0  0  0  0  0  0
  186.4230  178.2030  143.4470 C   0  0  0  0  0  0  0  0  0  0  0  0
  186.8370  178.2670  142.1110 C   0  0  0  0  0  3  0  0  0  0  0  0
  187.8830  177.3950  146.7690 C   0  0  0  0  0  3  0  0  0  0  0  0
  188.6060  178.0900  140.3270 C   0  0  1  0  0  3  0  0  0  0  0  0
  190.0550  177.6600  140.1780 C   0  0  0  0  0  1  0  0  0  0  0  0
  187.7520  177.2680  139.4740 N   0  0  0  0  0  2  0  0  0  0  0  0
  188.2380  178.9650  137.9400 O   0  0  0  0  0  1  0  0  0  0  0  0
  187.2590  178.0440  138.3290 C   0  0  0  0  0  0  0  0  0  0  0  0
  186.0960  178.7310  138.6920 O   0  0  0  0  0  1  0  0  0  0  0  0
  186.9550  177.1540  137.1930 N   0  0  0  0  0  0  0  0  0  0  0  0
  189.1910  176.0690  137.3850 N   0  0  0  0  0  2  0  0  0  0  0  0
  187.9520  176.2470  136.6820 C   0  0  0  0  0  0  0  0  0  0  0  0
  187.7210  175.5920  135.6270 O   0  0  0  0  0  0  0  0  0  0  0  0
  190.3250  175.3100  136.9450 C   0  0  0  0  0  0  0  0  0  0  0  0
  192.6730  175.2640  136.3320 C   0  0  0  0  0  3  0  0  0  0  0  0
  191.3460  173.2460  136.1680 C   0  0  0  0  0  3  0  0  0  0  0  0
  192.5700  173.9040  136.0230 C   0  0  0  0  0  3  0  0  0  0  0  0
  190.2270  173.9470  136.6260 C   0  0  0  0  0  3  0  0  0  0  0  0
  191.5530  175.9640  136.7860 C   0  0  0  0  0  3  0  0  0  0  0  0
  185.6420  177.1850  136.5430 C   0  0  0  0  0  2  0  0  0  0  0  0
  183.2990  176.8360  137.3280 C   0  0  0  0  0  1  0  0  0  0  0  0
  184.6800  176.2220  137.2210 C   0  0  0  0  0  2  0  0  0  0  0  0
  185.0560  178.4680  143.8130 N   0  0  0  0  0  2  0  0  0  0  0  0
  182.6760  177.8180  140.8280 C   0  0  0  0  0  2  0  0  0  0  0  0
  181.7180  178.9520  141.1680 C   0  0  2  0  0  3  0  0  0  0  0  0
  182.7580  178.9360  143.4540 C   0  0  0  0  0  3  0  0  0  0  0  0
  184.0240  178.0780  141.4950 C   0  0  0  0  0  2  0  0  0  0  0  0
  183.9030  178.4510  142.9590 C   0  0  0  0  0  0  0  0  0  0  0  0
  181.4710  178.9650  142.6760 C   0  0  0  0  0  2  0  0  0  0  0  0
  180.3300  178.0140  139.4880 O   0  0  0  0  0  0  0  0  0  0  0  0
  180.4270  178.7930  140.4240 C   0  0  0  0  0  3  0  0  0  0  0  0
  1  8  1  0  0  0  0
  1  6  1  0  0  0  0
  2 12  1  0  0  0  0
  3 11  2  0  0  0  0
  4 15  1  0  0  0  0
  4  8  2  0  0  0  0
  5  1  2  0  0  0  0
  7  4  1  0  0  0  0
  9  7  2  0  0  0  0
  9  5  1  0  0  0  0
 10 14  2  0  0  0  0
 10  3  1  0  0  0  0
 11  2  1  0  0  0  0
 11  7  1  0  0  0  0
 12 15  2  0  0  0  0
 13 35  1  0  0  0  0
 13  2  2  0  0  0  0
 14 13  1  0  0  0  0
 16 17  1  1  0  0  0
 16 10  1  0  0  0  0
 18 16  1  0  0  0  0
 19 20  1  0  0  0  0
 20 21  1  0  0  0  0
 20 18  1  0  0  0  0
 22 20  1  0  0  0  0
 24 22  1  0  0  0  0
 24 23  1  0  0  0  0
 25 24  2  0  0  0  0
 26 23  1  0  0  0  0
 27 31  2  0  0  0  0
 28 30  1  0  0  0  0
 29 28  2  0  0  0  0
 29 27  1  0  0  0  0
 30 26  2  0  0  0  0
 31 26  1  0  0  0  0
 32 22  1  0  0  0  0
 32 34  1  0  0  0  0
 34 33  1  0  0  0  0
 36 37  1  0  0  0  0
 36 39  1  0  0  0  0
 37 43  1  6  0  0  0
 37 41  1  0  0  0  0
 39 40  1  0  0  0  0
 40 38  2  0  0  0  0
 40 35  1  0  0  0  0
 41 38  1  0  0  0  0
 42 43  2  0  0  0  0
M  END
>  <MODEL>
2

>  <REMARK>
 VINA RESULT:      -9.7      1.227      3.367
  Name = 
  10 active torsions:
  status: ('A' for Active; 'I' for Inactive)
    1  A    between atoms: N_1  and  C_34
    2  A    between atoms: N_1  and  C_35
    3  A    between atoms: C_2  and  N_6
    4  A    between atoms: C_2  and  C_27
    5  A    between atoms: N_4  and  C_12
    6  A    between atoms: N_4  and  C_15
    7  A    between atoms: N_6  and  C_12
    8  A    between atoms: C_11  and  N_14
    9  A    between atoms: C_15  and  C_42
   10  A    between atoms: C_19  and  C_37
                            x       y       z     vdW  Elec       q    Type
                         _______ _______ _______ _____ _____    ______ ____

>  <TORSDO>
F 10

$$$$
=
 OpenBabel10272414343D

 43 47  0  0  1  0  0  0  0  0999 V2000
  192.5380  175.4500  136.0330 C   0  0  0  0  0  0  0  0  0  0  0  0
  189.7240  177.6210  139.6440 C   0  0  0  0  0  0  0  0  0  0  0  0
  188.1200  177.2470  137.8500 C   0  0  0  0  0  3  0  0  0  0  0  0
  191.7700  176.4830  138.0850 C   0  0  0  0  0  0  0  0  0  0  0  0
  191.2480  175.5330  135.5030 C   0  0  0  0  0  3  0  0  0  0  0  0
  193.5890  174.8820  135.2600 N   0  0  0  0  0  1  0  0  0  0  0  0
  190.4590  176.5720  137.5570 C   0  0  0  0  0  0  0  0  0  0  0  0
  192.7990  175.9230  137.3210 C   0  0  0  0  0  3  0  0  0  0  0  0
  190.2140  176.0900  136.2600 C   0  0  0  0  0  3  0  0  0  0  0  0
  187.1110  177.8100  138.6310 C   0  0  0  0  0  0  0  0  0  0  0  0
  189.4310  177.1420  138.3400 C   0  0  0  0  0  0  0  0  0  0  0  0
  191.0310  177.5160  140.1410 C   0  0  0  0  0  3  0  0  0  0  0  0
  188.7090  178.2030  140.4290 C   0  0  0  0  0  0  0  0  0  0  0  0
  187.4100  178.2850  139.9120 C   0  0  0  0  0  3  0  0  0  0  0  0
  192.0450  176.9520  139.3680 C   0  0  0  0  0  3  0  0  0  0  0  0
  185.7330  177.9370  138.0660 C   0  0  1  0  0  3  0  0  0  0  0  0
  185.4370  176.8100  137.0920 C   0  0  0  0  0  1  0  0  0  0  0  0
  184.7520  177.9300  139.1480 N   0  0  0  0  0  2  0  0  0  0  0  0
  183.1910  178.8860  137.6930 O   0  0  0  0  0  1  0  0  0  0  0  0
  183.7660  179.0020  138.9620 C   0  0  0  0  0  0  0  0  0  0  0  0
  184.3980  180.2460  139.0710 O   0  0  0  0  0  1  0  0  0  0  0  0
  182.7050  178.9130  139.9830 N   0  0  0  0  0  0  0  0  0  0  0  0
  184.4010  178.9270  141.8100 N   0  0  0  0  0  2  0  0  0  0  0  0
  183.0380  178.7860  141.3800 C   0  0  0  0  0  0  0  0  0  0  0  0
  182.1250  178.5750  142.2250 O   0  0  0  0  0  0  0  0  0  0  0  0
  184.9090  178.7030  143.1330 C   0  0  0  0  0  0  0  0  0  0  0  0
  186.4890  177.5570  144.5770 C   0  0  0  0  0  3  0  0  0  0  0  0
  184.8330  179.0370  145.5380 C   0  0  0  0  0  3  0  0  0  0  0  0
  185.9130  178.1650  145.6970 C   0  0  0  0  0  3  0  0  0  0  0  0
  184.3320  179.3040  144.2610 C   0  0  0  0  0  3  0  0  0  0  0  0
  185.9850  177.8220  143.3010 C   0  0  0  0  0  3  0  0  0  0  0  0
  181.2910  178.9290  139.6020 C   0  0  0  0  0  2  0  0  0  0  0  0
  180.4430  180.9340  138.3810 C   0  0  0  0  0  1  0  0  0  0  0  0
  180.7090  180.3280  139.7440 C   0  0  0  0  0  2  0  0  0  0  0  0
  189.0070  178.6650  141.7600 N   0  0  0  0  0  2  0  0  0  0  0  0
  190.6880  175.9110  143.9030 C   0  0  0  0  0  2  0  0  0  0  0  0
  190.8940  176.7960  145.1250 C   0  0  2  0  0  3  0  0  0  0  0  0
  190.5240  178.7440  143.5830 C   0  0  0  0  0  3  0  0  0  0  0  0
  189.5920  176.5090  143.0250 C   0  0  0  0  0  2  0  0  0  0  0  0
  189.7740  177.9910  142.7680 C   0  0  0  0  0  0  0  0  0  0  0  0
  191.3880  178.1690  144.6720 C   0  0  0  0  0  2  0  0  0  0  0  0
  192.1030  176.6690  147.1620 O   0  0  0  0  0  0  0  0  0  0  0  0
  191.8720  176.1700  146.0700 C   0  0  0  0  0  3  0  0  0  0  0  0
  1  8  1  0  0  0  0
  2 12  1  0  0  0  0
  2 13  1  0  0  0  0
  3 11  1  0  0  0  0
  3 10  2  0  0  0  0
  4 15  1  0  0  0  0
  5  1  2  0  0  0  0
  5  9  1  0  0  0  0
  6  1  1  0  0  0  0
  7  4  1  0  0  0  0
  7 11  1  0  0  0  0
  8  4  2  0  0  0  0
  9  7  2  0  0  0  0
 10 14  1  0  0  0  0
 11  2  2  0  0  0  0
 13 35  1  0  0  0  0
 14 13  2  0  0  0  0
 15 12  2  0  0  0  0
 16 17  1  6  0  0  0
 16 10  1  0  0  0  0
 16 18  1  0  0  0  0
 19 20  1  0  0  0  0
 20 21  1  0  0  0  0
 20 18  1  0  0  0  0
 20 22  1  0  0  0  0
 22 24  1  0  0  0  0
 23 26  1  0  0  0  0
 24 23  1  0  0  0  0
 24 25  2  0  0  0  0
 26 31  2  0  0  0  0
 26 30  1  0  0  0  0
 27 29  2  0  0  0  0
 28 29  1  0  0  0  0
 30 28  2  0  0  0  0
 31 27  1  0  0  0  0
 32 34  1  0  0  0  0
 32 22  1  0  0  0  0
 33 34  1  0  0  0  0
 35 40  1  0  0  0  0
 36 37  1  0  0  0  0
 37 43  1  1  0  0  0
 38 41  1  0  0  0  0
 39 36  1  0  0  0  0
 40 39  1  0  0  0  0
 40 38  2  0  0  0  0
 41 37  1  0  0  0  0
 43 42  2  0  0  0  0
M  END
>  <MODEL>
3

>  <REMARK>
 VINA RESULT:      -9.4      2.618      8.149
  Name = 
  10 active torsions:
  status: ('A' for Active; 'I' for Inactive)
    1  A    between atoms: N_1  and  C_34
    2  A    between atoms: N_1  and  C_35
    3  A    between atoms: C_2  and  N_6
    4  A    between atoms: C_2  and  C_27
    5  A    between atoms: N_4  and  C_12
    6  A    between atoms: N_4  and  C_15
    7  A    between atoms: N_6  and  C_12
    8  A    between atoms: C_11  and  N_14
    9  A    between atoms: C_15  and  C_42
   10  A    between atoms: C_19  and  C_37
                            x       y       z     vdW  Elec       q    Type
                         _______ _______ _______ _____ _____    ______ ____

>  <TORSDO>
F 10

$$$$
=
 OpenBabel10272414343D

 43 47  0  0  1  0  0  0  0  0999 V2000
  187.8880  177.7000  147.3920 C   0  0  0  0  0  0  0  0  0  0  0  0
  185.5670  178.5360  142.9650 C   0  0  0  0  0  0  0  0  0  0  0  0
  187.8560  178.0430  142.2990 C   0  0  0  0  0  3  0  0  0  0  0  0
  186.2540  178.1910  145.6710 C   0  0  0  0  0  0  0  0  0  0  0  0
  188.8730  177.5350  146.4150 C   0  0  0  0  0  3  0  0  0  0  0  0
  188.2150  177.5330  148.7660 N   0  0  0  0  0  1  0  0  0  0  0  0
  187.2460  178.0260  144.6740 C   0  0  0  0  0  0  0  0  0  0  0  0
  186.5820  178.0270  147.0210 C   0  0  0  0  0  3  0  0  0  0  0  0
  188.5550  177.6960  145.0630 C   0  0  0  0  0  3  0  0  0  0  0  0
  187.5070  178.2140  140.9600 C   0  0  0  0  0  0  0  0  0  0  0  0
  186.9000  178.1980  143.3150 C   0  0  0  0  0  0  0  0  0  0  0  0
  184.6060  178.6900  143.9750 C   0  0  0  0  0  3  0  0  0  0  0  0
  185.2140  178.7230  141.6140 C   0  0  0  0  0  0  0  0  0  0  0  0
  186.1910  178.5530  140.6260 C   0  0  0  0  0  3  0  0  0  0  0  0
  184.9470  178.5190  145.3160 C   0  0  0  0  0  3  0  0  0  0  0  0
  188.5560  178.0740  139.9050 C   0  0  1  0  0  3  0  0  0  0  0  0
  189.7400  177.2730  140.4180 C   0  0  0  0  0  1  0  0  0  0  0  0
  187.9900  177.4250  138.7260 N   0  0  0  0  0  2  0  0  0  0  0  0
  189.3700  178.9830  137.6600 O   0  0  0  0  0  1  0  0  0  0  0  0
  188.1800  178.2590  137.5330 C   0  0  0  0  0  0  0  0  0  0  0  0
  187.1080  179.1490  137.4050 O   0  0  0  0  0  1  0  0  0  0  0  0
  188.2530  177.4210  136.3210 N   0  0  0  0  0  0  0  0  0  0  0  0
  190.3370  176.3310  137.1470 N   0  0  0  0  0  2  0  0  0  0  0  0
  189.3720  176.5380  136.1040 C   0  0  0  0  0  0  0  0  0  0  0  0
  189.4870  175.9310  135.0030 O   0  0  0  0  0  0  0  0  0  0  0  0
  191.5630  175.5930  137.0450 C   0  0  0  0  0  0  0  0  0  0  0  0
  193.9820  175.6160  136.8370 C   0  0  0  0  0  3  0  0  0  0  0  0
  192.7940  173.5070  136.8470 C   0  0  0  0  0  3  0  0  0  0  0  0
  193.9940  174.2190  136.7780 C   0  0  0  0  0  3  0  0  0  0  0  0
  191.5820  174.1920  136.9780 C   0  0  0  0  0  3  0  0  0  0  0  0
  192.7700  176.2990  136.9650 C   0  0  0  0  0  3  0  0  0  0  0  0
  187.2040  177.4790  135.3000 C   0  0  0  0  0  2  0  0  0  0  0  0
  184.9270  176.8780  136.1260 C   0  0  0  0  0  1  0  0  0  0  0  0
  186.1990  176.3530  135.4930 C   0  0  0  0  0  2  0  0  0  0  0  0
  183.8550  179.0420  141.2650 N   0  0  0  0  0  2  0  0  0  0  0  0
  182.2670  178.7670  137.7430 C   0  0  0  0  0  2  0  0  0  0  0  0
  181.1750  177.7910  138.1620 C   0  0  2  0  0  3  0  0  0  0  0  0
  182.5670  177.3540  140.2060 C   0  0  0  0  0  3  0  0  0  0  0  0
  182.7880  179.5010  138.9760 C   0  0  0  0  0  2  0  0  0  0  0  0
  183.1100  178.5750  140.1310 C   0  0  0  0  0  0  0  0  0  0  0  0
  181.7750  176.7330  139.0870 C   0  0  0  0  0  2  0  0  0  0  0  0
  180.7290  175.9630  136.7180 O   0  0  0  0  0  0  0  0  0  0  0  0
  180.5540  177.1480  136.9600 C   0  0  0  0  0  3  0  0  0  0  0  0
  1  6  1  0  0  0  0
  2 11  1  0  0  0  0
  2 12  1  0  0  0  0
  3 11  2  0  0  0  0
  4  8  2  0  0  0  0
  5  1  2  0  0  0  0
  7  9  2  0  0  0  0
  7  4  1  0  0  0  0
  8  1  1  0  0  0  0
  9  5  1  0  0  0  0
 10  3  1  0  0  0  0
 11  7  1  0  0  0  0
 12 15  2  0  0  0  0
 13  2  2  0  0  0  0
 14 10  2  0  0  0  0
 14 13  1  0  0  0  0
 15  4  1  0  0  0  0
 16 17  1  1  0  0  0
 16 10  1  0  0  0  0
 18 16  1  0  0  0  0
 20 19  1  0  0  0  0
 20 18  1  0  0  0  0
 21 20  1  0  0  0  0
 22 20  1  0  0  0  0
 24 22  1  0  0  0  0
 24 23  1  0  0  0  0
 25 24  2  0  0  0  0
 26 23  1  0  0  0  0
 27 31  1  0  0  0  0
 28 30  2  0  0  0  0
 29 27  2  0  0  0  0
 29 28  1  0  0  0  0
 30 26  1  0  0  0  0
 31 26  2  0  0  0  0
 32 34  1  0  0  0  0
 32 22  1  0  0  0  0
 34 33  1  0  0  0  0
 35 13  1  0  0  0  0
 36 37  1  0  0  0  0
 36 39  1  0  0  0  0
 37 43  1  6  0  0  0
 37 41  1  0  0  0  0
 39 40  1  0  0  0  0
 40 38  2  0  0  0  0
 40 35  1  0  0  0  0
 41 38  1  0  0  0  0
 42 43  2  0  0  0  0
M  END
>  <MODEL>
4

>  <REMARK>
 VINA RESULT:      -9.3      2.150      4.332
  Name = 
  10 active torsions:
  status: ('A' for Active; 'I' for Inactive)
    1  A    between atoms: N_1  and  C_34
    2  A    between atoms: N_1  and  C_35
    3  A    between atoms: C_2  and  N_6
    4  A    between atoms: C_2  and  C_27
    5  A    between atoms: N_4  and  C_12
    6  A    between atoms: N_4  and  C_15
    7  A    between atoms: N_6  and  C_12
    8  A    between atoms: C_11  and  N_14
    9  A    between atoms: C_15  and  C_42
   10  A    between atoms: C_19  and  C_37
                            x       y       z     vdW  Elec       q    Type
                         _______ _______ _______ _____ _____    ______ ____

>  <TORSDO>
F 10

$$$$
=
 OpenBabel10272414343D

 43 47  0  0  1  0  0  0  0  0999 V2000
  190.9800  176.8480  146.5590 C   0  0  0  0  0  0  0  0  0  0  0  0
  189.0750  177.8430  141.9700 C   0  0  0  0  0  0  0  0  0  0  0  0
  187.1330  178.0430  143.4250 C   0  0  0  0  0  3  0  0  0  0  0  0
  190.6990  177.2260  144.1830 C   0  0  0  0  0  0  0  0  0  0  0  0
  189.6210  177.0950  146.7630 C   0  0  0  0  0  3  0  0  0  0  0  0
  191.8190  176.5310  147.6630 N   0  0  0  0  0  1  0  0  0  0  0  0
  189.3200  177.4770  144.3790 C   0  0  0  0  0  0  0  0  0  0  0  0
  191.5190  176.9140  145.2720 C   0  0  0  0  0  3  0  0  0  0  0  0
  188.7940  177.4080  145.6810 C   0  0  0  0  0  3  0  0  0  0  0  0
  186.3350  178.3500  142.3230 C   0  0  0  0  0  0  0  0  0  0  0  0
  188.5040  177.7880  143.2690 C   0  0  0  0  0  0  0  0  0  0  0  0
  190.4450  177.5920  141.8070 C   0  0  0  0  0  3  0  0  0  0  0  0
  188.2690  178.1390  140.8540 C   0  0  0  0  0  0  0  0  0  0  0  0
  186.9050  178.3950  141.0470 C   0  0  0  0  0  3  0  0  0  0  0  0
  191.2500  177.2870  142.9040 C   0  0  0  0  0  3  0  0  0  0  0  0
  184.8720  178.5830  142.5210 C   0  0  1  0  0  3  0  0  0  0  0  0
  184.6150  179.4010  143.7750 C   0  0  0  0  0  1  0  0  0  0  0  0
  184.3190  179.2700  141.3570 N   0  0  0  0  0  2  0  0  0  0  0  0
  182.0090  178.9060  141.4150 O   0  0  0  0  0  1  0  0  0  0  0  0
  183.1970  178.5110  140.7900 C   0  0  0  0  0  0  0  0  0  0  0  0
  183.3990  177.1430  141.0040 O   0  0  0  0  0  1  0  0  0  0  0  0
  183.0850  178.7570  139.3400 N   0  0  0  0  0  0  0  0  0  0  0  0
  182.8390  176.3160  138.8990 N   0  0  0  0  0  2  0  0  0  0  0  0
  182.9990  177.6570  138.4120 C   0  0  0  0  0  0  0  0  0  0  0  0
  183.0400  177.8800  137.1700 O   0  0  0  0  0  0  0  0  0  0  0  0
  182.8670  175.1120  138.1200 C   0  0  0  0  0  0  0  0  0  0  0  0
  184.1740  173.3890  137.0170 C   0  0  0  0  0  3  0  0  0  0  0  0
  181.7600  173.3600  136.8500 C   0  0  0  0  0  3  0  0  0  0  0  0
  183.0000  172.7960  136.5430 C   0  0  0  0  0  3  0  0  0  0  0  0
  181.6940  174.5160  137.6350 C   0  0  0  0  0  3  0  0  0  0  0  0
  184.1060  174.5460  137.7980 C   0  0  0  0  0  3  0  0  0  0  0  0
  183.0800  180.1210  138.8060 C   0  0  0  0  0  2  0  0  0  0  0  0
  181.5780  182.0490  138.3000 C   0  0  0  0  0  1  0  0  0  0  0  0
  181.6720  180.5410  138.4100 C   0  0  0  0  0  2  0  0  0  0  0  0
  188.8580  178.2170  139.5430 N   0  0  0  0  0  2  0  0  0  0  0  0
  187.4050  176.6360  136.3200 C   0  0  0  0  0  2  0  0  0  0  0  0
  187.9700  175.2470  136.5820 C   0  0  2  0  0  3  0  0  0  0  0  0
  189.5130  176.3560  138.2250 C   0  0  0  0  0  3  0  0  0  0  0  0
  187.3440  177.4130  137.6320 C   0  0  0  0  0  2  0  0  0  0  0  0
  188.6320  177.3420  138.4290 C   0  0  0  0  0  0  0  0  0  0  0  0
  189.4060  175.3770  137.0870 C   0  0  0  0  0  2  0  0  0  0  0  0
  187.0010  173.6390  135.1310 O   0  0  0  0  0  0  0  0  0  0  0  0
  187.9230  174.4150  135.3380 C   0  0  0  0  0  3  0  0  0  0  0  0
  1  5  1  0  0  0  0
  1  6  1  0  0  0  0
  2 11  1  0  0  0  0
  4  7  1  0  0  0  0
  4  8  1  0  0  0  0
  7  9  1  0  0  0  0
  8  1  2  0  0  0  0
  9  5  2  0  0  0  0
 10 16  1  0  0  0  0
 10  3  2  0  0  0  0
 11  3  1  0  0  0  0
 11  7  2  0  0  0  0
 12  2  2  0  0  0  0
 12 15  1  0  0  0  0
 13 14  2  0  0  0  0
 13  2  1  0  0  0  0
 14 10  1  0  0  0  0
 15  4  2  0  0  0  0
 16 17  1  1  0  0  0
 18 16  1  0  0  0  0
 20 21  1  0  0  0  0
 20 18  1  0  0  0  0
 20 19  1  0  0  0  0
 22 20  1  0  0  0  0
 24 23  1  0  0  0  0
 24 22  1  0  0  0  0
 25 24  2  0  0  0  0
 26 23  1  0  0  0  0
 27 31  2  0  0  0  0
 28 30  1  0  0  0  0
 29 28  2  0  0  0  0
 29 27  1  0  0  0  0
 30 26  2  0  0  0  0
 31 26  1  0  0  0  0
 32 22  1  0  0  0  0
 33 34  1  0  0  0  0
 34 32  1  0  0  0  0
 35 13  1  0  0  0  0
 36 37  1  0  0  0  0
 36 39  1  0  0  0  0
 37 43  1  6  0  0  0
 37 41  1  0  0  0  0
 38 40  2  0  0  0  0
 39 40  1  0  0  0  0
 40 35  1  0  0  0  0
 41 38  1  0  0  0  0
 42 43  2  0  0  0  0
M  END
>  <MODEL>
5

>  <REMARK>
 VINA RESULT:      -9.0      1.861      5.340
  Name = 
  10 active torsions:
  status: ('A' for Active; 'I' for Inactive)
    1  A    between atoms: N_1  and  C_34
    2  A    between atoms: N_1  and  C_35
    3  A    between atoms: C_2  and  N_6
    4  A    between atoms: C_2  and  C_27
    5  A    between atoms: N_4  and  C_12
    6  A    between atoms: N_4  and  C_15
    7  A    between atoms: N_6  and  C_12
    8  A    between atoms: C_11  and  N_14
    9  A    between atoms: C_15  and  C_42
   10  A    between atoms: C_19  and  C_37
                            x       y       z     vdW  Elec       q    Type
                         _______ _______ _______ _____ _____    ______ ____

>  <TORSDO>
F 10

$$$$
=
 OpenBabel10272414343D

 43 47  0  0  1  0  0  0  0  0999 V2000
  193.3390  174.6670  135.4990 C   0  0  0  0  0  0  0  0  0  0  0  0
  189.6150  177.3010  137.7070 C   0  0  0  0  0  0  0  0  0  0  0  0
  190.9940  176.6150  139.5930 C   0  0  0  0  0  3  0  0  0  0  0  0
  191.3580  175.9950  135.9260 C   0  0  0  0  0  0  0  0  0  0  0  0
  193.6160  174.6330  136.8670 C   0  0  0  0  0  3  0  0  0  0  0  0
  194.2050  174.0100  134.5810 N   0  0  0  0  0  1  0  0  0  0  0  0
  191.6300  175.9650  137.3150 C   0  0  0  0  0  0  0  0  0  0  0  0
  192.2120  175.3470  135.0290 C   0  0  0  0  0  3  0  0  0  0  0  0
  192.7680  175.2780  137.7720 C   0  0  0  0  0  3  0  0  0  0  0  0
  190.1260  177.2670  140.4690 C   0  0  0  0  0  0  0  0  0  0  0  0
  190.7560  176.6220  138.2100 C   0  0  0  0  0  0  0  0  0  0  0  0
  189.3730  177.3150  136.3260 C   0  0  0  0  0  3  0  0  0  0  0  0
  188.7290  177.9480  138.5910 C   0  0  0  0  0  0  0  0  0  0  0  0
  189.0010  177.9270  139.9640 C   0  0  0  0  0  3  0  0  0  0  0  0
  190.2370  176.6680  135.4440 C   0  0  0  0  0  3  0  0  0  0  0  0
  190.3910  177.2110  141.9390 C   0  0  1  0  0  3  0  0  0  0  0  0
  191.6070  178.0430  142.3060 C   0  0  0  0  0  1  0  0  0  0  0  0
  189.2210  177.6890  142.6710 N   0  0  0  0  0  2  0  0  0  0  0  0
  190.0410  176.0880  144.1650 O   0  0  0  0  0  1  0  0  0  0  0  0
  188.8890  176.7760  143.7720 C   0  0  0  0  0  0  0  0  0  0  0  0
  187.9240  175.8560  143.3460 O   0  0  0  0  0  1  0  0  0  0  0  0
  188.3580  177.5270  144.9250 N   0  0  0  0  0  0  0  0  0  0  0  0
  186.1110  177.6690  143.8550 N   0  0  0  0  0  2  0  0  0  0  0  0
  187.0100  178.0380  144.9120 C   0  0  0  0  0  0  0  0  0  0  0  0
  186.6170  178.7920  145.8440 O   0  0  0  0  0  0  0  0  0  0  0  0
  184.7930  178.1890  143.6300 C   0  0  0  0  0  0  0  0  0  0  0  0
  182.7120  179.0270  144.5580 C   0  0  0  0  0  3  0  0  0  0  0  0
  182.9520  178.7890  142.1610 C   0  0  0  0  0  3  0  0  0  0  0  0
  182.1820  179.1500  143.2690 C   0  0  0  0  0  3  0  0  0  0  0  0
  184.2530  178.3080  142.3410 C   0  0  0  0  0  3  0  0  0  0  0  0
  184.0110  178.5430  144.7360 C   0  0  0  0  0  3  0  0  0  0  0  0
  189.1910  177.7900  146.1000 C   0  0  0  0  0  2  0  0  0  0  0  0
  188.5380  177.7530  148.5090 C   0  0  0  0  0  1  0  0  0  0  0  0
  188.7690  176.9130  147.2690 C   0  0  0  0  0  2  0  0  0  0  0  0
  187.5870  178.6550  138.0720 N   0  0  0  0  0  2  0  0  0  0  0  0
  183.7680  178.2230  138.5480 C   0  0  0  0  0  2  0  0  0  0  0  0
  183.7280  176.7880  138.0380 C   0  0  2  0  0  3  0  0  0  0  0  0
  185.9830  177.2490  137.0320 C   0  0  0  0  0  3  0  0  0  0  0  0
  185.1900  178.5640  138.9850 C   0  0  0  0  0  2  0  0  0  0  0  0
  186.2390  178.1770  137.9620 C   0  0  0  0  0  0  0  0  0  0  0  0
  184.6140  176.6720  136.7970 C   0  0  0  0  0  2  0  0  0  0  0  0
  181.8260  175.3830  138.2230 O   0  0  0  0  0  0  0  0  0  0  0  0
  182.3220  176.3800  137.7210 C   0  0  0  0  0  3  0  0  0  0  0  0
  1  5  1  0  0  0  0
  2 11  1  0  0  0  0
  2 13  2  0  0  0  0
  3 10  1  0  0  0  0
  4  7  2  0  0  0  0
  5  9  2  0  0  0  0
  6  1  1  0  0  0  0
  7  9  1  0  0  0  0
  7 11  1  0  0  0  0
  8  1  2  0  0  0  0
  8  4  1  0  0  0  0
 10 16  1  0  0  0  0
 11  3  2  0  0  0  0
 12  2  1  0  0  0  0
 13 14  1  0  0  0  0
 14 10  2  0  0  0  0
 15  4  1  0  0  0  0
 15 12  2  0  0  0  0
 16 17  1  6  0  0  0
 16 18  1  0  0  0  0
 18 20  1  0  0  0  0
 20 19  1  0  0  0  0
 20 22  1  0  0  0  0
 21 20  1  0  0  0  0
 22 32  1  0  0  0  0
 23 24  1  0  0  0  0
 24 22  1  0  0  0  0
 24 25  2  0  0  0  0
 26 23  1  0  0  0  0
 26 31  1  0  0  0  0
 27 31  2  0  0  0  0
 28 30  1  0  0  0  0
 28 29  2  0  0  0  0
 29 27  1  0  0  0  0
 30 26  2  0  0  0  0
 32 34  1  0  0  0  0
 34 33  1  0  0  0  0
 35 13  1  0  0  0  0
 36 39  1  0  0  0  0
 37 43  1  6  0  0  0
 37 36  1  0  0  0  0
 38 40  2  0  0  0  0
 40 35  1  0  0  0  0
 40 39  1  0  0  0  0
 41 38  1  0  0  0  0
 41 37  1  0  0  0  0
 43 42  2  0  0  0  0
M  END
>  <MODEL>
6

>  <REMARK>
 VINA RESULT:      -9.0      2.813      7.823
  Name = 
  10 active torsions:
  status: ('A' for Active; 'I' for Inactive)
    1  A    between atoms: N_1  and  C_34
    2  A    between atoms: N_1  and  C_35
    3  A    between atoms: C_2  and  N_6
    4  A    between atoms: C_2  and  C_27
    5  A    between atoms: N_4  and  C_12
    6  A    between atoms: N_4  and  C_15
    7  A    between atoms: N_6  and  C_12
    8  A    between atoms: C_11  and  N_14
    9  A    between atoms: C_15  and  C_42
   10  A    between atoms: C_19  and  C_37
                            x       y       z     vdW  Elec       q    Type
                         _______ _______ _______ _____ _____    ______ ____

>  <TORSDO>
F 10

$$$$
=
 OpenBabel10272414343D

 43 47  0  0  1  0  0  0  0  0999 V2000
  190.6170  176.9000  146.4510 C   0  0  0  0  0  0  0  0  0  0  0  0
  188.8470  178.1710  141.8760 C   0  0  0  0  0  0  0  0  0  0  0  0
  186.8210  177.9730  143.2120 C   0  0  0  0  0  3  0  0  0  0  0  0
  190.4170  177.5070  144.1150 C   0  0  0  0  0  0  0  0  0  0  0  0
  189.2280  176.9580  146.5890 C   0  0  0  0  0  3  0  0  0  0  0  0
  191.4290  176.5630  147.5690 N   0  0  0  0  0  1  0  0  0  0  0  0
  189.0080  177.5680  144.2440 C   0  0  0  0  0  0  0  0  0  0  0  0
  191.2100  177.1740  145.2170 C   0  0  0  0  0  3  0  0  0  0  0  0
  188.4270  177.2900  145.4930 C   0  0  0  0  0  3  0  0  0  0  0  0
  186.0510  178.3060  142.0980 C   0  0  0  0  0  0  0  0  0  0  0  0
  188.2200  177.9030  143.1210 C   0  0  0  0  0  0  0  0  0  0  0  0
  190.2450  178.1060  141.7790 C   0  0  0  0  0  3  0  0  0  0  0  0
  188.0710  178.4940  140.7460 C   0  0  0  0  0  0  0  0  0  0  0  0
  186.6780  178.5620  140.8740 C   0  0  0  0  0  3  0  0  0  0  0  0
  191.0220  177.7770  142.8890 C   0  0  0  0  0  3  0  0  0  0  0  0
  184.5620  178.3390  142.2210 C   0  0  1  0  0  3  0  0  0  0  0  0
  184.1320  179.1670  143.4200 C   0  0  0  0  0  1  0  0  0  0  0  0
  183.9760  178.8880  141.0010 N   0  0  0  0  0  2  0  0  0  0  0  0
  181.7440  178.5750  141.6250 O   0  0  0  0  0  1  0  0  0  0  0  0
  182.7120  178.2130  140.6820 C   0  0  0  0  0  0  0  0  0  0  0  0
  182.8970  176.8270  140.7180 O   0  0  0  0  0  1  0  0  0  0  0  0
  182.2440  178.5980  139.3380 N   0  0  0  0  0  0  0  0  0  0  0  0
  183.7330  176.9000  138.2830 N   0  0  0  0  0  2  0  0  0  0  0  0
  182.8220  178.0040  138.1590 C   0  0  0  0  0  0  0  0  0  0  0  0
  182.5080  178.4410  137.0170 O   0  0  0  0  0  0  0  0  0  0  0  0
  184.4860  176.2870  137.2270 C   0  0  0  0  0  0  0  0  0  0  0  0
  186.1900  176.4940  135.5110 C   0  0  0  0  0  3  0  0  0  0  0  0
  184.9770  174.4140  135.7590 C   0  0  0  0  0  3  0  0  0  0  0  0
  185.9500  175.1760  135.1080 C   0  0  0  0  0  3  0  0  0  0  0  0
  184.2460  174.9680  136.8140 C   0  0  0  0  0  3  0  0  0  0  0  0
  185.4560  177.0470  136.5630 C   0  0  0  0  0  3  0  0  0  0  0  0
  181.1970  179.6090  139.1660 C   0  0  0  0  0  2  0  0  0  0  0  0
  181.1010  181.6270  137.7010 C   0  0  0  0  0  1  0  0  0  0  0  0
  181.8050  180.9720  138.8720 C   0  0  0  0  0  2  0  0  0  0  0  0
  188.7140  178.7880  139.4930 N   0  0  0  0  0  2  0  0  0  0  0  0
  189.0760  175.5860  137.3450 C   0  0  0  0  0  2  0  0  0  0  0  0
  189.9130  176.2460  136.2570 C   0  0  2  0  0  3  0  0  0  0  0  0
  189.1020  178.4370  137.1790 C   0  0  0  0  0  3  0  0  0  0  0  0
  189.1650  176.4160  138.6230 C   0  0  0  0  0  2  0  0  0  0  0  0
  188.9350  177.8960  138.3920 C   0  0  0  0  0  0  0  0  0  0  0  0
  189.3260  177.6200  135.9350 C   0  0  0  0  0  2  0  0  0  0  0  0
  189.4390  174.2800  135.0160 O   0  0  0  0  0  0  0  0  0  0  0  0
  189.9510  175.3890  135.0280 C   0  0  0  0  0  3  0  0  0  0  0  0
  1  5  1  0  0  0  0
  1  6  1  0  0  0  0
  2 11  1  0  0  0  0
  4  7  1  0  0  0  0
  4  8  1  0  0  0  0
  7  9  1  0  0  0  0
  8  1  2  0  0  0  0
  9  5  2  0  0  0  0
 10 16  1  0  0  0  0
 10  3  2  0  0  0  0
 11  3  1  0  0  0  0
 11  7  2  0  0  0  0
 12  2  2  0  0  0  0
 12 15  1  0  0  0  0
 13 14  2  0  0  0  0
 13  2  1  0  0  0  0
 14 10  1  0  0  0  0
 15  4  2  0  0  0  0
 16 17  1  1  0  0  0
 18 16  1  0  0  0  0
 20 21  1  0  0  0  0
 20 18  1  0  0  0  0
 20 19  1  0  0  0  0
 22 20  1  0  0  0  0
 24 23  1  0  0  0  0
 24 22  1  0  0  0  0
 25 24  2  0  0  0  0
 26 23  1  0  0  0  0
 27 31  1  0  0  0  0
 28 30  2  0  0  0  0
 29 27  2  0  0  0  0
 29 28  1  0  0  0  0
 30 26  1  0  0  0  0
 31 26  2  0  0  0  0
 32 22  1  0  0  0  0
 33 34  1  0  0  0  0
 34 32  1  0  0  0  0
 35 13  1  0  0  0  0
 36 39  1  0  0  0  0
 37 43  1  6  0  0  0
 37 36  1  0  0  0  0
 38 40  2  0  0  0  0
 40 39  1  0  0  0  0
 40 35  1  0  0  0  0
 41 37  1  0  0  0  0
 41 38  1  0  0  0  0
 42 43  2  0  0  0  0
M  END
>  <MODEL>
7

>  <REMARK>
 VINA RESULT:      -8.9      1.856      5.763
  Name = 
  10 active torsions:
  status: ('A' for Active; 'I' for Inactive)
    1  A    between atoms: N_1  and  C_34
    2  A    between atoms: N_1  and  C_35
    3  A    between atoms: C_2  and  N_6
    4  A    between atoms: C_2  and  C_27
    5  A    between atoms: N_4  and  C_12
    6  A    between atoms: N_4  and  C_15
    7  A    between atoms: N_6  and  C_12
    8  A    between atoms: C_11  and  N_14
    9  A    between atoms: C_15  and  C_42
   10  A    between atoms: C_19  and  C_37
                            x       y       z     vdW  Elec       q    Type
                         _______ _______ _______ _____ _____    ______ ____

>  <TORSDO>
F 10

$$$$
=
 OpenBabel10272414343D

 43 47  0  0  1  0  0  0  0  0999 V2000
  191.8740  173.8010  135.6350 C   0  0  0  0  0  0  0  0  0  0  0  0
  188.5120  176.9770  137.7070 C   0  0  0  0  0  0  0  0  0  0  0  0
  190.1490  176.6750  139.4850 C   0  0  0  0  0  3  0  0  0  0  0  0
  189.9770  175.2550  136.0330 C   0  0  0  0  0  0  0  0  0  0  0  0
  192.3460  174.0580  136.9250 C   0  0  0  0  0  3  0  0  0  0  0  0
  192.5970  172.9310  134.7740 N   0  0  0  0  0  1  0  0  0  0  0  0
  190.4480  175.5220  137.3410 C   0  0  0  0  0  0  0  0  0  0  0  0
  190.6920  174.3980  135.1900 C   0  0  0  0  0  3  0  0  0  0  0  0
  191.6390  174.9130  137.7740 C   0  0  0  0  0  3  0  0  0  0  0  0
  189.4170  177.5310  140.3080 C   0  0  0  0  0  0  0  0  0  0  0  0
  189.7130  176.3870  138.1820 C   0  0  0  0  0  0  0  0  0  0  0  0
  188.0730  176.6960  136.4050 C   0  0  0  0  0  3  0  0  0  0  0  0
  187.7640  177.8310  138.5410 C   0  0  0  0  0  0  0  0  0  0  0  0
  188.2320  178.1020  139.8330 C   0  0  0  0  0  3  0  0  0  0  0  0
  188.8000  175.8430  135.5750 C   0  0  0  0  0  3  0  0  0  0  0  0
  189.8920  177.7890  141.7010 C   0  0  1  0  0  3  0  0  0  0  0  0
  189.3730  179.1210  142.2160 C   0  0  0  0  0  1  0  0  0  0  0  0
  189.4520  176.7100  142.5820 N   0  0  0  0  0  2  0  0  0  0  0  0
  191.7730  176.6650  142.8600 O   0  0  0  0  0  1  0  0  0  0  0  0
  190.5630  176.2340  143.4140 C   0  0  0  0  0  0  0  0  0  0  0  0
  190.5490  174.8360  143.4620 O   0  0  0  0  0  1  0  0  0  0  0  0
  190.4460  176.7600  144.7870 N   0  0  0  0  0  0  0  0  0  0  0  0
  187.9920  177.0950  144.4960 N   0  0  0  0  0  2  0  0  0  0  0  0
  189.1870  177.2650  145.2750 C   0  0  0  0  0  0  0  0  0  0  0  0
  189.1340  177.8350  146.4000 O   0  0  0  0  0  0  0  0  0  0  0  0
  186.6990  177.6460  144.7780 C   0  0  0  0  0  0  0  0  0  0  0  0
  184.6350  178.6150  143.9450 C   0  0  0  0  0  3  0  0  0  0  0  0
  184.9910  178.4070  146.3300 C   0  0  0  0  0  3  0  0  0  0  0  0
  184.1850  178.7950  145.2570 C   0  0  0  0  0  3  0  0  0  0  0  0
  186.2440  177.8360  146.0910 C   0  0  0  0  0  3  0  0  0  0  0  0
  185.8900  178.0480  143.7090 C   0  0  0  0  0  3  0  0  0  0  0  0
  191.6070  176.8040  145.6790 C   0  0  0  0  0  2  0  0  0  0  0  0
  192.6880  175.7830  147.6830 C   0  0  0  0  0  1  0  0  0  0  0  0
  191.5770  175.6440  146.6630 C   0  0  0  0  0  2  0  0  0  0  0  0
  186.5610  178.4450  138.0450 N   0  0  0  0  0  2  0  0  0  0  0  0
  183.3930  179.1100  140.1730 C   0  0  0  0  0  2  0  0  0  0  0  0
  182.7960  177.7250  139.9640 C   0  0  2  0  0  3  0  0  0  0  0  0
  184.3830  177.5020  138.0310 C   0  0  0  0  0  3  0  0  0  0  0  0
  184.8940  179.0590  139.8980 C   0  0  0  0  0  2  0  0  0  0  0  0
  185.2410  178.3570  138.6010 C   0  0  0  0  0  0  0  0  0  0  0  0
  182.9660  177.3200  138.5000 C   0  0  0  0  0  2  0  0  0  0  0  0
  180.9890  178.0500  141.4680 O   0  0  0  0  0  0  0  0  0  0  0  0
  181.3480  177.7120  140.3490 C   0  0  0  0  0  3  0  0  0  0  0  0
  1  5  1  0  0  0  0
  2 11  1  0  0  0  0
  2 13  2  0  0  0  0
  3 10  1  0  0  0  0
  4  7  2  0  0  0  0
  5  9  2  0  0  0  0
  6  1  1  0  0  0  0
  7  9  1  0  0  0  0
  7 11  1  0  0  0  0
  8  1  2  0  0  0  0
  8  4  1  0  0  0  0
 10 16  1  0  0  0  0
 11  3  2  0  0  0  0
 12  2  1  0  0  0  0
 13 14  1  0  0  0  0
 14 10  2  0  0  0  0
 15  4  1  0  0  0  0
 15 12  2  0  0  0  0
 16 17  1  1  0  0  0
 16 18  1  0  0  0  0
 18 20  1  0  0  0  0
 19 20  1  0  0  0  0
 20 21  1  0  0  0  0
 20 22  1  0  0  0  0
 22 24  1  0  0  0  0
 22 32  1  0  0  0  0
 23 26  1  0  0  0  0
 23 24  1  0  0  0  0
 24 25  2  0  0  0  0
 26 30  1  0  0  0  0
 27 29  2  0  0  0  0
 29 28  1  0  0  0  0
 30 28  2  0  0  0  0
 31 27  1  0  0  0  0
 31 26  2  0  0  0  0
 32 34  1  0  0  0  0
 34 33  1  0  0  0  0
 35 13  1  0  0  0  0
 35 40  1  0  0  0  0
 37 36  1  0  0  0  0
 37 43  1  6  0  0  0
 38 41  1  0  0  0  0
 38 40  2  0  0  0  0
 39 36  1  0  0  0  0
 40 39  1  0  0  0  0
 41 37  1  0  0  0  0
 43 42  2  0  0  0  0
M  END
>  <MODEL>
8

>  <REMARK>
 VINA RESULT:      -8.9      2.857      7.825
  Name = 
  10 active torsions:
  status: ('A' for Active; 'I' for Inactive)
    1  A    between atoms: N_1  and  C_34
    2  A    between atoms: N_1  and  C_35
    3  A    between atoms: C_2  and  N_6
    4  A    between atoms: C_2  and  C_27
    5  A    between atoms: N_4  and  C_12
    6  A    between atoms: N_4  and  C_15
    7  A    between atoms: N_6  and  C_12
    8  A    between atoms: C_11  and  N_14
    9  A    between atoms: C_15  and  C_42
   10  A    between atoms: C_19  and  C_37
                            x       y       z     vdW  Elec       q    Type
                         _______ _______ _______ _____ _____    ______ ____

>  <TORSDO>
F 10

$$$$
=
 OpenBabel10272414343D

 43 47  0  0  1  0  0  0  0  0999 V2000
  184.8230  178.6180  145.6650 C   0  0  0  0  0  0  0  0  0  0  0  0
  182.9350  178.8080  140.9660 C   0  0  0  0  0  0  0  0  0  0  0  0
  185.2840  178.2870  140.5930 C   0  0  0  0  0  3  0  0  0  0  0  0
  183.3590  178.8390  143.7470 C   0  0  0  0  0  0  0  0  0  0  0  0
  185.9000  178.3500  144.8170 C   0  0  0  0  0  3  0  0  0  0  0  0
  185.0160  178.6430  147.0740 N   0  0  0  0  0  1  0  0  0  0  0  0
  184.4450  178.5690  142.8790 C   0  0  0  0  0  0  0  0  0  0  0  0
  183.5550  178.8620  145.1320 C   0  0  0  0  0  3  0  0  0  0  0  0
  185.7140  178.3250  143.4330 C   0  0  0  0  0  3  0  0  0  0  0  0
  185.0650  178.2710  139.2150 C   0  0  0  0  0  0  0  0  0  0  0  0
  184.2320  178.5520  141.4830 C   0  0  0  0  0  0  0  0  0  0  0  0
  181.8790  179.0700  141.8510 C   0  0  0  0  0  3  0  0  0  0  0  0
  182.7140  178.8070  139.5750 C   0  0  0  0  0  0  0  0  0  0  0  0
  183.7850  178.5320  138.7150 C   0  0  0  0  0  3  0  0  0  0  0  0
  182.0890  179.0850  143.2290 C   0  0  0  0  0  3  0  0  0  0  0  0
  186.2140  178.0190  138.2940 C   0  0  1  0  0  3  0  0  0  0  0  0
  186.0970  178.8600  137.0340 C   0  0  0  0  0  1  0  0  0  0  0  0
  187.4700  178.3180  138.9760 N   0  0  0  0  0  2  0  0  0  0  0  0
  189.2340  179.5180  138.0190 O   0  0  0  0  0  1  0  0  0  0  0  0
  188.5960  178.2730  138.0350 C   0  0  0  0  0  0  0  0  0  0  0  0
  188.1250  177.9780  136.7510 O   0  0  0  0  0  1  0  0  0  0  0  0
  189.5670  177.2380  138.4380 N   0  0  0  0  0  0  0  0  0  0  0  0
  189.0850  177.6610  140.8470 N   0  0  0  0  0  2  0  0  0  0  0  0
  189.8630  177.0100  139.8300 C   0  0  0  0  0  0  0  0  0  0  0  0
  190.7920  176.2190  140.1520 O   0  0  0  0  0  0  0  0  0  0  0  0
  189.3320  177.6390  142.2600 C   0  0  0  0  0  0  0  0  0  0  0  0
  190.4820  178.5910  144.1740 C   0  0  0  0  0  3  0  0  0  0  0  0
  189.0610  176.6530  144.4640 C   0  0  0  0  0  3  0  0  0  0  0  0
  189.9140  177.6180  145.0040 C   0  0  0  0  0  3  0  0  0  0  0  0
  188.7720  176.6630  143.0960 C   0  0  0  0  0  3  0  0  0  0  0  0
  190.1950  178.5970  142.8070 C   0  0  0  0  0  3  0  0  0  0  0  0
  190.2700  176.4340  137.4350 C   0  0  0  0  0  2  0  0  0  0  0  0
  190.6190  173.9980  137.0180 C   0  0  0  0  0  1  0  0  0  0  0  0
  189.5900  175.0850  137.2510 C   0  0  0  0  0  2  0  0  0  0  0  0
  181.3920  179.0430  139.0590 N   0  0  0  0  0  2  0  0  0  0  0  0
  180.0090  180.8280  135.9110 C   0  0  0  0  0  2  0  0  0  0  0  0
  180.7180  182.1490  136.1810 C   0  0  2  0  0  3  0  0  0  0  0  0
  181.0170  181.3280  138.5360 C   0  0  0  0  0  3  0  0  0  0  0  0
  180.7160  179.7110  136.6730 C   0  0  0  0  0  2  0  0  0  0  0  0
  180.9850  180.0540  138.1250 C   0  0  0  0  0  0  0  0  0  0  0  0
  180.6050  182.4850  137.6670 C   0  0  0  0  0  2  0  0  0  0  0  0
  180.6450  184.3500  135.3000 O   0  0  0  0  0  0  0  0  0  0  0  0
  180.1280  183.2440  135.3470 C   0  0  0  0  0  3  0  0  0  0  0  0
  1  6  1  0  0  0  0
  2 11  1  0  0  0  0
  2 12  1  0  0  0  0
  3 11  2  0  0  0  0
  4  8  2  0  0  0  0
  5  1  2  0  0  0  0
  7  9  2  0  0  0  0
  7  4  1  0  0  0  0
  8  1  1  0  0  0  0
  9  5  1  0  0  0  0
 10  3  1  0  0  0  0
 11  7  1  0  0  0  0
 12 15  2  0  0  0  0
 13  2  2  0  0  0  0
 14 10  2  0  0  0  0
 14 13  1  0  0  0  0
 15  4  1  0  0  0  0
 16 17  1  6  0  0  0
 16 18  1  0  0  0  0
 16 10  1  0  0  0  0
 19 20  1  0  0  0  0
 20 22  1  0  0  0  0
 20 18  1  0  0  0  0
 21 20  1  0  0  0  0
 22 24  1  0  0  0  0
 23 26  1  0  0  0  0
 24 25  2  0  0  0  0
 24 23  1  0  0  0  0
 26 31  2  0  0  0  0
 26 30  1  0  0  0  0
 27 29  2  0  0  0  0
 28 29  1  0  0  0  0
 30 28  2  0  0  0  0
 31 27  1  0  0  0  0
 32 22  1  0  0  0  0
 33 34  1  0  0  0  0
 34 32  1  0  0  0  0
 35 13  1  0  0  0  0
 36 37  1  0  0  0  0
 36 39  1  0  0  0  0
 37 43  1  6  0  0  0
 37 41  1  0  0  0  0
 39 40  1  0  0  0  0
 40 38  2  0  0  0  0
 40 35  1  0  0  0  0
 41 38  1  0  0  0  0
 42 43  2  0  0  0  0
M  END
>  <MODEL>
9

>  <REMARK>
 VINA RESULT:      -8.8      2.975      6.113
  Name = 
  10 active torsions:
  status: ('A' for Active; 'I' for Inactive)
    1  A    between atoms: N_1  and  C_34
    2  A    between atoms: N_1  and  C_35
    3  A    between atoms: C_2  and  N_6
    4  A    between atoms: C_2  and  C_27
    5  A    between atoms: N_4  and  C_12
    6  A    between atoms: N_4  and  C_15
    7  A    between atoms: N_6  and  C_12
    8  A    between atoms: C_11  and  N_14
    9  A    between atoms: C_15  and  C_42
   10  A    between atoms: C_19  and  C_37
                            x       y       z     vdW  Elec       q    Type
                         _______ _______ _______ _____ _____    ______ ____

>  <TORSDO>
F 10

$$$$
