=
 OpenBabel10272401573D

 28 31  0  0  1  0  0  0  0  0999 V2000
  186.3790  177.7410  145.9750 C   0  0  0  0  0  0  0  0  0  0  0  0
  190.2030  176.3370  142.5330 C   0  0  0  0  0  2  0  0  0  0  0  0
  184.6290  179.2120  141.6410 C   0  0  0  0  0  1  0  0  0  0  0  0
  189.4970  178.0090  140.7310 C   0  0  1  0  0  3  0  0  0  0  0  0
  187.8320  177.1720  142.5250 C   0  0  1  0  0  3  0  0  0  0  0  0
  191.9410  177.6080  141.1340 C   0  0  2  0  0  3  0  0  0  0  0  0
  189.2910  177.5170  142.1900 C   0  0  1  0  0  3  0  0  0  0  0  0
  187.0560  178.2670  140.3590 C   0  0  0  0  0  2  0  0  0  0  0  0
  190.8150  177.5390  140.1090 C   0  0  0  0  0  2  0  0  0  0  0  0
  185.5450  178.4040  143.7850 C   0  0  0  0  0  0  0  0  0  0  0  0
  187.6260  177.2310  144.0090 C   0  0  0  0  0  3  0  0  0  0  0  0
  188.3350  177.6310  139.8270 C   0  0  0  0  0  2  0  0  0  0  0  0
  184.2630  178.8690  145.7430 C   0  0  0  0  0  3  0  0  0  0  0  0
  185.6900  178.5250  142.4500 C   0  0  0  0  0  0  0  0  0  0  0  0
  184.4390  178.9160  144.3970 N   0  0  0  0  0  0  0  0  0  0  0  0
  193.2550  177.2310  140.4850 C   0  0  0  0  0  1  0  0  0  0  0  0
  191.6800  176.6970  142.3410 C   0  0  0  0  0  2  0  0  0  0  0  0
  186.8800  178.0310  141.7970 N   0  0  0  0  0  0  0  0  0  0  0  0
  185.2340  178.2870  146.5540 C   0  0  0  0  0  3  0  0  0  0  0  0
  186.5430  177.7800  144.5730 C   0  0  0  0  0  0  0  0  0  0  0  0
  187.4210  177.1470  146.8720 C   0  0  0  0  0  2  0  0  0  0  0  0
  187.9170  178.1970  147.8510 C   0  0  0  0  0  2  0  0  0  0  0  0
  189.3990  177.9990  148.1270 C   0  0  0  0  0  2  0  0  0  0  0  0
  189.9650  176.8580  147.2860 C   0  0  0  0  0  2  0  0  0  0  0  0
  191.1090  177.3130  146.3830 C   0  0  2  0  0  3  0  0  0  0  0  0
  190.6130  177.9860  145.2800 F   0  0  0  0  0  0  0  0  0  0  0  0
  192.3030  175.6150  147.1560 C   0  0  0  0  0  1  0  0  0  0  0  0
  191.8790  176.2210  145.9730 O   0  0  0  0  0  0  0  0  0  0  0  0
  1 19  2  0  0  0  0
  1 21  1  0  0  0  0
  3 14  1  0  0  0  0
  4 12  1  6  0  0  0
  4  7  1  0  0  0  0
  5 11  1  1  0  0  0
  6 16  1  6  0  0  0
  6 17  1  0  0  0  0
  7  5  1  0  0  0  0
  7  2  1  6  0  0  0
  8 18  1  0  0  0  0
  9  4  1  0  0  0  0
  9  6  1  0  0  0  0
 10 15  1  0  0  0  0
 10 20  1  0  0  0  0
 11 20  2  0  0  0  0
 12  8  1  0  0  0  0
 13 19  1  0  0  0  0
 14 10  2  0  0  0  0
 15 13  2  0  0  0  0
 17  2  1  0  0  0  0
 18 14  1  0  0  0  0
 18  5  1  0  0  0  0
 20  1  1  0  0  0  0
 21 22  1  0  0  0  0
 22 23  1  0  0  0  0
 24 23  1  0  0  0  0
 25 26  1  6  0  0  0
 25 24  1  0  0  0  0
 28 25  1  0  0  0  0
 28 27  1  0  0  0  0
M  END
>  <MODEL>
1

>  <REMARK>
 VINA RESULT:      -8.7      0.000      0.000
  Name = 
  6 active torsions:
  status: ('A' for Active; 'I' for Inactive)
    1  A    between atoms: C_1  and  C_2
    2  A    between atoms: C_2  and  C_3
    3  A    between atoms: C_3  and  C_8
    4  A    between atoms: C_6  and  C_11
    5  A    between atoms: C_6  and  O_28
    6  A    between atoms: C_8  and  C_11
                            x       y       z     vdW  Elec       q    Type
                         _______ _______ _______ _____ _____    ______ ____

>  <TORSDO>
F 6

$$$$
=
 OpenBabel10272401573D

 28 31  0  0  1  0  0  0  0  0999 V2000
  187.1740  178.3830  146.5380 C   0  0  0  0  0  0  0  0  0  0  0  0
  188.6600  178.7290  141.4290 C   0  0  0  0  0  2  0  0  0  0  0  0
  191.5400  176.1600  146.4540 C   0  0  0  0  0  1  0  0  0  0  0  0
  190.3000  176.7690  141.5480 C   0  0  1  0  0  3  0  0  0  0  0  0
  189.6210  178.0930  143.6640 C   0  0  1  0  0  3  0  0  0  0  0  0
  188.8930  177.0600  139.4910 C   0  0  2  0  0  3  0  0  0  0  0  0
  189.1940  177.5750  142.2820 C   0  0  1  0  0  3  0  0  0  0  0  0
  191.7020  176.6250  143.5920 C   0  0  0  0  0  2  0  0  0  0  0  0
  190.3170  176.9950  140.0330 C   0  0  0  0  0  2  0  0  0  0  0  0
  189.3700  177.3340  146.4380 C   0  0  0  0  0  0  0  0  0  0  0  0
  188.4060  178.3670  144.4990 C   0  0  0  0  0  3  0  0  0  0  0  0
  191.6830  177.0340  142.1240 C   0  0  0  0  0  2  0  0  0  0  0  0
  188.1680  177.3960  148.4980 C   0  0  0  0  0  3  0  0  0  0  0  0
  190.4540  176.9220  145.7510 C   0  0  0  0  0  0  0  0  0  0  0  0
  189.2590  177.0490  147.7670 N   0  0  0  0  0  0  0  0  0  0  0  0
  188.9210  177.1910  137.9830 C   0  0  0  0  0  1  0  0  0  0  0  0
  188.0980  178.2250  140.0960 C   0  0  0  0  0  2  0  0  0  0  0  0
  190.5590  177.1730  144.3330 N   0  0  0  0  0  0  0  0  0  0  0  0
  187.1050  178.0620  147.8940 C   0  0  0  0  0  3  0  0  0  0  0  0
  188.3210  178.0340  145.7930 C   0  0  0  0  0  0  0  0  0  0  0  0
  186.0050  179.0730  145.9070 C   0  0  0  0  0  2  0  0  0  0  0  0
  184.7830  178.1730  145.9620 C   0  0  0  0  0  2  0  0  0  0  0  0
  183.8260  178.5180  144.8330 C   0  0  0  0  0  2  0  0  0  0  0  0
  184.5070  179.3910  143.7830 C   0  0  0  0  0  2  0  0  0  0  0  0
  184.7370  178.6480  142.4700 C   0  0  2  0  0  3  0  0  0  0  0  0
  185.7070  177.6720  142.6320 F   0  0  0  0  0  0  0  0  0  0  0  0
  184.5220  179.0360  140.3000 C   0  0  0  0  0  1  0  0  0  0  0  0
  185.1160  179.5360  141.4590 O   0  0  0  0  0  0  0  0  0  0  0  0
  1 19  2  0  0  0  0
  4  9  1  6  0  0  0
  4 12  1  0  0  0  0
  4  7  1  0  0  0  0
  5 18  1  0  0  0  0
  5 11  1  1  0  0  0
  6 16  1  6  0  0  0
  6  9  1  0  0  0  0
  6 17  1  0  0  0  0
  7  2  1  6  0  0  0
  7  5  1  0  0  0  0
  8 18  1  0  0  0  0
 10 15  1  0  0  0  0
 11 20  2  0  0  0  0
 12  8  1  0  0  0  0
 14 10  2  0  0  0  0
 14  3  1  0  0  0  0
 15 13  2  0  0  0  0
 17  2  1  0  0  0  0
 18 14  1  0  0  0  0
 19 13  1  0  0  0  0
 20 10  1  0  0  0  0
 20  1  1  0  0  0  0
 21 22  1  0  0  0  0
 21  1  1  0  0  0  0
 23 22  1  0  0  0  0
 24 23  1  0  0  0  0
 25 26  1  1  0  0  0
 25 24  1  0  0  0  0
 27 28  1  0  0  0  0
 28 25  1  0  0  0  0
M  END
>  <MODEL>
2

>  <REMARK>
 VINA RESULT:      -8.7      2.683      5.209
  Name = 
  6 active torsions:
  status: ('A' for Active; 'I' for Inactive)
    1  A    between atoms: C_1  and  C_2
    2  A    between atoms: C_2  and  C_3
    3  A    between atoms: C_3  and  C_8
    4  A    between atoms: C_6  and  C_11
    5  A    between atoms: C_6  and  O_28
    6  A    between atoms: C_8  and  C_11
                            x       y       z     vdW  Elec       q    Type
                         _______ _______ _______ _____ _____    ______ ____

>  <TORSDO>
F 6

$$$$
=
 OpenBabel10272401573D

 28 31  0  0  1  0  0  0  0  0999 V2000
  186.9580  177.8260  145.3610 C   0  0  0  0  0  0  0  0  0  0  0  0
  188.4810  178.3770  140.2810 C   0  0  0  0  0  2  0  0  0  0  0  0
  191.7110  176.6380  145.4460 C   0  0  0  0  0  1  0  0  0  0  0  0
  190.5130  176.8390  140.4960 C   0  0  1  0  0  3  0  0  0  0  0  0
  189.4920  178.0250  142.5550 C   0  0  1  0  0  3  0  0  0  0  0  0
  189.1390  176.7590  138.3980 C   0  0  2  0  0  3  0  0  0  0  0  0
  189.2330  177.3920  141.1800 C   0  0  1  0  0  3  0  0  0  0  0  0
  191.8500  177.0600  142.5770 C   0  0  0  0  0  2  0  0  0  0  0  0
  190.5240  177.0270  138.9760 C   0  0  0  0  0  2  0  0  0  0  0  0
  189.3340  177.2940  145.3430 C   0  0  0  0  0  0  0  0  0  0  0  0
  188.2220  178.0380  143.3530 C   0  0  0  0  0  3  0  0  0  0  0  0
  191.7840  177.4200  141.0970 C   0  0  0  0  0  2  0  0  0  0  0  0
  188.0880  177.1320  147.3720 C   0  0  0  0  0  3  0  0  0  0  0  0
  190.5040  177.1190  144.6950 C   0  0  0  0  0  0  0  0  0  0  0  0
  189.2500  177.0220  146.6780 N   0  0  0  0  0  0  0  0  0  0  0  0
  189.1820  176.8570  136.8890 C   0  0  0  0  0  1  0  0  0  0  0  0
  188.0860  177.7290  138.9490 C   0  0  0  0  0  2  0  0  0  0  0  0
  190.5910  177.3550  143.2730 N   0  0  0  0  0  0  0  0  0  0  0  0
  186.9220  177.5280  146.7230 C   0  0  0  0  0  3  0  0  0  0  0  0
  188.1750  177.7260  144.6530 C   0  0  0  0  0  0  0  0  0  0  0  0
  185.6830  178.2210  144.6820 C   0  0  0  0  0  2  0  0  0  0  0  0
  184.7420  178.8660  145.6850 C   0  0  0  0  0  2  0  0  0  0  0  0
  183.3270  178.9010  145.1310 C   0  0  0  0  0  2  0  0  0  0  0  0
  183.3350  179.1110  143.6190 C   0  0  0  0  0  2  0  0  0  0  0  0
  181.9320  179.0760  143.0200 C   0  0  2  0  0  3  0  0  0  0  0  0
  181.0800  178.3430  143.8300 F   0  0  0  0  0  0  0  0  0  0  0  0
  183.3110  178.4380  141.4100 C   0  0  0  0  0  1  0  0  0  0  0  0
  181.9570  178.5300  141.7330 O   0  0  0  0  0  0  0  0  0  0  0  0
  1 19  2  0  0  0  0
  4  9  1  6  0  0  0
  4 12  1  0  0  0  0
  4  7  1  0  0  0  0
  5 18  1  0  0  0  0
  5 11  1  1  0  0  0
  6 16  1  6  0  0  0
  6 17  1  0  0  0  0
  6  9  1  0  0  0  0
  7  2  1  6  0  0  0
  7  5  1  0  0  0  0
  8 18  1  0  0  0  0
 10 15  1  0  0  0  0
 11 20  2  0  0  0  0
 12  8  1  0  0  0  0
 14 10  2  0  0  0  0
 14  3  1  0  0  0  0
 15 13  2  0  0  0  0
 17  2  1  0  0  0  0
 18 14  1  0  0  0  0
 19 13  1  0  0  0  0
 20 10  1  0  0  0  0
 20  1  1  0  0  0  0
 21  1  1  0  0  0  0
 21 22  1  0  0  0  0
 23 22  1  0  0  0  0
 24 23  1  0  0  0  0
 25 24  1  0  0  0  0
 25 26  1  1  0  0  0
 27 28  1  0  0  0  0
 28 25  1  0  0  0  0
M  END
>  <MODEL>
3

>  <REMARK>
 VINA RESULT:      -8.6      3.344      5.669
  Name = 
  6 active torsions:
  status: ('A' for Active; 'I' for Inactive)
    1  A    between atoms: C_1  and  C_2
    2  A    between atoms: C_2  and  C_3
    3  A    between atoms: C_3  and  C_8
    4  A    between atoms: C_6  and  C_11
    5  A    between atoms: C_6  and  O_28
    6  A    between atoms: C_8  and  C_11
                            x       y       z     vdW  Elec       q    Type
                         _______ _______ _______ _____ _____    ______ ____

>  <TORSDO>
F 6

$$$$
=
 OpenBabel10272401573D

 28 31  0  0  1  0  0  0  0  0999 V2000
  190.3940  176.6330  144.1170 C   0  0  0  0  0  0  0  0  0  0  0  0
  185.2050  177.3520  143.1240 C   0  0  0  0  0  2  0  0  0  0  0  0
  188.5830  178.0800  148.4340 C   0  0  0  0  0  1  0  0  0  0  0  0
  184.8230  178.9310  145.1000 C   0  0  1  0  0  3  0  0  0  0  0  0
  186.7830  177.2440  145.0770 C   0  0  1  0  0  3  0  0  0  0  0  0
  183.6620  179.3960  142.9250 C   0  0  2  0  0  3  0  0  0  0  0  0
  185.8640  178.1540  144.2490 C   0  0  1  0  0  3  0  0  0  0  0  0
  185.9540  178.3300  147.2270 C   0  0  0  0  0  2  0  0  0  0  0  0
  183.4670  179.0940  144.4070 C   0  0  0  0  0  2  0  0  0  0  0  0
  189.4220  177.3090  146.2450 C   0  0  0  0  0  0  0  0  0  0  0  0
  188.0430  176.9660  144.3120 C   0  0  0  0  0  3  0  0  0  0  0  0
  184.6280  178.3130  146.4760 C   0  0  0  0  0  2  0  0  0  0  0  0
  191.7710  176.9240  146.0720 C   0  0  0  0  0  3  0  0  0  0  0  0
  188.3740  177.7030  146.9960 C   0  0  0  0  0  0  0  0  0  0  0  0
  190.6710  177.2640  146.7920 N   0  0  0  0  0  0  0  0  0  0  0  0
  182.3210  179.6460  142.2690 C   0  0  0  0  0  1  0  0  0  0  0  0
  184.3890  178.2580  142.1950 C   0  0  0  0  0  2  0  0  0  0  0  0
  187.0570  177.8030  146.4140 N   0  0  0  0  0  0  0  0  0  0  0  0
  191.6510  176.6100  144.7210 C   0  0  0  0  0  3  0  0  0  0  0  0
  189.2560  176.9710  144.8800 C   0  0  0  0  0  0  0  0  0  0  0  0
  190.2980  176.3200  142.6550 C   0  0  0  0  0  2  0  0  0  0  0  0
  191.0480  177.3690  141.8520 C   0  0  0  0  0  2  0  0  0  0  0  0
  190.8340  177.1430  140.3650 C   0  0  0  0  0  2  0  0  0  0  0  0
  189.3460  177.0920  140.0260 C   0  0  0  0  0  2  0  0  0  0  0  0
  188.7090  178.4790  139.9950 C   0  0  2  0  0  3  0  0  0  0  0  0
  187.8720  178.6490  141.0850 F   0  0  0  0  0  0  0  0  0  0  0  0
  188.9700  178.7500  137.8130 C   0  0  0  0  0  1  0  0  0  0  0  0
  187.9950  178.6680  138.8080 O   0  0  0  0  0  0  0  0  0  0  0  0
  1 19  2  0  0  0  0
  1 20  1  0  0  0  0
  4  9  1  6  0  0  0
  4 12  1  0  0  0  0
  5 11  1  6  0  0  0
  5 18  1  0  0  0  0
  6 16  1  6  0  0  0
  6  9  1  0  0  0  0
  7  2  1  6  0  0  0
  7  5  1  0  0  0  0
  7  4  1  0  0  0  0
 10 15  1  0  0  0  0
 10 14  2  0  0  0  0
 11 20  2  0  0  0  0
 12  8  1  0  0  0  0
 13 15  2  0  0  0  0
 14  3  1  0  0  0  0
 17  6  1  0  0  0  0
 17  2  1  0  0  0  0
 18 14  1  0  0  0  0
 18  8  1  0  0  0  0
 19 13  1  0  0  0  0
 20 10  1  0  0  0  0
 21  1  1  0  0  0  0
 22 21  1  0  0  0  0
 23 22  1  0  0  0  0
 24 23  1  0  0  0  0
 25 24  1  0  0  0  0
 25 26  1  1  0  0  0
 27 28  1  0  0  0  0
 28 25  1  0  0  0  0
M  END
>  <MODEL>
4

>  <REMARK>
 VINA RESULT:      -8.2      2.608      6.803
  Name = 
  6 active torsions:
  status: ('A' for Active; 'I' for Inactive)
    1  A    between atoms: C_1  and  C_2
    2  A    between atoms: C_2  and  C_3
    3  A    between atoms: C_3  and  C_8
    4  A    between atoms: C_6  and  C_11
    5  A    between atoms: C_6  and  O_28
    6  A    between atoms: C_8  and  C_11
                            x       y       z     vdW  Elec       q    Type
                         _______ _______ _______ _____ _____    ______ ____

>  <TORSDO>
F 6

$$$$
=
 OpenBabel10272401573D

 28 31  0  0  1  0  0  0  0  0999 V2000
  187.4850  178.1580  139.6920 C   0  0  0  0  0  0  0  0  0  0  0  0
  187.5820  176.9470  144.8840 C   0  0  0  0  0  2  0  0  0  0  0  0
  192.2340  177.3730  140.6050 C   0  0  0  0  0  1  0  0  0  0  0  0
  190.0450  177.5610  145.2030 C   0  0  1  0  0  3  0  0  0  0  0  0
  189.1020  176.9170  142.8820 C   0  0  1  0  0  3  0  0  0  0  0  0
  188.4000  178.1350  147.0090 C   0  0  2  0  0  3  0  0  0  0  0  0
  188.8240  177.5720  144.2430 C   0  0  1  0  0  3  0  0  0  0  0  0
  191.5980  176.8720  143.3930 C   0  0  0  0  0  2  0  0  0  0  0  0
  189.6650  177.3530  146.6720 C   0  0  0  0  0  2  0  0  0  0  0  0
  189.8230  177.7070  140.2010 C   0  0  0  0  0  0  0  0  0  0  0  0
  188.1210  177.4230  141.8670 C   0  0  0  0  0  3  0  0  0  0  0  0
  191.0910  176.5370  144.7910 C   0  0  0  0  0  2  0  0  0  0  0  0
  189.1880  178.3890  138.0040 C   0  0  0  0  0  3  0  0  0  0  0  0
  190.8070  177.3920  141.0670 C   0  0  0  0  0  0  0  0  0  0  0  0
  190.1310  178.0160  138.9080 N   0  0  0  0  0  0  0  0  0  0  0  0
  188.0850  177.9980  148.4830 C   0  0  0  0  0  1  0  0  0  0  0  0
  187.1960  177.6710  146.1780 C   0  0  0  0  0  2  0  0  0  0  0  0
  190.4980  177.1120  142.4500 N   0  0  0  0  0  0  0  0  0  0  0  0
  187.8510  178.4730  138.3830 C   0  0  0  0  0  3  0  0  0  0  0  0
  188.4710  177.7540  140.6180 C   0  0  0  0  0  0  0  0  0  0  0  0
  186.0440  178.2850  140.0810 C   0  0  0  0  0  2  0  0  0  0  0  0
  185.9200  179.1460  141.3270 C   0  0  0  0  0  2  0  0  0  0  0  0
  184.7440  178.6810  142.1700 C   0  0  0  0  0  2  0  0  0  0  0  0
  184.8430  179.2200  143.5950 C   0  0  0  0  0  2  0  0  0  0  0  0
  183.4820  179.3040  144.2810 C   0  0  2  0  0  3  0  0  0  0  0  0
  183.5920  178.9410  145.6130 F   0  0  0  0  0  0  0  0  0  0  0  0
  181.4430  179.3010  143.4190 C   0  0  0  0  0  1  0  0  0  0  0  0
  182.5520  178.4840  143.6360 O   0  0  0  0  0  0  0  0  0  0  0  0
  1 21  1  0  0  0  0
  1 20  1  0  0  0  0
  2 17  1  0  0  0  0
  3 14  1  0  0  0  0
  4 12  1  6  0  0  0
  4  9  1  0  0  0  0
  5 11  1  6  0  0  0
  5  7  1  0  0  0  0
  6 16  1  1  0  0  0
  7  2  1  1  0  0  0
  7  4  1  0  0  0  0
  8 12  1  0  0  0  0
  9  6  1  0  0  0  0
 10 20  1  0  0  0  0
 10 14  2  0  0  0  0
 13 19  1  0  0  0  0
 13 15  2  0  0  0  0
 14 18  1  0  0  0  0
 15 10  1  0  0  0  0
 17  6  1  0  0  0  0
 18  5  1  0  0  0  0
 18  8  1  0  0  0  0
 19  1  2  0  0  0  0
 20 11  2  0  0  0  0
 21 22  1  0  0  0  0
 22 23  1  0  0  0  0
 23 24  1  0  0  0  0
 24 25  1  0  0  0  0
 25 26  1  1  0  0  0
 27 28  1  0  0  0  0
 28 25  1  0  0  0  0
M  END
>  <MODEL>
5

>  <REMARK>
 VINA RESULT:      -7.8      2.939      6.833
  Name = 
  6 active torsions:
  status: ('A' for Active; 'I' for Inactive)
    1  A    between atoms: C_1  and  C_2
    2  A    between atoms: C_2  and  C_3
    3  A    between atoms: C_3  and  C_8
    4  A    between atoms: C_6  and  C_11
    5  A    between atoms: C_6  and  O_28
    6  A    between atoms: C_8  and  C_11
                            x       y       z     vdW  Elec       q    Type
                         _______ _______ _______ _____ _____    ______ ____

>  <TORSDO>
F 6

$$$$
=
 OpenBabel10272401573D

 28 31  0  0  1  0  0  0  0  0999 V2000
  189.7940  177.8670  142.1330 C   0  0  0  0  0  0  0  0  0  0  0  0
  184.8520  179.5430  143.2310 C   0  0  0  0  0  2  0  0  0  0  0  0
  187.4820  177.5440  137.8250 C   0  0  0  0  0  1  0  0  0  0  0  0
  183.7770  178.3760  141.2240 C   0  0  1  0  0  3  0  0  0  0  0  0
  186.2900  178.9910  141.2440 C   0  0  1  0  0  3  0  0  0  0  0  0
  182.5530  178.4150  143.4140 C   0  0  2  0  0  3  0  0  0  0  0  0
  185.0660  178.5680  142.0700 C   0  0  1  0  0  3  0  0  0  0  0  0
  185.0370  178.4700  139.0870 C   0  0  0  0  0  2  0  0  0  0  0  0
  182.5020  178.8220  141.9450 C   0  0  0  0  0  2  0  0  0  0  0  0
  188.6010  177.7770  140.0120 C   0  0  0  0  0  0  0  0  0  0  0  0
  187.5460  178.6420  141.9850 C   0  0  0  0  0  3  0  0  0  0  0  0
  183.8710  179.0610  139.8700 C   0  0  0  0  0  2  0  0  0  0  0  0
  190.8700  177.0500  140.1390 C   0  0  0  0  0  3  0  0  0  0  0  0
  187.4810  177.9250  139.2760 C   0  0  0  0  0  0  0  0  0  0  0  0
  189.7290  177.2690  139.4360 N   0  0  0  0  0  0  0  0  0  0  0  0
  181.2500  178.7770  144.0950 C   0  0  0  0  0  1  0  0  0  0  0  0
  183.7240  179.0740  144.1550 C   0  0  0  0  0  2  0  0  0  0  0  0
  186.2670  178.4140  139.8870 N   0  0  0  0  0  0  0  0  0  0  0  0
  190.9190  177.3390  141.5000 C   0  0  0  0  0  3  0  0  0  0  0  0
  188.6190  178.1080  141.3890 C   0  0  0  0  0  0  0  0  0  0  0  0
  189.8640  178.1410  143.6040 C   0  0  0  0  0  2  0  0  0  0  0  0
  190.6560  177.0450  144.2960 C   0  0  0  0  0  2  0  0  0  0  0  0
  190.2110  176.9080  145.7420 C   0  0  0  0  0  2  0  0  0  0  0  0
  188.9790  177.7660  146.0200 C   0  0  0  0  0  2  0  0  0  0  0  0
  188.4700  177.6070  147.4510 C   0  0  2  0  0  3  0  0  0  0  0  0
  188.5800  176.2870  147.8570 F   0  0  0  0  0  0  0  0  0  0  0  0
  186.6370  177.9410  146.2560 C   0  0  0  0  0  1  0  0  0  0  0  0
  187.1420  178.0300  147.5530 O   0  0  0  0  0  0  0  0  0  0  0  0
  1 21  1  0  0  0  0
  2 17  1  0  0  0  0
  3 14  1  0  0  0  0
  4 12  1  6  0  0  0
  4  9  1  0  0  0  0
  4  7  1  0  0  0  0
  5 11  1  1  0  0  0
  5  7  1  0  0  0  0
  6 16  1  1  0  0  0
  6 17  1  0  0  0  0
  7  2  1  1  0  0  0
  8 12  1  0  0  0  0
  8 18  1  0  0  0  0
  9  6  1  0  0  0  0
 10 20  1  0  0  0  0
 13 19  1  0  0  0  0
 14 18  1  0  0  0  0
 14 10  2  0  0  0  0
 15 10  1  0  0  0  0
 15 13  2  0  0  0  0
 18  5  1  0  0  0  0
 19  1  2  0  0  0  0
 20 11  2  0  0  0  0
 20  1  1  0  0  0  0
 21 22  1  0  0  0  0
 22 23  1  0  0  0  0
 23 24  1  0  0  0  0
 24 25  1  0  0  0  0
 25 28  1  0  0  0  0
 25 26  1  6  0  0  0
 27 28  1  0  0  0  0
M  END
>  <MODEL>
6

>  <REMARK>
 VINA RESULT:      -7.8      2.132      5.891
  Name = 
  6 active torsions:
  status: ('A' for Active; 'I' for Inactive)
    1  A    between atoms: C_1  and  C_2
    2  A    between atoms: C_2  and  C_3
    3  A    between atoms: C_3  and  C_8
    4  A    between atoms: C_6  and  C_11
    5  A    between atoms: C_6  and  O_28
    6  A    between atoms: C_8  and  C_11
                            x       y       z     vdW  Elec       q    Type
                         _______ _______ _______ _____ _____    ______ ____

>  <TORSDO>
F 6

$$$$
=
 OpenBabel10272401573D

 28 31  0  0  1  0  0  0  0  0999 V2000
  190.0140  177.4910  141.5700 C   0  0  0  0  0  0  0  0  0  0  0  0
  184.7860  177.6690  142.6030 C   0  0  0  0  0  2  0  0  0  0  0  0
  189.8100  177.6630  146.4620 C   0  0  0  0  0  1  0  0  0  0  0  0
  185.0600  178.6950  144.9300 C   0  0  1  0  0  3  0  0  0  0  0  0
  186.9670  177.3520  143.8120 C   0  0  1  0  0  3  0  0  0  0  0  0
  183.1680  179.4640  143.4720 C   0  0  2  0  0  3  0  0  0  0  0  0
  185.7630  178.2840  143.6070 C   0  0  1  0  0  3  0  0  0  0  0  0
  186.9130  177.8010  146.3190 C   0  0  0  0  0  2  0  0  0  0  0  0
  183.5380  178.8140  144.8000 C   0  0  0  0  0  2  0  0  0  0  0  0
  189.8420  177.5290  143.9990 C   0  0  0  0  0  0  0  0  0  0  0  0
  187.8780  177.4340  142.6240 C   0  0  0  0  0  3  0  0  0  0  0  0
  185.4090  177.7630  146.0800 C   0  0  0  0  0  2  0  0  0  0  0  0
  191.9870  177.5300  142.9520 C   0  0  0  0  0  3  0  0  0  0  0  0
  189.1160  177.5920  145.1330 C   0  0  0  0  0  0  0  0  0  0  0  0
  191.2050  177.5410  144.0630 N   0  0  0  0  0  0  0  0  0  0  0  0
  181.6700  179.6620  143.3930 C   0  0  0  0  0  1  0  0  0  0  0  0
  183.6430  178.6340  142.2710 C   0  0  0  0  0  2  0  0  0  0  0  0
  187.6740  177.6310  145.0750 N   0  0  0  0  0  0  0  0  0  0  0  0
  191.4040  177.5120  141.6880 C   0  0  0  0  0  3  0  0  0  0  0  0
  189.2120  177.4840  142.7310 C   0  0  0  0  0  0  0  0  0  0  0  0
  189.4130  177.5020  140.1980 C   0  0  0  0  0  2  0  0  0  0  0  0
  190.3660  176.8480  139.2120 C   0  0  0  0  0  2  0  0  0  0  0  0
  189.7550  176.8380  137.8200 C   0  0  0  0  0  2  0  0  0  0  0  0
  188.2390  177.0020  137.8850 C   0  0  0  0  0  2  0  0  0  0  0  0
  187.7560  178.2400  137.1350 C   0  0  2  0  0  3  0  0  0  0  0  0
  188.7670  179.1840  137.0620 F   0  0  0  0  0  0  0  0  0  0  0  0
  185.6860  177.7640  137.7610 C   0  0  0  0  0  1  0  0  0  0  0  0
  186.6320  178.7890  137.7600 O   0  0  0  0  0  0  0  0  0  0  0  0
  1 19  2  0  0  0  0
  1 20  1  0  0  0  0
  4  9  1  6  0  0  0
  4 12  1  0  0  0  0
  5 11  1  6  0  0  0
  5 18  1  0  0  0  0
  6 16  1  6  0  0  0
  6  9  1  0  0  0  0
  7  2  1  6  0  0  0
  7  5  1  0  0  0  0
  7  4  1  0  0  0  0
 10 15  1  0  0  0  0
 10 14  2  0  0  0  0
 11 20  2  0  0  0  0
 12  8  1  0  0  0  0
 13 15  2  0  0  0  0
 14  3  1  0  0  0  0
 17  2  1  0  0  0  0
 17  6  1  0  0  0  0
 18 14  1  0  0  0  0
 18  8  1  0  0  0  0
 19 13  1  0  0  0  0
 20 10  1  0  0  0  0
 21  1  1  0  0  0  0
 22 21  1  0  0  0  0
 23 24  1  0  0  0  0
 23 22  1  0  0  0  0
 25 26  1  1  0  0  0
 25 28  1  0  0  0  0
 25 24  1  0  0  0  0
 28 27  1  0  0  0  0
M  END
>  <MODEL>
7

>  <REMARK>
 VINA RESULT:      -7.6      3.139      7.596
  Name = 
  6 active torsions:
  status: ('A' for Active; 'I' for Inactive)
    1  A    between atoms: C_1  and  C_2
    2  A    between atoms: C_2  and  C_3
    3  A    between atoms: C_3  and  C_8
    4  A    between atoms: C_6  and  C_11
    5  A    between atoms: C_6  and  O_28
    6  A    between atoms: C_8  and  C_11
                            x       y       z     vdW  Elec       q    Type
                         _______ _______ _______ _____ _____    ______ ____

>  <TORSDO>
F 6

$$$$
=
 OpenBabel10272401573D

 28 31  0  0  1  0  0  0  0  0999 V2000
  186.8480  178.4600  141.0880 C   0  0  0  0  0  0  0  0  0  0  0  0
  190.4480  177.9620  144.9900 C   0  0  0  0  0  2  0  0  0  0  0  0
  184.1320  178.4190  145.1660 C   0  0  0  0  0  1  0  0  0  0  0  0
  188.7890  177.0260  146.6970 C   0  0  1  0  0  3  0  0  0  0  0  0
  188.0020  178.4610  144.6940 C   0  0  1  0  0  3  0  0  0  0  0  0
  191.1150  176.0890  146.6150 C   0  0  2  0  0  3  0  0  0  0  0  0
  189.0260  177.4440  145.2200 C   0  0  1  0  0  3  0  0  0  0  0  0
  186.5430  178.0830  146.7480 C   0  0  0  0  0  2  0  0  0  0  0  0
  190.0840  176.8010  147.4830 C   0  0  0  0  0  2  0  0  0  0  0  0
  185.5600  178.4820  143.1550 C   0  0  0  0  0  0  0  0  0  0  0  0
  187.9570  178.4050  143.1960 C   0  0  0  0  0  3  0  0  0  0  0  0
  187.9000  178.0120  147.4380 C   0  0  0  0  0  2  0  0  0  0  0  0
  184.4430  178.5950  141.0490 C   0  0  0  0  0  3  0  0  0  0  0  0
  185.4750  178.4040  144.4980 C   0  0  0  0  0  0  0  0  0  0  0  0
  184.4220  178.5640  142.4070 N   0  0  0  0  0  0  0  0  0  0  0  0
  192.3560  175.7880  147.4280 C   0  0  0  0  0  1  0  0  0  0  0  0
  191.4950  176.9130  145.3770 C   0  0  0  0  0  2  0  0  0  0  0  0
  186.6710  178.2660  145.2970 N   0  0  0  0  0  0  0  0  0  0  0  0
  185.6560  178.5360  140.3680 C   0  0  0  0  0  3  0  0  0  0  0  0
  186.8150  178.4470  142.4990 C   0  0  0  0  0  0  0  0  0  0  0  0
  188.1360  178.3680  140.3300 C   0  0  0  0  0  2  0  0  0  0  0  0
  187.8570  178.0230  138.8780 C   0  0  0  0  0  2  0  0  0  0  0  0
  188.8640  177.0000  138.3780 C   0  0  0  0  0  2  0  0  0  0  0  0
  190.1670  177.0830  139.1690 C   0  0  0  0  0  2  0  0  0  0  0  0
  191.3360  176.4300  138.4340 C   0  0  2  0  0  3  0  0  0  0  0  0
  191.3830  176.8670  137.1210 F   0  0  0  0  0  0  0  0  0  0  0  0
  191.8410  174.5980  137.2980 C   0  0  0  0  0  1  0  0  0  0  0  0
  191.2270  175.0370  138.4710 O   0  0  0  0  0  0  0  0  0  0  0  0
  1 20  1  0  0  0  0
  2 17  1  0  0  0  0
  4 12  1  1  0  0  0
  4  9  1  0  0  0  0
  5 11  1  6  0  0  0
  5  7  1  0  0  0  0
  5 18  1  0  0  0  0
  6 16  1  1  0  0  0
  6  9  1  0  0  0  0
  7  2  1  1  0  0  0
  7  4  1  0  0  0  0
  8 12  1  0  0  0  0
 10 14  2  0  0  0  0
 13 15  2  0  0  0  0
 14  3  1  0  0  0  0
 14 18  1  0  0  0  0
 15 10  1  0  0  0  0
 17  6  1  0  0  0  0
 18  8  1  0  0  0  0
 19 13  1  0  0  0  0
 19  1  2  0  0  0  0
 20 10  1  0  0  0  0
 20 11  2  0  0  0  0
 21  1  1  0  0  0  0
 22 21  1  0  0  0  0
 23 22  1  0  0  0  0
 23 24  1  0  0  0  0
 25 26  1  6  0  0  0
 25 28  1  0  0  0  0
 25 24  1  0  0  0  0
 27 28  1  0  0  0  0
M  END
>  <MODEL>
8

>  <REMARK>
 VINA RESULT:      -7.4      2.643      6.015
  Name = 
  6 active torsions:
  status: ('A' for Active; 'I' for Inactive)
    1  A    between atoms: C_1  and  C_2
    2  A    between atoms: C_2  and  C_3
    3  A    between atoms: C_3  and  C_8
    4  A    between atoms: C_6  and  C_11
    5  A    between atoms: C_6  and  O_28
    6  A    between atoms: C_8  and  C_11
                            x       y       z     vdW  Elec       q    Type
                         _______ _______ _______ _____ _____    ______ ____

>  <TORSDO>
F 6

$$$$
=
 OpenBabel10272401573D

 28 31  0  0  1  0  0  0  0  0999 V2000
  189.9930  177.6790  142.3150 C   0  0  0  0  0  0  0  0  0  0  0  0
  184.6860  177.7060  142.8220 C   0  0  0  0  0  2  0  0  0  0  0  0
  189.2990  177.9630  147.1570 C   0  0  0  0  0  1  0  0  0  0  0  0
  184.6950  178.7980  145.1360 C   0  0  1  0  0  3  0  0  0  0  0  0
  186.7440  177.4920  144.2490 C   0  0  1  0  0  3  0  0  0  0  0  0
  182.9350  179.4670  143.4780 C   0  0  2  0  0  3  0  0  0  0  0  0
  185.5390  178.3780  143.9010 C   0  0  1  0  0  3  0  0  0  0  0  0
  186.4280  178.0010  146.7250 C   0  0  0  0  0  2  0  0  0  0  0  0
  183.1910  178.8630  144.8540 C   0  0  0  0  0  2  0  0  0  0  0  0
  189.5800  177.7700  144.7130 C   0  0  0  0  0  0  0  0  0  0  0  0
  187.7660  177.5760  143.1550 C   0  0  0  0  0  3  0  0  0  0  0  0
  184.9560  177.9070  146.3400 C   0  0  0  0  0  2  0  0  0  0  0  0
  191.8170  177.8180  143.8830 C   0  0  0  0  0  3  0  0  0  0  0  0
  188.7430  177.8370  145.7680 C   0  0  0  0  0  0  0  0  0  0  0  0
  190.9280  177.8300  144.9110 N   0  0  0  0  0  0  0  0  0  0  0  0
  181.4460  179.6130  143.2470 C   0  0  0  0  0  1  0  0  0  0  0  0
  183.5520  178.6250  142.3530 C   0  0  0  0  0  2  0  0  0  0  0  0
  187.3130  177.8260  145.5670 N   0  0  0  0  0  0  0  0  0  0  0  0
  191.3630  177.7500  142.5690 C   0  0  0  0  0  3  0  0  0  0  0  0
  189.0800  177.6740  143.3910 C   0  0  0  0  0  0  0  0  0  0  0  0
  189.5320  177.6370  140.8910 C   0  0  0  0  0  2  0  0  0  0  0  0
  190.6710  177.1860  139.9920 C   0  0  0  0  0  2  0  0  0  0  0  0
  190.2450  177.2480  138.5350 C   0  0  0  0  0  2  0  0  0  0  0  0
  189.2460  176.1410  138.2080 C   0  0  0  0  0  2  0  0  0  0  0  0
  189.7220  175.2470  137.0650 C   0  0  2  0  0  3  0  0  0  0  0  0
  188.6790  174.9860  136.1920 F   0  0  0  0  0  0  0  0  0  0  0  0
  191.5630  174.0180  137.1070 C   0  0  0  0  0  1  0  0  0  0  0  0
  190.2430  174.0490  137.5600 O   0  0  0  0  0  0  0  0  0  0  0  0
  1 19  2  0  0  0  0
  1 20  1  0  0  0  0
  4  9  1  6  0  0  0
  4 12  1  0  0  0  0
  5 11  1  6  0  0  0
  5 18  1  0  0  0  0
  6 16  1  6  0  0  0
  6  9  1  0  0  0  0
  7  2  1  6  0  0  0
  7  5  1  0  0  0  0
  7  4  1  0  0  0  0
 10 15  1  0  0  0  0
 10 14  2  0  0  0  0
 11 20  2  0  0  0  0
 12  8  1  0  0  0  0
 13 15  2  0  0  0  0
 14  3  1  0  0  0  0
 17  2  1  0  0  0  0
 17  6  1  0  0  0  0
 18 14  1  0  0  0  0
 18  8  1  0  0  0  0
 19 13  1  0  0  0  0
 20 10  1  0  0  0  0
 21  1  1  0  0  0  0
 22 21  1  0  0  0  0
 23 22  1  0  0  0  0
 24 23  1  0  0  0  0
 25 26  1  6  0  0  0
 25 28  1  0  0  0  0
 25 24  1  0  0  0  0
 27 28  1  0  0  0  0
M  END
>  <MODEL>
9

>  <REMARK>
 VINA RESULT:      -7.3      3.272      7.431
  Name = 
  6 active torsions:
  status: ('A' for Active; 'I' for Inactive)
    1  A    between atoms: C_1  and  C_2
    2  A    between atoms: C_2  and  C_3
    3  A    between atoms: C_3  and  C_8
    4  A    between atoms: C_6  and  C_11
    5  A    between atoms: C_6  and  O_28
    6  A    between atoms: C_8  and  C_11
                            x       y       z     vdW  Elec       q    Type
                         _______ _______ _______ _____ _____    ______ ____

>  <TORSDO>
F 6

$$$$
