=
 OpenBabel10272401053D

 27 29  0  0  1  0  0  0  0  0999 V2000
  189.0880  177.9610  144.0820 C   0  0  2  0  0  3  0  0  0  0  0  0
  191.5180  176.2810  147.2110 C   0  0  0  0  0  3  0  0  0  0  0  0
  189.9590  177.3860  145.1610 C   0  0  0  0  0  0  0  0  0  0  0  0
  191.1430  176.6950  144.8570 C   0  0  0  0  0  3  0  0  0  0  0  0
  191.9200  176.1470  145.8800 C   0  0  0  0  0  3  0  0  0  0  0  0
  190.3370  176.9630  147.5190 C   0  0  0  0  0  3  0  0  0  0  0  0
  189.5590  177.5120  146.4960 C   0  0  0  0  0  3  0  0  0  0  0  0
  187.6740  176.8750  143.6760 S   0  0  0  0  0  0  0  0  0  0  0  0
  184.3210  178.8630  145.1880 C   0  0  0  0  0  2  0  0  0  0  0  0
  183.4880  178.7130  143.9190 C   0  0  0  0  0  2  0  0  0  0  0  0
  186.4000  178.1790  143.8140 C   0  0  1  0  0  3  0  0  0  0  0  0
  186.2030  177.7770  146.2410 C   0  0  0  0  0  2  0  0  0  0  0  0
  184.3240  179.0680  142.6970 C   0  0  0  0  0  2  0  0  0  0  0  0
  185.4940  178.0960  142.5860 C   0  0  0  0  0  2  0  0  0  0  0  0
  185.5940  178.0710  145.0920 C   0  0  0  0  0  0  0  0  0  0  0  0
  189.8510  178.2930  142.8880 N   0  0  0  0  0  2  0  0  0  0  0  0
  189.3690  177.4250  141.8270 C   0  0  0  0  0  2  0  0  0  0  0  0
  192.7830  177.2270  140.2180 C   0  0  0  0  0  3  0  0  0  0  0  0
  193.4780  176.7750  137.9590 O   0  0  0  0  0  1  0  0  0  0  0  0
  191.1200  176.8050  138.5010 C   0  0  0  0  0  0  0  0  0  0  0  0
  190.8470  176.5250  137.2010 F   0  0  0  0  0  0  0  0  0  0  0  0
  190.0860  176.9740  139.4530 C   0  0  0  0  0  0  0  0  0  0  0  0
  192.4600  176.9360  138.8910 C   0  0  0  0  0  0  0  0  0  0  0  0
  190.4280  177.2710  140.7860 C   0  0  0  0  0  0  0  0  0  0  0  0
  191.7700  177.3930  141.1630 C   0  0  0  0  0  3  0  0  0  0  0  0
  187.9710  177.8490  138.4400 C   0  0  0  0  0  1  0  0  0  0  0  0
  188.7230  176.8580  139.1260 O   0  0  0  0  0  0  0  0  0  0  0  0
  1 16  1  6  0  0  0
  1  3  1  0  0  0  0
  2  6  1  0  0  0  0
  3  7  1  0  0  0  0
  4  3  2  0  0  0  0
  4  5  1  0  0  0  0
  5  2  2  0  0  0  0
  7  6  2  0  0  0  0
  8  1  1  0  0  0  0
 10  9  1  0  0  0  0
 11  8  1  6  0  0  0
 11 15  1  0  0  0  0
 13 10  1  0  0  0  0
 14 13  1  0  0  0  0
 14 11  1  0  0  0  0
 15  9  1  0  0  0  0
 15 12  2  0  0  0  0
 17 16  1  0  0  0  0
 18 25  1  0  0  0  0
 19 23  1  0  0  0  0
 20 23  1  0  0  0  0
 20 22  2  0  0  0  0
 21 20  1  0  0  0  0
 22 24  1  0  0  0  0
 23 18  2  0  0  0  0
 24 25  2  0  0  0  0
 24 17  1  0  0  0  0
 26 27  1  0  0  0  0
 27 22  1  0  0  0  0
M  END
>  <MODEL>
1

>  <REMARK>
 VINA RESULT:      -8.7      0.000      0.000
  Name = 
  7 active torsions:
  status: ('A' for Active; 'I' for Inactive)
    1  A    between atoms: S_1  and  C_15
    2  A    between atoms: S_1  and  C_18
    3  A    between atoms: N_2  and  C_6
    4  A    between atoms: N_2  and  C_15
    5  A    between atoms: C_6  and  C_17
    6  A    between atoms: C_9  and  C_15
    7  A    between atoms: C_14  and  O_19
                            x       y       z     vdW  Elec       q    Type
                         _______ _______ _______ _____ _____    ______ ____

>  <TORSDO>
F 7

$$$$
=
 OpenBabel10272401053D

 27 29  0  0  1  0  0  0  0  0999 V2000
  188.6660  177.9810  143.9990 C   0  0  2  0  0  3  0  0  0  0  0  0
  191.4240  176.5110  146.9580 C   0  0  0  0  0  3  0  0  0  0  0  0
  189.6050  177.4540  145.0440 C   0  0  0  0  0  0  0  0  0  0  0  0
  189.2780  177.4860  146.4090 C   0  0  0  0  0  3  0  0  0  0  0  0
  190.1840  177.0130  147.3620 C   0  0  0  0  0  3  0  0  0  0  0  0
  191.7570  176.4820  145.6010 C   0  0  0  0  0  3  0  0  0  0  0  0
  190.8510  176.9550  144.6470 C   0  0  0  0  0  3  0  0  0  0  0  0
  187.2150  176.8930  143.7550 S   0  0  0  0  0  0  0  0  0  0  0  0
  183.9980  179.0110  145.3830 C   0  0  0  0  0  2  0  0  0  0  0  0
  183.0770  178.8030  144.1850 C   0  0  0  0  0  2  0  0  0  0  0  0
  185.9680  178.2220  143.9080 C   0  0  1  0  0  3  0  0  0  0  0  0
  185.9370  177.9570  146.3620 C   0  0  0  0  0  2  0  0  0  0  0  0
  183.8290  179.0780  142.8890 C   0  0  0  0  0  2  0  0  0  0  0  0
  184.9770  178.0850  142.7520 C   0  0  0  0  0  2  0  0  0  0  0  0
  185.2520  178.1960  145.2430 C   0  0  0  0  0  0  0  0  0  0  0  0
  189.3460  178.2340  142.7380 N   0  0  0  0  0  2  0  0  0  0  0  0
  188.4250  177.8550  141.6800 C   0  0  0  0  0  2  0  0  0  0  0  0
  191.1290  176.5230  139.4010 C   0  0  0  0  0  3  0  0  0  0  0  0
  191.3760  176.5400  137.0070 O   0  0  0  0  0  1  0  0  0  0  0  0
  189.4260  177.5570  138.0170 C   0  0  0  0  0  0  0  0  0  0  0  0
  188.9880  177.8840  136.7730 F   0  0  0  0  0  0  0  0  0  0  0  0
  188.6840  177.8990  139.1730 C   0  0  0  0  0  0  0  0  0  0  0  0
  190.6430  176.8740  138.1400 C   0  0  0  0  0  0  0  0  0  0  0  0
  189.1900  177.5410  140.4370 C   0  0  0  0  0  0  0  0  0  0  0  0
  190.4050  176.8540  140.5460 C   0  0  0  0  0  3  0  0  0  0  0  0
  186.3130  178.1330  138.4080 C   0  0  0  0  0  1  0  0  0  0  0  0
  187.4580  178.5840  139.1170 O   0  0  0  0  0  0  0  0  0  0  0  0
  1 16  1  6  0  0  0
  1  3  1  0  0  0  0
  2  5  1  0  0  0  0
  3  4  1  0  0  0  0
  4  5  2  0  0  0  0
  6  2  2  0  0  0  0
  7  3  2  0  0  0  0
  7  6  1  0  0  0  0
  8  1  1  0  0  0  0
 10  9  1  0  0  0  0
 11  8  1  1  0  0  0
 11 15  1  0  0  0  0
 13 10  1  0  0  0  0
 14 13  1  0  0  0  0
 14 11  1  0  0  0  0
 15  9  1  0  0  0  0
 15 12  2  0  0  0  0
 17 16  1  0  0  0  0
 18 25  1  0  0  0  0
 19 23  1  0  0  0  0
 20 23  1  0  0  0  0
 20 22  2  0  0  0  0
 21 20  1  0  0  0  0
 22 24  1  0  0  0  0
 23 18  2  0  0  0  0
 24 25  2  0  0  0  0
 24 17  1  0  0  0  0
 26 27  1  0  0  0  0
 27 22  1  0  0  0  0
M  END
>  <MODEL>
2

>  <REMARK>
 VINA RESULT:      -8.6      1.073      1.542
  Name = 
  7 active torsions:
  status: ('A' for Active; 'I' for Inactive)
    1  A    between atoms: S_1  and  C_15
    2  A    between atoms: S_1  and  C_18
    3  A    between atoms: N_2  and  C_6
    4  A    between atoms: N_2  and  C_15
    5  A    between atoms: C_6  and  C_17
    6  A    between atoms: C_9  and  C_15
    7  A    between atoms: C_14  and  O_19
                            x       y       z     vdW  Elec       q    Type
                         _______ _______ _______ _____ _____    ______ ____

>  <TORSDO>
F 7

$$$$
=
 OpenBabel10272401053D

 27 29  0  0  1  0  0  0  0  0999 V2000
  187.6110  177.3190  143.7330 C   0  0  2  0  0  3  0  0  0  0  0  0
  183.8870  178.9230  145.1730 C   0  0  0  0  0  3  0  0  0  0  0  0
  186.2980  177.8610  144.2160 C   0  0  0  0  0  0  0  0  0  0  0  0
  185.2920  178.2570  143.3190 C   0  0  0  0  0  3  0  0  0  0  0  0
  184.0900  178.7830  143.7980 C   0  0  0  0  0  3  0  0  0  0  0  0
  184.8860  178.5360  146.0700 C   0  0  0  0  0  3  0  0  0  0  0  0
  186.0900  178.0090  145.5920 C   0  0  0  0  0  3  0  0  0  0  0  0
  189.0350  178.2760  144.3670 S   0  0  0  0  0  0  0  0  0  0  0  0
  190.9130  176.2260  147.4910 C   0  0  0  0  0  2  0  0  0  0  0  0
  192.2190  175.9940  146.7370 C   0  0  0  0  0  2  0  0  0  0  0  0
  189.8180  176.8730  145.2410 C   0  0  1  0  0  3  0  0  0  0  0  0
  189.0410  177.7480  147.4140 C   0  0  0  0  0  2  0  0  0  0  0  0
  191.9300  175.5020  145.3250 C   0  0  0  0  0  2  0  0  0  0  0  0
  191.1570  176.5750  144.5660 C   0  0  0  0  0  2  0  0  0  0  0  0
  190.0040  177.1410  146.7210 C   0  0  0  0  0  0  0  0  0  0  0  0
  187.6550  177.2190  142.2820 N   0  0  0  0  0  2  0  0  0  0  0  0
  188.4910  178.3100  141.8100 C   0  0  0  0  0  2  0  0  0  0  0  0
  191.2390  176.7580  139.7310 C   0  0  0  0  0  3  0  0  0  0  0  0
  191.5130  176.4970  137.3550 O   0  0  0  0  0  1  0  0  0  0  0  0
  189.5380  177.5970  138.2180 C   0  0  0  0  0  0  0  0  0  0  0  0
  189.1110  177.7690  136.9400 F   0  0  0  0  0  0  0  0  0  0  0  0
  188.7790  178.0620  139.3190 C   0  0  0  0  0  0  0  0  0  0  0  0
  190.7630  176.9510  138.4330 C   0  0  0  0  0  0  0  0  0  0  0  0
  189.2750  177.8630  140.6210 C   0  0  0  0  0  0  0  0  0  0  0  0
  190.4970  177.2120  140.8220 C   0  0  0  0  0  3  0  0  0  0  0  0
  186.3820  178.1310  138.6030 C   0  0  0  0  0  1  0  0  0  0  0  0
  187.5450  178.7190  139.1700 O   0  0  0  0  0  0  0  0  0  0  0  0
  1 16  1  6  0  0  0
  1  3  1  0  0  0  0
  1  8  1  0  0  0  0
  2  6  1  0  0  0  0
  3  7  1  0  0  0  0
  4  5  1  0  0  0  0
  4  3  2  0  0  0  0
  5  2  2  0  0  0  0
  7  6  2  0  0  0  0
 10  9  1  0  0  0  0
 11  8  1  6  0  0  0
 11 15  1  0  0  0  0
 13 10  1  0  0  0  0
 14 11  1  0  0  0  0
 14 13  1  0  0  0  0
 15 12  2  0  0  0  0
 15  9  1  0  0  0  0
 17 16  1  0  0  0  0
 18 25  1  0  0  0  0
 19 23  1  0  0  0  0
 20 23  1  0  0  0  0
 20 22  2  0  0  0  0
 21 20  1  0  0  0  0
 22 24  1  0  0  0  0
 23 18  2  0  0  0  0
 24 25  2  0  0  0  0
 24 17  1  0  0  0  0
 26 27  1  0  0  0  0
 27 22  1  0  0  0  0
M  END
>  <MODEL>
3

>  <REMARK>
 VINA RESULT:      -8.4      1.293      4.716
  Name = 
  7 active torsions:
  status: ('A' for Active; 'I' for Inactive)
    1  A    between atoms: S_1  and  C_15
    2  A    between atoms: S_1  and  C_18
    3  A    between atoms: N_2  and  C_6
    4  A    between atoms: N_2  and  C_15
    5  A    between atoms: C_6  and  C_17
    6  A    between atoms: C_9  and  C_15
    7  A    between atoms: C_14  and  O_19
                            x       y       z     vdW  Elec       q    Type
                         _______ _______ _______ _____ _____    ______ ____

>  <TORSDO>
F 7

$$$$
=
 OpenBabel10272401053D

 27 29  0  0  1  0  0  0  0  0999 V2000
  188.1030  177.8250  142.5350 C   0  0  2  0  0  3  0  0  0  0  0  0
  191.5790  177.3750  140.0400 C   0  0  0  0  0  3  0  0  0  0  0  0
  189.3050  177.6900  141.6470 C   0  0  0  0  0  0  0  0  0  0  0  0
  189.1820  177.6300  140.2490 C   0  0  0  0  0  3  0  0  0  0  0  0
  190.3170  177.4760  139.4490 C   0  0  0  0  0  3  0  0  0  0  0  0
  191.7070  177.4270  141.4300 C   0  0  0  0  0  3  0  0  0  0  0  0
  190.5720  177.5820  142.2320 C   0  0  0  0  0  3  0  0  0  0  0  0
  188.0330  176.5220  143.8170 S   0  0  0  0  0  0  0  0  0  0  0  0
  189.0820  178.0380  147.5700 C   0  0  0  0  0  2  0  0  0  0  0  0
  187.6910  177.8820  148.1750 C   0  0  0  0  0  2  0  0  0  0  0  0
  188.0280  177.6710  145.2400 C   0  0  1  0  0  3  0  0  0  0  0  0
  190.3690  177.0920  145.7600 C   0  0  0  0  0  2  0  0  0  0  0  0
  186.6360  178.4040  147.2080 C   0  0  0  0  0  2  0  0  0  0  0  0
  186.6670  177.5720  145.9300 C   0  0  0  0  0  2  0  0  0  0  0  0
  189.1530  177.3940  146.2150 C   0  0  0  0  0  0  0  0  0  0  0  0
  186.8660  177.8700  141.7690 N   0  0  0  0  0  2  0  0  0  0  0  0
  186.2950  179.1920  141.9680 C   0  0  0  0  0  2  0  0  0  0  0  0
  183.3110  179.1620  144.2860 C   0  0  0  0  0  3  0  0  0  0  0  0
  180.9640  178.8050  143.8910 O   0  0  0  0  0  1  0  0  0  0  0  0
  182.5180  178.7090  142.0380 C   0  0  0  0  0  0  0  0  0  0  0  0
  181.4720  178.4440  141.2120 F   0  0  0  0  0  0  0  0  0  0  0  0
  183.8430  178.7940  141.5460 C   0  0  0  0  0  0  0  0  0  0  0  0
  182.2630  178.8910  143.4040 C   0  0  0  0  0  0  0  0  0  0  0  0
  184.8880  179.0630  142.4500 C   0  0  0  0  0  0  0  0  0  0  0  0
  184.6190  179.2490  143.8100 C   0  0  0  0  0  3  0  0  0  0  0  0
  183.8430  179.5420  139.1580 C   0  0  0  0  0  1  0  0  0  0  0  0
  184.1640  178.6190  140.1890 O   0  0  0  0  0  0  0  0  0  0  0  0
  1 16  1  6  0  0  0
  1  8  1  0  0  0  0
  2  6  1  0  0  0  0
  3  7  1  0  0  0  0
  3  1  1  0  0  0  0
  4  3  2  0  0  0  0
  5  2  2  0  0  0  0
  5  4  1  0  0  0  0
  6  7  2  0  0  0  0
  9 10  1  0  0  0  0
 11  8  1  6  0  0  0
 11 14  1  0  0  0  0
 11 15  1  0  0  0  0
 12 15  2  0  0  0  0
 13 10  1  0  0  0  0
 14 13  1  0  0  0  0
 15  9  1  0  0  0  0
 16 17  1  0  0  0  0
 17 24  1  0  0  0  0
 20 23  1  0  0  0  0
 21 20  1  0  0  0  0
 22 20  2  0  0  0  0
 22 24  1  0  0  0  0
 23 19  1  0  0  0  0
 23 18  2  0  0  0  0
 24 25  2  0  0  0  0
 25 18  1  0  0  0  0
 26 27  1  0  0  0  0
 27 22  1  0  0  0  0
M  END
>  <MODEL>
4

>  <REMARK>
 VINA RESULT:      -8.4      3.204      6.628
  Name = 
  7 active torsions:
  status: ('A' for Active; 'I' for Inactive)
    1  A    between atoms: S_1  and  C_15
    2  A    between atoms: S_1  and  C_18
    3  A    between atoms: N_2  and  C_6
    4  A    between atoms: N_2  and  C_15
    5  A    between atoms: C_6  and  C_17
    6  A    between atoms: C_9  and  C_15
    7  A    between atoms: C_14  and  O_19
                            x       y       z     vdW  Elec       q    Type
                         _______ _______ _______ _____ _____    ______ ____

>  <TORSDO>
F 7

$$$$
=
 OpenBabel10272401053D

 27 29  0  0  1  0  0  0  0  0999 V2000
  187.6130  177.3020  143.7300 C   0  0  2  0  0  3  0  0  0  0  0  0
  183.8070  178.9900  144.8170 C   0  0  0  0  0  3  0  0  0  0  0  0
  186.2990  177.9100  144.1270 C   0  0  0  0  0  0  0  0  0  0  0  0
  185.9860  178.1670  145.4720 C   0  0  0  0  0  3  0  0  0  0  0  0
  184.7440  178.7080  145.8130 C   0  0  0  0  0  3  0  0  0  0  0  0
  184.1110  178.7310  143.4770 C   0  0  0  0  0  3  0  0  0  0  0  0
  185.3530  178.1890  143.1350 C   0  0  0  0  0  3  0  0  0  0  0  0
  189.0410  178.2560  144.3600 S   0  0  0  0  0  0  0  0  0  0  0  0
  190.9030  176.2110  147.4950 C   0  0  0  0  0  2  0  0  0  0  0  0
  192.2120  175.9770  146.7480 C   0  0  0  0  0  2  0  0  0  0  0  0
  189.8190  176.8550  145.2400 C   0  0  1  0  0  3  0  0  0  0  0  0
  189.0330  177.7350  147.4080 C   0  0  0  0  0  2  0  0  0  0  0  0
  191.9290  175.4830  145.3350 C   0  0  0  0  0  2  0  0  0  0  0  0
  191.1600  176.5540  144.5710 C   0  0  0  0  0  2  0  0  0  0  0  0
  189.9990  177.1250  146.7200 C   0  0  0  0  0  0  0  0  0  0  0  0
  187.7080  177.1100  142.2910 N   0  0  0  0  0  2  0  0  0  0  0  0
  188.7470  178.0070  141.8150 C   0  0  0  0  0  2  0  0  0  0  0  0
  187.9660  178.1800  138.1210 C   0  0  0  0  0  3  0  0  0  0  0  0
  189.2420  177.5760  136.1720 O   0  0  0  0  0  1  0  0  0  0  0  0
  190.1960  177.2560  138.3730 C   0  0  0  0  0  0  0  0  0  0  0  0
  191.3160  176.7620  137.7840 F   0  0  0  0  0  0  0  0  0  0  0  0
  190.0830  177.3500  139.7810 C   0  0  0  0  0  0  0  0  0  0  0  0
  189.1360  177.6700  137.5550 C   0  0  0  0  0  0  0  0  0  0  0  0
  188.8950  177.8630  140.3360 C   0  0  0  0  0  0  0  0  0  0  0  0
  187.8470  178.2770  139.5070 C   0  0  0  0  0  3  0  0  0  0  0  0
  192.3790  177.5800  140.7500 C   0  0  0  0  0  1  0  0  0  0  0  0
  191.1080  176.9500  140.6560 O   0  0  0  0  0  0  0  0  0  0  0  0
  1 16  1  6  0  0  0
  1  3  1  0  0  0  0
  1  8  1  0  0  0  0
  2  5  1  0  0  0  0
  3  4  1  0  0  0  0
  4  5  2  0  0  0  0
  6  2  2  0  0  0  0
  7  6  1  0  0  0  0
  7  3  2  0  0  0  0
 10  9  1  0  0  0  0
 11  8  1  6  0  0  0
 11 15  1  0  0  0  0
 13 10  1  0  0  0  0
 14 11  1  0  0  0  0
 14 13  1  0  0  0  0
 15 12  2  0  0  0  0
 15  9  1  0  0  0  0
 17 16  1  0  0  0  0
 18 25  1  0  0  0  0
 19 23  1  0  0  0  0
 20 22  2  0  0  0  0
 21 20  1  0  0  0  0
 22 24  1  0  0  0  0
 22 27  1  0  0  0  0
 23 18  2  0  0  0  0
 23 20  1  0  0  0  0
 24 17  1  0  0  0  0
 25 24  2  0  0  0  0
 27 26  1  0  0  0  0
M  END
>  <MODEL>
5

>  <REMARK>
 VINA RESULT:      -8.2      1.354      5.119
  Name = 
  7 active torsions:
  status: ('A' for Active; 'I' for Inactive)
    1  A    between atoms: S_1  and  C_15
    2  A    between atoms: S_1  and  C_18
    3  A    between atoms: N_2  and  C_6
    4  A    between atoms: N_2  and  C_15
    5  A    between atoms: C_6  and  C_17
    6  A    between atoms: C_9  and  C_15
    7  A    between atoms: C_14  and  O_19
                            x       y       z     vdW  Elec       q    Type
                         _______ _______ _______ _____ _____    ______ ____

>  <TORSDO>
F 7

$$$$
=
 OpenBabel10272401053D

 27 29  0  0  1  0  0  0  0  0999 V2000
  188.3370  177.0370  143.2340 C   0  0  2  0  0  3  0  0  0  0  0  0
  190.2220  177.1270  147.1010 C   0  0  0  0  0  3  0  0  0  0  0  0
  189.0150  177.0850  144.5710 C   0  0  0  0  0  0  0  0  0  0  0  0
  190.3990  176.8850  144.7000 C   0  0  0  0  0  3  0  0  0  0  0  0
  190.9990  176.9090  145.9610 C   0  0  0  0  0  3  0  0  0  0  0  0
  188.8430  177.3220  146.9800 C   0  0  0  0  0  3  0  0  0  0  0  0
  188.2410  177.2980  145.7180 C   0  0  0  0  0  3  0  0  0  0  0  0
  188.9160  178.3590  142.1100 S   0  0  0  0  0  0  0  0  0  0  0  0
  191.2490  176.7150  139.0540 C   0  0  0  0  0  2  0  0  0  0  0  0
  190.3040  177.1200  137.9270 C   0  0  0  0  0  2  0  0  0  0  0  0
  189.3540  177.2420  140.7300 C   0  0  1  0  0  3  0  0  0  0  0  0
  191.7460  177.4010  141.3140 C   0  0  0  0  0  2  0  0  0  0  0  0
  188.8660  176.7840  138.3010 C   0  0  0  0  0  2  0  0  0  0  0  0
  188.4650  177.5860  139.5350 C   0  0  0  0  0  2  0  0  0  0  0  0
  190.8200  177.3240  140.3580 C   0  0  0  0  0  0  0  0  0  0  0  0
  186.8870  177.0590  143.3610 N   0  0  0  0  0  2  0  0  0  0  0  0
  186.4220  178.2510  142.6730 C   0  0  0  0  0  2  0  0  0  0  0  0
  183.2180  178.9020  144.5680 C   0  0  0  0  0  3  0  0  0  0  0  0
  180.9350  179.1350  143.8460 O   0  0  0  0  0  1  0  0  0  0  0  0
  182.6680  178.7010  142.2140 C   0  0  0  0  0  0  0  0  0  0  0  0
  181.7180  178.7160  141.2430 F   0  0  0  0  0  0  0  0  0  0  0  0
  184.0310  178.4710  141.9080 C   0  0  0  0  0  0  0  0  0  0  0  0
  182.2720  178.9120  143.5410 C   0  0  0  0  0  0  0  0  0  0  0  0
  184.9710  178.4600  142.9560 C   0  0  0  0  0  0  0  0  0  0  0  0
  184.5630  178.6770  144.2760 C   0  0  0  0  0  3  0  0  0  0  0  0
  184.4480  179.2150  139.5550 C   0  0  0  0  0  1  0  0  0  0  0  0
  184.4910  178.2510  140.5980 O   0  0  0  0  0  0  0  0  0  0  0  0
  1  8  1  6  0  0  0
  1 16  1  0  0  0  0
  1  3  1  0  0  0  0
  3  4  2  0  0  0  0
  3  7  1  0  0  0  0
  4  5  1  0  0  0  0
  5  2  2  0  0  0  0
  6  2  1  0  0  0  0
  7  6  2  0  0  0  0
  9 15  1  0  0  0  0
 10 13  1  0  0  0  0
 10  9  1  0  0  0  0
 11  8  1  1  0  0  0
 13 14  1  0  0  0  0
 14 11  1  0  0  0  0
 15 11  1  0  0  0  0
 15 12  2  0  0  0  0
 17 24  1  0  0  0  0
 17 16  1  0  0  0  0
 20 23  1  0  0  0  0
 21 20  1  0  0  0  0
 22 20  2  0  0  0  0
 22 24  1  0  0  0  0
 23 19  1  0  0  0  0
 23 18  2  0  0  0  0
 24 25  2  0  0  0  0
 25 18  1  0  0  0  0
 26 27  1  0  0  0  0
 27 22  1  0  0  0  0
M  END
>  <MODEL>
6

>  <REMARK>
 VINA RESULT:      -8.2      3.132      6.717
  Name = 
  7 active torsions:
  status: ('A' for Active; 'I' for Inactive)
    1  A    between atoms: S_1  and  C_15
    2  A    between atoms: S_1  and  C_18
    3  A    between atoms: N_2  and  C_6
    4  A    between atoms: N_2  and  C_15
    5  A    between atoms: C_6  and  C_17
    6  A    between atoms: C_9  and  C_15
    7  A    between atoms: C_14  and  O_19
                            x       y       z     vdW  Elec       q    Type
                         _______ _______ _______ _____ _____    ______ ____

>  <TORSDO>
F 7

$$$$
=
 OpenBabel10272401053D

 27 29  0  0  1  0  0  0  0  0999 V2000
  189.0720  177.7030  143.9860 C   0  0  2  0  0  3  0  0  0  0  0  0
  191.6970  176.2780  147.0840 C   0  0  0  0  0  3  0  0  0  0  0  0
  190.0110  177.2150  145.0510 C   0  0  0  0  0  0  0  0  0  0  0  0
  191.1620  176.4760  144.7330 C   0  0  0  0  0  3  0  0  0  0  0  0
  192.0030  176.0120  145.7470 C   0  0  0  0  0  3  0  0  0  0  0  0
  190.5500  177.0090  147.4070 C   0  0  0  0  0  3  0  0  0  0  0  0
  189.7080  177.4730  146.3930 C   0  0  0  0  0  3  0  0  0  0  0  0
  187.9150  176.4010  143.4290 S   0  0  0  0  0  0  0  0  0  0  0  0
  184.9160  179.1970  144.2480 C   0  0  0  0  0  2  0  0  0  0  0  0
  185.3720  179.4730  145.6780 C   0  0  0  0  0  2  0  0  0  0  0  0
  186.4400  177.1110  144.2440 C   0  0  1  0  0  3  0  0  0  0  0  0
  185.8600  178.3530  142.1930 C   0  0  0  0  0  2  0  0  0  0  0  0
  185.6630  178.1630  146.3980 C   0  0  0  0  0  2  0  0  0  0  0  0
  186.8060  177.4410  145.6920 C   0  0  0  0  0  2  0  0  0  0  0  0
  185.9090  178.3340  143.5250 C   0  0  0  0  0  0  0  0  0  0  0  0
  189.7860  178.2830  142.8590 N   0  0  0  0  0  2  0  0  0  0  0  0
  189.2820  177.6320  141.6610 C   0  0  0  0  0  2  0  0  0  0  0  0
  192.7920  177.2710  140.3070 C   0  0  0  0  0  3  0  0  0  0  0  0
  193.6280  176.6900  138.1270 O   0  0  0  0  0  1  0  0  0  0  0  0
  191.2400  176.8050  138.5000 C   0  0  0  0  0  0  0  0  0  0  0  0
  191.0490  176.4670  137.1990 F   0  0  0  0  0  0  0  0  0  0  0  0
  190.1480  177.0460  139.3680 C   0  0  0  0  0  0  0  0  0  0  0  0
  192.5530  176.9220  138.9760 C   0  0  0  0  0  0  0  0  0  0  0  0
  190.4050  177.4000  140.7060 C   0  0  0  0  0  0  0  0  0  0  0  0
  191.7210  177.5080  141.1690 C   0  0  0  0  0  3  0  0  0  0  0  0
  188.1940  177.8040  137.9990 C   0  0  0  0  0  1  0  0  0  0  0  0
  188.8080  176.9470  138.9520 O   0  0  0  0  0  0  0  0  0  0  0  0
  1 16  1  6  0  0  0
  1  3  1  0  0  0  0
  2  6  1  0  0  0  0
  3  7  1  0  0  0  0
  4  3  2  0  0  0  0
  4  5  1  0  0  0  0
  5  2  2  0  0  0  0
  7  6  2  0  0  0  0
  8  1  1  0  0  0  0
  9 10  1  0  0  0  0
 10 13  1  0  0  0  0
 11  8  1  6  0  0  0
 11 14  1  0  0  0  0
 12 15  2  0  0  0  0
 14 13  1  0  0  0  0
 15 11  1  0  0  0  0
 15  9  1  0  0  0  0
 17 16  1  0  0  0  0
 18 25  1  0  0  0  0
 19 23  1  0  0  0  0
 20 23  1  0  0  0  0
 20 22  2  0  0  0  0
 21 20  1  0  0  0  0
 22 24  1  0  0  0  0
 23 18  2  0  0  0  0
 24 25  2  0  0  0  0
 24 17  1  0  0  0  0
 26 27  1  0  0  0  0
 27 22  1  0  0  0  0
M  END
>  <MODEL>
7

>  <REMARK>
 VINA RESULT:      -8.1      0.629      1.475
  Name = 
  7 active torsions:
  status: ('A' for Active; 'I' for Inactive)
    1  A    between atoms: S_1  and  C_15
    2  A    between atoms: S_1  and  C_18
    3  A    between atoms: N_2  and  C_6
    4  A    between atoms: N_2  and  C_15
    5  A    between atoms: C_6  and  C_17
    6  A    between atoms: C_9  and  C_15
    7  A    between atoms: C_14  and  O_19
                            x       y       z     vdW  Elec       q    Type
                         _______ _______ _______ _____ _____    ______ ____

>  <TORSDO>
F 7

$$$$
=
 OpenBabel10272401053D

 27 29  0  0  1  0  0  0  0  0999 V2000
  188.5410  177.9140  141.8840 C   0  0  2  0  0  3  0  0  0  0  0  0
  190.4660  177.2410  138.0940 C   0  0  0  0  0  3  0  0  0  0  0  0
  189.2110  177.7080  140.5560 C   0  0  0  0  0  0  0  0  0  0  0  0
  188.7120  178.2970  139.3830 C   0  0  0  0  0  3  0  0  0  0  0  0
  189.3400  178.0650  138.1570 C   0  0  0  0  0  3  0  0  0  0  0  0
  190.9640  176.6470  139.2580 C   0  0  0  0  0  3  0  0  0  0  0  0
  190.3360  176.8790  140.4850 C   0  0  0  0  0  3  0  0  0  0  0  0
  188.6270  176.4260  142.9450 S   0  0  0  0  0  0  0  0  0  0  0  0
  191.4880  176.8910  145.9590 C   0  0  0  0  0  2  0  0  0  0  0  0
  190.4790  176.9180  147.1030 C   0  0  0  0  0  2  0  0  0  0  0  0
  189.5220  177.2370  144.3180 C   0  0  1  0  0  3  0  0  0  0  0  0
  191.6080  176.0780  143.6890 C   0  0  0  0  0  2  0  0  0  0  0  0
  189.3150  177.8370  146.7560 C   0  0  0  0  0  2  0  0  0  0  0  0
  188.5910  177.2940  145.5290 C   0  0  0  0  0  2  0  0  0  0  0  0
  190.8190  176.5340  144.6620 C   0  0  0  0  0  0  0  0  0  0  0  0
  187.1670  178.3670  141.7330 N   0  0  0  0  0  2  0  0  0  0  0  0
  186.4240  177.8470  142.8680 C   0  0  0  0  0  2  0  0  0  0  0  0
  183.0900  178.7830  141.3570 C   0  0  0  0  0  3  0  0  0  0  0  0
  180.9630  179.3190  142.3470 O   0  0  0  0  0  1  0  0  0  0  0  0
  182.8450  178.7880  143.7710 C   0  0  0  0  0  0  0  0  0  0  0  0
  182.0440  178.9760  144.8510 F   0  0  0  0  0  0  0  0  0  0  0  0
  184.2080  178.4290  143.9150 C   0  0  0  0  0  0  0  0  0  0  0  0
  182.2980  178.9640  142.4930 C   0  0  0  0  0  0  0  0  0  0  0  0
  184.9930  178.2550  142.7600 C   0  0  0  0  0  0  0  0  0  0  0  0
  184.4320  178.4290  141.4900 C   0  0  0  0  0  3  0  0  0  0  0  0
  185.2650  179.2890  146.0150 C   0  0  0  0  0  1  0  0  0  0  0  0
  184.8160  178.2400  145.1690 O   0  0  0  0  0  0  0  0  0  0  0  0
  1 16  1  6  0  0  0
  1  8  1  0  0  0  0
  2  5  2  0  0  0  0
  2  6  1  0  0  0  0
  3  1  1  0  0  0  0
  4  3  2  0  0  0  0
  5  4  1  0  0  0  0
  6  7  2  0  0  0  0
  7  3  1  0  0  0  0
  9 10  1  0  0  0  0
 11  8  1  6  0  0  0
 11 15  1  0  0  0  0
 11 14  1  0  0  0  0
 12 15  2  0  0  0  0
 13 10  1  0  0  0  0
 14 13  1  0  0  0  0
 15  9  1  0  0  0  0
 16 17  1  0  0  0  0
 18 25  2  0  0  0  0
 18 23  1  0  0  0  0
 19 23  1  0  0  0  0
 20 22  1  0  0  0  0
 20 21  1  0  0  0  0
 22 27  1  0  0  0  0
 23 20  2  0  0  0  0
 24 17  1  0  0  0  0
 24 22  2  0  0  0  0
 25 24  1  0  0  0  0
 27 26  1  0  0  0  0
M  END
>  <MODEL>
8

>  <REMARK>
 VINA RESULT:      -8.0      3.672      7.490
  Name = 
  7 active torsions:
  status: ('A' for Active; 'I' for Inactive)
    1  A    between atoms: S_1  and  C_15
    2  A    between atoms: S_1  and  C_18
    3  A    between atoms: N_2  and  C_6
    4  A    between atoms: N_2  and  C_15
    5  A    between atoms: C_6  and  C_17
    6  A    between atoms: C_9  and  C_15
    7  A    between atoms: C_14  and  O_19
                            x       y       z     vdW  Elec       q    Type
                         _______ _______ _______ _____ _____    ______ ____

>  <TORSDO>
F 7

$$$$
=
 OpenBabel10272401053D

 27 29  0  0  1  0  0  0  0  0999 V2000
  187.5700  177.8330  141.7100 C   0  0  2  0  0  3  0  0  0  0  0  0
  190.4390  177.1290  138.5810 C   0  0  0  0  0  3  0  0  0  0  0  0
  188.5650  177.6150  140.6080 C   0  0  0  0  0  0  0  0  0  0  0  0
  188.2610  177.9260  139.2730 C   0  0  0  0  0  3  0  0  0  0  0  0
  189.1980  177.6860  138.2640 C   0  0  0  0  0  3  0  0  0  0  0  0
  190.7440  176.8110  139.9080 C   0  0  0  0  0  3  0  0  0  0  0  0
  189.8080  177.0510  140.9180 C   0  0  0  0  0  3  0  0  0  0  0  0
  186.3780  179.1640  141.3190 S   0  0  0  0  0  0  0  0  0  0  0  0
  182.4400  178.2430  142.3800 C   0  0  0  0  0  2  0  0  0  0  0  0
  182.4300  179.1080  143.6350 C   0  0  0  0  0  2  0  0  0  0  0  0
  185.0120  178.4830  142.3260 C   0  0  1  0  0  3  0  0  0  0  0  0
  183.6550  178.1120  140.2980 C   0  0  0  0  0  2  0  0  0  0  0  0
  183.7020  178.8800  144.4410 C   0  0  0  0  0  2  0  0  0  0  0  0
  184.9080  179.3060  143.6110 C   0  0  0  0  0  2  0  0  0  0  0  0
  183.6920  178.4680  141.5820 C   0  0  0  0  0  0  0  0  0  0  0  0
  188.2220  178.0770  142.9880 N   0  0  0  0  0  2  0  0  0  0  0  0
  188.0080  176.8930  143.8020 C   0  0  0  0  0  2  0  0  0  0  0  0
  187.0330  177.9750  147.2890 C   0  0  0  0  0  3  0  0  0  0  0  0
  188.3000  178.2020  149.3220 O   0  0  0  0  0  1  0  0  0  0  0  0
  189.4060  177.4700  147.2980 C   0  0  0  0  0  0  0  0  0  0  0  0
  190.5700  177.3960  147.9950 F   0  0  0  0  0  0  0  0  0  0  0  0
  189.3490  177.1490  145.9200 C   0  0  0  0  0  0  0  0  0  0  0  0
  188.2480  177.8820  147.9710 C   0  0  0  0  0  0  0  0  0  0  0  0
  188.1170  177.2510  145.2470 C   0  0  0  0  0  0  0  0  0  0  0  0
  186.9670  177.6590  145.9320 C   0  0  0  0  0  3  0  0  0  0  0  0
  191.5100  177.5940  144.7380 C   0  0  0  0  0  1  0  0  0  0  0  0
  190.4750  176.7310  145.1880 O   0  0  0  0  0  0  0  0  0  0  0  0
  1  8  1  6  0  0  0
  1 16  1  0  0  0  0
  2  6  1  0  0  0  0
  3  7  1  0  0  0  0
  3  1  1  0  0  0  0
  4  3  2  0  0  0  0
  5  2  2  0  0  0  0
  5  4  1  0  0  0  0
  6  7  2  0  0  0  0
  9 10  1  0  0  0  0
 10 13  1  0  0  0  0
 11  8  1  6  0  0  0
 11 14  1  0  0  0  0
 12 15  2  0  0  0  0
 14 13  1  0  0  0  0
 15 11  1  0  0  0  0
 15  9  1  0  0  0  0
 16 17  1  0  0  0  0
 17 24  1  0  0  0  0
 18 23  1  0  0  0  0
 20 23  2  0  0  0  0
 20 21  1  0  0  0  0
 22 20  1  0  0  0  0
 23 19  1  0  0  0  0
 24 22  2  0  0  0  0
 24 25  1  0  0  0  0
 25 18  2  0  0  0  0
 26 27  1  0  0  0  0
 27 22  1  0  0  0  0
M  END
>  <MODEL>
9

>  <REMARK>
 VINA RESULT:      -7.9      3.432      6.540
  Name = 
  7 active torsions:
  status: ('A' for Active; 'I' for Inactive)
    1  A    between atoms: S_1  and  C_15
    2  A    between atoms: S_1  and  C_18
    3  A    between atoms: N_2  and  C_6
    4  A    between atoms: N_2  and  C_15
    5  A    between atoms: C_6  and  C_17
    6  A    between atoms: C_9  and  C_15
    7  A    between atoms: C_14  and  O_19
                            x       y       z     vdW  Elec       q    Type
                         _______ _______ _______ _____ _____    ______ ____

>  <TORSDO>
F 7

$$$$
