=
 OpenBabel10272413303D

 32 36  0  0  1  0  0  0  0  0999 V2000
  186.5770  178.3220  140.9940 C   0  0  1  0  0  3  0  0  0  0  0  0
  185.2420  178.7650  145.7810 C   0  0  0  0  0  3  0  0  0  0  0  0
  183.8970  178.6380  145.4280 C   0  0  0  0  0  3  0  0  0  0  0  0
  184.7690  178.7310  139.1970 C   0  0  1  0  0  3  0  0  0  0  0  0
  183.8770  177.6000  138.9190 N   0  0  0  0  0  0  0  0  0  0  0  0
  184.9700  177.3610  136.6220 C   0  0  0  0  0  1  0  0  0  0  0  0
  186.2310  178.7320  144.7950 C   0  0  0  0  0  3  0  0  0  0  0  0
  186.9190  178.5040  142.4200 N   0  0  0  0  0  0  0  0  0  0  0  0
  184.5260  178.4620  143.0900 C   0  0  0  0  0  0  0  0  0  0  0  0
  184.1770  178.2990  141.6740 C   0  0  0  0  0  0  0  0  0  0  0  0
  183.2380  175.9400  137.3790 O   0  0  0  0  0  0  0  0  0  0  0  0
  183.9780  176.9240  137.6480 C   0  0  0  0  0  0  0  0  0  0  0  0
  183.5400  178.4830  144.0870 C   0  0  0  0  0  3  0  0  0  0  0  0
  185.8890  178.5790  143.4400 C   0  0  0  0  0  0  0  0  0  0  0  0
  183.1080  177.5890  141.3040 C   0  0  0  0  0  3  0  0  0  0  0  0
  184.1120  180.0270  138.7580 C   0  0  0  0  0  1  0  0  0  0  0  0
  181.8070  176.6090  139.5720 N   0  0  0  0  0  2  0  0  0  0  0  0
  185.1680  178.8370  140.6800 C   0  0  1  0  0  3  0  0  0  0  0  0
  182.8740  177.2600  139.8980 C   0  0  0  0  0  0  0  0  0  0  0  0
  188.2680  178.3380  139.0530 C   0  0  0  0  0  0  0  0  0  0  0  0
  189.0820  179.0090  138.3680 O   0  0  0  0  0  0  0  0  0  0  0  0
  188.0480  176.9030  138.7150 C   0  0  0  0  0  1  0  0  0  0  0  0
  187.5700  178.9720  140.1330 N   0  0  0  0  0  2  0  0  0  0  0  0
  188.3090  178.2790  142.8140 C   0  0  0  0  0  2  0  0  0  0  0  0
  188.6740  176.8180  142.6340 C   0  0  0  0  0  2  0  0  0  0  0  0
  188.8990  176.2100  143.9330 N   0  0  0  0  0  2  0  0  0  0  0  0
  189.1100  177.7920  146.8770 C   0  0  1  0  0  3  0  0  0  0  0  0
  189.5210  177.2230  144.7660 C   0  0  2  0  0  3  0  0  0  0  0  0
  191.2640  176.8540  144.9550 S   0  0  0  0  0  0  0  0  0  0  0  0
  188.1040  177.1930  147.8410 C   0  0  0  0  0  1  0  0  0  0  0  0
  190.4590  177.3970  147.2780 C   0  0  0  0  0  2  0  0  0  0  0  0
  189.8030  176.6530  146.1030 C   0  0  1  0  0  0  0  0  0  0  0  0
  1 23  1  6  0  0  0
  1  8  1  0  0  0  0
  3  2  1  0  0  0  0
  4 16  1  1  0  0  0
  4 18  1  0  0  0  0
  5  4  1  0  0  0  0
  5 19  1  0  0  0  0
  6 12  1  0  0  0  0
  7  2  2  0  0  0  0
  8 24  1  0  0  0  0
  8 14  1  0  0  0  0
  9 14  2  0  0  0  0
  9 13  1  0  0  0  0
 10  9  1  0  0  0  0
 11 12  2  0  0  0  0
 12  5  1  0  0  0  0
 13  3  2  0  0  0  0
 14  7  1  0  0  0  0
 15 10  2  0  0  0  0
 17 19  2  0  0  0  0
 18  1  1  0  0  0  0
 18 10  1  1  0  0  0
 19 15  1  0  0  0  0
 20 23  1  0  0  0  0
 21 20  2  0  0  0  0
 22 20  1  0  0  0  0
 25 24  1  0  0  0  0
 25 26  1  0  0  0  0
 27 31  1  0  0  0  0
 27 30  1  1  0  0  0
 28 26  1  6  0  0  0
 28 29  1  0  0  0  0
 28 32  1  0  0  0  0
 29 32  1  0  0  0  0
 32 27  1  0  0  0  0
 32 31  1  1  0  0  0
M  END
>  <MODEL>
1

>  <REMARK>
 VINA RESULT:      -8.0      0.000      0.000
  Name = 
  5 active torsions:
  status: ('A' for Active; 'I' for Inactive)
    1  A    between atoms: C_2  and  N_12
    2  A    between atoms: C_3  and  N_28
    3  A    between atoms: C_9  and  N_14
    4  A    between atoms: C_9  and  C_21
    5  A    between atoms: N_12  and  C_21
                            x       y       z     vdW  Elec       q    Type
                         _______ _______ _______ _____ _____    ______ ____

>  <TORSDO>
F 5

$$$$
=
 OpenBabel10272413303D

 32 36  0  0  1  0  0  0  0  0999 V2000
  185.1190  178.4900  140.0690 C   0  0  1  0  0  3  0  0  0  0  0  0
  184.8120  179.1900  145.0000 C   0  0  0  0  0  3  0  0  0  0  0  0
  183.4250  179.0390  144.9440 C   0  0  0  0  0  3  0  0  0  0  0  0
  182.9690  178.7950  138.6740 C   0  0  1  0  0  3  0  0  0  0  0  0
  182.0540  177.6480  138.6490 N   0  0  0  0  0  0  0  0  0  0  0  0
  182.6440  177.2880  136.1890 C   0  0  0  0  0  1  0  0  0  0  0  0
  185.5720  179.1060  143.8310 C   0  0  0  0  0  3  0  0  0  0  0  0
  185.7490  178.7500  141.3800 N   0  0  0  0  0  0  0  0  0  0  0  0
  183.5510  178.7390  142.5400 C   0  0  0  0  0  0  0  0  0  0  0  0
  182.9160  178.4980  141.2390 C   0  0  0  0  0  0  0  0  0  0  0  0
  181.1300  175.9040  137.3680 O   0  0  0  0  0  0  0  0  0  0  0  0
  181.8960  176.9040  137.4230 C   0  0  0  0  0  0  0  0  0  0  0  0
  182.7960  178.8110  143.7190 C   0  0  0  0  0  3  0  0  0  0  0  0
  184.9560  178.8780  142.5880 C   0  0  0  0  0  0  0  0  0  0  0  0
  181.8030  177.7650  141.1400 C   0  0  0  0  0  3  0  0  0  0  0  0
  182.2150  180.0630  138.3150 C   0  0  0  0  0  1  0  0  0  0  0  0
  180.1810  176.6890  139.7740 N   0  0  0  0  0  2  0  0  0  0  0  0
  183.6680  178.9840  140.0320 C   0  0  1  0  0  3  0  0  0  0  0  0
  181.2840  177.3590  139.8340 C   0  0  0  0  0  0  0  0  0  0  0  0
  186.3680  178.4040  137.8200 C   0  0  0  0  0  0  0  0  0  0  0  0
  187.0100  179.0390  136.9450 O   0  0  0  0  0  0  0  0  0  0  0  0
  186.1070  176.9500  137.6140 C   0  0  0  0  0  1  0  0  0  0  0  0
  185.8990  179.0950  138.9860 N   0  0  0  0  0  2  0  0  0  0  0  0
  187.1940  178.5510  141.4840 C   0  0  0  0  0  2  0  0  0  0  0  0
  187.4940  177.2990  142.2860 C   0  0  0  0  0  2  0  0  0  0  0  0
  188.8900  176.9380  142.1190 N   0  0  0  0  0  2  0  0  0  0  0  0
  189.2010  178.0020  145.2790 C   0  0  1  0  0  3  0  0  0  0  0  0
  189.6350  177.6780  143.1220 C   0  0  2  0  0  3  0  0  0  0  0  0
  191.2620  176.9530  143.3140 S   0  0  0  0  0  0  0  0  0  0  0  0
  188.0400  177.4770  146.1010 C   0  0  0  0  0  1  0  0  0  0  0  0
  190.4220  177.2970  145.6620 C   0  0  0  0  0  2  0  0  0  0  0  0
  189.7170  176.8750  144.3630 C   0  0  1  0  0  0  0  0  0  0  0  0
  1 23  1  6  0  0  0
  1  8  1  0  0  0  0
  3  2  1  0  0  0  0
  4 16  1  1  0  0  0
  4 18  1  0  0  0  0
  5  4  1  0  0  0  0
  5 19  1  0  0  0  0
  6 12  1  0  0  0  0
  7  2  2  0  0  0  0
  8 24  1  0  0  0  0
  8 14  1  0  0  0  0
  9 14  2  0  0  0  0
  9 13  1  0  0  0  0
 10  9  1  0  0  0  0
 11 12  2  0  0  0  0
 12  5  1  0  0  0  0
 13  3  2  0  0  0  0
 14  7  1  0  0  0  0
 15 10  2  0  0  0  0
 17 19  2  0  0  0  0
 18  1  1  0  0  0  0
 18 10  1  1  0  0  0
 19 15  1  0  0  0  0
 20 23  1  0  0  0  0
 21 20  2  0  0  0  0
 22 20  1  0  0  0  0
 24 25  1  0  0  0  0
 26 25  1  0  0  0  0
 27 31  1  0  0  0  0
 27 30  1  1  0  0  0
 28 26  1  6  0  0  0
 28 29  1  0  0  0  0
 28 32  1  0  0  0  0
 29 32  1  0  0  0  0
 32 27  1  0  0  0  0
 32 31  1  1  0  0  0
M  END
>  <MODEL>
2

>  <REMARK>
 VINA RESULT:      -7.7      1.512      1.726
  Name = 
  5 active torsions:
  status: ('A' for Active; 'I' for Inactive)
    1  A    between atoms: C_2  and  N_12
    2  A    between atoms: C_3  and  N_28
    3  A    between atoms: C_9  and  N_14
    4  A    between atoms: C_9  and  C_21
    5  A    between atoms: N_12  and  C_21
                            x       y       z     vdW  Elec       q    Type
                         _______ _______ _______ _____ _____    ______ ____

>  <TORSDO>
F 5

$$$$
=
 OpenBabel10272413303D

 32 36  0  0  1  0  0  0  0  0999 V2000
  189.0010  177.2710  140.0080 C   0  0  1  0  0  3  0  0  0  0  0  0
  185.5220  178.4900  143.3710 C   0  0  0  0  0  3  0  0  0  0  0  0
  184.6670  178.9060  142.3490 C   0  0  0  0  0  3  0  0  0  0  0  0
  188.7960  178.2830  137.6430 C   0  0  1  0  0  3  0  0  0  0  0  0
  187.8650  177.6040  136.7350 N   0  0  0  0  0  0  0  0  0  0  0  0
  189.8620  176.8100  135.3530 C   0  0  0  0  0  1  0  0  0  0  0  0
  186.7940  177.9990  143.0630 C   0  0  0  0  0  3  0  0  0  0  0  0
  188.5350  177.3760  141.4070 N   0  0  0  0  0  0  0  0  0  0  0  0
  186.3630  178.3570  140.7030 C   0  0  0  0  0  0  0  0  0  0  0  0
  186.8250  178.2730  139.3120 C   0  0  0  0  0  0  0  0  0  0  0  0
  187.6240  176.2690  134.8130 O   0  0  0  0  0  0  0  0  0  0  0  0
  188.3920  176.8770  135.6060 C   0  0  0  0  0  0  0  0  0  0  0  0
  185.0840  178.8370  141.0190 C   0  0  0  0  0  3  0  0  0  0  0  0
  187.2310  177.9240  141.7290 C   0  0  0  0  0  0  0  0  0  0  0  0
  185.9690  178.0440  138.3140 C   0  0  0  0  0  3  0  0  0  0  0  0
  189.0280  179.7080  137.1730 C   0  0  0  0  0  1  0  0  0  0  0  0
  185.5920  177.5890  136.0100 N   0  0  0  0  0  2  0  0  0  0  0  0
  188.3140  178.3000  139.1050 C   0  0  1  0  0  3  0  0  0  0  0  0
  186.4490  177.7620  136.9610 C   0  0  0  0  0  0  0  0  0  0  0  0
  191.3270  176.5730  139.1530 C   0  0  0  0  0  0  0  0  0  0  0  0
  192.5630  176.8040  139.1510 O   0  0  0  0  0  0  0  0  0  0  0  0
  190.8000  175.4410  138.3380 C   0  0  0  0  0  1  0  0  0  0  0  0
  190.4580  177.4060  139.9330 N   0  0  0  0  0  2  0  0  0  0  0  0
  189.2710  176.6230  142.4210 C   0  0  0  0  0  2  0  0  0  0  0  0
  189.8270  177.5650  143.4730 C   0  0  0  0  0  2  0  0  0  0  0  0
  190.3510  176.7950  144.5860 N   0  0  0  0  0  2  0  0  0  0  0  0
  188.3180  178.1030  146.9020 C   0  0  1  0  0  3  0  0  0  0  0  0
  190.1700  177.6060  145.7770 C   0  0  2  0  0  3  0  0  0  0  0  0
  191.0870  176.8840  147.1360 S   0  0  0  0  0  0  0  0  0  0  0  0
  186.8950  177.6550  146.6310 C   0  0  0  0  0  1  0  0  0  0  0  0
  188.8210  177.4210  148.0920 C   0  0  0  0  0  2  0  0  0  0  0  0
  189.2660  176.9020  146.7150 C   0  0  1  0  0  0  0  0  0  0  0  0
  1 23  1  1  0  0  0
  1  8  1  0  0  0  0
  3  2  2  0  0  0  0
  4 16  1  6  0  0  0
  4 18  1  0  0  0  0
  5 19  1  0  0  0  0
  5  4  1  0  0  0  0
  6 12  1  0  0  0  0
  7  2  1  0  0  0  0
  8 14  1  0  0  0  0
  8 24  1  0  0  0  0
  9 13  2  0  0  0  0
  9 14  1  0  0  0  0
 10  9  1  0  0  0  0
 11 12  2  0  0  0  0
 12  5  1  0  0  0  0
 13  3  1  0  0  0  0
 14  7  2  0  0  0  0
 15 10  2  0  0  0  0
 17 19  2  0  0  0  0
 18 10  1  6  0  0  0
 18  1  1  0  0  0  0
 19 15  1  0  0  0  0
 20 23  1  0  0  0  0
 21 20  2  0  0  0  0
 22 20  1  0  0  0  0
 24 25  1  0  0  0  0
 25 26  1  0  0  0  0
 27 30  1  6  0  0  0
 27 31  1  0  0  0  0
 28 26  1  6  0  0  0
 28 32  1  0  0  0  0
 28 29  1  0  0  0  0
 32 27  1  0  0  0  0
 32 29  1  0  0  0  0
 32 31  1  6  0  0  0
M  END
>  <MODEL>
3

>  <REMARK>
 VINA RESULT:      -7.3      2.266      3.388
  Name = 
  5 active torsions:
  status: ('A' for Active; 'I' for Inactive)
    1  A    between atoms: C_2  and  N_12
    2  A    between atoms: C_3  and  N_28
    3  A    between atoms: C_9  and  N_14
    4  A    between atoms: C_9  and  C_21
    5  A    between atoms: N_12  and  C_21
                            x       y       z     vdW  Elec       q    Type
                         _______ _______ _______ _____ _____    ______ ____

>  <TORSDO>
F 5

$$$$
=
 OpenBabel10272413303D

 32 36  0  0  1  0  0  0  0  0999 V2000
  185.4320  177.4870  138.4200 C   0  0  1  0  0  3  0  0  0  0  0  0
  180.8300  177.7500  140.3310 C   0  0  0  0  0  3  0  0  0  0  0  0
  180.5020  176.5310  139.7320 C   0  0  0  0  0  3  0  0  0  0  0  0
  185.8230  175.8830  136.4360 C   0  0  1  0  0  3  0  0  0  0  0  0
  186.0260  174.4720  136.7850 N   0  0  0  0  0  0  0  0  0  0  0  0
  188.4650  174.6910  136.0530 C   0  0  0  0  0  1  0  0  0  0  0  0
  182.1050  178.2950  140.1550 C   0  0  0  0  0  3  0  0  0  0  0  0
  184.4030  178.1800  139.2230 N   0  0  0  0  0  0  0  0  0  0  0  0
  182.7230  176.4080  138.7610 C   0  0  0  0  0  0  0  0  0  0  0  0
  183.7340  175.7230  137.9470 C   0  0  0  0  0  0  0  0  0  0  0  0
  187.5480  172.6810  136.8990 O   0  0  0  0  0  0  0  0  0  0  0  0
  187.3310  173.8850  136.5970 C   0  0  0  0  0  0  0  0  0  0  0  0
  181.4460  175.8610  138.9530 C   0  0  0  0  0  3  0  0  0  0  0  0
  183.0670  177.6340  139.3710 C   0  0  0  0  0  0  0  0  0  0  0  0
  183.7690  174.3900  137.8700 C   0  0  0  0  0  3  0  0  0  0  0  0
  185.3700  175.9960  134.9920 C   0  0  0  0  0  1  0  0  0  0  0  0
  184.8680  172.4150  137.1300 N   0  0  0  0  0  2  0  0  0  0  0  0
  184.8040  176.5910  137.3470 C   0  0  1  0  0  3  0  0  0  0  0  0
  184.8890  173.7030  137.2270 C   0  0  0  0  0  0  0  0  0  0  0  0
  187.7850  178.4130  137.9350 C   0  0  0  0  0  0  0  0  0  0  0  0
  188.4750  179.2850  137.3470 O   0  0  0  0  0  0  0  0  0  0  0  0
  188.4750  177.3610  138.7350 C   0  0  0  0  0  1  0  0  0  0  0  0
  186.3560  178.4500  137.8140 N   0  0  0  0  0  2  0  0  0  0  0  0
  184.8510  179.2440  140.1200 C   0  0  0  0  0  2  0  0  0  0  0  0
  185.5490  178.6500  141.3290 C   0  0  0  0  0  2  0  0  0  0  0  0
  185.2320  179.4350  142.5080 N   0  0  0  0  0  2  0  0  0  0  0  0
  186.0030  177.7070  145.2700 C   0  0  1  0  0  3  0  0  0  0  0  0
  184.8430  178.4950  143.5440 C   0  0  2  0  0  3  0  0  0  0  0  0
  183.4640  179.1630  144.4710 S   0  0  0  0  0  0  0  0  0  0  0  0
  187.4230  178.0380  145.6880 C   0  0  0  0  0  1  0  0  0  0  0  0
  185.0670  178.3130  146.2150 C   0  0  0  0  0  2  0  0  0  0  0  0
  185.2850  179.0080  144.8610 C   0  0  1  0  0  0  0  0  0  0  0  0
  1 23  1  6  0  0  0
  1  8  1  0  0  0  0
  3  2  2  0  0  0  0
  4 16  1  6  0  0  0
  4  5  1  0  0  0  0
  4 18  1  0  0  0  0
  5 19  1  0  0  0  0
  6 12  1  0  0  0  0
  7  2  1  0  0  0  0
  8 14  1  0  0  0  0
  8 24  1  0  0  0  0
  9 13  2  0  0  0  0
  9 14  1  0  0  0  0
 10  9  1  0  0  0  0
 12  5  1  0  0  0  0
 12 11  2  0  0  0  0
 13  3  1  0  0  0  0
 14  7  2  0  0  0  0
 15 10  2  0  0  0  0
 17 19  2  0  0  0  0
 18 10  1  1  0  0  0
 18  1  1  0  0  0  0
 19 15  1  0  0  0  0
 20 22  1  0  0  0  0
 21 20  2  0  0  0  0
 23 20  1  0  0  0  0
 24 25  1  0  0  0  0
 25 26  1  0  0  0  0
 27 30  1  1  0  0  0
 27 31  1  0  0  0  0
 28 26  1  6  0  0  0
 28 29  1  0  0  0  0
 28 32  1  0  0  0  0
 29 32  1  0  0  0  0
 32 27  1  0  0  0  0
 32 31  1  1  0  0  0
M  END
>  <MODEL>
4

>  <REMARK>
 VINA RESULT:      -6.9      2.763      4.828
  Name = 
  5 active torsions:
  status: ('A' for Active; 'I' for Inactive)
    1  A    between atoms: C_2  and  N_12
    2  A    between atoms: C_3  and  N_28
    3  A    between atoms: C_9  and  N_14
    4  A    between atoms: C_9  and  C_21
    5  A    between atoms: N_12  and  C_21
                            x       y       z     vdW  Elec       q    Type
                         _______ _______ _______ _____ _____    ______ ____

>  <TORSDO>
F 5

$$$$
=
 OpenBabel10272413303D

 32 36  0  0  1  0  0  0  0  0999 V2000
  189.0440  177.1690  138.6670 C   0  0  1  0  0  3  0  0  0  0  0  0
  185.5360  179.3040  141.5020 C   0  0  0  0  0  3  0  0  0  0  0  0
  184.5850  179.0900  140.5020 C   0  0  0  0  0  3  0  0  0  0  0  0
  188.5830  176.9580  136.1360 C   0  0  1  0  0  3  0  0  0  0  0  0
  187.7470  175.8230  135.7310 N   0  0  0  0  0  0  0  0  0  0  0  0
  189.7980  174.7640  134.6340 C   0  0  0  0  0  1  0  0  0  0  0  0
  186.8600  178.9020  141.3060 C   0  0  0  0  0  3  0  0  0  0  0  0
  188.6190  177.8340  139.9160 N   0  0  0  0  0  0  0  0  0  0  0  0
  186.2870  178.0870  139.0930 C   0  0  0  0  0  0  0  0  0  0  0  0
  186.7060  177.4430  137.8420 C   0  0  0  0  0  0  0  0  0  0  0  0
  187.6650  173.7410  134.6370 O   0  0  0  0  0  0  0  0  0  0  0  0
  188.3480  174.7400  134.9900 C   0  0  0  0  0  0  0  0  0  0  0  0
  184.9580  178.4810  139.3020 C   0  0  0  0  0  3  0  0  0  0  0  0
  187.2530  178.2880  140.1030 C   0  0  0  0  0  0  0  0  0  0  0  0
  185.8640  176.6720  137.1490 C   0  0  0  0  0  3  0  0  0  0  0  0
  188.5530  178.0310  135.0620 C   0  0  0  0  0  1  0  0  0  0  0  0
  185.4840  175.1750  135.3410 N   0  0  0  0  0  2  0  0  0  0  0  0
  188.1590  177.5720  137.4830 C   0  0  1  0  0  3  0  0  0  0  0  0
  186.3350  175.8740  136.0170 C   0  0  0  0  0  0  0  0  0  0  0  0
  191.4430  176.4640  138.0570 C   0  0  0  0  0  0  0  0  0  0  0  0
  192.6190  176.8320  137.8060 O   0  0  0  0  0  0  0  0  0  0  0  0
  191.1120  175.0110  138.0020 C   0  0  0  0  0  1  0  0  0  0  0  0
  190.4530  177.4500  138.3810 N   0  0  0  0  0  2  0  0  0  0  0  0
  189.5090  177.7310  141.0710 C   0  0  0  0  0  2  0  0  0  0  0  0
  189.6000  176.2890  141.5350 C   0  0  0  0  0  2  0  0  0  0  0  0
  190.5030  176.2000  142.6690 N   0  0  0  0  0  2  0  0  0  0  0  0
  188.3410  177.8910  144.5880 C   0  0  1  0  0  3  0  0  0  0  0  0
  190.2140  177.3380  143.5230 C   0  0  2  0  0  3  0  0  0  0  0  0
  191.2960  177.3040  144.9500 S   0  0  0  0  0  0  0  0  0  0  0  0
  187.0190  177.1490  144.6270 C   0  0  0  0  0  1  0  0  0  0  0  0
  189.0040  177.7660  145.8840 C   0  0  0  0  0  2  0  0  0  0  0  0
  189.4910  176.8740  144.7290 C   0  0  1  0  0  0  0  0  0  0  0  0
  1 23  1  6  0  0  0
  1  8  1  0  0  0  0
  3  2  2  0  0  0  0
  4 16  1  6  0  0  0
  4 18  1  0  0  0  0
  5 19  1  0  0  0  0
  5  4  1  0  0  0  0
  6 12  1  0  0  0  0
  7  2  1  0  0  0  0
  8 14  1  0  0  0  0
  8 24  1  0  0  0  0
  9 13  2  0  0  0  0
  9 14  1  0  0  0  0
 10  9  1  0  0  0  0
 11 12  2  0  0  0  0
 12  5  1  0  0  0  0
 13  3  1  0  0  0  0
 14  7  2  0  0  0  0
 15 10  2  0  0  0  0
 17 19  2  0  0  0  0
 18 10  1  1  0  0  0
 18  1  1  0  0  0  0
 19 15  1  0  0  0  0
 20 23  1  0  0  0  0
 21 20  2  0  0  0  0
 22 20  1  0  0  0  0
 24 25  1  0  0  0  0
 25 26  1  0  0  0  0
 27 30  1  1  0  0  0
 27 32  1  0  0  0  0
 27 31  1  0  0  0  0
 28 26  1  6  0  0  0
 28 32  1  0  0  0  0
 28 29  1  0  0  0  0
 32 29  1  0  0  0  0
 32 31  1  1  0  0  0
M  END
>  <MODEL>
5

>  <REMARK>
 VINA RESULT:      -6.8      2.753      4.156
  Name = 
  5 active torsions:
  status: ('A' for Active; 'I' for Inactive)
    1  A    between atoms: C_2  and  N_12
    2  A    between atoms: C_3  and  N_28
    3  A    between atoms: C_9  and  N_14
    4  A    between atoms: C_9  and  C_21
    5  A    between atoms: N_12  and  C_21
                            x       y       z     vdW  Elec       q    Type
                         _______ _______ _______ _____ _____    ______ ____

>  <TORSDO>
F 5

$$$$
=
 OpenBabel10272413303D

 32 36  0  0  1  0  0  0  0  0999 V2000
  188.3440  177.6380  140.1550 C   0  0  1  0  0  3  0  0  0  0  0  0
  183.6420  179.3100  140.1620 C   0  0  0  0  0  3  0  0  0  0  0  0
  183.4550  178.8160  138.8700 C   0  0  0  0  0  3  0  0  0  0  0  0
  189.4240  177.0920  137.8750 C   0  0  1  0  0  3  0  0  0  0  0  0
  189.0930  175.7790  137.3080 N   0  0  0  0  0  0  0  0  0  0  0  0
  191.5030  175.0420  137.7250 C   0  0  0  0  0  1  0  0  0  0  0  0
  184.8780  179.1590  140.7970 C   0  0  0  0  0  3  0  0  0  0  0  0
  187.2180  178.3260  140.8190 N   0  0  0  0  0  0  0  0  0  0  0  0
  185.7520  178.0330  138.8330 C   0  0  0  0  0  0  0  0  0  0  0  0
  186.8710  177.3630  138.1600 C   0  0  0  0  0  0  0  0  0  0  0  0
  189.8690  173.6250  136.7690 O   0  0  0  0  0  0  0  0  0  0  0  0
  190.1200  174.7680  137.2360 C   0  0  0  0  0  0  0  0  0  0  0  0
  184.5050  178.1760  138.2080 C   0  0  0  0  0  3  0  0  0  0  0  0
  185.9470  178.5190  140.1440 C   0  0  0  0  0  0  0  0  0  0  0  0
  186.6590  176.3780  137.2840 C   0  0  0  0  0  3  0  0  0  0  0  0
  189.8920  178.0260  136.7740 C   0  0  0  0  0  1  0  0  0  0  0  0
  187.5340  174.6630  135.8870 N   0  0  0  0  0  2  0  0  0  0  0  0
  188.2490  177.7400  138.6290 C   0  0  1  0  0  3  0  0  0  0  0  0
  187.7710  175.5800  136.7670 C   0  0  0  0  0  0  0  0  0  0  0  0
  190.5140  177.4830  141.5310 C   0  0  0  0  0  0  0  0  0  0  0  0
  191.6030  178.0260  141.8480 O   0  0  0  0  0  0  0  0  0  0  0  0
  190.1800  176.1440  142.0970 C   0  0  0  0  0  1  0  0  0  0  0  0
  189.6280  178.1610  140.6300 N   0  0  0  0  0  2  0  0  0  0  0  0
  187.3020  178.5150  142.2660 C   0  0  0  0  0  2  0  0  0  0  0  0
  186.7990  177.2770  142.9860 C   0  0  0  0  0  2  0  0  0  0  0  0
  187.6120  177.0370  144.1640 N   0  0  0  0  0  2  0  0  0  0  0  0
  185.4380  179.1190  145.6300 C   0  0  1  0  0  3  0  0  0  0  0  0
  187.3540  178.1330  145.0810 C   0  0  2  0  0  3  0  0  0  0  0  0
  187.8600  177.6620  146.7330 S   0  0  0  0  0  0  0  0  0  0  0  0
  184.0350  178.7980  145.1510 C   0  0  0  0  0  1  0  0  0  0  0  0
  185.5830  178.6960  147.0210 C   0  0  0  0  0  2  0  0  0  0  0  0
  186.1820  177.8020  145.9230 C   0  0  1  0  0  0  0  0  0  0  0  0
  1 23  1  1  0  0  0
  1  8  1  0  0  0  0
  2  7  1  0  0  0  0
  3  2  2  0  0  0  0
  4 16  1  6  0  0  0
  4 18  1  0  0  0  0
  5  4  1  0  0  0  0
  8 24  1  0  0  0  0
  9 14  1  0  0  0  0
 10  9  1  0  0  0  0
 11 12  2  0  0  0  0
 12  5  1  0  0  0  0
 12  6  1  0  0  0  0
 13  9  2  0  0  0  0
 13  3  1  0  0  0  0
 14  7  2  0  0  0  0
 14  8  1  0  0  0  0
 15 10  2  0  0  0  0
 17 19  2  0  0  0  0
 18 10  1  6  0  0  0
 18  1  1  0  0  0  0
 19 15  1  0  0  0  0
 19  5  1  0  0  0  0
 20 21  2  0  0  0  0
 20 22  1  0  0  0  0
 23 20  1  0  0  0  0
 24 25  1  0  0  0  0
 25 26  1  0  0  0  0
 27 30  1  6  0  0  0
 27 32  1  0  0  0  0
 27 31  1  0  0  0  0
 28 26  1  6  0  0  0
 28 32  1  0  0  0  0
 28 29  1  0  0  0  0
 32 29  1  0  0  0  0
 32 31  1  6  0  0  0
M  END
>  <MODEL>
6

>  <REMARK>
 VINA RESULT:      -6.8      2.625      4.770
  Name = 
  5 active torsions:
  status: ('A' for Active; 'I' for Inactive)
    1  A    between atoms: C_2  and  N_12
    2  A    between atoms: C_3  and  N_28
    3  A    between atoms: C_9  and  N_14
    4  A    between atoms: C_9  and  C_21
    5  A    between atoms: N_12  and  C_21
                            x       y       z     vdW  Elec       q    Type
                         _______ _______ _______ _____ _____    ______ ____

>  <TORSDO>
F 5

$$$$
=
 OpenBabel10272413303D

 32 36  0  0  1  0  0  0  0  0999 V2000
  187.8850  177.9840  140.8440 C   0  0  1  0  0  3  0  0  0  0  0  0
  183.0580  179.2150  141.1390 C   0  0  0  0  0  3  0  0  0  0  0  0
  182.9000  178.9570  139.7760 C   0  0  0  0  0  3  0  0  0  0  0  0
  188.9830  177.9690  138.5080 C   0  0  1  0  0  3  0  0  0  0  0  0
  188.7590  176.7620  137.7040 N   0  0  0  0  0  0  0  0  0  0  0  0
  191.2280  176.1690  137.9880 C   0  0  0  0  0  1  0  0  0  0  0  0
  184.3090  179.0540  141.7400 C   0  0  0  0  0  3  0  0  0  0  0  0
  186.7110  178.4370  141.6190 N   0  0  0  0  0  0  0  0  0  0  0  0
  185.2550  178.3950  139.6050 C   0  0  0  0  0  0  0  0  0  0  0  0
  186.4200  177.9620  138.8250 C   0  0  0  0  0  0  0  0  0  0  0  0
  189.7100  174.8220  136.7740 O   0  0  0  0  0  0  0  0  0  0  0  0
  189.8680  175.8750  137.4490 C   0  0  0  0  0  0  0  0  0  0  0  0
  183.9930  178.5450  139.0120 C   0  0  0  0  0  3  0  0  0  0  0  0
  185.4220  178.6420  140.9860 C   0  0  0  0  0  0  0  0  0  0  0  0
  186.2830  177.1430  137.7790 C   0  0  0  0  0  3  0  0  0  0  0  0
  189.3580  179.1300  137.6040 C   0  0  0  0  0  1  0  0  0  0  0  0
  187.2860  175.8030  136.0910 N   0  0  0  0  0  2  0  0  0  0  0  0
  187.7650  178.3620  139.3640 C   0  0  1  0  0  3  0  0  0  0  0  0
  187.4530  176.5550  137.1280 C   0  0  0  0  0  0  0  0  0  0  0  0
  190.2070  177.7260  141.9260 C   0  0  0  0  0  0  0  0  0  0  0  0
  191.2330  178.3010  142.3710 O   0  0  0  0  0  0  0  0  0  0  0  0
  190.1500  176.2360  141.9350 C   0  0  0  0  0  1  0  0  0  0  0  0
  189.1240  178.5170  141.4160 N   0  0  0  0  0  2  0  0  0  0  0  0
  186.7940  178.3570  143.0760 C   0  0  0  0  0  2  0  0  0  0  0  0
  186.8070  176.9070  143.5220 C   0  0  0  0  0  2  0  0  0  0  0  0
  187.9010  176.6950  144.4530 N   0  0  0  0  0  2  0  0  0  0  0  0
  186.3220  178.7410  146.5820 C   0  0  1  0  0  3  0  0  0  0  0  0
  187.9320  177.8500  145.3320 C   0  0  2  0  0  3  0  0  0  0  0  0
  189.1230  177.5740  146.6410 S   0  0  0  0  0  0  0  0  0  0  0  0
  184.8900  178.2750  146.7570 C   0  0  0  0  0  1  0  0  0  0  0  0
  187.0740  178.4610  147.8040 C   0  0  0  0  0  2  0  0  0  0  0  0
  187.2560  177.5140  146.6060 C   0  0  1  0  0  0  0  0  0  0  0  0
  1 23  1  1  0  0  0
  1  8  1  0  0  0  0
  2  7  1  0  0  0  0
  3  2  2  0  0  0  0
  4 16  1  6  0  0  0
  4 18  1  0  0  0  0
  5  4  1  0  0  0  0
  8 24  1  0  0  0  0
  9 14  1  0  0  0  0
 10  9  1  0  0  0  0
 11 12  2  0  0  0  0
 12  5  1  0  0  0  0
 12  6  1  0  0  0  0
 13  9  2  0  0  0  0
 13  3  1  0  0  0  0
 14  8  1  0  0  0  0
 14  7  2  0  0  0  0
 15 10  2  0  0  0  0
 17 19  2  0  0  0  0
 18 10  1  6  0  0  0
 18  1  1  0  0  0  0
 19  5  1  0  0  0  0
 19 15  1  0  0  0  0
 20 22  1  0  0  0  0
 20 21  2  0  0  0  0
 23 20  1  0  0  0  0
 24 25  1  0  0  0  0
 25 26  1  0  0  0  0
 27 32  1  0  0  0  0
 27 30  1  1  0  0  0
 27 31  1  0  0  0  0
 28 26  1  6  0  0  0
 28 32  1  0  0  0  0
 28 29  1  0  0  0  0
 32 29  1  0  0  0  0
 32 31  1  1  0  0  0
M  END
>  <MODEL>
7

>  <REMARK>
 VINA RESULT:      -6.7      2.456      4.135
  Name = 
  5 active torsions:
  status: ('A' for Active; 'I' for Inactive)
    1  A    between atoms: C_2  and  N_12
    2  A    between atoms: C_3  and  N_28
    3  A    between atoms: C_9  and  N_14
    4  A    between atoms: C_9  and  C_21
    5  A    between atoms: N_12  and  C_21
                            x       y       z     vdW  Elec       q    Type
                         _______ _______ _______ _____ _____    ______ ____

>  <TORSDO>
F 5

$$$$
=
 OpenBabel10272413303D

 32 36  0  0  1  0  0  0  0  0999 V2000
  188.4320  177.4350  139.4880 C   0  0  1  0  0  3  0  0  0  0  0  0
  183.8170  179.3290  139.6110 C   0  0  0  0  0  3  0  0  0  0  0  0
  183.5010  178.6590  138.4270 C   0  0  0  0  0  3  0  0  0  0  0  0
  189.2910  176.5030  137.2390 C   0  0  1  0  0  3  0  0  0  0  0  0
  188.8620  175.1400  136.9060 N   0  0  0  0  0  0  0  0  0  0  0  0
  191.2690  174.3500  137.2400 C   0  0  0  0  0  1  0  0  0  0  0  0
  185.0960  179.2100  140.1620 C   0  0  0  0  0  3  0  0  0  0  0  0
  187.3940  178.2720  140.1260 N   0  0  0  0  0  0  0  0  0  0  0  0
  185.7540  177.7630  138.3290 C   0  0  0  0  0  0  0  0  0  0  0  0
  186.7850  176.9440  137.6800 C   0  0  0  0  0  0  0  0  0  0  0  0
  189.5050  172.8920  136.6410 O   0  0  0  0  0  0  0  0  0  0  0  0
  189.8390  174.0780  136.9080 C   0  0  0  0  0  0  0  0  0  0  0  0
  184.4650  177.8760  137.7900 C   0  0  0  0  0  3  0  0  0  0  0  0
  186.0790  178.4270  139.5320 C   0  0  0  0  0  0  0  0  0  0  0  0
  186.4610  175.8520  136.9830 C   0  0  0  0  0  3  0  0  0  0  0  0
  189.7000  177.2390  135.9760 C   0  0  0  0  0  1  0  0  0  0  0  0
  187.1460  173.9070  135.7980 N   0  0  0  0  0  2  0  0  0  0  0  0
  188.2110  177.3150  137.9760 C   0  0  1  0  0  3  0  0  0  0  0  0
  187.4920  174.9300  136.5080 C   0  0  0  0  0  0  0  0  0  0  0  0
  190.6810  177.4100  140.7410 C   0  0  0  0  0  0  0  0  0  0  0  0
  191.8160  177.9330  140.8810 O   0  0  0  0  0  0  0  0  0  0  0  0
  190.3170  176.2320  141.5800 C   0  0  0  0  0  1  0  0  0  0  0  0
  189.7710  177.9560  139.7760 N   0  0  0  0  0  2  0  0  0  0  0  0
  187.6090  178.6680  141.5170 C   0  0  0  0  0  2  0  0  0  0  0  0
  187.2570  177.5230  142.4480 C   0  0  0  0  0  2  0  0  0  0  0  0
  186.5460  178.0380  143.6040 N   0  0  0  0  0  2  0  0  0  0  0  0
  189.0370  177.0110  145.5920 C   0  0  1  0  0  3  0  0  0  0  0  0
  186.9940  177.2660  144.7490 C   0  0  2  0  0  3  0  0  0  0  0  0
  186.2000  177.8800  146.2320 S   0  0  0  0  0  0  0  0  0  0  0  0
  190.3390  177.6300  145.1230 C   0  0  0  0  0  1  0  0  0  0  0  0
  188.6290  177.6360  146.8480 C   0  0  0  0  0  2  0  0  0  0  0  0
  187.9300  178.0830  145.5540 C   0  0  1  0  0  0  0  0  0  0  0  0
  1 23  1  6  0  0  0
  1  8  1  0  0  0  0
  2  7  1  0  0  0  0
  3  2  2  0  0  0  0
  4 16  1  6  0  0  0
  4 18  1  0  0  0  0
  5 12  1  0  0  0  0
  5  4  1  0  0  0  0
  8 24  1  0  0  0  0
  9 14  1  0  0  0  0
 10  9  1  0  0  0  0
 11 12  2  0  0  0  0
 12  6  1  0  0  0  0
 13  9  2  0  0  0  0
 13  3  1  0  0  0  0
 14  8  1  0  0  0  0
 14  7  2  0  0  0  0
 15 10  2  0  0  0  0
 17 19  2  0  0  0  0
 18 10  1  1  0  0  0
 18  1  1  0  0  0  0
 19  5  1  0  0  0  0
 19 15  1  0  0  0  0
 20 21  2  0  0  0  0
 20 22  1  0  0  0  0
 23 20  1  0  0  0  0
 24 25  1  0  0  0  0
 25 26  1  0  0  0  0
 27 30  1  6  0  0  0
 27 31  1  0  0  0  0
 28 26  1  6  0  0  0
 28 32  1  0  0  0  0
 28 29  1  0  0  0  0
 32 27  1  0  0  0  0
 32 29  1  0  0  0  0
 32 31  1  6  0  0  0
M  END
>  <MODEL>
8

>  <REMARK>
 VINA RESULT:      -6.7      2.806      4.807
  Name = 
  5 active torsions:
  status: ('A' for Active; 'I' for Inactive)
    1  A    between atoms: C_2  and  N_12
    2  A    between atoms: C_3  and  N_28
    3  A    between atoms: C_9  and  N_14
    4  A    between atoms: C_9  and  C_21
    5  A    between atoms: N_12  and  C_21
                            x       y       z     vdW  Elec       q    Type
                         _______ _______ _______ _____ _____    ______ ____

>  <TORSDO>
F 5

$$$$
=
 OpenBabel10272413303D

 32 36  0  0  1  0  0  0  0  0999 V2000
  187.1400  178.1730  141.8290 C   0  0  1  0  0  3  0  0  0  0  0  0
  183.3380  178.9290  144.9710 C   0  0  0  0  0  3  0  0  0  0  0  0
  184.1580  178.6080  146.0540 C   0  0  0  0  0  3  0  0  0  0  0  0
  189.1510  176.7970  142.6810 C   0  0  1  0  0  3  0  0  0  0  0  0
  190.1320  177.5310  143.4880 N   0  0  0  0  0  0  0  0  0  0  0  0
  191.8090  177.3020  141.5730 C   0  0  0  0  0  1  0  0  0  0  0  0
  183.8510  178.8940  143.6710 C   0  0  0  0  0  3  0  0  0  0  0  0
  185.7310  178.5330  142.0900 N   0  0  0  0  0  0  0  0  0  0  0  0
  186.0060  178.1950  144.5370 C   0  0  0  0  0  0  0  0  0  0  0  0
  187.4020  177.8190  144.2840 C   0  0  0  0  0  0  0  0  0  0  0  0
  192.3070  178.4200  143.5970 O   0  0  0  0  0  0  0  0  0  0  0  0
  191.4430  177.7810  142.9390 C   0  0  0  0  0  0  0  0  0  0  0  0
  185.4880  178.2450  145.8390 C   0  0  0  0  0  3  0  0  0  0  0  0
  185.1880  178.5300  143.4360 C   0  0  0  0  0  0  0  0  0  0  0  0
  188.3620  178.0950  145.1700 C   0  0  0  0  0  3  0  0  0  0  0  0
  189.2590  175.3090  142.9640 C   0  0  0  0  0  1  0  0  0  0  0  0
  190.6730  178.1370  145.7310 N   0  0  0  0  0  2  0  0  0  0  0  0
  187.7020  177.2580  142.9220 C   0  0  1  0  0  3  0  0  0  0  0  0
  189.7730  177.9020  144.8340 C   0  0  0  0  0  0  0  0  0  0  0  0
  188.2490  177.9260  139.5190 C   0  0  0  0  0  0  0  0  0  0  0  0
  188.2890  177.3000  138.4290 O   0  0  0  0  0  0  0  0  0  0  0  0
  189.2150  179.0380  139.7510 C   0  0  0  0  0  1  0  0  0  0  0  0
  187.2820  177.5510  140.5090 N   0  0  0  0  0  2  0  0  0  0  0  0
  184.9960  179.2020  141.0180 C   0  0  0  0  0  2  0  0  0  0  0  0
  183.9910  178.2490  140.3980 C   0  0  0  0  0  2  0  0  0  0  0  0
  183.2340  178.9420  139.3710 N   0  0  0  0  0  2  0  0  0  0  0  0
  181.9430  176.0230  138.3590 C   0  0  1  0  0  3  0  0  0  0  0  0
  182.0710  178.1210  139.0840 C   0  0  2  0  0  3  0  0  0  0  0  0
  181.1020  177.9170  140.5760 S   0  0  0  0  0  0  0  0  0  0  0  0
  183.0700  175.0550  138.0540 C   0  0  0  0  0  1  0  0  0  0  0  0
  181.2690  175.6070  139.5870 C   0  0  0  0  0  2  0  0  0  0  0  0
  182.2670  176.7740  139.6660 C   0  0  1  0  0  0  0  0  0  0  0  0
  1 23  1  6  0  0  0
  1  8  1  0  0  0  0
  1 18  1  0  0  0  0
  2  3  1  0  0  0  0
  4 18  1  0  0  0  0
  4 16  1  1  0  0  0
  4  5  1  0  0  0  0
  5 19  1  0  0  0  0
  6 12  1  0  0  0  0
  7  2  2  0  0  0  0
  8 14  1  0  0  0  0
  9 13  1  0  0  0  0
 10  9  1  0  0  0  0
 10 15  2  0  0  0  0
 12  5  1  0  0  0  0
 12 11  2  0  0  0  0
 13  3  2  0  0  0  0
 14  7  1  0  0  0  0
 14  9  2  0  0  0  0
 18 10  1  1  0  0  0
 19 15  1  0  0  0  0
 19 17  2  0  0  0  0
 20 22  1  0  0  0  0
 20 23  1  0  0  0  0
 21 20  2  0  0  0  0
 24  8  1  0  0  0  0
 25 24  1  0  0  0  0
 26 25  1  0  0  0  0
 27 30  1  1  0  0  0
 27 31  1  0  0  0  0
 27 32  1  0  0  0  0
 28 26  1  1  0  0  0
 28 32  1  0  0  0  0
 28 29  1  0  0  0  0
 32 31  1  1  0  0  0
 32 29  1  0  0  0  0
M  END
>  <MODEL>
9

>  <REMARK>
 VINA RESULT:      -6.5      2.729      6.990
  Name = 
  5 active torsions:
  status: ('A' for Active; 'I' for Inactive)
    1  A    between atoms: C_2  and  N_12
    2  A    between atoms: C_3  and  N_28
    3  A    between atoms: C_9  and  N_14
    4  A    between atoms: C_9  and  C_21
    5  A    between atoms: N_12  and  C_21
                            x       y       z     vdW  Elec       q    Type
                         _______ _______ _______ _____ _____    ______ ____

>  <TORSDO>
F 5

$$$$
