=
 OpenBabel10272400293D

 31 33  0  0  1  0  0  0  0  0999 V2000
  189.3650  177.5710  147.0550 C   0  0  0  0  0  0  0  0  0  0  0  0
  187.5830  177.0880  145.2090 C   0  0  0  0  0  0  0  0  0  0  0  0
  189.2570  178.7910  147.8960 C   0  0  0  0  0  1  0  0  0  0  0  0
  188.4750  177.3330  146.1340 C   0  0  0  0  0  0  0  0  0  0  0  0
  188.0210  176.7540  143.8300 C   0  0  0  0  0  0  0  0  0  0  0  0
  187.9230  175.5650  143.4180 O   0  0  0  0  0  0  0  0  0  0  0  0
  188.5800  177.7740  142.8780 C   0  0  2  0  0  3  0  0  0  0  0  0
  188.4190  178.6980  140.5470 C   0  0  0  0  0  2  0  0  0  0  0  0
  187.6710  177.9840  141.6610 C   0  0  0  0  0  2  0  0  0  0  0  0
  189.6270  177.8480  140.1830 C   0  0  0  0  0  2  0  0  0  0  0  0
  190.4860  177.6510  141.3330 N   0  0  0  0  0  0  0  0  0  0  0  0
  190.0430  177.5380  142.5450 C   0  0  0  0  0  0  0  0  0  0  0  0
  192.0300  178.3400  143.5700 O   0  0  0  0  0  1  0  0  0  0  0  0
  191.6350  175.9950  143.6620 C   0  0  0  0  0  1  0  0  0  0  0  0
  191.0220  177.3820  143.6690 C   0  0  2  0  0  3  0  0  0  0  0  0
  190.4410  176.6450  147.2680 C   0  0  0  0  0  0  0  0  0  0  0  0
  191.3460  175.8690  147.4420 C   0  0  0  0  0  3  0  0  0  0  0  0
  186.1440  177.3130  145.5560 C   0  0  0  0  0  2  0  0  0  0  0  0
  185.8630  178.7640  145.9260 C   0  0  0  0  0  2  0  0  0  0  0  0
  184.5870  179.2600  145.2710 C   0  0  0  0  0  2  0  0  0  0  0  0
  184.7190  179.2240  143.7580 C   0  0  0  0  0  2  0  0  0  0  0  0
  182.1880  178.6850  139.1560 C   0  0  1  0  0  3  0  0  0  0  0  0
  184.0090  178.0570  140.8020 C   0  0  0  0  0  2  0  0  0  0  0  0
  181.2580  179.1670  142.8640 C   0  0  0  0  0  2  0  0  0  0  0  0
  182.2840  178.7770  143.9150 C   0  0  0  0  0  2  0  0  0  0  0  0
  181.9380  179.3790  137.9740 O   0  0  0  0  0  1  0  0  0  0  0  0
  183.5630  178.4540  143.1420 C   0  0  1  0  0  3  0  0  0  0  0  0
  183.7070  178.6010  139.3990 C   0  0  0  0  0  2  0  0  0  0  0  0
  181.9100  178.6880  141.5980 C   0  0  2  0  0  3  0  0  0  0  0  0
  183.3310  178.9030  141.7770 N   0  0  2  0  0  0  0  0  0  0  0  0
  181.4550  179.3670  140.3180 C   0  0  0  0  0  2  0  0  0  0  0  0
  1 16  1  0  0  0  0
  1  3  1  0  0  0  0
  2 18  1  0  0  0  0
  2  4  2  0  0  0  0
  4  1  2  0  0  0  0
  5  2  1  0  0  0  0
  6  5  2  0  0  0  0
  7  5  1  6  0  0  0
  8  9  1  0  0  0  0
  9  7  1  0  0  0  0
 10  8  1  0  0  0  0
 10 11  1  0  0  0  0
 11 12  2  0  0  0  0
 12  7  1  0  0  0  0
 12 15  1  0  0  0  0
 13 15  1  0  0  0  0
 15 14  1  6  0  0  0
 16 17  3  0  0  0  0
 18 19  1  0  0  0  0
 20 19  1  0  0  0  0
 21 20  1  0  0  0  0
 22 26  1  6  0  0  0
 22 28  1  0  0  0  0
 22 31  1  0  0  0  0
 24 25  1  0  0  0  0
 27 21  1  1  0  0  0
 27 25  1  0  0  0  0
 28 23  1  0  0  0  0
 29 31  1  6  0  0  0
 29 30  1  0  0  0  0
 29 24  1  0  0  0  0
 30 23  1  6  0  0  0
 30 27  1  0  0  0  0
M  END
>  <MODEL>
1

>  <REMARK>
 VINA RESULT:      -7.9      0.000      0.000
  Name = 
  9 active torsions:
  status: ('A' for Active; 'I' for Inactive)
    1  A    between atoms: C_2  and  C_13
    2  A    between atoms: C_4  and  C_5
    3  A    between atoms: C_4  and  C_12
    4  A    between atoms: C_9  and  C_23
    5  A    between atoms: C_12  and  C_27
    6  A    between atoms: C_15  and  C_20
    7  A    between atoms: C_15  and  C_23
    8  A    between atoms: C_20  and  C_27
    9  A    between atoms: C_30  and  C_31
                            x       y       z     vdW  Elec       q    Type
                         _______ _______ _______ _____ _____    ______ ____

>  <TORSDO>
F 9

$$$$
=
 OpenBabel10272400293D

 31 33  0  0  1  0  0  0  0  0999 V2000
  189.6880  177.2270  146.9330 C   0  0  0  0  0  0  0  0  0  0  0  0
  188.9390  177.7530  144.4870 C   0  0  0  0  0  0  0  0  0  0  0  0
  190.9370  176.4620  147.1830 C   0  0  0  0  0  1  0  0  0  0  0  0
  189.3160  177.4870  145.7110 C   0  0  0  0  0  0  0  0  0  0  0  0
  187.5470  177.4550  144.0610 C   0  0  0  0  0  0  0  0  0  0  0  0
  187.2770  176.3240  143.5700 O   0  0  0  0  0  0  0  0  0  0  0  0
  186.4220  178.4430  144.1920 C   0  0  2  0  0  3  0  0  0  0  0  0
  184.4270  179.0950  145.5710 C   0  0  0  0  0  2  0  0  0  0  0  0
  185.7770  178.4000  145.5820 C   0  0  0  0  0  2  0  0  0  0  0  0
  183.5520  178.3920  144.5440 C   0  0  0  0  0  2  0  0  0  0  0  0
  184.1610  178.4340  143.2300 N   0  0  0  0  0  0  0  0  0  0  0  0
  185.4400  178.3830  143.0340 C   0  0  0  0  0  0  0  0  0  0  0  0
  186.9180  179.4970  141.5460 O   0  0  0  0  0  1  0  0  0  0  0  0
  184.8470  178.7400  140.6500 C   0  0  0  0  0  1  0  0  0  0  0  0
  185.9700  178.4790  141.6350 C   0  0  2  0  0  3  0  0  0  0  0  0
  188.8990  177.6950  148.0360 C   0  0  0  0  0  0  0  0  0  0  0  0
  188.2330  178.0910  148.9600 C   0  0  0  0  0  3  0  0  0  0  0  0
  189.9890  178.2070  143.5210 C   0  0  0  0  0  2  0  0  0  0  0  0
  190.8880  177.0630  143.0710 C   0  0  0  0  0  2  0  0  0  0  0  0
  190.4730  176.5430  141.7060 C   0  0  0  0  0  2  0  0  0  0  0  0
  189.5880  177.5550  141.0010 C   0  0  0  0  0  2  0  0  0  0  0  0
  187.0860  176.5450  136.4620 C   0  0  1  0  0  3  0  0  0  0  0  0
  187.8150  178.1010  138.3240 C   0  0  0  0  0  2  0  0  0  0  0  0
  190.4500  175.6400  138.1080 C   0  0  0  0  0  2  0  0  0  0  0  0
  190.9740  176.5470  139.2080 C   0  0  0  0  0  2  0  0  0  0  0  0
  186.0010  175.8260  135.9640 O   0  0  0  0  0  1  0  0  0  0  0  0
  189.8440  177.5320  139.5030 C   0  0  1  0  0  3  0  0  0  0  0  0
  186.6160  177.4750  137.5970 C   0  0  0  0  0  2  0  0  0  0  0  0
  189.2460  176.3970  137.6260 C   0  0  2  0  0  3  0  0  0  0  0  0
  188.6750  177.0250  138.8000 N   0  0  2  0  0  0  0  0  0  0  0  0
  188.1780  175.5740  136.9260 C   0  0  0  0  0  2  0  0  0  0  0  0
  1  3  1  0  0  0  0
  1 16  1  0  0  0  0
  2  4  2  0  0  0  0
  4  1  2  0  0  0  0
  5  2  1  0  0  0  0
  6  5  2  0  0  0  0
  7  5  1  6  0  0  0
  7  9  1  0  0  0  0
  8  9  1  0  0  0  0
 10  8  1  0  0  0  0
 11 10  1  0  0  0  0
 12 11  2  0  0  0  0
 12  7  1  0  0  0  0
 13 15  1  0  0  0  0
 15 14  1  6  0  0  0
 15 12  1  0  0  0  0
 16 17  3  0  0  0  0
 18  2  1  0  0  0  0
 19 18  1  0  0  0  0
 20 19  1  0  0  0  0
 21 20  1  0  0  0  0
 22 26  1  1  0  0  0
 22 31  1  0  0  0  0
 22 28  1  0  0  0  0
 24 25  1  0  0  0  0
 25 27  1  0  0  0  0
 27 21  1  1  0  0  0
 28 23  1  0  0  0  0
 29 31  1  1  0  0  0
 29 24  1  0  0  0  0
 29 30  1  0  0  0  0
 30 23  1  6  0  0  0
 30 27  1  0  0  0  0
M  END
>  <MODEL>
2

>  <REMARK>
 VINA RESULT:      -7.8      2.369      5.849
  Name = 
  9 active torsions:
  status: ('A' for Active; 'I' for Inactive)
    1  A    between atoms: C_2  and  C_13
    2  A    between atoms: C_4  and  C_5
    3  A    between atoms: C_4  and  C_12
    4  A    between atoms: C_9  and  C_23
    5  A    between atoms: C_12  and  C_27
    6  A    between atoms: C_15  and  C_20
    7  A    between atoms: C_15  and  C_23
    8  A    between atoms: C_20  and  C_27
    9  A    between atoms: C_30  and  C_31
                            x       y       z     vdW  Elec       q    Type
                         _______ _______ _______ _____ _____    ______ ____

>  <TORSDO>
F 9

$$$$
=
 OpenBabel10272400293D

 31 33  0  0  1  0  0  0  0  0999 V2000
  186.5550  178.3220  142.4190 C   0  0  0  0  0  0  0  0  0  0  0  0
  188.8550  177.3500  143.1840 C   0  0  0  0  0  0  0  0  0  0  0  0
  186.3830  178.8300  141.0340 C   0  0  0  0  0  1  0  0  0  0  0  0
  187.7040  177.8380  142.7980 C   0  0  0  0  0  0  0  0  0  0  0  0
  189.4740  177.8260  144.4480 C   0  0  0  0  0  0  0  0  0  0  0  0
  190.2820  178.7940  144.4170 O   0  0  0  0  0  0  0  0  0  0  0  0
  189.1780  177.2100  145.7870 C   0  0  2  0  0  3  0  0  0  0  0  0
  187.8240  177.4450  147.8890 C   0  0  0  0  0  2  0  0  0  0  0  0
  187.8940  177.7710  146.4070 C   0  0  0  0  0  2  0  0  0  0  0  0
  189.0550  178.0440  148.5530 C   0  0  0  0  0  2  0  0  0  0  0  0
  190.2690  177.5120  147.9670 N   0  0  0  0  0  0  0  0  0  0  0  0
  190.3800  177.1990  146.7150 C   0  0  0  0  0  0  0  0  0  0  0  0
  191.4360  175.8150  145.1010 O   0  0  0  0  0  1  0  0  0  0  0  0
  192.3400  175.7930  147.3020 C   0  0  0  0  0  1  0  0  0  0  0  0
  191.6690  176.6140  146.2190 C   0  0  2  0  0  3  0  0  0  0  0  0
  185.4510  178.3480  143.3370 C   0  0  0  0  0  0  0  0  0  0  0  0
  184.5260  178.3740  144.1080 C   0  0  0  0  0  3  0  0  0  0  0  0
  189.5720  176.4360  142.2390 C   0  0  0  0  0  2  0  0  0  0  0  0
  190.8180  177.0860  141.6490 C   0  0  0  0  0  2  0  0  0  0  0  0
  190.8210  176.9890  140.1340 C   0  0  0  0  0  2  0  0  0  0  0  0
  189.6810  177.8040  139.5490 C   0  0  0  0  0  2  0  0  0  0  0  0
  185.6180  176.2540  136.5550 C   0  0  1  0  0  3  0  0  0  0  0  0
  187.1430  178.0310  137.5210 C   0  0  0  0  0  2  0  0  0  0  0  0
  189.2180  175.0850  137.2750 C   0  0  0  0  0  2  0  0  0  0  0  0
  190.2040  176.1030  137.8210 C   0  0  0  0  0  2  0  0  0  0  0  0
  184.3510  175.6840  136.6650 O   0  0  0  0  0  1  0  0  0  0  0  0
  189.3790  177.3510  138.1300 C   0  0  1  0  0  3  0  0  0  0  0  0
  185.6990  177.5170  137.4320 C   0  0  0  0  0  2  0  0  0  0  0  0
  188.0180  175.9390  136.9790 C   0  0  2  0  0  3  0  0  0  0  0  0
  187.9850  176.9490  138.0170 N   0  0  2  0  0  0  0  0  0  0  0  0
  186.6830  175.2170  136.9350 C   0  0  0  0  0  2  0  0  0  0  0  0
  1  4  2  0  0  0  0
  1 16  1  0  0  0  0
  2  5  1  0  0  0  0
  3  1  1  0  0  0  0
  4  2  2  0  0  0  0
  6  5  2  0  0  0  0
  7  5  1  6  0  0  0
  7  9  1  0  0  0  0
  7 12  1  0  0  0  0
  8 10  1  0  0  0  0
  9  8  1  0  0  0  0
 11 10  1  0  0  0  0
 12 11  2  0  0  0  0
 13 15  1  0  0  0  0
 15 12  1  0  0  0  0
 15 14  1  1  0  0  0
 16 17  3  0  0  0  0
 18  2  1  0  0  0  0
 19 18  1  0  0  0  0
 20 19  1  0  0  0  0
 21 20  1  0  0  0  0
 22 26  1  1  0  0  0
 22 31  1  0  0  0  0
 22 28  1  0  0  0  0
 24 25  1  0  0  0  0
 25 27  1  0  0  0  0
 27 21  1  1  0  0  0
 28 23  1  0  0  0  0
 29 31  1  1  0  0  0
 29 24  1  0  0  0  0
 29 30  1  0  0  0  0
 30 23  1  6  0  0  0
 30 27  1  0  0  0  0
M  END
>  <MODEL>
3

>  <REMARK>
 VINA RESULT:      -7.5      2.737      6.171
  Name = 
  9 active torsions:
  status: ('A' for Active; 'I' for Inactive)
    1  A    between atoms: C_2  and  C_13
    2  A    between atoms: C_4  and  C_5
    3  A    between atoms: C_4  and  C_12
    4  A    between atoms: C_9  and  C_23
    5  A    between atoms: C_12  and  C_27
    6  A    between atoms: C_15  and  C_20
    7  A    between atoms: C_15  and  C_23
    8  A    between atoms: C_20  and  C_27
    9  A    between atoms: C_30  and  C_31
                            x       y       z     vdW  Elec       q    Type
                         _______ _______ _______ _____ _____    ______ ____

>  <TORSDO>
F 9

$$$$
=
 OpenBabel10272400293D

 31 33  0  0  1  0  0  0  0  0999 V2000
  191.1760  176.9780  139.3530 C   0  0  0  0  0  0  0  0  0  0  0  0
  188.9200  178.2740  139.1240 C   0  0  0  0  0  0  0  0  0  0  0  0
  192.1780  177.3980  140.3660 C   0  0  0  0  0  1  0  0  0  0  0  0
  190.0510  177.6270  139.2410 C   0  0  0  0  0  0  0  0  0  0  0  0
  188.4660  178.7360  137.7870 C   0  0  0  0  0  0  0  0  0  0  0  0
  188.9460  179.7960  137.3010 O   0  0  0  0  0  0  0  0  0  0  0  0
  187.4520  177.9900  136.9640 C   0  0  2  0  0  3  0  0  0  0  0  0
  185.2920  176.7120  137.0520 C   0  0  0  0  0  2  0  0  0  0  0  0
  186.1370  177.7810  137.7240 C   0  0  0  0  0  2  0  0  0  0  0  0
  186.1100  175.4300  137.0170 C   0  0  0  0  0  2  0  0  0  0  0  0
  187.3520  175.6280  136.2980 N   0  0  0  0  0  0  0  0  0  0  0  0
  188.0180  176.7390  136.3150 C   0  0  0  0  0  0  0  0  0  0  0  0
  189.0840  177.7560  134.4530 O   0  0  0  0  0  1  0  0  0  0  0  0
  189.6760  175.5040  134.9410 C   0  0  0  0  0  1  0  0  0  0  0  0
  189.2700  176.8530  135.4990 C   0  0  2  0  0  3  0  0  0  0  0  0
  191.4370  175.8470  138.5080 C   0  0  0  0  0  0  0  0  0  0  0  0
  191.6520  174.8990  137.7970 C   0  0  0  0  0  3  0  0  0  0  0  0
  188.2070  178.6560  140.3840 C   0  0  0  0  0  2  0  0  0  0  0  0
  188.2330  177.5380  141.4190 C   0  0  0  0  0  2  0  0  0  0  0  0
  187.1410  177.7260  142.4570 C   0  0  0  0  0  2  0  0  0  0  0  0
  187.4180  176.8670  143.6780 C   0  0  0  0  0  2  0  0  0  0  0  0
  191.6500  176.7870  146.8340 C   0  0  1  0  0  3  0  0  0  0  0  0
  190.4740  177.3930  144.6730 C   0  0  0  0  0  2  0  0  0  0  0  0
  187.8700  177.4510  147.1760 C   0  0  0  0  0  2  0  0  0  0  0  0
  187.1000  177.8560  145.9310 C   0  0  0  0  0  2  0  0  0  0  0  0
  192.5550  175.8940  147.4050 O   0  0  0  0  0  1  0  0  0  0  0  0
  188.0800  177.6920  144.7690 C   0  0  1  0  0  3  0  0  0  0  0  0
  191.6250  176.5970  145.3060 C   0  0  0  0  0  2  0  0  0  0  0  0
  189.2880  177.4490  146.6800 C   0  0  2  0  0  3  0  0  0  0  0  0
  189.2290  176.9820  145.3110 N   0  0  2  0  0  0  0  0  0  0  0  0
  190.2650  176.5900  147.4630 C   0  0  0  0  0  2  0  0  0  0  0  0
  1  3  1  0  0  0  0
  2  4  2  0  0  0  0
  2 18  1  0  0  0  0
  4  1  2  0  0  0  0
  5  2  1  0  0  0  0
  6  5  2  0  0  0  0
  7  9  1  0  0  0  0
  7  5  1  1  0  0  0
  8  9  1  0  0  0  0
 10  8  1  0  0  0  0
 11 12  2  0  0  0  0
 11 10  1  0  0  0  0
 12  7  1  0  0  0  0
 13 15  1  0  0  0  0
 15 14  1  6  0  0  0
 15 12  1  0  0  0  0
 16  1  1  0  0  0  0
 17 16  3  0  0  0  0
 18 19  1  0  0  0  0
 19 20  1  0  0  0  0
 20 21  1  0  0  0  0
 22 26  1  1  0  0  0
 22 31  1  0  0  0  0
 23 28  1  0  0  0  0
 25 24  1  0  0  0  0
 27 21  1  6  0  0  0
 27 30  1  0  0  0  0
 27 25  1  0  0  0  0
 28 22  1  0  0  0  0
 29 24  1  1  0  0  0
 29 31  1  0  0  0  0
 30 23  1  6  0  0  0
 30 29  1  0  0  0  0
M  END
>  <MODEL>
4

>  <REMARK>
 VINA RESULT:      -7.3      3.578      7.879
  Name = 
  9 active torsions:
  status: ('A' for Active; 'I' for Inactive)
    1  A    between atoms: C_2  and  C_13
    2  A    between atoms: C_4  and  C_5
    3  A    between atoms: C_4  and  C_12
    4  A    between atoms: C_9  and  C_23
    5  A    between atoms: C_12  and  C_27
    6  A    between atoms: C_15  and  C_20
    7  A    between atoms: C_15  and  C_23
    8  A    between atoms: C_20  and  C_27
    9  A    between atoms: C_30  and  C_31
                            x       y       z     vdW  Elec       q    Type
                         _______ _______ _______ _____ _____    ______ ____

>  <TORSDO>
F 9

$$$$
=
 OpenBabel10272400293D

 31 33  0  0  1  0  0  0  0  0999 V2000
  185.5020  178.4240  143.0780 C   0  0  0  0  0  0  0  0  0  0  0  0
  187.4680  177.0640  144.1270 C   0  0  0  0  0  0  0  0  0  0  0  0
  185.5290  178.7860  141.6370 C   0  0  0  0  0  1  0  0  0  0  0  0
  186.4850  177.7450  143.5990 C   0  0  0  0  0  0  0  0  0  0  0  0
  188.1080  177.5390  145.3810 C   0  0  0  0  0  0  0  0  0  0  0  0
  187.5160  177.3710  146.4830 O   0  0  0  0  0  0  0  0  0  0  0  0
  189.4500  178.2160  145.4100 C   0  0  2  0  0  3  0  0  0  0  0  0
  191.2090  179.3250  144.0010 C   0  0  0  0  0  2  0  0  0  0  0  0
  189.7320  178.9900  144.1170 C   0  0  0  0  0  2  0  0  0  0  0  0
  191.9840  178.0160  144.0310 C   0  0  0  0  0  2  0  0  0  0  0  0
  191.7190  177.2860  145.2540 N   0  0  0  0  0  0  0  0  0  0  0  0
  190.5720  177.2940  145.8560 C   0  0  0  0  0  0  0  0  0  0  0  0
  190.1180  177.4160  148.1840 O   0  0  0  0  0  1  0  0  0  0  0  0
  191.6780  175.7660  147.4700 C   0  0  0  0  0  1  0  0  0  0  0  0
  190.4160  176.5390  147.1420 C   0  0  2  0  0  3  0  0  0  0  0  0
  184.3830  178.8050  143.8940 C   0  0  0  0  0  0  0  0  0  0  0  0
  183.4430  179.1280  144.5740 C   0  0  0  0  0  3  0  0  0  0  0  0
  188.0080  175.9060  143.3460 C   0  0  0  0  0  2  0  0  0  0  0  0
  189.3010  176.2570  142.6220 C   0  0  0  0  0  2  0  0  0  0  0  0
  189.0190  176.9130  141.2820 C   0  0  0  0  0  2  0  0  0  0  0  0
  190.3140  177.3590  140.6270 C   0  0  0  0  0  2  0  0  0  0  0  0
  186.6000  177.0770  136.8840 C   0  0  1  0  0  3  0  0  0  0  0  0
  188.0860  178.3700  138.4770 C   0  0  0  0  0  2  0  0  0  0  0  0
  189.9970  175.4220  137.6390 C   0  0  0  0  0  2  0  0  0  0  0  0
  190.9610  176.1540  138.5570 C   0  0  0  0  0  2  0  0  0  0  0  0
  185.2990  176.6210  136.6870 O   0  0  0  0  0  1  0  0  0  0  0  0
  190.1770  177.3430  139.1140 C   0  0  1  0  0  3  0  0  0  0  0  0
  186.6390  178.0390  138.0870 C   0  0  0  0  0  2  0  0  0  0  0  0
  188.9000  176.4330  137.4660 C   0  0  2  0  0  3  0  0  0  0  0  0
  188.7890  177.1190  138.7370 N   0  0  2  0  0  0  0  0  0  0  0  0
  187.5420  175.8810  137.0710 C   0  0  0  0  0  2  0  0  0  0  0  0
  1  4  2  0  0  0  0
  1 16  1  0  0  0  0
  2  5  1  0  0  0  0
  3  1  1  0  0  0  0
  4  2  2  0  0  0  0
  5  6  2  0  0  0  0
  7  5  1  6  0  0  0
  7 12  1  0  0  0  0
  8 10  1  0  0  0  0
  8  9  1  0  0  0  0
  9  7  1  0  0  0  0
 10 11  1  0  0  0  0
 11 12  2  0  0  0  0
 12 15  1  0  0  0  0
 15 14  1  1  0  0  0
 15 13  1  0  0  0  0
 16 17  3  0  0  0  0
 18  2  1  0  0  0  0
 19 18  1  0  0  0  0
 20 19  1  0  0  0  0
 21 20  1  0  0  0  0
 22 26  1  1  0  0  0
 22 31  1  0  0  0  0
 22 28  1  0  0  0  0
 24 25  1  0  0  0  0
 25 27  1  0  0  0  0
 27 21  1  1  0  0  0
 28 23  1  0  0  0  0
 29 31  1  1  0  0  0
 29 24  1  0  0  0  0
 29 30  1  0  0  0  0
 30 23  1  6  0  0  0
 30 27  1  0  0  0  0
M  END
>  <MODEL>
5

>  <REMARK>
 VINA RESULT:      -7.3      2.685      5.835
  Name = 
  9 active torsions:
  status: ('A' for Active; 'I' for Inactive)
    1  A    between atoms: C_2  and  C_13
    2  A    between atoms: C_4  and  C_5
    3  A    between atoms: C_4  and  C_12
    4  A    between atoms: C_9  and  C_23
    5  A    between atoms: C_12  and  C_27
    6  A    between atoms: C_15  and  C_20
    7  A    between atoms: C_15  and  C_23
    8  A    between atoms: C_20  and  C_27
    9  A    between atoms: C_30  and  C_31
                            x       y       z     vdW  Elec       q    Type
                         _______ _______ _______ _____ _____    ______ ____

>  <TORSDO>
F 9

$$$$
=
 OpenBabel10272400293D

 31 33  0  0  1  0  0  0  0  0999 V2000
  182.4650  178.9910  143.2550 C   0  0  0  0  0  0  0  0  0  0  0  0
  183.8850  178.6150  141.0960 C   0  0  0  0  0  0  0  0  0  0  0  0
  183.0570  178.7290  144.5930 C   0  0  0  0  0  1  0  0  0  0  0  0
  183.1760  178.8020  142.1800 C   0  0  0  0  0  0  0  0  0  0  0  0
  183.3270  177.8120  139.9770 C   0  0  0  0  0  0  0  0  0  0  0  0
  182.9880  176.6140  140.1810 O   0  0  0  0  0  0  0  0  0  0  0  0
  183.1360  178.3620  138.5910 C   0  0  2  0  0  3  0  0  0  0  0  0
  181.4840  178.6620  136.7230 C   0  0  0  0  0  2  0  0  0  0  0  0
  181.6540  178.4900  138.2220 C   0  0  0  0  0  2  0  0  0  0  0  0
  182.1110  177.4530  136.0450 C   0  0  0  0  0  2  0  0  0  0  0  0
  183.5120  177.3330  136.3920 N   0  0  0  0  0  0  0  0  0  0  0  0
  183.9920  177.6600  137.5500 C   0  0  0  0  0  0  0  0  0  0  0  0
  186.0700  178.7940  137.7330 O   0  0  0  0  0  1  0  0  0  0  0  0
  186.1060  176.6180  136.7720 C   0  0  0  0  0  1  0  0  0  0  0  0
  185.4660  177.5390  137.7920 C   0  0  2  0  0  3  0  0  0  0  0  0
  181.1160  179.4690  143.1480 C   0  0  0  0  0  0  0  0  0  0  0  0
  179.9840  179.8720  143.0520 C   0  0  0  0  0  3  0  0  0  0  0  0
  185.3020  179.0970  141.1030 C   0  0  0  0  0  2  0  0  0  0  0  0
  185.8920  179.1220  142.5070 C   0  0  0  0  0  2  0  0  0  0  0  0
  186.9110  178.0110  142.6930 C   0  0  0  0  0  2  0  0  0  0  0  0
  186.7210  177.3390  144.0410 C   0  0  0  0  0  2  0  0  0  0  0  0
  191.3900  176.9090  146.4690 C   0  0  1  0  0  3  0  0  0  0  0  0
  189.9020  177.7570  144.6030 C   0  0  0  0  0  2  0  0  0  0  0  0
  187.7190  177.5130  147.4700 C   0  0  0  0  0  2  0  0  0  0  0  0
  186.7700  178.0570  146.4150 C   0  0  0  0  0  2  0  0  0  0  0  0
  192.3590  175.9590  146.7850 O   0  0  0  0  0  1  0  0  0  0  0  0
  187.5560  178.0340  145.1040 C   0  0  1  0  0  3  0  0  0  0  0  0
  191.1250  176.8980  144.9510 C   0  0  0  0  0  2  0  0  0  0  0  0
  189.0420  177.5750  146.7620 C   0  0  2  0  0  3  0  0  0  0  0  0
  188.7650  177.2700  145.3740 N   0  0  2  0  0  0  0  0  0  0  0  0
  190.1170  176.6340  147.2790 C   0  0  0  0  0  2  0  0  0  0  0  0
  1  3  1  0  0  0  0
  2 18  1  0  0  0  0
  2  4  2  0  0  0  0
  4  1  2  0  0  0  0
  5  6  2  0  0  0  0
  5  2  1  0  0  0  0
  7  5  1  1  0  0  0
  8  9  1  0  0  0  0
  9  7  1  0  0  0  0
 10 11  1  0  0  0  0
 10  8  1  0  0  0  0
 11 12  2  0  0  0  0
 12 15  1  0  0  0  0
 12  7  1  0  0  0  0
 13 15  1  0  0  0  0
 15 14  1  6  0  0  0
 16  1  1  0  0  0  0
 17 16  3  0  0  0  0
 18 19  1  0  0  0  0
 19 20  1  0  0  0  0
 20 21  1  0  0  0  0
 22 26  1  6  0  0  0
 22 31  1  0  0  0  0
 23 28  1  0  0  0  0
 25 24  1  0  0  0  0
 27 21  1  6  0  0  0
 27 30  1  0  0  0  0
 27 25  1  0  0  0  0
 28 22  1  0  0  0  0
 29 31  1  1  0  0  0
 29 24  1  0  0  0  0
 30 23  1  6  0  0  0
 30 29  1  0  0  0  0
M  END
>  <MODEL>
6

>  <REMARK>
 VINA RESULT:      -7.3      2.384      8.083
  Name = 
  9 active torsions:
  status: ('A' for Active; 'I' for Inactive)
    1  A    between atoms: C_2  and  C_13
    2  A    between atoms: C_4  and  C_5
    3  A    between atoms: C_4  and  C_12
    4  A    between atoms: C_9  and  C_23
    5  A    between atoms: C_12  and  C_27
    6  A    between atoms: C_15  and  C_20
    7  A    between atoms: C_15  and  C_23
    8  A    between atoms: C_20  and  C_27
    9  A    between atoms: C_30  and  C_31
                            x       y       z     vdW  Elec       q    Type
                         _______ _______ _______ _____ _____    ______ ____

>  <TORSDO>
F 9

$$$$
=
 OpenBabel10272400293D

 31 33  0  0  1  0  0  0  0  0999 V2000
  187.2250  178.2890  139.6930 C   0  0  0  0  0  0  0  0  0  0  0  0
  184.7480  178.6510  140.4380 C   0  0  0  0  0  0  0  0  0  0  0  0
  188.3360  178.5510  140.6440 C   0  0  0  0  0  1  0  0  0  0  0  0
  185.9900  178.4710  140.0670 C   0  0  0  0  0  0  0  0  0  0  0  0
  183.8320  179.4530  139.5870 C   0  0  0  0  0  0  0  0  0  0  0  0
  184.2340  180.5440  139.0990 O   0  0  0  0  0  0  0  0  0  0  0  0
  182.4280  179.0230  139.2650 C   0  0  2  0  0  3  0  0  0  0  0  0
  180.2070  178.3930  140.2550 C   0  0  0  0  0  2  0  0  0  0  0  0
  181.4880  179.1810  140.4660 C   0  0  0  0  0  2  0  0  0  0  0  0
  180.5890  176.9350  140.0510 C   0  0  0  0  0  2  0  0  0  0  0  0
  181.4750  176.7860  138.9150 N   0  0  0  0  0  0  0  0  0  0  0  0
  182.3620  177.6690  138.5810 C   0  0  0  0  0  0  0  0  0  0  0  0
  182.4160  177.5360  136.2100 O   0  0  0  0  0  1  0  0  0  0  0  0
  183.8620  176.0750  137.4090 C   0  0  0  0  0  1  0  0  0  0  0  0
  183.2000  177.4370  137.3590 C   0  0  2  0  0  3  0  0  0  0  0  0
  187.5100  177.8170  138.3680 C   0  0  0  0  0  0  0  0  0  0  0  0
  187.7450  177.4250  137.2530 C   0  0  0  0  0  3  0  0  0  0  0  0
  184.3520  178.1610  141.7960 C   0  0  0  0  0  2  0  0  0  0  0  0
  185.0540  178.9270  142.9090 C   0  0  0  0  0  2  0  0  0  0  0  0
  185.2740  178.0470  144.1270 C   0  0  0  0  0  2  0  0  0  0  0  0
  186.6700  177.4510  144.1050 C   0  0  0  0  0  2  0  0  0  0  0  0
  191.3760  176.8380  146.4180 C   0  0  1  0  0  3  0  0  0  0  0  0
  189.8660  177.8000  144.6270 C   0  0  0  0  0  2  0  0  0  0  0  0
  187.7320  177.4350  147.5180 C   0  0  0  0  0  2  0  0  0  0  0  0
  186.7720  178.0450  146.5110 C   0  0  0  0  0  2  0  0  0  0  0  0
  192.3390  175.8620  146.6670 O   0  0  0  0  0  1  0  0  0  0  0  0
  187.5330  178.0800  145.1860 C   0  0  1  0  0  3  0  0  0  0  0  0
  191.0840  176.9090  144.9080 C   0  0  0  0  0  2  0  0  0  0  0  0
  189.0430  177.5170  146.7900 C   0  0  2  0  0  3  0  0  0  0  0  0
  188.7360  177.2880  145.3930 N   0  0  2  0  0  0  0  0  0  0  0  0
  190.1140  176.5380  147.2370 C   0  0  0  0  0  2  0  0  0  0  0  0
  1  4  2  0  0  0  0
  1  3  1  0  0  0  0
  2 18  1  0  0  0  0
  4  2  2  0  0  0  0
  5  2  1  0  0  0  0
  6  5  2  0  0  0  0
  7  5  1  1  0  0  0
  7  9  1  0  0  0  0
  8  9  1  0  0  0  0
 10  8  1  0  0  0  0
 11 10  1  0  0  0  0
 12 11  2  0  0  0  0
 12  7  1  0  0  0  0
 13 15  1  0  0  0  0
 15 14  1  1  0  0  0
 15 12  1  0  0  0  0
 16  1  1  0  0  0  0
 17 16  3  0  0  0  0
 18 19  1  0  0  0  0
 19 20  1  0  0  0  0
 21 20  1  0  0  0  0
 22 26  1  6  0  0  0
 22 31  1  0  0  0  0
 23 28  1  0  0  0  0
 25 24  1  0  0  0  0
 27 21  1  6  0  0  0
 27 30  1  0  0  0  0
 27 25  1  0  0  0  0
 28 22  1  0  0  0  0
 29 31  1  1  0  0  0
 29 24  1  0  0  0  0
 30 23  1  6  0  0  0
 30 29  1  0  0  0  0
M  END
>  <MODEL>
7

>  <REMARK>
 VINA RESULT:      -7.1      2.156      8.295
  Name = 
  9 active torsions:
  status: ('A' for Active; 'I' for Inactive)
    1  A    between atoms: C_2  and  C_13
    2  A    between atoms: C_4  and  C_5
    3  A    between atoms: C_4  and  C_12
    4  A    between atoms: C_9  and  C_23
    5  A    between atoms: C_12  and  C_27
    6  A    between atoms: C_15  and  C_20
    7  A    between atoms: C_15  and  C_23
    8  A    between atoms: C_20  and  C_27
    9  A    between atoms: C_30  and  C_31
                            x       y       z     vdW  Elec       q    Type
                         _______ _______ _______ _____ _____    ______ ____

>  <TORSDO>
F 9

$$$$
=
 OpenBabel10272400293D

 31 33  0  0  1  0  0  0  0  0999 V2000
  185.7710  178.5720  143.1920 C   0  0  0  0  0  0  0  0  0  0  0  0
  188.1280  177.4710  143.4240 C   0  0  0  0  0  0  0  0  0  0  0  0
  185.3430  179.1530  141.8930 C   0  0  0  0  0  1  0  0  0  0  0  0
  186.9480  178.0240  143.3050 C   0  0  0  0  0  0  0  0  0  0  0  0
  189.0160  177.8600  144.5500 C   0  0  0  0  0  0  0  0  0  0  0  0
  189.9000  178.7410  144.3680 O   0  0  0  0  0  0  0  0  0  0  0  0
  188.9120  177.2530  145.9220 C   0  0  2  0  0  3  0  0  0  0  0  0
  187.8590  177.4980  148.1890 C   0  0  0  0  0  2  0  0  0  0  0  0
  187.7210  177.8120  146.7100 C   0  0  0  0  0  2  0  0  0  0  0  0
  189.1660  178.1090  148.6720 C   0  0  0  0  0  2  0  0  0  0  0  0
  190.2910  177.5780  147.9280 N   0  0  0  0  0  0  0  0  0  0  0  0
  190.2300  177.2560  146.6750 C   0  0  0  0  0  0  0  0  0  0  0  0
  191.0620  175.8560  144.9470 O   0  0  0  0  0  1  0  0  0  0  0  0
  192.2670  175.8730  146.9990 C   0  0  0  0  0  1  0  0  0  0  0  0
  191.4410  176.6730  146.0110 C   0  0  2  0  0  3  0  0  0  0  0  0
  184.8820  178.5970  144.3190 C   0  0  0  0  0  0  0  0  0  0  0  0
  184.1380  178.6220  145.2660 C   0  0  0  0  0  3  0  0  0  0  0  0
  188.5900  176.5770  142.3160 C   0  0  0  0  0  2  0  0  0  0  0  0
  189.4740  177.3130  141.3170 C   0  0  0  0  0  2  0  0  0  0  0  0
  188.6600  178.2710  140.4660 C   0  0  0  0  0  2  0  0  0  0  0  0
  189.1800  178.2870  139.0400 C   0  0  0  0  0  2  0  0  0  0  0  0
  192.9200  175.5780  136.4800 C   0  0  1  0  0  3  0  0  0  0  0  0
  191.8760  176.5170  138.5890 C   0  0  0  0  0  2  0  0  0  0  0  0
  189.0810  175.8910  136.3890 C   0  0  0  0  0  2  0  0  0  0  0  0
  188.3760  176.4110  137.6300 C   0  0  0  0  0  2  0  0  0  0  0  0
  193.9510  175.7650  135.5620 O   0  0  0  0  0  1  0  0  0  0  0  0
  189.4880  176.8750  138.5710 C   0  0  1  0  0  3  0  0  0  0  0  0
  193.1130  176.5260  137.6790 C   0  0  0  0  0  2  0  0  0  0  0  0
  190.4990  175.7620  136.8650 C   0  0  2  0  0  3  0  0  0  0  0  0
  190.7120  176.8620  137.7830 N   0  0  2  0  0  0  0  0  0  0  0  0
  191.5680  175.7920  135.7870 C   0  0  0  0  0  2  0  0  0  0  0  0
  1  4  2  0  0  0  0
  1 16  1  0  0  0  0
  2  5  1  0  0  0  0
  3  1  1  0  0  0  0
  4  2  2  0  0  0  0
  6  5  2  0  0  0  0
  7  5  1  6  0  0  0
  7 12  1  0  0  0  0
  7  9  1  0  0  0  0
  8 10  1  0  0  0  0
  9  8  1  0  0  0  0
 11 10  1  0  0  0  0
 12 11  2  0  0  0  0
 13 15  1  0  0  0  0
 15 12  1  0  0  0  0
 15 14  1  1  0  0  0
 16 17  3  0  0  0  0
 18  2  1  0  0  0  0
 19 18  1  0  0  0  0
 20 19  1  0  0  0  0
 21 20  1  0  0  0  0
 22 26  1  6  0  0  0
 22 28  1  0  0  0  0
 24 29  1  0  0  0  0
 24 25  1  0  0  0  0
 25 27  1  0  0  0  0
 27 21  1  6  0  0  0
 28 23  1  0  0  0  0
 29 31  1  6  0  0  0
 29 30  1  0  0  0  0
 30 27  1  0  0  0  0
 30 23  1  1  0  0  0
 31 22  1  0  0  0  0
M  END
>  <MODEL>
8

>  <REMARK>
 VINA RESULT:      -7.1      3.249      7.278
  Name = 
  9 active torsions:
  status: ('A' for Active; 'I' for Inactive)
    1  A    between atoms: C_2  and  C_13
    2  A    between atoms: C_4  and  C_5
    3  A    between atoms: C_4  and  C_12
    4  A    between atoms: C_9  and  C_23
    5  A    between atoms: C_12  and  C_27
    6  A    between atoms: C_15  and  C_20
    7  A    between atoms: C_15  and  C_23
    8  A    between atoms: C_20  and  C_27
    9  A    between atoms: C_30  and  C_31
                            x       y       z     vdW  Elec       q    Type
                         _______ _______ _______ _____ _____    ______ ____

>  <TORSDO>
F 9

$$$$
=
 OpenBabel10272400293D

 31 33  0  0  1  0  0  0  0  0999 V2000
  191.8720  176.7550  139.1700 C   0  0  0  0  0  0  0  0  0  0  0  0
  189.5420  177.6080  139.9830 C   0  0  0  0  0  0  0  0  0  0  0  0
  193.1170  177.2900  139.7790 C   0  0  0  0  0  1  0  0  0  0  0  0
  190.7110  177.1830  139.5770 C   0  0  0  0  0  0  0  0  0  0  0  0
  188.5350  178.0620  138.9910 C   0  0  0  0  0  0  0  0  0  0  0  0
  188.6310  179.2170  138.4910 O   0  0  0  0  0  0  0  0  0  0  0  0
  187.3880  177.2020  138.5360 C   0  0  2  0  0  3  0  0  0  0  0  0
  186.5250  175.7770  136.6560 C   0  0  0  0  0  2  0  0  0  0  0  0
  187.7680  176.3260  137.3350 C   0  0  0  0  0  2  0  0  0  0  0  0
  185.6750  176.9600  136.2180 C   0  0  0  0  0  2  0  0  0  0  0  0
  185.3160  177.7860  137.3530 N   0  0  0  0  0  0  0  0  0  0  0  0
  186.0920  177.9760  138.3730 C   0  0  0  0  0  0  0  0  0  0  0  0
  185.5360  178.0510  140.6800 O   0  0  0  0  0  1  0  0  0  0  0  0
  184.2420  179.4040  139.2110 C   0  0  0  0  0  1  0  0  0  0  0  0
  185.6050  178.8150  139.5160 C   0  0  2  0  0  3  0  0  0  0  0  0
  191.9460  175.7530  138.1440 C   0  0  0  0  0  0  0  0  0  0  0  0
  192.0070  174.9090  137.2870 C   0  0  0  0  0  3  0  0  0  0  0  0
  189.3340  177.7630  141.4580 C   0  0  0  0  0  2  0  0  0  0  0  0
  189.7320  176.5090  142.2270 C   0  0  0  0  0  2  0  0  0  0  0  0
  190.6340  176.8480  143.4000 C   0  0  0  0  0  2  0  0  0  0  0  0
  189.9700  177.8750  144.3000 C   0  0  0  0  0  2  0  0  0  0  0  0
  184.9260  178.2420  145.8170 C   0  0  1  0  0  3  0  0  0  0  0  0
  186.7540  177.3610  144.3000 C   0  0  0  0  0  2  0  0  0  0  0  0
  188.3690  177.8320  147.4970 C   0  0  0  0  0  2  0  0  0  0  0  0
  189.5100  177.2740  146.6620 C   0  0  0  0  0  2  0  0  0  0  0  0
  183.8870  179.1670  145.8990 O   0  0  0  0  0  1  0  0  0  0  0  0
  188.9760  177.2010  145.2320 C   0  0  1  0  0  3  0  0  0  0  0  0
  185.4620  178.1880  144.3740 C   0  0  0  0  0  2  0  0  0  0  0  0
  187.1990  177.6840  146.5660 C   0  0  2  0  0  3  0  0  0  0  0  0
  187.7160  177.9300  145.2360 N   0  0  2  0  0  0  0  0  0  0  0  0
  186.0210  178.6060  146.8270 C   0  0  0  0  0  2  0  0  0  0  0  0
  1  4  2  0  0  0  0
  1  3  1  0  0  0  0
  2 18  1  0  0  0  0
  4  2  2  0  0  0  0
  5  2  1  0  0  0  0
  6  5  2  0  0  0  0
  7  5  1  6  0  0  0
  8  9  1  0  0  0  0
  9  7  1  0  0  0  0
 10  8  1  0  0  0  0
 10 11  1  0  0  0  0
 11 12  2  0  0  0  0
 12  7  1  0  0  0  0
 12 15  1  0  0  0  0
 15 14  1  6  0  0  0
 15 13  1  0  0  0  0
 16  1  1  0  0  0  0
 17 16  3  0  0  0  0
 18 19  1  0  0  0  0
 19 20  1  0  0  0  0
 20 21  1  0  0  0  0
 22 26  1  6  0  0  0
 22 31  1  0  0  0  0
 23 28  1  0  0  0  0
 25 24  1  0  0  0  0
 27 21  1  6  0  0  0
 27 30  1  0  0  0  0
 27 25  1  0  0  0  0
 28 22  1  0  0  0  0
 29 31  1  1  0  0  0
 29 24  1  0  0  0  0
 30 23  1  6  0  0  0
 30 29  1  0  0  0  0
M  END
>  <MODEL>
9

>  <REMARK>
 VINA RESULT:      -7.1      3.061      6.892
  Name = 
  9 active torsions:
  status: ('A' for Active; 'I' for Inactive)
    1  A    between atoms: C_2  and  C_13
    2  A    between atoms: C_4  and  C_5
    3  A    between atoms: C_4  and  C_12
    4  A    between atoms: C_9  and  C_23
    5  A    between atoms: C_12  and  C_27
    6  A    between atoms: C_15  and  C_20
    7  A    between atoms: C_15  and  C_23
    8  A    between atoms: C_20  and  C_27
    9  A    between atoms: C_30  and  C_31
                            x       y       z     vdW  Elec       q    Type
                         _______ _______ _______ _____ _____    ______ ____

>  <TORSDO>
F 9

$$$$
