=
 OpenBabel10272413393D

 32 36  0  0  0  0  0  0  0  0999 V2000
  182.0460  179.0210  142.1150 C   0  0  0  0  0  0  0  0  0  0  0  0
  186.9510  178.0860  143.1240 C   0  0  0  0  0  0  0  0  0  0  0  0
  188.4090  177.6940  145.1750 C   0  0  0  0  0  0  0  0  0  0  0  0
  189.6600  177.1510  145.7370 C   0  0  0  0  0  0  0  0  0  0  0  0
  184.5230  178.4610  143.2330 C   0  0  0  0  0  0  0  0  0  0  0  0
  185.6720  178.9280  141.0270 C   0  0  0  0  0  3  0  0  0  0  0  0
  192.0490  176.1160  146.7750 C   0  0  0  0  0  3  0  0  0  0  0  0
  183.1930  179.0900  141.3210 C   0  0  0  0  0  2  0  0  0  0  0  0
  186.9090  178.3220  141.6590 C   0  0  0  0  0  0  0  0  0  0  0  0
  188.0020  178.0600  140.9140 C   0  0  0  0  0  0  0  0  0  0  0  0
  189.3180  177.3710  142.8820 C   0  0  0  0  0  0  0  0  0  0  0  0
  191.0310  176.5240  147.6410 C   0  0  0  0  0  3  0  0  0  0  0  0
  182.1690  178.6840  143.4650 C   0  0  0  0  0  3  0  0  0  0  0  0
  184.4410  178.7990  141.8730 C   0  0  0  0  0  0  0  0  0  0  0  0
  189.8400  177.0410  147.1240 C   0  0  0  0  0  3  0  0  0  0  0  0
  183.3940  178.4110  143.9910 N   0  0  0  0  0  0  0  0  0  0  0  0
  189.2380  177.4990  141.5470 C   0  0  0  0  0  0  0  0  0  0  0  0
  190.5250  176.8610  143.4600 N   0  0  0  0  0  2  0  0  0  0  0  0
  185.8190  178.1420  143.8390 C   0  0  0  0  0  3  0  0  0  0  0  0
  187.5300  178.1450  145.9580 O   0  0  0  0  0  0  0  0  0  0  0  0
  191.8770  176.2250  145.3930 C   0  0  0  0  0  3  0  0  0  0  0  0
  188.2110  177.7280  143.7390 N   0  0  0  0  0  0  0  0  0  0  0  0
  190.6860  176.7410  144.8720 C   0  0  0  0  0  0  0  0  0  0  0  0
  187.9760  178.6020  138.3650 N   0  0  0  0  0  0  0  0  0  0  0  0
  187.9870  178.3580  139.4980 C   0  0  0  0  0  0  0  0  0  0  0  0
  190.3110  176.0930  139.9040 O   0  0  0  0  0  1  0  0  0  0  0  0
  190.3510  177.0950  140.7910 O   0  0  0  0  0  0  0  0  0  0  0  0
  180.7130  179.3430  141.5380 C   0  0  0  0  0  2  0  0  0  0  0  0
  180.5920  178.7550  140.1360 C   0  0  0  0  0  2  0  0  0  0  0  0
  180.3140  179.8180  139.0760 C   0  0  0  0  0  3  0  0  0  0  0  0
  180.0350  181.1730  139.7020 C   0  0  0  0  0  1  0  0  0  0  0  0
  181.4510  179.9200  138.0740 C   0  0  0  0  0  1  0  0  0  0  0  0
  1 13  2  0  0  0  0
  2 22  1  0  0  0  0
  2 19  2  0  0  0  0
  3  4  1  0  0  0  0
  3 20  2  0  0  0  0
  4 15  1  0  0  0  0
  5 19  1  0  0  0  0
  5 16  2  0  0  0  0
  6  9  1  0  0  0  0
  6 14  2  0  0  0  0
  7 12  1  0  0  0  0
  8 14  1  0  0  0  0
  8  1  1  0  0  0  0
  9  2  1  0  0  0  0
 10 17  1  0  0  0  0
 10  9  2  0  0  0  0
 11 18  1  0  0  0  0
 11 22  1  0  0  0  0
 13 16  1  0  0  0  0
 14  5  1  0  0  0  0
 15 12  2  0  0  0  0
 17 11  2  0  0  0  0
 18 23  1  0  0  0  0
 21  7  2  0  0  0  0
 22  3  1  0  0  0  0
 23 21  1  0  0  0  0
 23  4  2  0  0  0  0
 24 25  3  0  0  0  0
 25 10  1  0  0  0  0
 26 27  1  0  0  0  0
 27 17  1  0  0  0  0
 28  1  1  0  0  0  0
 29 28  1  0  0  0  0
 30 31  1  0  0  0  0
 30 29  1  0  0  0  0
 32 30  1  0  0  0  0
M  END
>  <MODEL>
1

>  <REMARK>
 VINA RESULT:      -9.3      0.000      0.000
  Name = 
  5 active torsions:
  status: ('A' for Active; 'I' for Inactive)
    1  A    between atoms: C_1  and  C_10
    2  A    between atoms: C_2  and  C_24
    3  A    between atoms: C_10  and  C_24
    4  A    between atoms: C_13  and  C_15
    5  A    between atoms: O_25  and  C_26
                            x       y       z     vdW  Elec       q    Type
                         _______ _______ _______ _____ _____    ______ ____

>  <TORSDO>
F 5

$$$$
=
 OpenBabel10272413393D

 32 36  0  0  0  0  0  0  0  0999 V2000
  181.6720  178.8910  139.5990 C   0  0  0  0  0  0  0  0  0  0  0  0
  185.9280  178.3730  142.3510 C   0  0  0  0  0  0  0  0  0  0  0  0
  186.5720  178.2230  144.8100 C   0  0  0  0  0  0  0  0  0  0  0  0
  187.5610  177.8090  145.8230 C   0  0  0  0  0  0  0  0  0  0  0  0
  183.6070  178.5820  141.5640 C   0  0  0  0  0  0  0  0  0  0  0  0
  185.4480  178.9800  139.8720 C   0  0  0  0  0  3  0  0  0  0  0  0
  189.4620  177.0170  147.7240 C   0  0  0  0  0  3  0  0  0  0  0  0
  183.0230  178.9870  139.2570 C   0  0  0  0  0  2  0  0  0  0  0  0
  186.4020  178.5060  140.9510 C   0  0  0  0  0  0  0  0  0  0  0  0
  187.6990  178.2720  140.6650 C   0  0  0  0  0  0  0  0  0  0  0  0
  188.2520  177.8120  143.0230 C   0  0  0  0  0  0  0  0  0  0  0  0
  188.1870  177.4100  148.1350 C   0  0  0  0  0  3  0  0  0  0  0  0
  181.3190  178.6540  140.9300 C   0  0  0  0  0  3  0  0  0  0  0  0
  184.0030  178.8220  140.2380 C   0  0  0  0  0  0  0  0  0  0  0  0
  187.2380  177.8060  147.1880 C   0  0  0  0  0  3  0  0  0  0  0  0
  182.2850  178.5040  141.8760 N   0  0  0  0  0  0  0  0  0  0  0  0
  188.6500  177.8430  141.7400 C   0  0  0  0  0  0  0  0  0  0  0  0
  189.1940  177.4270  144.0320 N   0  0  0  0  0  2  0  0  0  0  0  0
  184.6140  178.3970  142.6130 C   0  0  0  0  0  3  0  0  0  0  0  0
  185.4530  178.6630  145.1900 O   0  0  0  0  0  0  0  0  0  0  0  0
  189.7910  177.0200  146.3650 C   0  0  0  0  0  3  0  0  0  0  0  0
  186.8980  178.1460  143.4000 N   0  0  0  0  0  0  0  0  0  0  0  0
  188.8450  177.4140  145.4150 C   0  0  0  0  0  0  0  0  0  0  0  0
  188.5660  178.6340  138.2350 N   0  0  0  0  0  0  0  0  0  0  0  0
  188.1780  178.4720  139.3140 C   0  0  0  0  0  0  0  0  0  0  0  0
  190.3140  176.2580  141.0040 O   0  0  0  0  0  1  0  0  0  0  0  0
  189.9750  177.4690  141.4640 O   0  0  0  0  0  0  0  0  0  0  0  0
  180.6200  179.0790  138.5640 C   0  0  0  0  0  2  0  0  0  0  0  0
  181.2040  179.7860  137.3440 C   0  0  0  0  0  2  0  0  0  0  0  0
  180.5510  181.1400  137.0820 C   0  0  0  0  0  3  0  0  0  0  0  0
  181.1720  182.2340  137.9310 C   0  0  0  0  0  1  0  0  0  0  0  0
  180.6090  181.5130  135.6100 C   0  0  0  0  0  1  0  0  0  0  0  0
  1 13  2  0  0  0  0
  2 19  2  0  0  0  0
  2 22  1  0  0  0  0
  3 20  2  0  0  0  0
  3  4  1  0  0  0  0
  4 15  1  0  0  0  0
  5 16  2  0  0  0  0
  5 19  1  0  0  0  0
  6 14  2  0  0  0  0
  6  9  1  0  0  0  0
  7 12  1  0  0  0  0
  8  1  1  0  0  0  0
  8 14  1  0  0  0  0
  9  2  1  0  0  0  0
 10  9  2  0  0  0  0
 10 17  1  0  0  0  0
 11 22  1  0  0  0  0
 11 18  1  0  0  0  0
 13 16  1  0  0  0  0
 14  5  1  0  0  0  0
 15 12  2  0  0  0  0
 17 11  2  0  0  0  0
 18 23  1  0  0  0  0
 21  7  2  0  0  0  0
 22  3  1  0  0  0  0
 23  4  2  0  0  0  0
 23 21  1  0  0  0  0
 24 25  3  0  0  0  0
 25 10  1  0  0  0  0
 26 27  1  0  0  0  0
 27 17  1  0  0  0  0
 28  1  1  0  0  0  0
 29 28  1  0  0  0  0
 30 29  1  0  0  0  0
 30 31  1  0  0  0  0
 32 30  1  0  0  0  0
M  END
>  <MODEL>
2

>  <REMARK>
 VINA RESULT:      -9.1      1.415      2.043
  Name = 
  5 active torsions:
  status: ('A' for Active; 'I' for Inactive)
    1  A    between atoms: C_1  and  C_10
    2  A    between atoms: C_2  and  C_24
    3  A    between atoms: C_10  and  C_24
    4  A    between atoms: C_13  and  C_15
    5  A    between atoms: O_25  and  C_26
                            x       y       z     vdW  Elec       q    Type
                         _______ _______ _______ _____ _____    ______ ____

>  <TORSDO>
F 5

$$$$
=
 OpenBabel10272413393D

 32 36  0  0  1  0  0  0  0  0999 V2000
  188.5830  177.6230  147.0160 C   0  0  0  0  0  0  0  0  0  0  0  0
  186.0890  178.1910  142.6100 C   0  0  1  0  0  3  0  0  0  0  0  0
  183.6900  178.5640  141.8410 C   0  0  0  0  0  0  0  0  0  0  0  0
  182.7710  179.0280  140.7830 C   0  0  0  0  0  0  0  0  0  0  0  0
  186.7490  178.0290  144.9740 C   0  0  0  0  0  0  0  0  0  0  0  0
  188.4640  177.3520  143.2410 C   0  0  0  0  0  3  0  0  0  0  0  0
  181.0510  179.9090  138.7540 C   0  0  0  0  0  3  0  0  0  0  0  0
  188.9700  177.4160  145.6890 C   0  0  0  0  0  3  0  0  0  0  0  0
  187.4850  177.8830  142.2120 C   0  0  0  0  0  0  0  0  0  0  0  0
  187.8500  178.0130  140.9200 C   0  0  0  0  0  0  0  0  0  0  0  0
  185.5820  178.6890  140.2300 C   0  0  0  0  0  0  0  0  0  0  0  0
  180.5450  179.6340  140.0270 C   0  0  0  0  0  3  0  0  0  0  0  0
  187.2720  178.0190  147.2910 C   0  0  0  0  0  3  0  0  0  0  0  0
  188.0560  177.6290  144.6560 C   0  0  0  0  0  0  0  0  0  0  0  0
  181.4030  179.1940  141.0390 C   0  0  0  0  0  3  0  0  0  0  0  0
  186.3900  178.2140  146.2730 N   0  0  0  0  0  0  0  0  0  0  0  0
  186.8700  178.4990  139.8980 C   0  0  0  0  0  0  0  0  0  0  0  0
  184.6620  179.1250  139.2220 N   0  0  0  0  0  2  0  0  0  0  0  0
  185.7690  178.2690  143.9100 C   0  0  0  0  0  3  0  0  0  0  0  0
  183.2170  178.2300  142.9610 O   0  0  0  0  0  0  0  0  0  0  0  0
  182.4140  179.7430  138.4920 C   0  0  0  0  0  3  0  0  0  0  0  0
  185.1130  178.4730  141.5800 N   0  0  0  0  0  0  0  0  0  0  0  0
  183.2750  179.3040  139.5030 C   0  0  0  0  0  0  0  0  0  0  0  0
  190.2620  177.3500  140.1920 N   0  0  0  0  0  0  0  0  0  0  0  0
  189.1900  177.6430  140.5190 C   0  0  0  0  0  0  0  0  0  0  0  0
  187.3470  177.8170  137.6330 O   0  0  0  0  0  1  0  0  0  0  0  0
  187.2410  178.7670  138.5700 O   0  0  0  0  0  0  0  0  0  0  0  0
  189.5460  177.3860  148.1250 C   0  0  0  0  0  2  0  0  0  0  0  0
  190.9770  177.4200  147.5940 C   0  0  0  0  0  2  0  0  0  0  0  0
  191.5750  176.0260  147.4290 C   0  0  0  0  0  3  0  0  0  0  0  0
  191.9830  175.7600  145.9910 C   0  0  0  0  0  1  0  0  0  0  0  0
  192.7530  175.8090  148.3640 C   0  0  0  0  0  1  0  0  0  0  0  0
  1 13  1  0  0  0  0
  1 28  1  0  0  0  0
  2 19  1  1  0  0  0
  3 20  2  0  0  0  0
  4 15  1  0  0  0  0
  4  3  1  0  0  0  0
  5 16  1  0  0  0  0
  6 14  2  0  0  0  0
  7 12  1  0  0  0  0
  8  1  2  0  0  0  0
  9  2  1  0  0  0  0
  9  6  1  0  0  0  0
 10  9  2  0  0  0  0
 11 22  1  0  0  0  0
 12 15  2  0  0  0  0
 14  5  1  0  0  0  0
 14  8  1  0  0  0  0
 16 13  2  0  0  0  0
 17 11  2  0  0  0  0
 17 10  1  0  0  0  0
 18 23  1  0  0  0  0
 18 11  1  0  0  0  0
 19  5  2  0  0  0  0
 21  7  2  0  0  0  0
 21 23  1  0  0  0  0
 22  3  1  0  0  0  0
 22  2  1  0  0  0  0
 23  4  2  0  0  0  0
 24 25  3  0  0  0  0
 25 10  1  0  0  0  0
 26 27  1  0  0  0  0
 27 17  1  0  0  0  0
 29 28  1  0  0  0  0
 30 29  1  0  0  0  0
 30 32  1  0  0  0  0
 31 30  1  0  0  0  0
M  END
>  <MODEL>
3

>  <REMARK>
 VINA RESULT:      -9.1      2.044      8.309
  Name = 
  5 active torsions:
  status: ('A' for Active; 'I' for Inactive)
    1  A    between atoms: C_1  and  C_10
    2  A    between atoms: C_2  and  C_24
    3  A    between atoms: C_10  and  C_24
    4  A    between atoms: C_13  and  C_15
    5  A    between atoms: O_25  and  C_26
                            x       y       z     vdW  Elec       q    Type
                         _______ _______ _______ _____ _____    ______ ____

>  <TORSDO>
F 5

$$$$
=
 OpenBabel10272413393D

 32 36  0  0  1  0  0  0  0  0999 V2000
  192.0410  176.7290  138.4990 C   0  0  0  0  0  0  0  0  0  0  0  0
  188.5790  177.7730  142.0890 C   0  0  1  0  0  3  0  0  0  0  0  0
  186.1590  178.5560  142.1970 C   0  0  0  0  0  0  0  0  0  0  0  0
  184.9060  178.6520  142.9710 C   0  0  0  0  0  0  0  0  0  0  0  0
  189.7870  177.3770  139.9830 C   0  0  0  0  0  0  0  0  0  0  0  0
  191.1530  177.4310  142.1130 C   0  0  0  0  0  3  0  0  0  0  0  0
  182.5430  178.8240  144.4680 C   0  0  0  0  0  3  0  0  0  0  0  0
  192.1490  176.8910  139.8830 C   0  0  0  0  0  3  0  0  0  0  0  0
  189.8260  177.4890  142.8430 C   0  0  0  0  0  0  0  0  0  0  0  0
  189.7730  177.3550  144.1840 C   0  0  0  0  0  0  0  0  0  0  0  0
  187.3500  177.8030  144.2470 C   0  0  0  0  0  0  0  0  0  0  0  0
  182.5340  179.1510  143.1100 C   0  0  0  0  0  3  0  0  0  0  0  0
  190.7990  176.9100  137.8850 C   0  0  0  0  0  3  0  0  0  0  0  0
  191.0180  177.2060  140.6380 C   0  0  0  0  0  0  0  0  0  0  0  0
  183.7120  179.0660  142.3630 C   0  0  0  0  0  3  0  0  0  0  0  0
  189.7070  177.2260  138.6330 N   0  0  0  0  0  0  0  0  0  0  0  0
  188.4660  177.4530  144.9080 C   0  0  0  0  0  0  0  0  0  0  0  0
  186.1200  177.9180  144.9730 N   0  0  0  0  0  2  0  0  0  0  0  0
  188.5800  177.7000  140.7500 C   0  0  0  0  0  3  0  0  0  0  0  0
  186.1670  178.9390  140.9950 O   0  0  0  0  0  0  0  0  0  0  0  0
  183.7300  178.4130  145.0810 C   0  0  0  0  0  3  0  0  0  0  0  0
  187.3640  178.0530  142.8240 N   0  0  0  0  0  0  0  0  0  0  0  0
  184.9110  178.3260  144.3360 C   0  0  0  0  0  0  0  0  0  0  0  0
  191.9800  176.9920  145.5190 N   0  0  0  0  0  0  0  0  0  0  0  0
  190.9980  177.1510  144.9270 C   0  0  0  0  0  0  0  0  0  0  0  0
  188.7790  178.0430  147.2260 O   0  0  0  0  0  1  0  0  0  0  0  0
  188.3480  177.1960  146.2830 O   0  0  0  0  0  0  0  0  0  0  0  0
  193.2430  176.4060  137.6850 C   0  0  0  0  0  2  0  0  0  0  0  0
  193.5250  174.9070  137.7370 C   0  0  0  0  0  2  0  0  0  0  0  0
  195.0130  174.5940  137.8710 C   0  0  0  0  0  3  0  0  0  0  0  0
  195.2440  173.2140  138.4600 C   0  0  0  0  0  1  0  0  0  0  0  0
  195.7350  174.7310  136.5420 C   0  0  0  0  0  1  0  0  0  0  0  0
  1  8  2  0  0  0  0
  2 19  1  1  0  0  0
  2 22  1  0  0  0  0
  2  9  1  0  0  0  0
  3 22  1  0  0  0  0
  3  4  1  0  0  0  0
  4 23  1  0  0  0  0
  5 14  1  0  0  0  0
  5 19  2  0  0  0  0
  6  9  1  0  0  0  0
  7 21  1  0  0  0  0
  8 14  1  0  0  0  0
  9 10  2  0  0  0  0
 10 17  1  0  0  0  0
 10 25  1  0  0  0  0
 11 17  2  0  0  0  0
 11 18  1  0  0  0  0
 12  7  2  0  0  0  0
 13  1  1  0  0  0  0
 13 16  2  0  0  0  0
 14  6  2  0  0  0  0
 15  4  2  0  0  0  0
 15 12  1  0  0  0  0
 16  5  1  0  0  0  0
 17 27  1  0  0  0  0
 20  3  2  0  0  0  0
 22 11  1  0  0  0  0
 23 18  1  0  0  0  0
 23 21  2  0  0  0  0
 25 24  3  0  0  0  0
 27 26  1  0  0  0  0
 28 29  1  0  0  0  0
 28  1  1  0  0  0  0
 29 30  1  0  0  0  0
 30 31  1  0  0  0  0
 32 30  1  0  0  0  0
M  END
>  <MODEL>
4

>  <REMARK>
 VINA RESULT:      -8.9      3.434      8.638
  Name = 
  5 active torsions:
  status: ('A' for Active; 'I' for Inactive)
    1  A    between atoms: C_1  and  C_10
    2  A    between atoms: C_2  and  C_24
    3  A    between atoms: C_10  and  C_24
    4  A    between atoms: C_13  and  C_15
    5  A    between atoms: O_25  and  C_26
                            x       y       z     vdW  Elec       q    Type
                         _______ _______ _______ _____ _____    ______ ____

>  <TORSDO>
F 5

$$$$
=
 OpenBabel10272413393D

 32 36  0  0  1  0  0  0  0  0999 V2000
  190.4590  176.9930  145.6230 C   0  0  0  0  0  0  0  0  0  0  0  0
  190.0990  177.2340  140.5470 C   0  0  1  0  0  3  0  0  0  0  0  0
  191.5680  176.7290  138.5300 C   0  0  0  0  0  0  0  0  0  0  0  0
  191.6570  176.4280  137.0880 C   0  0  0  0  0  0  0  0  0  0  0  0
  190.8090  176.8690  142.8730 C   0  0  0  0  0  0  0  0  0  0  0  0
  188.6990  178.2160  142.5010 C   0  0  0  0  0  3  0  0  0  0  0  0
  191.7940  175.8640  134.3460 C   0  0  0  0  0  3  0  0  0  0  0  0
  189.5200  177.5920  144.7800 C   0  0  0  0  0  3  0  0  0  0  0  0
  188.8340  177.8350  141.0400 C   0  0  0  0  0  0  0  0  0  0  0  0
  187.8410  178.1000  140.1670 C   0  0  0  0  0  0  0  0  0  0  0  0
  189.1650  177.3040  138.2460 C   0  0  0  0  0  0  0  0  0  0  0  0
  192.9310  175.7220  135.1450 C   0  0  0  0  0  3  0  0  0  0  0  0
  191.5680  176.3530  145.0640 C   0  0  0  0  0  3  0  0  0  0  0  0
  189.6830  177.5250  143.3950 C   0  0  0  0  0  0  0  0  0  0  0  0
  192.8640  176.0040  136.5120 C   0  0  0  0  0  3  0  0  0  0  0  0
  191.7180  176.3030  143.7120 N   0  0  0  0  0  0  0  0  0  0  0  0
  187.9920  177.7590  138.7160 C   0  0  0  0  0  0  0  0  0  0  0  0
  189.2880  177.0170  136.8480 N   0  0  0  0  0  2  0  0  0  0  0  0
  191.0030  176.7750  141.4220 C   0  0  0  0  0  3  0  0  0  0  0  0
  192.6160  176.6870  139.2300 O   0  0  0  0  0  0  0  0  0  0  0  0
  190.5890  176.2890  134.9130 C   0  0  0  0  0  3  0  0  0  0  0  0
  190.2950  177.0910  139.1200 N   0  0  0  0  0  0  0  0  0  0  0  0
  190.5180  176.5710  136.2810 C   0  0  0  0  0  0  0  0  0  0  0  0
  185.6740  179.2730  141.0150 N   0  0  0  0  0  0  0  0  0  0  0  0
  186.6370  178.7520  140.6350 C   0  0  0  0  0  0  0  0  0  0  0  0
  186.7250  179.0240  137.0980 O   0  0  0  0  0  1  0  0  0  0  0  0
  186.9390  177.9030  137.7980 O   0  0  0  0  0  0  0  0  0  0  0  0
  190.3010  177.0710  147.1000 C   0  0  0  0  0  2  0  0  0  0  0  0
  188.9270  176.5490  147.5090 C   0  0  0  0  0  2  0  0  0  0  0  0
  188.1180  177.5770  148.2940 C   0  0  0  0  0  3  0  0  0  0  0  0
  189.0040  178.6700  148.8630 C   0  0  0  0  0  1  0  0  0  0  0  0
  187.0090  178.1800  147.4490 C   0  0  0  0  0  1  0  0  0  0  0  0
  1 28  1  0  0  0  0
  2  9  1  0  0  0  0
  2 19  1  1  0  0  0
  3 22  1  0  0  0  0
  3 20  2  0  0  0  0
  4  3  1  0  0  0  0
  5 14  1  0  0  0  0
  5 16  1  0  0  0  0
  6 14  2  0  0  0  0
  7 21  2  0  0  0  0
  7 12  1  0  0  0  0
  8  1  2  0  0  0  0
  9  6  1  0  0  0  0
 10 25  1  0  0  0  0
 10  9  2  0  0  0  0
 11 17  2  0  0  0  0
 11 22  1  0  0  0  0
 12 15  2  0  0  0  0
 13  1  1  0  0  0  0
 14  8  1  0  0  0  0
 15  4  1  0  0  0  0
 16 13  2  0  0  0  0
 17 10  1  0  0  0  0
 18 11  1  0  0  0  0
 19  5  2  0  0  0  0
 21 23  1  0  0  0  0
 22  2  1  0  0  0  0
 23 18  1  0  0  0  0
 23  4  2  0  0  0  0
 25 24  3  0  0  0  0
 26 27  1  0  0  0  0
 27 17  1  0  0  0  0
 28 29  1  0  0  0  0
 29 30  1  0  0  0  0
 30 31  1  0  0  0  0
 32 30  1  0  0  0  0
M  END
>  <MODEL>
5

>  <REMARK>
 VINA RESULT:      -8.9      3.653      8.204
  Name = 
  5 active torsions:
  status: ('A' for Active; 'I' for Inactive)
    1  A    between atoms: C_1  and  C_10
    2  A    between atoms: C_2  and  C_24
    3  A    between atoms: C_10  and  C_24
    4  A    between atoms: C_13  and  C_15
    5  A    between atoms: O_25  and  C_26
                            x       y       z     vdW  Elec       q    Type
                         _______ _______ _______ _____ _____    ______ ____

>  <TORSDO>
F 5

$$$$
=
 OpenBabel10272413393D

 32 36  0  0  1  0  0  0  0  0999 V2000
  189.1320  177.5030  144.2870 C   0  0  0  0  0  0  0  0  0  0  0  0
  190.4600  177.0610  139.3890 C   0  0  1  0  0  3  0  0  0  0  0  0
  192.5620  176.5380  138.0490 C   0  0  0  0  0  0  0  0  0  0  0  0
  193.1560  176.0790  136.7790 C   0  0  0  0  0  0  0  0  0  0  0  0
  190.3890  177.0960  141.8470 C   0  0  0  0  0  0  0  0  0  0  0  0
  188.3960  178.0530  140.6140 C   0  0  0  0  0  3  0  0  0  0  0  0
  194.2560  175.2100  134.3530 C   0  0  0  0  0  3  0  0  0  0  0  0
  188.4710  177.8450  143.1050 C   0  0  0  0  0  3  0  0  0  0  0  0
  189.0490  177.5190  139.3540 C   0  0  0  0  0  0  0  0  0  0  0  0
  188.3820  177.5230  138.1810 C   0  0  0  0  0  0  0  0  0  0  0  0
  190.3450  176.7050  136.9330 C   0  0  0  0  0  0  0  0  0  0  0  0
  195.0700  175.3400  135.4810 C   0  0  0  0  0  3  0  0  0  0  0  0
  190.4220  176.9730  144.2190 C   0  0  0  0  0  3  0  0  0  0  0  0
  189.0920  177.6330  141.8730 C   0  0  0  0  0  0  0  0  0  0  0  0
  194.5220  175.7740  136.6910 C   0  0  0  0  0  3  0  0  0  0  0  0
  191.0180  176.7800  143.0110 N   0  0  0  0  0  0  0  0  0  0  0  0
  189.0420  177.0330  136.9290 C   0  0  0  0  0  0  0  0  0  0  0  0
  190.9550  176.2700  135.7130 N   0  0  0  0  0  2  0  0  0  0  0  0
  191.0630  176.8540  140.5680 C   0  0  0  0  0  3  0  0  0  0  0  0
  193.3150  176.7420  139.0400 O   0  0  0  0  0  0  0  0  0  0  0  0
  192.8940  175.5140  134.4340 C   0  0  0  0  0  3  0  0  0  0  0  0
  191.1350  176.7740  138.1410 N   0  0  0  0  0  0  0  0  0  0  0  0
  192.3430  175.9480  135.6430 C   0  0  0  0  0  0  0  0  0  0  0  0
  185.9510  178.4550  138.0970 N   0  0  0  0  0  0  0  0  0  0  0  0
  187.0310  178.0380  138.1330 C   0  0  0  0  0  0  0  0  0  0  0  0
  187.5490  175.8630  135.4370 O   0  0  0  0  0  1  0  0  0  0  0  0
  188.3460  176.9020  135.7160 O   0  0  0  0  0  0  0  0  0  0  0  0
  188.4830  177.7370  145.6060 C   0  0  0  0  0  2  0  0  0  0  0  0
  187.0230  177.2970  145.5580 C   0  0  0  0  0  2  0  0  0  0  0  0
  186.0520  178.4700  145.6550 C   0  0  0  0  0  3  0  0  0  0  0  0
  185.1420  178.5450  144.4420 C   0  0  0  0  0  1  0  0  0  0  0  0
  185.2310  178.4130  146.9320 C   0  0  0  0  0  1  0  0  0  0  0  0
  1 28  1  0  0  0  0
  2 19  1  1  0  0  0
  3 22  1  0  0  0  0
  3 20  2  0  0  0  0
  4  3  1  0  0  0  0
  5 14  1  0  0  0  0
  5 16  1  0  0  0  0
  6 14  2  0  0  0  0
  7 21  2  0  0  0  0
  7 12  1  0  0  0  0
  8  1  2  0  0  0  0
  9  2  1  0  0  0  0
  9  6  1  0  0  0  0
 10  9  2  0  0  0  0
 11 22  1  0  0  0  0
 12 15  2  0  0  0  0
 13  1  1  0  0  0  0
 14  8  1  0  0  0  0
 15  4  1  0  0  0  0
 16 13  2  0  0  0  0
 17 11  2  0  0  0  0
 17 10  1  0  0  0  0
 18 11  1  0  0  0  0
 19  5  2  0  0  0  0
 21 23  1  0  0  0  0
 22  2  1  0  0  0  0
 23 18  1  0  0  0  0
 23  4  2  0  0  0  0
 24 25  3  0  0  0  0
 25 10  1  0  0  0  0
 26 27  1  0  0  0  0
 27 17  1  0  0  0  0
 29 28  1  0  0  0  0
 29 30  1  0  0  0  0
 30 32  1  0  0  0  0
 31 30  1  0  0  0  0
M  END
>  <MODEL>
6

>  <REMARK>
 VINA RESULT:      -8.6      4.070      7.701
  Name = 
  5 active torsions:
  status: ('A' for Active; 'I' for Inactive)
    1  A    between atoms: C_1  and  C_10
    2  A    between atoms: C_2  and  C_24
    3  A    between atoms: C_10  and  C_24
    4  A    between atoms: C_13  and  C_15
    5  A    between atoms: O_25  and  C_26
                            x       y       z     vdW  Elec       q    Type
                         _______ _______ _______ _____ _____    ______ ____

>  <TORSDO>
F 5

$$$$
=
 OpenBabel10272413393D

 32 36  0  0  0  0  0  0  0  0999 V2000
  188.8190  177.9970  137.2280 C   0  0  0  0  0  0  0  0  0  0  0  0
  187.2030  178.0150  142.0590 C   0  0  0  0  0  0  0  0  0  0  0  0
  188.1530  177.4910  144.3630 C   0  0  0  0  0  0  0  0  0  0  0  0
  188.0630  177.6670  145.8250 C   0  0  0  0  0  0  0  0  0  0  0  0
  188.5130  177.8670  139.9830 C   0  0  0  0  0  0  0  0  0  0  0  0
  186.0050  178.1220  139.7580 C   0  0  0  0  0  3  0  0  0  0  0  0
  187.8610  178.0150  148.5990 C   0  0  0  0  0  3  0  0  0  0  0  0
  187.5440  178.1080  137.7860 C   0  0  0  0  0  2  0  0  0  0  0  0
  185.9940  178.3320  141.2590 C   0  0  0  0  0  0  0  0  0  0  0  0
  184.8710  178.7380  141.8870 C   0  0  0  0  0  0  0  0  0  0  0  0
  185.9080  178.5330  144.1150 C   0  0  0  0  0  0  0  0  0  0  0  0
  189.0020  177.4230  148.0510 C   0  0  0  0  0  3  0  0  0  0  0  0
  189.9190  177.8080  138.0690 C   0  0  0  0  0  3  0  0  0  0  0  0
  187.3820  178.0550  139.1710 C   0  0  0  0  0  0  0  0  0  0  0  0
  189.1020  177.2480  146.6680 C   0  0  0  0  0  3  0  0  0  0  0  0
  189.7450  177.7490  139.4170 N   0  0  0  0  0  0  0  0  0  0  0  0
  184.8500  178.9070  143.3750 C   0  0  0  0  0  0  0  0  0  0  0  0
  185.8450  178.6770  145.5380 N   0  0  0  0  0  2  0  0  0  0  0  0
  188.3760  177.8150  141.4420 C   0  0  0  0  0  3  0  0  0  0  0  0
  189.1420  176.8750  143.8800 O   0  0  0  0  0  0  0  0  0  0  0  0
  186.8210  178.4320  147.7650 C   0  0  0  0  0  3  0  0  0  0  0  0
  187.1040  178.0000  143.5030 N   0  0  0  0  0  0  0  0  0  0  0  0
  186.9190  178.2600  146.3810 C   0  0  0  0  0  0  0  0  0  0  0  0
  182.7130  179.1680  140.4930 N   0  0  0  0  0  0  0  0  0  0  0  0
  183.6710  178.9770  141.1150 C   0  0  0  0  0  0  0  0  0  0  0  0
  182.6820  178.7170  144.4170 O   0  0  0  0  0  1  0  0  0  0  0  0
  183.7450  179.4450  144.0540 O   0  0  0  0  0  0  0  0  0  0  0  0
  189.0000  178.0390  135.7520 C   0  0  0  0  0  2  0  0  0  0  0  0
  187.7090  177.6210  135.0530 C   0  0  0  0  0  2  0  0  0  0  0  0
  187.7580  176.1850  134.5390 C   0  0  0  0  0  3  0  0  0  0  0  0
  189.1870  175.7070  134.3500 C   0  0  0  0  0  1  0  0  0  0  0  0
  186.9980  175.2370  135.4510 C   0  0  0  0  0  1  0  0  0  0  0  0
  1  8  1  0  0  0  0
  1 13  2  0  0  0  0
  2 22  1  0  0  0  0
  3  4  1  0  0  0  0
  4 23  2  0  0  0  0
  4 15  1  0  0  0  0
  5 19  1  0  0  0  0
  6  9  1  0  0  0  0
  8 14  1  0  0  0  0
  9 10  2  0  0  0  0
  9  2  1  0  0  0  0
 10 17  1  0  0  0  0
 11 18  1  0  0  0  0
 12  7  1  0  0  0  0
 13 16  1  0  0  0  0
 14  6  2  0  0  0  0
 14  5  1  0  0  0  0
 15 12  2  0  0  0  0
 16  5  2  0  0  0  0
 17 27  1  0  0  0  0
 17 11  2  0  0  0  0
 18 23  1  0  0  0  0
 19  2  2  0  0  0  0
 20  3  2  0  0  0  0
 21  7  2  0  0  0  0
 22 11  1  0  0  0  0
 22  3  1  0  0  0  0
 23 21  1  0  0  0  0
 24 25  3  0  0  0  0
 25 10  1  0  0  0  0
 27 26  1  0  0  0  0
 28  1  1  0  0  0  0
 29 28  1  0  0  0  0
 30 29  1  0  0  0  0
 30 32  1  0  0  0  0
 31 30  1  0  0  0  0
M  END
>  <MODEL>
7

>  <REMARK>
 VINA RESULT:      -8.2      2.825      6.036
  Name = 
  5 active torsions:
  status: ('A' for Active; 'I' for Inactive)
    1  A    between atoms: C_1  and  C_10
    2  A    between atoms: C_2  and  C_24
    3  A    between atoms: C_10  and  C_24
    4  A    between atoms: C_13  and  C_15
    5  A    between atoms: O_25  and  C_26
                            x       y       z     vdW  Elec       q    Type
                         _______ _______ _______ _____ _____    ______ ____

>  <TORSDO>
F 5

$$$$
=
 OpenBabel10272413393D

 32 36  0  0  0  0  0  0  0  0999 V2000
  187.5380  178.5370  137.1500 C   0  0  0  0  0  0  0  0  0  0  0  0
  187.9340  177.7160  142.1630 C   0  0  0  0  0  0  0  0  0  0  0  0
  189.7180  176.9450  143.8080 C   0  0  0  0  0  0  0  0  0  0  0  0
  190.2020  176.8990  145.2010 C   0  0  0  0  0  0  0  0  0  0  0  0
  188.3330  177.9830  139.7500 C   0  0  0  0  0  0  0  0  0  0  0  0
  185.9310  178.0540  140.5450 C   0  0  0  0  0  3  0  0  0  0  0  0
  191.0900  176.8200  147.8580 C   0  0  0  0  0  3  0  0  0  0  0  0
  186.5790  178.4570  138.1630 C   0  0  0  0  0  2  0  0  0  0  0  0
  186.5020  178.0420  141.9490 C   0  0  0  0  0  0  0  0  0  0  0  0
  185.7050  178.2560  143.0160 C   0  0  0  0  0  0  0  0  0  0  0  0
  187.5320  177.8170  144.6120 C   0  0  0  0  0  0  0  0  0  0  0  0
  191.9390  176.4130  146.8260 C   0  0  0  0  0  3  0  0  0  0  0  0
  188.8820  178.3210  137.4640 C   0  0  0  0  0  3  0  0  0  0  0  0
  186.9720  178.1900  139.4750 C   0  0  0  0  0  0  0  0  0  0  0  0
  191.4960  176.4510  145.5010 C   0  0  0  0  0  3  0  0  0  0  0  0
  189.2490  178.0530  138.7470 N   0  0  0  0  0  0  0  0  0  0  0  0
  186.2620  178.2040  144.4050 C   0  0  0  0  0  0  0  0  0  0  0  0
  188.0270  177.7480  145.9540 N   0  0  0  0  0  2  0  0  0  0  0  0
  188.7770  177.7080  141.1200 C   0  0  0  0  0  3  0  0  0  0  0  0
  190.4530  176.4920  142.8890 O   0  0  0  0  0  0  0  0  0  0  0  0
  189.7980  177.2650  147.5660 C   0  0  0  0  0  3  0  0  0  0  0  0
  188.4060  177.4830  143.5110 N   0  0  0  0  0  0  0  0  0  0  0  0
  189.3520  177.3050  146.2410 C   0  0  0  0  0  0  0  0  0  0  0  0
  183.1630  178.6930  142.6470 N   0  0  0  0  0  0  0  0  0  0  0  0
  184.2930  178.5020  142.8110 C   0  0  0  0  0  0  0  0  0  0  0  0
  185.5780  179.7320  146.1430 O   0  0  0  0  0  1  0  0  0  0  0  0
  185.4980  178.5430  145.5330 O   0  0  0  0  0  0  0  0  0  0  0  0
  187.1280  178.8080  135.7460 C   0  0  0  0  0  2  0  0  0  0  0  0
  187.5540  177.6550  134.8420 C   0  0  0  0  0  2  0  0  0  0  0  0
  186.4450  176.6260  134.6400 C   0  0  0  0  0  3  0  0  0  0  0  0
  186.5450  175.4920  135.6430 C   0  0  0  0  0  1  0  0  0  0  0  0
  185.0700  177.2680  134.6990 C   0  0  0  0  0  1  0  0  0  0  0  0
  1 13  2  0  0  0  0
  1  8  1  0  0  0  0
  2 22  1  0  0  0  0
  3  4  1  0  0  0  0
  4 15  2  0  0  0  0
  4 23  1  0  0  0  0
  5 19  1  0  0  0  0
  6  9  1  0  0  0  0
  8 14  1  0  0  0  0
  9  2  1  0  0  0  0
  9 10  2  0  0  0  0
 10 17  1  0  0  0  0
 11 18  1  0  0  0  0
 12  7  2  0  0  0  0
 13 16  1  0  0  0  0
 14  5  1  0  0  0  0
 14  6  2  0  0  0  0
 15 12  1  0  0  0  0
 16  5  2  0  0  0  0
 17 11  2  0  0  0  0
 17 27  1  0  0  0  0
 18 23  1  0  0  0  0
 19  2  2  0  0  0  0
 20  3  2  0  0  0  0
 21  7  1  0  0  0  0
 22  3  1  0  0  0  0
 22 11  1  0  0  0  0
 23 21  2  0  0  0  0
 24 25  3  0  0  0  0
 25 10  1  0  0  0  0
 27 26  1  0  0  0  0
 28  1  1  0  0  0  0
 29 28  1  0  0  0  0
 30 32  1  0  0  0  0
 30 29  1  0  0  0  0
 30 31  1  0  0  0  0
M  END
>  <MODEL>
8

>  <REMARK>
 VINA RESULT:      -7.9      2.391      5.325
  Name = 
  5 active torsions:
  status: ('A' for Active; 'I' for Inactive)
    1  A    between atoms: C_1  and  C_10
    2  A    between atoms: C_2  and  C_24
    3  A    between atoms: C_10  and  C_24
    4  A    between atoms: C_13  and  C_15
    5  A    between atoms: O_25  and  C_26
                            x       y       z     vdW  Elec       q    Type
                         _______ _______ _______ _____ _____    ______ ____

>  <TORSDO>
F 5

$$$$
=
 OpenBabel10272413393D

 32 36  0  0  0  0  0  0  0  0999 V2000
  192.7820  176.8050  138.1100 C   0  0  0  0  0  0  0  0  0  0  0  0
  188.5140  177.5930  140.7770 C   0  0  0  0  0  0  0  0  0  0  0  0
  187.7960  177.5970  143.2200 C   0  0  0  0  0  0  0  0  0  0  0  0
  186.8240  178.0370  144.2400 C   0  0  0  0  0  0  0  0  0  0  0  0
  190.8220  177.1710  140.0390 C   0  0  0  0  0  0  0  0  0  0  0  0
  189.0150  177.1590  138.2660 C   0  0  0  0  0  3  0  0  0  0  0  0
  184.9580  178.8810  146.1520 C   0  0  0  0  0  3  0  0  0  0  0  0
  191.4440  176.9080  137.7230 C   0  0  0  0  0  2  0  0  0  0  0  0
  188.0830  177.6460  139.3580 C   0  0  0  0  0  0  0  0  0  0  0  0
  186.8360  178.0640  139.0590 C   0  0  0  0  0  0  0  0  0  0  0  0
  186.2490  178.3730  141.4330 C   0  0  0  0  0  0  0  0  0  0  0  0
  186.1600  178.2980  146.5610 C   0  0  0  0  0  3  0  0  0  0  0  0
  193.1080  176.8750  139.4660 C   0  0  0  0  0  3  0  0  0  0  0  0
  190.4530  177.1030  138.6860 C   0  0  0  0  0  0  0  0  0  0  0  0
  187.0910  177.8760  145.6070 C   0  0  0  0  0  3  0  0  0  0  0  0
  192.1300  177.0570  140.3940 N   0  0  0  0  0  0  0  0  0  0  0  0
  185.9020  178.5070  140.1420 C   0  0  0  0  0  0  0  0  0  0  0  0
  185.3210  178.7770  142.4480 N   0  0  0  0  0  2  0  0  0  0  0  0
  189.8040  177.3830  141.0730 C   0  0  0  0  0  3  0  0  0  0  0  0
  188.8380  176.9900  143.5880 O   0  0  0  0  0  0  0  0  0  0  0  0
  184.6850  179.0420  144.7910 C   0  0  0  0  0  3  0  0  0  0  0  0
  187.5370  177.8410  141.8150 N   0  0  0  0  0  0  0  0  0  0  0  0
  185.6140  178.6210  143.8350 C   0  0  0  0  0  0  0  0  0  0  0  0
  186.0370  178.0380  136.5790 N   0  0  0  0  0  0  0  0  0  0  0  0
  186.3900  178.0470  137.6820 C   0  0  0  0  0  0  0  0  0  0  0  0
  184.4820  180.2270  139.2200 O   0  0  0  0  0  1  0  0  0  0  0  0
  184.6430  179.0650  139.8660 O   0  0  0  0  0  0  0  0  0  0  0  0
  193.8440  176.5840  137.0910 C   0  0  0  0  0  2  0  0  0  0  0  0
  193.4130  175.4970  136.1110 C   0  0  0  0  0  2  0  0  0  0  0  0
  193.3680  174.1130  136.7520 C   0  0  0  0  0  3  0  0  0  0  0  0
  192.0560  173.4060  136.4640 C   0  0  0  0  0  1  0  0  0  0  0  0
  194.5420  173.2540  136.3130 C   0  0  0  0  0  1  0  0  0  0  0  0
  1 13  2  0  0  0  0
  2 19  2  0  0  0  0
  2 22  1  0  0  0  0
  3 20  2  0  0  0  0
  3  4  1  0  0  0  0
  4 15  1  0  0  0  0
  5 16  2  0  0  0  0
  5 19  1  0  0  0  0
  6 14  2  0  0  0  0
  6  9  1  0  0  0  0
  7 12  1  0  0  0  0
  8  1  1  0  0  0  0
  8 14  1  0  0  0  0
  9  2  1  0  0  0  0
 10  9  2  0  0  0  0
 10 17  1  0  0  0  0
 11 22  1  0  0  0  0
 11 18  1  0  0  0  0
 13 16  1  0  0  0  0
 14  5  1  0  0  0  0
 15 12  2  0  0  0  0
 17 11  2  0  0  0  0
 18 23  1  0  0  0  0
 21  7  2  0  0  0  0
 22  3  1  0  0  0  0
 23  4  2  0  0  0  0
 23 21  1  0  0  0  0
 24 25  3  0  0  0  0
 25 10  1  0  0  0  0
 26 27  1  0  0  0  0
 27 17  1  0  0  0  0
 28  1  1  0  0  0  0
 29 30  1  0  0  0  0
 29 28  1  0  0  0  0
 31 30  1  0  0  0  0
 32 30  1  0  0  0  0
M  END
>  <MODEL>
9

>  <REMARK>
 VINA RESULT:      -7.8      3.951      7.961
  Name = 
  5 active torsions:
  status: ('A' for Active; 'I' for Inactive)
    1  A    between atoms: C_1  and  C_10
    2  A    between atoms: C_2  and  C_24
    3  A    between atoms: C_10  and  C_24
    4  A    between atoms: C_13  and  C_15
    5  A    between atoms: O_25  and  C_26
                            x       y       z     vdW  Elec       q    Type
                         _______ _______ _______ _____ _____    ______ ____

>  <TORSDO>
F 5

$$$$
