=
 OpenBabel10272400403D

 25 28  0  0  1  0  0  0  0  0999 V2000
  187.0250  177.9590  145.6650 C   0  0  0  0  0  0  0  0  0  0  0  0
  188.3130  177.5000  145.3860 C   0  0  0  0  0  0  0  0  0  0  0  0
  187.4850  178.1190  148.0340 C   0  0  0  0  0  3  0  0  0  0  0  0
  185.9390  178.2080  144.8660 C   0  0  1  0  0  3  0  0  0  0  0  0
  183.4610  178.8820  143.8380 C   0  0  0  0  0  3  0  0  0  0  0  0
  188.7910  177.6570  147.7860 C   0  0  0  0  0  3  0  0  0  0  0  0
  184.9400  178.6460  145.7110 C   0  0  0  0  0  0  0  0  0  0  0  0
  183.6820  178.9930  145.2230 C   0  0  0  0  0  3  0  0  0  0  0  0
  190.5050  176.8820  146.1870 C   0  0  0  0  0  0  0  0  0  0  0  0
  191.5170  176.6830  147.2650 C   0  0  0  0  0  1  0  0  0  0  0  0
  188.7080  177.2040  144.1220 N   0  0  0  0  0  0  0  0  0  0  0  0
  184.4870  178.4340  142.9790 C   0  0  0  0  0  3  0  0  0  0  0  0
  186.6210  178.2590  146.9500 C   0  0  0  0  0  0  0  0  0  0  0  0
  185.3380  178.6860  147.0030 N   0  0  0  0  0  0  0  0  0  0  0  0
  190.8490  176.5990  144.9020 N   0  0  0  0  0  0  0  0  0  0  0  0
  185.7500  178.0890  143.4900 C   0  0  0  0  0  3  0  0  0  0  0  0
  189.9700  176.7630  143.8770 C   0  0  0  0  0  0  0  0  0  0  0  0
  189.2110  177.3470  146.4700 C   0  0  0  0  0  0  0  0  0  0  0  0
  190.3760  176.4160  142.4900 C   0  0  0  0  0  2  0  0  0  0  0  0
  189.3690  176.8880  141.5550 N   0  0  0  0  0  2  0  0  0  0  0  0
  189.7150  177.4420  140.2840 C   0  0  0  0  0  0  0  0  0  0  0  0
  190.9230  177.5410  139.9380 O   0  0  0  0  0  0  0  0  0  0  0  0
  188.6490  177.9240  139.3610 C   0  0  1  0  0  3  0  0  0  0  0  0
  189.0320  179.1320  138.7770 O   0  0  0  0  0  1  0  0  0  0  0  0
  188.3890  176.8940  138.2780 C   0  0  0  0  0  1  0  0  0  0  0  0
  1 13  1  0  0  0  0
  2  1  2  0  0  0  0
  2 18  1  0  0  0  0
  4 16  1  6  0  0  0
  4  1  1  0  0  0  0
  4  7  1  0  0  0  0
  5  8  2  0  0  0  0
  6  3  1  0  0  0  0
  7 14  2  0  0  0  0
  8  7  1  0  0  0  0
  9 18  1  0  0  0  0
  9 10  1  0  0  0  0
 11  2  1  0  0  0  0
 12 16  2  0  0  0  0
 12  5  1  0  0  0  0
 13 14  1  0  0  0  0
 13  3  2  0  0  0  0
 15  9  2  0  0  0  0
 17 11  2  0  0  0  0
 17 15  1  0  0  0  0
 18  6  2  0  0  0  0
 19 17  1  0  0  0  0
 20 19  1  0  0  0  0
 21 20  1  0  0  0  0
 22 21  2  0  0  0  0
 23 25  1  6  0  0  0
 23 21  1  0  0  0  0
 24 23  1  0  0  0  0
M  END
>  <MODEL>
1

>  <REMARK>
 VINA RESULT:     -11.1      0.000      0.000
  Name = 
  3 active torsions:
  status: ('A' for Active; 'I' for Inactive)
    1  A    between atoms: C_2  and  C_21
    2  A    between atoms: C_6  and  N_15
    3  A    between atoms: C_6  and  C_23
                            x       y       z     vdW  Elec       q    Type
                         _______ _______ _______ _____ _____    ______ ____

>  <TORSDO>
F 3

$$$$
=
 OpenBabel10272400403D

 25 28  0  0  1  0  0  0  0  0999 V2000
  185.7640  178.2100  144.8640 C   0  0  0  0  0  0  0  0  0  0  0  0
  187.0900  177.7760  144.8770 C   0  0  0  0  0  0  0  0  0  0  0  0
  185.7510  178.5660  147.2570 C   0  0  0  0  0  3  0  0  0  0  0  0
  184.8490  178.3590  143.8540 C   0  0  0  0  0  0  0  0  0  0  0  0
  182.6060  178.8660  142.3170 C   0  0  0  0  0  3  0  0  0  0  0  0
  187.0890  178.1330  147.3030 C   0  0  0  0  0  3  0  0  0  0  0  0
  183.6970  178.8260  144.4520 C   0  0  0  0  0  0  0  0  0  0  0  0
  182.5510  179.0910  143.7050 C   0  0  0  0  0  2  0  0  0  0  0  0
  189.0960  177.2980  146.1320 C   0  0  0  0  0  0  0  0  0  0  0  0
  189.8830  177.2170  147.3970 C   0  0  0  0  0  1  0  0  0  0  0  0
  187.7290  177.3980  143.7410 N   0  0  0  0  0  0  0  0  0  0  0  0
  183.7870  178.3890  141.7110 C   0  0  0  0  0  3  0  0  0  0  0  0
  185.1120  178.5930  146.0190 C   0  0  0  0  0  0  0  0  0  0  0  0
  183.8350  178.9780  145.7890 N   0  0  0  0  0  0  0  0  0  0  0  0
  189.6890  176.9290  144.9650 N   0  0  0  0  0  0  0  0  0  0  0  0
  184.9340  178.1280  142.4820 C   0  0  0  0  0  3  0  0  0  0  0  0
  189.0230  176.9840  143.7800 C   0  0  0  0  0  0  0  0  0  0  0  0
  187.7630  177.7370  146.1220 C   0  0  0  0  0  0  0  0  0  0  0  0
  189.6980  176.5460  142.5300 C   0  0  0  0  0  2  0  0  0  0  0  0
  188.9110  176.9620  141.3810 N   0  0  0  0  0  2  0  0  0  0  0  0
  189.5190  177.4690  140.1910 C   0  0  0  0  0  0  0  0  0  0  0  0
  190.7730  177.5740  140.1080 O   0  0  0  0  0  0  0  0  0  0  0  0
  188.6730  177.8950  139.0400 C   0  0  1  0  0  3  0  0  0  0  0  0
  189.0540  179.1660  138.6100 O   0  0  0  0  0  1  0  0  0  0  0  0
  188.8100  176.9080  137.8960 C   0  0  0  0  0  1  0  0  0  0  0  0
  1  2  2  0  0  0  0
  1 13  1  0  0  0  0
  2 18  1  0  0  0  0
  3  6  1  0  0  0  0
  4  7  1  0  0  0  0
  4  1  1  0  0  0  0
  5  8  1  0  0  0  0
  7 14  2  0  0  0  0
  8  7  1  0  0  0  0
  9 10  1  0  0  0  0
 11 17  2  0  0  0  0
 11  2  1  0  0  0  0
 12  5  2  0  0  0  0
 12 16  1  0  0  0  0
 13  3  2  0  0  0  0
 14 13  1  0  0  0  0
 15  9  2  0  0  0  0
 16  4  2  0  0  0  0
 17 15  1  0  0  0  0
 18  9  1  0  0  0  0
 18  6  2  0  0  0  0
 19 17  1  0  0  0  0
 20 19  1  0  0  0  0
 21 20  1  0  0  0  0
 22 21  2  0  0  0  0
 23 25  1  6  0  0  0
 23 21  1  0  0  0  0
 24 23  1  0  0  0  0
M  END
>  <MODEL>
2

>  <REMARK>
 VINA RESULT:     -10.5      0.915      1.364
  Name = 
  3 active torsions:
  status: ('A' for Active; 'I' for Inactive)
    1  A    between atoms: C_2  and  C_21
    2  A    between atoms: C_6  and  N_15
    3  A    between atoms: C_6  and  C_23
                            x       y       z     vdW  Elec       q    Type
                         _______ _______ _______ _____ _____    ______ ____

>  <TORSDO>
F 3

$$$$
=
 OpenBabel10272400403D

 25 28  0  0  1  0  0  0  0  0999 V2000
  187.7760  177.7380  145.5410 C   0  0  0  0  0  0  0  0  0  0  0  0
  186.9110  178.0950  144.5060 C   0  0  0  0  0  0  0  0  0  0  0  0
  186.0740  178.1000  147.2220 C   0  0  0  0  0  3  0  0  0  0  0  0
  189.0880  177.3410  145.5560 C   0  0  0  0  0  0  0  0  0  0  0  0
  191.6340  176.5100  146.2490 C   0  0  0  0  0  3  0  0  0  0  0  0
  185.1790  178.4660  146.2010 C   0  0  0  0  0  3  0  0  0  0  0  0
  189.4040  177.1240  146.8810 C   0  0  0  0  0  0  0  0  0  0  0  0
  190.6770  176.7050  147.2620 C   0  0  0  0  0  3  0  0  0  0  0  0
  184.7220  178.8270  143.8020 C   0  0  0  0  0  0  0  0  0  0  0  0
  183.3120  179.2390  144.0630 C   0  0  0  0  0  1  0  0  0  0  0  0
  187.3110  178.0930  143.2090 N   0  0  0  0  0  0  0  0  0  0  0  0
  191.3040  176.7330  144.8940 C   0  0  0  0  0  3  0  0  0  0  0  0
  187.3710  177.7410  146.8610 C   0  0  1  0  0  3  0  0  0  0  0  0
  188.3590  177.3650  147.7060 N   0  0  0  0  0  0  0  0  0  0  0  0
  185.1740  178.8100  142.5190 N   0  0  0  0  0  0  0  0  0  0  0  0
  190.0140  177.1550  144.5310 C   0  0  0  0  0  3  0  0  0  0  0  0
  186.4480  178.4410  142.2190 C   0  0  0  0  0  0  0  0  0  0  0  0
  185.5880  178.4660  144.8450 C   0  0  0  0  0  0  0  0  0  0  0  0
  186.9120  178.4610  140.8060 C   0  0  0  0  0  2  0  0  0  0  0  0
  188.2090  177.8140  140.7100 N   0  0  0  0  0  2  0  0  0  0  0  0
  189.1230  178.1020  139.6500 C   0  0  0  0  0  0  0  0  0  0  0  0
  188.8190  178.9350  138.7540 O   0  0  0  0  0  0  0  0  0  0  0  0
  190.4390  177.4060  139.5850 C   0  0  1  0  0  3  0  0  0  0  0  0
  190.4530  176.3270  140.4690 O   0  0  0  0  0  1  0  0  0  0  0  0
  190.7020  176.9130  138.1750 C   0  0  0  0  0  1  0  0  0  0  0  0
  1  4  2  0  0  0  0
  1 13  1  0  0  0  0
  2 18  2  0  0  0  0
  2  1  1  0  0  0  0
  4  7  1  0  0  0  0
  5  8  2  0  0  0  0
  6  3  2  0  0  0  0
  7  8  1  0  0  0  0
  7 14  2  0  0  0  0
  9 10  1  0  0  0  0
  9 18  1  0  0  0  0
 11  2  1  0  0  0  0
 12  5  1  0  0  0  0
 13  3  1  6  0  0  0
 13 14  1  0  0  0  0
 15  9  2  0  0  0  0
 16 12  2  0  0  0  0
 16  4  1  0  0  0  0
 17 15  1  0  0  0  0
 17 11  2  0  0  0  0
 18  6  1  0  0  0  0
 19 17  1  0  0  0  0
 20 19  1  0  0  0  0
 21 20  1  0  0  0  0
 22 21  2  0  0  0  0
 23 25  1  6  0  0  0
 23 21  1  0  0  0  0
 23 24  1  0  0  0  0
M  END
>  <MODEL>
3

>  <REMARK>
 VINA RESULT:     -10.3      1.572      4.648
  Name = 
  3 active torsions:
  status: ('A' for Active; 'I' for Inactive)
    1  A    between atoms: C_2  and  C_21
    2  A    between atoms: C_6  and  N_15
    3  A    between atoms: C_6  and  C_23
                            x       y       z     vdW  Elec       q    Type
                         _______ _______ _______ _____ _____    ______ ____

>  <TORSDO>
F 3

$$$$
=
 OpenBabel10272400403D

 25 28  0  0  1  0  0  0  0  0999 V2000
  186.9100  177.8780  144.5440 C   0  0  0  0  0  0  0  0  0  0  0  0
  188.0870  177.5050  143.8950 C   0  0  0  0  0  0  0  0  0  0  0  0
  187.9230  177.6470  146.7290 C   0  0  0  0  0  3  0  0  0  0  0  0
  185.6690  178.2320  144.0800 C   0  0  1  0  0  3  0  0  0  0  0  0
  183.0290  179.0080  143.7990 C   0  0  0  0  0  3  0  0  0  0  0  0
  189.1250  177.2670  146.1030 C   0  0  0  0  0  3  0  0  0  0  0  0
  184.9070  178.4960  145.2000 C   0  0  0  0  0  0  0  0  0  0  0  0
  183.5750  178.8890  145.0910 C   0  0  0  0  0  3  0  0  0  0  0  0
  190.3960  176.8150  144.0360 C   0  0  0  0  0  0  0  0  0  0  0  0
  191.6320  176.4620  144.7930 C   0  0  0  0  0  1  0  0  0  0  0  0
  188.1660  177.4370  142.5410 N   0  0  0  0  0  0  0  0  0  0  0  0
  183.8140  178.7370  142.6580 C   0  0  0  0  0  3  0  0  0  0  0  0
  186.8290  177.9470  145.9210 C   0  0  0  0  0  0  0  0  0  0  0  0
  185.6020  178.3270  146.3480 N   0  0  0  0  0  0  0  0  0  0  0  0
  190.4200  176.7620  142.6770 N   0  0  0  0  0  0  0  0  0  0  0  0
  185.1570  178.3420  142.7890 C   0  0  0  0  0  3  0  0  0  0  0  0
  189.3250  177.0750  141.9330 C   0  0  0  0  0  0  0  0  0  0  0  0
  189.2150  177.1930  144.6920 C   0  0  0  0  0  0  0  0  0  0  0  0
  189.3850  176.9770  140.4510 C   0  0  0  0  0  2  0  0  0  0  0  0
  190.7370  177.2560  139.9980 N   0  0  0  0  0  2  0  0  0  0  0  0
  191.3820  176.4590  139.0030 C   0  0  0  0  0  0  0  0  0  0  0  0
  190.7870  175.4750  138.4870 O   0  0  0  0  0  0  0  0  0  0  0  0
  192.7760  176.7760  138.5760 C   0  0  1  0  0  3  0  0  0  0  0  0
  193.5320  177.1820  139.6760 O   0  0  0  0  0  1  0  0  0  0  0  0
  193.4170  175.5600  137.9370 C   0  0  0  0  0  1  0  0  0  0  0  0
  1 13  1  0  0  0  0
  2  1  2  0  0  0  0
  2 18  1  0  0  0  0
  4 16  1  6  0  0  0
  4  1  1  0  0  0  0
  4  7  1  0  0  0  0
  5  8  2  0  0  0  0
  6  3  1  0  0  0  0
  7 14  2  0  0  0  0
  8  7  1  0  0  0  0
  9 18  1  0  0  0  0
  9 10  1  0  0  0  0
 11  2  1  0  0  0  0
 12 16  2  0  0  0  0
 12  5  1  0  0  0  0
 13 14  1  0  0  0  0
 13  3  2  0  0  0  0
 15  9  2  0  0  0  0
 17 11  2  0  0  0  0
 17 15  1  0  0  0  0
 18  6  2  0  0  0  0
 19 17  1  0  0  0  0
 20 19  1  0  0  0  0
 21 20  1  0  0  0  0
 22 21  2  0  0  0  0
 23 25  1  1  0  0  0
 23 21  1  0  0  0  0
 23 24  1  0  0  0  0
M  END
>  <MODEL>
4

>  <REMARK>
 VINA RESULT:     -10.0      1.779      2.301
  Name = 
  3 active torsions:
  status: ('A' for Active; 'I' for Inactive)
    1  A    between atoms: C_2  and  C_21
    2  A    between atoms: C_6  and  N_15
    3  A    between atoms: C_6  and  C_23
                            x       y       z     vdW  Elec       q    Type
                         _______ _______ _______ _____ _____    ______ ____

>  <TORSDO>
F 3

$$$$
=
 OpenBabel10272400403D

 25 28  0  0  1  0  0  0  0  0999 V2000
  186.2320  178.3420  145.0220 C   0  0  0  0  0  0  0  0  0  0  0  0
  186.2480  178.3450  143.6270 C   0  0  0  0  0  0  0  0  0  0  0  0
  183.8830  178.9150  145.0970 C   0  0  0  0  0  3  0  0  0  0  0  0
  187.2050  178.1020  145.9580 C   0  0  1  0  0  3  0  0  0  0  0  0
  188.6660  177.7370  148.2780 C   0  0  0  0  0  3  0  0  0  0  0  0
  183.8670  178.9270  143.6910 C   0  0  0  0  0  3  0  0  0  0  0  0
  186.5930  178.2450  147.1860 C   0  0  0  0  0  0  0  0  0  0  0  0
  187.3020  178.0670  148.3720 C   0  0  0  0  0  3  0  0  0  0  0  0
  185.0610  178.6500  141.5480 C   0  0  0  0  0  0  0  0  0  0  0  0
  183.8390  178.9610  140.7500 C   0  0  0  0  0  1  0  0  0  0  0  0
  187.3770  178.0740  142.9240 N   0  0  0  0  0  0  0  0  0  0  0  0
  189.2870  177.5910  147.0190 C   0  0  0  0  0  3  0  0  0  0  0  0
  185.0840  178.6190  145.7380 C   0  0  0  0  0  0  0  0  0  0  0  0
  185.2830  178.5650  147.0750 N   0  0  0  0  0  0  0  0  0  0  0  0
  186.2200  178.3720  140.8930 N   0  0  0  0  0  0  0  0  0  0  0  0
  188.5540  177.7740  145.8330 C   0  0  0  0  0  3  0  0  0  0  0  0
  187.3650  178.0790  141.5660 C   0  0  0  0  0  0  0  0  0  0  0  0
  185.0400  178.6450  142.9500 C   0  0  0  0  0  0  0  0  0  0  0  0
  188.6180  177.8090  140.8130 C   0  0  0  0  0  2  0  0  0  0  0  0
  189.7640  178.0370  141.6780 N   0  0  0  0  0  2  0  0  0  0  0  0
  190.4760  176.9600  142.2910 C   0  0  0  0  0  0  0  0  0  0  0  0
  190.1200  175.7660  142.0980 O   0  0  0  0  0  0  0  0  0  0  0  0
  191.6390  177.2410  143.1800 C   0  0  1  0  0  3  0  0  0  0  0  0
  191.5820  178.5560  143.6410 O   0  0  0  0  0  1  0  0  0  0  0  0
  191.6400  176.2870  144.3580 C   0  0  0  0  0  1  0  0  0  0  0  0
  1 13  2  0  0  0  0
  1  4  1  0  0  0  0
  2  1  1  0  0  0  0
  3 13  1  0  0  0  0
  4 16  1  6  0  0  0
  4  7  1  0  0  0  0
  5  8  2  0  0  0  0
  6  3  2  0  0  0  0
  7  8  1  0  0  0  0
  9 18  1  0  0  0  0
 10  9  1  0  0  0  0
 11  2  1  0  0  0  0
 12  5  1  0  0  0  0
 13 14  1  0  0  0  0
 14  7  2  0  0  0  0
 15  9  2  0  0  0  0
 15 17  1  0  0  0  0
 16 12  2  0  0  0  0
 17 11  2  0  0  0  0
 18  2  2  0  0  0  0
 18  6  1  0  0  0  0
 19 17  1  0  0  0  0
 19 20  1  0  0  0  0
 20 21  1  0  0  0  0
 21 23  1  0  0  0  0
 22 21  2  0  0  0  0
 23 24  1  0  0  0  0
 23 25  1  1  0  0  0
M  END
>  <MODEL>
5

>  <REMARK>
 VINA RESULT:     -10.0      1.747      4.847
  Name = 
  3 active torsions:
  status: ('A' for Active; 'I' for Inactive)
    1  A    between atoms: C_2  and  C_21
    2  A    between atoms: C_6  and  N_15
    3  A    between atoms: C_6  and  C_23
                            x       y       z     vdW  Elec       q    Type
                         _______ _______ _______ _____ _____    ______ ____

>  <TORSDO>
F 3

$$$$
=
 OpenBabel10272400403D

 25 28  0  0  1  0  0  0  0  0999 V2000
  186.9360  177.9310  144.5250 C   0  0  0  0  0  0  0  0  0  0  0  0
  188.2120  177.6610  144.0300 C   0  0  0  0  0  0  0  0  0  0  0  0
  187.6480  177.6140  146.8150 C   0  0  0  0  0  3  0  0  0  0  0  0
  185.7530  178.2500  143.9100 C   0  0  1  0  0  3  0  0  0  0  0  0
  183.1360  178.9080  143.3000 C   0  0  0  0  0  3  0  0  0  0  0  0
  188.9450  177.3360  146.3470 C   0  0  0  0  0  3  0  0  0  0  0  0
  184.8280  178.4040  144.9220 C   0  0  0  0  0  0  0  0  0  0  0  0
  183.5030  178.7350  144.6470 C   0  0  0  0  0  3  0  0  0  0  0  0
  190.5150  177.0810  144.4590 C   0  0  0  0  0  0  0  0  0  0  0  0
  191.6530  176.7440  145.3640 C   0  0  0  0  0  1  0  0  0  0  0  0
  188.4810  177.6820  142.6990 N   0  0  0  0  0  0  0  0  0  0  0  0
  184.0860  178.7490  142.2680 C   0  0  0  0  0  3  0  0  0  0  0  0
  186.6600  177.9090  145.8780 C   0  0  0  0  0  0  0  0  0  0  0  0
  185.3660  178.1980  146.1470 N   0  0  0  0  0  0  0  0  0  0  0  0
  190.7310  177.1150  143.1170 N   0  0  0  0  0  0  0  0  0  0  0  0
  185.4190  178.4160  142.5670 C   0  0  0  0  0  3  0  0  0  0  0  0
  189.7340  177.4190  142.2430 C   0  0  0  0  0  0  0  0  0  0  0  0
  189.2340  177.3560  144.9610 C   0  0  0  0  0  0  0  0  0  0  0  0
  190.0040  177.4180  140.7810 C   0  0  0  0  0  2  0  0  0  0  0  0
  188.7720  177.1450  140.0590 N   0  0  0  0  0  2  0  0  0  0  0  0
  188.3090  177.9920  139.0060 C   0  0  0  0  0  0  0  0  0  0  0  0
  188.9650  179.0160  138.6730 O   0  0  0  0  0  0  0  0  0  0  0  0
  187.0330  177.6800  138.2990 C   0  0  1  0  0  3  0  0  0  0  0  0
  186.3180  178.8550  138.0640 O   0  0  0  0  0  1  0  0  0  0  0  0
  187.3210  176.9860  136.9820 C   0  0  0  0  0  1  0  0  0  0  0  0
  1 13  1  0  0  0  0
  2  1  2  0  0  0  0
  2 18  1  0  0  0  0
  4 16  1  1  0  0  0
  4  1  1  0  0  0  0
  4  7  1  0  0  0  0
  5  8  2  0  0  0  0
  6  3  1  0  0  0  0
  7 14  2  0  0  0  0
  8  7  1  0  0  0  0
  9 18  1  0  0  0  0
  9 10  1  0  0  0  0
 11  2  1  0  0  0  0
 12 16  2  0  0  0  0
 12  5  1  0  0  0  0
 13 14  1  0  0  0  0
 13  3  2  0  0  0  0
 15  9  2  0  0  0  0
 17 11  2  0  0  0  0
 17 15  1  0  0  0  0
 18  6  2  0  0  0  0
 19 17  1  0  0  0  0
 20 19  1  0  0  0  0
 21 20  1  0  0  0  0
 22 21  2  0  0  0  0
 23 25  1  6  0  0  0
 23 21  1  0  0  0  0
 24 23  1  0  0  0  0
M  END
>  <MODEL>
6

>  <REMARK>
 VINA RESULT:      -9.8      1.220      1.605
  Name = 
  3 active torsions:
  status: ('A' for Active; 'I' for Inactive)
    1  A    between atoms: C_2  and  C_21
    2  A    between atoms: C_6  and  N_15
    3  A    between atoms: C_6  and  C_23
                            x       y       z     vdW  Elec       q    Type
                         _______ _______ _______ _____ _____    ______ ____

>  <TORSDO>
F 3

$$$$
=
 OpenBabel10272400403D

 25 28  0  0  1  0  0  0  0  0999 V2000
  187.5830  177.7940  144.6740 C   0  0  0  0  0  0  0  0  0  0  0  0
  186.4580  178.1150  143.9140 C   0  0  0  0  0  0  0  0  0  0  0  0
  186.3760  178.0490  146.7550 C   0  0  0  0  0  3  0  0  0  0  0  0
  188.8700  177.4670  144.3290 C   0  0  0  0  0  0  0  0  0  0  0  0
  191.5440  176.7630  144.3010 C   0  0  0  0  0  3  0  0  0  0  0  0
  185.2240  178.3770  146.0170 C   0  0  0  0  0  3  0  0  0  0  0  0
  189.5370  177.2530  145.5180 C   0  0  0  0  0  0  0  0  0  0  0  0
  190.8840  176.8970  145.5360 C   0  0  0  0  0  3  0  0  0  0  0  0
  184.1280  178.7390  143.8350 C   0  0  0  0  0  0  0  0  0  0  0  0
  182.8200  179.0740  144.4710 C   0  0  0  0  0  1  0  0  0  0  0  0
  186.4970  178.1480  142.5570 N   0  0  0  0  0  0  0  0  0  0  0  0
  190.8560  176.9820  143.0890 C   0  0  0  0  0  3  0  0  0  0  0  0
  187.5450  177.7610  146.0540 C   0  0  2  0  0  3  0  0  0  0  0  0
  188.7390  177.4290  146.5960 N   0  0  0  0  0  0  0  0  0  0  0  0
  184.2220  178.7580  142.4780 N   0  0  0  0  0  0  0  0  0  0  0  0
  189.4960  177.3400  143.0910 C   0  0  0  0  0  3  0  0  0  0  0  0
  185.3860  178.4600  141.8410 C   0  0  0  0  0  0  0  0  0  0  0  0
  185.2560  178.4130  144.6010 C   0  0  0  0  0  0  0  0  0  0  0  0
  185.4550  178.5200  140.3570 C   0  0  0  0  0  2  0  0  0  0  0  0
  186.8440  178.6000  139.9370 N   0  0  0  0  0  2  0  0  0  0  0  0
  187.2670  178.1840  138.6370 C   0  0  0  0  0  0  0  0  0  0  0  0
  186.4340  177.7260  137.8100 O   0  0  0  0  0  0  0  0  0  0  0  0
  188.7050  178.2750  138.2530 C   0  0  1  0  0  3  0  0  0  0  0  0
  188.9820  179.5390  137.7310 O   0  0  0  0  0  1  0  0  0  0  0  0
  189.5870  178.0160  139.4590 C   0  0  0  0  0  1  0  0  0  0  0  0
  1 13  1  0  0  0  0
  2 18  2  0  0  0  0
  2  1  1  0  0  0  0
  4  1  2  0  0  0  0
  4  7  1  0  0  0  0
  5  8  2  0  0  0  0
  6  3  2  0  0  0  0
  7  8  1  0  0  0  0
  7 14  2  0  0  0  0
  9 10  1  0  0  0  0
  9 18  1  0  0  0  0
 11  2  1  0  0  0  0
 12 16  2  0  0  0  0
 12  5  1  0  0  0  0
 13 14  1  0  0  0  0
 13  3  1  1  0  0  0
 15  9  2  0  0  0  0
 16  4  1  0  0  0  0
 17 15  1  0  0  0  0
 17 11  2  0  0  0  0
 18  6  1  0  0  0  0
 19 17  1  0  0  0  0
 20 19  1  0  0  0  0
 21 20  1  0  0  0  0
 22 21  2  0  0  0  0
 23 21  1  0  0  0  0
 23 25  1  1  0  0  0
 24 23  1  0  0  0  0
M  END
>  <MODEL>
7

>  <REMARK>
 VINA RESULT:      -9.7      1.854      4.873
  Name = 
  3 active torsions:
  status: ('A' for Active; 'I' for Inactive)
    1  A    between atoms: C_2  and  C_21
    2  A    between atoms: C_6  and  N_15
    3  A    between atoms: C_6  and  C_23
                            x       y       z     vdW  Elec       q    Type
                         _______ _______ _______ _____ _____    ______ ____

>  <TORSDO>
F 3

$$$$
=
 OpenBabel10272400403D

 25 28  0  0  1  0  0  0  0  0999 V2000
  189.3400  177.4870  144.3270 C   0  0  0  0  0  0  0  0  0  0  0  0
  188.9810  177.7060  142.9970 C   0  0  0  0  0  0  0  0  0  0  0  0
  191.5730  176.7870  143.7140 C   0  0  0  0  0  3  0  0  0  0  0  0
  188.6540  177.6250  145.5070 C   0  0  1  0  0  3  0  0  0  0  0  0
  187.8500  177.6940  148.1520 C   0  0  0  0  0  3  0  0  0  0  0  0
  191.2410  176.9980  142.3630 C   0  0  0  0  0  3  0  0  0  0  0  0
  189.5350  177.2570  146.5030 C   0  0  0  0  0  0  0  0  0  0  0  0
  189.1590  177.2810  147.8440 C   0  0  0  0  0  3  0  0  0  0  0  0
  189.5850  177.6740  140.6610 C   0  0  0  0  0  0  0  0  0  0  0  0
  190.5390  177.4300  139.5400 C   0  0  0  0  0  1  0  0  0  0  0  0
  187.7420  178.1440  142.6550 N   0  0  0  0  0  0  0  0  0  0  0  0
  186.9540  178.0700  147.1280 C   0  0  0  0  0  3  0  0  0  0  0  0
  190.5990  177.0400  144.6770 C   0  0  0  0  0  0  0  0  0  0  0  0
  190.7420  176.8910  146.0140 N   0  0  0  0  0  0  0  0  0  0  0  0
  188.3310  178.1130  140.3720 N   0  0  0  0  0  0  0  0  0  0  0  0
  187.3520  178.0390  145.7810 C   0  0  0  0  0  3  0  0  0  0  0  0
  187.4190  178.3550  141.3520 C   0  0  0  0  0  0  0  0  0  0  0  0
  189.9510  177.4550  141.9970 C   0  0  0  0  0  0  0  0  0  0  0  0
  186.0490  178.8070  140.9940 C   0  0  0  0  0  2  0  0  0  0  0  0
  185.3880  179.3390  142.1730 N   0  0  0  0  0  2  0  0  0  0  0  0
  184.0830  178.9110  142.5680 C   0  0  0  0  0  0  0  0  0  0  0  0
  183.4610  178.0490  141.8900 O   0  0  0  0  0  0  0  0  0  0  0  0
  183.4380  179.4920  143.7800 C   0  0  1  0  0  3  0  0  0  0  0  0
  182.0590  179.2810  143.7360 O   0  0  0  0  0  1  0  0  0  0  0  0
  184.0100  178.8580  145.0330 C   0  0  0  0  0  1  0  0  0  0  0  0
  1 13  2  0  0  0  0
  1  4  1  0  0  0  0
  2  1  1  0  0  0  0
  3 13  1  0  0  0  0
  4 16  1  1  0  0  0
  4  7  1  0  0  0  0
  6  3  2  0  0  0  0
  7  8  1  0  0  0  0
  8  5  2  0  0  0  0
  9 18  1  0  0  0  0
 10  9  1  0  0  0  0
 11  2  1  0  0  0  0
 12  5  1  0  0  0  0
 13 14  1  0  0  0  0
 14  7  2  0  0  0  0
 15  9  2  0  0  0  0
 15 17  1  0  0  0  0
 16 12  2  0  0  0  0
 17 11  2  0  0  0  0
 18  6  1  0  0  0  0
 18  2  2  0  0  0  0
 19 17  1  0  0  0  0
 19 20  1  0  0  0  0
 20 21  1  0  0  0  0
 21 23  1  0  0  0  0
 22 21  2  0  0  0  0
 23 25  1  1  0  0  0
 24 23  1  0  0  0  0
M  END
>  <MODEL>
8

>  <REMARK>
 VINA RESULT:      -9.7      2.606      5.606
  Name = 
  3 active torsions:
  status: ('A' for Active; 'I' for Inactive)
    1  A    between atoms: C_2  and  C_21
    2  A    between atoms: C_6  and  N_15
    3  A    between atoms: C_6  and  C_23
                            x       y       z     vdW  Elec       q    Type
                         _______ _______ _______ _____ _____    ______ ____

>  <TORSDO>
F 3

$$$$
=
 OpenBabel10272400403D

 25 28  0  0  1  0  0  0  0  0999 V2000
  186.8580  178.1580  143.0350 C   0  0  0  0  0  0  0  0  0  0  0  0
  188.1060  177.8310  142.5050 C   0  0  0  0  0  0  0  0  0  0  0  0
  185.9550  178.6790  140.8520 C   0  0  0  0  0  3  0  0  0  0  0  0
  186.3710  178.1690  144.3170 C   0  0  1  0  0  3  0  0  0  0  0  0
  184.8250  178.3950  146.6000 C   0  0  0  0  0  3  0  0  0  0  0  0
  187.2020  178.3580  140.2880 C   0  0  0  0  0  3  0  0  0  0  0  0
  185.0590  178.5840  144.2210 C   0  0  0  0  0  0  0  0  0  0  0  0
  184.2550  178.7080  145.3520 C   0  0  0  0  0  3  0  0  0  0  0  0
  189.5370  177.6080  140.5740 C   0  0  0  0  0  0  0  0  0  0  0  0
  189.8150  177.6940  139.1100 C   0  0  0  0  0  1  0  0  0  0  0  0
  189.1350  177.4270  143.2940 N   0  0  0  0  0  0  0  0  0  0  0  0
  186.1680  177.9700  146.6920 C   0  0  0  0  0  3  0  0  0  0  0  0
  185.8120  178.5710  142.2340 C   0  0  0  0  0  0  0  0  0  0  0  0
  184.6910  178.8390  142.9430 N   0  0  0  0  0  0  0  0  0  0  0  0
  190.5340  177.2100  141.4100 N   0  0  0  0  0  0  0  0  0  0  0  0
  186.9630  177.8510  145.5380 C   0  0  0  0  0  3  0  0  0  0  0  0
  190.3390  177.1100  142.7520 C   0  0  0  0  0  0  0  0  0  0  0  0
  188.2800  177.9350  141.1030 C   0  0  0  0  0  0  0  0  0  0  0  0
  191.4620  176.6980  143.6340 C   0  0  0  0  0  2  0  0  0  0  0  0
  191.1030  176.9350  145.0220 N   0  0  0  0  0  2  0  0  0  0  0  0
  191.6010  176.1180  146.0840 C   0  0  0  0  0  0  0  0  0  0  0  0
  192.3740  175.1530  145.8390 O   0  0  0  0  0  0  0  0  0  0  0  0
  191.1980  176.3920  147.4930 C   0  0  1  0  0  3  0  0  0  0  0  0
  192.2360  177.0300  148.1720 O   0  0  0  0  0  1  0  0  0  0  0  0
  189.9580  177.2650  147.5220 C   0  0  0  0  0  1  0  0  0  0  0  0
  1  4  1  0  0  0  0
  2  1  1  0  0  0  0
  2 11  1  0  0  0  0
  3 13  1  0  0  0  0
  4 16  1  6  0  0  0
  5 12  1  0  0  0  0
  6  3  2  0  0  0  0
  6 18  1  0  0  0  0
  7  4  1  0  0  0  0
  7  8  1  0  0  0  0
  8  5  2  0  0  0  0
  9 18  1  0  0  0  0
  9 15  2  0  0  0  0
 10  9  1  0  0  0  0
 13 14  1  0  0  0  0
 13  1  2  0  0  0  0
 14  7  2  0  0  0  0
 15 17  1  0  0  0  0
 16 12  2  0  0  0  0
 17 11  2  0  0  0  0
 17 19  1  0  0  0  0
 18  2  2  0  0  0  0
 19 20  1  0  0  0  0
 20 21  1  0  0  0  0
 21 23  1  0  0  0  0
 22 21  2  0  0  0  0
 23 25  1  6  0  0  0
 23 24  1  0  0  0  0
M  END
>  <MODEL>
9

>  <REMARK>
 VINA RESULT:      -9.5      2.576      5.359
  Name = 
  3 active torsions:
  status: ('A' for Active; 'I' for Inactive)
    1  A    between atoms: C_2  and  C_21
    2  A    between atoms: C_6  and  N_15
    3  A    between atoms: C_6  and  C_23
                            x       y       z     vdW  Elec       q    Type
                         _______ _______ _______ _____ _____    ______ ____

>  <TORSDO>
F 3

$$$$
