=
 OpenBabel10272401563D

 28 32  0  0  1  0  0  0  0  0999 V2000
  190.3060  176.3310  143.9070 C   0  0  0  0  0  0  0  0  0  0  0  0
  185.5420  177.8930  143.3270 C   0  0  0  0  0  3  0  0  0  0  0  0
  189.0820  177.9800  148.1750 O   0  0  0  0  0  0  0  0  0  0  0  0
  184.9710  178.7210  145.5390 C   0  0  0  0  0  0  0  0  0  0  0  0
  187.1870  177.8040  145.1390 C   0  0  0  0  0  0  0  0  0  0  0  0
  183.3400  178.8130  143.7520 C   0  0  0  0  0  0  0  0  0  0  0  0
  185.9080  178.1330  144.6600 C   0  0  0  0  0  0  0  0  0  0  0  0
  186.5740  178.6390  147.3080 N   0  0  0  0  0  0  0  0  0  0  0  0
  183.6940  179.0580  145.0830 C   0  0  0  0  0  3  0  0  0  0  0  0
  189.7190  177.1660  146.1090 C   0  0  0  0  0  0  0  0  0  0  0  0
  188.1170  177.2360  144.3230 N   0  0  0  0  0  2  0  0  0  0  0  0
  185.3310  178.9650  146.8650 C   0  0  0  0  0  3  0  0  0  0  0  0
  191.8930  176.2900  145.7260 C   0  0  0  0  0  3  0  0  0  0  0  0
  188.7800  177.7480  146.9730 C   0  0  0  0  0  0  0  0  0  0  0  0
  190.9680  176.8480  146.5490 N   0  0  0  0  0  0  0  0  0  0  0  0
  182.0710  179.1470  143.3010 O   0  0  0  0  0  1  0  0  0  0  0  0
  184.2630  178.2320  142.8770 C   0  0  0  0  0  3  0  0  0  0  0  0
  187.5040  178.0720  146.4890 C   0  0  0  0  0  0  0  0  0  0  0  0
  191.5800  176.0240  144.3910 C   0  0  0  0  0  3  0  0  0  0  0  0
  189.3620  176.9140  144.7670 C   0  0  0  0  0  0  0  0  0  0  0  0
  189.9890  176.0610  142.4720 C   0  0  0  0  0  2  0  0  0  0  0  0
  189.8640  177.3160  141.7460 N   0  0  0  0  0  0  0  0  0  0  0  0
  188.8670  177.8250  138.9740 C   0  0  1  0  0  3  0  0  0  0  0  0
  190.7410  177.2310  140.5630 C   0  0  0  0  0  2  0  0  0  0  0  0
  188.4380  177.4840  141.4250 C   0  0  0  0  0  2  0  0  0  0  0  0
  188.2400  178.4200  140.2370 C   0  0  0  0  0  2  0  0  0  0  0  0
  189.3720  178.9430  138.0850 C   0  0  0  0  0  1  0  0  0  0  0  0
  189.9990  176.8400  139.2790 C   0  0  0  0  0  2  0  0  0  0  0  0
  1 19  2  0  0  0  0
  1 20  1  0  0  0  0
  2  7  1  0  0  0  0
  4 12  1  0  0  0  0
  5 18  2  0  0  0  0
  6  9  2  0  0  0  0
  7  5  1  0  0  0  0
  7  4  2  0  0  0  0
  9  4  1  0  0  0  0
 10 15  1  0  0  0  0
 10 14  1  0  0  0  0
 11 20  1  0  0  0  0
 11  5  1  0  0  0  0
 12  8  2  0  0  0  0
 13 15  2  0  0  0  0
 14  3  2  0  0  0  0
 16  6  1  0  0  0  0
 17  2  2  0  0  0  0
 17  6  1  0  0  0  0
 18 14  1  0  0  0  0
 18  8  1  0  0  0  0
 19 13  1  0  0  0  0
 20 10  2  0  0  0  0
 21  1  1  0  0  0  0
 22 21  1  0  0  0  0
 23 27  1  6  0  0  0
 23 28  1  0  0  0  0
 23 26  1  0  0  0  0
 24 22  1  0  0  0  0
 25 22  1  0  0  0  0
 26 25  1  0  0  0  0
 28 24  1  0  0  0  0
M  END
>  <MODEL>
1

>  <REMARK>
 VINA RESULT:     -11.1      0.000      0.000
  Name = 
  2 active torsions:
  status: ('A' for Active; 'I' for Inactive)
    1  A    between atoms: C_1  and  C_2
    2  A    between atoms: C_2  and  N_3
                            x       y       z     vdW  Elec       q    Type
                         _______ _______ _______ _____ _____    ______ ____

>  <TORSDO>
F 2

$$$$
=
 OpenBabel10272401563D

 28 32  0  0  1  0  0  0  0  0999 V2000
  186.8880  178.3970  141.1650 C   0  0  0  0  0  0  0  0  0  0  0  0
  190.3360  177.0440  144.5930 C   0  0  0  0  0  3  0  0  0  0  0  0
  184.5660  178.5440  145.2910 O   0  0  0  0  0  0  0  0  0  0  0  0
  189.0930  177.1400  146.6780 C   0  0  0  0  0  0  0  0  0  0  0  0
  187.9770  177.6960  144.5920 C   0  0  0  0  0  0  0  0  0  0  0  0
  191.4270  176.4940  146.6860 C   0  0  0  0  0  0  0  0  0  0  0  0
  189.1370  177.2950  145.2740 C   0  0  0  0  0  0  0  0  0  0  0  0
  186.7900  177.7730  146.6810 N   0  0  0  0  0  0  0  0  0  0  0  0
  190.2360  176.7410  147.3770 C   0  0  0  0  0  3  0  0  0  0  0  0
  185.6620  178.4840  143.2580 C   0  0  0  0  0  0  0  0  0  0  0  0
  187.9780  177.8570  143.2400 N   0  0  0  0  0  2  0  0  0  0  0  0
  187.9020  177.3860  147.3610 C   0  0  0  0  0  3  0  0  0  0  0  0
  184.5540  179.0120  141.2240 C   0  0  0  0  0  3  0  0  0  0  0  0
  185.6310  178.3290  144.6510 C   0  0  0  0  0  0  0  0  0  0  0  0
  184.5460  178.8620  142.5740 N   0  0  0  0  0  0  0  0  0  0  0  0
  192.5610  176.0980  147.3820 O   0  0  0  0  0  1  0  0  0  0  0  0
  191.4760  176.6450  145.2970 C   0  0  0  0  0  3  0  0  0  0  0  0
  186.7940  177.9320  145.3280 C   0  0  0  0  0  0  0  0  0  0  0  0
  185.7230  178.7800  140.4960 C   0  0  0  0  0  3  0  0  0  0  0  0
  186.8630  178.2410  142.5600 C   0  0  0  0  0  0  0  0  0  0  0  0
  188.1270  178.1310  140.3740 C   0  0  0  0  0  2  0  0  0  0  0  0
  187.8630  178.3230  138.9570 N   0  0  0  0  0  0  0  0  0  0  0  0
  189.0700  176.9540  136.5880 C   0  0  1  0  0  3  0  0  0  0  0  0
  189.1180  178.7840  138.3320 C   0  0  0  0  0  2  0  0  0  0  0  0
  187.3700  177.0390  138.4360 C   0  0  0  0  0  2  0  0  0  0  0  0
  187.5770  176.9310  136.9280 C   0  0  0  0  0  2  0  0  0  0  0  0
  189.2710  177.6150  135.2400 C   0  0  0  0  0  1  0  0  0  0  0  0
  189.9110  177.6610  137.6550 C   0  0  0  0  0  2  0  0  0  0  0  0
  1 20  1  0  0  0  0
  2  7  2  0  0  0  0
  2 17  1  0  0  0  0
  4 12  1  0  0  0  0
  4  9  2  0  0  0  0
  5  7  1  0  0  0  0
  5 18  2  0  0  0  0
  6  9  1  0  0  0  0
  6 16  1  0  0  0  0
  7  4  1  0  0  0  0
  8 12  2  0  0  0  0
 10 14  1  0  0  0  0
 11  5  1  0  0  0  0
 13 15  2  0  0  0  0
 14  3  2  0  0  0  0
 14 18  1  0  0  0  0
 15 10  1  0  0  0  0
 17  6  2  0  0  0  0
 18  8  1  0  0  0  0
 19  1  2  0  0  0  0
 19 13  1  0  0  0  0
 20 11  1  0  0  0  0
 20 10  2  0  0  0  0
 21  1  1  0  0  0  0
 22 21  1  0  0  0  0
 23 27  1  6  0  0  0
 23 26  1  0  0  0  0
 23 28  1  0  0  0  0
 24 22  1  0  0  0  0
 25 22  1  0  0  0  0
 26 25  1  0  0  0  0
 28 24  1  0  0  0  0
M  END
>  <MODEL>
2

>  <REMARK>
 VINA RESULT:     -10.3      2.006      5.303
  Name = 
  2 active torsions:
  status: ('A' for Active; 'I' for Inactive)
    1  A    between atoms: C_1  and  C_2
    2  A    between atoms: C_2  and  N_3
                            x       y       z     vdW  Elec       q    Type
                         _______ _______ _______ _____ _____    ______ ____

>  <TORSDO>
F 2

$$$$
=
 OpenBabel10272401563D

 28 32  0  0  1  0  0  0  0  0999 V2000
  189.5800  177.5990  140.1370 C   0  0  0  0  0  0  0  0  0  0  0  0
  187.0140  177.9550  144.4690 C   0  0  0  0  0  3  0  0  0  0  0  0
  185.2510  179.0080  138.8280 O   0  0  0  0  0  0  0  0  0  0  0  0
  184.8140  178.6800  143.7370 C   0  0  0  0  0  0  0  0  0  0  0  0
  186.5650  178.3170  142.0900 C   0  0  0  0  0  0  0  0  0  0  0  0
  185.2520  178.3250  146.0910 C   0  0  0  0  0  0  0  0  0  0  0  0
  186.1440  178.3140  143.4300 C   0  0  0  0  0  0  0  0  0  0  0  0
  184.3700  179.0310  141.4160 N   0  0  0  0  0  0  0  0  0  0  0  0
  184.3740  178.6840  145.0630 C   0  0  0  0  0  3  0  0  0  0  0  0
  187.3750  178.3210  139.4250 C   0  0  0  0  0  0  0  0  0  0  0  0
  187.8380  177.9710  141.7540 N   0  0  0  0  0  2  0  0  0  0  0  0
  183.9430  179.0360  142.7060 C   0  0  0  0  0  3  0  0  0  0  0  0
  189.0720  177.9500  137.8030 C   0  0  0  0  0  3  0  0  0  0  0  0
  186.0580  178.6840  139.7410 C   0  0  0  0  0  0  0  0  0  0  0  0
  187.8010  178.3060  138.1310 N   0  0  0  0  0  0  0  0  0  0  0  0
  184.8140  178.3290  147.4080 O   0  0  0  0  0  1  0  0  0  0  0  0
  186.5690  177.9610  145.7940 C   0  0  0  0  0  3  0  0  0  0  0  0
  185.6450  178.6830  141.0820 C   0  0  0  0  0  0  0  0  0  0  0  0
  189.9810  177.5890  138.8000 C   0  0  0  0  0  3  0  0  0  0  0  0
  188.2630  177.9630  140.4610 C   0  0  0  0  0  0  0  0  0  0  0  0
  190.5560  177.1910  141.1930 C   0  0  0  0  0  2  0  0  0  0  0  0
  189.9890  177.4250  142.5110 N   0  0  0  0  0  0  0  0  0  0  0  0
  191.2960  177.3090  145.1980 C   0  0  1  0  0  3  0  0  0  0  0  0
  190.1150  176.1680  143.2760 C   0  0  0  0  0  2  0  0  0  0  0  0
  190.7210  178.5590  143.0960 C   0  0  0  0  0  2  0  0  0  0  0  0
  190.6270  178.5580  144.6190 C   0  0  0  0  0  2  0  0  0  0  0  0
  190.5830  176.8960  146.4690 C   0  0  0  0  0  1  0  0  0  0  0  0
  191.3310  176.1400  144.2090 C   0  0  0  0  0  2  0  0  0  0  0  0
  1 20  1  0  0  0  0
  1 21  1  0  0  0  0
  2 17  1  0  0  0  0
  3 14  2  0  0  0  0
  4  9  2  0  0  0  0
  5  7  1  0  0  0  0
  6 16  1  0  0  0  0
  7  4  1  0  0  0  0
  7  2  2  0  0  0  0
  8 12  2  0  0  0  0
  9  6  1  0  0  0  0
 10 14  1  0  0  0  0
 10 20  2  0  0  0  0
 11  5  1  0  0  0  0
 12  4  1  0  0  0  0
 13 15  2  0  0  0  0
 13 19  1  0  0  0  0
 14 18  1  0  0  0  0
 15 10  1  0  0  0  0
 17  6  2  0  0  0  0
 18  8  1  0  0  0  0
 18  5  2  0  0  0  0
 19  1  2  0  0  0  0
 20 11  1  0  0  0  0
 21 22  1  0  0  0  0
 22 25  1  0  0  0  0
 22 24  1  0  0  0  0
 23 27  1  1  0  0  0
 24 28  1  0  0  0  0
 25 26  1  0  0  0  0
 26 23  1  0  0  0  0
 28 23  1  0  0  0  0
M  END
>  <MODEL>
3

>  <REMARK>
 VINA RESULT:      -9.9      2.198      5.365
  Name = 
  2 active torsions:
  status: ('A' for Active; 'I' for Inactive)
    1  A    between atoms: C_1  and  C_2
    2  A    between atoms: C_2  and  N_3
                            x       y       z     vdW  Elec       q    Type
                         _______ _______ _______ _____ _____    ______ ____

>  <TORSDO>
F 2

$$$$
=
 OpenBabel10272401563D

 28 32  0  0  1  0  0  0  0  0999 V2000
  184.1210  178.4400  142.6740 C   0  0  0  0  0  0  0  0  0  0  0  0
  188.8760  176.7890  143.0450 C   0  0  0  0  0  3  0  0  0  0  0  0
  185.1650  178.8840  147.2730 O   0  0  0  0  0  0  0  0  0  0  0  0
  189.3540  177.0430  145.4140 C   0  0  0  0  0  0  0  0  0  0  0  0
  187.1700  177.6800  144.5580 C   0  0  0  0  0  0  0  0  0  0  0  0
  191.0460  176.1610  143.9240 C   0  0  0  0  0  0  0  0  0  0  0  0
  188.4590  177.1720  144.3280 C   0  0  0  0  0  0  0  0  0  0  0  0
  187.6910  177.9090  146.8930 N   0  0  0  0  0  0  0  0  0  0  0  0
  190.6410  176.5390  145.2080 C   0  0  0  0  0  3  0  0  0  0  0  0
  184.6160  178.6830  145.0380 C   0  0  0  0  0  0  0  0  0  0  0  0
  186.2790  177.8200  143.5380 N   0  0  0  0  0  2  0  0  0  0  0  0
  188.9430  177.4200  146.6930 C   0  0  0  0  0  3  0  0  0  0  0  0
  182.4710  179.2920  144.2170 C   0  0  0  0  0  3  0  0  0  0  0  0
  185.5130  178.5520  146.1070 C   0  0  0  0  0  0  0  0  0  0  0  0
  183.3570  179.1630  145.2390 N   0  0  0  0  0  0  0  0  0  0  0  0
  192.3250  175.6600  143.7210 O   0  0  0  0  0  1  0  0  0  0  0  0
  190.1650  176.2860  142.8450 C   0  0  0  0  0  3  0  0  0  0  0  0
  186.8000  178.0470  145.8710 C   0  0  0  0  0  0  0  0  0  0  0  0
  182.8360  178.9300  142.9180 C   0  0  0  0  0  3  0  0  0  0  0  0
  185.0240  178.3070  143.7410 C   0  0  0  0  0  0  0  0  0  0  0  0
  184.4940  178.0360  141.2840 C   0  0  0  0  0  2  0  0  0  0  0  0
  183.3620  178.2260  140.3910 N   0  0  0  0  0  0  0  0  0  0  0  0
  182.9740  177.2930  137.5770 C   0  0  1  0  0  3  0  0  0  0  0  0
  183.8410  178.9990  139.2290 C   0  0  0  0  0  2  0  0  0  0  0  0
  182.8540  176.8880  140.0540 C   0  0  0  0  0  2  0  0  0  0  0  0
  182.0670  176.9030  138.7470 C   0  0  0  0  0  2  0  0  0  0  0  0
  182.1660  178.0450  136.5400 C   0  0  0  0  0  1  0  0  0  0  0  0
  184.1810  178.1280  138.0140 C   0  0  0  0  0  2  0  0  0  0  0  0
  1 19  2  0  0  0  0
  1 20  1  0  0  0  0
  2  7  1  0  0  0  0
  4 12  1  0  0  0  0
  5 18  2  0  0  0  0
  6  9  2  0  0  0  0
  7  5  1  0  0  0  0
  7  4  2  0  0  0  0
  9  4  1  0  0  0  0
 10 15  1  0  0  0  0
 10 14  1  0  0  0  0
 11 20  1  0  0  0  0
 11  5  1  0  0  0  0
 12  8  2  0  0  0  0
 13 15  2  0  0  0  0
 14  3  2  0  0  0  0
 16  6  1  0  0  0  0
 17  2  2  0  0  0  0
 17  6  1  0  0  0  0
 18 14  1  0  0  0  0
 18  8  1  0  0  0  0
 19 13  1  0  0  0  0
 20 10  2  0  0  0  0
 21  1  1  0  0  0  0
 22 21  1  0  0  0  0
 23 27  1  6  0  0  0
 23 28  1  0  0  0  0
 23 26  1  0  0  0  0
 24 22  1  0  0  0  0
 25 22  1  0  0  0  0
 26 25  1  0  0  0  0
 28 24  1  0  0  0  0
M  END
>  <MODEL>
4

>  <REMARK>
 VINA RESULT:      -9.8      3.124      6.144
  Name = 
  2 active torsions:
  status: ('A' for Active; 'I' for Inactive)
    1  A    between atoms: C_1  and  C_2
    2  A    between atoms: C_2  and  N_3
                            x       y       z     vdW  Elec       q    Type
                         _______ _______ _______ _____ _____    ______ ____

>  <TORSDO>
F 2

$$$$
=
 OpenBabel10272401563D

 28 32  0  0  1  0  0  0  0  0999 V2000
  189.1610  177.5510  139.2730 C   0  0  0  0  0  0  0  0  0  0  0  0
  185.8360  178.3890  142.9760 C   0  0  0  0  0  3  0  0  0  0  0  0
  191.5350  176.5200  143.2400 O   0  0  0  0  0  0  0  0  0  0  0  0
  187.1050  177.8430  144.9760 C   0  0  0  0  0  0  0  0  0  0  0  0
  188.1610  177.6410  142.7960 C   0  0  0  0  0  0  0  0  0  0  0  0
  184.8070  178.5820  145.1620 C   0  0  0  0  0  0  0  0  0  0  0  0
  187.0320  177.9580  143.5690 C   0  0  0  0  0  0  0  0  0  0  0  0
  189.3730  177.1160  144.8040 N   0  0  0  0  0  0  0  0  0  0  0  0
  185.9940  178.1540  145.7650 C   0  0  0  0  0  3  0  0  0  0  0  0
  190.4130  177.0130  141.2820 C   0  0  0  0  0  0  0  0  0  0  0  0
  188.1300  177.7390  141.4380 N   0  0  0  0  0  2  0  0  0  0  0  0
  188.2930  177.4170  145.5710 C   0  0  0  0  0  3  0  0  0  0  0  0
  191.4620  176.8300  139.1580 C   0  0  0  0  0  3  0  0  0  0  0  0
  190.4720  176.9000  142.6780 C   0  0  0  0  0  0  0  0  0  0  0  0
  191.4980  176.7210  140.5120 N   0  0  0  0  0  0  0  0  0  0  0  0
  183.7040  178.8910  145.9470 O   0  0  0  0  0  1  0  0  0  0  0  0
  184.7290  178.6990  143.7710 C   0  0  0  0  0  3  0  0  0  0  0  0
  189.3410  177.2160  143.4450 C   0  0  0  0  0  0  0  0  0  0  0  0
  190.2950  177.2500  138.5160 C   0  0  0  0  0  3  0  0  0  0  0  0
  189.2140  177.4400  140.6720 C   0  0  0  0  0  0  0  0  0  0  0  0
  187.9250  178.0190  138.5760 C   0  0  0  0  0  2  0  0  0  0  0  0
  187.8790  177.4760  137.2280 N   0  0  0  0  0  0  0  0  0  0  0  0
  185.5410  177.0950  135.4030 C   0  0  1  0  0  3  0  0  0  0  0  0
  187.0340  176.2670  137.2670 C   0  0  0  0  0  2  0  0  0  0  0  0
  187.3610  178.5420  136.3560 C   0  0  0  0  0  2  0  0  0  0  0  0
  186.7540  177.9700  135.0770 C   0  0  0  0  0  2  0  0  0  0  0  0
  185.4350  175.9790  134.3850 C   0  0  0  0  0  1  0  0  0  0  0  0
  185.5890  176.5160  136.8200 C   0  0  0  0  0  2  0  0  0  0  0  0
  1 20  1  0  0  0  0
  2  7  2  0  0  0  0
  2 17  1  0  0  0  0
  4 12  1  0  0  0  0
  4  9  2  0  0  0  0
  5 18  2  0  0  0  0
  5  7  1  0  0  0  0
  6  9  1  0  0  0  0
  6 16  1  0  0  0  0
  7  4  1  0  0  0  0
  8 12  2  0  0  0  0
 10 14  1  0  0  0  0
 11  5  1  0  0  0  0
 13 15  2  0  0  0  0
 14  3  2  0  0  0  0
 14 18  1  0  0  0  0
 15 10  1  0  0  0  0
 17  6  2  0  0  0  0
 18  8  1  0  0  0  0
 19 13  1  0  0  0  0
 19  1  2  0  0  0  0
 20 10  2  0  0  0  0
 20 11  1  0  0  0  0
 21  1  1  0  0  0  0
 22 24  1  0  0  0  0
 22 21  1  0  0  0  0
 23 27  1  6  0  0  0
 23 28  1  0  0  0  0
 25 22  1  0  0  0  0
 26 23  1  0  0  0  0
 26 25  1  0  0  0  0
 28 24  1  0  0  0  0
M  END
>  <MODEL>
5

>  <REMARK>
 VINA RESULT:      -9.8      2.703      4.407
  Name = 
  2 active torsions:
  status: ('A' for Active; 'I' for Inactive)
    1  A    between atoms: C_1  and  C_2
    2  A    between atoms: C_2  and  N_3
                            x       y       z     vdW  Elec       q    Type
                         _______ _______ _______ _____ _____    ______ ____

>  <TORSDO>
F 2

$$$$
=
 OpenBabel10272401563D

 28 32  0  0  1  0  0  0  0  0999 V2000
  189.9940  177.5090  139.4070 C   0  0  0  0  0  0  0  0  0  0  0  0
  191.2800  176.6770  144.2160 C   0  0  0  0  0  3  0  0  0  0  0  0
  186.1220  178.6700  141.8770 O   0  0  0  0  0  0  0  0  0  0  0  0
  189.2660  177.2900  145.4280 C   0  0  0  0  0  0  0  0  0  0  0  0
  189.3060  177.4700  143.0040 C   0  0  0  0  0  0  0  0  0  0  0  0
  191.2150  176.5070  146.6320 C   0  0  0  0  0  0  0  0  0  0  0  0
  189.9580  177.1450  144.2050 C   0  0  0  0  0  0  0  0  0  0  0  0
  187.3360  178.0610  144.2500 N   0  0  0  0  0  0  0  0  0  0  0  0
  189.8950  176.9710  146.6340 C   0  0  0  0  0  3  0  0  0  0  0  0
  187.9900  178.1130  140.6350 C   0  0  0  0  0  0  0  0  0  0  0  0
  189.9390  177.3440  141.8060 N   0  0  0  0  0  2  0  0  0  0  0  0
  187.9490  177.7520  145.4240 C   0  0  0  0  0  3  0  0  0  0  0  0
  188.0090  178.2750  138.2650 C   0  0  0  0  0  3  0  0  0  0  0  0
  187.3140  178.2560  141.8550 C   0  0  0  0  0  0  0  0  0  0  0  0
  187.3730  178.4130  139.4580 N   0  0  0  0  0  0  0  0  0  0  0  0
  191.8390  176.1910  147.8310 O   0  0  0  0  0  1  0  0  0  0  0  0
  191.9040  176.3600  145.4250 C   0  0  0  0  0  3  0  0  0  0  0  0
  187.9720  177.9320  143.0510 C   0  0  0  0  0  0  0  0  0  0  0  0
  189.3290  177.8190  138.2180 C   0  0  0  0  0  3  0  0  0  0  0  0
  189.3220  177.6500  140.6320 C   0  0  0  0  0  0  0  0  0  0  0  0
  191.3980  177.0020  139.3430 C   0  0  0  0  0  2  0  0  0  0  0  0
  191.6570  176.4200  138.0360 N   0  0  0  0  0  0  0  0  0  0  0  0
  193.3490  174.0680  137.2960 C   0  0  1  0  0  3  0  0  0  0  0  0
  193.1060  176.5370  137.7800 C   0  0  0  0  0  2  0  0  0  0  0  0
  191.1660  175.0340  138.0790 C   0  0  0  0  0  2  0  0  0  0  0  0
  191.8450  174.1680  137.0230 C   0  0  0  0  0  2  0  0  0  0  0  0
  194.0930  173.9400  135.9830 C   0  0  0  0  0  1  0  0  0  0  0  0
  193.8880  175.2570  138.0960 C   0  0  0  0  0  2  0  0  0  0  0  0
  1 20  1  0  0  0  0
  2 17  1  0  0  0  0
  4  9  2  0  0  0  0
  5 18  2  0  0  0  0
  5  7  1  0  0  0  0
  6  9  1  0  0  0  0
  6 16  1  0  0  0  0
  7  2  2  0  0  0  0
  7  4  1  0  0  0  0
  8 12  2  0  0  0  0
 10 14  1  0  0  0  0
 11  5  1  0  0  0  0
 12  4  1  0  0  0  0
 13 15  2  0  0  0  0
 14  3  2  0  0  0  0
 14 18  1  0  0  0  0
 15 10  1  0  0  0  0
 17  6  2  0  0  0  0
 18  8  1  0  0  0  0
 19 13  1  0  0  0  0
 19  1  2  0  0  0  0
 20 10  2  0  0  0  0
 20 11  1  0  0  0  0
 21  1  1  0  0  0  0
 22 25  1  0  0  0  0
 22 21  1  0  0  0  0
 23 27  1  6  0  0  0
 23 28  1  0  0  0  0
 24 22  1  0  0  0  0
 24 28  1  0  0  0  0
 26 23  1  0  0  0  0
 26 25  1  0  0  0  0
M  END
>  <MODEL>
6

>  <REMARK>
 VINA RESULT:      -9.7      2.615      5.959
  Name = 
  2 active torsions:
  status: ('A' for Active; 'I' for Inactive)
    1  A    between atoms: C_1  and  C_2
    2  A    between atoms: C_2  and  N_3
                            x       y       z     vdW  Elec       q    Type
                         _______ _______ _______ _____ _____    ______ ____

>  <TORSDO>
F 2

$$$$
=
 OpenBabel10272401563D

 28 32  0  0  1  0  0  0  0  0999 V2000
  185.1250  178.8040  144.3370 C   0  0  0  0  0  0  0  0  0  0  0  0
  188.2320  178.0170  140.4390 C   0  0  0  0  0  3  0  0  0  0  0  0
  188.9900  176.8790  146.2850 O   0  0  0  0  0  0  0  0  0  0  0  0
  190.1880  177.0360  141.4960 C   0  0  0  0  0  0  0  0  0  0  0  0
  188.2780  177.6650  142.8620 C   0  0  0  0  0  0  0  0  0  0  0  0
  190.1490  177.3810  139.1000 C   0  0  0  0  0  0  0  0  0  0  0  0
  188.8870  177.5790  141.5990 C   0  0  0  0  0  0  0  0  0  0  0  0
  190.2350  176.6880  143.8580 N   0  0  0  0  0  0  0  0  0  0  0  0
  190.8120  176.9400  140.2490 C   0  0  0  0  0  3  0  0  0  0  0  0
  187.0860  177.8200  145.3750 C   0  0  0  0  0  0  0  0  0  0  0  0
  187.0260  178.1820  143.0020 N   0  0  0  0  0  2  0  0  0  0  0  0
  190.8430  176.5960  142.6460 C   0  0  0  0  0  3  0  0  0  0  0  0
  185.2180  178.4130  146.7180 C   0  0  0  0  0  3  0  0  0  0  0  0
  188.3770  177.2860  145.2600 C   0  0  0  0  0  0  0  0  0  0  0  0
  186.4720  177.9040  146.5870 N   0  0  0  0  0  0  0  0  0  0  0  0
  190.7700  177.2850  137.8620 O   0  0  0  0  0  1  0  0  0  0  0  0
  188.8610  177.9180  139.1960 C   0  0  0  0  0  3  0  0  0  0  0  0
  188.9810  177.2050  143.9970 C   0  0  0  0  0  0  0  0  0  0  0  0
  184.5230  178.8690  145.5960 C   0  0  0  0  0  3  0  0  0  0  0  0
  186.4170  178.2710  144.2170 C   0  0  0  0  0  0  0  0  0  0  0  0
  184.3620  179.2760  143.1420 C   0  0  0  0  0  2  0  0  0  0  0  0
  183.5520  178.1920  142.6100 N   0  0  0  0  0  0  0  0  0  0  0  0
  181.5420  178.2220  140.3960 C   0  0  1  0  0  3  0  0  0  0  0  0
  182.1370  178.5480  142.8320 C   0  0  0  0  0  2  0  0  0  0  0  0
  183.9180  178.0410  141.1930 C   0  0  0  0  0  2  0  0  0  0  0  0
  182.8070  177.3600  140.3990 C   0  0  0  0  0  2  0  0  0  0  0  0
  180.3200  177.3280  140.3510 C   0  0  0  0  0  1  0  0  0  0  0  0
  181.4620  179.1640  141.6010 C   0  0  0  0  0  2  0  0  0  0  0  0
  1 19  1  0  0  0  0
  2  7  1  0  0  0  0
  4  7  2  0  0  0  0
  4 12  1  0  0  0  0
  5 11  1  0  0  0  0
  5 18  2  0  0  0  0
  6 17  1  0  0  0  0
  6  9  2  0  0  0  0
  7  5  1  0  0  0  0
  8 18  1  0  0  0  0
  9  4  1  0  0  0  0
 10 15  2  0  0  0  0
 11 20  1  0  0  0  0
 12  8  2  0  0  0  0
 14 10  1  0  0  0  0
 14  3  2  0  0  0  0
 15 13  1  0  0  0  0
 16  6  1  0  0  0  0
 17  2  2  0  0  0  0
 18 14  1  0  0  0  0
 19 13  2  0  0  0  0
 20  1  2  0  0  0  0
 20 10  1  0  0  0  0
 21  1  1  0  0  0  0
 22 24  1  0  0  0  0
 22 21  1  0  0  0  0
 23 27  1  1  0  0  0
 23 26  1  0  0  0  0
 23 28  1  0  0  0  0
 25 22  1  0  0  0  0
 26 25  1  0  0  0  0
 28 24  1  0  0  0  0
M  END
>  <MODEL>
7

>  <REMARK>
 VINA RESULT:      -9.7      2.791      6.299
  Name = 
  2 active torsions:
  status: ('A' for Active; 'I' for Inactive)
    1  A    between atoms: C_1  and  C_2
    2  A    between atoms: C_2  and  N_3
                            x       y       z     vdW  Elec       q    Type
                         _______ _______ _______ _____ _____    ______ ____

>  <TORSDO>
F 2

$$$$
=
 OpenBabel10272401563D

 28 32  0  0  1  0  0  0  0  0999 V2000
  186.9560  178.4260  140.3950 C   0  0  0  0  0  0  0  0  0  0  0  0
  187.2590  178.0080  145.4150 C   0  0  0  0  0  3  0  0  0  0  0  0
  191.4040  177.0050  141.1900 O   0  0  0  0  0  0  0  0  0  0  0  0
  189.5510  177.2770  145.7600 C   0  0  0  0  0  0  0  0  0  0  0  0
  188.7460  177.6690  143.5000 C   0  0  0  0  0  0  0  0  0  0  0  0
  188.0860  177.6100  147.6590 C   0  0  0  0  0  0  0  0  0  0  0  0
  188.5080  177.6540  144.8840 C   0  0  0  0  0  0  0  0  0  0  0  0
  191.0050  176.9490  143.8950 N   0  0  0  0  0  0  0  0  0  0  0  0
  189.3360  177.2560  147.1410 C   0  0  0  0  0  3  0  0  0  0  0  0
  189.2430  177.6990  140.7590 C   0  0  0  0  0  0  0  0  0  0  0  0
  187.7670  178.0270  142.6240 N   0  0  0  0  0  2  0  0  0  0  0  0
  190.7960  176.9270  145.2370 C   0  0  0  0  0  3  0  0  0  0  0  0
  188.4740  178.0970  138.5470 C   0  0  0  0  0  3  0  0  0  0  0  0
  190.2690  177.3240  141.6380 C   0  0  0  0  0  0  0  0  0  0  0  0
  189.4540  177.7310  139.4140 N   0  0  0  0  0  0  0  0  0  0  0  0
  187.8740  177.5890  149.0300 O   0  0  0  0  0  1  0  0  0  0  0  0
  187.0510  177.9850  146.7970 C   0  0  0  0  0  3  0  0  0  0  0  0
  190.0240  177.3080  143.0190 C   0  0  0  0  0  0  0  0  0  0  0  0
  187.2100  178.4540  139.0220 C   0  0  0  0  0  3  0  0  0  0  0  0
  187.9790  178.0510  141.2800 C   0  0  0  0  0  0  0  0  0  0  0  0
  185.6060  178.8290  140.8930 C   0  0  0  0  0  2  0  0  0  0  0  0
  184.5840  178.4260  139.9410 N   0  0  0  0  0  0  0  0  0  0  0  0
  181.6700  179.0940  139.8720 C   0  0  1  0  0  3  0  0  0  0  0  0
  183.5750  177.6420  140.6800 C   0  0  0  0  0  2  0  0  0  0  0  0
  184.0580  179.6570  139.3310 C   0  0  0  0  0  2  0  0  0  0  0  0
  182.6600  179.4430  138.7570 C   0  0  0  0  0  2  0  0  0  0  0  0
  180.6020  178.1680  139.3270 C   0  0  0  0  0  1  0  0  0  0  0  0
  182.3460  178.4610  141.0910 C   0  0  0  0  0  2  0  0  0  0  0  0
  1 21  1  0  0  0  0
  1 20  1  0  0  0  0
  2 17  1  0  0  0  0
  3 14  2  0  0  0  0
  4  9  2  0  0  0  0
  5  7  1  0  0  0  0
  6 16  1  0  0  0  0
  7  2  2  0  0  0  0
  7  4  1  0  0  0  0
  8 12  2  0  0  0  0
  9  6  1  0  0  0  0
 10 20  2  0  0  0  0
 10 14  1  0  0  0  0
 11  5  1  0  0  0  0
 12  4  1  0  0  0  0
 13 19  1  0  0  0  0
 13 15  2  0  0  0  0
 14 18  1  0  0  0  0
 15 10  1  0  0  0  0
 17  6  2  0  0  0  0
 18  5  2  0  0  0  0
 18  8  1  0  0  0  0
 19  1  2  0  0  0  0
 20 11  1  0  0  0  0
 22 24  1  0  0  0  0
 22 21  1  0  0  0  0
 23 27  1  6  0  0  0
 23 28  1  0  0  0  0
 24 28  1  0  0  0  0
 25 22  1  0  0  0  0
 26 25  1  0  0  0  0
 26 23  1  0  0  0  0
M  END
>  <MODEL>
8

>  <REMARK>
 VINA RESULT:      -9.7      2.800      6.015
  Name = 
  2 active torsions:
  status: ('A' for Active; 'I' for Inactive)
    1  A    between atoms: C_1  and  C_2
    2  A    between atoms: C_2  and  N_3
                            x       y       z     vdW  Elec       q    Type
                         _______ _______ _______ _____ _____    ______ ____

>  <TORSDO>
F 2

$$$$
=
 OpenBabel10272401563D

 28 32  0  0  1  0  0  0  0  0999 V2000
  189.4050  177.6660  140.7170 C   0  0  0  0  0  0  0  0  0  0  0  0
  184.8030  178.5260  142.6000 C   0  0  0  0  0  3  0  0  0  0  0  0
  190.0000  177.4720  145.4120 O   0  0  0  0  0  0  0  0  0  0  0  0
  185.1690  178.4110  144.9990 C   0  0  0  0  0  0  0  0  0  0  0  0
  187.0400  178.0730  143.4840 C   0  0  0  0  0  0  0  0  0  0  0  0
  182.9540  178.8600  144.1310 C   0  0  0  0  0  0  0  0  0  0  0  0
  185.6750  178.3350  143.6810 C   0  0  0  0  0  0  0  0  0  0  0  0
  187.3510  177.9730  145.8660 N   0  0  0  0  0  0  0  0  0  0  0  0
  183.8140  178.6730  145.2180 C   0  0  0  0  0  3  0  0  0  0  0  0
  189.7530  177.5580  143.1160 C   0  0  0  0  0  0  0  0  0  0  0  0
  187.5650  177.9920  142.2300 N   0  0  0  0  0  2  0  0  0  0  0  0
  186.0330  178.2260  146.0790 C   0  0  0  0  0  3  0  0  0  0  0  0
  191.5930  177.2450  141.6460 C   0  0  0  0  0  3  0  0  0  0  0  0
  189.2400  177.6340  144.4190 C   0  0  0  0  0  0  0  0  0  0  0  0
  191.0760  177.3150  142.9010 N   0  0  0  0  0  0  0  0  0  0  0  0
  181.6080  179.1190  144.3510 O   0  0  0  0  0  1  0  0  0  0  0  0
  183.4480  178.7870  142.8250 C   0  0  0  0  0  3  0  0  0  0  0  0
  187.8750  177.8930  144.6100 C   0  0  0  0  0  0  0  0  0  0  0  0
  190.7680  177.4210  140.5330 C   0  0  0  0  0  3  0  0  0  0  0  0
  188.8860  177.7420  142.0190 C   0  0  0  0  0  0  0  0  0  0  0  0
  188.5360  177.8730  139.5190 C   0  0  0  0  0  2  0  0  0  0  0  0
  189.2010  177.3670  138.3290 N   0  0  0  0  0  0  0  0  0  0  0  0
  188.1560  177.0600  135.5440 C   0  0  1  0  0  3  0  0  0  0  0  0
  188.4640  176.1660  137.8890 C   0  0  0  0  0  2  0  0  0  0  0  0
  189.2090  178.4600  137.3450 C   0  0  0  0  0  2  0  0  0  0  0  0
  189.3580  177.9290  135.9220 C   0  0  0  0  0  2  0  0  0  0  0  0
  188.6000  175.9710  134.5890 C   0  0  0  0  0  1  0  0  0  0  0  0
  187.4620  176.4430  136.7620 C   0  0  0  0  0  2  0  0  0  0  0  0
  1 20  1  0  0  0  0
  2 17  2  0  0  0  0
  2  7  1  0  0  0  0
  4  9  1  0  0  0  0
  4 12  1  0  0  0  0
  5  7  1  0  0  0  0
  5 18  2  0  0  0  0
  6 16  1  0  0  0  0
  6  9  2  0  0  0  0
  7  4  2  0  0  0  0
  8 12  2  0  0  0  0
 10 14  1  0  0  0  0
 11  5  1  0  0  0  0
 13 15  2  0  0  0  0
 14 18  1  0  0  0  0
 14  3  2  0  0  0  0
 15 10  1  0  0  0  0
 17  6  1  0  0  0  0
 18  8  1  0  0  0  0
 19  1  2  0  0  0  0
 19 13  1  0  0  0  0
 20 11  1  0  0  0  0
 20 10  2  0  0  0  0
 21  1  1  0  0  0  0
 22 21  1  0  0  0  0
 23 27  1  6  0  0  0
 23 26  1  0  0  0  0
 23 28  1  0  0  0  0
 24 22  1  0  0  0  0
 25 22  1  0  0  0  0
 26 25  1  0  0  0  0
 28 24  1  0  0  0  0
M  END
>  <MODEL>
9

>  <REMARK>
 VINA RESULT:      -9.6      1.896      2.941
  Name = 
  2 active torsions:
  status: ('A' for Active; 'I' for Inactive)
    1  A    between atoms: C_1  and  C_2
    2  A    between atoms: C_2  and  N_3
                            x       y       z     vdW  Elec       q    Type
                         _______ _______ _______ _____ _____    ______ ____

>  <TORSDO>
F 2

$$$$
