=
 OpenBabel10272414523D

 37 43  0  0  1  0  0  0  0  0999 V2000
  186.4630  177.7510  146.1070 C   0  0  0  0  0  2  0  0  0  0  0  0
  184.5940  178.0770  141.9410 C   0  0  1  0  0  3  0  0  0  0  0  0
  186.4660  177.0150  139.0920 O   0  0  0  0  0  0  0  0  0  0  0  0
  184.6710  178.5690  144.5230 C   0  0  2  0  0  3  0  0  0  0  0  0
  185.7310  178.4410  141.0070 C   0  0  2  0  0  3  0  0  0  0  0  0
  185.3030  177.8640  143.3020 C   0  0  2  0  0  3  0  0  0  0  0  0
  185.5990  178.0400  139.5340 C   0  0  1  0  0  0  0  0  0  0  0  0
  183.8730  179.7820  144.0860 C   0  0  0  0  0  2  0  0  0  0  0  0
  186.7950  178.1250  143.0910 C   0  0  1  0  0  3  0  0  0  0  0  0
  188.6520  176.8180  146.0390 O   0  0  0  0  0  1  0  0  0  0  0  0
  182.3280  178.9500  140.6400 S   0  0  0  0  0  0  0  0  0  0  0  0
  182.9140  179.3620  143.1590 O   0  0  0  0  0  0  0  0  0  0  0  0
  187.6030  177.1470  143.9300 C   0  0  0  0  0  2  0  0  0  0  0  0
  186.8020  178.3320  138.7010 C   0  0  1  0  0  3  0  0  0  0  0  0
  183.5820  179.2400  141.9290 C   0  0  1  0  0  3  0  0  0  0  0  0
  186.9710  177.8510  141.6200 C   0  0  2  0  0  3  0  0  0  0  0  0
  185.6530  178.9500  145.6310 C   0  0  0  0  0  2  0  0  0  0  0  0
  184.2870  178.1590  138.7590 C   0  0  2  0  0  3  0  0  0  0  0  0
  187.7860  177.6670  145.3510 C   0  0  1  0  0  3  0  0  0  0  0  0
  188.0080  178.8880  139.5060 C   0  0  1  0  0  3  0  0  0  0  0  0
  188.2390  178.4210  140.9830 C   0  0  2  0  0  3  0  0  0  0  0  0
  183.4130  179.3360  139.2210 C   0  0  0  0  0  2  0  0  0  0  0  0
  183.2910  176.5250  137.1060 C   0  0  0  0  0  3  0  0  0  0  0  0
  183.5760  176.8140  138.5570 C   0  0  2  0  0  3  0  0  0  0  0  0
  182.4120  176.6880  139.3840 O   0  0  0  0  0  0  0  0  0  0  0  0
  180.2790  175.5550  140.0230 C   0  0  0  0  0  1  0  0  0  0  0  0
  181.1810  175.4870  137.7550 C   0  0  0  0  0  3  0  0  0  0  0  0
  181.3150  175.9000  139.0150 C   0  0  0  0  0  0  0  0  0  0  0  0
  182.1850  175.8710  136.7500 C   0  0  0  0  0  3  0  0  0  0  0  0
  189.6520  177.8110  138.3280 O   0  0  0  0  0  1  0  0  0  0  0  0
  189.2050  179.0440  138.6700 N   0  0  0  0  0  0  0  0  0  0  0  0
  188.8630  179.6870  137.5260 O   0  0  0  0  0  0  0  0  0  0  0  0
  189.1600  178.7830  136.5040 C   0  0  0  0  0  1  0  0  0  0  0  0
  189.2960  177.4240  141.0730 N   0  0  0  0  0  2  0  0  0  0  0  0
  190.2990  177.9670  141.8870 N   0  0  0  0  0  2  0  0  0  0  0  0
  191.0640  176.8520  142.4190 C   0  0  0  0  0  2  0  0  0  0  0  0
  191.4050  177.1070  143.8740 C   0  0  0  0  0  1  0  0  0  0  0  0
  2  6  1  0  0  0  0
  3  7  1  0  0  0  0
  4 17  1  0  0  0  0
  5 16  1  0  0  0  0
  5  2  1  0  0  0  0
  6  4  1  0  0  0  0
  7  5  1  0  0  0  0
  8  4  1  0  0  0  0
  9  6  1  0  0  0  0
  9 13  1  0  0  0  0
 11 15  1  0  0  0  0
 12  8  1  0  0  0  0
 13 19  1  0  0  0  0
 14  3  1  0  0  0  0
 14 20  1  0  0  0  0
 14  7  1  0  0  0  0
 15  2  1  0  0  0  0
 15 12  1  0  0  0  0
 16  9  1  0  0  0  0
 17  1  1  0  0  0  0
 18 22  1  0  0  0  0
 18  7  1  0  0  0  0
 19 10  1  0  0  0  0
 19  1  1  0  0  0  0
 20 21  1  0  0  0  0
 21 34  1  0  0  0  0
 21 16  1  0  0  0  0
 22 11  1  0  0  0  0
 23 24  1  0  0  0  0
 24 18  1  0  0  0  0
 24 25  1  0  0  0  0
 27 28  2  0  0  0  0
 28 25  1  0  0  0  0
 28 26  1  0  0  0  0
 29 23  2  0  0  0  0
 29 27  1  0  0  0  0
 30 31  1  0  0  0  0
 31 20  1  0  0  0  0
 32 31  1  0  0  0  0
 33 32  1  0  0  0  0
 34 35  1  0  0  0  0
 35 36  1  0  0  0  0
 36 37  1  0  0  0  0
M  END
>  <MODEL>
1

>  <REMARK>
 VINA RESULT:      -6.6      0.000      0.000
  Name = 
  6 active torsions:
  status: ('A' for Active; 'I' for Inactive)
    1  A    between atoms: N_1  and  N_23
    2  A    between atoms: N_1  and  C_36
    3  A    between atoms: C_5  and  N_23
    4  A    between atoms: C_6  and  C_31
    5  A    between atoms: O_11  and  N_26
    6  A    between atoms: N_26  and  C_33
                            x       y       z     vdW  Elec       q    Type
                         _______ _______ _______ _____ _____    ______ ____

>  <TORSDO>
F 6

$$$$
=
 OpenBabel10272414523D

 37 43  0  0  1  0  0  0  0  0999 V2000
  185.6400  174.3140  134.5840 C   0  0  0  0  0  2  0  0  0  0  0  0
  182.5850  176.5270  137.1770 C   0  0  1  0  0  3  0  0  0  0  0  0
  183.4480  179.6920  138.5860 O   0  0  0  0  0  0  0  0  0  0  0  0
  183.4740  174.4180  135.8820 C   0  0  2  0  0  3  0  0  0  0  0  0
  183.3890  177.2160  138.2620 C   0  0  2  0  0  3  0  0  0  0  0  0
  183.6730  175.9000  136.2690 C   0  0  2  0  0  3  0  0  0  0  0  0
  182.7940  178.4780  138.8950 C   0  0  1  0  0  0  0  0  0  0  0  0
  182.6190  173.7060  136.9120 C   0  0  0  0  0  2  0  0  0  0  0  0
  185.0340  176.2440  136.8760 C   0  0  1  0  0  3  0  0  0  0  0  0
  187.6690  175.5360  134.3460 O   0  0  0  0  0  1  0  0  0  0  0  0
  180.0570  176.2790  138.2430 S   0  0  0  0  0  0  0  0  0  0  0  0
  181.4070  174.3950  137.0240 O   0  0  0  0  0  0  0  0  0  0  0  0
  186.0300  176.5200  135.7600 C   0  0  0  0  0  2  0  0  0  0  0  0
  183.6880  179.1610  139.8750 C   0  0  1  0  0  3  0  0  0  0  0  0
  181.6570  175.5000  137.8550 C   0  0  1  0  0  3  0  0  0  0  0  0
  184.7370  177.4960  137.6590 C   0  0  2  0  0  3  0  0  0  0  0  0
  184.7620  173.6350  135.6270 C   0  0  0  0  0  2  0  0  0  0  0  0
  181.3110  178.6100  139.2420 C   0  0  2  0  0  3  0  0  0  0  0  0
  186.6610  175.2270  135.2570 C   0  0  1  0  0  3  0  0  0  0  0  0
  185.1020  178.5280  139.9890 C   0  0  1  0  0  3  0  0  0  0  0  0
  185.7640  177.8720  138.7290 C   0  0  2  0  0  3  0  0  0  0  0  0
  180.6610  177.2780  139.6500 C   0  0  0  0  0  2  0  0  0  0  0  0
  180.8930  179.1840  136.8150 C   0  0  0  0  0  3  0  0  0  0  0  0
  180.5290  179.4780  138.2470 C   0  0  2  0  0  3  0  0  0  0  0  0
  180.6130  180.8730  138.5630 O   0  0  0  0  0  0  0  0  0  0  0  0
  180.3030  183.2840  137.9840 C   0  0  0  0  0  1  0  0  0  0  0  0
  180.6490  181.5550  136.2950 C   0  0  0  0  0  3  0  0  0  0  0  0
  180.5170  181.8690  137.5830 C   0  0  0  0  0  0  0  0  0  0  0  0
  180.9090  180.1600  135.9060 C   0  0  0  0  0  3  0  0  0  0  0  0
  185.2350  179.8530  141.8530 O   0  0  0  0  0  1  0  0  0  0  0  0
  185.9860  179.3030  140.8680 N   0  0  0  0  0  0  0  0  0  0  0  0
  186.8750  178.4610  141.4520 O   0  0  0  0  0  0  0  0  0  0  0  0
  186.2960  178.1230  142.6760 C   0  0  0  0  0  1  0  0  0  0  0  0
  186.7630  178.7450  138.1310 N   0  0  0  0  0  2  0  0  0  0  0  0
  187.9420  177.9940  138.0140 N   0  0  0  0  0  2  0  0  0  0  0  0
  188.9720  178.7030  138.7530 C   0  0  0  0  0  2  0  0  0  0  0  0
  189.7840  177.7230  139.5760 C   0  0  0  0  0  1  0  0  0  0  0  0
  1 19  1  0  0  0  0
  1 17  1  0  0  0  0
  2 15  1  0  0  0  0
  2  5  1  0  0  0  0
  3  7  1  0  0  0  0
  3 14  1  0  0  0  0
  4  6  1  0  0  0  0
  4  8  1  0  0  0  0
  5  7  1  0  0  0  0
  6  9  1  0  0  0  0
  6  2  1  0  0  0  0
  7 18  1  0  0  0  0
  7 14  1  0  0  0  0
  8 12  1  0  0  0  0
  9 16  1  0  0  0  0
 10 19  1  0  0  0  0
 11 22  1  0  0  0  0
 12 15  1  0  0  0  0
 13  9  1  0  0  0  0
 14 20  1  0  0  0  0
 15 11  1  0  0  0  0
 16  5  1  0  0  0  0
 16 21  1  0  0  0  0
 17  4  1  0  0  0  0
 18 22  1  0  0  0  0
 19 13  1  0  0  0  0
 20 31  1  0  0  0  0
 21 20  1  0  0  0  0
 23 24  1  0  0  0  0
 24 25  1  0  0  0  0
 24 18  1  0  0  0  0
 27 28  2  0  0  0  0
 28 26  1  0  0  0  0
 28 25  1  0  0  0  0
 29 27  1  0  0  0  0
 29 23  2  0  0  0  0
 31 32  1  0  0  0  0
 31 30  1  0  0  0  0
 32 33  1  0  0  0  0
 34 21  1  0  0  0  0
 35 34  1  0  0  0  0
 35 36  1  0  0  0  0
 36 37  1  0  0  0  0
M  END
>  <MODEL>
2

>  <REMARK>
 VINA RESULT:      -6.6      2.942      6.470
  Name = 
  6 active torsions:
  status: ('A' for Active; 'I' for Inactive)
    1  A    between atoms: N_1  and  N_23
    2  A    between atoms: N_1  and  C_36
    3  A    between atoms: C_5  and  N_23
    4  A    between atoms: C_6  and  C_31
    5  A    between atoms: O_11  and  N_26
    6  A    between atoms: N_26  and  C_33
                            x       y       z     vdW  Elec       q    Type
                         _______ _______ _______ _____ _____    ______ ____

>  <TORSDO>
F 6

$$$$
=
 OpenBabel10272414523D

 37 43  0  0  1  0  0  0  0  0999 V2000
  180.0450  179.3930  141.0570 C   0  0  0  0  0  2  0  0  0  0  0  0
  182.0010  177.5810  137.3350 C   0  0  1  0  0  3  0  0  0  0  0  0
  185.2710  176.1710  137.5830 O   0  0  0  0  0  0  0  0  0  0  0  0
  180.1480  178.9850  138.5640 C   0  0  2  0  0  3  0  0  0  0  0  0
  183.4770  177.9040  137.4480 C   0  0  2  0  0  3  0  0  0  0  0  0
  181.4160  178.1090  138.6690 C   0  0  2  0  0  3  0  0  0  0  0  0
  184.4650  176.9700  136.7410 C   0  0  1  0  0  0  0  0  0  0  0  0
  180.0660  179.6480  137.2030 C   0  0  0  0  0  2  0  0  0  0  0  0
  182.5690  178.7140  139.4700 C   0  0  1  0  0  3  0  0  0  0  0  0
  181.4370  179.2130  142.9800 O   0  0  0  0  0  1  0  0  0  0  0  0
  181.5850  177.1810  134.6410 S   0  0  0  0  0  0  0  0  0  0  0  0
  180.1040  178.6460  136.2270 O   0  0  0  0  0  0  0  0  0  0  0  0
  182.3740  178.4090  140.9470 C   0  0  0  0  0  2  0  0  0  0  0  0
  185.9030  177.2870  136.9880 C   0  0  1  0  0  3  0  0  0  0  0  0
  181.4550  178.2910  136.0800 C   0  0  1  0  0  3  0  0  0  0  0  0
  183.7680  177.9870  138.9200 C   0  0  2  0  0  3  0  0  0  0  0  0
  179.9840  180.0250  139.6720 C   0  0  0  0  0  2  0  0  0  0  0  0
  184.2080  176.3910  135.3510 C   0  0  2  0  0  3  0  0  0  0  0  0
  181.4680  179.4430  141.6050 C   0  0  1  0  0  3  0  0  0  0  0  0
  186.1310  178.4390  138.0050 C   0  0  1  0  0  3  0  0  0  0  0  0
  185.1250  178.6410  139.1890 C   0  0  2  0  0  3  0  0  0  0  0  0
  183.3960  177.3300  134.4420 C   0  0  0  0  0  2  0  0  0  0  0  0
  182.9360  174.5840  136.5800 C   0  0  0  0  0  3  0  0  0  0  0  0
  183.7760  174.9190  135.3750 C   0  0  2  0  0  3  0  0  0  0  0  0
  184.8850  174.0270  135.2110 O   0  0  0  0  0  0  0  0  0  0  0  0
  185.9110  171.7500  135.3000 C   0  0  0  0  0  1  0  0  0  0  0  0
  184.0040  172.3940  136.6840 C   0  0  0  0  0  3  0  0  0  0  0  0
  184.8910  172.7340  135.7480 C   0  0  0  0  0  0  0  0  0  0  0  0
  183.0280  173.3870  137.1590 C   0  0  0  0  0  3  0  0  0  0  0  0
  188.1600  177.4210  138.3150 O   0  0  0  0  0  1  0  0  0  0  0  0
  187.5540  178.6330  138.3100 N   0  0  0  0  0  0  0  0  0  0  0  0
  188.1200  179.3690  137.3210 O   0  0  0  0  0  0  0  0  0  0  0  0
  189.0340  178.5080  136.7120 C   0  0  0  0  0  1  0  0  0  0  0  0
  185.6550  178.1180  140.4400 N   0  0  0  0  0  2  0  0  0  0  0  0
  185.7130  179.1940  141.3370 N   0  0  0  0  0  2  0  0  0  0  0  0
  185.9530  178.6330  142.6560 C   0  0  0  0  0  2  0  0  0  0  0  0
  184.7770  178.9300  143.5640 C   0  0  0  0  0  1  0  0  0  0  0  0
  1 19  1  0  0  0  0
  2  5  1  0  0  0  0
  2  6  1  0  0  0  0
  4  6  1  0  0  0  0
  4 17  1  0  0  0  0
  5 16  1  0  0  0  0
  6  9  1  0  0  0  0
  7 14  1  0  0  0  0
  7  5  1  0  0  0  0
  7  3  1  0  0  0  0
  8  4  1  0  0  0  0
  9 13  1  0  0  0  0
 11 15  1  0  0  0  0
 12  8  1  0  0  0  0
 13 19  1  0  0  0  0
 14  3  1  0  0  0  0
 14 20  1  0  0  0  0
 15 12  1  0  0  0  0
 15  2  1  0  0  0  0
 16 21  1  0  0  0  0
 16  9  1  0  0  0  0
 17  1  1  0  0  0  0
 18 24  1  0  0  0  0
 18  7  1  0  0  0  0
 19 10  1  0  0  0  0
 20 31  1  0  0  0  0
 20 21  1  0  0  0  0
 21 34  1  0  0  0  0
 22 11  1  0  0  0  0
 22 18  1  0  0  0  0
 23 29  2  0  0  0  0
 24 23  1  0  0  0  0
 25 24  1  0  0  0  0
 25 28  1  0  0  0  0
 26 28  1  0  0  0  0
 27 29  1  0  0  0  0
 28 27  2  0  0  0  0
 31 30  1  0  0  0  0
 32 31  1  0  0  0  0
 33 32  1  0  0  0  0
 34 35  1  0  0  0  0
 35 36  1  0  0  0  0
 36 37  1  0  0  0  0
M  END
>  <MODEL>
3

>  <REMARK>
 VINA RESULT:      -6.2      2.907      5.357
  Name = 
  6 active torsions:
  status: ('A' for Active; 'I' for Inactive)
    1  A    between atoms: N_1  and  N_23
    2  A    between atoms: N_1  and  C_36
    3  A    between atoms: C_5  and  N_23
    4  A    between atoms: C_6  and  C_31
    5  A    between atoms: O_11  and  N_26
    6  A    between atoms: N_26  and  C_33
                            x       y       z     vdW  Elec       q    Type
                         _______ _______ _______ _____ _____    ______ ____

>  <TORSDO>
F 6

$$$$
=
 OpenBabel10272414523D

 37 43  0  0  1  0  0  0  0  0999 V2000
  187.6820  176.6610  136.3850 C   0  0  0  0  0  2  0  0  0  0  0  0
  183.2290  177.1920  137.3090 C   0  0  1  0  0  3  0  0  0  0  0  0
  182.2070  179.7200  139.6130 O   0  0  0  0  0  0  0  0  0  0  0  0
  185.2750  175.8970  136.2810 C   0  0  2  0  0  3  0  0  0  0  0  0
  183.1560  177.5660  138.7760 C   0  0  2  0  0  3  0  0  0  0  0  0
  184.7530  177.1440  137.0280 C   0  0  2  0  0  3  0  0  0  0  0  0
  181.9450  178.3820  139.2420 C   0  0  1  0  0  0  0  0  0  0  0  0
  184.3460  174.7170  136.4950 C   0  0  0  0  0  2  0  0  0  0  0  0
  185.4730  177.4780  138.3350 C   0  0  1  0  0  3  0  0  0  0  0  0
  189.0360  178.2250  137.5620 O   0  0  0  0  0  1  0  0  0  0  0  0
  180.7530  176.1260  136.7440 S   0  0  0  0  0  0  0  0  0  0  0  0
  183.0640  175.0910  136.0780 O   0  0  0  0  0  0  0  0  0  0  0  0
  186.7060  178.3160  138.0320 C   0  0  0  0  0  2  0  0  0  0  0  0
  181.9970  178.8060  140.6720 C   0  0  1  0  0  3  0  0  0  0  0  0
  182.5100  175.8400  137.1290 C   0  0  1  0  0  3  0  0  0  0  0  0
  184.4420  178.2830  139.0820 C   0  0  2  0  0  3  0  0  0  0  0  0
  186.7160  175.5030  136.6040 C   0  0  0  0  0  2  0  0  0  0  0  0
  180.5250  178.1120  138.7460 C   0  0  2  0  0  3  0  0  0  0  0  0
  187.8980  177.4300  137.6850 C   0  0  1  0  0  3  0  0  0  0  0  0
  183.3210  178.4370  141.3940 C   0  0  1  0  0  3  0  0  0  0  0  0
  184.6660  178.4160  140.5890 C   0  0  2  0  0  3  0  0  0  0  0  0
  180.2620  176.6300  138.4310 C   0  0  0  0  0  2  0  0  0  0  0  0
  180.7450  178.9800  136.3810 C   0  0  0  0  0  3  0  0  0  0  0  0
  180.0410  179.1300  137.7050 C   0  0  2  0  0  3  0  0  0  0  0  0
  180.0810  180.4740  138.2020 O   0  0  0  0  0  0  0  0  0  0  0  0
  179.9900  182.9480  137.8670 C   0  0  0  0  0  1  0  0  0  0  0  0
  180.7030  181.4040  136.1140 C   0  0  0  0  0  3  0  0  0  0  0  0
  180.2600  181.5780  137.3600 C   0  0  0  0  0  0  0  0  0  0  0  0
  181.0150  180.0500  135.6320 C   0  0  0  0  0  3  0  0  0  0  0  0
  182.1100  179.1410  143.2070 O   0  0  0  0  0  1  0  0  0  0  0  0
  183.3780  178.9810  142.7560 N   0  0  0  0  0  0  0  0  0  0  0  0
  183.9890  178.0790  143.5650 O   0  0  0  0  0  0  0  0  0  0  0  0
  184.2290  178.7690  144.7550 C   0  0  0  0  0  1  0  0  0  0  0  0
  185.4600  179.6100  140.8390 N   0  0  0  0  0  2  0  0  0  0  0  0
  186.2640  179.3370  141.9560 N   0  0  0  0  0  2  0  0  0  0  0  0
  187.1910  178.2900  141.5640 C   0  0  0  0  0  2  0  0  0  0  0  0
  187.4680  177.3790  142.7440 C   0  0  0  0  0  1  0  0  0  0  0  0
  1 17  1  0  0  0  0
  1 19  1  0  0  0  0
  2  5  1  0  0  0  0
  3 14  1  0  0  0  0
  4  8  1  0  0  0  0
  4 17  1  0  0  0  0
  4  6  1  0  0  0  0
  5 16  1  0  0  0  0
  5  7  1  0  0  0  0
  6  2  1  0  0  0  0
  6  9  1  0  0  0  0
  7  3  1  0  0  0  0
  7 14  1  0  0  0  0
  9 16  1  0  0  0  0
 10 19  1  0  0  0  0
 11 15  1  0  0  0  0
 11 22  1  0  0  0  0
 12  8  1  0  0  0  0
 12 15  1  0  0  0  0
 13  9  1  0  0  0  0
 14 20  1  0  0  0  0
 15  2  1  0  0  0  0
 16 21  1  0  0  0  0
 18  7  1  0  0  0  0
 19 13  1  0  0  0  0
 20 31  1  0  0  0  0
 21 34  1  0  0  0  0
 21 20  1  0  0  0  0
 22 18  1  0  0  0  0
 23 24  1  0  0  0  0
 24 25  1  0  0  0  0
 24 18  1  0  0  0  0
 27 28  2  0  0  0  0
 28 26  1  0  0  0  0
 28 25  1  0  0  0  0
 29 27  1  0  0  0  0
 29 23  2  0  0  0  0
 31 30  1  0  0  0  0
 31 32  1  0  0  0  0
 32 33  1  0  0  0  0
 34 35  1  0  0  0  0
 36 35  1  0  0  0  0
 36 37  1  0  0  0  0
M  END
>  <MODEL>
4

>  <REMARK>
 VINA RESULT:      -6.0      2.922      6.300
  Name = 
  6 active torsions:
  status: ('A' for Active; 'I' for Inactive)
    1  A    between atoms: N_1  and  N_23
    2  A    between atoms: N_1  and  C_36
    3  A    between atoms: C_5  and  N_23
    4  A    between atoms: C_6  and  C_31
    5  A    between atoms: O_11  and  N_26
    6  A    between atoms: N_26  and  C_33
                            x       y       z     vdW  Elec       q    Type
                         _______ _______ _______ _____ _____    ______ ____

>  <TORSDO>
F 6

$$$$
=
 OpenBabel10272414523D

 37 43  0  0  1  0  0  0  0  0999 V2000
  182.3690  178.9160  144.0470 C   0  0  0  0  0  2  0  0  0  0  0  0
  182.1190  177.7210  139.6350 C   0  0  1  0  0  3  0  0  0  0  0  0
  185.0030  176.3720  138.0190 O   0  0  0  0  0  0  0  0  0  0  0  0
  181.1980  178.8810  141.8080 C   0  0  2  0  0  3  0  0  0  0  0  0
  183.4710  178.0610  139.0400 C   0  0  2  0  0  3  0  0  0  0  0  0
  182.3040  178.0320  141.1420 C   0  0  2  0  0  3  0  0  0  0  0  0
  183.9280  177.2660  137.8120 C   0  0  1  0  0  0  0  0  0  0  0  0
  180.4860  179.7350  140.7770 C   0  0  0  0  0  2  0  0  0  0  0  0
  183.7320  178.5420  141.3360 C   0  0  1  0  0  3  0  0  0  0  0  0
  184.5210  178.4910  144.9730 O   0  0  0  0  0  1  0  0  0  0  0  0
  180.4000  177.7110  137.4830 S   0  0  0  0  0  0  0  0  0  0  0  0
  179.9820  178.8890  139.7830 O   0  0  0  0  0  0  0  0  0  0  0  0
  184.2810  178.0170  142.6540 C   0  0  0  0  0  2  0  0  0  0  0  0
  185.3120  177.5800  137.3500 C   0  0  1  0  0  3  0  0  0  0  0  0
  181.0600  178.5930  138.9330 C   0  0  1  0  0  3  0  0  0  0  0  0
  184.4600  177.9340  140.1660 C   0  0  2  0  0  3  0  0  0  0  0  0
  181.6610  179.7440  142.9820 C   0  0  0  0  0  2  0  0  0  0  0  0
  182.9840  176.8920  136.6700 C   0  0  2  0  0  3  0  0  0  0  0  0
  183.8770  178.9210  143.8140 C   0  0  1  0  0  3  0  0  0  0  0  0
  186.0740  178.5740  138.2670 C   0  0  1  0  0  3  0  0  0  0  0  0
  185.8020  178.5750  139.8100 C   0  0  2  0  0  3  0  0  0  0  0  0
  181.8780  177.9330  136.4300 C   0  0  0  0  0  2  0  0  0  0  0  0
  182.0220  174.9480  135.3690 C   0  0  0  0  0  3  0  0  0  0  0  0
  182.5460  175.4210  136.7010 C   0  0  2  0  0  3  0  0  0  0  0  0
  181.6420  175.1470  137.7780 O   0  0  0  0  0  0  0  0  0  0  0  0
  179.9860  173.6840  138.9440 C   0  0  0  0  0  1  0  0  0  0  0  0
  180.3710  173.5830  136.5350 C   0  0  0  0  0  3  0  0  0  0  0  0
  180.6830  174.1300  137.7100 C   0  0  0  0  0  0  0  0  0  0  0  0
  181.0290  174.0610  135.3090 C   0  0  0  0  0  3  0  0  0  0  0  0
  188.0720  177.5430  137.8200 O   0  0  0  0  0  1  0  0  0  0  0  0
  187.4690  178.7570  137.8450 N   0  0  0  0  0  0  0  0  0  0  0  0
  187.4860  179.2480  136.5810 O   0  0  0  0  0  0  0  0  0  0  0  0
  188.5020  178.5430  135.9360 C   0  0  0  0  0  1  0  0  0  0  0  0
  186.8560  177.8880  140.5420 N   0  0  0  0  0  2  0  0  0  0  0  0
  187.5460  178.8650  141.2740 N   0  0  0  0  0  2  0  0  0  0  0  0
  188.5790  178.1780  142.0290 C   0  0  0  0  0  2  0  0  0  0  0  0
  187.9590  177.0760  142.8660 C   0  0  0  0  0  1  0  0  0  0  0  0
  2  6  1  0  0  0  0
  4 17  1  0  0  0  0
  5  2  1  0  0  0  0
  5 16  1  0  0  0  0
  6  9  1  0  0  0  0
  6  4  1  0  0  0  0
  7  3  1  0  0  0  0
  7  5  1  0  0  0  0
  8  4  1  0  0  0  0
  9 13  1  0  0  0  0
 11 15  1  0  0  0  0
 12  8  1  0  0  0  0
 13 19  1  0  0  0  0
 14  7  1  0  0  0  0
 14  3  1  0  0  0  0
 14 20  1  0  0  0  0
 15  2  1  0  0  0  0
 15 12  1  0  0  0  0
 16  9  1  0  0  0  0
 17  1  1  0  0  0  0
 18 24  1  0  0  0  0
 18  7  1  0  0  0  0
 19  1  1  0  0  0  0
 19 10  1  0  0  0  0
 20 21  1  0  0  0  0
 21 16  1  0  0  0  0
 21 34  1  0  0  0  0
 22 18  1  0  0  0  0
 22 11  1  0  0  0  0
 23 24  1  0  0  0  0
 24 25  1  0  0  0  0
 27 28  2  0  0  0  0
 28 25  1  0  0  0  0
 28 26  1  0  0  0  0
 29 23  2  0  0  0  0
 29 27  1  0  0  0  0
 30 31  1  0  0  0  0
 31 20  1  0  0  0  0
 32 31  1  0  0  0  0
 33 32  1  0  0  0  0
 34 35  1  0  0  0  0
 35 36  1  0  0  0  0
 36 37  1  0  0  0  0
M  END
>  <MODEL>
5

>  <REMARK>
 VINA RESULT:      -5.8      2.074      3.219
  Name = 
  6 active torsions:
  status: ('A' for Active; 'I' for Inactive)
    1  A    between atoms: N_1  and  N_23
    2  A    between atoms: N_1  and  C_36
    3  A    between atoms: C_5  and  N_23
    4  A    between atoms: C_6  and  C_31
    5  A    between atoms: O_11  and  N_26
    6  A    between atoms: N_26  and  C_33
                            x       y       z     vdW  Elec       q    Type
                         _______ _______ _______ _____ _____    ______ ____

>  <TORSDO>
F 6

$$$$
=
 OpenBabel10272414523D

 37 43  0  0  1  0  0  0  0  0999 V2000
  182.0220  178.7790  141.7850 C   0  0  0  0  0  2  0  0  0  0  0  0
  183.0410  177.1670  137.6230 C   0  0  1  0  0  3  0  0  0  0  0  0
  186.3460  175.9890  136.9600 O   0  0  0  0  0  0  0  0  0  0  0  0
  181.4910  178.4170  139.3400 C   0  0  2  0  0  3  0  0  0  0  0  0
  184.4710  177.5920  137.3560 C   0  0  2  0  0  3  0  0  0  0  0  0
  182.7960  177.6320  139.0810 C   0  0  2  0  0  3  0  0  0  0  0  0
  185.2970  176.7420  136.3850 C   0  0  1  0  0  0  0  0  0  0  0  0
  181.0120  179.0940  138.0700 C   0  0  0  0  0  2  0  0  0  0  0  0
  184.0780  178.3050  139.5710 C   0  0  1  0  0  3  0  0  0  0  0  0
  183.8800  178.6700  143.2700 O   0  0  0  0  0  1  0  0  0  0  0  0
  181.9580  176.7800  135.1200 S   0  0  0  0  0  0  0  0  0  0  0  0
  180.8560  178.1120  137.0860 O   0  0  0  0  0  0  0  0  0  0  0  0
  184.2990  177.9640  141.0370 C   0  0  0  0  0  2  0  0  0  0  0  0
  186.7250  177.1560  136.2570 C   0  0  1  0  0  3  0  0  0  0  0  0
  182.1400  177.8550  136.5780 C   0  0  1  0  0  3  0  0  0  0  0  0
  185.1340  177.6740  138.7030 C   0  0  2  0  0  3  0  0  0  0  0  0
  181.5580  179.4270  140.4860 C   0  0  0  0  0  2  0  0  0  0  0  0
  184.7200  176.1670  135.0920 C   0  0  2  0  0  3  0  0  0  0  0  0
  183.5330  178.9220  141.9430 C   0  0  1  0  0  3  0  0  0  0  0  0
  187.1380  178.3050  137.2170 C   0  0  1  0  0  3  0  0  0  0  0  0
  186.4680  178.4180  138.6290 C   0  0  2  0  0  3  0  0  0  0  0  0
  183.6390  177.0590  134.4590 C   0  0  0  0  0  2  0  0  0  0  0  0
  183.9760  174.2480  136.5610 C   0  0  0  0  0  3  0  0  0  0  0  0
  184.4060  174.6680  135.1790 C   0  0  2  0  0  3  0  0  0  0  0  0
  185.4710  173.8600  134.6640 O   0  0  0  0  0  0  0  0  0  0  0  0
  186.6160  171.6610  134.3580 C   0  0  0  0  0  1  0  0  0  0  0  0
  185.1610  172.1380  136.2600 C   0  0  0  0  0  3  0  0  0  0  0  0
  185.7130  172.5600  135.1230 C   0  0  0  0  0  0  0  0  0  0  0  0
  184.3060  173.0480  137.0390 C   0  0  0  0  0  3  0  0  0  0  0  0
  188.7750  179.8730  137.5540 O   0  0  0  0  0  1  0  0  0  0  0  0
  188.5750  178.5950  137.1450 N   0  0  0  0  0  0  0  0  0  0  0  0
  189.2320  177.7820  138.0100 O   0  0  0  0  0  0  0  0  0  0  0  0
  190.1260  177.0620  137.2160 C   0  0  0  0  0  1  0  0  0  0  0  0
  187.3420  177.9150  139.6790 N   0  0  0  0  0  2  0  0  0  0  0  0
  187.3390  178.8730  140.7030 N   0  0  0  0  0  2  0  0  0  0  0  0
  188.2190  178.3800  141.7480 C   0  0  0  0  0  2  0  0  0  0  0  0
  187.4090  177.6540  142.8040 C   0  0  0  0  0  1  0  0  0  0  0  0
  1 19  1  0  0  0  0
  2  6  1  0  0  0  0
  4 17  1  0  0  0  0
  5  2  1  0  0  0  0
  5 16  1  0  0  0  0
  6  4  1  0  0  0  0
  6  9  1  0  0  0  0
  7  3  1  0  0  0  0
  7  5  1  0  0  0  0
  8  4  1  0  0  0  0
  9 13  1  0  0  0  0
 11 15  1  0  0  0  0
 12  8  1  0  0  0  0
 13 19  1  0  0  0  0
 14  7  1  0  0  0  0
 14  3  1  0  0  0  0
 14 20  1  0  0  0  0
 15 12  1  0  0  0  0
 15  2  1  0  0  0  0
 16  9  1  0  0  0  0
 17  1  1  0  0  0  0
 18 24  1  0  0  0  0
 18  7  1  0  0  0  0
 19 10  1  0  0  0  0
 20 21  1  0  0  0  0
 21 16  1  0  0  0  0
 21 34  1  0  0  0  0
 22 18  1  0  0  0  0
 22 11  1  0  0  0  0
 23 29  2  0  0  0  0
 24 23  1  0  0  0  0
 25 28  1  0  0  0  0
 25 24  1  0  0  0  0
 26 28  1  0  0  0  0
 27 29  1  0  0  0  0
 28 27  2  0  0  0  0
 31 20  1  0  0  0  0
 31 30  1  0  0  0  0
 31 32  1  0  0  0  0
 33 32  1  0  0  0  0
 34 35  1  0  0  0  0
 35 36  1  0  0  0  0
 36 37  1  0  0  0  0
M  END
>  <MODEL>
6

>  <REMARK>
 VINA RESULT:      -5.8      2.747      4.761
  Name = 
  6 active torsions:
  status: ('A' for Active; 'I' for Inactive)
    1  A    between atoms: N_1  and  N_23
    2  A    between atoms: N_1  and  C_36
    3  A    between atoms: C_5  and  N_23
    4  A    between atoms: C_6  and  C_31
    5  A    between atoms: O_11  and  N_26
    6  A    between atoms: N_26  and  C_33
                            x       y       z     vdW  Elec       q    Type
                         _______ _______ _______ _____ _____    ______ ____

>  <TORSDO>
F 6

$$$$
=
 OpenBabel10272414523D

 37 43  0  0  1  0  0  0  0  0999 V2000
  189.8060  177.8460  142.1550 C   0  0  0  0  0  2  0  0  0  0  0  0
  189.4650  175.8720  138.0380 C   0  0  1  0  0  3  0  0  0  0  0  0
  192.3090  174.2230  136.6450 O   0  0  0  0  0  0  0  0  0  0  0  0
  188.5930  177.4180  139.9790 C   0  0  2  0  0  3  0  0  0  0  0  0
  190.8080  176.0850  137.3680 C   0  0  2  0  0  3  0  0  0  0  0  0
  189.6800  176.4500  139.4610 C   0  0  2  0  0  3  0  0  0  0  0  0
  191.2360  175.0760  136.2980 C   0  0  1  0  0  0  0  0  0  0  0  0
  187.8670  178.0770  138.8230 C   0  0  0  0  0  2  0  0  0  0  0  0
  191.1150  176.9720  139.5340 C   0  0  1  0  0  3  0  0  0  0  0  0
  191.9720  177.5740  143.1050 O   0  0  0  0  0  1  0  0  0  0  0  0
  187.7060  175.4890  135.9540 S   0  0  0  0  0  0  0  0  0  0  0  0
  187.3390  177.0700  138.0090 O   0  0  0  0  0  0  0  0  0  0  0  0
  191.6850  176.6900  140.9160 C   0  0  0  0  0  2  0  0  0  0  0  0
  192.6130  175.2860  135.7630 C   0  0  1  0  0  3  0  0  0  0  0  0
  188.3990  176.6140  137.2080 C   0  0  1  0  0  3  0  0  0  0  0  0
  191.8170  176.1540  138.4810 C   0  0  2  0  0  3  0  0  0  0  0  0
  189.0840  178.4740  140.9700 C   0  0  0  0  0  2  0  0  0  0  0  0
  190.2680  174.5100  135.2600 C   0  0  2  0  0  3  0  0  0  0  0  0
  191.3100  177.7940  141.8980 C   0  0  1  0  0  3  0  0  0  0  0  0
  193.4000  176.4230  136.4700 C   0  0  1  0  0  3  0  0  0  0  0  0
  193.1560  176.7060  137.9920 C   0  0  2  0  0  3  0  0  0  0  0  0
  189.1650  175.5010  134.8530 C   0  0  0  0  0  2  0  0  0  0  0  0
  190.6620  172.0450  134.8540 C   0  0  0  0  0  3  0  0  0  0  0  0
  189.8200  173.0740  135.5640 C   0  0  2  0  0  3  0  0  0  0  0  0
  188.4170  172.8860  135.3460 O   0  0  0  0  0  0  0  0  0  0  0  0
  186.4080  171.4260  135.0720 C   0  0  0  0  0  1  0  0  0  0  0  0
  188.6690  170.6730  134.5400 C   0  0  0  0  0  3  0  0  0  0  0  0
  187.8750  171.6460  134.9870 C   0  0  0  0  0  0  0  0  0  0  0  0
  190.1160  170.9110  134.4130 C   0  0  0  0  0  3  0  0  0  0  0  0
  194.8760  175.8720  134.8070 O   0  0  0  0  0  1  0  0  0  0  0  0
  194.7870  176.5120  135.9980 N   0  0  0  0  0  0  0  0  0  0  0  0
  195.0970  177.8160  135.7860 O   0  0  0  0  0  0  0  0  0  0  0  0
  196.0140  177.7990  134.7330 C   0  0  0  0  0  1  0  0  0  0  0  0
  194.2190  176.1530  138.8180 N   0  0  0  0  0  2  0  0  0  0  0  0
  194.2190  174.7670  138.6070 N   0  0  0  0  0  2  0  0  0  0  0  0
  195.5740  174.3010  138.8470 C   0  0  0  0  0  2  0  0  0  0  0  0
  196.1330  173.6710  137.5870 C   0  0  0  0  0  1  0  0  0  0  0  0
  2  6  1  0  0  0  0
  4 17  1  0  0  0  0
  5  2  1  0  0  0  0
  5 16  1  0  0  0  0
  6  9  1  0  0  0  0
  6  4  1  0  0  0  0
  7  3  1  0  0  0  0
  7  5  1  0  0  0  0
  8  4  1  0  0  0  0
  9 13  1  0  0  0  0
 11 15  1  0  0  0  0
 12  8  1  0  0  0  0
 13 19  1  0  0  0  0
 14  7  1  0  0  0  0
 14 20  1  0  0  0  0
 14  3  1  0  0  0  0
 15 12  1  0  0  0  0
 15  2  1  0  0  0  0
 16  9  1  0  0  0  0
 17  1  1  0  0  0  0
 18 24  1  0  0  0  0
 18  7  1  0  0  0  0
 19  1  1  0  0  0  0
 19 10  1  0  0  0  0
 20 21  1  0  0  0  0
 21 16  1  0  0  0  0
 21 34  1  0  0  0  0
 22 18  1  0  0  0  0
 22 11  1  0  0  0  0
 23 24  1  0  0  0  0
 25 24  1  0  0  0  0
 27 28  2  0  0  0  0
 28 26  1  0  0  0  0
 28 25  1  0  0  0  0
 29 27  1  0  0  0  0
 29 23  2  0  0  0  0
 30 31  1  0  0  0  0
 31 20  1  0  0  0  0
 32 31  1  0  0  0  0
 33 32  1  0  0  0  0
 35 34  1  0  0  0  0
 35 36  1  0  0  0  0
 37 36  1  0  0  0  0
M  END
>  <MODEL>
7

>  <REMARK>
 VINA RESULT:      -5.8      5.162      7.064
  Name = 
  6 active torsions:
  status: ('A' for Active; 'I' for Inactive)
    1  A    between atoms: N_1  and  N_23
    2  A    between atoms: N_1  and  C_36
    3  A    between atoms: C_5  and  N_23
    4  A    between atoms: C_6  and  C_31
    5  A    between atoms: O_11  and  N_26
    6  A    between atoms: N_26  and  C_33
                            x       y       z     vdW  Elec       q    Type
                         _______ _______ _______ _____ _____    ______ ____

>  <TORSDO>
F 6

$$$$
=
 OpenBabel10272414523D

 37 43  0  0  1  0  0  0  0  0999 V2000
  192.5170  171.7670  135.2830 C   0  0  0  0  0  2  0  0  0  0  0  0
  191.9890  175.1550  138.3170 C   0  0  1  0  0  3  0  0  0  0  0  0
  188.7090  176.3620  139.0430 O   0  0  0  0  0  0  0  0  0  0  0  0
  193.4320  173.6090  136.7540 C   0  0  2  0  0  3  0  0  0  0  0  0
  190.8420  175.9980  137.7960 C   0  0  2  0  0  3  0  0  0  0  0  0
  192.0410  173.9680  137.3220 C   0  0  2  0  0  3  0  0  0  0  0  0
  190.0320  176.8040  138.8170 C   0  0  1  0  0  0  0  0  0  0  0  0
  194.3520  174.8130  136.7910 C   0  0  0  0  0  2  0  0  0  0  0  0
  190.9420  174.1900  136.2820 C   0  0  1  0  0  3  0  0  0  0  0  0
  190.4360  171.0190  134.4020 O   0  0  0  0  0  1  0  0  0  0  0  0
  193.4220  176.8620  139.9360 S   0  0  0  0  0  0  0  0  0  0  0  0
  194.4180  175.2700  138.1110 O   0  0  0  0  0  0  0  0  0  0  0  0
  190.3190  172.8530  135.9110 C   0  0  0  0  0  2  0  0  0  0  0  0
  188.8540  177.5210  138.2460 C   0  0  1  0  0  3  0  0  0  0  0  0
  193.2570  176.0310  138.3230 C   0  0  1  0  0  3  0  0  0  0  0  0
  189.9590  175.0580  137.0230 C   0  0  2  0  0  3  0  0  0  0  0  0
  193.4210  172.9910  135.3550 C   0  0  0  0  0  2  0  0  0  0  0  0
  190.6770  177.5450  139.9870 C   0  0  2  0  0  3  0  0  0  0  0  0
  191.1200  172.1620  134.8130 C   0  0  1  0  0  3  0  0  0  0  0  0
  188.6040  177.2280  136.7410 C   0  0  1  0  0  3  0  0  0  0  0  0
  188.9550  175.8180  136.1550 C   0  0  2  0  0  3  0  0  0  0  0  0
  192.0840  178.0780  139.6680 C   0  0  0  0  0  2  0  0  0  0  0  0
  189.0610  176.5340  141.6490 C   0  0  0  0  0  3  0  0  0  0  0  0
  190.5050  176.8250  141.3320 C   0  0  2  0  0  3  0  0  0  0  0  0
  191.1790  177.5040  142.3990 O   0  0  0  0  0  0  0  0  0  0  0  0
  191.6300  177.8850  144.8260 C   0  0  0  0  0  1  0  0  0  0  0  0
  189.5170  176.9800  144.0030 C   0  0  0  0  0  3  0  0  0  0  0  0
  190.7410  177.4290  143.7270 C   0  0  0  0  0  0  0  0  0  0  0  0
  188.6230  176.5740  142.9070 C   0  0  0  0  0  3  0  0  0  0  0  0
  187.2480  179.0730  136.8340 O   0  0  0  0  0  1  0  0  0  0  0  0
  187.3680  177.8530  136.2540 N   0  0  0  0  0  0  0  0  0  0  0  0
  187.4700  178.0450  134.9150 O   0  0  0  0  0  0  0  0  0  0  0  0
  186.1950  177.7710  134.4160 C   0  0  0  0  0  1  0  0  0  0  0  0
  187.7670  174.9940  135.9870 N   0  0  0  0  0  2  0  0  0  0  0  0
  187.4970  174.4100  137.2330 N   0  0  0  0  0  2  0  0  0  0  0  0
  186.8010  173.1610  136.9740 C   0  0  0  0  0  2  0  0  0  0  0  0
  185.4830  173.1420  137.7210 C   0  0  0  0  0  1  0  0  0  0  0  0
  1 17  1  0  0  0  0
  2 15  1  0  0  0  0
  4  8  1  0  0  0  0
  4  6  1  0  0  0  0
  5  2  1  0  0  0  0
  5  7  1  0  0  0  0
  6  2  1  0  0  0  0
  7  3  1  0  0  0  0
  7 18  1  0  0  0  0
  8 12  1  0  0  0  0
  9 16  1  0  0  0  0
  9  6  1  0  0  0  0
 10 19  1  0  0  0  0
 12 15  1  0  0  0  0
 13  9  1  0  0  0  0
 14  7  1  0  0  0  0
 14  3  1  0  0  0  0
 15 11  1  0  0  0  0
 16  5  1  0  0  0  0
 17  4  1  0  0  0  0
 18 24  1  0  0  0  0
 19  1  1  0  0  0  0
 19 13  1  0  0  0  0
 20 14  1  0  0  0  0
 21 20  1  0  0  0  0
 21 16  1  0  0  0  0
 22 11  1  0  0  0  0
 22 18  1  0  0  0  0
 23 29  2  0  0  0  0
 24 23  1  0  0  0  0
 24 25  1  0  0  0  0
 25 28  1  0  0  0  0
 28 27  2  0  0  0  0
 28 26  1  0  0  0  0
 29 27  1  0  0  0  0
 31 20  1  0  0  0  0
 31 30  1  0  0  0  0
 32 31  1  0  0  0  0
 33 32  1  0  0  0  0
 34 21  1  0  0  0  0
 34 35  1  0  0  0  0
 36 35  1  0  0  0  0
 36 37  1  0  0  0  0
M  END
>  <MODEL>
8

>  <REMARK>
 VINA RESULT:      -5.6      4.783      9.049
  Name = 
  6 active torsions:
  status: ('A' for Active; 'I' for Inactive)
    1  A    between atoms: N_1  and  N_23
    2  A    between atoms: N_1  and  C_36
    3  A    between atoms: C_5  and  N_23
    4  A    between atoms: C_6  and  C_31
    5  A    between atoms: O_11  and  N_26
    6  A    between atoms: N_26  and  C_33
                            x       y       z     vdW  Elec       q    Type
                         _______ _______ _______ _____ _____    ______ ____

>  <TORSDO>
F 6

$$$$
=
 OpenBabel10272414523D

 37 43  0  0  1  0  0  0  0  0999 V2000
  187.3380  174.9100  134.9180 C   0  0  0  0  0  2  0  0  0  0  0  0
  187.5370  177.1670  138.8970 C   0  0  1  0  0  3  0  0  0  0  0  0
  184.5220  177.8170  140.6950 O   0  0  0  0  0  0  0  0  0  0  0  0
  188.5680  176.2920  136.6410 C   0  0  2  0  0  3  0  0  0  0  0  0
  186.2910  178.0280  138.9440 C   0  0  2  0  0  3  0  0  0  0  0  0
  187.3550  176.3440  137.5960 C   0  0  2  0  0  3  0  0  0  0  0  0
  185.7460  178.4160  140.3220 C   0  0  1  0  0  0  0  0  0  0  0  0
  189.4590  177.5020  136.8420 C   0  0  0  0  0  2  0  0  0  0  0  0
  186.0340  176.7760  136.9590 C   0  0  1  0  0  3  0  0  0  0  0  0
  185.1120  174.2900  134.3480 O   0  0  0  0  0  1  0  0  0  0  0  0
  189.3060  178.4200  140.5960 S   0  0  0  0  0  0  0  0  0  0  0  0
  189.8410  177.5430  138.1870 O   0  0  0  0  0  0  0  0  0  0  0  0
  185.3510  175.5660  136.3410 C   0  0  0  0  0  2  0  0  0  0  0  0
  184.4590  179.1700  140.2900 C   0  0  1  0  0  3  0  0  0  0  0  0
  188.7610  178.1040  138.8870 C   0  0  1  0  0  3  0  0  0  0  0  0
  185.2540  177.2940  138.1390 C   0  0  2  0  0  3  0  0  0  0  0  0
  188.2220  176.1270  135.1610 C   0  0  0  0  0  2  0  0  0  0  0  0
  186.6510  178.8220  141.4850 C   0  0  2  0  0  3  0  0  0  0  0  0
  185.8650  175.3080  134.9290 C   0  0  1  0  0  3  0  0  0  0  0  0
  183.8520  179.3250  138.8690 C   0  0  1  0  0  3  0  0  0  0  0  0
  184.0620  178.1930  137.8060 C   0  0  2  0  0  3  0  0  0  0  0  0
  187.9330  179.5420  141.0360 C   0  0  0  0  0  2  0  0  0  0  0  0
  185.8890  177.8940  143.7110 C   0  0  0  0  0  3  0  0  0  0  0  0
  186.8180  177.7180  142.5380 C   0  0  2  0  0  3  0  0  0  0  0  0
  188.1850  177.5520  142.9370 O   0  0  0  0  0  0  0  0  0  0  0  0
  189.9360  176.6410  144.4680 C   0  0  0  0  0  1  0  0  0  0  0  0
  187.6420  177.0650  145.1900 C   0  0  0  0  0  3  0  0  0  0  0  0
  188.5420  177.0840  144.2070 C   0  0  0  0  0  0  0  0  0  0  0  0
  186.2760  177.5510  144.9400 C   0  0  0  0  0  3  0  0  0  0  0  0
  181.9380  179.6660  140.0830 O   0  0  0  0  0  1  0  0  0  0  0  0
  182.5290  179.9620  138.8990 N   0  0  0  0  0  0  0  0  0  0  0  0
  182.6870  181.3080  138.8460 O   0  0  0  0  0  0  0  0  0  0  0  0
  181.5880  181.7700  138.1210 C   0  0  0  0  0  1  0  0  0  0  0  0
  182.8750  177.3610  137.6650 N   0  0  0  0  0  2  0  0  0  0  0  0
  182.9750  176.3440  138.6250 N   0  0  0  0  0  2  0  0  0  0  0  0
  181.6830  176.2520  139.2820 C   0  0  0  0  0  2  0  0  0  0  0  0
  180.5970  176.7670  138.3580 C   0  0  0  0  0  1  0  0  0  0  0  0
  1 19  1  0  0  0  0
  1 17  1  0  0  0  0
  2  5  1  0  0  0  0
  4  8  1  0  0  0  0
  4  6  1  0  0  0  0
  5  7  1  0  0  0  0
  6  2  1  0  0  0  0
  7  3  1  0  0  0  0
  7 18  1  0  0  0  0
  8 12  1  0  0  0  0
  9  6  1  0  0  0  0
  9 16  1  0  0  0  0
 10 19  1  0  0  0  0
 11 22  1  0  0  0  0
 12 15  1  0  0  0  0
 13  9  1  0  0  0  0
 14  7  1  0  0  0  0
 14  3  1  0  0  0  0
 15  2  1  0  0  0  0
 15 11  1  0  0  0  0
 16  5  1  0  0  0  0
 17  4  1  0  0  0  0
 18 24  1  0  0  0  0
 19 13  1  0  0  0  0
 20 31  1  0  0  0  0
 20 14  1  0  0  0  0
 21 16  1  0  0  0  0
 21 20  1  0  0  0  0
 22 18  1  0  0  0  0
 23 29  2  0  0  0  0
 24 25  1  0  0  0  0
 24 23  1  0  0  0  0
 25 28  1  0  0  0  0
 28 26  1  0  0  0  0
 28 27  2  0  0  0  0
 29 27  1  0  0  0  0
 31 30  1  0  0  0  0
 32 31  1  0  0  0  0
 33 32  1  0  0  0  0
 34 21  1  0  0  0  0
 34 35  1  0  0  0  0
 35 36  1  0  0  0  0
 37 36  1  0  0  0  0
M  END
>  <MODEL>
9

>  <REMARK>
 VINA RESULT:      -5.5      3.143      7.786
  Name = 
  6 active torsions:
  status: ('A' for Active; 'I' for Inactive)
    1  A    between atoms: N_1  and  N_23
    2  A    between atoms: N_1  and  C_36
    3  A    between atoms: C_5  and  N_23
    4  A    between atoms: C_6  and  C_31
    5  A    between atoms: O_11  and  N_26
    6  A    between atoms: N_26  and  C_33
                            x       y       z     vdW  Elec       q    Type
                         _______ _______ _______ _____ _____    ______ ____

>  <TORSDO>
F 6

$$$$
