=
 OpenBabel10272400593D

 27 31  0  0  1  0  0  0  0  0999 V2000
  187.2610  177.1160  143.1030 C   0  0  2  0  0  3  0  0  0  0  0  0
  186.1170  179.0130  144.0320 C   0  0  2  0  0  3  0  0  0  0  0  0
  186.6660  177.8750  141.9010 C   0  0  1  0  0  3  0  0  0  0  0  0
  181.9310  178.7850  142.9050 C   0  0  0  0  0  3  0  0  0  0  0  0
  180.2300  178.1370  141.3670 F   0  0  0  0  0  0  0  0  0  0  0  0
  184.9440  178.7870  145.0000 C   0  0  0  0  0  2  0  0  0  0  0  0
  183.8660  178.1830  140.9790 C   0  0  0  0  0  3  0  0  0  0  0  0
  189.1100  178.7970  139.0210 C   0  0  0  0  0  1  0  0  0  0  0  0
  182.5110  178.0070  140.6880 C   0  0  0  0  0  3  0  0  0  0  0  0
  189.0040  176.7470  140.3420 O   0  0  0  0  0  0  0  0  0  0  0  0
  185.7300  178.9020  142.5350 C   0  0  1  0  0  3  0  0  0  0  0  0
  187.1380  177.9980  144.2560 N   0  0  0  0  0  0  0  0  0  0  0  0
  181.5440  178.3030  141.6510 C   0  0  0  0  0  0  0  0  0  0  0  0
  183.2870  178.9520  143.2030 C   0  0  0  0  0  0  0  0  0  0  0  0
  188.6390  176.4490  142.9430 C   0  0  0  0  0  2  0  0  0  0  0  0
  184.2680  178.6370  142.2440 C   0  0  0  0  0  0  0  0  0  0  0  0
  188.2920  177.9000  139.9380 C   0  0  1  0  0  3  0  0  0  0  0  0
  183.6880  179.5020  144.5290 C   0  0  0  0  0  2  0  0  0  0  0  0
  190.0930  177.1040  141.1740 C   0  0  0  0  0  2  0  0  0  0  0  0
  189.6630  177.4050  142.5430 N   0  0  0  0  0  2  0  0  0  0  0  0
  187.6800  178.6920  141.0960 C   0  0  0  0  0  2  0  0  0  0  0  0
  188.9780  177.3980  148.0420 C   0  0  0  0  0  3  0  0  0  0  0  0
  187.7560  177.7840  145.5420 C   0  0  0  0  0  0  0  0  0  0  0  0
  189.1550  177.7910  145.6600 C   0  0  0  0  0  3  0  0  0  0  0  0
  189.7630  177.5970  146.9030 C   0  0  0  0  0  3  0  0  0  0  0  0
  187.5850  177.3940  147.9370 C   0  0  0  0  0  3  0  0  0  0  0  0
  186.9770  177.5890  146.6930 C   0  0  0  0  0  3  0  0  0  0  0  0
  1 15  1  6  0  0  0
  1 12  1  0  0  0  0
  2 12  1  0  0  0  0
  2  6  1  1  0  0  0
  3 21  1  1  0  0  0
  3 11  1  0  0  0  0
  3  1  1  0  0  0  0
  4 14  1  0  0  0  0
  5 13  1  0  0  0  0
  7 16  1  0  0  0  0
  9  7  2  0  0  0  0
  9 13  1  0  0  0  0
 10 19  1  0  0  0  0
 11 16  1  1  0  0  0
 11  2  1  0  0  0  0
 12 23  1  0  0  0  0
 13  4  2  0  0  0  0
 14 18  1  0  0  0  0
 16 14  2  0  0  0  0
 17  8  1  1  0  0  0
 17 10  1  0  0  0  0
 17 21  1  0  0  0  0
 18  6  1  0  0  0  0
 19 20  1  0  0  0  0
 20 15  1  0  0  0  0
 23 24  2  0  0  0  0
 23 27  1  0  0  0  0
 24 25  1  0  0  0  0
 25 22  2  0  0  0  0
 26 22  1  0  0  0  0
 27 26  2  0  0  0  0
M  END
>  <MODEL>
1

>  <REMARK>
 VINA RESULT:      -9.8      0.000      0.000
  Name = 
  1 active torsions:
  status: ('A' for Active; 'I' for Inactive)
    1  A    between atoms: C_9  and  N_15
                            x       y       z     vdW  Elec       q    Type
                         _______ _______ _______ _____ _____    ______ ____

>  <TORSDO>
F 1

$$$$
=
 OpenBabel10272400593D

 27 31  0  0  1  0  0  0  0  0999 V2000
  188.1580  176.8680  142.9710 C   0  0  2  0  0  3  0  0  0  0  0  0
  187.4450  178.6960  144.3570 C   0  0  2  0  0  3  0  0  0  0  0  0
  187.3250  177.7870  142.0570 C   0  0  1  0  0  3  0  0  0  0  0  0
  183.1050  178.7890  144.3900 C   0  0  0  0  0  3  0  0  0  0  0  0
  181.0150  178.4000  143.3150 F   0  0  0  0  0  0  0  0  0  0  0  0
  186.5570  178.4140  145.5800 C   0  0  0  0  0  2  0  0  0  0  0  0
  184.4110  178.3250  141.9630 C   0  0  0  0  0  3  0  0  0  0  0  0
  188.9820  178.9210  138.7270 C   0  0  0  0  0  1  0  0  0  0  0  0
  183.0190  178.2460  142.0340 C   0  0  0  0  0  3  0  0  0  0  0  0
  189.0760  176.7400  139.8190 O   0  0  0  0  0  0  0  0  0  0  0  0
  186.6690  178.7750  143.0180 C   0  0  1  0  0  3  0  0  0  0  0  0
  188.4110  177.6170  144.1950 N   0  0  0  0  0  0  0  0  0  0  0  0
  182.3660  178.4720  143.2480 C   0  0  0  0  0  0  0  0  0  0  0  0
  184.5000  178.8590  144.3250 C   0  0  0  0  0  0  0  0  0  0  0  0
  189.3910  176.1620  142.3790 C   0  0  0  0  0  2  0  0  0  0  0  0
  185.1670  178.6120  143.1100 C   0  0  0  0  0  0  0  0  0  0  0  0
  188.3700  177.9630  139.7390 C   0  0  1  0  0  3  0  0  0  0  0  0
  185.2780  179.2340  145.5400 C   0  0  0  0  0  2  0  0  0  0  0  0
  190.3700  176.9490  140.3550 C   0  0  0  0  0  2  0  0  0  0  0  0
  190.3410  177.1100  141.8120 N   0  0  0  0  0  2  0  0  0  0  0  0
  188.1480  178.6430  141.0910 C   0  0  0  0  0  2  0  0  0  0  0  0
  191.1360  176.5030  147.2630 C   0  0  0  0  0  3  0  0  0  0  0  0
  189.3290  177.2280  145.2380 C   0  0  0  0  0  0  0  0  0  0  0  0
  190.7080  177.1820  144.9800 C   0  0  0  0  0  3  0  0  0  0  0  0
  191.6070  176.8200  145.9860 C   0  0  0  0  0  3  0  0  0  0  0  0
  189.7660  176.5500  147.5330 C   0  0  0  0  0  3  0  0  0  0  0  0
  188.8670  176.9130  146.5250 C   0  0  0  0  0  3  0  0  0  0  0  0
  1 15  1  6  0  0  0
  1 12  1  0  0  0  0
  2  6  1  1  0  0  0
  3 21  1  6  0  0  0
  3  1  1  0  0  0  0
  3 11  1  0  0  0  0
  7  9  2  0  0  0  0
  7 16  1  0  0  0  0
  9 13  1  0  0  0  0
 10 19  1  0  0  0  0
 11 16  1  1  0  0  0
 11  2  1  0  0  0  0
 12  2  1  0  0  0  0
 12 23  1  0  0  0  0
 13  5  1  0  0  0  0
 13  4  2  0  0  0  0
 14  4  1  0  0  0  0
 14 18  1  0  0  0  0
 16 14  2  0  0  0  0
 17  8  1  6  0  0  0
 17 10  1  0  0  0  0
 17 21  1  0  0  0  0
 18  6  1  0  0  0  0
 19 20  1  0  0  0  0
 20 15  1  0  0  0  0
 22 26  1  0  0  0  0
 23 27  1  0  0  0  0
 24 23  2  0  0  0  0
 24 25  1  0  0  0  0
 25 22  2  0  0  0  0
 27 26  2  0  0  0  0
M  END
>  <MODEL>
2

>  <REMARK>
 VINA RESULT:      -9.7      1.147      1.517
  Name = 
  1 active torsions:
  status: ('A' for Active; 'I' for Inactive)
    1  A    between atoms: C_9  and  N_15
                            x       y       z     vdW  Elec       q    Type
                         _______ _______ _______ _____ _____    ______ ____

>  <TORSDO>
F 1

$$$$
=
 OpenBabel10272400593D

 27 31  0  0  1  0  0  0  0  0999 V2000
  187.5030  177.1390  142.8780 C   0  0  2  0  0  3  0  0  0  0  0  0
  187.0080  178.7650  141.1810 C   0  0  2  0  0  3  0  0  0  0  0  0
  188.8420  177.4290  142.1720 C   0  0  1  0  0  3  0  0  0  0  0  0
  188.0740  177.0940  137.3190 C   0  0  0  0  0  3  0  0  0  0  0  0
  189.4430  175.6760  135.9800 F   0  0  0  0  0  0  0  0  0  0  0  0
  186.0180  178.4070  140.0610 C   0  0  0  0  0  2  0  0  0  0  0  0
  189.8190  176.7060  139.4680 C   0  0  0  0  0  3  0  0  0  0  0  0
  191.8450  178.4180  144.4360 C   0  0  0  0  0  1  0  0  0  0  0  0
  190.0700  176.0850  138.2420 C   0  0  0  0  0  3  0  0  0  0  0  0
  190.1150  176.7420  144.8330 O   0  0  0  0  0  0  0  0  0  0  0  0
  188.4460  178.2420  140.9420 C   0  0  1  0  0  3  0  0  0  0  0  0
  186.5670  178.1620  142.4330 N   0  0  0  0  0  0  0  0  0  0  0  0
  189.1960  176.2750  137.1700 C   0  0  0  0  0  0  0  0  0  0  0  0
  187.8140  177.7090  138.5480 C   0  0  0  0  0  0  0  0  0  0  0  0
  187.5120  176.8880  144.3970 C   0  0  0  0  0  2  0  0  0  0  0  0
  188.6790  177.5060  139.6390 C   0  0  0  0  0  0  0  0  0  0  0  0
  190.7590  177.5280  143.8490 C   0  0  1  0  0  3  0  0  0  0  0  0
  186.6350  178.6110  138.6870 C   0  0  0  0  0  2  0  0  0  0  0  0
  189.3750  177.5650  145.7170 C   0  0  0  0  0  2  0  0  0  0  0  0
  188.1040  177.9990  145.1290 N   0  0  0  0  0  2  0  0  0  0  0  0
  189.8000  178.3240  142.9620 C   0  0  0  0  0  2  0  0  0  0  0  0
  182.7350  178.9140  144.1140 C   0  0  0  0  0  3  0  0  0  0  0  0
  185.2630  178.4060  142.9990 C   0  0  0  0  0  0  0  0  0  0  0  0
  185.1420  178.7990  144.3410 C   0  0  0  0  0  3  0  0  0  0  0  0
  183.8850  179.0500  144.8960 C   0  0  0  0  0  3  0  0  0  0  0  0
  182.8440  178.5280  142.7750 C   0  0  0  0  0  3  0  0  0  0  0  0
  184.1030  178.2770  142.2200 C   0  0  0  0  0  3  0  0  0  0  0  0
  1 15  1  1  0  0  0
  2  6  1  6  0  0  0
  2 12  1  0  0  0  0
  3  1  1  0  0  0  0
  3 21  1  1  0  0  0
  4 14  1  0  0  0  0
  5 13  1  0  0  0  0
  7 16  1  0  0  0  0
  9  7  2  0  0  0  0
 10 19  1  0  0  0  0
 11 16  1  6  0  0  0
 11  2  1  0  0  0  0
 11  3  1  0  0  0  0
 12  1  1  0  0  0  0
 12 23  1  0  0  0  0
 13  4  2  0  0  0  0
 13  9  1  0  0  0  0
 14 18  1  0  0  0  0
 14 16  2  0  0  0  0
 15 20  1  0  0  0  0
 17  8  1  1  0  0  0
 17 10  1  0  0  0  0
 18  6  1  0  0  0  0
 20 19  1  0  0  0  0
 21 17  1  0  0  0  0
 22 25  1  0  0  0  0
 23 24  1  0  0  0  0
 24 25  2  0  0  0  0
 26 22  2  0  0  0  0
 27 26  1  0  0  0  0
 27 23  2  0  0  0  0
M  END
>  <MODEL>
3

>  <REMARK>
 VINA RESULT:      -9.1      2.821      5.711
  Name = 
  1 active torsions:
  status: ('A' for Active; 'I' for Inactive)
    1  A    between atoms: C_9  and  N_15
                            x       y       z     vdW  Elec       q    Type
                         _______ _______ _______ _____ _____    ______ ____

>  <TORSDO>
F 1

$$$$
=
 OpenBabel10272400593D

 27 31  0  0  1  0  0  0  0  0999 V2000
  187.7100  178.6330  142.3970 C   0  0  2  0  0  3  0  0  0  0  0  0
  187.0070  176.9390  143.9490 C   0  0  2  0  0  3  0  0  0  0  0  0
  188.9010  177.6630  142.5270 C   0  0  1  0  0  3  0  0  0  0  0  0
  189.7310  176.9500  147.3290 C   0  0  0  0  0  3  0  0  0  0  0  0
  191.9050  177.3000  148.2390 F   0  0  0  0  0  0  0  0  0  0  0  0
  186.6410  177.3390  145.3870 C   0  0  0  0  0  2  0  0  0  0  0  0
  190.7970  177.1870  144.7550 C   0  0  0  0  0  3  0  0  0  0  0  0
  190.3650  176.2260  139.2230 C   0  0  0  0  0  1  0  0  0  0  0  0
  191.6290  177.3040  145.8710 C   0  0  0  0  0  3  0  0  0  0  0  0
  189.5660  178.4850  139.6890 O   0  0  0  0  0  0  0  0  0  0  0  0
  188.5280  176.7710  143.7090 C   0  0  1  0  0  3  0  0  0  0  0  0
  186.5700  177.9790  143.0260 N   0  0  0  0  0  0  0  0  0  0  0  0
  191.0960  177.1910  147.1570 C   0  0  0  0  0  0  0  0  0  0  0  0
  188.8920  176.8430  146.2150 C   0  0  0  0  0  0  0  0  0  0  0  0
  187.4180  179.2590  141.0220 C   0  0  0  0  0  2  0  0  0  0  0  0
  189.4190  176.9750  144.9160 C   0  0  0  0  0  0  0  0  0  0  0  0
  190.0170  177.2760  140.2680 C   0  0  1  0  0  3  0  0  0  0  0  0
  187.4440  176.5490  146.4070 C   0  0  0  0  0  2  0  0  0  0  0  0
  188.3210  178.2890  139.0430 C   0  0  0  0  0  2  0  0  0  0  0  0
  187.2080  178.2470  139.9960 N   0  0  0  0  0  2  0  0  0  0  0  0
  189.0830  176.7120  141.3410 C   0  0  0  0  0  2  0  0  0  0  0  0
  182.5250  179.2680  142.7930 C   0  0  0  0  0  3  0  0  0  0  0  0
  185.2010  178.4280  142.9480 C   0  0  0  0  0  0  0  0  0  0  0  0
  184.3930  178.0370  141.8690 C   0  0  0  0  0  3  0  0  0  0  0  0
  183.0630  178.4560  141.7910 C   0  0  0  0  0  3  0  0  0  0  0  0
  183.3190  179.6590  143.8740 C   0  0  0  0  0  3  0  0  0  0  0  0
  184.6500  179.2390  143.9530 C   0  0  0  0  0  3  0  0  0  0  0  0
  1 15  1  6  0  0  0
  1  3  1  0  0  0  0
  1 12  1  0  0  0  0
  2  6  1  1  0  0  0
  3 21  1  6  0  0  0
  3 11  1  0  0  0  0
  6 18  1  0  0  0  0
  7 16  2  0  0  0  0
  7  9  1  0  0  0  0
  9 13  2  0  0  0  0
 10 17  1  0  0  0  0
 11  2  1  0  0  0  0
 11 16  1  1  0  0  0
 12  2  1  0  0  0  0
 13  4  1  0  0  0  0
 13  5  1  0  0  0  0
 14 18  1  0  0  0  0
 14  4  2  0  0  0  0
 16 14  1  0  0  0  0
 17  8  1  6  0  0  0
 17 21  1  0  0  0  0
 19 10  1  0  0  0  0
 19 20  1  0  0  0  0
 20 15  1  0  0  0  0
 22 26  1  0  0  0  0
 23 12  1  0  0  0  0
 23 27  1  0  0  0  0
 24 23  2  0  0  0  0
 25 24  1  0  0  0  0
 25 22  2  0  0  0  0
 26 27  2  0  0  0  0
M  END
>  <MODEL>
4

>  <REMARK>
 VINA RESULT:      -8.8      2.966      6.128
  Name = 
  1 active torsions:
  status: ('A' for Active; 'I' for Inactive)
    1  A    between atoms: C_9  and  N_15
                            x       y       z     vdW  Elec       q    Type
                         _______ _______ _______ _____ _____    ______ ____

>  <TORSDO>
F 1

$$$$
=
 OpenBabel10272400593D

 27 31  0  0  1  0  0  0  0  0999 V2000
  187.5180  177.0260  142.6380 C   0  0  2  0  0  3  0  0  0  0  0  0
  186.5990  178.9150  141.4730 C   0  0  2  0  0  3  0  0  0  0  0  0
  188.5280  177.3630  141.5240 C   0  0  1  0  0  3  0  0  0  0  0  0
  186.0100  177.8160  137.3150 C   0  0  0  0  0  3  0  0  0  0  0  0
  186.6490  176.5640  135.3910 F   0  0  0  0  0  0  0  0  0  0  0  0
  185.2380  178.7790  140.7720 C   0  0  0  0  0  2  0  0  0  0  0  0
  188.3730  177.0250  138.5830 C   0  0  0  0  0  3  0  0  0  0  0  0
  192.2320  177.8590  142.5990 C   0  0  0  0  0  1  0  0  0  0  0  0
  188.0970  176.5910  137.2840 C   0  0  0  0  0  3  0  0  0  0  0  0
  190.6110  176.2190  143.4000 O   0  0  0  0  0  0  0  0  0  0  0  0
  187.7920  178.3730  140.6460 C   0  0  1  0  0  3  0  0  0  0  0  0
  186.5900  178.1460  142.7110 N   0  0  0  0  0  0  0  0  0  0  0  0
  186.9140  176.9820  136.6530 C   0  0  0  0  0  0  0  0  0  0  0  0
  186.2790  178.2450  138.6190 C   0  0  0  0  0  0  0  0  0  0  0  0
  188.0570  176.5440  143.9970 C   0  0  0  0  0  2  0  0  0  0  0  0
  187.4590  177.8390  139.2700 C   0  0  0  0  0  0  0  0  0  0  0  0
  190.9250  177.1190  142.3550 C   0  0  1  0  0  3  0  0  0  0  0  0
  185.3270  179.1650  139.3040 C   0  0  0  0  0  2  0  0  0  0  0  0
  190.3300  176.9270  144.5940 C   0  0  0  0  0  2  0  0  0  0  0  0
  188.9810  177.5020  144.5880 N   0  0  0  0  0  2  0  0  0  0  0  0
  189.7910  178.0840  142.0020 C   0  0  0  0  0  2  0  0  0  0  0  0
  183.7330  178.7920  145.7940 C   0  0  0  0  0  3  0  0  0  0  0  0
  185.6130  178.3560  143.7530 C   0  0  0  0  0  0  0  0  0  0  0  0
  186.0140  178.3820  145.0980 C   0  0  0  0  0  3  0  0  0  0  0  0
  185.0790  178.5970  146.1130 C   0  0  0  0  0  3  0  0  0  0  0  0
  183.3230  178.7740  144.4580 C   0  0  0  0  0  3  0  0  0  0  0  0
  184.2590  178.5590  143.4420 C   0  0  0  0  0  3  0  0  0  0  0  0
  1 12  1  0  0  0  0
  1 15  1  1  0  0  0
  2  6  1  6  0  0  0
  2 12  1  0  0  0  0
  3 21  1  1  0  0  0
  3  1  1  0  0  0  0
  4 14  1  0  0  0  0
  5 13  1  0  0  0  0
  7 16  1  0  0  0  0
  9  7  2  0  0  0  0
 10 19  1  0  0  0  0
 11 16  1  6  0  0  0
 11  2  1  0  0  0  0
 11  3  1  0  0  0  0
 12 23  1  0  0  0  0
 13  9  1  0  0  0  0
 13  4  2  0  0  0  0
 14 16  2  0  0  0  0
 14 18  1  0  0  0  0
 15 20  1  0  0  0  0
 17  8  1  1  0  0  0
 17 10  1  0  0  0  0
 18  6  1  0  0  0  0
 20 19  1  0  0  0  0
 21 17  1  0  0  0  0
 22 25  1  0  0  0  0
 23 24  1  0  0  0  0
 24 25  2  0  0  0  0
 26 22  2  0  0  0  0
 27 23  2  0  0  0  0
 27 26  1  0  0  0  0
M  END
>  <MODEL>
5

>  <REMARK>
 VINA RESULT:      -8.4      2.605      4.620
  Name = 
  1 active torsions:
  status: ('A' for Active; 'I' for Inactive)
    1  A    between atoms: C_9  and  N_15
                            x       y       z     vdW  Elec       q    Type
                         _______ _______ _______ _____ _____    ______ ____

>  <TORSDO>
F 1

$$$$
=
 OpenBabel10272400593D

 27 31  0  0  1  0  0  0  0  0999 V2000
  183.9620  177.4740  138.6550 C   0  0  2  0  0  3  0  0  0  0  0  0
  186.0160  178.6290  139.1220 C   0  0  2  0  0  3  0  0  0  0  0  0
  183.6180  178.5230  139.7310 C   0  0  1  0  0  3  0  0  0  0  0  0
  186.9570  178.1230  143.3290 C   0  0  0  0  0  3  0  0  0  0  0  0
  186.2600  177.8330  145.5890 F   0  0  0  0  0  0  0  0  0  0  0  0
  187.2140  177.8430  139.6790 C   0  0  0  0  0  2  0  0  0  0  0  0
  184.3110  178.6660  142.6090 C   0  0  0  0  0  3  0  0  0  0  0  0
  180.6390  180.9040  138.9740 C   0  0  0  0  0  1  0  0  0  0  0  0
  184.6300  178.3810  143.9390 C   0  0  0  0  0  3  0  0  0  0  0  0
  180.8500  178.5190  138.5020 O   0  0  0  0  0  0  0  0  0  0  0  0
  184.9780  179.0410  140.1950 C   0  0  1  0  0  3  0  0  0  0  0  0
  185.2930  177.8040  138.1630 N   0  0  0  0  0  0  0  0  0  0  0  0
  185.9510  178.1050  144.2980 C   0  0  0  0  0  0  0  0  0  0  0  0
  186.6400  178.3970  141.9950 C   0  0  0  0  0  0  0  0  0  0  0  0
  182.9230  177.1760  137.5590 C   0  0  0  0  0  2  0  0  0  0  0  0
  185.3080  178.6570  141.6220 C   0  0  0  0  0  0  0  0  0  0  0  0
  181.3500  179.5930  139.2740 C   0  0  1  0  0  3  0  0  0  0  0  0
  187.7250  178.4510  140.9740 C   0  0  0  0  0  2  0  0  0  0  0  0
  181.1530  178.7110  137.1320 C   0  0  0  0  0  2  0  0  0  0  0  0
  182.5470  178.3760  136.8250 N   0  0  0  0  0  2  0  0  0  0  0  0
  182.8710  179.7530  139.2080 C   0  0  0  0  0  2  0  0  0  0  0  0
  187.1840  176.1020  134.7560 C   0  0  0  0  0  3  0  0  0  0  0  0
  185.9240  177.2200  137.0040 C   0  0  0  0  0  0  0  0  0  0  0  0
  186.5220  178.0450  136.0390 C   0  0  0  0  0  3  0  0  0  0  0  0
  187.1480  177.4900  134.9200 C   0  0  0  0  0  3  0  0  0  0  0  0
  186.5960  175.2720  135.7130 C   0  0  0  0  0  3  0  0  0  0  0  0
  185.9710  175.8280  136.8330 C   0  0  0  0  0  3  0  0  0  0  0  0
  1 15  1  6  0  0  0
  1  3  1  0  0  0  0
  2  6  1  1  0  0  0
  2 11  1  0  0  0  0
  3 21  1  6  0  0  0
  3 11  1  0  0  0  0
  4 13  1  0  0  0  0
  6 18  1  0  0  0  0
  7  9  1  0  0  0  0
  9 13  2  0  0  0  0
 10 17  1  0  0  0  0
 11 16  1  1  0  0  0
 12  1  1  0  0  0  0
 12  2  1  0  0  0  0
 13  5  1  0  0  0  0
 14  4  2  0  0  0  0
 16 14  1  0  0  0  0
 16  7  2  0  0  0  0
 17  8  1  6  0  0  0
 18 14  1  0  0  0  0
 19 10  1  0  0  0  0
 20 19  1  0  0  0  0
 20 15  1  0  0  0  0
 21 17  1  0  0  0  0
 22 25  2  0  0  0  0
 22 26  1  0  0  0  0
 23 12  1  0  0  0  0
 24 23  2  0  0  0  0
 25 24  1  0  0  0  0
 26 27  2  0  0  0  0
 27 23  1  0  0  0  0
M  END
>  <MODEL>
6

>  <REMARK>
 VINA RESULT:      -7.5      4.064      7.596
  Name = 
  1 active torsions:
  status: ('A' for Active; 'I' for Inactive)
    1  A    between atoms: C_9  and  N_15
                            x       y       z     vdW  Elec       q    Type
                         _______ _______ _______ _____ _____    ______ ____

>  <TORSDO>
F 1

$$$$
=
 OpenBabel10272400593D

 27 31  0  0  1  0  0  0  0  0999 V2000
  190.2860  175.5820  138.0980 C   0  0  2  0  0  3  0  0  0  0  0  0
  191.6400  177.2620  139.1540 C   0  0  2  0  0  3  0  0  0  0  0  0
  189.2970  176.5760  138.7370 C   0  0  1  0  0  3  0  0  0  0  0  0
  190.7170  177.3100  143.3950 C   0  0  0  0  0  3  0  0  0  0  0  0
  189.1740  177.0050  145.1850 F   0  0  0  0  0  0  0  0  0  0  0  0
  192.6040  176.8550  140.2800 C   0  0  0  0  0  2  0  0  0  0  0  0
  188.6080  177.0930  141.5730 C   0  0  0  0  0  3  0  0  0  0  0  0
  186.5360  178.0400  136.4230 C   0  0  0  0  0  1  0  0  0  0  0  0
  188.3610  176.9940  142.9450 C   0  0  0  0  0  3  0  0  0  0  0  0
  187.4180  175.7650  136.5050 O   0  0  0  0  0  0  0  0  0  0  0  0
  190.1760  177.4610  139.6190 C   0  0  1  0  0  3  0  0  0  0  0  0
  191.5990  176.2120  138.1430 N   0  0  0  0  0  0  0  0  0  0  0  0
  189.4150  177.0970  143.8550 C   0  0  0  0  0  0  0  0  0  0  0  0
  190.9700  177.3990  142.0230 C   0  0  0  0  0  0  0  0  0  0  0  0
  189.9210  174.9480  136.7440 C   0  0  0  0  0  2  0  0  0  0  0  0
  189.9160  177.2760  141.0980 C   0  0  0  0  0  0  0  0  0  0  0  0
  187.2950  176.9830  137.2130 C   0  0  1  0  0  3  0  0  0  0  0  0
  192.3570  177.6630  141.5430 C   0  0  0  0  0  2  0  0  0  0  0  0
  188.2450  175.9350  135.3680 C   0  0  0  0  0  2  0  0  0  0  0  0
  189.6680  175.9550  135.7220 N   0  0  0  0  0  2  0  0  0  0  0  0
  188.6210  177.5290  137.7480 C   0  0  0  0  0  2  0  0  0  0  0  0
  195.0600  174.7730  136.1360 C   0  0  0  0  0  3  0  0  0  0  0  0
  192.7800  175.7350  137.4660 C   0  0  0  0  0  0  0  0  0  0  0  0
  193.2610  174.4410  137.7210 C   0  0  0  0  0  3  0  0  0  0  0  0
  194.3960  173.9630  137.0610 C   0  0  0  0  0  3  0  0  0  0  0  0
  194.5870  176.0610  135.8710 C   0  0  0  0  0  3  0  0  0  0  0  0
  193.4510  176.5380  136.5320 C   0  0  0  0  0  3  0  0  0  0  0  0
  1 15  1  6  0  0  0
  1 12  1  0  0  0  0
  1  3  1  0  0  0  0
  2 11  1  0  0  0  0
  2  6  1  1  0  0  0
  3 21  1  6  0  0  0
  3 11  1  0  0  0  0
  4 13  1  0  0  0  0
  6 18  1  0  0  0  0
  7  9  1  0  0  0  0
  9 13  2  0  0  0  0
 10 17  1  0  0  0  0
 11 16  1  1  0  0  0
 12  2  1  0  0  0  0
 13  5  1  0  0  0  0
 14  4  2  0  0  0  0
 16  7  2  0  0  0  0
 16 14  1  0  0  0  0
 17  8  1  6  0  0  0
 17 21  1  0  0  0  0
 18 14  1  0  0  0  0
 19 20  1  0  0  0  0
 19 10  1  0  0  0  0
 20 15  1  0  0  0  0
 22 25  1  0  0  0  0
 23 24  1  0  0  0  0
 23 12  1  0  0  0  0
 25 24  2  0  0  0  0
 26 22  2  0  0  0  0
 26 27  1  0  0  0  0
 27 23  2  0  0  0  0
M  END
>  <MODEL>
7

>  <REMARK>
 VINA RESULT:      -7.5      4.556      8.191
  Name = 
  1 active torsions:
  status: ('A' for Active; 'I' for Inactive)
    1  A    between atoms: C_9  and  N_15
                            x       y       z     vdW  Elec       q    Type
                         _______ _______ _______ _____ _____    ______ ____

>  <TORSDO>
F 1

$$$$
=
 OpenBabel10272400593D

 27 31  0  0  1  0  0  0  0  0999 V2000
  186.9850  178.7820  144.1860 C   0  0  2  0  0  3  0  0  0  0  0  0
  188.1150  176.6800  143.9120 C   0  0  2  0  0  3  0  0  0  0  0  0
  186.5510  178.2500  142.8060 C   0  0  1  0  0  3  0  0  0  0  0  0
  190.6190  176.9130  140.3740 C   0  0  0  0  0  3  0  0  0  0  0  0
  191.0520  177.7690  138.1920 F   0  0  0  0  0  0  0  0  0  0  0  0
  189.6510  176.6460  143.9040 C   0  0  0  0  0  2  0  0  0  0  0  0
  188.0420  177.9900  140.2570 C   0  0  0  0  0  3  0  0  0  0  0  0
  182.7280  178.0560  142.1200 C   0  0  0  0  0  1  0  0  0  0  0  0
  188.9160  178.1500  139.1800 C   0  0  0  0  0  3  0  0  0  0  0  0
  183.9880  179.7890  143.2900 O   0  0  0  0  0  0  0  0  0  0  0  0
  187.4860  177.0700  142.5500 C   0  0  1  0  0  3  0  0  0  0  0  0
  187.6530  177.6810  144.8650 N   0  0  0  0  0  0  0  0  0  0  0  0
  190.2060  177.6170  139.2400 C   0  0  0  0  0  0  0  0  0  0  0  0
  189.7500  176.7600  141.4590 C   0  0  0  0  0  0  0  0  0  0  0  0
  185.9510  179.5380  145.0410 C   0  0  0  0  0  2  0  0  0  0  0  0
  188.4560  177.3120  141.4140 C   0  0  0  0  0  0  0  0  0  0  0  0
  184.0780  178.7050  142.3850 C   0  0  1  0  0  3  0  0  0  0  0  0
  190.1870  175.9760  142.6490 C   0  0  0  0  0  2  0  0  0  0  0  0
  183.6250  179.3280  144.5780 C   0  0  0  0  0  2  0  0  0  0  0  0
  184.7610  178.7360  145.2910 N   0  0  0  0  0  2  0  0  0  0  0  0
  185.1360  177.6660  142.7620 C   0  0  0  0  0  2  0  0  0  0  0  0
  188.7770  177.6660  148.9660 C   0  0  0  0  0  3  0  0  0  0  0  0
  188.0300  177.6630  146.2580 C   0  0  0  0  0  0  0  0  0  0  0  0
  189.3280  178.0390  146.6390 C   0  0  0  0  0  3  0  0  0  0  0  0
  189.7000  178.0380  147.9860 C   0  0  0  0  0  3  0  0  0  0  0  0
  187.4810  177.2950  148.5980 C   0  0  0  0  0  3  0  0  0  0  0  0
  187.1090  177.2960  147.2510 C   0  0  0  0  0  3  0  0  0  0  0  0
  1 12  1  0  0  0  0
  1 15  1  1  0  0  0
  2  6  1  6  0  0  0
  2 12  1  0  0  0  0
  3 21  1  1  0  0  0
  3  1  1  0  0  0  0
  4 14  1  0  0  0  0
  5 13  1  0  0  0  0
  7 16  1  0  0  0  0
  9 13  1  0  0  0  0
  9  7  2  0  0  0  0
 10 19  1  0  0  0  0
 11 16  1  6  0  0  0
 11  3  1  0  0  0  0
 11  2  1  0  0  0  0
 12 23  1  0  0  0  0
 13  4  2  0  0  0  0
 14 18  1  0  0  0  0
 15 20  1  0  0  0  0
 16 14  2  0  0  0  0
 17  8  1  1  0  0  0
 17 21  1  0  0  0  0
 17 10  1  0  0  0  0
 18  6  1  0  0  0  0
 19 20  1  0  0  0  0
 23 24  2  0  0  0  0
 23 27  1  0  0  0  0
 24 25  1  0  0  0  0
 25 22  2  0  0  0  0
 26 22  1  0  0  0  0
 27 26  2  0  0  0  0
M  END
>  <MODEL>
8

>  <REMARK>
 VINA RESULT:      -7.4      2.739      5.372
  Name = 
  1 active torsions:
  status: ('A' for Active; 'I' for Inactive)
    1  A    between atoms: C_9  and  N_15
                            x       y       z     vdW  Elec       q    Type
                         _______ _______ _______ _____ _____    ______ ____

>  <TORSDO>
F 1

$$$$
=
 OpenBabel10272400593D

 27 31  0  0  1  0  0  0  0  0999 V2000
  188.5410  177.1210  141.0040 C   0  0  2  0  0  3  0  0  0  0  0  0
  187.4960  178.9710  142.1250 C   0  0  2  0  0  3  0  0  0  0  0  0
  187.6510  177.8030  139.9470 C   0  0  1  0  0  3  0  0  0  0  0  0
  183.1920  178.4430  141.9360 C   0  0  0  0  0  3  0  0  0  0  0  0
  181.2480  177.6400  140.8150 F   0  0  0  0  0  0  0  0  0  0  0  0
  186.5780  178.7020  143.3280 C   0  0  0  0  0  2  0  0  0  0  0  0
  184.7040  177.9030  139.6480 C   0  0  0  0  0  3  0  0  0  0  0  0
  189.3500  178.7850  136.5890 C   0  0  0  0  0  1  0  0  0  0  0  0
  183.3330  177.6330  139.6600 C   0  0  0  0  0  3  0  0  0  0  0  0
  189.6710  176.7750  137.9380 O   0  0  0  0  0  0  0  0  0  0  0  0
  186.8050  178.7880  140.7500 C   0  0  1  0  0  3  0  0  0  0  0  0
  188.6090  178.0300  142.1400 N   0  0  0  0  0  0  0  0  0  0  0  0
  182.5790  177.8970  140.8050 C   0  0  0  0  0  0  0  0  0  0  0  0
  184.5650  178.7050  141.9310 C   0  0  0  0  0  0  0  0  0  0  0  0
  189.8950  176.5380  140.5610 C   0  0  0  0  0  2  0  0  0  0  0  0
  185.3360  178.4220  140.7880 C   0  0  0  0  0  0  0  0  0  0  0  0
  188.8110  177.8680  137.6780 C   0  0  1  0  0  3  0  0  0  0  0  0
  185.2040  179.3210  143.1280 C   0  0  0  0  0  2  0  0  0  0  0  0
  190.8860  177.2270  138.5080 C   0  0  0  0  0  2  0  0  0  0  0  0
  190.7410  177.5440  139.9320 N   0  0  0  0  0  2  0  0  0  0  0  0
  188.4100  178.6560  138.9270 C   0  0  0  0  0  2  0  0  0  0  0  0
  191.2450  177.5990  145.4490 C   0  0  0  0  0  3  0  0  0  0  0  0
  189.5020  177.8970  143.2660 C   0  0  0  0  0  0  0  0  0  0  0  0
  189.2720  176.9040  144.2310 C   0  0  0  0  0  3  0  0  0  0  0  0
  190.1370  176.7570  145.3180 C   0  0  0  0  0  3  0  0  0  0  0  0
  191.4870  178.5870  144.4910 C   0  0  0  0  0  3  0  0  0  0  0  0
  190.6200  178.7330  143.4030 C   0  0  0  0  0  3  0  0  0  0  0  0
  1 15  1  6  0  0  0
  1 12  1  0  0  0  0
  2 12  1  0  0  0  0
  2  6  1  1  0  0  0
  3 21  1  6  0  0  0
  3 11  1  0  0  0  0
  3  1  1  0  0  0  0
  7  9  2  0  0  0  0
  7 16  1  0  0  0  0
  9 13  1  0  0  0  0
 10 19  1  0  0  0  0
 11 16  1  1  0  0  0
 11  2  1  0  0  0  0
 12 23  1  0  0  0  0
 13  5  1  0  0  0  0
 13  4  2  0  0  0  0
 14  4  1  0  0  0  0
 14 18  1  0  0  0  0
 16 14  2  0  0  0  0
 17  8  1  6  0  0  0
 17 10  1  0  0  0  0
 17 21  1  0  0  0  0
 18  6  1  0  0  0  0
 19 20  1  0  0  0  0
 20 15  1  0  0  0  0
 23 27  2  0  0  0  0
 23 24  1  0  0  0  0
 24 25  2  0  0  0  0
 25 22  1  0  0  0  0
 26 22  2  0  0  0  0
 27 26  1  0  0  0  0
M  END
>  <MODEL>
9

>  <REMARK>
 VINA RESULT:      -7.3      1.814      2.585
  Name = 
  1 active torsions:
  status: ('A' for Active; 'I' for Inactive)
    1  A    between atoms: C_9  and  N_15
                            x       y       z     vdW  Elec       q    Type
                         _______ _______ _______ _____ _____    ______ ____

>  <TORSDO>
F 1

$$$$
