=
 OpenBabel10272413353D

 32 35  0  0  1  0  0  0  0  0999 V2000
  185.4930  178.8270  141.7560 C   0  0  0  0  0  0  0  0  0  0  0  0
  188.7790  177.5060  137.4750 O   0  0  0  0  0  0  0  0  0  0  0  0
  188.0280  178.4830  136.8060 C   0  0  0  0  0  2  0  0  0  0  0  0
  186.4070  177.8870  144.2250 C   0  0  0  0  0  0  0  0  0  0  0  0
  186.7150  178.0750  141.8360 N   0  0  0  0  0  0  0  0  0  0  0  0
  188.9160  177.9600  138.7970 C   0  0  0  0  0  2  0  0  0  0  0  0
  187.8050  178.4170  140.9290 C   0  0  0  0  0  2  0  0  0  0  0  0
  187.5780  177.8740  139.5350 C   0  0  1  0  0  3  0  0  0  0  0  0
  185.1150  178.3590  139.3560 C   0  0  1  0  0  3  0  0  0  0  0  0
  187.0670  177.4960  143.1100 C   0  0  0  0  0  0  0  0  0  0  0  0
  185.3550  178.8650  144.1390 N   0  0  0  0  0  0  0  0  0  0  0  0
  186.5830  178.4230  137.2870 C   0  0  0  0  0  2  0  0  0  0  0  0
  186.5110  178.7040  138.8000 C   0  0  2  0  0  3  0  0  0  0  0  0
  184.9060  179.3140  143.0050 C   0  0  0  0  0  3  0  0  0  0  0  0
  184.8380  178.9910  140.6470 N   0  0  0  0  0  0  0  0  0  0  0  0
  181.8930  180.0730  138.0520 C   0  0  0  0  0  0  0  0  0  0  0  0
  181.2380  179.0420  137.5190 C   0  0  0  0  0  3  0  0  0  0  0  0
  183.1180  177.4930  138.1250 N   0  0  0  0  0  0  0  0  0  0  0  0
  181.0930  176.7060  137.2360 O   0  0  0  0  0  0  0  0  0  0  0  0
  181.7870  177.6860  137.6180 C   0  0  0  0  0  0  0  0  0  0  0  0
  183.1250  179.8600  138.8820 C   0  0  0  0  0  2  0  0  0  0  0  0
  181.3770  181.3200  137.9390 F   0  0  0  0  0  0  0  0  0  0  0  0
  183.7200  176.1660  138.0400 C   0  0  0  0  0  1  0  0  0  0  0  0
  183.9630  178.6710  138.3800 C   0  0  1  0  0  3  0  0  0  0  0  0
  189.4630  177.1610  143.6640 C   0  0  0  0  0  1  0  0  0  0  0  0
  188.1850  176.4950  143.1850 C   0  0  0  0  0  2  0  0  0  0  0  0
  186.7700  177.3550  145.5780 C   0  0  0  0  0  2  0  0  0  0  0  0
  185.3050  178.5360  147.2060 C   0  0  0  0  0  1  0  0  0  0  0  0
  186.7080  178.4530  146.6280 C   0  0  1  0  0  3  0  0  0  0  0  0
  187.7080  178.1440  147.7300 C   0  0  0  0  0  2  0  0  0  0  0  0
  188.5150  176.8960  147.4050 C   0  0  0  0  0  2  0  0  0  0  0  0
  190.0020  177.1930  147.4430 C   0  0  0  0  0  1  0  0  0  0  0  0
  1  5  1  0  0  0  0
  1 14  1  0  0  0  0
  2  6  1  0  0  0  0
  3 12  1  0  0  0  0
  3  2  1  0  0  0  0
  4 27  1  0  0  0  0
  5 10  1  0  0  0  0
  7  5  1  0  0  0  0
  8  6  1  6  0  0  0
  8  7  1  0  0  0  0
  9 15  1  1  0  0  0
 10 26  1  0  0  0  0
 10  4  2  0  0  0  0
 11  4  1  0  0  0  0
 13 12  1  6  0  0  0
 13  9  1  0  0  0  0
 13  8  1  0  0  0  0
 14 11  2  0  0  0  0
 15  1  2  0  0  0  0
 16 21  1  0  0  0  0
 17 20  1  0  0  0  0
 17 16  2  0  0  0  0
 18 24  1  0  0  0  0
 19 20  2  0  0  0  0
 20 18  1  0  0  0  0
 22 16  1  0  0  0  0
 23 18  1  0  0  0  0
 24 21  1  1  0  0  0
 24  9  1  0  0  0  0
 26 25  1  0  0  0  0
 27 29  1  0  0  0  0
 29 28  1  1  0  0  0
 29 30  1  0  0  0  0
 31 32  1  0  0  0  0
 31 30  1  0  0  0  0
M  END
>  <MODEL>
1

>  <REMARK>
 VINA RESULT:      -7.8      0.000      0.000
  Name = 
  6 active torsions:
  status: ('A' for Active; 'I' for Inactive)
    1  A    between atoms: C_1  and  C_10
    2  A    between atoms: C_8  and  C_19
    3  A    between atoms: C_10  and  C_24
    4  A    between atoms: C_12  and  C_21
    5  A    between atoms: C_16  and  C_32
    6  A    between atoms: C_19  and  C_24
                            x       y       z     vdW  Elec       q    Type
                         _______ _______ _______ _____ _____    ______ ____

>  <TORSDO>
F 6

$$$$
=
 OpenBabel10272413353D

 32 35  0  0  1  0  0  0  0  0999 V2000
  188.7150  177.4450  140.0680 C   0  0  0  0  0  0  0  0  0  0  0  0
  193.6650  175.9070  138.0650 O   0  0  0  0  0  0  0  0  0  0  0  0
  193.2690  176.6650  136.9530 C   0  0  0  0  0  2  0  0  0  0  0  0
  188.4180  177.0220  142.8150 C   0  0  0  0  0  0  0  0  0  0  0  0
  189.7910  176.8750  140.8330 N   0  0  0  0  0  0  0  0  0  0  0  0
  193.1530  176.5730  139.1900 C   0  0  0  0  0  2  0  0  0  0  0  0
  191.1620  177.2090  140.4630 C   0  0  0  0  0  2  0  0  0  0  0  0
  191.6300  176.4330  139.2510 C   0  0  1  0  0  3  0  0  0  0  0  0
  189.5140  176.5670  137.8960 C   0  0  1  0  0  3  0  0  0  0  0  0
  189.5350  176.5500  142.2150 C   0  0  0  0  0  0  0  0  0  0  0  0
  187.4860  177.8330  142.0770 N   0  0  0  0  0  0  0  0  0  0  0  0
  191.7700  176.4970  136.7370 C   0  0  0  0  0  2  0  0  0  0  0  0
  190.9930  176.9970  137.9700 C   0  0  2  0  0  3  0  0  0  0  0  0
  187.5960  178.0400  140.7990 C   0  0  0  0  0  3  0  0  0  0  0  0
  188.6430  177.3510  138.7750 N   0  0  0  0  0  0  0  0  0  0  0  0
  187.2070  177.6460  134.9750 C   0  0  0  0  0  0  0  0  0  0  0  0
  186.9050  176.4710  134.4240 C   0  0  0  0  0  3  0  0  0  0  0  0
  188.3410  175.2790  136.1030 N   0  0  0  0  0  0  0  0  0  0  0  0
  186.9820  174.1200  134.5790 O   0  0  0  0  0  0  0  0  0  0  0  0
  187.3900  175.2250  135.0270 C   0  0  0  0  0  0  0  0  0  0  0  0
  187.9210  177.7210  136.2930 C   0  0  0  0  0  2  0  0  0  0  0  0
  186.7620  178.7870  134.3970 F   0  0  0  0  0  0  0  0  0  0  0  0
  188.9560  174.0380  136.5630 C   0  0  0  0  0  1  0  0  0  0  0  0
  188.9340  176.5760  136.4680 C   0  0  1  0  0  3  0  0  0  0  0  0
  191.4650  176.6170  143.7760 C   0  0  0  0  0  1  0  0  0  0  0  0
  190.5320  175.7230  142.9780 C   0  0  0  0  0  2  0  0  0  0  0  0
  188.1340  176.7560  144.2620 C   0  0  0  0  0  2  0  0  0  0  0  0
  186.5960  178.1860  145.5960 C   0  0  0  0  0  1  0  0  0  0  0  0
  188.0030  178.0570  145.0380 C   0  0  1  0  0  3  0  0  0  0  0  0
  189.0150  178.0620  146.1720 C   0  0  0  0  0  2  0  0  0  0  0  0
  188.5260  177.2330  147.3500 C   0  0  0  0  0  2  0  0  0  0  0  0
  188.5760  178.0400  148.6330 C   0  0  0  0  0  1  0  0  0  0  0  0
  1 14  1  0  0  0  0
  1  5  1  0  0  0  0
  2  6  1  0  0  0  0
  3  2  1  0  0  0  0
  4 27  1  0  0  0  0
  5 10  1  0  0  0  0
  7  5  1  0  0  0  0
  8  6  1  6  0  0  0
  8  7  1  0  0  0  0
  9 13  1  0  0  0  0
  9 15  1  1  0  0  0
 10  4  2  0  0  0  0
 10 26  1  0  0  0  0
 11  4  1  0  0  0  0
 12  3  1  0  0  0  0
 13 12  1  6  0  0  0
 13  8  1  0  0  0  0
 14 11  2  0  0  0  0
 15  1  2  0  0  0  0
 16 21  1  0  0  0  0
 17 16  2  0  0  0  0
 17 20  1  0  0  0  0
 18 24  1  0  0  0  0
 18 23  1  0  0  0  0
 19 20  2  0  0  0  0
 20 18  1  0  0  0  0
 22 16  1  0  0  0  0
 24 21  1  1  0  0  0
 24  9  1  0  0  0  0
 26 25  1  0  0  0  0
 27 29  1  0  0  0  0
 29 28  1  1  0  0  0
 29 30  1  0  0  0  0
 30 31  1  0  0  0  0
 31 32  1  0  0  0  0
M  END
>  <MODEL>
2

>  <REMARK>
 VINA RESULT:      -7.8      3.624      4.596
  Name = 
  6 active torsions:
  status: ('A' for Active; 'I' for Inactive)
    1  A    between atoms: C_1  and  C_10
    2  A    between atoms: C_8  and  C_19
    3  A    between atoms: C_10  and  C_24
    4  A    between atoms: C_12  and  C_21
    5  A    between atoms: C_16  and  C_32
    6  A    between atoms: C_19  and  C_24
                            x       y       z     vdW  Elec       q    Type
                         _______ _______ _______ _____ _____    ______ ____

>  <TORSDO>
F 6

$$$$
=
 OpenBabel10272413353D

 32 35  0  0  1  0  0  0  0  0999 V2000
  187.8450  178.4040  141.1370 C   0  0  0  0  0  0  0  0  0  0  0  0
  183.4700  178.4160  144.5610 O   0  0  0  0  0  0  0  0  0  0  0  0
  184.4320  178.7460  145.5270 C   0  0  0  0  0  2  0  0  0  0  0  0
  187.1680  178.4470  138.4250 C   0  0  0  0  0  0  0  0  0  0  0  0
  186.4660  178.4270  140.7360 N   0  0  0  0  0  0  0  0  0  0  0  0
  183.8730  179.0560  143.3780 C   0  0  0  0  0  2  0  0  0  0  0  0
  185.5120  179.1580  141.5630 C   0  0  0  0  0  2  0  0  0  0  0  0
  185.1240  178.3850  142.8050 C   0  0  1  0  0  3  0  0  0  0  0  0
  187.3960  177.4720  143.3850 C   0  0  1  0  0  3  0  0  0  0  0  0
  186.1710  178.3070  139.3290 C   0  0  0  0  0  0  0  0  0  0  0  0
  188.5150  178.7010  138.8650 N   0  0  0  0  0  0  0  0  0  0  0  0
  185.7270  178.0040  145.2210 C   0  0  0  0  0  2  0  0  0  0  0  0
  186.2640  178.4160  143.8370 C   0  0  2  0  0  3  0  0  0  0  0  0
  188.8590  178.6810  140.1180 C   0  0  0  0  0  3  0  0  0  0  0  0
  188.2290  178.0400  142.3230 N   0  0  0  0  0  0  0  0  0  0  0  0
  189.4800  177.7150  146.6440 C   0  0  0  0  0  0  0  0  0  0  0  0
  190.5620  177.0070  146.3240 C   0  0  0  0  0  3  0  0  0  0  0  0
  189.6100  176.5190  144.0530 N   0  0  0  0  0  0  0  0  0  0  0  0
  191.7980  175.9090  144.6430 O   0  0  0  0  0  0  0  0  0  0  0  0
  190.7110  176.4540  144.9730 C   0  0  0  0  0  0  0  0  0  0  0  0
  188.4630  178.0860  145.6040 C   0  0  0  0  0  2  0  0  0  0  0  0
  189.3530  178.2060  147.9000 F   0  0  0  0  0  0  0  0  0  0  0  0
  189.7060  175.8010  142.7850 C   0  0  0  0  0  1  0  0  0  0  0  0
  188.3010  176.9900  144.5360 C   0  0  1  0  0  3  0  0  0  0  0  0
  183.9920  179.3770  138.8100 C   0  0  0  0  0  1  0  0  0  0  0  0
  184.7550  178.0660  138.8860 C   0  0  0  0  0  2  0  0  0  0  0  0
  186.9060  178.3830  136.9510 C   0  0  0  0  0  2  0  0  0  0  0  0
  186.1370  176.4330  135.6110 C   0  0  0  0  0  1  0  0  0  0  0  0
  187.3000  177.0270  136.3870 C   0  0  1  0  0  3  0  0  0  0  0  0
  188.5020  177.2000  135.4740 C   0  0  0  0  0  2  0  0  0  0  0  0
  189.7800  176.7290  136.1510 C   0  0  0  0  0  2  0  0  0  0  0  0
  189.4840  175.6240  137.1470 C   0  0  0  0  0  1  0  0  0  0  0  0
  1 15  2  0  0  0  0
  2  3  1  0  0  0  0
  4 11  1  0  0  0  0
  4 10  2  0  0  0  0
  5  1  1  0  0  0  0
  5  7  1  0  0  0  0
  6  2  1  0  0  0  0
  8  7  1  6  0  0  0
  8  6  1  0  0  0  0
  8 13  1  0  0  0  0
  9 15  1  6  0  0  0
  9 13  1  0  0  0  0
  9 24  1  0  0  0  0
 10  5  1  0  0  0  0
 11 14  2  0  0  0  0
 12  3  1  0  0  0  0
 13 12  1  1  0  0  0
 14  1  1  0  0  0  0
 16 22  1  0  0  0  0
 17 16  2  0  0  0  0
 18 24  1  0  0  0  0
 18 20  1  0  0  0  0
 19 20  2  0  0  0  0
 20 17  1  0  0  0  0
 21 16  1  0  0  0  0
 23 18  1  0  0  0  0
 24 21  1  1  0  0  0
 25 26  1  0  0  0  0
 26 10  1  0  0  0  0
 27  4  1  0  0  0  0
 29 28  1  6  0  0  0
 29 27  1  0  0  0  0
 30 31  1  0  0  0  0
 30 29  1  0  0  0  0
 31 32  1  0  0  0  0
M  END
>  <MODEL>
3

>  <REMARK>
 VINA RESULT:      -7.2      3.503      8.560
  Name = 
  6 active torsions:
  status: ('A' for Active; 'I' for Inactive)
    1  A    between atoms: C_1  and  C_10
    2  A    between atoms: C_8  and  C_19
    3  A    between atoms: C_10  and  C_24
    4  A    between atoms: C_12  and  C_21
    5  A    between atoms: C_16  and  C_32
    6  A    between atoms: C_19  and  C_24
                            x       y       z     vdW  Elec       q    Type
                         _______ _______ _______ _____ _____    ______ ____

>  <TORSDO>
F 6

$$$$
=
 OpenBabel10272413353D

 32 35  0  0  1  0  0  0  0  0999 V2000
  185.4560  178.5220  143.2640 C   0  0  0  0  0  0  0  0  0  0  0  0
  187.1960  177.8670  138.0280 O   0  0  0  0  0  0  0  0  0  0  0  0
  186.2040  178.8190  137.7510 C   0  0  0  0  0  2  0  0  0  0  0  0
  187.2010  177.4780  145.1820 C   0  0  0  0  0  0  0  0  0  0  0  0
  186.6790  177.8850  142.8590 N   0  0  0  0  0  0  0  0  0  0  0  0
  187.7380  178.2230  139.2730 C   0  0  0  0  0  2  0  0  0  0  0  0
  187.3790  178.4000  141.6880 C   0  0  0  0  0  2  0  0  0  0  0  0
  186.7330  177.9520  140.3950 C   0  0  1  0  0  3  0  0  0  0  0  0
  184.3270  178.2150  141.0840 C   0  0  1  0  0  3  0  0  0  0  0  0
  187.4720  177.2410  143.8780 C   0  0  0  0  0  0  0  0  0  0  0  0
  186.1210  178.3560  145.5510 N   0  0  0  0  0  0  0  0  0  0  0  0
  185.0110  178.5840  138.6680 C   0  0  0  0  0  2  0  0  0  0  0  0
  185.4320  178.7340  140.1420 C   0  0  2  0  0  3  0  0  0  0  0  0
  185.2920  178.8500  144.6810 C   0  0  0  0  0  3  0  0  0  0  0  0
  184.4590  178.7130  142.4550 N   0  0  0  0  0  0  0  0  0  0  0  0
  180.6650  179.4770  141.2160 C   0  0  0  0  0  0  0  0  0  0  0  0
  180.0160  178.4800  140.6160 C   0  0  0  0  0  3  0  0  0  0  0  0
  182.1750  177.2560  140.2450 N   0  0  0  0  0  0  0  0  0  0  0  0
  180.0940  176.2890  139.7510 O   0  0  0  0  0  0  0  0  0  0  0  0
  180.7400  177.2790  140.1860 C   0  0  0  0  0  0  0  0  0  0  0  0
  182.1110  179.3420  141.5940 C   0  0  0  0  0  2  0  0  0  0  0  0
  179.9820  180.5850  141.5930 F   0  0  0  0  0  0  0  0  0  0  0  0
  182.8870  176.1340  139.6400 C   0  0  0  0  0  1  0  0  0  0  0  0
  182.8970  178.4950  140.5780 C   0  0  1  0  0  3  0  0  0  0  0  0
  189.8700  177.1650  143.2400 C   0  0  0  0  0  1  0  0  0  0  0  0
  188.6120  176.3480  143.4750 C   0  0  0  0  0  2  0  0  0  0  0  0
  188.0280  176.8750  146.2770 C   0  0  0  0  0  2  0  0  0  0  0  0
  187.9130  178.4450  148.2040 C   0  0  0  0  0  1  0  0  0  0  0  0
  188.7710  177.9520  147.0520 C   0  0  1  0  0  3  0  0  0  0  0  0
  190.0730  177.3740  147.5810 C   0  0  0  0  0  2  0  0  0  0  0  0
  190.9890  176.9480  146.4440 C   0  0  0  0  0  2  0  0  0  0  0  0
  191.9250  175.8430  146.8920 C   0  0  0  0  0  1  0  0  0  0  0  0
  1 14  1  0  0  0  0
  2  6  1  0  0  0  0
  3  2  1  0  0  0  0
  3 12  1  0  0  0  0
  4 11  1  0  0  0  0
  4 27  1  0  0  0  0
  5  1  1  0  0  0  0
  5 10  1  0  0  0  0
  7  5  1  0  0  0  0
  8  6  1  6  0  0  0
  8  7  1  0  0  0  0
  9 15  1  1  0  0  0
 10  4  2  0  0  0  0
 13 12  1  6  0  0  0
 13  8  1  0  0  0  0
 13  9  1  0  0  0  0
 14 11  2  0  0  0  0
 15  1  2  0  0  0  0
 16 22  1  0  0  0  0
 16 21  1  0  0  0  0
 17 16  2  0  0  0  0
 18 24  1  0  0  0  0
 19 20  2  0  0  0  0
 20 18  1  0  0  0  0
 20 17  1  0  0  0  0
 23 18  1  0  0  0  0
 24  9  1  0  0  0  0
 24 21  1  1  0  0  0
 25 26  1  0  0  0  0
 26 10  1  0  0  0  0
 27 29  1  0  0  0  0
 29 30  1  0  0  0  0
 29 28  1  1  0  0  0
 31 32  1  0  0  0  0
 31 30  1  0  0  0  0
M  END
>  <MODEL>
4

>  <REMARK>
 VINA RESULT:      -7.2      1.850      2.165
  Name = 
  6 active torsions:
  status: ('A' for Active; 'I' for Inactive)
    1  A    between atoms: C_1  and  C_10
    2  A    between atoms: C_8  and  C_19
    3  A    between atoms: C_10  and  C_24
    4  A    between atoms: C_12  and  C_21
    5  A    between atoms: C_16  and  C_32
    6  A    between atoms: C_19  and  C_24
                            x       y       z     vdW  Elec       q    Type
                         _______ _______ _______ _____ _____    ______ ____

>  <TORSDO>
F 6

$$$$
=
 OpenBabel10272413353D

 32 35  0  0  1  0  0  0  0  0999 V2000
  186.8560  178.4120  140.0750 C   0  0  0  0  0  0  0  0  0  0  0  0
  188.9030  176.9870  135.1100 O   0  0  0  0  0  0  0  0  0  0  0  0
  187.8370  177.7600  134.6280 C   0  0  0  0  0  2  0  0  0  0  0  0
  188.6010  177.9320  142.2050 C   0  0  0  0  0  0  0  0  0  0  0  0
  188.1540  177.8440  139.8330 N   0  0  0  0  0  0  0  0  0  0  0  0
  189.3470  177.6240  136.2800 C   0  0  0  0  0  2  0  0  0  0  0  0
  188.8550  178.2050  138.6060 C   0  0  0  0  0  2  0  0  0  0  0  0
  188.3200  177.4600  137.4030 C   0  0  1  0  0  3  0  0  0  0  0  0
  185.8690  177.5880  137.9600 C   0  0  1  0  0  3  0  0  0  0  0  0
  188.9570  177.4890  140.9770 C   0  0  0  0  0  0  0  0  0  0  0  0
  187.4230  178.7430  142.3700 N   0  0  0  0  0  0  0  0  0  0  0  0
  186.6300  177.5740  135.5390 C   0  0  0  0  0  2  0  0  0  0  0  0
  186.9620  178.0380  136.9690 C   0  0  2  0  0  3  0  0  0  0  0  0
  186.5910  178.9770  141.3990 C   0  0  0  0  0  3  0  0  0  0  0  0
  185.8850  178.3420  139.2150 N   0  0  0  0  0  0  0  0  0  0  0  0
  182.1390  178.5940  137.6530 C   0  0  0  0  0  0  0  0  0  0  0  0
  181.5700  177.4260  137.3590 C   0  0  0  0  0  3  0  0  0  0  0  0
  183.8070  176.2890  137.3990 N   0  0  0  0  0  0  0  0  0  0  0  0
  181.8030  175.0870  137.1730 O   0  0  0  0  0  0  0  0  0  0  0  0
  182.3760  176.2010  137.3110 C   0  0  0  0  0  0  0  0  0  0  0  0
  183.5760  178.6680  138.0790 C   0  0  0  0  0  2  0  0  0  0  0  0
  181.3810  179.7160  137.6780 F   0  0  0  0  0  0  0  0  0  0  0  0
  184.6030  175.0890  137.1610 C   0  0  0  0  0  1  0  0  0  0  0  0
  184.4450  177.6150  137.3690 C   0  0  1  0  0  3  0  0  0  0  0  0
  191.4130  177.5590  140.6250 C   0  0  0  0  0  1  0  0  0  0  0  0
  190.1970  176.6630  140.7840 C   0  0  0  0  0  2  0  0  0  0  0  0
  189.4300  177.6350  143.4180 C   0  0  0  0  0  2  0  0  0  0  0  0
  187.5020  176.8170  144.7620 C   0  0  0  0  0  1  0  0  0  0  0  0
  188.6230  177.8400  144.6900 C   0  0  1  0  0  3  0  0  0  0  0  0
  189.5440  177.6880  145.8910 C   0  0  0  0  0  2  0  0  0  0  0  0
  188.7720  177.2380  147.1220 C   0  0  0  0  0  2  0  0  0  0  0  0
  189.0240  178.1760  148.2860 C   0  0  0  0  0  1  0  0  0  0  0  0
  1 14  1  0  0  0  0
  2  6  1  0  0  0  0
  3  2  1  0  0  0  0
  3 12  1  0  0  0  0
  4 11  1  0  0  0  0
  4 27  1  0  0  0  0
  5  1  1  0  0  0  0
  5 10  1  0  0  0  0
  7  5  1  0  0  0  0
  8  6  1  6  0  0  0
  8  7  1  0  0  0  0
  9 15  1  1  0  0  0
 10  4  2  0  0  0  0
 13 12  1  6  0  0  0
 13  8  1  0  0  0  0
 13  9  1  0  0  0  0
 14 11  2  0  0  0  0
 15  1  2  0  0  0  0
 16 22  1  0  0  0  0
 16 21  1  0  0  0  0
 17 16  2  0  0  0  0
 19 20  2  0  0  0  0
 20 17  1  0  0  0  0
 20 18  1  0  0  0  0
 23 18  1  0  0  0  0
 24 18  1  0  0  0  0
 24  9  1  0  0  0  0
 24 21  1  1  0  0  0
 25 26  1  0  0  0  0
 26 10  1  0  0  0  0
 27 29  1  0  0  0  0
 29 28  1  1  0  0  0
 29 30  1  0  0  0  0
 30 31  1  0  0  0  0
 31 32  1  0  0  0  0
M  END
>  <MODEL>
5

>  <REMARK>
 VINA RESULT:      -6.8      1.635      2.336
  Name = 
  6 active torsions:
  status: ('A' for Active; 'I' for Inactive)
    1  A    between atoms: C_1  and  C_10
    2  A    between atoms: C_8  and  C_19
    3  A    between atoms: C_10  and  C_24
    4  A    between atoms: C_12  and  C_21
    5  A    between atoms: C_16  and  C_32
    6  A    between atoms: C_19  and  C_24
                            x       y       z     vdW  Elec       q    Type
                         _______ _______ _______ _____ _____    ______ ____

>  <TORSDO>
F 6

$$$$
=
 OpenBabel10272413353D

 32 35  0  0  1  0  0  0  0  0999 V2000
  190.4170  177.5430  141.8310 C   0  0  0  0  0  0  0  0  0  0  0  0
  185.0120  178.0380  143.0230 O   0  0  0  0  0  0  0  0  0  0  0  0
  185.4920  178.5620  144.2320 C   0  0  0  0  0  2  0  0  0  0  0  0
  190.9480  177.0840  139.1260 C   0  0  0  0  0  0  0  0  0  0  0  0
  189.3370  177.4550  140.8870 N   0  0  0  0  0  0  0  0  0  0  0  0
  185.9080  178.4690  142.0310 C   0  0  0  0  0  2  0  0  0  0  0  0
  188.1610  178.2930  141.0920 C   0  0  0  0  0  2  0  0  0  0  0  0
  187.2480  177.7430  142.1660 C   0  0  1  0  0  3  0  0  0  0  0  0
  189.0160  177.0130  143.8020 C   0  0  1  0  0  3  0  0  0  0  0  0
  189.6570  177.0780  139.5320 C   0  0  0  0  0  0  0  0  0  0  0  0
  191.9950  177.4510  140.0430 N   0  0  0  0  0  0  0  0  0  0  0  0
  186.7570  177.8150  144.6360 C   0  0  0  0  0  2  0  0  0  0  0  0
  187.8470  177.9900  143.5620 C   0  0  2  0  0  3  0  0  0  0  0  0
  191.7770  177.6640  141.3060 C   0  0  0  0  0  3  0  0  0  0  0  0
  190.2460  177.4070  143.1120 N   0  0  0  0  0  0  0  0  0  0  0  0
  189.3600  177.8480  147.5710 C   0  0  0  0  0  0  0  0  0  0  0  0
  190.5140  177.2560  147.8720 C   0  0  0  0  0  3  0  0  0  0  0  0
  190.7400  176.4250  145.5140 N   0  0  0  0  0  0  0  0  0  0  0  0
  192.4550  176.1630  147.0970 O   0  0  0  0  0  0  0  0  0  0  0  0
  191.3020  176.5940  146.8260 C   0  0  0  0  0  0  0  0  0  0  0  0
  188.9070  177.9790  146.1460 C   0  0  0  0  0  2  0  0  0  0  0  0
  188.6400  178.4420  148.5530 F   0  0  0  0  0  0  0  0  0  0  0  0
  191.4540  175.6020  144.5430 C   0  0  0  0  0  1  0  0  0  0  0  0
  189.3260  176.7690  145.2920 C   0  0  1  0  0  3  0  0  0  0  0  0
  188.1380  177.9360  137.7650 C   0  0  0  0  0  1  0  0  0  0  0  0
  188.5500  176.7230  138.5800 C   0  0  0  0  0  2  0  0  0  0  0  0
  191.3280  176.7520  137.7150 C   0  0  0  0  0  2  0  0  0  0  0  0
  191.2240  174.2940  137.3460 C   0  0  0  0  0  1  0  0  0  0  0  0
  192.1380  175.4670  137.6580 C   0  0  1  0  0  3  0  0  0  0  0  0
  193.2030  175.5980  136.5820 C   0  0  0  0  0  2  0  0  0  0  0  0
  194.2510  174.5030  136.7090 C   0  0  0  0  0  2  0  0  0  0  0  0
  194.8390  174.4800  138.1060 C   0  0  0  0  0  1  0  0  0  0  0  0
  1 15  2  0  0  0  0
  2  3  1  0  0  0  0
  3 12  1  0  0  0  0
  4 10  2  0  0  0  0
  4 11  1  0  0  0  0
  5  7  1  0  0  0  0
  5  1  1  0  0  0  0
  6  8  1  0  0  0  0
  6  2  1  0  0  0  0
  8  7  1  6  0  0  0
  8 13  1  0  0  0  0
  9 15  1  6  0  0  0
  9 24  1  0  0  0  0
 10  5  1  0  0  0  0
 11 14  2  0  0  0  0
 13  9  1  0  0  0  0
 13 12  1  1  0  0  0
 14  1  1  0  0  0  0
 16 17  2  0  0  0  0
 16 22  1  0  0  0  0
 18 20  1  0  0  0  0
 20 19  2  0  0  0  0
 20 17  1  0  0  0  0
 21 16  1  0  0  0  0
 23 18  1  0  0  0  0
 24 18  1  0  0  0  0
 24 21  1  1  0  0  0
 25 26  1  0  0  0  0
 26 10  1  0  0  0  0
 27  4  1  0  0  0  0
 29 28  1  6  0  0  0
 29 27  1  0  0  0  0
 30 31  1  0  0  0  0
 30 29  1  0  0  0  0
 31 32  1  0  0  0  0
M  END
>  <MODEL>
6

>  <REMARK>
 VINA RESULT:      -6.7      4.432      9.114
  Name = 
  6 active torsions:
  status: ('A' for Active; 'I' for Inactive)
    1  A    between atoms: C_1  and  C_10
    2  A    between atoms: C_8  and  C_19
    3  A    between atoms: C_10  and  C_24
    4  A    between atoms: C_12  and  C_21
    5  A    between atoms: C_16  and  C_32
    6  A    between atoms: C_19  and  C_24
                            x       y       z     vdW  Elec       q    Type
                         _______ _______ _______ _____ _____    ______ ____

>  <TORSDO>
F 6

$$$$
=
 OpenBabel10272413353D

 32 35  0  0  1  0  0  0  0  0999 V2000
  187.5860  178.4100  139.9110 C   0  0  0  0  0  0  0  0  0  0  0  0
  188.2330  177.0830  134.5550 O   0  0  0  0  0  0  0  0  0  0  0  0
  187.1150  177.9110  134.3810 C   0  0  0  0  0  2  0  0  0  0  0  0
  189.7930  177.7940  141.5110 C   0  0  0  0  0  0  0  0  0  0  0  0
  188.7520  177.8040  139.3310 N   0  0  0  0  0  0  0  0  0  0  0  0
  188.9880  177.6630  135.5870 C   0  0  0  0  0  2  0  0  0  0  0  0
  189.1330  178.1810  137.9740 C   0  0  0  0  0  2  0  0  0  0  0  0
  188.2760  177.4980  136.9310 C   0  0  1  0  0  3  0  0  0  0  0  0
  186.0570  177.6960  138.1010 C   0  0  1  0  0  3  0  0  0  0  0  0
  189.8040  177.3800  140.2230 C   0  0  0  0  0  0  0  0  0  0  0  0
  188.7330  178.6420  141.9910 N   0  0  0  0  0  0  0  0  0  0  0  0
  186.1720  177.7370  135.5660 C   0  0  0  0  0  2  0  0  0  0  0  0
  186.8790  178.1400  136.8740 C   0  0  2  0  0  3  0  0  0  0  0  0
  187.6930  178.9380  141.2720 C   0  0  0  0  0  3  0  0  0  0  0  0
  186.4250  178.4060  139.3280 N   0  0  0  0  0  0  0  0  0  0  0  0
  182.4110  178.7990  138.8210 C   0  0  0  0  0  0  0  0  0  0  0  0
  181.7420  177.6670  138.6070 C   0  0  0  0  0  3  0  0  0  0  0  0
  183.8710  176.4840  138.0010 N   0  0  0  0  0  0  0  0  0  0  0  0
  181.8310  175.3440  138.2140 O   0  0  0  0  0  0  0  0  0  0  0  0
  182.4620  176.4330  138.2750 C   0  0  0  0  0  0  0  0  0  0  0  0
  183.9120  178.8120  138.8710 C   0  0  0  0  0  2  0  0  0  0  0  0
  181.7290  179.9320  139.1120 F   0  0  0  0  0  0  0  0  0  0  0  0
  184.5340  175.2890  137.4900 C   0  0  0  0  0  1  0  0  0  0  0  0
  184.5320  177.7960  137.8960 C   0  0  1  0  0  3  0  0  0  0  0  0
  192.2230  177.2910  139.6710 C   0  0  0  0  0  1  0  0  0  0  0  0
  190.9170  176.5170  139.6980 C   0  0  0  0  0  2  0  0  0  0  0  0
  190.8900  177.4250  142.4630 C   0  0  0  0  0  2  0  0  0  0  0  0
  191.2280  175.4830  143.9810 C   0  0  0  0  0  1  0  0  0  0  0  0
  190.3370  176.6720  143.6630 C   0  0  1  0  0  3  0  0  0  0  0  0
  190.2790  177.6130  144.8550 C   0  0  0  0  0  2  0  0  0  0  0  0
  189.1790  177.2050  145.8230 C   0  0  0  0  0  2  0  0  0  0  0  0
  187.8220  177.6530  145.3150 C   0  0  0  0  0  1  0  0  0  0  0  0
  1 14  1  0  0  0  0
  2  6  1  0  0  0  0
  3  2  1  0  0  0  0
  3 12  1  0  0  0  0
  4 11  1  0  0  0  0
  4 27  1  0  0  0  0
  5  1  1  0  0  0  0
  5 10  1  0  0  0  0
  7  5  1  0  0  0  0
  8  6  1  6  0  0  0
  8  7  1  0  0  0  0
  9 15  1  1  0  0  0
 10  4  2  0  0  0  0
 13 12  1  6  0  0  0
 13  8  1  0  0  0  0
 13  9  1  0  0  0  0
 14 11  2  0  0  0  0
 15  1  2  0  0  0  0
 16 21  1  0  0  0  0
 16 22  1  0  0  0  0
 17 16  2  0  0  0  0
 18 20  1  0  0  0  0
 19 20  2  0  0  0  0
 20 17  1  0  0  0  0
 23 18  1  0  0  0  0
 24 18  1  0  0  0  0
 24  9  1  0  0  0  0
 24 21  1  1  0  0  0
 25 26  1  0  0  0  0
 26 10  1  0  0  0  0
 27 29  1  0  0  0  0
 29 28  1  1  0  0  0
 29 30  1  0  0  0  0
 30 31  1  0  0  0  0
 32 31  1  0  0  0  0
M  END
>  <MODEL>
7

>  <REMARK>
 VINA RESULT:      -6.6      1.919      3.254
  Name = 
  6 active torsions:
  status: ('A' for Active; 'I' for Inactive)
    1  A    between atoms: C_1  and  C_10
    2  A    between atoms: C_8  and  C_19
    3  A    between atoms: C_10  and  C_24
    4  A    between atoms: C_12  and  C_21
    5  A    between atoms: C_16  and  C_32
    6  A    between atoms: C_19  and  C_24
                            x       y       z     vdW  Elec       q    Type
                         _______ _______ _______ _____ _____    ______ ____

>  <TORSDO>
F 6

$$$$
=
 OpenBabel10272413353D

 32 35  0  0  1  0  0  0  0  0999 V2000
  187.9530  177.5610  139.0580 C   0  0  0  0  0  0  0  0  0  0  0  0
  191.2370  175.1670  135.2690 O   0  0  0  0  0  0  0  0  0  0  0  0
  190.2400  175.5860  134.3760 C   0  0  0  0  0  2  0  0  0  0  0  0
  189.1920  177.9930  141.5260 C   0  0  0  0  0  0  0  0  0  0  0  0
  189.3220  177.1730  139.2580 N   0  0  0  0  0  0  0  0  0  0  0  0
  191.3280  176.1700  136.2470 C   0  0  0  0  0  2  0  0  0  0  0  0
  190.2500  177.2880  138.1390 C   0  0  0  0  0  2  0  0  0  0  0  0
  190.0890  176.1570  137.1460 C   0  0  1  0  0  3  0  0  0  0  0  0
  187.5760  176.0260  137.1530 C   0  0  1  0  0  3  0  0  0  0  0  0
  189.8680  177.2900  140.5880 C   0  0  0  0  0  0  0  0  0  0  0  0
  187.9320  178.6100  141.2020 N   0  0  0  0  0  0  0  0  0  0  0  0
  188.8780  175.4630  135.0490 C   0  0  0  0  0  2  0  0  0  0  0  0
  188.8190  176.3570  136.3020 C   0  0  2  0  0  3  0  0  0  0  0  0
  187.3310  178.4210  140.0660 C   0  0  0  0  0  3  0  0  0  0  0  0
  187.2220  177.0930  138.0920 N   0  0  0  0  0  0  0  0  0  0  0  0
  184.0460  176.4310  135.6060 C   0  0  0  0  0  0  0  0  0  0  0  0
  183.5410  175.2090  135.7680 C   0  0  0  0  0  3  0  0  0  0  0  0
  185.6820  174.4280  136.8200 N   0  0  0  0  0  0  0  0  0  0  0  0
  183.7670  173.0720  136.7410 O   0  0  0  0  0  0  0  0  0  0  0  0
  184.3110  174.1770  136.4700 C   0  0  0  0  0  0  0  0  0  0  0  0
  185.3420  176.8240  136.2530 C   0  0  0  0  0  2  0  0  0  0  0  0
  183.3250  177.3660  134.9430 F   0  0  0  0  0  0  0  0  0  0  0  0
  186.4890  173.3300  137.3440 C   0  0  0  0  0  1  0  0  0  0  0  0
  186.3340  175.6500  136.3210 C   0  0  1  0  0  3  0  0  0  0  0  0
  192.3210  177.6600  140.6890 C   0  0  0  0  0  1  0  0  0  0  0  0
  191.1960  176.6620  140.9030 C   0  0  0  0  0  2  0  0  0  0  0  0
  189.7400  178.1890  142.9070 C   0  0  0  0  0  2  0  0  0  0  0  0
  188.2720  176.3600  143.7380 C   0  0  0  0  0  1  0  0  0  0  0  0
  188.7150  177.7960  143.9590 C   0  0  1  0  0  3  0  0  0  0  0  0
  189.3380  177.9430  145.3380 C   0  0  0  0  0  2  0  0  0  0  0  0
  188.4730  177.2900  146.4050 C   0  0  0  0  0  2  0  0  0  0  0  0
  188.8330  177.8110  147.7820 C   0  0  0  0  0  1  0  0  0  0  0  0
  1  5  1  0  0  0  0
  1 14  1  0  0  0  0
  2  6  1  0  0  0  0
  3 12  1  0  0  0  0
  3  2  1  0  0  0  0
  4 27  1  0  0  0  0
  5 10  1  0  0  0  0
  7  5  1  0  0  0  0
  8  6  1  6  0  0  0
  8  7  1  0  0  0  0
  9 15  1  6  0  0  0
 10 26  1  0  0  0  0
 10  4  2  0  0  0  0
 11  4  1  0  0  0  0
 13 12  1  6  0  0  0
 13  8  1  0  0  0  0
 13  9  1  0  0  0  0
 14 11  2  0  0  0  0
 15  1  2  0  0  0  0
 16 17  2  0  0  0  0
 16 21  1  0  0  0  0
 17 20  1  0  0  0  0
 18 23  1  0  0  0  0
 20 19  2  0  0  0  0
 20 18  1  0  0  0  0
 22 16  1  0  0  0  0
 24 21  1  1  0  0  0
 24 18  1  0  0  0  0
 24  9  1  0  0  0  0
 25 26  1  0  0  0  0
 27 29  1  0  0  0  0
 29 28  1  6  0  0  0
 29 30  1  0  0  0  0
 30 31  1  0  0  0  0
 31 32  1  0  0  0  0
M  END
>  <MODEL>
8

>  <REMARK>
 VINA RESULT:      -6.5      2.943      4.051
  Name = 
  6 active torsions:
  status: ('A' for Active; 'I' for Inactive)
    1  A    between atoms: C_1  and  C_10
    2  A    between atoms: C_8  and  C_19
    3  A    between atoms: C_10  and  C_24
    4  A    between atoms: C_12  and  C_21
    5  A    between atoms: C_16  and  C_32
    6  A    between atoms: C_19  and  C_24
                            x       y       z     vdW  Elec       q    Type
                         _______ _______ _______ _____ _____    ______ ____

>  <TORSDO>
F 6

$$$$
=
 OpenBabel10272413353D

 32 35  0  0  1  0  0  0  0  0999 V2000
  188.2240  177.1190  143.3580 C   0  0  0  0  0  0  0  0  0  0  0  0
  183.6410  179.2940  145.6250 O   0  0  0  0  0  0  0  0  0  0  0  0
  183.0250  178.7890  144.4700 C   0  0  0  0  0  2  0  0  0  0  0  0
  190.3740  176.8970  145.1290 C   0  0  0  0  0  0  0  0  0  0  0  0
  188.0850  177.5500  144.7210 N   0  0  0  0  0  0  0  0  0  0  0  0
  184.6390  178.3680  145.9690 C   0  0  0  0  0  2  0  0  0  0  0  0
  186.7960  177.3710  145.3810 C   0  0  0  0  0  2  0  0  0  0  0  0
  185.7900  178.4210  144.9610 C   0  0  1  0  0  3  0  0  0  0  0  0
  186.3530  178.5000  142.5100 C   0  0  1  0  0  3  0  0  0  0  0  0
  189.2630  177.5430  145.5530 C   0  0  0  0  0  0  0  0  0  0  0  0
  190.3840  176.2320  143.8520 N   0  0  0  0  0  0  0  0  0  0  0  0
  183.9770  178.9330  143.2890 C   0  0  0  0  0  2  0  0  0  0  0  0
  185.2690  178.1330  143.5430 C   0  0  2  0  0  3  0  0  0  0  0  0
  189.4010  176.3230  143.0070 C   0  0  0  0  0  3  0  0  0  0  0  0
  187.4170  177.4990  142.4130 N   0  0  0  0  0  0  0  0  0  0  0  0
  183.9950  178.1600  139.4530 C   0  0  0  0  0  0  0  0  0  0  0  0
  184.8610  178.1890  138.4410 C   0  0  0  0  0  3  0  0  0  0  0  0
  186.7720  178.4680  140.0450 N   0  0  0  0  0  0  0  0  0  0  0  0
  187.1130  178.1360  137.7460 O   0  0  0  0  0  0  0  0  0  0  0  0
  186.3030  178.2520  138.7040 C   0  0  0  0  0  0  0  0  0  0  0  0
  184.4670  178.0470  140.8730 C   0  0  0  0  0  2  0  0  0  0  0  0
  182.6660  178.1160  139.1910 F   0  0  0  0  0  0  0  0  0  0  0  0
  188.1940  178.7170  140.2630 C   0  0  0  0  0  1  0  0  0  0  0  0
  185.7970  178.7870  141.1010 C   0  0  1  0  0  3  0  0  0  0  0  0
  188.7020  177.2720  147.9560 C   0  0  0  0  0  1  0  0  0  0  0  0
  189.2280  178.2210  146.8940 C   0  0  0  0  0  2  0  0  0  0  0  0
  191.6070  176.8170  145.9780 C   0  0  0  0  0  2  0  0  0  0  0  0
  192.3550  174.4880  145.5220 C   0  0  0  0  0  1  0  0  0  0  0  0
  191.7710  175.4240  146.5660 C   0  0  1  0  0  3  0  0  0  0  0  0
  192.6930  175.5000  147.7720 C   0  0  0  0  0  2  0  0  0  0  0  0
  192.4140  176.7450  148.6000 C   0  0  0  0  0  2  0  0  0  0  0  0
  193.4540  176.9100  149.6910 C   0  0  0  0  0  1  0  0  0  0  0  0
  1  5  1  0  0  0  0
  2  6  1  0  0  0  0
  3  2  1  0  0  0  0
  4 10  2  0  0  0  0
  4 27  1  0  0  0  0
  5  7  1  0  0  0  0
  5 10  1  0  0  0  0
  8  7  1  1  0  0  0
  8  6  1  0  0  0  0
  9 15  1  6  0  0  0
  9 13  1  0  0  0  0
 10 26  1  0  0  0  0
 11  4  1  0  0  0  0
 12  3  1  0  0  0  0
 13 12  1  6  0  0  0
 13  8  1  0  0  0  0
 14  1  1  0  0  0  0
 14 11  2  0  0  0  0
 15  1  2  0  0  0  0
 16 21  1  0  0  0  0
 17 20  1  0  0  0  0
 17 16  2  0  0  0  0
 18 23  1  0  0  0  0
 18 24  1  0  0  0  0
 19 20  2  0  0  0  0
 20 18  1  0  0  0  0
 22 16  1  0  0  0  0
 24 21  1  6  0  0  0
 24  9  1  0  0  0  0
 26 25  1  0  0  0  0
 27 29  1  0  0  0  0
 29 28  1  6  0  0  0
 29 30  1  0  0  0  0
 30 31  1  0  0  0  0
 31 32  1  0  0  0  0
M  END
>  <MODEL>
9

>  <REMARK>
 VINA RESULT:      -6.5      2.674      5.323
  Name = 
  6 active torsions:
  status: ('A' for Active; 'I' for Inactive)
    1  A    between atoms: C_1  and  C_10
    2  A    between atoms: C_8  and  C_19
    3  A    between atoms: C_10  and  C_24
    4  A    between atoms: C_12  and  C_21
    5  A    between atoms: C_16  and  C_32
    6  A    between atoms: C_19  and  C_24
                            x       y       z     vdW  Elec       q    Type
                         _______ _______ _______ _____ _____    ______ ____

>  <TORSDO>
F 6

$$$$
