=
 OpenBabel10272401123D

 27 31  0  0  0  0  0  0  0  0999 V2000
  184.8680  178.8010  141.2850 N   0  0  0  0  0  0  0  0  0  0  0  0
  184.7310  178.7880  142.6260 C   0  0  0  0  0  0  0  0  0  0  0  0
  186.8500  178.2750  142.2210 C   0  0  0  0  0  0  0  0  0  0  0  0
  184.8570  178.5850  146.7590 N   0  0  0  0  0  0  0  0  0  0  0  0
  185.9930  178.2540  147.4310 C   0  0  0  0  0  3  0  0  0  0  0  0
  183.5680  179.0580  143.3490 C   0  0  0  0  0  3  0  0  0  0  0  0
  187.1690  178.0380  145.3370 C   0  0  0  0  0  3  0  0  0  0  0  0
  188.2450  178.1030  139.7260 N   0  0  0  0  0  0  0  0  0  0  0  0
  188.9770  177.9660  143.2600 O   0  0  0  0  0  0  0  0  0  0  0  0
  188.9730  178.1290  138.4670 C   0  0  0  0  0  1  0  0  0  0  0  0
  186.0020  178.3830  144.6510 C   0  0  0  0  0  0  0  0  0  0  0  0
  187.1680  177.9740  146.7310 C   0  0  0  0  0  3  0  0  0  0  0  0
  184.8260  178.6550  145.4010 C   0  0  0  0  0  0  0  0  0  0  0  0
  186.1610  178.4880  141.0460 C   0  0  0  0  0  0  0  0  0  0  0  0
  185.9250  178.4650  143.2500 C   0  0  0  0  0  0  0  0  0  0  0  0
  188.9460  177.5760  140.9050 C   0  0  0  0  0  2  0  0  0  0  0  0
  183.6260  178.9910  144.7470 C   0  0  0  0  0  3  0  0  0  0  0  0
  186.2120  178.6330  138.6750 O   0  0  0  0  0  0  0  0  0  0  0  0
  186.8390  178.4130  139.7460 C   0  0  0  0  0  0  0  0  0  0  0  0
  188.2880  177.9540  142.2090 C   0  0  0  0  0  0  0  0  0  0  0  0
  183.8460  179.1630  140.3080 C   0  0  0  0  0  2  0  0  0  0  0  0
  181.1930  175.8990  139.6040 C   0  0  0  0  0  3  0  0  0  0  0  0
  182.9180  178.0180  140.0840 C   0  0  0  0  0  0  0  0  0  0  0  0
  181.5850  178.1110  140.4920 C   0  0  0  0  0  3  0  0  0  0  0  0
  180.7210  177.0410  140.2510 C   0  0  0  0  0  3  0  0  0  0  0  0
  182.5310  175.8450  139.2040 C   0  0  0  0  0  3  0  0  0  0  0  0
  183.3570  176.8980  139.4490 N   0  0  0  0  0  0  0  0  0  0  0  0
  1  2  1  0  0  0  0
  2 15  2  0  0  0  0
  2  6  1  0  0  0  0
  3 15  1  0  0  0  0
  4  5  1  0  0  0  0
  6 17  2  0  0  0  0
  7 12  1  0  0  0  0
  8 19  1  0  0  0  0
  8 16  1  0  0  0  0
 10  8  1  0  0  0  0
 11  7  2  0  0  0  0
 11 13  1  0  0  0  0
 12  5  2  0  0  0  0
 13  4  2  0  0  0  0
 14  1  1  0  0  0  0
 14  3  2  0  0  0  0
 15 11  1  0  0  0  0
 16 20  1  0  0  0  0
 17 13  1  0  0  0  0
 18 19  2  0  0  0  0
 19 14  1  0  0  0  0
 20  3  1  0  0  0  0
 20  9  2  0  0  0  0
 21  1  1  0  0  0  0
 22 25  1  0  0  0  0
 23 21  1  0  0  0  0
 23 24  1  0  0  0  0
 25 24  2  0  0  0  0
 26 27  1  0  0  0  0
 26 22  2  0  0  0  0
 27 23  2  0  0  0  0
M  END
>  <MODEL>
1

>  <REMARK>
 VINA RESULT:      -9.2      0.000      0.000
  Name = 
  2 active torsions:
  status: ('A' for Active; 'I' for Inactive)
    1  A    between atoms: N_1  and  C_15
    2  A    between atoms: C_9  and  C_15
                            x       y       z     vdW  Elec       q    Type
                         _______ _______ _______ _____ _____    ______ ____

>  <TORSDO>
F 2

$$$$
=
 OpenBabel10272401123D

 27 31  0  0  0  0  0  0  0  0999 V2000
  188.6650  178.3920  141.2720 N   0  0  0  0  0  0  0  0  0  0  0  0
  189.5170  178.0380  142.2550 C   0  0  0  0  0  0  0  0  0  0  0  0
  187.4850  177.9340  143.1370 C   0  0  0  0  0  0  0  0  0  0  0  0
  191.6720  176.9160  145.6070 N   0  0  0  0  0  0  0  0  0  0  0  0
  191.0670  176.6380  146.7940 C   0  0  0  0  0  3  0  0  0  0  0  0
  190.9070  177.9520  142.1640 C   0  0  0  0  0  3  0  0  0  0  0  0
  188.9160  177.0900  145.8040 C   0  0  0  0  0  3  0  0  0  0  0  0
  184.9360  178.3980  141.9180 N   0  0  0  0  0  0  0  0  0  0  0  0
  186.2670  177.2030  145.0560 O   0  0  0  0  0  0  0  0  0  0  0  0
  183.6420  178.5230  141.2660 C   0  0  0  0  0  1  0  0  0  0  0  0
  189.5390  177.3700  144.5860 C   0  0  0  0  0  0  0  0  0  0  0  0
  189.6790  176.7220  146.9130 C   0  0  0  0  0  3  0  0  0  0  0  0
  190.9550  177.2790  144.5090 C   0  0  0  0  0  0  0  0  0  0  0  0
  187.4290  178.3250  141.8170 C   0  0  0  0  0  0  0  0  0  0  0  0
  188.8380  177.7490  143.4280 C   0  0  0  0  0  0  0  0  0  0  0  0
  184.9490  178.2820  143.3830 C   0  0  0  0  0  2  0  0  0  0  0  0
  191.6230  177.5670  143.3050 C   0  0  0  0  0  3  0  0  0  0  0  0
  186.0950  178.9040  139.9380 O   0  0  0  0  0  0  0  0  0  0  0  0
  186.1430  178.5700  141.1530 C   0  0  0  0  0  0  0  0  0  0  0  0
  186.2540  177.7590  143.9290 C   0  0  0  0  0  0  0  0  0  0  0  0
  189.0110  178.6970  139.8870 C   0  0  0  0  0  2  0  0  0  0  0  0
  189.6450  175.1250  137.6470 C   0  0  0  0  0  3  0  0  0  0  0  0
  189.2190  177.4370  139.1180 C   0  0  0  0  0  0  0  0  0  0  0  0
  188.1710  176.8990  138.3660 C   0  0  0  0  0  3  0  0  0  0  0  0
  188.3900  175.7330  137.6290 C   0  0  0  0  0  3  0  0  0  0  0  0
  190.6700  175.6970  138.4050 C   0  0  0  0  0  3  0  0  0  0  0  0
  190.4380  176.8320  139.1170 N   0  0  0  0  0  0  0  0  0  0  0  0
  1 14  1  0  0  0  0
  1  2  1  0  0  0  0
  2 15  1  0  0  0  0
  3 15  1  0  0  0  0
  3 20  1  0  0  0  0
  4  5  2  0  0  0  0
  5 12  1  0  0  0  0
  6  2  2  0  0  0  0
  6 17  1  0  0  0  0
  7 12  2  0  0  0  0
  8 16  1  0  0  0  0
 10  8  1  0  0  0  0
 11  7  1  0  0  0  0
 13 11  1  0  0  0  0
 13  4  1  0  0  0  0
 14  3  2  0  0  0  0
 15 11  2  0  0  0  0
 16 20  1  0  0  0  0
 17 13  2  0  0  0  0
 18 19  2  0  0  0  0
 19 14  1  0  0  0  0
 19  8  1  0  0  0  0
 20  9  2  0  0  0  0
 21  1  1  0  0  0  0
 22 26  1  0  0  0  0
 23 21  1  0  0  0  0
 24 23  2  0  0  0  0
 25 22  2  0  0  0  0
 25 24  1  0  0  0  0
 26 27  2  0  0  0  0
 27 23  1  0  0  0  0
M  END
>  <MODEL>
2

>  <REMARK>
 VINA RESULT:      -8.7      2.559      5.429
  Name = 
  2 active torsions:
  status: ('A' for Active; 'I' for Inactive)
    1  A    between atoms: N_1  and  C_15
    2  A    between atoms: C_9  and  C_15
                            x       y       z     vdW  Elec       q    Type
                         _______ _______ _______ _____ _____    ______ ____

>  <TORSDO>
F 2

$$$$
=
 OpenBabel10272401123D

 27 31  0  0  0  0  0  0  0  0999 V2000
  188.6420  178.2920  140.5390 N   0  0  0  0  0  0  0  0  0  0  0  0
  189.4770  177.9500  141.5410 C   0  0  0  0  0  0  0  0  0  0  0  0
  187.4520  178.0490  142.4380 C   0  0  0  0  0  0  0  0  0  0  0  0
  191.5830  176.9180  144.9530 N   0  0  0  0  0  0  0  0  0  0  0  0
  190.9720  176.7670  146.1590 C   0  0  0  0  0  3  0  0  0  0  0  0
  190.8570  177.7610  141.4490 C   0  0  0  0  0  3  0  0  0  0  0  0
  188.8480  177.2970  145.1500 C   0  0  0  0  0  3  0  0  0  0  0  0
  184.9290  178.6030  141.2020 N   0  0  0  0  0  0  0  0  0  0  0  0
  186.2060  177.5400  144.4100 O   0  0  0  0  0  0  0  0  0  0  0  0
  183.6410  178.7720  140.5490 C   0  0  0  0  0  1  0  0  0  0  0  0
  189.4770  177.4460  143.9120 C   0  0  0  0  0  0  0  0  0  0  0  0
  189.5940  176.9550  146.2780 C   0  0  0  0  0  3  0  0  0  0  0  0
  190.8820  177.2520  143.8350 C   0  0  0  0  0  0  0  0  0  0  0  0
  187.4100  178.3500  141.0940 C   0  0  0  0  0  0  0  0  0  0  0  0
  188.7920  177.7920  142.7340 C   0  0  0  0  0  0  0  0  0  0  0  0
  184.9490  178.5890  142.6720 C   0  0  0  0  0  2  0  0  0  0  0  0
  191.5570  177.4080  142.6100 C   0  0  0  0  0  3  0  0  0  0  0  0
  186.1010  178.8880  139.1860 O   0  0  0  0  0  0  0  0  0  0  0  0
  186.1380  178.6370  140.4200 C   0  0  0  0  0  0  0  0  0  0  0  0
  186.2200  178.0150  143.2460 C   0  0  0  0  0  0  0  0  0  0  0  0
  188.9950  178.4760  139.1350 C   0  0  0  0  0  2  0  0  0  0  0  0
  189.1200  174.6780  137.1980 C   0  0  0  0  0  3  0  0  0  0  0  0
  189.0500  177.1570  138.4410 C   0  0  0  0  0  0  0  0  0  0  0  0
  190.2650  176.4740  138.3400 C   0  0  0  0  0  3  0  0  0  0  0  0
  190.2960  175.2270  137.7110 C   0  0  0  0  0  3  0  0  0  0  0  0
  187.9240  175.3880  137.3240 C   0  0  0  0  0  3  0  0  0  0  0  0
  187.9140  176.6020  137.9390 N   0  0  0  0  0  0  0  0  0  0  0  0
  1 14  1  0  0  0  0
  1  2  1  0  0  0  0
  2 15  1  0  0  0  0
  3 15  1  0  0  0  0
  3 20  1  0  0  0  0
  4  5  2  0  0  0  0
  5 12  1  0  0  0  0
  6  2  2  0  0  0  0
  6 17  1  0  0  0  0
  7 12  2  0  0  0  0
  8 16  1  0  0  0  0
 10  8  1  0  0  0  0
 11  7  1  0  0  0  0
 13 11  1  0  0  0  0
 13  4  1  0  0  0  0
 14  3  2  0  0  0  0
 15 11  2  0  0  0  0
 16 20  1  0  0  0  0
 17 13  2  0  0  0  0
 18 19  2  0  0  0  0
 19 14  1  0  0  0  0
 19  8  1  0  0  0  0
 20  9  2  0  0  0  0
 21  1  1  0  0  0  0
 22 26  2  0  0  0  0
 22 25  1  0  0  0  0
 23 21  1  0  0  0  0
 24 23  1  0  0  0  0
 25 24  2  0  0  0  0
 26 27  1  0  0  0  0
 27 23  2  0  0  0  0
M  END
>  <MODEL>
3

>  <REMARK>
 VINA RESULT:      -8.6      2.399      5.396
  Name = 
  2 active torsions:
  status: ('A' for Active; 'I' for Inactive)
    1  A    between atoms: N_1  and  C_15
    2  A    between atoms: C_9  and  C_15
                            x       y       z     vdW  Elec       q    Type
                         _______ _______ _______ _____ _____    ______ ____

>  <TORSDO>
F 2

$$$$
=
 OpenBabel10272401123D

 27 31  0  0  0  0  0  0  0  0999 V2000
  187.5480  178.2600  139.8690 N   0  0  0  0  0  0  0  0  0  0  0  0
  186.6050  178.4130  140.8200 C   0  0  0  0  0  0  0  0  0  0  0  0
  188.4720  177.8790  141.8890 C   0  0  0  0  0  0  0  0  0  0  0  0
  184.1130  178.7320  144.1110 N   0  0  0  0  0  0  0  0  0  0  0  0
  184.5560  178.5020  145.3760 C   0  0  0  0  0  3  0  0  0  0  0  0
  185.2670  178.7590  140.6200 C   0  0  0  0  0  3  0  0  0  0  0  0
  186.7620  178.0390  144.5190 C   0  0  0  0  0  3  0  0  0  0  0  0
  191.1020  177.4110  140.8560 N   0  0  0  0  0  0  0  0  0  0  0  0
  189.4590  177.7280  144.0580 O   0  0  0  0  0  0  0  0  0  0  0  0
  192.4550  177.2880  140.3380 C   0  0  0  0  0  1  0  0  0  0  0  0
  186.3040  178.2800  143.2220 C   0  0  0  0  0  0  0  0  0  0  0  0
  185.8880  178.1490  145.6020 C   0  0  0  0  0  3  0  0  0  0  0  0
  184.9400  178.6310  143.0350 C   0  0  0  0  0  0  0  0  0  0  0  0
  188.6830  177.9350  140.5280 C   0  0  0  0  0  0  0  0  0  0  0  0
  187.1240  178.1850  142.0840 C   0  0  0  0  0  0  0  0  0  0  0  0
  190.8760  177.0440  142.2610 C   0  0  0  0  0  2  0  0  0  0  0  0
  184.4360  178.8680  141.7430 C   0  0  0  0  0  3  0  0  0  0  0  0
  190.2090  177.7810  138.7140 O   0  0  0  0  0  0  0  0  0  0  0  0
  190.0150  177.7050  139.9570 C   0  0  0  0  0  0  0  0  0  0  0  0
  189.5770  177.5760  142.8150 C   0  0  0  0  0  0  0  0  0  0  0  0
  187.3850  178.4850  138.4360 C   0  0  0  0  0  2  0  0  0  0  0  0
  185.7820  175.0260  136.5240 C   0  0  0  0  0  3  0  0  0  0  0  0
  186.8120  177.2720  137.7850 C   0  0  0  0  0  0  0  0  0  0  0  0
  185.4850  177.2790  137.3460 C   0  0  0  0  0  3  0  0  0  0  0  0
  184.9700  176.1450  136.7140 C   0  0  0  0  0  3  0  0  0  0  0  0
  187.1050  175.0600  136.9710 C   0  0  0  0  0  3  0  0  0  0  0  0
  187.5890  176.1730  137.5850 N   0  0  0  0  0  0  0  0  0  0  0  0
  1 14  1  0  0  0  0
  1  2  1  0  0  0  0
  2 15  1  0  0  0  0
  3 15  1  0  0  0  0
  3 20  1  0  0  0  0
  4  5  2  0  0  0  0
  5 12  1  0  0  0  0
  6  2  2  0  0  0  0
  6 17  1  0  0  0  0
  7 12  2  0  0  0  0
  8 16  1  0  0  0  0
 10  8  1  0  0  0  0
 11  7  1  0  0  0  0
 13 11  1  0  0  0  0
 13  4  1  0  0  0  0
 14  3  2  0  0  0  0
 15 11  2  0  0  0  0
 16 20  1  0  0  0  0
 17 13  2  0  0  0  0
 18 19  2  0  0  0  0
 19 14  1  0  0  0  0
 19  8  1  0  0  0  0
 20  9  2  0  0  0  0
 21  1  1  0  0  0  0
 22 25  2  0  0  0  0
 22 26  1  0  0  0  0
 23 21  1  0  0  0  0
 24 23  2  0  0  0  0
 25 24  1  0  0  0  0
 26 27  2  0  0  0  0
 27 23  1  0  0  0  0
M  END
>  <MODEL>
4

>  <REMARK>
 VINA RESULT:      -7.9      2.303      3.397
  Name = 
  2 active torsions:
  status: ('A' for Active; 'I' for Inactive)
    1  A    between atoms: N_1  and  C_15
    2  A    between atoms: C_9  and  C_15
                            x       y       z     vdW  Elec       q    Type
                         _______ _______ _______ _____ _____    ______ ____

>  <TORSDO>
F 2

$$$$
=
 OpenBabel10272401123D

 27 31  0  0  0  0  0  0  0  0999 V2000
  187.9050  178.1950  140.3460 N   0  0  0  0  0  0  0  0  0  0  0  0
  186.6330  178.4560  140.7100 C   0  0  0  0  0  0  0  0  0  0  0  0
  187.7000  177.8950  142.5710 C   0  0  0  0  0  0  0  0  0  0  0  0
  182.8890  179.1070  142.3510 N   0  0  0  0  0  0  0  0  0  0  0  0
  182.6430  178.9340  143.6780 C   0  0  0  0  0  3  0  0  0  0  0  0
  185.5920  178.8570  139.8720 C   0  0  0  0  0  3  0  0  0  0  0  0
  184.9450  178.3060  144.0230 C   0  0  0  0  0  3  0  0  0  0  0  0
  190.4570  177.2290  142.9690 N   0  0  0  0  0  0  0  0  0  0  0  0
  187.4950  177.8290  144.9480 O   0  0  0  0  0  0  0  0  0  0  0  0
  191.8770  177.0050  143.1830 C   0  0  0  0  0  1  0  0  0  0  0  0
  185.1950  178.4890  142.6610 C   0  0  0  0  0  0  0  0  0  0  0  0
  183.6660  178.5290  144.5360 C   0  0  0  0  0  3  0  0  0  0  0  0
  184.1240  178.8960  141.8210 C   0  0  0  0  0  0  0  0  0  0  0  0
  188.5480  177.8540  141.4860 C   0  0  0  0  0  0  0  0  0  0  0  0
  186.4540  178.2810  142.0720 C   0  0  0  0  0  0  0  0  0  0  0  0
  189.5500  176.9630  144.0950 C   0  0  0  0  0  2  0  0  0  0  0  0
  184.3300  179.0780  140.4410 C   0  0  0  0  0  3  0  0  0  0  0  0
  190.7480  177.5100  140.6550 O   0  0  0  0  0  0  0  0  0  0  0  0
  189.9690  177.5220  141.6460 C   0  0  0  0  0  0  0  0  0  0  0  0
  188.1900  177.5940  143.9280 C   0  0  0  0  0  0  0  0  0  0  0  0
  188.4770  178.3380  139.0110 C   0  0  0  0  0  2  0  0  0  0  0  0
  188.0890  174.7230  136.7820 C   0  0  0  0  0  3  0  0  0  0  0  0
  188.3280  177.0660  138.2480 C   0  0  0  0  0  0  0  0  0  0  0  0
  187.1060  176.7540  137.6450 C   0  0  0  0  0  3  0  0  0  0  0  0
  186.9900  175.5720  136.9100 C   0  0  0  0  0  3  0  0  0  0  0  0
  189.2960  175.0720  137.3930 C   0  0  0  0  0  3  0  0  0  0  0  0
  189.3900  176.2270  138.1050 N   0  0  0  0  0  0  0  0  0  0  0  0
  1  2  1  0  0  0  0
  1 14  1  0  0  0  0
  2 15  1  0  0  0  0
  3 20  1  0  0  0  0
  4  5  2  0  0  0  0
  5 12  1  0  0  0  0
  6 17  1  0  0  0  0
  6  2  2  0  0  0  0
  7 12  2  0  0  0  0
  8 10  1  0  0  0  0
  8 16  1  0  0  0  0
 11  7  1  0  0  0  0
 13  4  1  0  0  0  0
 13 11  1  0  0  0  0
 14 19  1  0  0  0  0
 14  3  2  0  0  0  0
 15  3  1  0  0  0  0
 15 11  2  0  0  0  0
 17 13  2  0  0  0  0
 18 19  2  0  0  0  0
 19  8  1  0  0  0  0
 20 16  1  0  0  0  0
 20  9  2  0  0  0  0
 21  1  1  0  0  0  0
 22 25  2  0  0  0  0
 22 26  1  0  0  0  0
 23 21  1  0  0  0  0
 24 23  2  0  0  0  0
 25 24  1  0  0  0  0
 26 27  2  0  0  0  0
 27 23  1  0  0  0  0
M  END
>  <MODEL>
5

>  <REMARK>
 VINA RESULT:      -7.8      2.529      4.539
  Name = 
  2 active torsions:
  status: ('A' for Active; 'I' for Inactive)
    1  A    between atoms: N_1  and  C_15
    2  A    between atoms: C_9  and  C_15
                            x       y       z     vdW  Elec       q    Type
                         _______ _______ _______ _____ _____    ______ ____

>  <TORSDO>
F 2

$$$$
=
 OpenBabel10272401123D

 27 31  0  0  0  0  0  0  0  0999 V2000
  185.2360  178.7980  140.8520 N   0  0  0  0  0  0  0  0  0  0  0  0
  186.5320  178.4880  141.0570 C   0  0  0  0  0  0  0  0  0  0  0  0
  185.5570  178.3950  143.0460 C   0  0  0  0  0  0  0  0  0  0  0  0
  190.3770  177.5090  142.2400 N   0  0  0  0  0  0  0  0  0  0  0  0
  190.6910  177.2680  143.5410 C   0  0  0  0  0  3  0  0  0  0  0  0
  187.5350  178.4130  140.0900 C   0  0  0  0  0  3  0  0  0  0  0  0
  188.3970  177.6620  144.1700 C   0  0  0  0  0  3  0  0  0  0  0  0
  182.8110  178.7880  143.7580 N   0  0  0  0  0  0  0  0  0  0  0  0
  185.8920  177.7200  145.3120 O   0  0  0  0  0  0  0  0  0  0  0  0
  181.3990  178.8760  144.0950 C   0  0  0  0  0  1  0  0  0  0  0  0
  188.0760  177.9040  142.8320 C   0  0  0  0  0  0  0  0  0  0  0  0
  189.7070  177.3410  144.5290 C   0  0  0  0  0  3  0  0  0  0  0  0
  189.1090  177.8250  141.8590 C   0  0  0  0  0  0  0  0  0  0  0  0
  184.6480  178.7380  142.0690 C   0  0  0  0  0  0  0  0  0  0  0  0
  186.7820  178.2340  142.3960 C   0  0  0  0  0  0  0  0  0  0  0  0
  183.7720  178.7250  144.8680 C   0  0  0  0  0  2  0  0  0  0  0  0
  188.8310  178.0760  140.5030 C   0  0  0  0  0  3  0  0  0  0  0  0
  182.3990  179.2350  141.4890 O   0  0  0  0  0  0  0  0  0  0  0  0
  183.2310  178.9450  142.3900 C   0  0  0  0  0  0  0  0  0  0  0  0
  185.1360  178.2350  144.4500 C   0  0  0  0  0  0  0  0  0  0  0  0
  184.5940  179.0570  139.5670 C   0  0  0  0  0  2  0  0  0  0  0  0
  183.6750  175.3500  137.6710 C   0  0  0  0  0  3  0  0  0  0  0  0
  184.2650  177.7720  138.8860 C   0  0  0  0  0  0  0  0  0  0  0  0
  184.9850  177.3780  137.7550 C   0  0  0  0  0  3  0  0  0  0  0  0
  184.6830  176.1590  137.1450 C   0  0  0  0  0  3  0  0  0  0  0  0
  182.9820  175.7740  138.8070 C   0  0  0  0  0  3  0  0  0  0  0  0
  183.2900  176.9650  139.3870 N   0  0  0  0  0  0  0  0  0  0  0  0
  1  2  1  0  0  0  0
  1 14  1  0  0  0  0
  2 15  1  0  0  0  0
  3 20  1  0  0  0  0
  4  5  2  0  0  0  0
  5 12  1  0  0  0  0
  6 17  1  0  0  0  0
  6  2  2  0  0  0  0
  7 12  2  0  0  0  0
  8 10  1  0  0  0  0
  8 16  1  0  0  0  0
 11  7  1  0  0  0  0
 13  4  1  0  0  0  0
 13 11  1  0  0  0  0
 14 19  1  0  0  0  0
 14  3  2  0  0  0  0
 15 11  2  0  0  0  0
 15  3  1  0  0  0  0
 17 13  2  0  0  0  0
 18 19  2  0  0  0  0
 19  8  1  0  0  0  0
 20 16  1  0  0  0  0
 20  9  2  0  0  0  0
 21  1  1  0  0  0  0
 22 26  1  0  0  0  0
 23 27  1  0  0  0  0
 23 21  1  0  0  0  0
 24 23  2  0  0  0  0
 25 22  2  0  0  0  0
 25 24  1  0  0  0  0
 26 27  2  0  0  0  0
M  END
>  <MODEL>
6

>  <REMARK>
 VINA RESULT:      -7.6      2.070      4.484
  Name = 
  2 active torsions:
  status: ('A' for Active; 'I' for Inactive)
    1  A    between atoms: N_1  and  C_15
    2  A    between atoms: C_9  and  C_15
                            x       y       z     vdW  Elec       q    Type
                         _______ _______ _______ _____ _____    ______ ____

>  <TORSDO>
F 2

$$$$
=
 OpenBabel10272401123D

 27 31  0  0  0  0  0  0  0  0999 V2000
  185.9070  178.9350  141.1850 N   0  0  0  0  0  0  0  0  0  0  0  0
  184.8410  178.9490  142.0100 C   0  0  0  0  0  0  0  0  0  0  0  0
  184.0970  178.1960  140.0620 C   0  0  0  0  0  0  0  0  0  0  0  0
  181.2670  178.8200  144.0960 N   0  0  0  0  0  0  0  0  0  0  0  0
  180.1070  178.4140  143.5130 C   0  0  0  0  0  3  0  0  0  0  0  0
  184.8280  179.3450  143.3490 C   0  0  0  0  0  3  0  0  0  0  0  0
  181.2780  178.0410  141.4390 C   0  0  0  0  0  3  0  0  0  0  0  0
  185.5240  177.6850  137.6330 N   0  0  0  0  0  0  0  0  0  0  0  0
  182.2140  177.1910  138.9920 O   0  0  0  0  0  0  0  0  0  0  0  0
  186.2730  177.3200  136.4410 C   0  0  0  0  0  1  0  0  0  0  0  0
  182.4680  178.4540  142.0410 C   0  0  0  0  0  0  0  0  0  0  0  0
  180.0920  178.0180  142.1750 C   0  0  0  0  0  3  0  0  0  0  0  0
  182.4380  178.8540  143.4040 C   0  0  0  0  0  0  0  0  0  0  0  0
  185.4460  178.4740  140.0000 C   0  0  0  0  0  0  0  0  0  0  0  0
  183.6990  178.5060  141.3640 C   0  0  0  0  0  0  0  0  0  0  0  0
  184.0570  177.6580  137.5480 C   0  0  0  0  0  2  0  0  0  0  0  0
  183.6130  179.2920  144.0440 C   0  0  0  0  0  3  0  0  0  0  0  0
  187.4530  178.4550  138.7300 O   0  0  0  0  0  0  0  0  0  0  0  0
  186.2150  178.2230  138.7760 C   0  0  0  0  0  0  0  0  0  0  0  0
  183.3820  177.6480  138.8970 C   0  0  0  0  0  0  0  0  0  0  0  0
  187.2850  179.2670  141.5340 C   0  0  0  0  0  2  0  0  0  0  0  0
  189.2890  175.7880  142.9710 C   0  0  0  0  0  3  0  0  0  0  0  0
  187.9900  178.0620  142.0550 C   0  0  0  0  0  0  0  0  0  0  0  0
  187.4340  177.3300  143.1070 C   0  0  0  0  0  3  0  0  0  0  0  0
  188.0920  176.1870  143.5670 C   0  0  0  0  0  3  0  0  0  0  0  0
  189.8110  176.5420  141.9170 C   0  0  0  0  0  3  0  0  0  0  0  0
  189.1550  177.6520  141.4830 N   0  0  0  0  0  0  0  0  0  0  0  0
  1 21  1  0  0  0  0
  1  2  1  0  0  0  0
  2  6  1  0  0  0  0
  3 15  1  0  0  0  0
  5  4  1  0  0  0  0
  6 17  2  0  0  0  0
  7 11  2  0  0  0  0
  7 12  1  0  0  0  0
  8 19  1  0  0  0  0
 10  8  1  0  0  0  0
 11 13  1  0  0  0  0
 12  5  2  0  0  0  0
 13 17  1  0  0  0  0
 13  4  2  0  0  0  0
 14  3  2  0  0  0  0
 14  1  1  0  0  0  0
 15  2  2  0  0  0  0
 15 11  1  0  0  0  0
 16  8  1  0  0  0  0
 16 20  1  0  0  0  0
 18 19  2  0  0  0  0
 19 14  1  0  0  0  0
 20  9  2  0  0  0  0
 20  3  1  0  0  0  0
 21 23  1  0  0  0  0
 22 25  1  0  0  0  0
 23 24  1  0  0  0  0
 24 25  2  0  0  0  0
 26 22  2  0  0  0  0
 27 26  1  0  0  0  0
 27 23  2  0  0  0  0
M  END
>  <MODEL>
7

>  <REMARK>
 VINA RESULT:      -7.2      2.277      5.216
  Name = 
  2 active torsions:
  status: ('A' for Active; 'I' for Inactive)
    1  A    between atoms: N_1  and  C_15
    2  A    between atoms: C_9  and  C_15
                            x       y       z     vdW  Elec       q    Type
                         _______ _______ _______ _____ _____    ______ ____

>  <TORSDO>
F 2

$$$$
=
 OpenBabel10272401123D

 27 31  0  0  0  0  0  0  0  0999 V2000
  189.0370  177.7260  141.9550 N   0  0  0  0  0  0  0  0  0  0  0  0
  187.7460  178.0810  141.7980 C   0  0  0  0  0  0  0  0  0  0  0  0
  188.0200  177.7170  143.9670 C   0  0  0  0  0  0  0  0  0  0  0  0
  183.7300  179.0840  141.8720 N   0  0  0  0  0  0  0  0  0  0  0  0
  183.0100  179.0900  143.0260 C   0  0  0  0  0  3  0  0  0  0  0  0
  187.1130  178.4140  140.5990 C   0  0  0  0  0  3  0  0  0  0  0  0
  184.9720  178.4190  144.2550 C   0  0  0  0  0  3  0  0  0  0  0  0
  190.3830  176.9980  145.4170 N   0  0  0  0  0  0  0  0  0  0  0  0
  186.9680  177.9610  146.0970 O   0  0  0  0  0  0  0  0  0  0  0  0
  191.6070  176.7450  146.1600 C   0  0  0  0  0  1  0  0  0  0  0  0
  185.7100  178.4190  143.0700 C   0  0  0  0  0  0  0  0  0  0  0  0
  183.6180  178.7560  144.2370 C   0  0  0  0  0  3  0  0  0  0  0  0
  185.0510  178.7590  141.8570 C   0  0  0  0  0  0  0  0  0  0  0  0
  189.1960  177.5060  143.2800 C   0  0  0  0  0  0  0  0  0  0  0  0
  187.0750  178.0880  143.0090 C   0  0  0  0  0  0  0  0  0  0  0  0
  189.1130  176.9130  146.1520 C   0  0  0  0  0  2  0  0  0  0  0  0
  185.7550  178.7560  140.6390 C   0  0  0  0  0  3  0  0  0  0  0  0
  191.5100  176.9710  143.3560 O   0  0  0  0  0  0  0  0  0  0  0  0
  190.4310  177.1400  143.9850 C   0  0  0  0  0  0  0  0  0  0  0  0
  187.9620  177.5710  145.4330 C   0  0  0  0  0  0  0  0  0  0  0  0
  190.0610  177.6760  140.9170 C   0  0  0  0  0  2  0  0  0  0  0  0
  188.2930  177.5050  137.0400 C   0  0  0  0  0  3  0  0  0  0  0  0
  189.4260  177.6280  139.5690 C   0  0  0  0  0  0  0  0  0  0  0  0
  189.3560  178.7860  138.7900 C   0  0  0  0  0  3  0  0  0  0  0  0
  188.7820  178.7200  137.5190 C   0  0  0  0  0  3  0  0  0  0  0  0
  188.3860  176.3670  137.8440 C   0  0  0  0  0  3  0  0  0  0  0  0
  188.9480  176.4510  139.0800 N   0  0  0  0  0  0  0  0  0  0  0  0
  1 14  1  0  0  0  0
  2  1  1  0  0  0  0
  2 15  1  0  0  0  0
  3 20  1  0  0  0  0
  4  5  2  0  0  0  0
  5 12  1  0  0  0  0
  6 17  1  0  0  0  0
  6  2  2  0  0  0  0
  8 16  1  0  0  0  0
  8 10  1  0  0  0  0
 11  7  1  0  0  0  0
 12  7  2  0  0  0  0
 13  4  1  0  0  0  0
 13 11  1  0  0  0  0
 14  3  2  0  0  0  0
 14 19  1  0  0  0  0
 15 11  2  0  0  0  0
 15  3  1  0  0  0  0
 17 13  2  0  0  0  0
 18 19  2  0  0  0  0
 19  8  1  0  0  0  0
 20  9  2  0  0  0  0
 20 16  1  0  0  0  0
 21  1  1  0  0  0  0
 22 25  2  0  0  0  0
 22 26  1  0  0  0  0
 23 21  1  0  0  0  0
 24 23  2  0  0  0  0
 25 24  1  0  0  0  0
 26 27  2  0  0  0  0
 27 23  1  0  0  0  0
M  END
>  <MODEL>
8

>  <REMARK>
 VINA RESULT:      -7.0      2.767      5.377
  Name = 
  2 active torsions:
  status: ('A' for Active; 'I' for Inactive)
    1  A    between atoms: N_1  and  C_15
    2  A    between atoms: C_9  and  C_15
                            x       y       z     vdW  Elec       q    Type
                         _______ _______ _______ _____ _____    ______ ____

>  <TORSDO>
F 2

$$$$
=
 OpenBabel10272401123D

 27 31  0  0  0  0  0  0  0  0999 V2000
  188.3000  177.5120  141.6260 N   0  0  0  0  0  0  0  0  0  0  0  0
  187.6190  177.6450  142.7820 C   0  0  0  0  0  0  0  0  0  0  0  0
  186.2510  178.3410  141.1830 C   0  0  0  0  0  0  0  0  0  0  0  0
  185.1130  178.2710  146.0170 N   0  0  0  0  0  0  0  0  0  0  0  0
  183.8630  178.7880  145.8710 C   0  0  0  0  0  3  0  0  0  0  0  0
  188.0770  177.3230  144.0610 C   0  0  0  0  0  3  0  0  0  0  0  0
  184.1950  178.9200  143.4870 C   0  0  0  0  0  3  0  0  0  0  0  0
  186.6390  178.4130  138.3460 N   0  0  0  0  0  0  0  0  0  0  0  0
  183.9930  178.9800  140.7400 O   0  0  0  0  0  0  0  0  0  0  0  0
  186.7980  178.3400  136.9030 C   0  0  0  0  0  1  0  0  0  0  0  0
  185.4760  178.3850  143.6390 C   0  0  0  0  0  0  0  0  0  0  0  0
  183.3830  179.1230  144.6030 C   0  0  0  0  0  3  0  0  0  0  0  0
  185.9280  178.0630  144.9480 C   0  0  0  0  0  0  0  0  0  0  0  0
  187.4590  177.9380  140.6560 C   0  0  0  0  0  0  0  0  0  0  0  0
  186.3510  178.1550  142.5630 C   0  0  0  0  0  0  0  0  0  0  0  0
  185.4630  179.1280  138.8650 C   0  0  0  0  0  2  0  0  0  0  0  0
  187.2170  177.5360  145.1460 C   0  0  0  0  0  3  0  0  0  0  0  0
  188.7960  177.5640  138.7280 O   0  0  0  0  0  0  0  0  0  0  0  0
  187.6980  177.9560  139.2080 C   0  0  0  0  0  0  0  0  0  0  0  0
  185.1620  178.8130  140.3090 C   0  0  0  0  0  0  0  0  0  0  0  0
  189.6350  176.9460  141.4590 C   0  0  0  0  0  2  0  0  0  0  0  0
  191.9820  177.7700  144.9230 C   0  0  0  0  0  3  0  0  0  0  0  0
  190.4720  177.2400  142.6570 C   0  0  0  0  0  0  0  0  0  0  0  0
  190.8220  178.5590  142.9560 C   0  0  0  0  0  3  0  0  0  0  0  0
  191.5840  178.8210  144.0960 C   0  0  0  0  0  3  0  0  0  0  0  0
  191.6070  176.4650  144.5950 C   0  0  0  0  0  3  0  0  0  0  0  0
  190.8650  176.2290  143.4800 N   0  0  0  0  0  0  0  0  0  0  0  0
  1  2  1  0  0  0  0
  2  6  1  0  0  0  0
  3 15  1  0  0  0  0
  5  4  1  0  0  0  0
  6 17  2  0  0  0  0
  7 11  2  0  0  0  0
  7 12  1  0  0  0  0
  8 16  1  0  0  0  0
  8 19  1  0  0  0  0
 10  8  1  0  0  0  0
 11 13  1  0  0  0  0
 12  5  2  0  0  0  0
 13 17  1  0  0  0  0
 13  4  2  0  0  0  0
 14  3  2  0  0  0  0
 14  1  1  0  0  0  0
 15  2  2  0  0  0  0
 15 11  1  0  0  0  0
 16 20  1  0  0  0  0
 18 19  2  0  0  0  0
 19 14  1  0  0  0  0
 20  9  2  0  0  0  0
 20  3  1  0  0  0  0
 21  1  1  0  0  0  0
 21 23  1  0  0  0  0
 23 24  2  0  0  0  0
 23 27  1  0  0  0  0
 24 25  1  0  0  0  0
 25 22  2  0  0  0  0
 26 22  1  0  0  0  0
 27 26  2  0  0  0  0
M  END
>  <MODEL>
9

>  <REMARK>
 VINA RESULT:      -7.0      2.459      5.648
  Name = 
  2 active torsions:
  status: ('A' for Active; 'I' for Inactive)
    1  A    between atoms: N_1  and  C_15
    2  A    between atoms: C_9  and  C_15
                            x       y       z     vdW  Elec       q    Type
                         _______ _______ _______ _____ _____    ______ ____

>  <TORSDO>
F 2

$$$$
