=
 OpenBabel10272401093D

 27 31  0  0  1  0  0  0  0  0999 V2000
  190.3760  178.2610  143.0880 C   0  0  0  0  0  2  0  0  0  0  0  0
  188.2340  177.4760  144.0320 C   0  0  0  0  0  0  0  0  0  0  0  0
  187.8850  178.0030  141.5870 N   0  0  0  0  0  2  0  0  0  0  0  0
  184.1790  178.3830  144.7400 C   0  0  0  0  0  3  0  0  0  0  0  0
  182.0230  179.1050  143.9370 O   0  0  0  0  0  1  0  0  0  0  0  0
  187.6670  177.3550  145.3120 C   0  0  0  0  0  3  0  0  0  0  0  0
  185.2170  178.6300  142.1550 C   0  0  0  0  0  3  0  0  0  0  0  0
  189.7530  176.5000  138.9910 C   0  0  0  0  0  3  0  0  0  0  0  0
  183.8750  178.9290  142.4030 C   0  0  0  0  0  3  0  0  0  0  0  0
  191.0310  176.1860  139.1860 C   0  0  0  0  0  3  0  0  0  0  0  0
  186.0580  178.2040  143.1950 C   0  0  0  0  0  0  0  0  0  0  0  0
  189.6880  177.1360  143.8270 C   0  0  2  0  0  3  0  0  0  0  0  0
  183.3570  178.8070  143.6930 C   0  0  0  0  0  0  0  0  0  0  0  0
  185.5230  178.0830  144.4990 C   0  0  0  0  0  0  0  0  0  0  0  0
  190.3440  177.9570  141.6360 C   0  0  0  0  0  0  0  0  0  0  0  0
  187.4160  177.9010  142.9500 C   0  0  0  0  0  0  0  0  0  0  0  0
  189.1670  177.7840  139.4720 C   0  0  0  0  0  2  0  0  0  0  0  0
  186.3300  177.6550  145.5470 C   0  0  0  0  0  3  0  0  0  0  0  0
  191.9790  177.0090  139.9580 C   0  0  0  0  0  3  0  0  0  0  0  0
  191.6750  177.7810  141.0100 C   0  0  0  0  0  3  0  0  0  0  0  0
  189.1770  177.8710  140.9640 C   0  0  0  0  0  0  0  0  0  0  0  0
  191.8550  176.1150  147.3750 C   0  0  0  0  0  3  0  0  0  0  0  0
  190.4470  176.7650  145.0710 C   0  0  0  0  0  0  0  0  0  0  0  0
  191.5520  175.9020  145.0300 C   0  0  0  0  0  3  0  0  0  0  0  0
  192.2250  175.5980  146.1730 N   0  0  0  0  0  0  0  0  0  0  0  0
  190.7610  176.9810  147.4600 C   0  0  0  0  0  3  0  0  0  0  0  0
  190.0580  177.3050  146.2980 C   0  0  0  0  0  3  0  0  0  0  0  0
  1 12  1  0  0  0  0
  2  6  1  0  0  0  0
  3 16  1  0  0  0  0
  6 18  2  0  0  0  0
  7  9  2  0  0  0  0
  7 11  1  0  0  0  0
  8 10  2  0  0  0  0
  8 17  1  0  0  0  0
  9 13  1  0  0  0  0
 10 19  1  0  0  0  0
 11 14  2  0  0  0  0
 12  2  1  0  0  0  0
 12 23  1  1  0  0  0
 13  5  1  0  0  0  0
 13  4  2  0  0  0  0
 14  4  1  0  0  0  0
 14 18  1  0  0  0  0
 15  1  1  0  0  0  0
 16 11  1  0  0  0  0
 16  2  2  0  0  0  0
 17 21  1  0  0  0  0
 19 20  2  0  0  0  0
 20 15  1  0  0  0  0
 21  3  1  0  0  0  0
 21 15  2  0  0  0  0
 22 26  1  0  0  0  0
 23 27  1  0  0  0  0
 24 23  2  0  0  0  0
 24 25  1  0  0  0  0
 25 22  2  0  0  0  0
 27 26  2  0  0  0  0
M  END
>  <MODEL>
1

>  <REMARK>
 VINA RESULT:     -10.6      0.000      0.000
  Name = 
  1 active torsions:
  status: ('A' for Active; 'I' for Inactive)
    1  A    between atoms: C_9  and  C_15
                            x       y       z     vdW  Elec       q    Type
                         _______ _______ _______ _____ _____    ______ ____

>  <TORSDO>
F 1

$$$$
=
 OpenBabel10272401093D

 27 31  0  0  1  0  0  0  0  0999 V2000
  188.5160  176.5370  144.3660 C   0  0  0  0  0  2  0  0  0  0  0  0
  187.0980  178.0910  143.0730 C   0  0  0  0  0  0  0  0  0  0  0  0
  186.2270  177.9960  145.4420 N   0  0  0  0  0  2  0  0  0  0  0  0
  183.2000  178.9920  141.7450 C   0  0  0  0  0  3  0  0  0  0  0  0
  180.8630  179.3650  142.2070 O   0  0  0  0  0  1  0  0  0  0  0  0
  186.8220  178.3310  141.7160 C   0  0  0  0  0  3  0  0  0  0  0  0
  183.6630  178.5530  144.4670 C   0  0  0  0  0  3  0  0  0  0  0  0
  188.2040  178.7580  148.2690 C   0  0  0  0  0  3  0  0  0  0  0  0
  182.3750  178.8510  144.0140 C   0  0  0  0  0  3  0  0  0  0  0  0
  189.5010  178.4610  148.2740 C   0  0  0  0  0  3  0  0  0  0  0  0
  184.7360  178.4700  143.5660 C   0  0  0  0  0  0  0  0  0  0  0  0
  188.5090  177.7770  143.5010 C   0  0  2  0  0  3  0  0  0  0  0  0
  182.1440  179.0700  142.6550 C   0  0  0  0  0  0  0  0  0  0  0  0
  184.4910  178.6940  142.1910 C   0  0  0  0  0  0  0  0  0  0  0  0
  188.4290  176.9550  145.7860 C   0  0  0  0  0  0  0  0  0  0  0  0
  186.0400  178.1680  144.0190 C   0  0  0  0  0  0  0  0  0  0  0  0
  187.1760  177.8230  147.7290 C   0  0  0  0  0  2  0  0  0  0  0  0
  185.5360  178.6270  141.2770 C   0  0  0  0  0  3  0  0  0  0  0  0
  190.0750  177.2390  147.6830 C   0  0  0  0  0  3  0  0  0  0  0  0
  189.6020  176.5860  146.6140 C   0  0  0  0  0  3  0  0  0  0  0  0
  187.3450  177.6050  146.2600 C   0  0  0  0  0  0  0  0  0  0  0  0
  191.3530  177.4170  140.3220 C   0  0  0  0  0  3  0  0  0  0  0  0
  189.5120  177.6620  142.3860 C   0  0  0  0  0  0  0  0  0  0  0  0
  190.8850  177.8430  142.6100 C   0  0  0  0  0  3  0  0  0  0  0  0
  191.7670  177.7180  141.5820 N   0  0  0  0  0  0  0  0  0  0  0  0
  189.9950  177.2270  140.0560 C   0  0  0  0  0  3  0  0  0  0  0  0
  189.0730  177.3490  141.0980 C   0  0  0  0  0  3  0  0  0  0  0  0
  1 15  1  0  0  0  0
  2 12  1  0  0  0  0
  2 16  1  0  0  0  0
  3 21  1  0  0  0  0
  4 14  1  0  0  0  0
  4 13  2  0  0  0  0
  5 13  1  0  0  0  0
  6  2  2  0  0  0  0
  8 10  2  0  0  0  0
  9  7  2  0  0  0  0
 11 16  2  0  0  0  0
 11  7  1  0  0  0  0
 12 23  1  6  0  0  0
 12  1  1  0  0  0  0
 13  9  1  0  0  0  0
 14 11  1  0  0  0  0
 15 21  2  0  0  0  0
 15 20  1  0  0  0  0
 16  3  1  0  0  0  0
 17  8  1  0  0  0  0
 18  6  1  0  0  0  0
 18 14  2  0  0  0  0
 19 10  1  0  0  0  0
 20 19  2  0  0  0  0
 21 17  1  0  0  0  0
 22 25  1  0  0  0  0
 23 24  1  0  0  0  0
 25 24  2  0  0  0  0
 26 22  2  0  0  0  0
 26 27  1  0  0  0  0
 27 23  2  0  0  0  0
M  END
>  <MODEL>
2

>  <REMARK>
 VINA RESULT:     -10.4      1.712      5.077
  Name = 
  1 active torsions:
  status: ('A' for Active; 'I' for Inactive)
    1  A    between atoms: C_9  and  C_15
                            x       y       z     vdW  Elec       q    Type
                         _______ _______ _______ _____ _____    ______ ____

>  <TORSDO>
F 1

$$$$
=
 OpenBabel10272401093D

 27 31  0  0  1  0  0  0  0  0999 V2000
  188.7130  178.8060  140.9990 C   0  0  0  0  0  2  0  0  0  0  0  0
  187.0210  177.9270  142.5670 C   0  0  0  0  0  0  0  0  0  0  0  0
  185.9200  178.2910  140.3240 N   0  0  0  0  0  2  0  0  0  0  0  0
  183.2980  178.5850  144.4300 C   0  0  0  0  0  3  0  0  0  0  0  0
  180.9480  179.1080  144.2890 O   0  0  0  0  0  1  0  0  0  0  0  0
  186.8720  177.8380  143.9620 C   0  0  0  0  0  3  0  0  0  0  0  0
  183.4980  178.7600  141.6460 C   0  0  0  0  0  3  0  0  0  0  0  0
  187.0520  176.7810  137.3370 C   0  0  0  0  0  3  0  0  0  0  0  0
  182.2690  178.9770  142.2760 C   0  0  0  0  0  3  0  0  0  0  0  0
  188.3520  176.5690  137.1490 C   0  0  0  0  0  3  0  0  0  0  0  0
  184.6420  178.4530  142.3990 C   0  0  0  0  0  0  0  0  0  0  0  0
  188.3720  177.6790  141.9460 C   0  0  2  0  0  3  0  0  0  0  0  0
  182.1690  178.8910  143.6660 C   0  0  0  0  0  0  0  0  0  0  0  0
  184.5300  178.3670  143.8070 C   0  0  0  0  0  0  0  0  0  0  0  0
  188.2780  178.4210  139.6340 C   0  0  0  0  0  0  0  0  0  0  0  0
  185.8870  178.2330  141.7680 C   0  0  0  0  0  0  0  0  0  0  0  0
  186.5300  178.0450  137.9300 C   0  0  0  0  0  2  0  0  0  0  0  0
  185.6440  178.0560  144.5770 C   0  0  0  0  0  3  0  0  0  0  0  0
  189.4140  177.4980  137.5740 C   0  0  0  0  0  3  0  0  0  0  0  0
  189.3730  178.3040  138.6430 C   0  0  0  0  0  3  0  0  0  0  0  0
  186.9750  178.2160  139.3470 C   0  0  0  0  0  0  0  0  0  0  0  0
  191.5880  176.9980  144.6890 C   0  0  0  0  0  3  0  0  0  0  0  0
  189.4950  177.4310  142.9160 C   0  0  0  0  0  0  0  0  0  0  0  0
  189.9870  176.1410  143.1600 C   0  0  0  0  0  3  0  0  0  0  0  0
  191.0130  175.9540  144.0330 N   0  0  0  0  0  0  0  0  0  0  0  0
  191.1280  178.3000  144.4740 C   0  0  0  0  0  3  0  0  0  0  0  0
  190.0770  178.5130  143.5800 C   0  0  0  0  0  3  0  0  0  0  0  0
  1 12  1  0  0  0  0
  2  6  1  0  0  0  0
  3 16  1  0  0  0  0
  6 18  2  0  0  0  0
  7  9  2  0  0  0  0
  7 11  1  0  0  0  0
  8 17  1  0  0  0  0
  9 13  1  0  0  0  0
 10  8  2  0  0  0  0
 10 19  1  0  0  0  0
 11 14  2  0  0  0  0
 12  2  1  0  0  0  0
 12 23  1  1  0  0  0
 13  5  1  0  0  0  0
 13  4  2  0  0  0  0
 14  4  1  0  0  0  0
 14 18  1  0  0  0  0
 15  1  1  0  0  0  0
 16 11  1  0  0  0  0
 16  2  2  0  0  0  0
 17 21  1  0  0  0  0
 19 20  2  0  0  0  0
 20 15  1  0  0  0  0
 21 15  2  0  0  0  0
 21  3  1  0  0  0  0
 23 24  2  0  0  0  0
 23 27  1  0  0  0  0
 24 25  1  0  0  0  0
 25 22  2  0  0  0  0
 26 22  1  0  0  0  0
 27 26  2  0  0  0  0
M  END
>  <MODEL>
3

>  <REMARK>
 VINA RESULT:      -9.9      1.751      2.440
  Name = 
  1 active torsions:
  status: ('A' for Active; 'I' for Inactive)
    1  A    between atoms: C_9  and  C_15
                            x       y       z     vdW  Elec       q    Type
                         _______ _______ _______ _____ _____    ______ ____

>  <TORSDO>
F 1

$$$$
=
 OpenBabel10272401093D

 27 31  0  0  1  0  0  0  0  0999 V2000
  187.5740  176.7020  144.5460 C   0  0  0  0  0  2  0  0  0  0  0  0
  189.3290  177.4660  142.9870 C   0  0  0  0  0  0  0  0  0  0  0  0
  187.0770  177.9490  141.9540 N   0  0  0  0  0  2  0  0  0  0  0  0
  190.9610  177.1280  139.1150 C   0  0  0  0  0  3  0  0  0  0  0  0
  190.6940  177.1640  136.7190 O   0  0  0  0  0  1  0  0  0  0  0  0
  190.6970  177.2110  142.7860 C   0  0  0  0  0  3  0  0  0  0  0  0
  188.2330  177.6610  139.4210 C   0  0  0  0  0  3  0  0  0  0  0  0
  184.6050  179.9280  143.5220 C   0  0  0  0  0  3  0  0  0  0  0  0
  188.7860  177.5460  138.1430 C   0  0  0  0  0  3  0  0  0  0  0  0
  184.4760  179.9060  144.8460 C   0  0  0  0  0  3  0  0  0  0  0  0
  189.0360  177.5120  140.5630 C   0  0  0  0  0  0  0  0  0  0  0  0
  188.7930  177.5830  144.3910 C   0  0  2  0  0  3  0  0  0  0  0  0
  190.1480  177.2790  137.9900 C   0  0  0  0  0  0  0  0  0  0  0  0
  190.4150  177.2420  140.3970 C   0  0  0  0  0  0  0  0  0  0  0  0
  186.3670  177.5190  144.2700 C   0  0  0  0  0  0  0  0  0  0  0  0
  188.4820  177.6270  141.8580 C   0  0  0  0  0  0  0  0  0  0  0  0
  184.8360  178.6890  142.7250 C   0  0  0  0  0  2  0  0  0  0  0  0
  191.2360  177.0980  141.5090 C   0  0  0  0  0  3  0  0  0  0  0  0
  184.6290  178.6980  145.6750 C   0  0  0  0  0  3  0  0  0  0  0  0
  185.4400  177.6630  145.4160 C   0  0  0  0  0  3  0  0  0  0  0  0
  186.1510  178.0590  143.0520 C   0  0  0  0  0  0  0  0  0  0  0  0
  191.6230  176.8780  147.5250 C   0  0  0  0  0  3  0  0  0  0  0  0
  189.7890  177.3240  145.4880 C   0  0  0  0  0  0  0  0  0  0  0  0
  191.1010  176.9140  145.2100 C   0  0  0  0  0  3  0  0  0  0  0  0
  191.9810  176.7010  146.2250 N   0  0  0  0  0  0  0  0  0  0  0  0
  190.3260  177.2880  147.8460 C   0  0  0  0  0  3  0  0  0  0  0  0
  189.4090  177.5120  146.8180 C   0  0  0  0  0  3  0  0  0  0  0  0
  2 12  1  0  0  0  0
  3 21  1  0  0  0  0
  4 14  1  0  0  0  0
  5 13  1  0  0  0  0
  6  2  1  0  0  0  0
  7 11  1  0  0  0  0
  8 10  2  0  0  0  0
  9  7  2  0  0  0  0
 10 19  1  0  0  0  0
 11 16  1  0  0  0  0
 12  1  1  0  0  0  0
 12 23  1  1  0  0  0
 13  9  1  0  0  0  0
 13  4  2  0  0  0  0
 14 11  2  0  0  0  0
 14 18  1  0  0  0  0
 15  1  1  0  0  0  0
 15 20  1  0  0  0  0
 16  3  1  0  0  0  0
 16  2  2  0  0  0  0
 17 21  1  0  0  0  0
 17  8  1  0  0  0  0
 18  6  2  0  0  0  0
 20 19  2  0  0  0  0
 21 15  2  0  0  0  0
 22 26  1  0  0  0  0
 23 27  1  0  0  0  0
 24 23  2  0  0  0  0
 24 25  1  0  0  0  0
 25 22  2  0  0  0  0
 27 26  2  0  0  0  0
M  END
>  <MODEL>
4

>  <REMARK>
 VINA RESULT:      -9.9      2.425      5.623
  Name = 
  1 active torsions:
  status: ('A' for Active; 'I' for Inactive)
    1  A    between atoms: C_9  and  C_15
                            x       y       z     vdW  Elec       q    Type
                         _______ _______ _______ _____ _____    ______ ____

>  <TORSDO>
F 1

$$$$
=
 OpenBabel10272401093D

 27 31  0  0  1  0  0  0  0  0999 V2000
  187.6060  176.8050  144.0640 C   0  0  0  0  0  2  0  0  0  0  0  0
  186.7650  178.2370  142.2370 C   0  0  0  0  0  0  0  0  0  0  0  0
  185.0950  178.2940  144.1300 N   0  0  0  0  0  2  0  0  0  0  0  0
  183.6220  178.9690  139.5260 C   0  0  0  0  0  3  0  0  0  0  0  0
  181.2790  179.3300  139.0830 O   0  0  0  0  0  1  0  0  0  0  0  0
  187.0020  178.3760  140.8580 C   0  0  0  0  0  3  0  0  0  0  0  0
  183.0620  178.7320  142.2560 C   0  0  0  0  0  3  0  0  0  0  0  0
  185.9190  179.2900  147.4180 C   0  0  0  0  0  3  0  0  0  0  0  0
  182.0290  178.9730  141.3470 C   0  0  0  0  0  3  0  0  0  0  0  0
  187.1230  179.0190  147.9140 C   0  0  0  0  0  3  0  0  0  0  0  0
  184.3890  178.6050  141.8120 C   0  0  0  0  0  0  0  0  0  0  0  0
  187.9230  177.9810  143.1680 C   0  0  2  0  0  3  0  0  0  0  0  0
  182.3080  179.0910  139.9840 C   0  0  0  0  0  0  0  0  0  0  0  0
  184.6600  178.7280  140.4300 C   0  0  0  0  0  0  0  0  0  0  0  0
  187.0140  177.3210  145.3230 C   0  0  0  0  0  0  0  0  0  0  0  0
  185.4370  178.3610  142.7270 C   0  0  0  0  0  0  0  0  0  0  0  0
  185.1490  178.3000  146.6110 C   0  0  0  0  0  2  0  0  0  0  0  0
  185.9650  178.6160  139.9630 C   0  0  0  0  0  3  0  0  0  0  0  0
  187.8620  177.7690  147.6610 C   0  0  0  0  0  3  0  0  0  0  0  0
  187.8040  177.0340  146.5430 C   0  0  0  0  0  3  0  0  0  0  0  0
  185.8370  177.9820  145.3240 C   0  0  0  0  0  0  0  0  0  0  0  0
  191.7260  177.4500  141.2750 C   0  0  0  0  0  3  0  0  0  0  0  0
  189.2610  177.8070  142.5040 C   0  0  0  0  0  0  0  0  0  0  0  0
  190.4490  178.2280  143.1190 C   0  0  0  0  0  3  0  0  0  0  0  0
  191.6440  178.0430  142.4960 N   0  0  0  0  0  0  0  0  0  0  0  0
  190.5660  177.0140  140.6280 C   0  0  0  0  0  3  0  0  0  0  0  0
  189.3300  177.1940  141.2510 C   0  0  0  0  0  3  0  0  0  0  0  0
  1 15  1  0  0  0  0
  2 16  1  0  0  0  0
  2 12  1  0  0  0  0
  3 21  1  0  0  0  0
  4 13  2  0  0  0  0
  4 14  1  0  0  0  0
  5 13  1  0  0  0  0
  6  2  2  0  0  0  0
  8 10  2  0  0  0  0
  9  7  2  0  0  0  0
 11  7  1  0  0  0  0
 11 16  2  0  0  0  0
 12 23  1  6  0  0  0
 12  1  1  0  0  0  0
 13  9  1  0  0  0  0
 14 11  1  0  0  0  0
 15 21  2  0  0  0  0
 15 20  1  0  0  0  0
 16  3  1  0  0  0  0
 17  8  1  0  0  0  0
 18 14  2  0  0  0  0
 18  6  1  0  0  0  0
 19 10  1  0  0  0  0
 20 19  2  0  0  0  0
 21 17  1  0  0  0  0
 22 25  1  0  0  0  0
 23 24  1  0  0  0  0
 25 24  2  0  0  0  0
 26 27  1  0  0  0  0
 26 22  2  0  0  0  0
 27 23  2  0  0  0  0
M  END
>  <MODEL>
5

>  <REMARK>
 VINA RESULT:      -9.7      2.225      5.379
  Name = 
  1 active torsions:
  status: ('A' for Active; 'I' for Inactive)
    1  A    between atoms: C_9  and  C_15
                            x       y       z     vdW  Elec       q    Type
                         _______ _______ _______ _____ _____    ______ ____

>  <TORSDO>
F 1

$$$$
=
 OpenBabel10272401093D

 27 31  0  0  1  0  0  0  0  0999 V2000
  187.3530  178.8940  140.8290 C   0  0  0  0  0  2  0  0  0  0  0  0
  188.1610  177.5540  142.7380 C   0  0  0  0  0  0  0  0  0  0  0  0
  185.7660  178.2180  143.1840 N   0  0  0  0  0  2  0  0  0  0  0  0
  188.8360  177.4360  146.8970 C   0  0  0  0  0  3  0  0  0  0  0  0
  188.0430  177.7180  149.1570 O   0  0  0  0  0  1  0  0  0  0  0  0
  189.4090  177.1830  143.2690 C   0  0  0  0  0  3  0  0  0  0  0  0
  186.3150  178.1600  145.9280 C   0  0  0  0  0  3  0  0  0  0  0  0
  183.0970  177.4390  141.0050 C   0  0  0  0  0  3  0  0  0  0  0  0
  186.5520  178.1190  147.3050 C   0  0  0  0  0  3  0  0  0  0  0  0
  183.2980  177.4090  139.6900 C   0  0  0  0  0  3  0  0  0  0  0  0
  187.3350  177.8410  145.0180 C   0  0  0  0  0  0  0  0  0  0  0  0
  187.9670  177.5760  141.2430 C   0  0  2  0  0  3  0  0  0  0  0  0
  187.8110  177.7580  147.7880 C   0  0  0  0  0  0  0  0  0  0  0  0
  188.6060  177.4760  145.5190 C   0  0  0  0  0  0  0  0  0  0  0  0
  185.8800  178.7320  140.7810 C   0  0  0  0  0  0  0  0  0  0  0  0
  187.1010  177.8820  143.6250 C   0  0  0  0  0  0  0  0  0  0  0  0
  183.6770  178.5020  141.8740 C   0  0  0  0  0  2  0  0  0  0  0  0
  189.6330  177.1460  144.6410 C   0  0  0  0  0  3  0  0  0  0  0  0
  184.1680  178.3490  138.9620 C   0  0  0  0  0  3  0  0  0  0  0  0
  185.2770  178.9260  139.4410 C   0  0  0  0  0  3  0  0  0  0  0  0
  185.1700  178.4460  141.8930 C   0  0  0  0  0  0  0  0  0  0  0  0
  191.4430  176.6750  138.9130 C   0  0  0  0  0  3  0  0  0  0  0  0
  189.1920  177.2710  140.4260 C   0  0  0  0  0  0  0  0  0  0  0  0
  190.4840  177.4430  140.9440 C   0  0  0  0  0  3  0  0  0  0  0  0
  191.5710  177.1450  140.1830 N   0  0  0  0  0  0  0  0  0  0  0  0
  190.1740  176.4870  138.3600 C   0  0  0  0  0  3  0  0  0  0  0  0
  189.0460  176.7870  139.1250 C   0  0  0  0  0  3  0  0  0  0  0  0
  1 12  1  0  0  0  0
  2  6  2  0  0  0  0
  2 16  1  0  0  0  0
  3 16  1  0  0  0  0
  4 13  2  0  0  0  0
  6 18  1  0  0  0  0
  7  9  2  0  0  0  0
  8 17  1  0  0  0  0
  9 13  1  0  0  0  0
 10  8  2  0  0  0  0
 11 14  1  0  0  0  0
 11  7  1  0  0  0  0
 12 23  1  6  0  0  0
 12  2  1  0  0  0  0
 13  5  1  0  0  0  0
 14  4  1  0  0  0  0
 15  1  1  0  0  0  0
 15 21  2  0  0  0  0
 16 11  2  0  0  0  0
 17 21  1  0  0  0  0
 18 14  2  0  0  0  0
 19 20  2  0  0  0  0
 19 10  1  0  0  0  0
 20 15  1  0  0  0  0
 21  3  1  0  0  0  0
 22 25  1  0  0  0  0
 23 24  1  0  0  0  0
 25 24  2  0  0  0  0
 26 22  2  0  0  0  0
 26 27  1  0  0  0  0
 27 23  2  0  0  0  0
M  END
>  <MODEL>
6

>  <REMARK>
 VINA RESULT:      -9.7      2.443      5.550
  Name = 
  1 active torsions:
  status: ('A' for Active; 'I' for Inactive)
    1  A    between atoms: C_9  and  C_15
                            x       y       z     vdW  Elec       q    Type
                         _______ _______ _______ _____ _____    ______ ____

>  <TORSDO>
F 1

$$$$
=
 OpenBabel10272401093D

 27 31  0  0  1  0  0  0  0  0999 V2000
  188.8630  176.3050  142.1940 C   0  0  0  0  0  2  0  0  0  0  0  0
  187.1680  178.0350  141.7160 C   0  0  0  0  0  0  0  0  0  0  0  0
  187.2560  177.6700  144.2130 N   0  0  0  0  0  2  0  0  0  0  0  0
  183.1270  179.1750  142.0890 C   0  0  0  0  0  3  0  0  0  0  0  0
  181.1700  179.5390  143.4510 O   0  0  0  0  0  1  0  0  0  0  0  0
  186.4150  178.4450  140.6020 C   0  0  0  0  0  3  0  0  0  0  0  0
  184.5570  178.3960  144.3630 C   0  0  0  0  0  3  0  0  0  0  0  0
  190.2030  178.0390  146.1270 C   0  0  0  0  0  3  0  0  0  0  0  0
  183.2170  178.7750  144.4740 C   0  0  0  0  0  3  0  0  0  0  0  0
  191.3820  177.7160  145.6020 C   0  0  0  0  0  3  0  0  0  0  0  0
  185.2000  178.4010  143.1150 C   0  0  0  0  0  0  0  0  0  0  0  0
  188.6110  177.6410  141.5330 C   0  0  2  0  0  3  0  0  0  0  0  0
  182.5020  179.1630  143.3380 C   0  0  0  0  0  0  0  0  0  0  0  0
  184.4680  178.7970  141.9720 C   0  0  0  0  0  0  0  0  0  0  0  0
  189.3500  176.5480  143.5740 C   0  0  0  0  0  0  0  0  0  0  0  0
  186.5550  178.0180  142.9980 C   0  0  0  0  0  0  0  0  0  0  0  0
  188.9870  177.1990  145.9280 C   0  0  0  0  0  2  0  0  0  0  0  0
  185.0810  178.8200  140.7240 C   0  0  0  0  0  3  0  0  0  0  0  0
  191.6060  176.5630  144.7120 C   0  0  0  0  0  3  0  0  0  0  0  0
  190.7210  176.0560  143.8440 C   0  0  0  0  0  3  0  0  0  0  0  0
  188.5720  177.1580  144.4930 C   0  0  0  0  0  0  0  0  0  0  0  0
  190.0570  177.6370  137.5040 C   0  0  0  0  0  3  0  0  0  0  0  0
  189.1080  177.6410  140.1130 C   0  0  0  0  0  0  0  0  0  0  0  0
  188.8830  178.7280  139.2550 C   0  0  0  0  0  3  0  0  0  0  0  0
  189.3570  178.7020  137.9800 N   0  0  0  0  0  0  0  0  0  0  0  0
  190.3050  176.5360  138.3260 C   0  0  0  0  0  3  0  0  0  0  0  0
  189.8270  176.5430  139.6380 C   0  0  0  0  0  3  0  0  0  0  0  0
  1 15  1  0  0  0  0
  2 16  1  0  0  0  0
  3 21  1  0  0  0  0
  4 13  2  0  0  0  0
  6 18  1  0  0  0  0
  6  2  2  0  0  0  0
  7  9  2  0  0  0  0
 10  8  2  0  0  0  0
 11  7  1  0  0  0  0
 12 23  1  6  0  0  0
 12  2  1  0  0  0  0
 12  1  1  0  0  0  0
 13  5  1  0  0  0  0
 13  9  1  0  0  0  0
 14  4  1  0  0  0  0
 14 11  1  0  0  0  0
 15 20  1  0  0  0  0
 15 21  2  0  0  0  0
 16 11  2  0  0  0  0
 16  3  1  0  0  0  0
 17  8  1  0  0  0  0
 18 14  2  0  0  0  0
 19 10  1  0  0  0  0
 20 19  2  0  0  0  0
 21 17  1  0  0  0  0
 22 25  2  0  0  0  0
 22 26  1  0  0  0  0
 24 23  2  0  0  0  0
 25 24  1  0  0  0  0
 26 27  2  0  0  0  0
 27 23  1  0  0  0  0
M  END
>  <MODEL>
7

>  <REMARK>
 VINA RESULT:      -9.6      1.795      5.077
  Name = 
  1 active torsions:
  status: ('A' for Active; 'I' for Inactive)
    1  A    between atoms: C_9  and  C_15
                            x       y       z     vdW  Elec       q    Type
                         _______ _______ _______ _____ _____    ______ ____

>  <TORSDO>
F 1

$$$$
=
 OpenBabel10272401093D

 27 31  0  0  1  0  0  0  0  0999 V2000
  188.1220  178.7470  140.7620 C   0  0  0  0  0  2  0  0  0  0  0  0
  189.3990  177.1210  142.1110 C   0  0  0  0  0  0  0  0  0  0  0  0
  187.5200  178.0340  143.5290 N   0  0  0  0  0  2  0  0  0  0  0  0
  191.6490  176.4810  145.6180 C   0  0  0  0  0  3  0  0  0  0  0  0
  191.8780  176.6220  148.0140 O   0  0  0  0  0  1  0  0  0  0  0  0
  190.6790  176.5410  142.0670 C   0  0  0  0  0  3  0  0  0  0  0  0
  189.1010  177.6190  145.8010 C   0  0  0  0  0  3  0  0  0  0  0  0
  184.1160  177.8360  142.6040 C   0  0  0  0  0  3  0  0  0  0  0  0
  189.8570  177.4020  146.9560 C   0  0  0  0  0  3  0  0  0  0  0  0
  183.7690  177.9190  141.3220 C   0  0  0  0  0  3  0  0  0  0  0  0
  189.6080  177.2690  144.5390 C   0  0  0  0  0  0  0  0  0  0  0  0
  188.6310  177.3260  140.8300 C   0  0  2  0  0  3  0  0  0  0  0  0
  191.1290  176.8350  146.8650 C   0  0  0  0  0  0  0  0  0  0  0  0
  190.8980  176.6940  144.4580 C   0  0  0  0  0  0  0  0  0  0  0  0
  186.7460  178.7800  141.3160 C   0  0  0  0  0  0  0  0  0  0  0  0
  188.8480  177.4860  143.3680 C   0  0  0  0  0  0  0  0  0  0  0  0
  185.1560  178.7190  143.2040 C   0  0  0  0  0  2  0  0  0  0  0  0
  191.4220  176.3310  143.2230 C   0  0  0  0  0  3  0  0  0  0  0  0
  184.4140  178.8120  140.3430 C   0  0  0  0  0  3  0  0  0  0  0  0
  185.6990  179.1900  140.3510 C   0  0  0  0  0  3  0  0  0  0  0  0
  186.5040  178.4710  142.6070 C   0  0  0  0  0  0  0  0  0  0  0  0
  190.7310  176.3030  137.2420 C   0  0  0  0  0  3  0  0  0  0  0  0
  189.3640  176.9550  139.5700 C   0  0  0  0  0  0  0  0  0  0  0  0
  188.6880  176.4700  138.4400 C   0  0  0  0  0  3  0  0  0  0  0  0
  189.3800  176.1570  137.3120 N   0  0  0  0  0  0  0  0  0  0  0  0
  191.4420  176.7860  138.3440 C   0  0  0  0  0  3  0  0  0  0  0  0
  190.7500  177.1130  139.5110 C   0  0  0  0  0  3  0  0  0  0  0  0
  1 12  1  0  0  0  0
  1 15  1  0  0  0  0
  2 16  1  0  0  0  0
  4 13  2  0  0  0  0
  6  2  2  0  0  0  0
  6 18  1  0  0  0  0
  7  9  2  0  0  0  0
  8 17  1  0  0  0  0
 10  8  2  0  0  0  0
 11  7  1  0  0  0  0
 12 23  1  6  0  0  0
 12  2  1  0  0  0  0
 13  9  1  0  0  0  0
 13  5  1  0  0  0  0
 14 11  1  0  0  0  0
 14  4  1  0  0  0  0
 15 21  2  0  0  0  0
 16  3  1  0  0  0  0
 16 11  2  0  0  0  0
 18 14  2  0  0  0  0
 19 20  2  0  0  0  0
 19 10  1  0  0  0  0
 20 15  1  0  0  0  0
 21 17  1  0  0  0  0
 21  3  1  0  0  0  0
 22 25  2  0  0  0  0
 22 26  1  0  0  0  0
 24 23  2  0  0  0  0
 25 24  1  0  0  0  0
 26 27  2  0  0  0  0
 27 23  1  0  0  0  0
M  END
>  <MODEL>
8

>  <REMARK>
 VINA RESULT:      -9.3      2.720      6.497
  Name = 
  1 active torsions:
  status: ('A' for Active; 'I' for Inactive)
    1  A    between atoms: C_9  and  C_15
                            x       y       z     vdW  Elec       q    Type
                         _______ _______ _______ _____ _____    ______ ____

>  <TORSDO>
F 1

$$$$
=
 OpenBabel10272401093D

 27 31  0  0  1  0  0  0  0  0999 V2000
  189.4100  178.4030  138.6680 C   0  0  0  0  0  2  0  0  0  0  0  0
  189.4850  177.0890  140.7570 C   0  0  0  0  0  0  0  0  0  0  0  0
  187.1500  178.0060  140.4730 N   0  0  0  0  0  2  0  0  0  0  0  0
  188.9190  177.1180  144.9340 C   0  0  0  0  0  3  0  0  0  0  0  0
  187.5450  177.5920  146.8590 O   0  0  0  0  0  1  0  0  0  0  0  0
  190.4790  176.6250  141.6360 C   0  0  0  0  0  3  0  0  0  0  0  0
  186.8760  178.0360  143.2580 C   0  0  0  0  0  3  0  0  0  0  0  0
  185.1510  177.3830  137.6270 C   0  0  0  0  0  3  0  0  0  0  0  0
  186.7020  178.0410  144.6450 C   0  0  0  0  0  3  0  0  0  0  0  0
  185.7170  177.2650  136.4290 C   0  0  0  0  0  3  0  0  0  0  0  0
  188.0740  177.5710  142.6910 C   0  0  0  0  0  0  0  0  0  0  0  0
  189.7310  177.0540  139.2700 C   0  0  2  0  0  3  0  0  0  0  0  0
  187.7210  177.5840  145.4820 C   0  0  0  0  0  0  0  0  0  0  0  0
  189.1010  177.1090  143.5480 C   0  0  0  0  0  0  0  0  0  0  0  0
  188.0040  178.3830  138.1970 C   0  0  0  0  0  0  0  0  0  0  0  0
  188.2570  177.5640  141.2900 C   0  0  0  0  0  0  0  0  0  0  0  0
  185.5690  178.4270  138.6060 C   0  0  0  0  0  2  0  0  0  0  0  0
  190.2940  176.6360  143.0140 C   0  0  0  0  0  3  0  0  0  0  0  0
  186.8560  178.0770  135.9660 C   0  0  0  0  0  3  0  0  0  0  0  0
  187.8370  178.5670  136.7360 C   0  0  0  0  0  3  0  0  0  0  0  0
  186.9780  178.2260  139.0600 C   0  0  0  0  0  0  0  0  0  0  0  0
  193.6190  175.6990  138.0960 C   0  0  0  0  0  3  0  0  0  0  0  0
  191.1000  176.5890  138.8520 C   0  0  0  0  0  0  0  0  0  0  0  0
  192.2590  177.2880  139.2190 C   0  0  0  0  0  3  0  0  0  0  0  0
  193.4820  176.8330  138.8350 N   0  0  0  0  0  0  0  0  0  0  0  0
  192.4900  174.9710  137.7120 C   0  0  0  0  0  3  0  0  0  0  0  0
  191.2260  175.4220  138.0960 C   0  0  0  0  0  3  0  0  0  0  0  0
  1 12  1  0  0  0  0
  2 16  2  0  0  0  0
  2  6  1  0  0  0  0
  3 16  1  0  0  0  0
  4 13  1  0  0  0  0
  6 18  2  0  0  0  0
  7  9  1  0  0  0  0
  8 17  1  0  0  0  0
  9 13  2  0  0  0  0
 10  8  2  0  0  0  0
 11  7  2  0  0  0  0
 11 14  1  0  0  0  0
 12 23  1  1  0  0  0
 12  2  1  0  0  0  0
 13  5  1  0  0  0  0
 14  4  2  0  0  0  0
 15  1  1  0  0  0  0
 15 21  2  0  0  0  0
 16 11  1  0  0  0  0
 17 21  1  0  0  0  0
 18 14  1  0  0  0  0
 19 10  1  0  0  0  0
 19 20  2  0  0  0  0
 20 15  1  0  0  0  0
 21  3  1  0  0  0  0
 22 25  1  0  0  0  0
 23 24  1  0  0  0  0
 25 24  2  0  0  0  0
 26 27  1  0  0  0  0
 26 22  2  0  0  0  0
 27 23  2  0  0  0  0
M  END
>  <MODEL>
9

>  <REMARK>
 VINA RESULT:      -9.3      2.723      5.459
  Name = 
  1 active torsions:
  status: ('A' for Active; 'I' for Inactive)
    1  A    between atoms: C_9  and  C_15
                            x       y       z     vdW  Elec       q    Type
                         _______ _______ _______ _____ _____    ______ ____

>  <TORSDO>
F 1

$$$$
