=
 OpenBabel10272414583D

 37 36  0  0  1  0  0  0  0  0999 V2000
  188.3250  178.5900  141.6550 C   0  0  2  0  0  3  0  0  0  0  0  0
  188.5670  177.7340  142.9100 C   0  0  1  0  0  3  0  0  0  0  0  0
  188.7800  175.5940  142.9750 O   0  0  0  0  0  1  0  0  0  0  0  0
  187.8540  176.5280  142.8910 O   0  0  0  0  0  0  0  0  0  0  0  0
  190.0590  177.4650  143.1140 C   0  0  0  0  0  2  0  0  0  0  0  0
  190.5900  178.0530  144.4170 C   0  0  2  0  0  3  0  0  0  0  0  0
  191.7530  178.7810  144.1670 O   0  0  0  0  0  1  0  0  0  0  0  0
  190.9100  176.9330  145.3980 C   0  0  0  0  0  2  0  0  0  0  0  0
  190.6340  177.3120  146.8550 C   0  0  2  0  0  3  0  0  0  0  0  0
  191.6910  176.9530  147.6970 O   0  0  0  0  0  0  0  0  0  0  0  0
  191.9310  175.6890  147.4120 O   0  0  0  0  0  1  0  0  0  0  0  0
  189.2940  176.7880  147.3720 C   0  0  0  0  0  2  0  0  0  0  0  0
  188.1760  177.8120  147.2420 C   0  0  0  0  0  2  0  0  0  0  0  0
  187.1650  177.3220  146.2270 C   0  0  0  0  0  2  0  0  0  0  0  0
  184.9680  178.4210  146.5070 C   0  0  0  0  0  1  0  0  0  0  0  0
  186.2960  178.4790  145.7820 C   0  0  0  0  0  2  0  0  0  0  0  0
  187.0100  179.3520  141.7900 C   0  0  0  0  0  2  0  0  0  0  0  0
  184.8180  178.1960  142.1730 C   0  0  0  0  0  1  0  0  0  0  0  0
  185.8480  178.6100  141.1350 C   0  0  1  0  0  3  0  0  0  0  0  0
  183.7900  179.1600  140.0030 C   0  0  0  0  0  1  0  0  0  0  0  0
  185.2340  179.3760  140.0450 N   0  0  0  0  0  2  0  0  0  0  0  0
  188.2710  177.7520  140.3820 C   0  0  0  0  0  2  0  0  0  0  0  0
  189.4170  178.0560  139.5310 N   0  0  0  0  0  0  0  0  0  0  0  0
  190.5180  177.1370  139.8530 C   0  0  0  0  0  2  0  0  0  0  0  0
  192.4540  176.5420  138.4610 C   0  0  0  0  0  3  0  0  0  0  0  0
  191.1350  176.4910  138.6430 C   0  0  0  0  0  3  0  0  0  0  0  0
  193.0960  175.9170  137.2600 C   0  0  0  0  0  2  0  0  0  0  0  0
  192.6250  174.4850  137.0660 C   0  0  0  0  0  2  0  0  0  0  0  0
  193.8140  173.5370  136.9960 C   0  0  0  0  0  2  0  0  0  0  0  0
  194.7220  173.7320  138.1980 C   0  0  0  0  0  2  0  0  0  0  0  0
  196.0130  172.9550  138.0190 C   0  0  0  0  0  1  0  0  0  0  0  0
  189.0180  177.9000  138.1350 C   0  0  0  0  0  2  0  0  0  0  0  0
  187.5650  177.4510  138.0420 C   0  0  0  0  0  2  0  0  0  0  0  0
  186.9790  175.2800  137.2620 O   0  0  0  0  0  0  0  0  0  0  0  0
  187.3840  176.4360  136.9630 C   0  0  0  0  0  0  0  0  0  0  0  0
  187.6810  176.7680  135.6390 O   0  0  0  0  0  0  0  0  0  0  0  0
  186.9600  177.7690  134.9370 C   0  0  0  0  0  1  0  0  0  0  0  0
  1 22  1  6  0  0  0
  1 17  1  0  0  0  0
  1  2  1  0  0  0  0
  2  5  1  6  0  0  0
  4  2  1  0  0  0  0
  4  3  1  0  0  0  0
  5  6  1  0  0  0  0
  6  7  1  6  0  0  0
  6  8  1  0  0  0  0
  9  8  1  6  0  0  0
  9 12  1  0  0  0  0
  9 10  1  0  0  0  0
 11 10  1  0  0  0  0
 13 12  1  0  0  0  0
 14 13  1  0  0  0  0
 16 14  1  0  0  0  0
 16 15  1  0  0  0  0
 19 17  1  0  0  0  0
 19 18  1  1  0  0  0
 20 21  1  0  0  0  0
 21 19  1  0  0  0  0
 23 24  1  0  0  0  0
 23 22  1  0  0  0  0
 25 26  2  0  0  0  0
 26 24  1  0  0  0  0
 27 25  1  0  0  0  0
 28 27  1  0  0  0  0
 29 28  1  0  0  0  0
 29 30  1  0  0  0  0
 31 30  1  0  0  0  0
 32 23  1  0  0  0  0
 33 32  1  0  0  0  0
 35 34  2  0  0  0  0
 35 33  1  0  0  0  0
 36 35  1  0  0  0  0
 37 36  1  0  0  0  0
M  END
>  <MODEL>
1

>  <REMARK>
 VINA RESULT:      -5.7      0.000      0.000
  Name = 
  26 active torsions:
  status: ('A' for Active; 'I' for Inactive)
    1  A    between atoms: O_1  and  C_23
    2  A    between atoms: O_2  and  C_8
    3  A    between atoms: C_3  and  C_15
    4  A    between atoms: C_3  and  C_30
    5  A    between atoms: C_4  and  C_10
    6  A    between atoms: C_4  and  C_24
    7  A    between atoms: C_6  and  C_8
    8  A    between atoms: C_6  and  C_31
    9  A    between atoms: C_7  and  C_33
   10  A    between atoms: C_8  and  C_19
   11  A    between atoms: C_10  and  C_13
   12  A    between atoms: C_10  and  C_30
   13  A    between atoms: C_11  and  C_26
   14  A    between atoms: C_13  and  N_20
   15  A    between atoms: C_14  and  C_31
   16  A    between atoms: C_14  and  C_37
   17  A    between atoms: C_15  and  C_19
   18  A    between atoms: C_17  and  C_26
   19  A    between atoms: C_17  and  C_33
   20  A    between atoms: N_20  and  C_21
   21  A    between atoms: N_20  and  C_29
   22  A    between atoms: C_21  and  C_25
   23  A    between atoms: C_23  and  C_25
   24  A    between atoms: C_24  and  N_28
   25  A    between atoms: C_29  and  C_36
   26  A    between atoms: C_30  and  O_32
                            x       y       z     vdW  Elec       q    Type
                         _______ _______ _______ _____ _____    ______ ____

>  <TORSDO>
F 26

$$$$
=
 OpenBabel10272414583D

 37 36  0  0  1  0  0  0  0  0999 V2000
  189.1680  178.0220  139.7350 C   0  0  2  0  0  3  0  0  0  0  0  0
  188.4210  178.2900  138.4170 C   0  0  1  0  0  3  0  0  0  0  0  0
  188.8510  180.1150  137.3620 O   0  0  0  0  0  1  0  0  0  0  0  0
  189.2410  178.8590  137.4330 O   0  0  0  0  0  0  0  0  0  0  0  0
  187.7640  177.0140  137.8860 C   0  0  0  0  0  2  0  0  0  0  0  0
  186.3090  177.2270  137.4790 C   0  0  2  0  0  3  0  0  0  0  0  0
  186.2260  177.3980  136.0980 O   0  0  0  0  0  1  0  0  0  0  0  0
  185.7570  178.4690  138.1650 C   0  0  0  0  0  2  0  0  0  0  0  0
  184.2320  178.4570  138.2940 C   0  0  2  0  0  3  0  0  0  0  0  0
  183.7620  179.5480  139.0320 O   0  0  0  0  0  0  0  0  0  0  0  0
  184.7420  179.8370  139.8630 O   0  0  0  0  0  1  0  0  0  0  0  0
  183.6810  177.1340  138.8250 C   0  0  0  0  0  2  0  0  0  0  0  0
  182.7220  176.4670  137.8510 C   0  0  0  0  0  2  0  0  0  0  0  0
  182.6840  174.9780  138.1260 C   0  0  0  0  0  2  0  0  0  0  0  0
  183.6780  173.0630  136.9170 C   0  0  0  0  0  1  0  0  0  0  0  0
  183.9800  174.3460  137.6640 C   0  0  0  0  0  2  0  0  0  0  0  0
  189.5840  176.5560  139.8080 C   0  0  0  0  0  2  0  0  0  0  0  0
  191.3890  176.2360  138.0950 C   0  0  0  0  0  1  0  0  0  0  0  0
  191.0820  176.3740  139.5780 C   0  0  1  0  0  3  0  0  0  0  0  0
  193.2910  177.3090  139.8400 C   0  0  0  0  0  1  0  0  0  0  0  0
  191.8800  177.4400  140.1930 N   0  0  0  0  0  2  0  0  0  0  0  0
  188.3190  178.3470  140.9600 C   0  0  0  0  0  2  0  0  0  0  0  0
  188.6800  177.4700  142.0680 N   0  0  0  0  0  0  0  0  0  0  0  0
  189.6080  178.1760  142.9640 C   0  0  0  0  0  2  0  0  0  0  0  0
  191.1850  177.6140  144.7640 C   0  0  0  0  0  3  0  0  0  0  0  0
  190.0240  177.3630  144.1600 C   0  0  0  0  0  3  0  0  0  0  0  0
  191.6300  176.8150  145.9500 C   0  0  0  0  0  2  0  0  0  0  0  0
  190.4800  176.5740  146.9150 C   0  0  0  0  0  2  0  0  0  0  0  0
  190.4780  177.6260  148.0150 C   0  0  0  0  0  2  0  0  0  0  0  0
  189.0940  178.2360  148.1640 C   0  0  0  0  0  2  0  0  0  0  0  0
  188.0250  177.1810  147.9490 C   0  0  0  0  0  1  0  0  0  0  0  0
  187.4640  177.0990  142.7870 C   0  0  0  0  0  2  0  0  0  0  0  0
  186.3890  178.1620  142.6010 C   0  0  0  0  0  2  0  0  0  0  0  0
  185.9740  177.7790  144.9130 O   0  0  0  0  0  0  0  0  0  0  0  0
  185.6130  178.3680  143.8590 C   0  0  0  0  0  0  0  0  0  0  0  0
  184.4870  179.1940  143.8530 O   0  0  0  0  0  0  0  0  0  0  0  0
  183.3530  178.9230  144.6640 C   0  0  0  0  0  1  0  0  0  0  0  0
  1 17  1  1  0  0  0
  1 22  1  0  0  0  0
  2  5  1  6  0  0  0
  2  1  1  0  0  0  0
  3  4  1  0  0  0  0
  4  2  1  0  0  0  0
  6  7  1  6  0  0  0
  6  5  1  0  0  0  0
  6  8  1  0  0  0  0
  9  8  1  1  0  0  0
  9 12  1  0  0  0  0
  9 10  1  0  0  0  0
 10 11  1  0  0  0  0
 13 14  1  0  0  0  0
 13 12  1  0  0  0  0
 15 16  1  0  0  0  0
 16 14  1  0  0  0  0
 19 18  1  6  0  0  0
 19 17  1  0  0  0  0
 19 21  1  0  0  0  0
 20 21  1  0  0  0  0
 22 23  1  0  0  0  0
 23 32  1  0  0  0  0
 23 24  1  0  0  0  0
 24 26  1  0  0  0  0
 25 27  1  0  0  0  0
 26 25  2  0  0  0  0
 27 28  1  0  0  0  0
 28 29  1  0  0  0  0
 29 30  1  0  0  0  0
 31 30  1  0  0  0  0
 33 32  1  0  0  0  0
 33 35  1  0  0  0  0
 35 34  2  0  0  0  0
 36 35  1  0  0  0  0
 36 37  1  0  0  0  0
M  END
>  <MODEL>
2

>  <REMARK>
 VINA RESULT:      -5.5      2.846      8.517
  Name = 
  26 active torsions:
  status: ('A' for Active; 'I' for Inactive)
    1  A    between atoms: O_1  and  C_23
    2  A    between atoms: O_2  and  C_8
    3  A    between atoms: C_3  and  C_15
    4  A    between atoms: C_3  and  C_30
    5  A    between atoms: C_4  and  C_10
    6  A    between atoms: C_4  and  C_24
    7  A    between atoms: C_6  and  C_8
    8  A    between atoms: C_6  and  C_31
    9  A    between atoms: C_7  and  C_33
   10  A    between atoms: C_8  and  C_19
   11  A    between atoms: C_10  and  C_13
   12  A    between atoms: C_10  and  C_30
   13  A    between atoms: C_11  and  C_26
   14  A    between atoms: C_13  and  N_20
   15  A    between atoms: C_14  and  C_31
   16  A    between atoms: C_14  and  C_37
   17  A    between atoms: C_15  and  C_19
   18  A    between atoms: C_17  and  C_26
   19  A    between atoms: C_17  and  C_33
   20  A    between atoms: N_20  and  C_21
   21  A    between atoms: N_20  and  C_29
   22  A    between atoms: C_21  and  C_25
   23  A    between atoms: C_23  and  C_25
   24  A    between atoms: C_24  and  N_28
   25  A    between atoms: C_29  and  C_36
   26  A    between atoms: C_30  and  O_32
                            x       y       z     vdW  Elec       q    Type
                         _______ _______ _______ _____ _____    ______ ____

>  <TORSDO>
F 26

$$$$
=
 OpenBabel10272414583D

 37 36  0  0  1  0  0  0  0  0999 V2000
  189.8250  177.8400  142.0150 C   0  0  2  0  0  3  0  0  0  0  0  0
  190.6320  177.8480  143.3250 C   0  0  1  0  0  3  0  0  0  0  0  0
  191.4360  179.6810  144.1120 O   0  0  0  0  0  1  0  0  0  0  0  0
  190.3400  178.9510  144.1380 O   0  0  0  0  0  0  0  0  0  0  0  0
  190.4290  176.5470  144.1050 C   0  0  0  0  0  2  0  0  0  0  0  0
  191.6900  176.0970  144.8350 C   0  0  2  0  0  3  0  0  0  0  0  0
  192.2070  174.9550  144.2240 O   0  0  0  0  0  1  0  0  0  0  0  0
  191.3610  175.7740  146.2860 C   0  0  0  0  0  2  0  0  0  0  0  0
  191.5780  176.9590  147.2310 C   0  0  2  0  0  3  0  0  0  0  0  0
  192.5830  176.7020  148.1680 O   0  0  0  0  0  0  0  0  0  0  0  0
  192.9960  175.4820  147.8900 O   0  0  0  0  0  1  0  0  0  0  0  0
  190.2910  177.4430  147.8980 C   0  0  0  0  0  2  0  0  0  0  0  0
  189.0520  176.7460  147.3540 C   0  0  0  0  0  2  0  0  0  0  0  0
  188.1570  177.7680  146.6860 C   0  0  0  0  0  2  0  0  0  0  0  0
  185.8440  178.6120  146.9220 C   0  0  0  0  0  1  0  0  0  0  0  0
  187.1070  178.2400  147.6700 C   0  0  0  0  0  2  0  0  0  0  0  0
  188.7300  176.7810  142.0850 C   0  0  0  0  0  2  0  0  0  0  0  0
  186.8540  177.4080  143.6270 C   0  0  0  0  0  1  0  0  0  0  0  0
  187.3380  177.4000  142.1860 C   0  0  1  0  0  3  0  0  0  0  0  0
  185.9680  178.9790  140.9810 C   0  0  0  0  0  1  0  0  0  0  0  0
  187.2730  178.7400  141.5920 N   0  0  0  0  0  2  0  0  0  0  0  0
  190.6970  177.5570  140.7960 C   0  0  0  0  0  2  0  0  0  0  0  0
  189.9200  176.8710  139.7710 N   0  0  0  0  0  0  0  0  0  0  0  0
  189.3060  177.8650  138.8780 C   0  0  0  0  0  2  0  0  0  0  0  0
  187.3350  178.2090  137.4520 C   0  0  0  0  0  3  0  0  0  0  0  0
  188.0490  177.3780  138.2120 C   0  0  0  0  0  3  0  0  0  0  0  0
  186.0720  177.7550  136.7830 C   0  0  0  0  0  2  0  0  0  0  0  0
  185.8440  176.2660  136.9890 C   0  0  0  0  0  2  0  0  0  0  0  0
  184.4110  176.0030  137.4320 C   0  0  0  0  0  2  0  0  0  0  0  0
  183.7250  177.3040  137.8130 C   0  0  0  0  0  2  0  0  0  0  0  0
  183.1400  177.2050  139.2090 C   0  0  0  0  0  1  0  0  0  0  0  0
  190.8120  175.9940  139.0160 C   0  0  0  0  0  2  0  0  0  0  0  0
  191.6470  176.8020  138.0310 C   0  0  0  0  0  2  0  0  0  0  0  0
  193.6200  177.0300  139.3430 O   0  0  0  0  0  0  0  0  0  0  0  0
  193.1060  176.6040  138.2740 C   0  0  0  0  0  0  0  0  0  0  0  0
  193.8910  175.9660  137.3100 O   0  0  0  0  0  0  0  0  0  0  0  0
  193.4010  175.6920  136.0060 C   0  0  0  0  0  1  0  0  0  0  0  0
  1 22  1  6  0  0  0
  1 17  1  0  0  0  0
  1  2  1  0  0  0  0
  2  5  1  1  0  0  0
  2  4  1  0  0  0  0
  3  4  1  0  0  0  0
  5  6  1  0  0  0  0
  6  7  1  6  0  0  0
  6  8  1  0  0  0  0
  9  8  1  1  0  0  0
  9 12  1  0  0  0  0
  9 10  1  0  0  0  0
 11 10  1  0  0  0  0
 13 12  1  0  0  0  0
 14 13  1  0  0  0  0
 14 16  1  0  0  0  0
 15 16  1  0  0  0  0
 17 19  1  0  0  0  0
 19 18  1  1  0  0  0
 20 21  1  0  0  0  0
 21 19  1  0  0  0  0
 23 22  1  0  0  0  0
 24 23  1  0  0  0  0
 25 26  2  0  0  0  0
 26 24  1  0  0  0  0
 27 28  1  0  0  0  0
 27 25  1  0  0  0  0
 28 29  1  0  0  0  0
 29 30  1  0  0  0  0
 30 31  1  0  0  0  0
 32 23  1  0  0  0  0
 33 35  1  0  0  0  0
 33 32  1  0  0  0  0
 35 34  2  0  0  0  0
 36 35  1  0  0  0  0
 37 36  1  0  0  0  0
M  END
>  <MODEL>
3

>  <REMARK>
 VINA RESULT:      -5.4      2.355      4.891
  Name = 
  26 active torsions:
  status: ('A' for Active; 'I' for Inactive)
    1  A    between atoms: O_1  and  C_23
    2  A    between atoms: O_2  and  C_8
    3  A    between atoms: C_3  and  C_15
    4  A    between atoms: C_3  and  C_30
    5  A    between atoms: C_4  and  C_10
    6  A    between atoms: C_4  and  C_24
    7  A    between atoms: C_6  and  C_8
    8  A    between atoms: C_6  and  C_31
    9  A    between atoms: C_7  and  C_33
   10  A    between atoms: C_8  and  C_19
   11  A    between atoms: C_10  and  C_13
   12  A    between atoms: C_10  and  C_30
   13  A    between atoms: C_11  and  C_26
   14  A    between atoms: C_13  and  N_20
   15  A    between atoms: C_14  and  C_31
   16  A    between atoms: C_14  and  C_37
   17  A    between atoms: C_15  and  C_19
   18  A    between atoms: C_17  and  C_26
   19  A    between atoms: C_17  and  C_33
   20  A    between atoms: N_20  and  C_21
   21  A    between atoms: N_20  and  C_29
   22  A    between atoms: C_21  and  C_25
   23  A    between atoms: C_23  and  C_25
   24  A    between atoms: C_24  and  N_28
   25  A    between atoms: C_29  and  C_36
   26  A    between atoms: C_30  and  O_32
                            x       y       z     vdW  Elec       q    Type
                         _______ _______ _______ _____ _____    ______ ____

>  <TORSDO>
F 26

$$$$
=
 OpenBabel10272414583D

 37 36  0  0  1  0  0  0  0  0999 V2000
  189.7360  177.9670  141.4160 C   0  0  2  0  0  3  0  0  0  0  0  0
  190.1060  177.3050  142.7540 C   0  0  1  0  0  3  0  0  0  0  0  0
  190.4610  175.1930  142.9680 O   0  0  0  0  0  1  0  0  0  0  0  0
  191.0760  176.3030  142.6140 O   0  0  0  0  0  0  0  0  0  0  0  0
  190.5640  178.3470  143.7770 C   0  0  0  0  0  2  0  0  0  0  0  0
  190.0970  178.0250  145.1930 C   0  0  2  0  0  3  0  0  0  0  0  0
  190.9920  177.1410  145.7950 O   0  0  0  0  0  1  0  0  0  0  0  0
  188.7190  177.3800  145.1490 C   0  0  0  0  0  2  0  0  0  0  0  0
  187.8520  177.7280  146.3620 C   0  0  2  0  0  3  0  0  0  0  0  0
  188.3820  177.2100  147.5480 O   0  0  0  0  0  0  0  0  0  0  0  0
  188.5630  178.2620  148.3200 O   0  0  0  0  0  1  0  0  0  0  0  0
  186.3830  177.3470  146.1830 C   0  0  0  0  0  2  0  0  0  0  0  0
  185.4350  178.4650  146.5890 C   0  0  0  0  0  2  0  0  0  0  0  0
  184.9550  179.1900  145.3500 C   0  0  0  0  0  2  0  0  0  0  0  0
  183.0900  178.9870  143.7380 C   0  0  0  0  0  1  0  0  0  0  0  0
  183.4580  179.0120  145.2070 C   0  0  0  0  0  2  0  0  0  0  0  0
  188.5090  178.8560  141.5970 C   0  0  0  0  0  2  0  0  0  0  0  0
  186.3840  177.9020  142.5270 C   0  0  0  0  0  1  0  0  0  0  0  0
  187.2140  178.1180  141.2710 C   0  0  1  0  0  3  0  0  0  0  0  0
  185.0420  178.9500  140.6290 C   0  0  0  0  0  1  0  0  0  0  0  0
  186.4340  178.7840  140.2220 N   0  0  0  0  0  2  0  0  0  0  0  0
  189.4370  176.9450  140.3240 C   0  0  0  0  0  2  0  0  0  0  0  0
  190.0150  177.3780  139.0570 N   0  0  0  0  0  0  0  0  0  0  0  0
  191.4810  177.3020  139.1400 C   0  0  0  0  0  2  0  0  0  0  0  0
  193.0620  176.3630  137.5100 C   0  0  0  0  0  3  0  0  0  0  0  0
  192.0670  176.1500  138.3700 C   0  0  0  0  0  3  0  0  0  0  0  0
  193.6590  175.2370  136.7210 C   0  0  0  0  0  2  0  0  0  0  0  0
  194.0010  174.0570  137.6170 C   0  0  0  0  0  2  0  0  0  0  0  0
  195.2360  174.3630  138.4530 C   0  0  0  0  0  2  0  0  0  0  0  0
  196.3570  173.3940  138.1200 C   0  0  0  0  0  2  0  0  0  0  0  0
  197.6880  174.1210  138.0670 C   0  0  0  0  0  1  0  0  0  0  0  0
  189.5210  176.5070  137.9940 C   0  0  0  0  0  2  0  0  0  0  0  0
  188.1810  177.0090  137.4720 C   0  0  0  0  0  2  0  0  0  0  0  0
  187.2690  176.0340  135.5010 O   0  0  0  0  0  0  0  0  0  0  0  0
  187.4490  175.9300  136.7450 C   0  0  0  0  0  0  0  0  0  0  0  0
  186.9570  174.8280  137.4480 O   0  0  0  0  0  0  0  0  0  0  0  0
  185.8710  174.0520  136.9630 C   0  0  0  0  0  1  0  0  0  0  0  0
  1 22  1  6  0  0  0
  1 17  1  0  0  0  0
  1  2  1  0  0  0  0
  2  5  1  1  0  0  0
  4  2  1  0  0  0  0
  4  3  1  0  0  0  0
  5  6  1  0  0  0  0
  6  7  1  6  0  0  0
  8  6  1  0  0  0  0
  9  8  1  6  0  0  0
  9 10  1  0  0  0  0
 10 11  1  0  0  0  0
 12  9  1  0  0  0  0
 12 13  1  0  0  0  0
 14 13  1  0  0  0  0
 15 16  1  0  0  0  0
 16 14  1  0  0  0  0
 19 17  1  0  0  0  0
 19 18  1  1  0  0  0
 21 20  1  0  0  0  0
 21 19  1  0  0  0  0
 23 24  1  0  0  0  0
 23 22  1  0  0  0  0
 25 26  2  0  0  0  0
 26 24  1  0  0  0  0
 27 25  1  0  0  0  0
 27 28  1  0  0  0  0
 28 29  1  0  0  0  0
 30 29  1  0  0  0  0
 31 30  1  0  0  0  0
 32 23  1  0  0  0  0
 33 32  1  0  0  0  0
 34 35  2  0  0  0  0
 35 36  1  0  0  0  0
 35 33  1  0  0  0  0
 37 36  1  0  0  0  0
M  END
>  <MODEL>
4

>  <REMARK>
 VINA RESULT:      -5.4      1.541      2.235
  Name = 
  26 active torsions:
  status: ('A' for Active; 'I' for Inactive)
    1  A    between atoms: O_1  and  C_23
    2  A    between atoms: O_2  and  C_8
    3  A    between atoms: C_3  and  C_15
    4  A    between atoms: C_3  and  C_30
    5  A    between atoms: C_4  and  C_10
    6  A    between atoms: C_4  and  C_24
    7  A    between atoms: C_6  and  C_8
    8  A    between atoms: C_6  and  C_31
    9  A    between atoms: C_7  and  C_33
   10  A    between atoms: C_8  and  C_19
   11  A    between atoms: C_10  and  C_13
   12  A    between atoms: C_10  and  C_30
   13  A    between atoms: C_11  and  C_26
   14  A    between atoms: C_13  and  N_20
   15  A    between atoms: C_14  and  C_31
   16  A    between atoms: C_14  and  C_37
   17  A    between atoms: C_15  and  C_19
   18  A    between atoms: C_17  and  C_26
   19  A    between atoms: C_17  and  C_33
   20  A    between atoms: N_20  and  C_21
   21  A    between atoms: N_20  and  C_29
   22  A    between atoms: C_21  and  C_25
   23  A    between atoms: C_23  and  C_25
   24  A    between atoms: C_24  and  N_28
   25  A    between atoms: C_29  and  C_36
   26  A    between atoms: C_30  and  O_32
                            x       y       z     vdW  Elec       q    Type
                         _______ _______ _______ _____ _____    ______ ____

>  <TORSDO>
F 26

$$$$
=
 OpenBabel10272414583D

 37 36  0  0  1  0  0  0  0  0999 V2000
  184.3320  178.4940  138.0310 C   0  0  2  0  0  3  0  0  0  0  0  0
  184.2330  179.2430  139.3710 C   0  0  1  0  0  3  0  0  0  0  0  0
  183.1110  181.0100  138.8750 O   0  0  0  0  0  1  0  0  0  0  0  0
  182.9990  179.8830  139.5470 O   0  0  0  0  0  0  0  0  0  0  0  0
  184.5160  178.3060  140.5480 C   0  0  0  0  0  2  0  0  0  0  0  0
  184.7160  179.0560  141.8610 C   0  0  2  0  0  3  0  0  0  0  0  0
  185.8580  179.8520  141.7800 O   0  0  0  0  0  1  0  0  0  0  0  0
  184.8860  178.0640  143.0030 C   0  0  0  0  0  2  0  0  0  0  0  0
  184.3390  178.5800  144.3360 C   0  0  2  0  0  3  0  0  0  0  0  0
  183.2710  179.4650  144.1550 O   0  0  0  0  0  0  0  0  0  0  0  0
  182.1950  178.7080  144.2280 O   0  0  0  0  0  1  0  0  0  0  0  0
  185.4190  179.1730  145.2420 C   0  0  0  0  0  2  0  0  0  0  0  0
  185.4800  178.4910  146.6010 C   0  0  0  0  0  2  0  0  0  0  0  0
  186.7710  177.7070  146.7090 C   0  0  0  0  0  2  0  0  0  0  0  0
  188.9950  177.9020  147.7730 C   0  0  0  0  0  1  0  0  0  0  0  0
  187.5080  178.1190  147.9660 C   0  0  0  0  0  2  0  0  0  0  0  0
  183.0630  177.6830  137.7920 C   0  0  0  0  0  2  0  0  0  0  0  0
  182.5020  175.6600  139.1630 C   0  0  0  0  0  1  0  0  0  0  0  0
  183.2960  176.1860  137.9780 C   0  0  1  0  0  3  0  0  0  0  0  0
  181.8950  175.9950  136.0220 C   0  0  0  0  0  1  0  0  0  0  0  0
  183.0150  175.4170  136.7610 N   0  0  0  0  0  2  0  0  0  0  0  0
  185.5280  177.5490  137.9810 C   0  0  0  0  0  2  0  0  0  0  0  0
  186.3850  177.8810  136.8480 N   0  0  0  0  0  0  0  0  0  0  0  0
  187.6990  178.3160  137.3440 C   0  0  0  0  0  2  0  0  0  0  0  0
  189.2580  177.6730  139.1310 C   0  0  0  0  0  3  0  0  0  0  0  0
  187.9960  177.8540  138.7440 C   0  0  0  0  0  3  0  0  0  0  0  0
  189.5850  177.2030  140.5160 C   0  0  0  0  0  2  0  0  0  0  0  0
  188.6420  177.8130  141.5410 C   0  0  0  0  0  2  0  0  0  0  0  0
  188.3570  176.8210  142.6600 C   0  0  0  0  0  2  0  0  0  0  0  0
  188.7640  177.4030  144.0030 C   0  0  0  0  0  2  0  0  0  0  0  0
  190.2250  177.1090  144.2870 C   0  0  0  0  0  1  0  0  0  0  0  0
  186.5270  176.6970  136.0050 C   0  0  0  0  0  2  0  0  0  0  0  0
  186.6930  175.4480  136.8630 C   0  0  0  0  0  2  0  0  0  0  0  0
  187.8400  173.9830  135.3780 O   0  0  0  0  0  0  0  0  0  0  0  0
  187.8880  174.6600  136.4400 C   0  0  0  0  0  0  0  0  0  0  0  0
  189.0390  174.6660  137.2310 O   0  0  0  0  0  0  0  0  0  0  0  0
  190.1130  173.7670  137.0000 C   0  0  0  0  0  1  0  0  0  0  0  0
  1 17  1  1  0  0  0
  1  2  1  0  0  0  0
  2  4  1  0  0  0  0
  2  5  1  1  0  0  0
  3  4  1  0  0  0  0
  5  6  1  0  0  0  0
  6  7  1  6  0  0  0
  6  8  1  0  0  0  0
  9  8  1  6  0  0  0
  9 12  1  0  0  0  0
 10 11  1  0  0  0  0
 10  9  1  0  0  0  0
 12 13  1  0  0  0  0
 13 14  1  0  0  0  0
 14 16  1  0  0  0  0
 15 16  1  0  0  0  0
 17 19  1  0  0  0  0
 19 18  1  1  0  0  0
 20 21  1  0  0  0  0
 21 19  1  0  0  0  0
 22  1  1  0  0  0  0
 23 24  1  0  0  0  0
 23 22  1  0  0  0  0
 24 26  1  0  0  0  0
 25 27  1  0  0  0  0
 26 25  2  0  0  0  0
 27 28  1  0  0  0  0
 28 29  1  0  0  0  0
 29 30  1  0  0  0  0
 30 31  1  0  0  0  0
 32 23  1  0  0  0  0
 32 33  1  0  0  0  0
 34 35  2  0  0  0  0
 35 33  1  0  0  0  0
 35 36  1  0  0  0  0
 37 36  1  0  0  0  0
M  END
>  <MODEL>
5

>  <REMARK>
 VINA RESULT:      -5.4      3.425      5.819
  Name = 
  26 active torsions:
  status: ('A' for Active; 'I' for Inactive)
    1  A    between atoms: O_1  and  C_23
    2  A    between atoms: O_2  and  C_8
    3  A    between atoms: C_3  and  C_15
    4  A    between atoms: C_3  and  C_30
    5  A    between atoms: C_4  and  C_10
    6  A    between atoms: C_4  and  C_24
    7  A    between atoms: C_6  and  C_8
    8  A    between atoms: C_6  and  C_31
    9  A    between atoms: C_7  and  C_33
   10  A    between atoms: C_8  and  C_19
   11  A    between atoms: C_10  and  C_13
   12  A    between atoms: C_10  and  C_30
   13  A    between atoms: C_11  and  C_26
   14  A    between atoms: C_13  and  N_20
   15  A    between atoms: C_14  and  C_31
   16  A    between atoms: C_14  and  C_37
   17  A    between atoms: C_15  and  C_19
   18  A    between atoms: C_17  and  C_26
   19  A    between atoms: C_17  and  C_33
   20  A    between atoms: N_20  and  C_21
   21  A    between atoms: N_20  and  C_29
   22  A    between atoms: C_21  and  C_25
   23  A    between atoms: C_23  and  C_25
   24  A    between atoms: C_24  and  N_28
   25  A    between atoms: C_29  and  C_36
   26  A    between atoms: C_30  and  O_32
                            x       y       z     vdW  Elec       q    Type
                         _______ _______ _______ _____ _____    ______ ____

>  <TORSDO>
F 26

$$$$
=
 OpenBabel10272414583D

 37 36  0  0  1  0  0  0  0  0999 V2000
  189.5850  177.3440  141.7340 C   0  0  2  0  0  3  0  0  0  0  0  0
  189.8750  177.4250  140.2250 C   0  0  1  0  0  3  0  0  0  0  0  0
  191.6500  176.7160  139.2370 O   0  0  0  0  0  1  0  0  0  0  0  0
  190.5100  176.2780  139.7310 O   0  0  0  0  0  0  0  0  0  0  0  0
  188.5960  177.7050  139.4330 C   0  0  0  0  0  2  0  0  0  0  0  0
  188.8770  178.2020  138.0180 C   0  0  2  0  0  3  0  0  0  0  0  0
  188.8430  179.5960  137.9930 O   0  0  0  0  0  1  0  0  0  0  0  0
  187.8230  177.6640  137.0610 C   0  0  0  0  0  2  0  0  0  0  0  0
  187.8450  176.1380  136.9370 C   0  0  2  0  0  3  0  0  0  0  0  0
  188.7780  175.7040  135.9910 O   0  0  0  0  0  0  0  0  0  0  0  0
  188.5530  176.4540  134.9310 O   0  0  0  0  0  1  0  0  0  0  0  0
  186.4620  175.5340  136.6900 C   0  0  0  0  0  2  0  0  0  0  0  0
  185.3390  176.3920  137.2510 C   0  0  0  0  0  2  0  0  0  0  0  0
  184.2060  176.4500  136.2490 C   0  0  0  0  0  2  0  0  0  0  0  0
  183.1750  175.7230  138.3750 C   0  0  0  0  0  1  0  0  0  0  0  0
  182.9290  175.9630  136.9010 C   0  0  0  0  0  2  0  0  0  0  0  0
  190.4410  176.2530  142.3700 C   0  0  0  0  0  2  0  0  0  0  0  0
  191.3160  178.3330  143.4660 C   0  0  0  0  0  1  0  0  0  0  0  0
  191.4780  176.8270  143.3310 C   0  0  1  0  0  3  0  0  0  0  0  0
  191.5530  177.1440  145.7220 C   0  0  0  0  0  1  0  0  0  0  0  0
  191.4590  176.1660  144.6410 N   0  0  0  0  0  2  0  0  0  0  0  0
  188.1190  177.0440  142.0290 C   0  0  0  0  0  2  0  0  0  0  0  0
  187.5500  178.0930  142.8680 N   0  0  0  0  0  0  0  0  0  0  0  0
  186.1190  178.2350  142.5650 C   0  0  0  0  0  2  0  0  0  0  0  0
  184.8110  178.6190  140.5190 C   0  0  0  0  0  3  0  0  0  0  0  0
  185.8470  178.9710  141.2810 C   0  0  0  0  0  3  0  0  0  0  0  0
  184.5210  179.3270  139.2300 C   0  0  0  0  0  2  0  0  0  0  0  0
  183.0930  179.8460  139.1960 C   0  0  0  0  0  2  0  0  0  0  0  0
  182.3770  179.3540  137.9460 C   0  0  0  0  0  2  0  0  0  0  0  0
  181.0250  180.0320  137.8050 C   0  0  0  0  0  2  0  0  0  0  0  0
  181.1680  181.5360  137.9520 C   0  0  0  0  0  1  0  0  0  0  0  0
  187.7380  177.7260  144.2690 C   0  0  0  0  0  2  0  0  0  0  0  0
  186.4470  177.9280  145.0520 C   0  0  0  0  0  2  0  0  0  0  0  0
  185.7980  178.6640  147.2200 O   0  0  0  0  0  0  0  0  0  0  0  0
  186.7300  178.2440  146.4830 C   0  0  0  0  0  0  0  0  0  0  0  0
  188.0240  178.0880  146.9860 O   0  0  0  0  0  0  0  0  0  0  0  0
  188.2730  177.4540  148.2320 C   0  0  0  0  0  1  0  0  0  0  0  0
  1 22  1  6  0  0  0
  1 17  1  0  0  0  0
  2  5  1  6  0  0  0
  2  1  1  0  0  0  0
  3  4  1  0  0  0  0
  4  2  1  0  0  0  0
  6  7  1  1  0  0  0
  6  5  1  0  0  0  0
  8  6  1  0  0  0  0
  9 12  1  6  0  0  0
  9  8  1  0  0  0  0
 10  9  1  0  0  0  0
 11 10  1  0  0  0  0
 12 13  1  0  0  0  0
 14 16  1  0  0  0  0
 14 13  1  0  0  0  0
 16 15  1  0  0  0  0
 17 19  1  0  0  0  0
 19 18  1  1  0  0  0
 19 21  1  0  0  0  0
 21 20  1  0  0  0  0
 22 23  1  0  0  0  0
 23 32  1  0  0  0  0
 24 23  1  0  0  0  0
 25 26  2  0  0  0  0
 26 24  1  0  0  0  0
 27 25  1  0  0  0  0
 28 27  1  0  0  0  0
 29 28  1  0  0  0  0
 30 29  1  0  0  0  0
 30 31  1  0  0  0  0
 32 33  1  0  0  0  0
 33 35  1  0  0  0  0
 35 36  1  0  0  0  0
 35 34  2  0  0  0  0
 36 37  1  0  0  0  0
M  END
>  <MODEL>
6

>  <REMARK>
 VINA RESULT:      -5.3      3.135      9.167
  Name = 
  26 active torsions:
  status: ('A' for Active; 'I' for Inactive)
    1  A    between atoms: O_1  and  C_23
    2  A    between atoms: O_2  and  C_8
    3  A    between atoms: C_3  and  C_15
    4  A    between atoms: C_3  and  C_30
    5  A    between atoms: C_4  and  C_10
    6  A    between atoms: C_4  and  C_24
    7  A    between atoms: C_6  and  C_8
    8  A    between atoms: C_6  and  C_31
    9  A    between atoms: C_7  and  C_33
   10  A    between atoms: C_8  and  C_19
   11  A    between atoms: C_10  and  C_13
   12  A    between atoms: C_10  and  C_30
   13  A    between atoms: C_11  and  C_26
   14  A    between atoms: C_13  and  N_20
   15  A    between atoms: C_14  and  C_31
   16  A    between atoms: C_14  and  C_37
   17  A    between atoms: C_15  and  C_19
   18  A    between atoms: C_17  and  C_26
   19  A    between atoms: C_17  and  C_33
   20  A    between atoms: N_20  and  C_21
   21  A    between atoms: N_20  and  C_29
   22  A    between atoms: C_21  and  C_25
   23  A    between atoms: C_23  and  C_25
   24  A    between atoms: C_24  and  N_28
   25  A    between atoms: C_29  and  C_36
   26  A    between atoms: C_30  and  O_32
                            x       y       z     vdW  Elec       q    Type
                         _______ _______ _______ _____ _____    ______ ____

>  <TORSDO>
F 26

$$$$
=
 OpenBabel10272414583D

 37 36  0  0  1  0  0  0  0  0999 V2000
  188.2100  178.5360  140.8400 C   0  0  2  0  0  3  0  0  0  0  0  0
  188.5230  178.2030  139.3710 C   0  0  1  0  0  3  0  0  0  0  0  0
  188.3910  179.4670  137.6350 O   0  0  0  0  0  1  0  0  0  0  0  0
  189.1460  179.2610  138.6950 O   0  0  0  0  0  0  0  0  0  0  0  0
  189.3700  176.9330  139.2620 C   0  0  0  0  0  2  0  0  0  0  0  0
  189.1140  176.1650  137.9700 C   0  0  2  0  0  3  0  0  0  0  0  0
  189.8620  176.7220  136.9340 O   0  0  0  0  0  1  0  0  0  0  0  0
  187.6370  176.2380  137.6080 C   0  0  0  0  0  2  0  0  0  0  0  0
  187.3260  175.6600  136.2260 C   0  0  2  0  0  3  0  0  0  0  0  0
  187.0110  176.6590  135.3000 O   0  0  0  0  0  0  0  0  0  0  0  0
  186.2610  177.5100  135.9690 O   0  0  0  0  0  1  0  0  0  0  0  0
  186.2640  174.5610  136.2560 C   0  0  0  0  0  2  0  0  0  0  0  0
  186.5270  173.5230  137.3380 C   0  0  0  0  0  2  0  0  0  0  0  0
  185.2130  172.9020  137.7640 C   0  0  0  0  0  2  0  0  0  0  0  0
  182.9170  172.6660  136.8770 C   0  0  0  0  0  1  0  0  0  0  0  0
  184.3890  172.5710  136.5370 C   0  0  0  0  0  2  0  0  0  0  0  0
  188.1410  177.2530  141.6620 C   0  0  0  0  0  2  0  0  0  0  0  0
  189.6120  175.9780  143.2440 C   0  0  0  0  0  1  0  0  0  0  0  0
  188.9990  177.3320  142.9220 C   0  0  1  0  0  3  0  0  0  0  0  0
  190.5100  178.7400  144.1700 C   0  0  0  0  0  1  0  0  0  0  0  0
  190.0240  178.3780  142.8400 N   0  0  0  0  0  2  0  0  0  0  0  0
  186.8910  179.2840  140.9980 C   0  0  0  0  0  2  0  0  0  0  0  0
  185.7830  178.3390  141.0820 N   0  0  0  0  0  0  0  0  0  0  0  0
  184.8540  178.7710  142.1370 C   0  0  0  0  0  2  0  0  0  0  0  0
  185.1390  178.9800  144.5690 C   0  0  0  0  0  3  0  0  0  0  0  0
  185.1750  178.1980  143.4900 C   0  0  0  0  0  3  0  0  0  0  0  0
  185.4630  178.4400  145.9290 C   0  0  0  0  0  2  0  0  0  0  0  0
  186.4580  177.2940  145.8440 C   0  0  0  0  0  2  0  0  0  0  0  0
  187.7890  177.6970  146.4650 C   0  0  0  0  0  2  0  0  0  0  0  0
  187.5740  178.2700  147.8550 C   0  0  0  0  0  2  0  0  0  0  0  0
  188.8610  178.2100  148.6570 C   0  0  0  0  0  1  0  0  0  0  0  0
  185.1020  178.3000  139.7900 C   0  0  0  0  0  2  0  0  0  0  0  0
  183.6450  178.7210  139.9420 C   0  0  0  0  0  2  0  0  0  0  0  0
  184.1240  180.7790  138.8470 O   0  0  0  0  0  0  0  0  0  0  0  0
  183.3060  179.8330  139.0060 C   0  0  0  0  0  0  0  0  0  0  0  0
  182.0840  179.8240  138.3310 O   0  0  0  0  0  0  0  0  0  0  0  0
  180.8860  179.3860  138.9550 C   0  0  0  0  0  1  0  0  0  0  0  0
  1 22  1  6  0  0  0
  1 17  1  0  0  0  0
  2  5  1  1  0  0  0
  2  1  1  0  0  0  0
  3  4  1  0  0  0  0
  4  2  1  0  0  0  0
  6  7  1  6  0  0  0
  6  5  1  0  0  0  0
  8  6  1  0  0  0  0
  9 12  1  1  0  0  0
  9  8  1  0  0  0  0
 10 11  1  0  0  0  0
 10  9  1  0  0  0  0
 12 13  1  0  0  0  0
 13 14  1  0  0  0  0
 16 15  1  0  0  0  0
 16 14  1  0  0  0  0
 17 19  1  0  0  0  0
 19 18  1  6  0  0  0
 21 19  1  0  0  0  0
 21 20  1  0  0  0  0
 22 23  1  0  0  0  0
 23 24  1  0  0  0  0
 24 26  1  0  0  0  0
 25 27  1  0  0  0  0
 26 25  2  0  0  0  0
 28 27  1  0  0  0  0
 28 29  1  0  0  0  0
 29 30  1  0  0  0  0
 30 31  1  0  0  0  0
 32 33  1  0  0  0  0
 32 23  1  0  0  0  0
 34 35  2  0  0  0  0
 35 33  1  0  0  0  0
 36 37  1  0  0  0  0
 36 35  1  0  0  0  0
M  END
>  <MODEL>
7

>  <REMARK>
 VINA RESULT:      -5.3      3.727      8.534
  Name = 
  26 active torsions:
  status: ('A' for Active; 'I' for Inactive)
    1  A    between atoms: O_1  and  C_23
    2  A    between atoms: O_2  and  C_8
    3  A    between atoms: C_3  and  C_15
    4  A    between atoms: C_3  and  C_30
    5  A    between atoms: C_4  and  C_10
    6  A    between atoms: C_4  and  C_24
    7  A    between atoms: C_6  and  C_8
    8  A    between atoms: C_6  and  C_31
    9  A    between atoms: C_7  and  C_33
   10  A    between atoms: C_8  and  C_19
   11  A    between atoms: C_10  and  C_13
   12  A    between atoms: C_10  and  C_30
   13  A    between atoms: C_11  and  C_26
   14  A    between atoms: C_13  and  N_20
   15  A    between atoms: C_14  and  C_31
   16  A    between atoms: C_14  and  C_37
   17  A    between atoms: C_15  and  C_19
   18  A    between atoms: C_17  and  C_26
   19  A    between atoms: C_17  and  C_33
   20  A    between atoms: N_20  and  C_21
   21  A    between atoms: N_20  and  C_29
   22  A    between atoms: C_21  and  C_25
   23  A    between atoms: C_23  and  C_25
   24  A    between atoms: C_24  and  N_28
   25  A    between atoms: C_29  and  C_36
   26  A    between atoms: C_30  and  O_32
                            x       y       z     vdW  Elec       q    Type
                         _______ _______ _______ _____ _____    ______ ____

>  <TORSDO>
F 26

$$$$
=
 OpenBabel10272414583D

 37 36  0  0  1  0  0  0  0  0999 V2000
  186.0420  177.5460  138.2050 C   0  0  2  0  0  3  0  0  0  0  0  0
  187.4900  177.8470  137.7790 C   0  0  1  0  0  3  0  0  0  0  0  0
  187.6080  179.2860  136.1840 O   0  0  0  0  0  1  0  0  0  0  0  0
  187.7020  179.2030  137.4950 O   0  0  0  0  0  0  0  0  0  0  0  0
  188.4870  177.3650  138.8350 C   0  0  0  0  0  2  0  0  0  0  0  0
  189.8190  176.9320  138.2300 C   0  0  2  0  0  3  0  0  0  0  0  0
  189.6020  175.9500  137.2640 O   0  0  0  0  0  1  0  0  0  0  0  0
  190.7210  176.3650  139.3180 C   0  0  0  0  0  2  0  0  0  0  0  0
  190.8770  177.3000  140.5190 C   0  0  2  0  0  3  0  0  0  0  0  0
  192.1690  177.8250  140.6090 O   0  0  0  0  0  0  0  0  0  0  0  0
  192.8800  177.1090  139.7620 O   0  0  0  0  0  1  0  0  0  0  0  0
  190.4290  176.6680  141.8380 C   0  0  0  0  0  2  0  0  0  0  0  0
  190.6540  177.5840  143.0310 C   0  0  0  0  0  2  0  0  0  0  0  0
  190.3990  176.8120  144.3090 C   0  0  0  0  0  2  0  0  0  0  0  0
  191.7410  176.2440  146.3070 C   0  0  0  0  0  1  0  0  0  0  0  0
  191.2610  177.3740  145.4190 C   0  0  0  0  0  2  0  0  0  0  0  0
  185.2350  177.0640  137.0040 C   0  0  0  0  0  2  0  0  0  0  0  0
  182.7990  176.6570  136.5690 C   0  0  0  0  0  1  0  0  0  0  0  0
  183.9970  176.2770  137.4250 C   0  0  1  0  0  3  0  0  0  0  0  0
  184.9390  174.4130  136.2150 C   0  0  0  0  0  1  0  0  0  0  0  0
  184.2220  174.8270  137.4180 N   0  0  0  0  0  2  0  0  0  0  0  0
  185.3460  178.7660  138.7990 C   0  0  0  0  0  2  0  0  0  0  0  0
  184.6860  178.4090  140.0500 N   0  0  0  0  0  0  0  0  0  0  0  0
  185.5360  178.8120  141.1800 C   0  0  0  0  0  2  0  0  0  0  0  0
  185.5770  178.7280  143.6360 C   0  0  0  0  0  3  0  0  0  0  0  0
  184.8550  178.6950  142.5160 C   0  0  0  0  0  3  0  0  0  0  0  0
  184.9270  178.6040  144.9810 C   0  0  0  0  0  2  0  0  0  0  0  0
  185.9510  178.7200  146.0990 C   0  0  0  0  0  2  0  0  0  0  0  0
  187.2300  177.9820  145.7300 C   0  0  0  0  0  2  0  0  0  0  0  0
  187.7500  177.1920  146.9190 C   0  0  0  0  0  2  0  0  0  0  0  0
  188.3510  178.1240  147.9530 C   0  0  0  0  0  1  0  0  0  0  0  0
  183.3990  179.0960  140.1130 C   0  0  0  0  0  2  0  0  0  0  0  0
  183.0710  179.7410  138.7720 C   0  0  0  0  0  2  0  0  0  0  0  0
  181.7050  181.6720  138.5070 O   0  0  0  0  0  0  0  0  0  0  0  0
  181.7610  180.4530  138.8240 C   0  0  0  0  0  0  0  0  0  0  0  0
  180.6150  179.7710  139.2400 O   0  0  0  0  0  0  0  0  0  0  0  0
  180.2330  178.5290  138.6680 C   0  0  0  0  0  1  0  0  0  0  0  0
  1 17  1  6  0  0  0
  1 22  1  0  0  0  0
  2  1  1  0  0  0  0
  2  5  1  1  0  0  0
  3  4  1  0  0  0  0
  4  2  1  0  0  0  0
  6  7  1  6  0  0  0
  6  5  1  0  0  0  0
  6  8  1  0  0  0  0
  9  8  1  6  0  0  0
  9 10  1  0  0  0  0
  9 12  1  0  0  0  0
 11 10  1  0  0  0  0
 12 13  1  0  0  0  0
 13 14  1  0  0  0  0
 14 16  1  0  0  0  0
 16 15  1  0  0  0  0
 17 19  1  0  0  0  0
 19 18  1  6  0  0  0
 20 21  1  0  0  0  0
 21 19  1  0  0  0  0
 22 23  1  0  0  0  0
 23 32  1  0  0  0  0
 23 24  1  0  0  0  0
 24 26  1  0  0  0  0
 25 27  1  0  0  0  0
 26 25  2  0  0  0  0
 27 28  1  0  0  0  0
 29 28  1  0  0  0  0
 29 30  1  0  0  0  0
 30 31  1  0  0  0  0
 33 35  1  0  0  0  0
 33 32  1  0  0  0  0
 34 35  2  0  0  0  0
 35 36  1  0  0  0  0
 37 36  1  0  0  0  0
M  END
>  <MODEL>
8

>  <REMARK>
 VINA RESULT:      -5.1      3.110      7.382
  Name = 
  26 active torsions:
  status: ('A' for Active; 'I' for Inactive)
    1  A    between atoms: O_1  and  C_23
    2  A    between atoms: O_2  and  C_8
    3  A    between atoms: C_3  and  C_15
    4  A    between atoms: C_3  and  C_30
    5  A    between atoms: C_4  and  C_10
    6  A    between atoms: C_4  and  C_24
    7  A    between atoms: C_6  and  C_8
    8  A    between atoms: C_6  and  C_31
    9  A    between atoms: C_7  and  C_33
   10  A    between atoms: C_8  and  C_19
   11  A    between atoms: C_10  and  C_13
   12  A    between atoms: C_10  and  C_30
   13  A    between atoms: C_11  and  C_26
   14  A    between atoms: C_13  and  N_20
   15  A    between atoms: C_14  and  C_31
   16  A    between atoms: C_14  and  C_37
   17  A    between atoms: C_15  and  C_19
   18  A    between atoms: C_17  and  C_26
   19  A    between atoms: C_17  and  C_33
   20  A    between atoms: N_20  and  C_21
   21  A    between atoms: N_20  and  C_29
   22  A    between atoms: C_21  and  C_25
   23  A    between atoms: C_23  and  C_25
   24  A    between atoms: C_24  and  N_28
   25  A    between atoms: C_29  and  C_36
   26  A    between atoms: C_30  and  O_32
                            x       y       z     vdW  Elec       q    Type
                         _______ _______ _______ _____ _____    ______ ____

>  <TORSDO>
F 26

$$$$
=
 OpenBabel10272414583D

 37 36  0  0  1  0  0  0  0  0999 V2000
  187.9520  178.4140  141.3490 C   0  0  2  0  0  3  0  0  0  0  0  0
  187.8770  178.1870  139.8290 C   0  0  1  0  0  3  0  0  0  0  0  0
  186.1890  177.5810  138.6400 O   0  0  0  0  0  1  0  0  0  0  0  0
  186.6700  178.6320  139.2720 O   0  0  0  0  0  0  0  0  0  0  0  0
  189.0630  178.8380  139.1150 C   0  0  0  0  0  2  0  0  0  0  0  0
  189.6570  177.9470  138.0300 C   0  0  2  0  0  3  0  0  0  0  0  0
  188.8150  177.9320  136.9180 O   0  0  0  0  0  1  0  0  0  0  0  0
  189.8100  176.5260  138.5540 C   0  0  0  0  0  2  0  0  0  0  0  0
  190.5510  175.6020  137.5830 C   0  0  2  0  0  3  0  0  0  0  0  0
  190.1020  174.2810  137.6750 O   0  0  0  0  0  0  0  0  0  0  0  0
  189.2250  174.1570  136.7000 O   0  0  0  0  0  1  0  0  0  0  0  0
  192.0720  175.6950  137.7030 C   0  0  0  0  0  2  0  0  0  0  0  0
  192.7490  174.3350  137.6260 C   0  0  0  0  0  2  0  0  0  0  0  0
  194.2470  174.5150  137.7450 C   0  0  0  0  0  2  0  0  0  0  0  0
  195.2380  175.6500  135.7840 C   0  0  0  0  0  1  0  0  0  0  0  0
  194.8900  174.3060  136.3900 C   0  0  0  0  0  2  0  0  0  0  0  0
  188.2450  177.0960  142.0590 C   0  0  0  0  0  2  0  0  0  0  0  0
  190.2170  175.8590  142.9920 C   0  0  0  0  0  1  0  0  0  0  0  0
  189.4800  177.1880  142.9510 C   0  0  1  0  0  3  0  0  0  0  0  0
  191.1410  178.7640  143.7120 C   0  0  0  0  0  1  0  0  0  0  0  0
  190.3730  178.2850  142.5650 N   0  0  0  0  0  2  0  0  0  0  0  0
  186.6590  178.9930  141.9150 C   0  0  0  0  0  2  0  0  0  0  0  0
  186.0060  178.0160  142.7790 N   0  0  0  0  0  0  0  0  0  0  0  0
  185.8230  178.5970  144.1170 C   0  0  0  0  0  2  0  0  0  0  0  0
  186.5530  178.3120  146.4470 C   0  0  0  0  0  3  0  0  0  0  0  0
  186.7160  177.9900  145.1640 C   0  0  0  0  0  3  0  0  0  0  0  0
  187.4340  177.7310  147.5100 C   0  0  0  0  0  2  0  0  0  0  0  0
  188.9040  177.9090  147.1650 C   0  0  0  0  0  2  0  0  0  0  0  0
  189.5890  176.5550  147.0390 C   0  0  0  0  0  2  0  0  0  0  0  0
  191.0590  176.7330  146.6980 C   0  0  0  0  0  2  0  0  0  0  0  0
  191.9120  175.7840  147.5190 C   0  0  0  0  0  1  0  0  0  0  0  0
  184.7140  177.6640  142.1970 C   0  0  0  0  0  2  0  0  0  0  0  0
  183.8710  178.9140  141.9740 C   0  0  0  0  0  2  0  0  0  0  0  0
  181.5380  178.5050  141.7410 O   0  0  0  0  0  0  0  0  0  0  0  0
  182.6550  178.6050  141.1660 C   0  0  0  0  0  0  0  0  0  0  0  0
  182.7680  178.4130  139.7870 O   0  0  0  0  0  0  0  0  0  0  0  0
  181.6750  177.9640  139.0000 C   0  0  0  0  0  1  0  0  0  0  0  0
  1 22  1  1  0  0  0
  1 17  1  0  0  0  0
  2  5  1  6  0  0  0
  2  1  1  0  0  0  0
  3  4  1  0  0  0  0
  4  2  1  0  0  0  0
  6  7  1  6  0  0  0
  6  8  1  0  0  0  0
  6  5  1  0  0  0  0
  9 10  1  0  0  0  0
  9 12  1  1  0  0  0
  9  8  1  0  0  0  0
 11 10  1  0  0  0  0
 13 12  1  0  0  0  0
 13 14  1  0  0  0  0
 15 16  1  0  0  0  0
 16 14  1  0  0  0  0
 17 19  1  0  0  0  0
 19 18  1  6  0  0  0
 21 19  1  0  0  0  0
 21 20  1  0  0  0  0
 22 23  1  0  0  0  0
 23 24  1  0  0  0  0
 24 26  1  0  0  0  0
 25 27  1  0  0  0  0
 26 25  2  0  0  0  0
 28 27  1  0  0  0  0
 29 28  1  0  0  0  0
 30 29  1  0  0  0  0
 30 31  1  0  0  0  0
 32 23  1  0  0  0  0
 33 32  1  0  0  0  0
 35 34  2  0  0  0  0
 35 33  1  0  0  0  0
 36 35  1  0  0  0  0
 37 36  1  0  0  0  0
M  END
>  <MODEL>
9

>  <REMARK>
 VINA RESULT:      -5.1      3.238      8.355
  Name = 
  26 active torsions:
  status: ('A' for Active; 'I' for Inactive)
    1  A    between atoms: O_1  and  C_23
    2  A    between atoms: O_2  and  C_8
    3  A    between atoms: C_3  and  C_15
    4  A    between atoms: C_3  and  C_30
    5  A    between atoms: C_4  and  C_10
    6  A    between atoms: C_4  and  C_24
    7  A    between atoms: C_6  and  C_8
    8  A    between atoms: C_6  and  C_31
    9  A    between atoms: C_7  and  C_33
   10  A    between atoms: C_8  and  C_19
   11  A    between atoms: C_10  and  C_13
   12  A    between atoms: C_10  and  C_30
   13  A    between atoms: C_11  and  C_26
   14  A    between atoms: C_13  and  N_20
   15  A    between atoms: C_14  and  C_31
   16  A    between atoms: C_14  and  C_37
   17  A    between atoms: C_15  and  C_19
   18  A    between atoms: C_17  and  C_26
   19  A    between atoms: C_17  and  C_33
   20  A    between atoms: N_20  and  C_21
   21  A    between atoms: N_20  and  C_29
   22  A    between atoms: C_21  and  C_25
   23  A    between atoms: C_23  and  C_25
   24  A    between atoms: C_24  and  N_28
   25  A    between atoms: C_29  and  C_36
   26  A    between atoms: C_30  and  O_32
                            x       y       z     vdW  Elec       q    Type
                         _______ _______ _______ _____ _____    ______ ____

>  <TORSDO>
F 26

$$$$
