=
 OpenBabel10272400433D

 25 27  0  0  1  0  0  0  0  0999 V2000
  186.6900  178.0110  143.8360 C   0  0  1  0  0  3  0  0  0  0  0  0
  186.1860  176.8430  145.8940 O   0  0  0  0  0  1  0  0  0  0  0  0
  185.6160  179.1760  145.7510 C   0  0  2  0  0  3  0  0  0  0  0  0
  185.3550  179.1550  147.1220 O   0  0  0  0  0  1  0  0  0  0  0  0
  185.4350  177.7630  143.2450 O   0  0  0  0  0  0  0  0  0  0  0  0
  184.3130  179.0460  144.9650 C   0  0  0  0  0  2  0  0  0  0  0  0
  184.6420  178.9040  143.4750 C   0  0  2  0  0  3  0  0  0  0  0  0
  186.6040  178.0690  145.3690 C   0  0  2  0  0  3  0  0  0  0  0  0
  187.8030  177.0870  143.3090 C   0  0  2  0  0  3  0  0  0  0  0  0
  187.6850  178.4090  141.0370 C   0  0  0  0  0  1  0  0  0  0  0  0
  189.0250  177.2190  144.1480 C   0  0  0  0  0  0  0  0  0  0  0  0
  191.5300  177.5340  145.3030 C   0  0  0  0  0  3  0  0  0  0  0  0
  190.1080  177.5200  143.3690 C   0  0  0  0  0  0  0  0  0  0  0  0
  191.3800  177.6880  143.9160 C   0  0  0  0  0  3  0  0  0  0  0  0
  190.4190  177.2150  146.1070 C   0  0  0  0  0  3  0  0  0  0  0  0
  188.3560  177.3230  141.8620 C   0  0  1  0  0  3  0  0  0  0  0  0
  189.7800  177.6190  141.9990 N   0  0  0  0  0  2  0  0  0  0  0  0
  189.1500  177.0500  145.5290 C   0  0  0  0  0  3  0  0  0  0  0  0
  183.3710  178.8460  142.6360 C   0  0  0  0  0  2  0  0  0  0  0  0
  183.6280  178.2530  141.2550 C   0  0  0  0  0  2  0  0  0  0  0  0
  183.2680  179.7670  139.2730 C   0  0  0  0  0  0  0  0  0  0  0  0
  182.4080  180.3620  138.3570 O   0  0  0  0  0  0  0  0  0  0  0  0
  184.5000  180.0240  139.2200 O   0  0  0  0  0  1  0  0  0  0  0  0
  182.7540  178.8730  140.2710 N   0  0  0  0  0  0  0  0  0  0  0  0
  181.3220  178.6530  140.3850 C   0  0  0  0  0  1  0  0  0  0  0  0
  1  5  1  6  0  0  0
  1  8  1  0  0  0  0
  3  4  1  1  0  0  0
  5  7  1  0  0  0  0
  6  3  1  0  0  0  0
  7 19  1  6  0  0  0
  7  6  1  0  0  0  0
  8  3  1  0  0  0  0
  8  2  1  6  0  0  0
  9  1  1  0  0  0  0
  9 11  1  1  0  0  0
 11 18  1  0  0  0  0
 12 15  1  0  0  0  0
 13 14  1  0  0  0  0
 13 11  2  0  0  0  0
 14 12  2  0  0  0  0
 16 10  1  1  0  0  0
 16 17  1  0  0  0  0
 16  9  1  0  0  0  0
 17 13  1  0  0  0  0
 18 15  2  0  0  0  0
 20 19  1  0  0  0  0
 21 24  1  0  0  0  0
 22 21  2  0  0  0  0
 23 21  1  0  0  0  0
 24 25  1  0  0  0  0
 24 20  1  0  0  0  0
M  END
>  <MODEL>
1

>  <REMARK>
 VINA RESULT:      -8.6      0.000      0.000
  Name = 
  4 active torsions:
  status: ('A' for Active; 'I' for Inactive)
    1  A    between atoms: C_1  and  C_3
    2  A    between atoms: C_6  and  C_15
    3  A    between atoms: C_6  and  C_23
    4  A    between atoms: C_15  and  N_21
                            x       y       z     vdW  Elec       q    Type
                         _______ _______ _______ _____ _____    ______ ____

>  <TORSDO>
F 4

$$$$
=
 OpenBabel10272400433D

 25 27  0  0  1  0  0  0  0  0999 V2000
  188.5160  177.6420  143.1710 C   0  0  1  0  0  3  0  0  0  0  0  0
  186.1720  177.0610  143.0190 O   0  0  0  0  0  1  0  0  0  0  0  0
  186.8850  179.1430  142.0480 C   0  0  2  0  0  3  0  0  0  0  0  0
  185.5400  179.4840  141.8910 O   0  0  0  0  0  1  0  0  0  0  0  0
  188.8670  177.0540  141.9400 O   0  0  0  0  0  0  0  0  0  0  0  0
  187.4490  178.6040  140.7360 C   0  0  0  0  0  2  0  0  0  0  0  0
  188.8700  178.0850  140.9800 C   0  0  2  0  0  3  0  0  0  0  0  0
  187.0590  178.1300  143.1820 C   0  0  2  0  0  3  0  0  0  0  0  0
  188.8930  176.7770  144.3870 C   0  0  2  0  0  3  0  0  0  0  0  0
  191.4180  177.2090  143.7840 C   0  0  0  0  0  1  0  0  0  0  0  0
  188.3460  177.3730  145.6360 C   0  0  0  0  0  0  0  0  0  0  0  0
  187.7660  178.4430  148.1310 C   0  0  0  0  0  3  0  0  0  0  0  0
  189.3420  177.5520  146.5550 C   0  0  0  0  0  0  0  0  0  0  0  0
  189.0870  178.0900  147.8160 C   0  0  0  0  0  3  0  0  0  0  0  0
  186.7360  178.2500  147.1910 C   0  0  0  0  0  3  0  0  0  0  0  0
  190.4090  176.5860  144.7360 C   0  0  1  0  0  3  0  0  0  0  0  0
  190.6020  177.1270  146.0800 N   0  0  0  0  0  2  0  0  0  0  0  0
  187.0220  177.7060  145.9280 C   0  0  0  0  0  3  0  0  0  0  0  0
  189.5080  177.6030  139.6830 C   0  0  0  0  0  2  0  0  0  0  0  0
  190.7950  176.8260  139.9370 C   0  0  0  0  0  2  0  0  0  0  0  0
  192.9650  176.8370  138.6560 C   0  0  0  0  0  0  0  0  0  0  0  0
  193.6520  176.7010  137.4550 O   0  0  0  0  0  0  0  0  0  0  0  0
  193.6060  177.1120  139.7060 O   0  0  0  0  0  1  0  0  0  0  0  0
  191.5410  176.6690  138.6980 N   0  0  0  0  0  0  0  0  0  0  0  0
  190.7970  176.4430  137.4700 C   0  0  0  0  0  1  0  0  0  0  0  0
  1  5  1  6  0  0  0
  1  8  1  0  0  0  0
  1  9  1  0  0  0  0
  3  4  1  6  0  0  0
  3  8  1  0  0  0  0
  6  7  1  0  0  0  0
  6  3  1  0  0  0  0
  7 19  1  6  0  0  0
  7  5  1  0  0  0  0
  8  2  1  6  0  0  0
  9 16  1  0  0  0  0
  9 11  1  1  0  0  0
 11 18  2  0  0  0  0
 11 13  1  0  0  0  0
 13 14  2  0  0  0  0
 14 12  1  0  0  0  0
 15 12  2  0  0  0  0
 16 10  1  6  0  0  0
 16 17  1  0  0  0  0
 17 13  1  0  0  0  0
 18 15  1  0  0  0  0
 19 20  1  0  0  0  0
 21 24  1  0  0  0  0
 21 23  1  0  0  0  0
 22 21  2  0  0  0  0
 24 20  1  0  0  0  0
 25 24  1  0  0  0  0
M  END
>  <MODEL>
2

>  <REMARK>
 VINA RESULT:      -8.3      3.640      5.956
  Name = 
  4 active torsions:
  status: ('A' for Active; 'I' for Inactive)
    1  A    between atoms: C_1  and  C_3
    2  A    between atoms: C_6  and  C_15
    3  A    between atoms: C_6  and  C_23
    4  A    between atoms: C_15  and  N_21
                            x       y       z     vdW  Elec       q    Type
                         _______ _______ _______ _____ _____    ______ ____

>  <TORSDO>
F 4

$$$$
=
 OpenBabel10272400433D

 25 27  0  0  1  0  0  0  0  0999 V2000
  188.4730  177.6090  143.2920 C   0  0  1  0  0  3  0  0  0  0  0  0
  186.1430  176.9620  143.2280 O   0  0  0  0  0  1  0  0  0  0  0  0
  186.7590  179.0650  142.2360 C   0  0  2  0  0  3  0  0  0  0  0  0
  185.4010  179.3670  142.1300 O   0  0  0  0  0  1  0  0  0  0  0  0
  188.7950  177.0330  142.0470 O   0  0  0  0  0  0  0  0  0  0  0  0
  187.2880  178.5440  140.9020 C   0  0  0  0  0  2  0  0  0  0  0  0
  188.7320  178.0650  141.0910 C   0  0  2  0  0  3  0  0  0  0  0  0
  187.0050  178.0550  143.3600 C   0  0  2  0  0  3  0  0  0  0  0  0
  188.9210  176.7540  144.4910 C   0  0  2  0  0  3  0  0  0  0  0  0
  191.4070  177.2210  143.7680 C   0  0  0  0  0  1  0  0  0  0  0  0
  188.4260  177.3450  145.7630 C   0  0  0  0  0  0  0  0  0  0  0  0
  187.9490  178.4160  148.2810 C   0  0  0  0  0  3  0  0  0  0  0  0
  189.4620  177.5430  146.6340 C   0  0  0  0  0  0  0  0  0  0  0  0
  189.2590  178.0810  147.9040 C   0  0  0  0  0  3  0  0  0  0  0  0
  186.8790  178.2050  147.3910 C   0  0  0  0  0  3  0  0  0  0  0  0
  190.4550  176.5870  144.7680 C   0  0  1  0  0  3  0  0  0  0  0  0
  190.7040  177.1340  146.1000 N   0  0  0  0  0  2  0  0  0  0  0  0
  187.1120  177.6600  146.1180 C   0  0  0  0  0  3  0  0  0  0  0  0
  189.3330  177.6030  139.7690 C   0  0  0  0  0  2  0  0  0  0  0  0
  189.1870  178.6580  138.6790 C   0  0  0  0  0  2  0  0  0  0  0  0
  187.5560  178.1980  136.8140 C   0  0  0  0  0  0  0  0  0  0  0  0
  187.2520  177.5690  135.6120 O   0  0  0  0  0  0  0  0  0  0  0  0
  186.6840  178.9150  137.3730 O   0  0  0  0  0  1  0  0  0  0  0  0
  188.8490  178.0280  137.4110 N   0  0  0  0  0  0  0  0  0  0  0  0
  189.8180  177.1280  136.8090 C   0  0  0  0  0  1  0  0  0  0  0  0
  1  5  1  6  0  0  0
  1  8  1  0  0  0  0
  1  9  1  0  0  0  0
  3  4  1  6  0  0  0
  3  8  1  0  0  0  0
  6  7  1  0  0  0  0
  6  3  1  0  0  0  0
  7 19  1  6  0  0  0
  7  5  1  0  0  0  0
  8  2  1  6  0  0  0
  9 16  1  0  0  0  0
  9 11  1  1  0  0  0
 11 18  2  0  0  0  0
 11 13  1  0  0  0  0
 13 14  2  0  0  0  0
 14 12  1  0  0  0  0
 15 12  2  0  0  0  0
 16 10  1  6  0  0  0
 16 17  1  0  0  0  0
 17 13  1  0  0  0  0
 18 15  1  0  0  0  0
 20 19  1  0  0  0  0
 21 23  1  0  0  0  0
 21 24  1  0  0  0  0
 22 21  2  0  0  0  0
 24 20  1  0  0  0  0
 25 24  1  0  0  0  0
M  END
>  <MODEL>
3

>  <REMARK>
 VINA RESULT:      -7.9      3.046      4.652
  Name = 
  4 active torsions:
  status: ('A' for Active; 'I' for Inactive)
    1  A    between atoms: C_1  and  C_3
    2  A    between atoms: C_6  and  C_15
    3  A    between atoms: C_6  and  C_23
    4  A    between atoms: C_15  and  N_21
                            x       y       z     vdW  Elec       q    Type
                         _______ _______ _______ _____ _____    ______ ____

>  <TORSDO>
F 4

$$$$
=
 OpenBabel10272400433D

 25 27  0  0  1  0  0  0  0  0999 V2000
  187.3240  177.9530  141.9060 C   0  0  1  0  0  3  0  0  0  0  0  0
  185.9360  179.9350  141.9120 O   0  0  0  0  0  1  0  0  0  0  0  0
  185.0390  177.9260  142.8810 C   0  0  2  0  0  3  0  0  0  0  0  0
  183.7960  178.5570  142.9400 O   0  0  0  0  0  1  0  0  0  0  0  0
  187.8930  178.1990  143.1710 O   0  0  0  0  0  0  0  0  0  0  0  0
  185.7300  177.9970  144.2410 C   0  0  0  0  0  2  0  0  0  0  0  0
  187.1540  177.4470  144.1050 C   0  0  2  0  0  3  0  0  0  0  0  0
  185.9100  178.5440  141.7850 C   0  0  2  0  0  3  0  0  0  0  0  0
  188.2560  178.3240  140.7380 C   0  0  2  0  0  3  0  0  0  0  0  0
  190.0380  176.6870  141.7740 C   0  0  0  0  0  1  0  0  0  0  0  0
  187.6270  177.9620  139.4390 C   0  0  0  0  0  0  0  0  0  0  0  0
  186.8600  177.0670  136.9250 C   0  0  0  0  0  3  0  0  0  0  0  0
  188.4640  177.1650  138.7080 C   0  0  0  0  0  0  0  0  0  0  0  0
  188.1100  176.6950  137.4450 C   0  0  0  0  0  3  0  0  0  0  0  0
  186.0000  177.8960  137.6700 C   0  0  0  0  0  3  0  0  0  0  0  0
  189.6580  177.6290  140.6430 C   0  0  1  0  0  3  0  0  0  0  0  0
  189.6830  176.9070  139.3720 N   0  0  0  0  0  2  0  0  0  0  0  0
  186.3830  178.3560  138.9410 C   0  0  0  0  0  3  0  0  0  0  0  0
  187.8650  177.4270  145.4530 C   0  0  0  0  0  2  0  0  0  0  0  0
  189.3590  177.6960  145.3110 C   0  0  0  0  0  2  0  0  0  0  0  0
  191.3360  176.7970  146.5900 C   0  0  0  0  0  0  0  0  0  0  0  0
  191.9570  176.5210  147.8030 O   0  0  0  0  0  1  0  0  0  0  0  0
  191.9190  176.4950  145.5150 O   0  0  0  0  0  0  0  0  0  0  0  0
  190.0420  177.4150  146.5660 N   0  0  0  0  0  0  0  0  0  0  0  0
  189.3340  177.6760  147.8080 C   0  0  0  0  0  1  0  0  0  0  0  0
  1  5  1  1  0  0  0
  3  4  1  1  0  0  0
  3  6  1  0  0  0  0
  5  7  1  0  0  0  0
  7  6  1  0  0  0  0
  7 19  1  1  0  0  0
  8  1  1  0  0  0  0
  8  2  1  1  0  0  0
  8  3  1  0  0  0  0
  9 11  1  6  0  0  0
  9  1  1  0  0  0  0
 12 14  2  0  0  0  0
 12 15  1  0  0  0  0
 13 17  1  0  0  0  0
 13 11  2  0  0  0  0
 14 13  1  0  0  0  0
 15 18  2  0  0  0  0
 16  9  1  0  0  0  0
 16 10  1  1  0  0  0
 17 16  1  0  0  0  0
 18 11  1  0  0  0  0
 20 19  1  0  0  0  0
 20 24  1  0  0  0  0
 21 22  1  0  0  0  0
 23 21  2  0  0  0  0
 24 21  1  0  0  0  0
 24 25  1  0  0  0  0
M  END
>  <MODEL>
4

>  <REMARK>
 VINA RESULT:      -7.9      2.850      6.882
  Name = 
  4 active torsions:
  status: ('A' for Active; 'I' for Inactive)
    1  A    between atoms: C_1  and  C_3
    2  A    between atoms: C_6  and  C_15
    3  A    between atoms: C_6  and  C_23
    4  A    between atoms: C_15  and  N_21
                            x       y       z     vdW  Elec       q    Type
                         _______ _______ _______ _____ _____    ______ ____

>  <TORSDO>
F 4

$$$$
=
 OpenBabel10272400433D

 25 27  0  0  1  0  0  0  0  0999 V2000
  187.7540  177.8110  144.3760 C   0  0  1  0  0  3  0  0  0  0  0  0
  187.8990  176.1580  142.6150 O   0  0  0  0  0  1  0  0  0  0  0  0
  189.1220  178.2110  142.3400 C   0  0  2  0  0  3  0  0  0  0  0  0
  189.3670  177.8410  141.0170 O   0  0  0  0  0  1  0  0  0  0  0  0
  188.8820  177.3410  145.0780 O   0  0  0  0  0  0  0  0  0  0  0  0
  190.3300  177.8780  143.2120 C   0  0  0  0  0  2  0  0  0  0  0  0
  189.9730  178.1390  144.6800 C   0  0  2  0  0  3  0  0  0  0  0  0
  187.8550  177.5320  142.8680 C   0  0  2  0  0  3  0  0  0  0  0  0
  186.4200  177.3680  145.0040 C   0  0  2  0  0  3  0  0  0  0  0  0
  187.2810  178.3580  147.2850 C   0  0  0  0  0  1  0  0  0  0  0  0
  185.2800  178.0380  144.3220 C   0  0  0  0  0  0  0  0  0  0  0  0
  183.0150  179.4070  143.4840 C   0  0  0  0  0  3  0  0  0  0  0  0
  184.4910  178.6840  145.2330 C   0  0  0  0  0  0  0  0  0  0  0  0
  183.3490  179.3830  144.8470 C   0  0  0  0  0  3  0  0  0  0  0  0
  183.8190  178.7350  142.5440 C   0  0  0  0  0  3  0  0  0  0  0  0
  186.1530  177.6930  146.5130 C   0  0  1  0  0  3  0  0  0  0  0  0
  184.9620  178.5400  146.5560 N   0  0  0  0  0  2  0  0  0  0  0  0
  184.9640  178.0370  142.9610 C   0  0  0  0  0  3  0  0  0  0  0  0
  191.1720  177.8920  145.5880 C   0  0  0  0  0  2  0  0  0  0  0  0
  190.8080  177.0160  146.7820 C   0  0  0  0  0  2  0  0  0  0  0  0
  192.7400  176.2920  148.2290 C   0  0  0  0  0  0  0  0  0  0  0  0
  193.7870  175.4140  148.4840 O   0  0  0  0  0  0  0  0  0  0  0  0
  192.5420  177.2590  149.0120 O   0  0  0  0  0  1  0  0  0  0  0  0
  191.8980  176.1000  147.0840 N   0  0  0  0  0  0  0  0  0  0  0  0
  192.1890  175.0390  146.1350 C   0  0  0  0  0  1  0  0  0  0  0  0
  1  9  1  0  0  0  0
  1  5  1  1  0  0  0
  3  4  1  6  0  0  0
  3  8  1  0  0  0  0
  3  6  1  0  0  0  0
  6  7  1  0  0  0  0
  7  5  1  0  0  0  0
  7 19  1  1  0  0  0
  8  2  1  1  0  0  0
  8  1  1  0  0  0  0
  9 11  1  6  0  0  0
  9 16  1  0  0  0  0
 11 13  1  0  0  0  0
 12 14  1  0  0  0  0
 13 17  1  0  0  0  0
 14 13  2  0  0  0  0
 15 18  1  0  0  0  0
 15 12  2  0  0  0  0
 16 17  1  0  0  0  0
 16 10  1  6  0  0  0
 18 11  2  0  0  0  0
 19 20  1  0  0  0  0
 20 24  1  0  0  0  0
 21 22  2  0  0  0  0
 21 23  1  0  0  0  0
 24 21  1  0  0  0  0
 25 24  1  0  0  0  0
M  END
>  <MODEL>
5

>  <REMARK>
 VINA RESULT:      -7.8      3.278      8.126
  Name = 
  4 active torsions:
  status: ('A' for Active; 'I' for Inactive)
    1  A    between atoms: C_1  and  C_3
    2  A    between atoms: C_6  and  C_15
    3  A    between atoms: C_6  and  C_23
    4  A    between atoms: C_15  and  N_21
                            x       y       z     vdW  Elec       q    Type
                         _______ _______ _______ _____ _____    ______ ____

>  <TORSDO>
F 4

$$$$
=
 OpenBabel10272400433D

 25 27  0  0  1  0  0  0  0  0999 V2000
  188.1890  177.8330  143.3230 C   0  0  1  0  0  3  0  0  0  0  0  0
  185.9510  176.9130  143.3450 O   0  0  0  0  0  1  0  0  0  0  0  0
  186.2390  179.1670  142.5540 C   0  0  2  0  0  3  0  0  0  0  0  0
  184.8500  179.3080  142.5750 O   0  0  0  0  0  1  0  0  0  0  0  0
  188.4740  177.4320  142.0030 O   0  0  0  0  0  0  0  0  0  0  0  0
  186.7150  178.8550  141.1380 C   0  0  0  0  0  2  0  0  0  0  0  0
  188.2150  178.5420  141.1740 C   0  0  2  0  0  3  0  0  0  0  0  0
  186.6890  178.0850  143.5400 C   0  0  2  0  0  3  0  0  0  0  0  0
  188.8280  176.9210  144.3860 C   0  0  2  0  0  3  0  0  0  0  0  0
  191.1750  177.5820  143.3980 C   0  0  0  0  0  1  0  0  0  0  0  0
  188.4720  177.3890  145.7520 C   0  0  0  0  0  0  0  0  0  0  0  0
  188.2710  178.2460  148.3860 C   0  0  0  0  0  3  0  0  0  0  0  0
  189.6000  177.5830  146.5000 C   0  0  0  0  0  0  0  0  0  0  0  0
  189.5360  178.0150  147.8240 C   0  0  0  0  0  3  0  0  0  0  0  0
  187.1070  178.0380  147.6230 C   0  0  0  0  0  3  0  0  0  0  0  0
  190.3900  176.8230  144.4560 C   0  0  1  0  0  3  0  0  0  0  0  0
  190.7810  177.2870  145.7860 N   0  0  0  0  0  2  0  0  0  0  0  0
  187.2000  177.6010  146.2910 C   0  0  0  0  0  3  0  0  0  0  0  0
  188.7580  178.2950  139.7710 C   0  0  0  0  0  2  0  0  0  0  0  0
  189.3930  176.9150  139.6430 C   0  0  0  0  0  2  0  0  0  0  0  0
  190.1050  175.4490  137.7210 C   0  0  0  0  0  0  0  0  0  0  0  0
  189.9010  174.9800  136.4280 O   0  0  0  0  0  0  0  0  0  0  0  0
  191.1000  175.0390  138.3760 O   0  0  0  0  0  1  0  0  0  0  0  0
  189.1920  176.3920  138.2990 N   0  0  0  0  0  0  0  0  0  0  0  0
  188.1000  176.9310  137.5060 C   0  0  0  0  0  1  0  0  0  0  0  0
  1  5  1  6  0  0  0
  1  8  1  0  0  0  0
  1  9  1  0  0  0  0
  3  4  1  6  0  0  0
  3  8  1  0  0  0  0
  6  7  1  0  0  0  0
  6  3  1  0  0  0  0
  7 19  1  6  0  0  0
  7  5  1  0  0  0  0
  8  2  1  6  0  0  0
  9 16  1  0  0  0  0
  9 11  1  1  0  0  0
 11 18  2  0  0  0  0
 11 13  1  0  0  0  0
 13 14  2  0  0  0  0
 14 12  1  0  0  0  0
 15 12  2  0  0  0  0
 16 10  1  6  0  0  0
 16 17  1  0  0  0  0
 17 13  1  0  0  0  0
 18 15  1  0  0  0  0
 20 19  1  0  0  0  0
 21 24  1  0  0  0  0
 21 23  1  0  0  0  0
 22 21  2  0  0  0  0
 24 20  1  0  0  0  0
 25 24  1  0  0  0  0
M  END
>  <MODEL>
6

>  <REMARK>
 VINA RESULT:      -7.7      3.162      4.986
  Name = 
  4 active torsions:
  status: ('A' for Active; 'I' for Inactive)
    1  A    between atoms: C_1  and  C_3
    2  A    between atoms: C_6  and  C_15
    3  A    between atoms: C_6  and  C_23
    4  A    between atoms: C_15  and  N_21
                            x       y       z     vdW  Elec       q    Type
                         _______ _______ _______ _____ _____    ______ ____

>  <TORSDO>
F 4

$$$$
=
 OpenBabel10272400433D

 25 27  0  0  1  0  0  0  0  0999 V2000
  188.8460  177.6330  144.0570 C   0  0  1  0  0  3  0  0  0  0  0  0
  190.5980  178.7650  142.8300 O   0  0  0  0  0  1  0  0  0  0  0  0
  189.4840  176.9190  141.7640 C   0  0  2  0  0  3  0  0  0  0  0  0
  190.4590  176.9580  140.7670 O   0  0  0  0  0  1  0  0  0  0  0  0
  187.8040  178.4350  143.5500 O   0  0  0  0  0  0  0  0  0  0  0  0
  188.2250  177.6470  141.2990 C   0  0  0  0  0  2  0  0  0  0  0  0
  187.2370  177.7320  142.4680 C   0  0  2  0  0  3  0  0  0  0  0  0
  190.0170  177.5160  143.0690 C   0  0  2  0  0  3  0  0  0  0  0  0
  189.2720  178.0220  145.4840 C   0  0  2  0  0  3  0  0  0  0  0  0
  186.7690  177.6710  146.2180 C   0  0  0  0  0  1  0  0  0  0  0  0
  190.3030  177.0770  145.9930 C   0  0  0  0  0  0  0  0  0  0  0  0
  191.9460  175.2730  147.3170 C   0  0  0  0  0  3  0  0  0  0  0  0
  189.9140  176.5460  147.1910 C   0  0  0  0  0  0  0  0  0  0  0  0
  190.7120  175.6350  147.8820 C   0  0  0  0  0  3  0  0  0  0  0  0
  192.3540  175.8260  146.0890 C   0  0  0  0  0  3  0  0  0  0  0  0
  188.1970  177.9990  146.6240 C   0  0  1  0  0  3  0  0  0  0  0  0
  188.6590  177.0320  147.6180 N   0  0  0  0  0  2  0  0  0  0  0  0
  191.5300  176.7420  145.4150 C   0  0  0  0  0  3  0  0  0  0  0  0
  185.9310  178.3860  142.0350 C   0  0  0  0  0  2  0  0  0  0  0  0
  185.1810  178.9920  143.2170 C   0  0  0  0  0  2  0  0  0  0  0  0
  182.8480  178.8970  144.1650 C   0  0  0  0  0  0  0  0  0  0  0  0
  181.4850  178.6950  143.9830 O   0  0  0  0  0  0  0  0  0  0  0  0
  183.2840  179.1580  145.3180 O   0  0  0  0  0  1  0  0  0  0  0  0
  183.7470  178.8050  143.0510 N   0  0  0  0  0  0  0  0  0  0  0  0
  183.2500  178.4140  141.7430 C   0  0  0  0  0  1  0  0  0  0  0  0
  1  5  1  6  0  0  0
  1  9  1  0  0  0  0
  3  4  1  6  0  0  0
  3  8  1  0  0  0  0
  6  3  1  0  0  0  0
  6  7  1  0  0  0  0
  7 19  1  6  0  0  0
  7  5  1  0  0  0  0
  8  2  1  6  0  0  0
  8  1  1  0  0  0  0
  9 11  1  1  0  0  0
  9 16  1  0  0  0  0
 11 13  1  0  0  0  0
 12 14  1  0  0  0  0
 13 17  1  0  0  0  0
 13 14  2  0  0  0  0
 15 12  2  0  0  0  0
 16 10  1  6  0  0  0
 16 17  1  0  0  0  0
 18 11  2  0  0  0  0
 18 15  1  0  0  0  0
 19 20  1  0  0  0  0
 21 23  1  0  0  0  0
 22 21  2  0  0  0  0
 24 20  1  0  0  0  0
 24 21  1  0  0  0  0
 25 24  1  0  0  0  0
M  END
>  <MODEL>
7

>  <REMARK>
 VINA RESULT:      -7.5      2.595      4.426
  Name = 
  4 active torsions:
  status: ('A' for Active; 'I' for Inactive)
    1  A    between atoms: C_1  and  C_3
    2  A    between atoms: C_6  and  C_15
    3  A    between atoms: C_6  and  C_23
    4  A    between atoms: C_15  and  N_21
                            x       y       z     vdW  Elec       q    Type
                         _______ _______ _______ _____ _____    ______ ____

>  <TORSDO>
F 4

$$$$
=
 OpenBabel10272400433D

 25 27  0  0  1  0  0  0  0  0999 V2000
  189.0920  177.7170  143.4300 C   0  0  1  0  0  3  0  0  0  0  0  0
  191.1510  178.7880  142.7480 O   0  0  0  0  0  1  0  0  0  0  0  0
  190.3740  176.9110  141.4600 C   0  0  2  0  0  3  0  0  0  0  0  0
  191.6040  176.9050  140.8010 O   0  0  0  0  0  1  0  0  0  0  0  0
  188.2640  178.5060  142.6070 O   0  0  0  0  0  0  0  0  0  0  0  0
  189.3260  177.6300  140.6140 C   0  0  0  0  0  2  0  0  0  0  0  0
  188.0350  177.7670  141.4290 C   0  0  2  0  0  3  0  0  0  0  0  0
  190.5020  177.5530  142.8440 C   0  0  2  0  0  3  0  0  0  0  0  0
  189.0770  178.1570  144.9060 C   0  0  2  0  0  3  0  0  0  0  0  0
  186.4930  177.6590  144.9230 C   0  0  0  0  0  1  0  0  0  0  0  0
  189.9750  177.2890  145.7140 C   0  0  0  0  0  0  0  0  0  0  0  0
  191.2790  175.6160  147.5060 C   0  0  0  0  0  3  0  0  0  0  0  0
  189.2960  176.7540  146.7740 C   0  0  0  0  0  0  0  0  0  0  0  0
  189.9190  175.9080  147.6910 C   0  0  0  0  0  3  0  0  0  0  0  0
  191.9840  176.1730  146.4220 C   0  0  0  0  0  3  0  0  0  0  0  0
  187.7280  178.0840  145.7000 C   0  0  1  0  0  3  0  0  0  0  0  0
  187.9470  177.1670  146.8170 N   0  0  0  0  0  2  0  0  0  0  0  0
  191.3320  177.0230  145.5140 C   0  0  0  0  0  3  0  0  0  0  0  0
  186.9310  178.4140  140.6020 C   0  0  0  0  0  2  0  0  0  0  0  0
  185.9680  179.2170  141.4700 C   0  0  0  0  0  2  0  0  0  0  0  0
  183.9030  179.2630  140.0250 C   0  0  0  0  0  0  0  0  0  0  0  0
  182.5850  178.8830  139.8010 O   0  0  0  0  0  1  0  0  0  0  0  0
  184.4820  180.0070  139.1880 O   0  0  0  0  0  0  0  0  0  0  0  0
  184.5940  178.8160  141.2000 N   0  0  0  0  0  0  0  0  0  0  0  0
  183.8930  178.0370  142.2060 C   0  0  0  0  0  1  0  0  0  0  0  0
  1  5  1  6  0  0  0
  1  9  1  0  0  0  0
  3  4  1  6  0  0  0
  3  8  1  0  0  0  0
  6  7  1  0  0  0  0
  6  3  1  0  0  0  0
  7 19  1  6  0  0  0
  7  5  1  0  0  0  0
  8  2  1  6  0  0  0
  8  1  1  0  0  0  0
  9 16  1  0  0  0  0
  9 11  1  1  0  0  0
 11 13  1  0  0  0  0
 12 14  1  0  0  0  0
 13 17  1  0  0  0  0
 13 14  2  0  0  0  0
 15 12  2  0  0  0  0
 16 10  1  6  0  0  0
 16 17  1  0  0  0  0
 18 11  2  0  0  0  0
 18 15  1  0  0  0  0
 19 20  1  0  0  0  0
 21 24  1  0  0  0  0
 22 21  1  0  0  0  0
 23 21  2  0  0  0  0
 24 20  1  0  0  0  0
 24 25  1  0  0  0  0
M  END
>  <MODEL>
8

>  <REMARK>
 VINA RESULT:      -7.4      2.504      4.145
  Name = 
  4 active torsions:
  status: ('A' for Active; 'I' for Inactive)
    1  A    between atoms: C_1  and  C_3
    2  A    between atoms: C_6  and  C_15
    3  A    between atoms: C_6  and  C_23
    4  A    between atoms: C_15  and  N_21
                            x       y       z     vdW  Elec       q    Type
                         _______ _______ _______ _____ _____    ______ ____

>  <TORSDO>
F 4

$$$$
=
 OpenBabel10272400433D

 25 27  0  0  1  0  0  0  0  0999 V2000
  186.9180  178.0570  144.6370 C   0  0  1  0  0  3  0  0  0  0  0  0
  187.0950  176.5380  146.5120 O   0  0  0  0  0  1  0  0  0  0  0  0
  186.5140  178.8280  146.9640 C   0  0  2  0  0  3  0  0  0  0  0  0
  186.7040  178.5650  148.3220 O   0  0  0  0  0  1  0  0  0  0  0  0
  185.5400  177.8430  144.4360 O   0  0  0  0  0  0  0  0  0  0  0  0
  185.0280  178.7610  146.6180 C   0  0  0  0  0  2  0  0  0  0  0  0
  184.8640  178.8860  145.0990 C   0  0  2  0  0  3  0  0  0  0  0  0
  187.3260  177.8550  146.1040 C   0  0  2  0  0  3  0  0  0  0  0  0
  187.8030  177.2950  143.6340 C   0  0  2  0  0  3  0  0  0  0  0  0
  186.7130  178.7430  141.7260 C   0  0  0  0  0  1  0  0  0  0  0  0
  189.2420  177.5010  143.9510 C   0  0  0  0  0  0  0  0  0  0  0  0
  191.9690  178.0060  144.0900 C   0  0  0  0  0  3  0  0  0  0  0  0
  189.9110  177.9670  142.8540 C   0  0  0  0  0  0  0  0  0  0  0  0
  191.2790  178.2340  142.8890 C   0  0  0  0  0  3  0  0  0  0  0  0
  191.2850  177.5170  145.2190 C   0  0  0  0  0  3  0  0  0  0  0  0
  187.7300  177.6830  142.1170 C   0  0  1  0  0  3  0  0  0  0  0  0
  189.0700  178.1210  141.7300 N   0  0  0  0  0  2  0  0  0  0  0  0
  189.9070  177.2560  145.1550 C   0  0  0  0  0  3  0  0  0  0  0  0
  183.3920  178.9000  144.7070 C   0  0  0  0  0  2  0  0  0  0  0  0
  183.2040  178.7290  143.2030 C   0  0  0  0  0  2  0  0  0  0  0  0
  181.3610  179.0260  141.5090 C   0  0  0  0  0  0  0  0  0  0  0  0
  180.0060  179.1190  141.2120 O   0  0  0  0  0  1  0  0  0  0  0  0
  182.2060  179.1360  140.5810 O   0  0  0  0  0  0  0  0  0  0  0  0
  181.7910  178.8100  142.8610 N   0  0  0  0  0  0  0  0  0  0  0  0
  180.8180  178.7770  143.9390 C   0  0  0  0  0  1  0  0  0  0  0  0
  1  5  1  1  0  0  0
  1  8  1  0  0  0  0
  3  4  1  1  0  0  0
  5  7  1  0  0  0  0
  6  3  1  0  0  0  0
  7 19  1  1  0  0  0
  7  6  1  0  0  0  0
  8  2  1  1  0  0  0
  8  3  1  0  0  0  0
  9 11  1  1  0  0  0
  9  1  1  0  0  0  0
 11 18  1  0  0  0  0
 12 15  1  0  0  0  0
 13 14  1  0  0  0  0
 13 11  2  0  0  0  0
 14 12  2  0  0  0  0
 16 10  1  1  0  0  0
 16  9  1  0  0  0  0
 17 16  1  0  0  0  0
 17 13  1  0  0  0  0
 18 15  2  0  0  0  0
 20 19  1  0  0  0  0
 21 24  1  0  0  0  0
 22 21  1  0  0  0  0
 23 21  2  0  0  0  0
 24 20  1  0  0  0  0
 24 25  1  0  0  0  0
M  END
>  <MODEL>
9

>  <REMARK>
 VINA RESULT:      -7.3      1.537      1.871
  Name = 
  4 active torsions:
  status: ('A' for Active; 'I' for Inactive)
    1  A    between atoms: C_1  and  C_3
    2  A    between atoms: C_6  and  C_15
    3  A    between atoms: C_6  and  C_23
    4  A    between atoms: C_15  and  N_21
                            x       y       z     vdW  Elec       q    Type
                         _______ _______ _______ _____ _____    ______ ____

>  <TORSDO>
F 4

$$$$
