=
 OpenBabel10272413293D

 32 37  0  0  1  0  0  0  0  0999 V2000
  185.3390  178.8940  141.3410 C   0  0  1  0  0  3  0  0  0  0  0  0
  181.0030  177.7400  139.8040 C   0  0  0  0  0  2  0  0  0  0  0  0
  181.9960  176.5990  139.9840 C   0  0  0  0  0  2  0  0  0  0  0  0
  187.4130  178.4730  139.9420 C   0  0  2  0  0  3  0  0  0  0  0  0
  187.9150  178.2050  138.5550 C   0  0  0  0  0  0  0  0  0  0  0  0
  185.2660  178.3120  143.7570 C   0  0  0  0  0  0  0  0  0  0  0  0
  183.2030  178.9940  142.6700 C   0  0  0  0  0  3  0  0  0  0  0  0
  187.8340  177.8390  136.2590 C   0  0  0  0  0  0  0  0  0  0  0  0
  181.5790  179.0560  140.3390 C   0  0  0  0  0  2  0  0  0  0  0  0
  183.8590  178.8810  141.3920 N   0  0  0  0  0  0  0  0  0  0  0  0
  183.1090  179.1950  140.1660 C   0  0  1  0  0  3  0  0  0  0  0  0
  185.1170  178.5650  138.8270 C   0  0  2  0  0  3  0  0  0  0  0  0
  189.2130  177.9870  136.3990 C   0  0  0  0  0  3  0  0  0  0  0  0
  183.8560  178.7280  143.7990 C   0  0  0  0  0  3  0  0  0  0  0  0
  189.5080  178.2840  138.0340 S   0  0  0  0  0  0  0  0  0  0  0  0
  183.2700  176.8440  139.1700 C   0  0  0  0  0  2  0  0  0  0  0  0
  183.6170  178.3400  139.0000 C   0  0  1  0  0  3  0  0  0  0  0  0
  185.6280  177.8390  137.5770 C   0  0  0  0  0  2  0  0  0  0  0  0
  185.9400  178.3340  142.6070 C   0  0  0  0  0  3  0  0  0  0  0  0
  188.1500  177.7100  140.8500 O   0  0  0  0  0  1  0  0  0  0  0  0
  187.1980  177.5630  134.9410 C   0  0  0  0  0  1  0  0  0  0  0  0
  185.9030  178.1670  140.0990 C   0  0  2  0  0  3  0  0  0  0  0  0
  187.1110  177.9820  137.4530 C   0  0  0  0  0  0  0  0  0  0  0  0
  185.9180  177.7860  144.9860 C   0  0  0  0  0  2  0  0  0  0  0  0
  187.3350  177.3420  144.6770 C   0  0  0  0  0  2  0  0  0  0  0  0
  188.2590  177.7670  145.8000 C   0  0  2  0  0  3  0  0  0  0  0  0
  189.4430  178.2930  145.2500 O   0  0  0  0  0  0  0  0  0  0  0  0
  189.5070  176.9780  145.7440 C   0  0  1  0  0  3  0  0  0  0  0  0
  190.1860  176.9880  147.1010 C   0  0  0  0  0  2  0  0  0  0  0  0
  191.5790  176.6040  146.9600 N   0  0  0  0  0  0  0  0  0  0  0  0
  192.3850  176.5450  148.0730 O   0  0  0  0  0  0  0  0  0  0  0  0
  191.9930  176.1550  145.8730 O   0  0  0  0  0  0  0  0  0  0  0  0
  1 10  1  0  0  0  0
  1 19  1  1  0  0  0
  2  3  1  0  0  0  0
  2  9  1  0  0  0  0
  4 22  1  0  0  0  0
  4 20  1  1  0  0  0
  5  4  1  0  0  0  0
  6 14  1  0  0  0  0
  6 24  1  0  0  0  0
  7 14  2  0  0  0  0
  8 13  2  0  0  0  0
  8 23  1  0  0  0  0
 10  7  1  0  0  0  0
 11  9  1  1  0  0  0
 11 10  1  0  0  0  0
 12 18  1  6  0  0  0
 12 17  1  0  0  0  0
 12 22  1  0  0  0  0
 13 15  1  0  0  0  0
 15  5  1  0  0  0  0
 16  3  1  0  0  0  0
 17 16  1  1  0  0  0
 17 11  1  0  0  0  0
 19  6  2  0  0  0  0
 21  8  1  0  0  0  0
 22  1  1  0  0  0  0
 23 18  1  0  0  0  0
 23  5  2  0  0  0  0
 25 24  1  0  0  0  0
 25 26  1  0  0  0  0
 27 28  1  0  0  0  0
 27 26  1  0  0  0  0
 28 26  1  0  0  0  0
 28 29  1  0  0  0  0
 30 29  1  0  0  0  0
 30 31  2  0  0  0  0
 32 30  2  0  0  0  0
M  END
>  <MODEL>
1

>  <REMARK>
 VINA RESULT:      -8.7      0.000      0.000
  Name = 
  5 active torsions:
  status: ('A' for Active; 'I' for Inactive)
    1  A    between atoms: N_1  and  C_10
    2  A    between atoms: C_2  and  C_19
    3  A    between atoms: C_8  and  C_23
    4  A    between atoms: C_10  and  C_24
    5  A    between atoms: C_19  and  C_23
                            x       y       z     vdW  Elec       q    Type
                         _______ _______ _______ _____ _____    ______ ____

>  <TORSDO>
F 5

$$$$
=
 OpenBabel10272413293D

 32 37  0  0  1  0  0  0  0  0999 V2000
  187.7760  177.2330  142.5540 C   0  0  1  0  0  3  0  0  0  0  0  0
  191.4600  177.5810  145.5200 C   0  0  0  0  0  2  0  0  0  0  0  0
  191.1790  178.7830  144.6280 C   0  0  0  0  0  2  0  0  0  0  0  0
  188.0680  177.3360  140.0360 C   0  0  2  0  0  3  0  0  0  0  0  0
  189.0550  177.1960  138.9160 C   0  0  0  0  0  0  0  0  0  0  0  0
  185.9890  178.5230  143.7040 C   0  0  0  0  0  0  0  0  0  0  0  0
  187.6660  177.4100  145.0620 C   0  0  0  0  0  3  0  0  0  0  0  0
  191.1000  176.8330  137.8680 C   0  0  0  0  0  0  0  0  0  0  0  0
  190.3490  176.5320  145.3910 C   0  0  0  0  0  2  0  0  0  0  0  0
  188.4430  177.1670  143.8730 N   0  0  0  0  0  0  0  0  0  0  0  0
  189.7200  176.4440  143.9820 C   0  0  1  0  0  3  0  0  0  0  0  0
  190.0580  176.7590  141.5300 C   0  0  2  0  0  3  0  0  0  0  0  0
  190.2820  176.8240  136.7390 C   0  0  0  0  0  3  0  0  0  0  0  0
  186.5010  178.0510  144.9980 C   0  0  0  0  0  3  0  0  0  0  0  0
  188.7010  177.0630  137.2810 S   0  0  0  0  0  0  0  0  0  0  0  0
  191.1700  178.3810  143.1500 C   0  0  0  0  0  2  0  0  0  0  0  0
  190.6970  176.9300  142.9050 C   0  0  1  0  0  3  0  0  0  0  0  0
  191.0630  177.0970  140.4240 C   0  0  0  0  0  2  0  0  0  0  0  0
  186.6100  178.1920  142.5710 C   0  0  0  0  0  3  0  0  0  0  0  0
  187.1940  178.3860  139.7470 O   0  0  0  0  0  1  0  0  0  0  0  0
  192.5750  176.6500  137.7770 C   0  0  0  0  0  1  0  0  0  0  0  0
  188.7500  177.5780  141.4040 C   0  0  2  0  0  3  0  0  0  0  0  0
  190.4160  177.0180  139.0790 C   0  0  0  0  0  0  0  0  0  0  0  0
  184.8190  179.4420  143.6630 C   0  0  0  0  0  2  0  0  0  0  0  0
  183.5420  178.6530  143.4420 C   0  0  0  0  0  2  0  0  0  0  0  0
  182.7720  179.2460  142.2790 C   0  0  2  0  0  3  0  0  0  0  0  0
  181.7180  178.3800  141.9340 O   0  0  0  0  0  0  0  0  0  0  0  0
  182.8590  178.3440  141.1120 C   0  0  1  0  0  3  0  0  0  0  0  0
  182.5800  179.1180  139.8380 C   0  0  0  0  0  2  0  0  0  0  0  0
  183.7870  179.2000  139.0340 N   0  0  0  0  0  0  0  0  0  0  0  0
  184.0380  178.2390  138.0830 O   0  0  0  0  0  0  0  0  0  0  0  0
  184.4920  180.2270  139.0760 O   0  0  0  0  0  0  0  0  0  0  0  0
  1 19  1  1  0  0  0
  1 10  1  0  0  0  0
  3  2  1  0  0  0  0
  4 20  1  6  0  0  0
  4 22  1  0  0  0  0
  5 23  2  0  0  0  0
  5  4  1  0  0  0  0
  6 14  1  0  0  0  0
  8 23  1  0  0  0  0
  9  2  1  0  0  0  0
 10 11  1  0  0  0  0
 10  7  1  0  0  0  0
 11  9  1  1  0  0  0
 12 18  1  6  0  0  0
 12 17  1  0  0  0  0
 13 15  1  0  0  0  0
 13  8  2  0  0  0  0
 14  7  2  0  0  0  0
 15  5  1  0  0  0  0
 16  3  1  0  0  0  0
 17 16  1  1  0  0  0
 17 11  1  0  0  0  0
 19  6  2  0  0  0  0
 21  8  1  0  0  0  0
 22 12  1  0  0  0  0
 22  1  1  0  0  0  0
 23 18  1  0  0  0  0
 24  6  1  0  0  0  0
 25 24  1  0  0  0  0
 26 25  1  0  0  0  0
 27 26  1  0  0  0  0
 28 27  1  0  0  0  0
 28 26  1  0  0  0  0
 29 28  1  0  0  0  0
 30 32  2  0  0  0  0
 30 29  1  0  0  0  0
 31 30  2  0  0  0  0
M  END
>  <MODEL>
2

>  <REMARK>
 VINA RESULT:      -8.5      3.168      6.979
  Name = 
  5 active torsions:
  status: ('A' for Active; 'I' for Inactive)
    1  A    between atoms: N_1  and  C_10
    2  A    between atoms: C_2  and  C_19
    3  A    between atoms: C_8  and  C_23
    4  A    between atoms: C_10  and  C_24
    5  A    between atoms: C_19  and  C_23
                            x       y       z     vdW  Elec       q    Type
                         _______ _______ _______ _____ _____    ______ ____

>  <TORSDO>
F 5

$$$$
=
 OpenBabel10272413293D

 32 37  0  0  1  0  0  0  0  0999 V2000
  188.1210  178.4490  141.0290 C   0  0  1  0  0  3  0  0  0  0  0  0
  191.5830  176.2020  143.3680 C   0  0  0  0  0  2  0  0  0  0  0  0
  190.3390  175.3900  143.0320 C   0  0  0  0  0  2  0  0  0  0  0  0
  185.8100  178.7570  142.0290 C   0  0  2  0  0  3  0  0  0  0  0  0
  185.0230  178.7540  143.3040 C   0  0  0  0  0  0  0  0  0  0  0  0
  188.4260  177.6880  138.6820 C   0  0  0  0  0  0  0  0  0  0  0  0
  190.3820  177.8200  140.1160 C   0  0  0  0  0  3  0  0  0  0  0  0
  184.5980  178.5570  145.5830 C   0  0  0  0  0  0  0  0  0  0  0  0
  191.5280  177.5840  142.7060 C   0  0  0  0  0  2  0  0  0  0  0  0
  189.5150  178.0010  141.2530 N   0  0  0  0  0  0  0  0  0  0  0  0
  190.1050  178.1760  142.5900 C   0  0  1  0  0  3  0  0  0  0  0  0
  187.8030  178.2620  143.5480 C   0  0  2  0  0  3  0  0  0  0  0  0
  183.3720  179.0890  145.1870 C   0  0  0  0  0  3  0  0  0  0  0  0
  189.8810  177.6710  138.8920 C   0  0  0  0  0  3  0  0  0  0  0  0
  183.4620  179.3330  143.5190 S   0  0  0  0  0  0  0  0  0  0  0  0
  189.0780  176.0570  143.5900 C   0  0  0  0  0  2  0  0  0  0  0  0
  189.1730  177.5980  143.6590 C   0  0  1  0  0  3  0  0  0  0  0  0
  186.8930  177.8140  144.6960 C   0  0  0  0  0  2  0  0  0  0  0  0
  187.6040  177.9920  139.6860 C   0  0  0  0  0  3  0  0  0  0  0  0
  185.0440  178.1750  141.0170 O   0  0  0  0  0  1  0  0  0  0  0  0
  184.8870  178.2090  147.0020 C   0  0  0  0  0  1  0  0  0  0  0  0
  187.1620  178.0140  142.1600 C   0  0  2  0  0  3  0  0  0  0  0  0
  185.5230  178.3920  144.5410 C   0  0  0  0  0  0  0  0  0  0  0  0
  187.8650  177.2810  137.3650 C   0  0  0  0  0  2  0  0  0  0  0  0
  186.4900  177.8920  137.1720 C   0  0  0  0  0  2  0  0  0  0  0  0
  185.4500  176.7920  137.0980 C   0  0  2  0  0  3  0  0  0  0  0  0
  184.3580  177.2410  136.3330 O   0  0  0  0  0  0  0  0  0  0  0  0
  184.1950  177.2500  137.7300 C   0  0  1  0  0  3  0  0  0  0  0  0
  183.3580  176.0530  138.1420 C   0  0  0  0  0  2  0  0  0  0  0  0
  182.3940  176.4490  139.1540 N   0  0  0  0  0  0  0  0  0  0  0  0
  182.1380  177.7830  139.3660 O   0  0  0  0  0  0  0  0  0  0  0  0
  181.6710  175.5870  139.6930 O   0  0  0  0  0  0  0  0  0  0  0  0
  1 19  1  6  0  0  0
  1 10  1  0  0  0  0
  1 22  1  0  0  0  0
  3  2  1  0  0  0  0
  3 16  1  0  0  0  0
  4 20  1  6  0  0  0
  4 22  1  0  0  0  0
  4  5  1  0  0  0  0
  5 15  1  0  0  0  0
  5 23  2  0  0  0  0
  6 14  1  0  0  0  0
  6 19  2  0  0  0  0
  7 10  1  0  0  0  0
  8 21  1  0  0  0  0
  9  2  1  0  0  0  0
 10 11  1  0  0  0  0
 11  9  1  6  0  0  0
 11 17  1  0  0  0  0
 12 17  1  0  0  0  0
 12 18  1  1  0  0  0
 13  8  2  0  0  0  0
 14  7  2  0  0  0  0
 15 13  1  0  0  0  0
 17 16  1  6  0  0  0
 22 12  1  0  0  0  0
 23 18  1  0  0  0  0
 23  8  1  0  0  0  0
 24  6  1  0  0  0  0
 25 24  1  0  0  0  0
 26 25  1  0  0  0  0
 26 28  1  0  0  0  0
 27 26  1  0  0  0  0
 27 28  1  0  0  0  0
 28 29  1  0  0  0  0
 29 30  1  0  0  0  0
 30 31  2  0  0  0  0
 30 32  2  0  0  0  0
M  END
>  <MODEL>
3

>  <REMARK>
 VINA RESULT:      -8.3      3.739      8.493
  Name = 
  5 active torsions:
  status: ('A' for Active; 'I' for Inactive)
    1  A    between atoms: N_1  and  C_10
    2  A    between atoms: C_2  and  C_19
    3  A    between atoms: C_8  and  C_23
    4  A    between atoms: C_10  and  C_24
    5  A    between atoms: C_19  and  C_23
                            x       y       z     vdW  Elec       q    Type
                         _______ _______ _______ _____ _____    ______ ____

>  <TORSDO>
F 5

$$$$
=
 OpenBabel10272413293D

 32 37  0  0  1  0  0  0  0  0999 V2000
  188.0770  178.4560  140.9910 C   0  0  1  0  0  3  0  0  0  0  0  0
  191.5430  176.1990  143.3110 C   0  0  0  0  0  2  0  0  0  0  0  0
  190.2980  175.3880  142.9760 C   0  0  0  0  0  2  0  0  0  0  0  0
  185.7680  178.7620  141.9980 C   0  0  2  0  0  3  0  0  0  0  0  0
  184.9840  178.7540  143.2760 C   0  0  0  0  0  0  0  0  0  0  0  0
  188.3750  177.7040  138.6400 C   0  0  0  0  0  0  0  0  0  0  0  0
  190.3340  177.8300  140.0690 C   0  0  0  0  0  3  0  0  0  0  0  0
  184.5660  178.5490  145.5550 C   0  0  0  0  0  0  0  0  0  0  0  0
  191.4870  177.5840  142.6550 C   0  0  0  0  0  2  0  0  0  0  0  0
  189.4700  178.0070  141.2090 N   0  0  0  0  0  0  0  0  0  0  0  0
  190.0640  178.1770  142.5450 C   0  0  1  0  0  3  0  0  0  0  0  0
  187.7650  178.2600  143.5090 C   0  0  2  0  0  3  0  0  0  0  0  0
  183.3390  179.0830  145.1640 C   0  0  0  0  0  3  0  0  0  0  0  0
  189.8300  177.6850  138.8460 C   0  0  0  0  0  3  0  0  0  0  0  0
  183.4250  179.3330  143.4970 S   0  0  0  0  0  0  0  0  0  0  0  0
  189.0390  176.0540  143.5400 C   0  0  0  0  0  2  0  0  0  0  0  0
  189.1350  177.5950  143.6150 C   0  0  1  0  0  3  0  0  0  0  0  0
  186.8580  177.8080  144.6590 C   0  0  0  0  0  2  0  0  0  0  0  0
  187.5550  178.0050  139.6480 C   0  0  0  0  0  3  0  0  0  0  0  0
  184.9990  178.1840  140.9860 O   0  0  0  0  0  1  0  0  0  0  0  0
  184.8590  178.1960  146.9720 C   0  0  0  0  0  1  0  0  0  0  0  0
  187.1200  178.0180  142.1230 C   0  0  2  0  0  3  0  0  0  0  0  0
  185.4880  178.3870  144.5100 C   0  0  0  0  0  0  0  0  0  0  0  0
  187.8100  177.3020  137.3230 C   0  0  0  0  0  2  0  0  0  0  0  0
  187.5010  175.8170  137.3180 C   0  0  0  0  0  2  0  0  0  0  0  0
  188.3670  175.1210  136.2870 C   0  0  2  0  0  3  0  0  0  0  0  0
  188.0230  173.7570  136.2400 O   0  0  0  0  0  0  0  0  0  0  0  0
  189.1940  174.0880  136.9460 C   0  0  1  0  0  3  0  0  0  0  0  0
  190.4010  173.7670  136.0850 C   0  0  0  0  0  2  0  0  0  0  0  0
  191.6150  173.8730  136.8760 N   0  0  0  0  0  0  0  0  0  0  0  0
  191.5950  174.5650  138.0640 O   0  0  0  0  0  0  0  0  0  0  0  0
  192.6130  173.1890  136.5760 O   0  0  0  0  0  0  0  0  0  0  0  0
  1 19  1  6  0  0  0
  1 10  1  0  0  0  0
  1 22  1  0  0  0  0
  3  2  1  0  0  0  0
  3 16  1  0  0  0  0
  4 20  1  6  0  0  0
  4 22  1  0  0  0  0
  4  5  1  0  0  0  0
  5 15  1  0  0  0  0
  5 23  2  0  0  0  0
  6 14  1  0  0  0  0
  6 19  2  0  0  0  0
  7 10  1  0  0  0  0
  8 21  1  0  0  0  0
  9  2  1  0  0  0  0
 10 11  1  0  0  0  0
 11  9  1  6  0  0  0
 11 17  1  0  0  0  0
 12 17  1  0  0  0  0
 12 18  1  1  0  0  0
 13  8  2  0  0  0  0
 14  7  2  0  0  0  0
 15 13  1  0  0  0  0
 17 16  1  6  0  0  0
 22 12  1  0  0  0  0
 23 18  1  0  0  0  0
 23  8  1  0  0  0  0
 24  6  1  0  0  0  0
 25 24  1  0  0  0  0
 26 28  1  0  0  0  0
 26 25  1  0  0  0  0
 27 26  1  0  0  0  0
 27 28  1  0  0  0  0
 29 30  1  0  0  0  0
 29 28  1  0  0  0  0
 30 31  2  0  0  0  0
 32 30  2  0  0  0  0
M  END
>  <MODEL>
4

>  <REMARK>
 VINA RESULT:      -8.3      4.062      8.183
  Name = 
  5 active torsions:
  status: ('A' for Active; 'I' for Inactive)
    1  A    between atoms: N_1  and  C_10
    2  A    between atoms: C_2  and  C_19
    3  A    between atoms: C_8  and  C_23
    4  A    between atoms: C_10  and  C_24
    5  A    between atoms: C_19  and  C_23
                            x       y       z     vdW  Elec       q    Type
                         _______ _______ _______ _____ _____    ______ ____

>  <TORSDO>
F 5

$$$$
=
 OpenBabel10272413293D

 32 37  0  0  1  0  0  0  0  0999 V2000
  188.1670  178.4550  140.9340 C   0  0  1  0  0  3  0  0  0  0  0  0
  191.5900  176.2260  143.3440 C   0  0  0  0  0  2  0  0  0  0  0  0
  190.3480  175.4140  143.0030 C   0  0  0  0  0  2  0  0  0  0  0  0
  185.8440  178.7840  141.9000 C   0  0  2  0  0  3  0  0  0  0  0  0
  185.0410  178.7990  143.1660 C   0  0  0  0  0  0  0  0  0  0  0  0
  188.4990  177.6630  138.6010 C   0  0  0  0  0  0  0  0  0  0  0  0
  190.4360  177.8070  140.0580 C   0  0  0  0  0  3  0  0  0  0  0  0
  184.5870  178.6330  145.4410 C   0  0  0  0  0  0  0  0  0  0  0  0
  191.5490  177.6000  142.6640 C   0  0  0  0  0  2  0  0  0  0  0  0
  189.5560  178.0050  141.1810 N   0  0  0  0  0  0  0  0  0  0  0  0
  190.1300  178.1950  142.5230 C   0  0  1  0  0  3  0  0  0  0  0  0
  187.8160  178.3010  143.4510 C   0  0  2  0  0  3  0  0  0  0  0  0
  183.3680  179.1630  145.0230 C   0  0  0  0  0  3  0  0  0  0  0  0
  189.9510  177.6440  138.8300 C   0  0  0  0  0  3  0  0  0  0  0  0
  183.4800  179.3860  143.3540 S   0  0  0  0  0  0  0  0  0  0  0  0
  189.0830  176.0920  143.5370 C   0  0  0  0  0  2  0  0  0  0  0  0
  189.1820  177.6330  143.5880 C   0  0  1  0  0  3  0  0  0  0  0  0
  186.8900  177.8710  144.5930 C   0  0  0  0  0  2  0  0  0  0  0  0
  187.6650  177.9830  139.5910 C   0  0  0  0  0  3  0  0  0  0  0  0
  185.0890  178.1910  140.8860 O   0  0  0  0  0  1  0  0  0  0  0  0
  184.8570  178.3010  146.8680 C   0  0  0  0  0  1  0  0  0  0  0  0
  187.1920  178.0380  142.0590 C   0  0  2  0  0  3  0  0  0  0  0  0
  185.5240  178.4510  144.4140 C   0  0  0  0  0  0  0  0  0  0  0  0
  187.9530  177.2420  137.2820 C   0  0  0  0  0  2  0  0  0  0  0  0
  186.4390  177.1550  137.3470 C   0  0  0  0  0  2  0  0  0  0  0  0
  185.9480  176.1040  136.3730 C   0  0  2  0  0  3  0  0  0  0  0  0
  184.5980  176.3560  136.0650 O   0  0  0  0  0  0  0  0  0  0  0  0
  184.8520  175.3270  136.9890 C   0  0  1  0  0  3  0  0  0  0  0  0
  184.7130  173.9860  136.2930 C   0  0  0  0  0  2  0  0  0  0  0  0
  184.6800  172.9190  137.2770 N   0  0  0  0  0  0  0  0  0  0  0  0
  183.7320  171.9280  137.1740 O   0  0  0  0  0  0  0  0  0  0  0  0
  185.6120  172.8000  138.0960 O   0  0  0  0  0  0  0  0  0  0  0  0
  1 19  1  6  0  0  0
  1 10  1  0  0  0  0
  1 22  1  0  0  0  0
  3  2  1  0  0  0  0
  3 16  1  0  0  0  0
  4 20  1  6  0  0  0
  4 22  1  0  0  0  0
  4  5  1  0  0  0  0
  5 15  1  0  0  0  0
  5 23  2  0  0  0  0
  6 14  1  0  0  0  0
  6 19  2  0  0  0  0
  7 10  1  0  0  0  0
  8 21  1  0  0  0  0
  9  2  1  0  0  0  0
 10 11  1  0  0  0  0
 11  9  1  6  0  0  0
 11 17  1  0  0  0  0
 12 17  1  0  0  0  0
 12 18  1  1  0  0  0
 13  8  2  0  0  0  0
 14  7  2  0  0  0  0
 15 13  1  0  0  0  0
 17 16  1  6  0  0  0
 22 12  1  0  0  0  0
 23 18  1  0  0  0  0
 23  8  1  0  0  0  0
 24 25  1  0  0  0  0
 24  6  1  0  0  0  0
 26 28  1  0  0  0  0
 26 25  1  0  0  0  0
 27 26  1  0  0  0  0
 27 28  1  0  0  0  0
 29 28  1  0  0  0  0
 29 30  1  0  0  0  0
 30 32  2  0  0  0  0
 31 30  2  0  0  0  0
M  END
>  <MODEL>
5

>  <REMARK>
 VINA RESULT:      -8.2      4.046      8.585
  Name = 
  5 active torsions:
  status: ('A' for Active; 'I' for Inactive)
    1  A    between atoms: N_1  and  C_10
    2  A    between atoms: C_2  and  C_19
    3  A    between atoms: C_8  and  C_23
    4  A    between atoms: C_10  and  C_24
    5  A    between atoms: C_19  and  C_23
                            x       y       z     vdW  Elec       q    Type
                         _______ _______ _______ _____ _____    ______ ____

>  <TORSDO>
F 5

$$$$
=
 OpenBabel10272413293D

 32 37  0  0  1  0  0  0  0  0999 V2000
  189.5300  178.0160  139.9980 C   0  0  1  0  0  3  0  0  0  0  0  0
  191.4650  176.2030  143.9310 C   0  0  0  0  0  2  0  0  0  0  0  0
  190.4710  175.3220  143.1840 C   0  0  0  0  0  2  0  0  0  0  0  0
  187.0330  178.4110  139.7930 C   0  0  2  0  0  3  0  0  0  0  0  0
  185.7560  178.5700  140.5620 C   0  0  0  0  0  0  0  0  0  0  0  0
  190.8250  176.9360  138.1710 C   0  0  0  0  0  0  0  0  0  0  0  0
  191.9290  177.3150  140.3000 C   0  0  0  0  0  3  0  0  0  0  0  0
  184.3430  178.6890  142.4050 C   0  0  0  0  0  0  0  0  0  0  0  0
  191.7750  177.4750  143.1340 C   0  0  0  0  0  2  0  0  0  0  0  0
  190.6520  177.6360  140.8860 N   0  0  0  0  0  0  0  0  0  0  0  0
  190.5840  178.0120  142.3070 C   0  0  1  0  0  3  0  0  0  0  0  0
  188.1040  178.1810  142.1000 C   0  0  2  0  0  3  0  0  0  0  0  0
  183.4510  179.1310  141.4300 C   0  0  0  0  0  3  0  0  0  0  0  0
  192.0270  176.9820  139.0160 C   0  0  0  0  0  3  0  0  0  0  0  0
  184.2930  179.1380  139.9670 S   0  0  0  0  0  0  0  0  0  0  0  0
  189.1250  176.0330  143.0150 C   0  0  0  0  0  2  0  0  0  0  0  0
  189.2460  177.5700  142.9080 C   0  0  1  0  0  3  0  0  0  0  0  0
  186.7560  177.8800  142.7630 C   0  0  0  0  0  2  0  0  0  0  0  0
  189.6530  177.3620  138.6430 C   0  0  0  0  0  3  0  0  0  0  0  0
  186.7790  177.6730  138.6340 O   0  0  0  0  0  1  0  0  0  0  0  0
  183.9460  178.5520  143.8350 C   0  0  0  0  0  1  0  0  0  0  0  0
  188.1460  177.7240  140.6210 C   0  0  2  0  0  3  0  0  0  0  0  0
  185.6290  178.3990  141.9280 C   0  0  0  0  0  0  0  0  0  0  0  0
  190.9000  176.3350  136.8120 C   0  0  0  0  0  2  0  0  0  0  0  0
  191.1190  174.8370  136.9150 C   0  0  0  0  0  2  0  0  0  0  0  0
  192.5300  174.4970  136.4810 C   0  0  2  0  0  3  0  0  0  0  0  0
  192.6900  173.0990  136.4870 O   0  0  0  0  0  0  0  0  0  0  0  0
  193.2350  173.8000  137.5770 C   0  0  1  0  0  3  0  0  0  0  0  0
  194.7350  173.9270  137.3900 C   0  0  0  0  0  2  0  0  0  0  0  0
  195.4270  173.2440  138.4680 N   0  0  0  0  0  0  0  0  0  0  0  0
  195.9710  173.9740  139.4980 O   0  0  0  0  0  0  0  0  0  0  0  0
  195.3670  172.0020  138.5560 O   0  0  0  0  0  0  0  0  0  0  0  0
  1 19  1  6  0  0  0
  1 22  1  0  0  0  0
  1 10  1  0  0  0  0
  3  2  1  0  0  0  0
  4 20  1  6  0  0  0
  4  5  1  0  0  0  0
  4 22  1  0  0  0  0
  5 23  2  0  0  0  0
  6 19  2  0  0  0  0
  6 14  1  0  0  0  0
  7 10  1  0  0  0  0
  8 21  1  0  0  0  0
  9  2  1  0  0  0  0
 10 11  1  0  0  0  0
 11 17  1  0  0  0  0
 11  9  1  1  0  0  0
 12 18  1  1  0  0  0
 12 17  1  0  0  0  0
 13  8  2  0  0  0  0
 14  7  2  0  0  0  0
 15  5  1  0  0  0  0
 15 13  1  0  0  0  0
 16  3  1  0  0  0  0
 17 16  1  6  0  0  0
 22 12  1  0  0  0  0
 23  8  1  0  0  0  0
 23 18  1  0  0  0  0
 24 25  1  0  0  0  0
 24  6  1  0  0  0  0
 26 27  1  0  0  0  0
 26 25  1  0  0  0  0
 26 28  1  0  0  0  0
 27 28  1  0  0  0  0
 29 28  1  0  0  0  0
 29 30  1  0  0  0  0
 30 32  2  0  0  0  0
 30 31  2  0  0  0  0
M  END
>  <MODEL>
6

>  <REMARK>
 VINA RESULT:      -7.7      4.426      7.991
  Name = 
  5 active torsions:
  status: ('A' for Active; 'I' for Inactive)
    1  A    between atoms: N_1  and  C_10
    2  A    between atoms: C_2  and  C_19
    3  A    between atoms: C_8  and  C_23
    4  A    between atoms: C_10  and  C_24
    5  A    between atoms: C_19  and  C_23
                            x       y       z     vdW  Elec       q    Type
                         _______ _______ _______ _____ _____    ______ ____

>  <TORSDO>
F 5

$$$$
=
 OpenBabel10272413293D

 32 37  0  0  1  0  0  0  0  0999 V2000
  188.0500  178.3150  139.8760 C   0  0  1  0  0  3  0  0  0  0  0  0
  185.0210  176.9750  136.4820 C   0  0  0  0  0  2  0  0  0  0  0  0
  185.5910  175.8750  137.3680 C   0  0  0  0  0  2  0  0  0  0  0  0
  190.4570  177.5150  139.9160 C   0  0  2  0  0  3  0  0  0  0  0  0
  191.5580  176.9180  139.0910 C   0  0  0  0  0  0  0  0  0  0  0  0
  186.6500  178.3100  141.9300 C   0  0  0  0  0  0  0  0  0  0  0  0
  185.5780  178.7870  139.8030 C   0  0  0  0  0  3  0  0  0  0  0  0
  192.6230  176.0340  137.2220 C   0  0  0  0  0  0  0  0  0  0  0  0
  185.4270  178.3600  136.9980 C   0  0  0  0  0  2  0  0  0  0  0  0
  186.7760  178.3610  139.1240 N   0  0  0  0  0  0  0  0  0  0  0  0
  186.8260  178.4070  137.6540 C   0  0  1  0  0  3  0  0  0  0  0  0
  189.1150  177.4200  137.7440 C   0  0  2  0  0  3  0  0  0  0  0  0
  193.7350  176.1650  138.0530 C   0  0  0  0  0  3  0  0  0  0  0  0
  185.5040  178.7690  141.1320 C   0  0  0  0  0  3  0  0  0  0  0  0
  193.1810  176.8230  139.5060 S   0  0  0  0  0  0  0  0  0  0  0  0
  187.1230  175.8850  137.3400 C   0  0  0  0  0  2  0  0  0  0  0  0
  187.7290  177.2890  137.1200 C   0  0  1  0  0  3  0  0  0  0  0  0
  190.0830  176.4090  137.1200 C   0  0  0  0  0  2  0  0  0  0  0  0
  187.8170  178.0430  141.3420 C   0  0  0  0  0  3  0  0  0  0  0  0
  190.4930  176.9600  141.1970 O   0  0  0  0  0  1  0  0  0  0  0  0
  192.7290  175.4800  135.8430 C   0  0  0  0  0  1  0  0  0  0  0  0
  189.0590  177.3020  139.2870 C   0  0  2  0  0  3  0  0  0  0  0  0
  191.4180  176.4720  137.7900 C   0  0  0  0  0  0  0  0  0  0  0  0
  186.4830  178.0620  143.3870 C   0  0  0  0  0  2  0  0  0  0  0  0
  187.5380  177.0870  143.8760 C   0  0  0  0  0  2  0  0  0  0  0  0
  188.2190  177.6480  145.1080 C   0  0  2  0  0  3  0  0  0  0  0  0
  189.3390  178.4020  144.7130 O   0  0  0  0  0  0  0  0  0  0  0  0
  189.5920  177.1100  145.2070 C   0  0  1  0  0  3  0  0  0  0  0  0
  190.0840  177.2110  146.6380 C   0  0  0  0  0  2  0  0  0  0  0  0
  191.3690  176.5470  146.7680 N   0  0  0  0  0  0  0  0  0  0  0  0
  191.9830  176.0300  145.6520 O   0  0  0  0  0  0  0  0  0  0  0  0
  191.9950  176.6100  147.8450 O   0  0  0  0  0  0  0  0  0  0  0  0
  1 19  1  1  0  0  0
  2  9  1  0  0  0  0
  2  3  1  0  0  0  0
  4 20  1  1  0  0  0
  5 15  1  0  0  0  0
  5  4  1  0  0  0  0
  6 24  1  0  0  0  0
  7 14  2  0  0  0  0
  8 23  1  0  0  0  0
  8 13  2  0  0  0  0
 10  7  1  0  0  0  0
 10  1  1  0  0  0  0
 11  9  1  6  0  0  0
 11 10  1  0  0  0  0
 12 18  1  6  0  0  0
 12 22  1  0  0  0  0
 13 15  1  0  0  0  0
 14  6  1  0  0  0  0
 16  3  1  0  0  0  0
 17 16  1  1  0  0  0
 17 11  1  0  0  0  0
 17 12  1  0  0  0  0
 18 23  1  0  0  0  0
 19  6  2  0  0  0  0
 21  8  1  0  0  0  0
 22  1  1  0  0  0  0
 22  4  1  0  0  0  0
 23  5  2  0  0  0  0
 24 25  1  0  0  0  0
 25 26  1  0  0  0  0
 26 28  1  0  0  0  0
 27 26  1  0  0  0  0
 27 28  1  0  0  0  0
 28 29  1  0  0  0  0
 29 30  1  0  0  0  0
 30 32  2  0  0  0  0
 31 30  2  0  0  0  0
M  END
>  <MODEL>
7

>  <REMARK>
 VINA RESULT:      -7.6      2.237      3.627
  Name = 
  5 active torsions:
  status: ('A' for Active; 'I' for Inactive)
    1  A    between atoms: N_1  and  C_10
    2  A    between atoms: C_2  and  C_19
    3  A    between atoms: C_8  and  C_23
    4  A    between atoms: C_10  and  C_24
    5  A    between atoms: C_19  and  C_23
                            x       y       z     vdW  Elec       q    Type
                         _______ _______ _______ _____ _____    ______ ____

>  <TORSDO>
F 5

$$$$
=
 OpenBabel10272413293D

 32 37  0  0  1  0  0  0  0  0999 V2000
  189.5720  178.0050  140.0760 C   0  0  1  0  0  3  0  0  0  0  0  0
  191.4690  176.2730  144.0630 C   0  0  0  0  0  2  0  0  0  0  0  0
  190.4750  175.3820  143.3310 C   0  0  0  0  0  2  0  0  0  0  0  0
  187.0790  178.4110  139.8450 C   0  0  2  0  0  3  0  0  0  0  0  0
  185.7980  178.5970  140.6010 C   0  0  0  0  0  0  0  0  0  0  0  0
  190.8730  176.8760  138.2840 C   0  0  0  0  0  0  0  0  0  0  0  0
  191.9650  177.2970  140.4120 C   0  0  0  0  0  3  0  0  0  0  0  0
  184.3730  178.7680  142.4320 C   0  0  0  0  0  0  0  0  0  0  0  0
  191.7930  177.5250  143.2390 C   0  0  0  0  0  2  0  0  0  0  0  0
  190.6860  177.6390  140.9810 N   0  0  0  0  0  0  0  0  0  0  0  0
  190.6110  178.0500  142.3920 C   0  0  1  0  0  3  0  0  0  0  0  0
  188.1330  178.2290  142.1640 C   0  0  2  0  0  3  0  0  0  0  0  0
  183.4910  179.1920  141.4400 C   0  0  0  0  0  3  0  0  0  0  0  0
  192.0690  176.9340  139.1360 C   0  0  0  0  0  3  0  0  0  0  0  0
  184.3430  179.1600  139.9830 S   0  0  0  0  0  0  0  0  0  0  0  0
  189.1340  176.0970  143.1360 C   0  0  0  0  0  2  0  0  0  0  0  0
  189.2650  177.6300  142.9940 C   0  0  1  0  0  3  0  0  0  0  0  0
  186.7780  177.9520  142.8240 C   0  0  0  0  0  2  0  0  0  0  0  0
  189.7000  177.3190  138.7380 C   0  0  0  0  0  3  0  0  0  0  0  0
  186.8280  177.6480  138.7020 O   0  0  0  0  0  1  0  0  0  0  0  0
  183.9660  178.6670  143.8610 C   0  0  0  0  0  1  0  0  0  0  0  0
  188.1820  177.7380  140.6960 C   0  0  2  0  0  3  0  0  0  0  0  0
  185.6610  178.4580  141.9700 C   0  0  0  0  0  0  0  0  0  0  0  0
  190.9530  176.2420  136.9400 C   0  0  0  0  0  2  0  0  0  0  0  0
  189.5600  175.9240  136.4290 C   0  0  0  0  0  2  0  0  0  0  0  0
  189.3280  174.4270  136.4810 C   0  0  2  0  0  3  0  0  0  0  0  0
  188.7010  174.0150  135.2910 O   0  0  0  0  0  0  0  0  0  0  0  0
  187.8780  174.1460  136.4240 C   0  0  1  0  0  3  0  0  0  0  0  0
  187.5960  172.7690  136.9960 C   0  0  0  0  0  2  0  0  0  0  0  0
  186.1650  172.5230  137.0100 N   0  0  0  0  0  0  0  0  0  0  0  0
  185.3980  173.0230  138.0360 O   0  0  0  0  0  0  0  0  0  0  0  0
  185.6100  172.0260  136.0090 O   0  0  0  0  0  0  0  0  0  0  0  0
  1 19  1  6  0  0  0
  1 22  1  0  0  0  0
  1 10  1  0  0  0  0
  3  2  1  0  0  0  0
  4 20  1  6  0  0  0
  4  5  1  0  0  0  0
  4 22  1  0  0  0  0
  5 23  2  0  0  0  0
  6 19  2  0  0  0  0
  6 14  1  0  0  0  0
  7 10  1  0  0  0  0
  8 21  1  0  0  0  0
  9  2  1  0  0  0  0
 10 11  1  0  0  0  0
 11 17  1  0  0  0  0
 11  9  1  1  0  0  0
 12 18  1  1  0  0  0
 12 17  1  0  0  0  0
 13  8  2  0  0  0  0
 14  7  2  0  0  0  0
 15  5  1  0  0  0  0
 15 13  1  0  0  0  0
 16  3  1  0  0  0  0
 17 16  1  6  0  0  0
 22 12  1  0  0  0  0
 23  8  1  0  0  0  0
 23 18  1  0  0  0  0
 24  6  1  0  0  0  0
 25 26  1  0  0  0  0
 25 24  1  0  0  0  0
 27 28  1  0  0  0  0
 27 26  1  0  0  0  0
 28 26  1  0  0  0  0
 28 29  1  0  0  0  0
 29 30  1  0  0  0  0
 30 31  2  0  0  0  0
 32 30  2  0  0  0  0
M  END
>  <MODEL>
8

>  <REMARK>
 VINA RESULT:      -7.4      3.965      8.343
  Name = 
  5 active torsions:
  status: ('A' for Active; 'I' for Inactive)
    1  A    between atoms: N_1  and  C_10
    2  A    between atoms: C_2  and  C_19
    3  A    between atoms: C_8  and  C_23
    4  A    between atoms: C_10  and  C_24
    5  A    between atoms: C_19  and  C_23
                            x       y       z     vdW  Elec       q    Type
                         _______ _______ _______ _____ _____    ______ ____

>  <TORSDO>
F 5

$$$$
=
 OpenBabel10272413293D

 32 37  0  0  1  0  0  0  0  0999 V2000
  187.1570  177.4190  143.0050 C   0  0  1  0  0  3  0  0  0  0  0  0
  191.6070  177.6520  144.6300 C   0  0  0  0  0  2  0  0  0  0  0  0
  191.0010  178.9430  144.0960 C   0  0  0  0  0  2  0  0  0  0  0  0
  186.5870  177.9210  140.5850 C   0  0  2  0  0  3  0  0  0  0  0  0
  187.1460  178.0390  139.1990 C   0  0  0  0  0  0  0  0  0  0  0  0
  185.8140  178.3570  144.8740 C   0  0  0  0  0  0  0  0  0  0  0  0
  187.8870  177.2110  145.4060 C   0  0  0  0  0  3  0  0  0  0  0  0
  188.7350  178.0210  137.5000 C   0  0  0  0  0  0  0  0  0  0  0  0
  190.5550  176.5390  144.6930 C   0  0  0  0  0  2  0  0  0  0  0  0
  188.2300  177.2180  144.0060 N   0  0  0  0  0  0  0  0  0  0  0  0
  189.4950  176.6050  143.5690 C   0  0  1  0  0  3  0  0  0  0  0  0
  188.9810  177.3100  141.2330 C   0  0  2  0  0  3  0  0  0  0  0  0
  187.5870  178.1060  136.7130 C   0  0  0  0  0  3  0  0  0  0  0  0
  186.7460  177.7460  145.8320 C   0  0  0  0  0  3  0  0  0  0  0  0
  186.2710  178.1190  137.7690 S   0  0  0  0  0  0  0  0  0  0  0  0
  190.5120  178.7660  142.6550 C   0  0  0  0  0  2  0  0  0  0  0  0
  190.0370  177.3320  142.3340 C   0  0  1  0  0  3  0  0  0  0  0  0
  189.5460  177.8980  139.9350 C   0  0  0  0  0  2  0  0  0  0  0  0
  186.0320  178.2560  143.5630 C   0  0  0  0  0  3  0  0  0  0  0  0
  185.6300  178.9200  140.7780 O   0  0  0  0  0  1  0  0  0  0  0  0
  190.1000  177.9870  136.9050 C   0  0  0  0  0  1  0  0  0  0  0  0
  187.6780  178.0170  141.6790 C   0  0  2  0  0  3  0  0  0  0  0  0
  188.4890  177.9610  138.8790 C   0  0  0  0  0  0  0  0  0  0  0  0
  184.6660  179.1630  145.3720 C   0  0  0  0  0  2  0  0  0  0  0  0
  184.0250  179.9230  144.2260 C   0  0  0  0  0  2  0  0  0  0  0  0
  182.5640  179.5380  144.1130 C   0  0  2  0  0  3  0  0  0  0  0  0
  182.4570  178.1350  144.0980 O   0  0  0  0  0  0  0  0  0  0  0  0
  182.3420  178.7890  142.8580 C   0  0  1  0  0  3  0  0  0  0  0  0
  180.8780  178.8610  142.4660 C   0  0  0  0  0  2  0  0  0  0  0  0
  180.7590  179.1520  141.0490 N   0  0  0  0  0  0  0  0  0  0  0  0
  180.2220  180.3510  140.6430 O   0  0  0  0  0  0  0  0  0  0  0  0
  181.3070  178.4060  140.2130 O   0  0  0  0  0  0  0  0  0  0  0  0
  1 19  1  1  0  0  0
  1 10  1  0  0  0  0
  2  9  1  0  0  0  0
  3  2  1  0  0  0  0
  4 20  1  1  0  0  0
  4 22  1  0  0  0  0
  5  4  1  0  0  0  0
  6 24  1  0  0  0  0
  6 14  1  0  0  0  0
  7 14  2  0  0  0  0
  8 23  1  0  0  0  0
 10  7  1  0  0  0  0
 11 10  1  0  0  0  0
 11  9  1  1  0  0  0
 12 18  1  6  0  0  0
 12 22  1  0  0  0  0
 12 17  1  0  0  0  0
 13  8  2  0  0  0  0
 13 15  1  0  0  0  0
 15  5  1  0  0  0  0
 16  3  1  0  0  0  0
 17 16  1  1  0  0  0
 17 11  1  0  0  0  0
 19  6  2  0  0  0  0
 21  8  1  0  0  0  0
 22  1  1  0  0  0  0
 23  5  2  0  0  0  0
 23 18  1  0  0  0  0
 25 24  1  0  0  0  0
 26 25  1  0  0  0  0
 27 26  1  0  0  0  0
 28 27  1  0  0  0  0
 28 26  1  0  0  0  0
 29 28  1  0  0  0  0
 30 29  1  0  0  0  0
 31 30  2  0  0  0  0
 32 30  2  0  0  0  0
M  END
>  <MODEL>
9

>  <REMARK>
 VINA RESULT:      -7.4      3.336      6.880
  Name = 
  5 active torsions:
  status: ('A' for Active; 'I' for Inactive)
    1  A    between atoms: N_1  and  C_10
    2  A    between atoms: C_2  and  C_19
    3  A    between atoms: C_8  and  C_23
    4  A    between atoms: C_10  and  C_24
    5  A    between atoms: C_19  and  C_23
                            x       y       z     vdW  Elec       q    Type
                         _______ _______ _______ _____ _____    ______ ____

>  <TORSDO>
F 5

$$$$
