=
 OpenBabel10272414193D

 43 49  0  0  1  0  0  0  0  0999 V2000
  188.0080  177.4480  146.8770 C   0  0  0  0  0  0  0  0  0  0  0  0
  186.1040  178.4920  142.3010 C   0  0  0  0  0  0  0  0  0  0  0  0
  188.2370  178.1920  140.5290 C   0  0  0  0  0  0  0  0  0  0  0  0
  186.5360  178.0420  145.0400 C   0  0  0  0  0  0  0  0  0  0  0  0
  189.0650  177.2830  145.9800 C   0  0  0  0  0  3  0  0  0  0  0  0
  188.2260  177.2270  148.3330 C   0  0  0  0  0  1  0  0  0  0  0  0
  187.6040  177.8770  144.1280 C   0  0  0  0  0  0  0  0  0  0  0  0
  186.7460  177.8260  146.4070 C   0  0  0  0  0  3  0  0  0  0  0  0
  188.8660  177.4960  144.6110 C   0  0  0  0  0  3  0  0  0  0  0  0
  188.4060  177.9590  141.8600 N   0  0  0  0  0  0  0  0  0  0  0  0
  187.3870  178.1070  142.7550 C   0  0  0  0  0  0  0  0  0  0  0  0
  185.0560  178.6440  143.2220 C   0  0  0  0  0  3  0  0  0  0  0  0
  185.9070  178.7020  140.9250 C   0  0  0  0  0  0  0  0  0  0  0  0
  186.9800  178.5540  140.0430 C   0  0  0  0  0  3  0  0  0  0  0  0
  185.2730  178.4230  144.5820 C   0  0  0  0  0  3  0  0  0  0  0  0
  189.3580  177.9660  139.5620 C   0  0  1  0  0  3  0  0  0  0  0  0
  189.5630  176.4850  139.2680 C   0  0  0  0  0  2  0  0  0  0  0  0
  189.0230  178.5980  138.2320 C   0  0  0  0  0  2  0  0  0  0  0  0
  189.1860  176.2480  137.8820 N   0  0  0  0  0  0  0  0  0  0  0  0
  189.3610  177.5340  137.2190 C   0  0  0  0  0  2  0  0  0  0  0  0
  190.1490  175.3100  137.3220 C   0  0  0  0  0  2  0  0  0  0  0  0
  191.2650  176.0610  136.5890 C   0  0  2  0  0  3  0  0  0  0  0  0
  193.5320  176.0060  135.9540 O   0  0  0  0  0  0  0  0  0  0  0  0
  191.2960  175.7570  135.1290 C   0  0  0  0  0  2  0  0  0  0  0  0
  192.6790  175.7440  137.0430 C   0  0  1  0  0  0  0  0  0  0  0  0
  193.0360  176.6740  138.1930 C   0  0  0  0  0  1  0  0  0  0  0  0
  192.7530  175.9330  134.7790 C   0  0  0  0  0  2  0  0  0  0  0  0
  192.8390  174.2750  137.4780 C   0  0  0  0  0  2  0  0  0  0  0  0
  194.2240  173.7160  137.1700 C   0  0  0  0  0  3  0  0  0  0  0  0
  196.4240  173.0090  138.1330 C   0  0  0  0  0  2  0  0  0  0  0  0
  195.4680  171.7960  136.1600 C   0  0  0  0  0  2  0  0  0  0  0  0
  196.2980  171.6570  137.4330 C   0  0  0  0  0  2  0  0  0  0  0  0
  194.0840  172.3540  136.4950 C   0  0  0  0  0  2  0  0  0  0  0  0
  195.0380  173.5720  138.4540 C   0  0  0  0  0  2  0  0  0  0  0  0
  184.5690  179.0720  140.3690 C   0  0  0  0  0  2  0  0  0  0  0  0
  181.6200  177.7360  140.2770 C   0  0  0  0  0  2  0  0  0  0  0  0
  181.1540  177.6420  138.8150 C   0  0  1  0  0  3  0  0  0  0  0  0
  183.4320  178.5700  138.3760 C   0  0  0  0  0  2  0  0  0  0  0  0
  183.0680  177.2520  140.4390 C   0  0  0  0  0  2  0  0  0  0  0  0
  184.0300  177.9750  139.5820 N   0  0  0  0  0  0  0  0  0  0  0  0
  182.3070  177.7060  137.8090 C   0  0  0  0  0  2  0  0  0  0  0  0
  181.0330  175.2110  138.0910 C   0  0  0  0  0  1  0  0  0  0  0  0
  180.2500  176.4330  138.5650 C   0  0  0  0  0  2  0  0  0  0  0  0
  1  6  1  0  0  0  0
  2 11  1  0  0  0  0
  2 12  1  0  0  0  0
  3 10  1  0  0  0  0
  4  8  2  0  0  0  0
  5  1  2  0  0  0  0
  7  9  2  0  0  0  0
  7  4  1  0  0  0  0
  8  1  1  0  0  0  0
  9  5  1  0  0  0  0
 10 11  2  0  0  0  0
 11  7  1  0  0  0  0
 12 15  2  0  0  0  0
 13  2  2  0  0  0  0
 14  3  2  0  0  0  0
 14 13  1  0  0  0  0
 15  4  1  0  0  0  0
 16  3  1  1  0  0  0
 17 16  1  0  0  0  0
 18 16  1  0  0  0  0
 19 17  1  0  0  0  0
 20 19  1  0  0  0  0
 20 18  1  0  0  0  0
 21 19  1  0  0  0  0
 22 25  1  0  0  0  0
 22 21  1  1  0  0  0
 23 25  1  0  0  0  0
 24 22  1  0  0  0  0
 25 28  1  0  0  0  0
 25 26  1  1  0  0  0
 27 24  1  0  0  0  0
 27 23  1  0  0  0  0
 29 28  1  0  0  0  0
 29 34  1  0  0  0  0
 30 34  1  0  0  0  0
 31 33  1  0  0  0  0
 31 32  1  0  0  0  0
 32 30  1  0  0  0  0
 33 29  1  0  0  0  0
 35 13  1  0  0  0  0
 36 39  1  0  0  0  0
 37 43  1  1  0  0  0
 37 36  1  0  0  0  0
 38 40  1  0  0  0  0
 40 35  1  0  0  0  0
 40 39  1  0  0  0  0
 41 38  1  0  0  0  0
 41 37  1  0  0  0  0
 42 43  1  0  0  0  0
M  END
>  <MODEL>
1

>  <REMARK>
 VINA RESULT:      -9.5      0.000      0.000
  Name = 
  8 active torsions:
  status: ('A' for Active; 'I' for Inactive)
    1  A    between atoms: C_1  and  C_34
    2  A    between atoms: C_1  and  N_35
    3  A    between atoms: C_2  and  C_13
    4  A    between atoms: C_3  and  C_4
    5  A    between atoms: C_3  and  N_12
    6  A    between atoms: C_11  and  C_14
    7  A    between atoms: C_14  and  C_22
    8  A    between atoms: C_19  and  C_37
                            x       y       z     vdW  Elec       q    Type
                         _______ _______ _______ _____ _____    ______ ____

>  <TORSDO>
F 8

$$$$
=
 OpenBabel10272414193D

 43 49  0  0  1  0  0  0  0  0999 V2000
  190.9970  176.6850  146.3530 C   0  0  0  0  0  0  0  0  0  0  0  0
  189.6060  177.6360  141.5770 C   0  0  0  0  0  0  0  0  0  0  0  0
  187.0130  178.6500  141.7520 C   0  0  0  0  0  0  0  0  0  0  0  0
  190.9440  176.9070  143.9370 C   0  0  0  0  0  0  0  0  0  0  0  0
  189.7060  177.2100  146.4330 C   0  0  0  0  0  3  0  0  0  0  0  0
  191.7130  176.2810  147.5940 C   0  0  0  0  0  1  0  0  0  0  0  0
  189.6360  177.4380  144.0110 C   0  0  0  0  0  0  0  0  0  0  0  0
  191.6140  176.5340  145.1070 C   0  0  0  0  0  3  0  0  0  0  0  0
  189.0270  177.5860  145.2680 C   0  0  0  0  0  3  0  0  0  0  0  0
  187.6990  178.3090  142.8780 N   0  0  0  0  0  0  0  0  0  0  0  0
  188.9640  177.8000  142.8270 C   0  0  0  0  0  0  0  0  0  0  0  0
  190.9060  177.1130  141.5240 C   0  0  0  0  0  3  0  0  0  0  0  0
  188.9210  178.0170  140.4090 C   0  0  0  0  0  0  0  0  0  0  0  0
  187.6210  178.5200  140.5030 C   0  0  0  0  0  3  0  0  0  0  0  0
  191.5690  176.7480  142.6970 C   0  0  0  0  0  3  0  0  0  0  0  0
  185.6480  179.2600  141.8420 C   0  0  1  0  0  3  0  0  0  0  0  0
  184.8520  179.0610  140.5580 C   0  0  0  0  0  2  0  0  0  0  0  0
  184.8500  178.5720  142.9230 C   0  0  0  0  0  2  0  0  0  0  0  0
  183.7530  178.1510  140.8510 N   0  0  0  0  0  0  0  0  0  0  0  0
  183.5120  178.2990  142.2810 C   0  0  0  0  0  2  0  0  0  0  0  0
  182.5810  178.6390  140.1380 C   0  0  0  0  0  2  0  0  0  0  0  0
  181.7260  177.4660  139.6480 C   0  0  2  0  0  3  0  0  0  0  0  0
  181.2140  176.0900  137.8060 O   0  0  0  0  0  0  0  0  0  0  0  0
  182.3670  176.1440  139.9070 C   0  0  0  0  0  2  0  0  0  0  0  0
  181.4470  177.4340  138.1550 C   0  0  1  0  0  0  0  0  0  0  0  0
  180.1920  178.2470  137.8810 C   0  0  0  0  0  1  0  0  0  0  0  0
  181.8300  175.2840  138.7880 C   0  0  0  0  0  2  0  0  0  0  0  0
  182.6260  177.9810  137.3280 C   0  0  0  0  0  2  0  0  0  0  0  0
  183.3780  176.8870  136.5770 C   0  0  0  0  0  3  0  0  0  0  0  0
  184.2090  176.1130  134.3470 C   0  0  0  0  0  2  0  0  0  0  0  0
  185.5440  175.6480  136.4150 C   0  0  0  0  0  2  0  0  0  0  0  0
  185.6150  175.9580  134.9220 C   0  0  0  0  0  2  0  0  0  0  0  0
  184.7890  176.7600  137.1450 C   0  0  0  0  0  2  0  0  0  0  0  0
  183.4510  177.2160  135.0880 C   0  0  0  0  0  2  0  0  0  0  0  0
  189.5500  177.9100  139.0570 C   0  0  0  0  0  2  0  0  0  0  0  0
  189.4260  177.3160  135.8750 C   0  0  0  0  0  2  0  0  0  0  0  0
  189.8460  175.8600  135.6170 C   0  0  1  0  0  3  0  0  0  0  0  0
  189.9650  175.8000  138.1130 C   0  0  0  0  0  2  0  0  0  0  0  0
  188.4300  177.4180  137.0390 C   0  0  0  0  0  2  0  0  0  0  0  0
  188.9340  176.8340  138.2990 N   0  0  0  0  0  0  0  0  0  0  0  0
  189.7200  174.9670  136.8550 C   0  0  0  0  0  2  0  0  0  0  0  0
  188.6170  173.8440  134.6830 C   0  0  0  0  0  1  0  0  0  0  0  0
  189.1360  175.2520  134.4060 C   0  0  0  0  0  2  0  0  0  0  0  0
  1  5  1  0  0  0  0
  1  6  1  0  0  0  0
  2 11  1  0  0  0  0
  3 10  1  0  0  0  0
  4  7  2  0  0  0  0
  4  8  1  0  0  0  0
  7  9  1  0  0  0  0
  8  1  2  0  0  0  0
  9  5  2  0  0  0  0
 11 10  2  0  0  0  0
 11  7  1  0  0  0  0
 12  2  1  0  0  0  0
 12 15  2  0  0  0  0
 13 14  1  0  0  0  0
 13  2  2  0  0  0  0
 14  3  2  0  0  0  0
 15  4  1  0  0  0  0
 16  3  1  6  0  0  0
 16 18  1  0  0  0  0
 17 19  1  0  0  0  0
 17 16  1  0  0  0  0
 19 20  1  0  0  0  0
 20 18  1  0  0  0  0
 21 19  1  0  0  0  0
 22 24  1  0  0  0  0
 22 21  1  6  0  0  0
 23 25  1  0  0  0  0
 23 27  1  0  0  0  0
 25 26  1  6  0  0  0
 25 22  1  0  0  0  0
 27 24  1  0  0  0  0
 28 25  1  0  0  0  0
 29 33  1  0  0  0  0
 29 28  1  0  0  0  0
 30 32  1  0  0  0  0
 30 34  1  0  0  0  0
 31 33  1  0  0  0  0
 32 31  1  0  0  0  0
 34 29  1  0  0  0  0
 35 13  1  0  0  0  0
 36 39  1  0  0  0  0
 37 43  1  6  0  0  0
 37 36  1  0  0  0  0
 37 41  1  0  0  0  0
 38 40  1  0  0  0  0
 39 40  1  0  0  0  0
 40 35  1  0  0  0  0
 41 38  1  0  0  0  0
 43 42  1  0  0  0  0
M  END
>  <MODEL>
2

>  <REMARK>
 VINA RESULT:      -9.3      3.335      7.985
  Name = 
  8 active torsions:
  status: ('A' for Active; 'I' for Inactive)
    1  A    between atoms: C_1  and  C_34
    2  A    between atoms: C_1  and  N_35
    3  A    between atoms: C_2  and  C_13
    4  A    between atoms: C_3  and  C_4
    5  A    between atoms: C_3  and  N_12
    6  A    between atoms: C_11  and  C_14
    7  A    between atoms: C_14  and  C_22
    8  A    between atoms: C_19  and  C_37
                            x       y       z     vdW  Elec       q    Type
                         _______ _______ _______ _____ _____    ______ ____

>  <TORSDO>
F 8

$$$$
=
 OpenBabel10272414193D

 43 49  0  0  1  0  0  0  0  0999 V2000
  190.3930  176.9140  146.2170 C   0  0  0  0  0  0  0  0  0  0  0  0
  186.9070  178.0940  142.7390 C   0  0  0  0  0  0  0  0  0  0  0  0
  188.2840  178.1800  140.3140 C   0  0  0  0  0  0  0  0  0  0  0  0
  188.3220  177.4800  145.0860 C   0  0  0  0  0  0  0  0  0  0  0  0
  191.0710  176.9410  144.9970 C   0  0  0  0  0  3  0  0  0  0  0  0
  191.1330  176.6040  147.4720 C   0  0  0  0  0  1  0  0  0  0  0  0
  189.0030  177.5110  143.8480 C   0  0  0  0  0  0  0  0  0  0  0  0
  189.0210  177.1820  146.2610 C   0  0  0  0  0  3  0  0  0  0  0  0
  190.3800  177.2380  143.8160 C   0  0  0  0  0  3  0  0  0  0  0  0
  188.9340  177.8620  141.4680 N   0  0  0  0  0  0  0  0  0  0  0  0
  188.2940  177.8220  142.6720 C   0  0  0  0  0  0  0  0  0  0  0  0
  186.2470  178.0520  143.9760 C   0  0  0  0  0  3  0  0  0  0  0  0
  186.2160  178.3880  141.5490 C   0  0  0  0  0  0  0  0  0  0  0  0
  186.9120  178.4340  140.3390 C   0  0  0  0  0  3  0  0  0  0  0  0
  186.9520  177.7500  145.1420 C   0  0  0  0  0  3  0  0  0  0  0  0
  189.0000  178.1590  138.9990 C   0  0  1  0  0  3  0  0  0  0  0  0
  190.4390  177.6770  139.1440 C   0  0  0  0  0  2  0  0  0  0  0  0
  188.3360  177.1720  138.0700 C   0  0  0  0  0  2  0  0  0  0  0  0
  190.5450  176.3830  138.4840 N   0  0  0  0  0  0  0  0  0  0  0  0
  189.4800  176.3790  137.4880 C   0  0  0  0  0  2  0  0  0  0  0  0
  191.8230  176.3530  137.7870 C   0  0  0  0  0  2  0  0  0  0  0  0
  191.8330  175.2380  136.7360 C   0  0  2  0  0  3  0  0  0  0  0  0
  193.1700  174.0300  135.2200 O   0  0  0  0  0  0  0  0  0  0  0  0
  192.0520  173.8900  137.3350 C   0  0  0  0  0  2  0  0  0  0  0  0
  192.9250  175.3360  135.6850 C   0  0  1  0  0  0  0  0  0  0  0  0
  192.4120  176.1880  134.5340 C   0  0  0  0  0  1  0  0  0  0  0  0
  192.7410  173.1350  136.2240 C   0  0  0  0  0  2  0  0  0  0  0  0
  194.2280  175.9330  136.2480 C   0  0  0  0  0  2  0  0  0  0  0  0
  195.4770  175.3260  135.6170 C   0  0  0  0  0  3  0  0  0  0  0  0
  197.5810  175.7960  134.3460 C   0  0  0  0  0  2  0  0  0  0  0  0
  197.5300  173.9680  136.0600 C   0  0  0  0  0  2  0  0  0  0  0  0
  198.3890  175.0450  135.4030 C   0  0  0  0  0  2  0  0  0  0  0  0
  196.2870  174.6010  136.6880 C   0  0  0  0  0  2  0  0  0  0  0  0
  196.3330  176.4160  134.9740 C   0  0  0  0  0  2  0  0  0  0  0  0
  184.7440  178.6470  141.5380 C   0  0  0  0  0  2  0  0  0  0  0  0
  181.6950  178.0910  140.5930 C   0  0  0  0  0  2  0  0  0  0  0  0
  181.3950  178.9280  139.3400 C   0  0  1  0  0  3  0  0  0  0  0  0
  183.7970  179.5670  139.5960 C   0  0  0  0  0  2  0  0  0  0  0  0
  183.0530  177.3810  140.4860 C   0  0  0  0  0  2  0  0  0  0  0  0
  184.1810  178.3020  140.2430 N   0  0  0  0  0  0  0  0  0  0  0  0
  182.6570  179.3770  138.5970 C   0  0  0  0  0  2  0  0  0  0  0  0
  181.0460  177.7910  137.0970 C   0  0  0  0  0  1  0  0  0  0  0  0
  180.3990  178.2430  138.4030 C   0  0  0  0  0  2  0  0  0  0  0  0
  1  8  1  0  0  0  0
  1  6  1  0  0  0  0
  2 12  1  0  0  0  0
  3 14  2  0  0  0  0
  3 10  1  0  0  0  0
  4 15  1  0  0  0  0
  4  8  2  0  0  0  0
  5  1  2  0  0  0  0
  7  4  1  0  0  0  0
  9  7  2  0  0  0  0
  9  5  1  0  0  0  0
 10 11  2  0  0  0  0
 11  2  1  0  0  0  0
 11  7  1  0  0  0  0
 12 15  2  0  0  0  0
 13  2  2  0  0  0  0
 14 13  1  0  0  0  0
 16 17  1  0  0  0  0
 16  3  1  1  0  0  0
 18 16  1  0  0  0  0
 19 17  1  0  0  0  0
 20 18  1  0  0  0  0
 20 19  1  0  0  0  0
 21 19  1  0  0  0  0
 22 24  1  0  0  0  0
 22 21  1  1  0  0  0
 23 25  1  0  0  0  0
 23 27  1  0  0  0  0
 25 26  1  6  0  0  0
 25 28  1  0  0  0  0
 25 22  1  0  0  0  0
 27 24  1  0  0  0  0
 29 28  1  0  0  0  0
 29 33  1  0  0  0  0
 30 34  1  0  0  0  0
 30 32  1  0  0  0  0
 31 33  1  0  0  0  0
 32 31  1  0  0  0  0
 34 29  1  0  0  0  0
 35 13  1  0  0  0  0
 37 43  1  6  0  0  0
 37 36  1  0  0  0  0
 38 40  1  0  0  0  0
 39 36  1  0  0  0  0
 40 39  1  0  0  0  0
 40 35  1  0  0  0  0
 41 37  1  0  0  0  0
 41 38  1  0  0  0  0
 42 43  1  0  0  0  0
M  END
>  <MODEL>
3

>  <REMARK>
 VINA RESULT:      -8.8      1.702      2.243
  Name = 
  8 active torsions:
  status: ('A' for Active; 'I' for Inactive)
    1  A    between atoms: C_1  and  C_34
    2  A    between atoms: C_1  and  N_35
    3  A    between atoms: C_2  and  C_13
    4  A    between atoms: C_3  and  C_4
    5  A    between atoms: C_3  and  N_12
    6  A    between atoms: C_11  and  C_14
    7  A    between atoms: C_14  and  C_22
    8  A    between atoms: C_19  and  C_37
                            x       y       z     vdW  Elec       q    Type
                         _______ _______ _______ _____ _____    ______ ____

>  <TORSDO>
F 8

$$$$
=
 OpenBabel10272414193D

 43 49  0  0  1  0  0  0  0  0999 V2000
  188.0200  177.4330  146.8910 C   0  0  0  0  0  0  0  0  0  0  0  0
  188.5580  177.9440  141.8810 C   0  0  0  0  0  0  0  0  0  0  0  0
  185.9970  178.4820  140.9160 C   0  0  0  0  0  0  0  0  0  0  0  0
  188.9180  177.5530  144.6390 C   0  0  0  0  0  0  0  0  0  0  0  0
  186.7450  177.7200  146.4010 C   0  0  0  0  0  3  0  0  0  0  0  0
  188.2240  177.2090  148.3490 C   0  0  0  0  0  1  0  0  0  0  0  0
  187.6290  177.8430  144.1370 C   0  0  0  0  0  0  0  0  0  0  0  0
  189.1040  177.3500  146.0120 C   0  0  0  0  0  3  0  0  0  0  0  0
  186.5480  177.9250  145.0300 C   0  0  0  0  0  3  0  0  0  0  0  0
  186.2110  178.3110  142.2490 N   0  0  0  0  0  0  0  0  0  0  0  0
  187.4480  178.0360  142.7540 C   0  0  0  0  0  0  0  0  0  0  0  0
  189.8310  177.6610  142.3990 C   0  0  0  0  0  3  0  0  0  0  0  0
  188.3570  178.1540  140.5050 C   0  0  0  0  0  0  0  0  0  0  0  0
  187.0710  178.4190  140.0270 C   0  0  0  0  0  3  0  0  0  0  0  0
  190.0080  177.4640  143.7690 C   0  0  0  0  0  3  0  0  0  0  0  0
  184.6380  178.8410  140.3970 C   0  0  1  0  0  3  0  0  0  0  0  0
  184.4790  178.4790  138.9250 C   0  0  0  0  0  2  0  0  0  0  0  0
  183.5850  178.0400  141.1250 C   0  0  0  0  0  2  0  0  0  0  0  0
  183.5130  177.3940  138.8340 N   0  0  0  0  0  0  0  0  0  0  0  0
  182.6880  177.5210  140.0290 C   0  0  0  0  0  2  0  0  0  0  0  0
  182.6760  177.6520  137.6710 C   0  0  0  0  0  2  0  0  0  0  0  0
  182.1870  176.3340  137.0600 C   0  0  2  0  0  3  0  0  0  0  0  0
  182.8540  174.3100  136.0560 O   0  0  0  0  0  0  0  0  0  0  0  0
  182.0010  175.2640  138.0830 C   0  0  0  0  0  2  0  0  0  0  0  0
  183.1210  175.6930  136.0480 C   0  0  1  0  0  0  0  0  0  0  0  0
  182.8020  176.2560  134.6720 C   0  0  0  0  0  1  0  0  0  0  0  0
  182.2620  174.0000  137.3000 C   0  0  0  0  0  2  0  0  0  0  0  0
  184.6050  175.9290  136.3890 C   0  0  0  0  0  2  0  0  0  0  0  0
  185.4860  174.7300  136.0540 C   0  0  0  0  0  3  0  0  0  0  0  0
  187.5750  173.9630  134.9090 C   0  0  0  0  0  2  0  0  0  0  0  0
  186.8160  172.8460  137.0200 C   0  0  0  0  0  2  0  0  0  0  0  0
  188.0270  173.2710  136.1930 C   0  0  0  0  0  2  0  0  0  0  0  0
  185.9510  174.0640  137.3460 C   0  0  0  0  0  2  0  0  0  0  0  0
  186.6990  175.1730  135.2380 C   0  0  0  0  0  2  0  0  0  0  0  0
  189.4880  178.1120  139.5290 C   0  0  0  0  0  2  0  0  0  0  0  0
  190.0880  176.8770  136.5950 C   0  0  0  0  0  2  0  0  0  0  0  0
  191.3170  175.9560  136.6770 C   0  0  1  0  0  3  0  0  0  0  0  0
  191.1760  176.5360  139.1040 C   0  0  0  0  0  2  0  0  0  0  0  0
  189.1070  176.6130  137.7460 C   0  0  0  0  0  2  0  0  0  0  0  0
  189.7200  176.7480  139.0840 N   0  0  0  0  0  0  0  0  0  0  0  0
  191.6130  175.4710  138.0990 C   0  0  0  0  0  2  0  0  0  0  0  0
  191.7850  173.4940  136.2720 C   0  0  0  0  0  1  0  0  0  0  0  0
  191.2440  174.7940  135.6840 C   0  0  0  0  0  2  0  0  0  0  0  0
  1  6  1  0  0  0  0
  2 12  1  0  0  0  0
  2 11  1  0  0  0  0
  3 10  1  0  0  0  0
  4  8  1  0  0  0  0
  5  1  1  0  0  0  0
  7  4  2  0  0  0  0
  7  9  1  0  0  0  0
  8  1  2  0  0  0  0
  9  5  2  0  0  0  0
 10 11  2  0  0  0  0
 11  7  1  0  0  0  0
 12 15  2  0  0  0  0
 13  2  2  0  0  0  0
 14 13  1  0  0  0  0
 14  3  2  0  0  0  0
 15  4  1  0  0  0  0
 16  3  1  1  0  0  0
 16 18  1  0  0  0  0
 17 16  1  0  0  0  0
 19 17  1  0  0  0  0
 19 20  1  0  0  0  0
 20 18  1  0  0  0  0
 21 19  1  0  0  0  0
 22 21  1  1  0  0  0
 22 24  1  0  0  0  0
 23 27  1  0  0  0  0
 25 26  1  6  0  0  0
 25 23  1  0  0  0  0
 25 28  1  0  0  0  0
 25 22  1  0  0  0  0
 27 24  1  0  0  0  0
 29 28  1  0  0  0  0
 29 33  1  0  0  0  0
 30 34  1  0  0  0  0
 30 32  1  0  0  0  0
 31 33  1  0  0  0  0
 32 31  1  0  0  0  0
 34 29  1  0  0  0  0
 35 13  1  0  0  0  0
 36 37  1  0  0  0  0
 36 39  1  0  0  0  0
 37 43  1  6  0  0  0
 37 41  1  0  0  0  0
 39 40  1  0  0  0  0
 40 38  1  0  0  0  0
 40 35  1  0  0  0  0
 41 38  1  0  0  0  0
 43 42  1  0  0  0  0
M  END
>  <MODEL>
4

>  <REMARK>
 VINA RESULT:      -8.8      2.583      7.173
  Name = 
  8 active torsions:
  status: ('A' for Active; 'I' for Inactive)
    1  A    between atoms: C_1  and  C_34
    2  A    between atoms: C_1  and  N_35
    3  A    between atoms: C_2  and  C_13
    4  A    between atoms: C_3  and  C_4
    5  A    between atoms: C_3  and  N_12
    6  A    between atoms: C_11  and  C_14
    7  A    between atoms: C_14  and  C_22
    8  A    between atoms: C_19  and  C_37
                            x       y       z     vdW  Elec       q    Type
                         _______ _______ _______ _____ _____    ______ ____

>  <TORSDO>
F 8

$$$$
=
 OpenBabel10272414193D

 43 49  0  0  1  0  0  0  0  0999 V2000
  193.1950  174.8160  135.4590 C   0  0  0  0  0  0  0  0  0  0  0  0
  189.1600  177.1990  137.3800 C   0  0  0  0  0  0  0  0  0  0  0  0
  189.6920  177.4700  140.1050 C   0  0  0  0  0  0  0  0  0  0  0  0
  191.0590  175.9320  135.7430 C   0  0  0  0  0  0  0  0  0  0  0  0
  193.4610  174.9720  136.8210 C   0  0  0  0  0  3  0  0  0  0  0  0
  194.1860  174.1340  134.5820 C   0  0  0  0  0  1  0  0  0  0  0  0
  191.3220  176.0920  137.1230 C   0  0  0  0  0  0  0  0  0  0  0  0
  191.9970  175.2960  134.9220 C   0  0  0  0  0  3  0  0  0  0  0  0
  192.5300  175.6080  137.6510 C   0  0  0  0  0  3  0  0  0  0  0  0
  190.6010  176.8820  139.2790 N   0  0  0  0  0  0  0  0  0  0  0  0
  190.3680  176.7240  137.9440 C   0  0  0  0  0  0  0  0  0  0  0  0
  188.9200  177.0360  136.0080 C   0  0  0  0  0  3  0  0  0  0  0  0
  188.2280  177.8390  138.2170 C   0  0  0  0  0  0  0  0  0  0  0  0
  188.4990  177.9680  139.5810 C   0  0  0  0  0  3  0  0  0  0  0  0
  189.8630  176.4040  135.1960 C   0  0  0  0  0  3  0  0  0  0  0  0
  190.0000  177.6830  141.5550 C   0  0  1  0  0  3  0  0  0  0  0  0
  189.5600  176.4990  142.4080 C   0  0  0  0  0  2  0  0  0  0  0  0
  191.4940  177.7880  141.7510 C   0  0  0  0  0  2  0  0  0  0  0  0
  190.7580  175.8480  142.9190 N   0  0  0  0  0  0  0  0  0  0  0  0
  191.7800  176.8870  142.9270 C   0  0  0  0  0  2  0  0  0  0  0  0
  190.4900  175.4610  144.2970 C   0  0  0  0  0  2  0  0  0  0  0  0
  191.2670  176.3580  145.2660 C   0  0  2  0  0  3  0  0  0  0  0  0
  191.1370  177.6200  147.2510 O   0  0  0  0  0  0  0  0  0  0  0  0
  191.9800  175.5790  146.3200 C   0  0  0  0  0  2  0  0  0  0  0  0
  190.4300  177.3420  146.0650 C   0  0  1  0  0  0  0  0  0  0  0  0
  190.2880  178.6220  145.2560 C   0  0  0  0  0  1  0  0  0  0  0  0
  192.0140  176.5380  147.4840 C   0  0  0  0  0  2  0  0  0  0  0  0
  189.0400  176.7780  146.4170 C   0  0  0  0  0  2  0  0  0  0  0  0
  187.9110  177.7580  146.1110 C   0  0  0  0  0  3  0  0  0  0  0  0
  185.8510  178.1690  144.7510 C   0  0  0  0  0  2  0  0  0  0  0  0
  186.0030  179.0390  147.0960 C   0  0  0  0  0  2  0  0  0  0  0  0
  185.0690  178.4800  146.0260 C   0  0  0  0  0  2  0  0  0  0  0  0
  187.1230  178.0390  147.3870 C   0  0  0  0  0  2  0  0  0  0  0  0
  186.9790  177.1800  145.0480 C   0  0  0  0  0  2  0  0  0  0  0  0
  186.9490  178.4010  137.6850 C   0  0  0  0  0  2  0  0  0  0  0  0
  184.0710  179.4070  138.7790 C   0  0  0  0  0  2  0  0  0  0  0  0
  182.9600  178.5760  138.1160 C   0  0  1  0  0  3  0  0  0  0  0  0
  184.9120  177.3890  137.1020 C   0  0  0  0  0  2  0  0  0  0  0  0
  185.2170  178.5180  139.2840 C   0  0  0  0  0  2  0  0  0  0  0  0
  185.8150  177.6740  138.2290 N   0  0  0  0  0  0  0  0  0  0  0  0
  183.4600  177.2420  137.5540 C   0  0  0  0  0  2  0  0  0  0  0  0
  181.6460  176.9670  139.5760 C   0  0  0  0  0  1  0  0  0  0  0  0
  181.7470  178.3880  139.0280 C   0  0  0  0  0  2  0  0  0  0  0  0
  1  5  1  0  0  0  0
  2 11  1  0  0  0  0
  2 13  1  0  0  0  0
  4  7  1  0  0  0  0
  5  9  2  0  0  0  0
  6  1  1  0  0  0  0
  7  9  1  0  0  0  0
  7 11  2  0  0  0  0
  8  1  2  0  0  0  0
  8  4  1  0  0  0  0
 10  3  2  0  0  0  0
 11 10  1  0  0  0  0
 12  2  2  0  0  0  0
 13 14  2  0  0  0  0
 14  3  1  0  0  0  0
 15  4  2  0  0  0  0
 15 12  1  0  0  0  0
 16  3  1  6  0  0  0
 16 18  1  0  0  0  0
 16 17  1  0  0  0  0
 17 19  1  0  0  0  0
 18 20  1  0  0  0  0
 19 20  1  0  0  0  0
 19 21  1  0  0  0  0
 22 21  1  1  0  0  0
 22 25  1  0  0  0  0
 22 24  1  0  0  0  0
 23 27  1  0  0  0  0
 24 27  1  0  0  0  0
 25 26  1  6  0  0  0
 25 28  1  0  0  0  0
 25 23  1  0  0  0  0
 29 28  1  0  0  0  0
 29 33  1  0  0  0  0
 30 34  1  0  0  0  0
 30 32  1  0  0  0  0
 31 33  1  0  0  0  0
 32 31  1  0  0  0  0
 34 29  1  0  0  0  0
 35 13  1  0  0  0  0
 35 40  1  0  0  0  0
 36 39  1  0  0  0  0
 37 36  1  0  0  0  0
 37 43  1  1  0  0  0
 38 41  1  0  0  0  0
 38 40  1  0  0  0  0
 40 39  1  0  0  0  0
 41 37  1  0  0  0  0
 43 42  1  0  0  0  0
M  END
>  <MODEL>
5

>  <REMARK>
 VINA RESULT:      -8.7      2.540      8.769
  Name = 
  8 active torsions:
  status: ('A' for Active; 'I' for Inactive)
    1  A    between atoms: C_1  and  C_34
    2  A    between atoms: C_1  and  N_35
    3  A    between atoms: C_2  and  C_13
    4  A    between atoms: C_3  and  C_4
    5  A    between atoms: C_3  and  N_12
    6  A    between atoms: C_11  and  C_14
    7  A    between atoms: C_14  and  C_22
    8  A    between atoms: C_19  and  C_37
                            x       y       z     vdW  Elec       q    Type
                         _______ _______ _______ _____ _____    ______ ____

>  <TORSDO>
F 8

$$$$
=
 OpenBabel10272414193D

 43 49  0  0  1  0  0  0  0  0999 V2000
  187.9660  177.5800  146.6670 C   0  0  0  0  0  0  0  0  0  0  0  0
  185.6880  178.5560  142.2510 C   0  0  0  0  0  0  0  0  0  0  0  0
  187.5800  177.9440  140.2940 C   0  0  0  0  0  0  0  0  0  0  0  0
  186.3680  178.2170  144.9550 C   0  0  0  0  0  0  0  0  0  0  0  0
  188.9000  177.2590  145.6810 C   0  0  0  0  0  3  0  0  0  0  0  0
  188.3170  177.4190  148.1050 C   0  0  0  0  0  1  0  0  0  0  0  0
  187.3110  177.8950  143.9510 C   0  0  0  0  0  0  0  0  0  0  0  0
  186.7020  178.0570  146.3040 C   0  0  0  0  0  3  0  0  0  0  0  0
  188.5760  177.4150  144.3280 C   0  0  0  0  0  3  0  0  0  0  0  0
  187.8690  177.7690  141.6130 N   0  0  0  0  0  0  0  0  0  0  0  0
  186.9700  178.0690  142.5960 C   0  0  0  0  0  0  0  0  0  0  0  0
  184.7640  178.8640  143.2610 C   0  0  0  0  0  3  0  0  0  0  0  0
  185.3650  178.7080  140.8900 C   0  0  0  0  0  0  0  0  0  0  0  0
  186.3180  178.4050  139.9160 C   0  0  0  0  0  3  0  0  0  0  0  0
  185.1040  178.6980  144.6030 C   0  0  0  0  0  3  0  0  0  0  0  0
  188.5640  177.5520  139.2360 C   0  0  1  0  0  3  0  0  0  0  0  0
  187.8910  176.8290  138.0750 C   0  0  0  0  0  2  0  0  0  0  0  0
  189.1880  178.7890  138.6330 C   0  0  0  0  0  2  0  0  0  0  0  0
  187.9660  177.6950  136.9060 N   0  0  0  0  0  0  0  0  0  0  0  0
  189.1190  178.5530  137.1450 C   0  0  0  0  0  2  0  0  0  0  0  0
  188.2540  176.8500  135.7560 C   0  0  0  0  0  2  0  0  0  0  0  0
  189.7060  176.3620  135.8010 C   0  0  2  0  0  3  0  0  0  0  0  0
  191.1870  174.6510  135.1460 O   0  0  0  0  0  0  0  0  0  0  0  0
  190.5280  176.9090  134.6820 C   0  0  0  0  0  2  0  0  0  0  0  0
  189.8990  174.8610  135.6760 C   0  0  1  0  0  0  0  0  0  0  0  0
  189.8250  174.2480  137.0660 C   0  0  0  0  0  1  0  0  0  0  0  0
  191.5610  175.8300  134.4640 C   0  0  0  0  0  2  0  0  0  0  0  0
  188.8520  174.2110  134.7520 C   0  0  0  0  0  2  0  0  0  0  0  0
  188.0310  173.1350  135.4550 C   0  0  0  0  0  3  0  0  0  0  0  0
  185.7370  172.4220  136.1600 C   0  0  0  0  0  2  0  0  0  0  0  0
  187.4240  170.7090  135.4540 C   0  0  0  0  0  2  0  0  0  0  0  0
  185.9420  171.0750  135.4700 C   0  0  0  0  0  2  0  0  0  0  0  0
  188.2250  171.8000  134.7410 C   0  0  0  0  0  2  0  0  0  0  0  0
  186.5500  173.5090  135.4540 C   0  0  0  0  0  2  0  0  0  0  0  0
  184.0170  179.1800  140.4500 C   0  0  0  0  0  2  0  0  0  0  0  0
  181.3990  177.3040  140.1040 C   0  0  0  0  0  2  0  0  0  0  0  0
  180.6810  177.6740  138.7960 C   0  0  1  0  0  3  0  0  0  0  0  0
  182.6220  179.2310  138.5610 C   0  0  0  0  0  2  0  0  0  0  0  0
  182.9150  177.1680  139.8980 C   0  0  0  0  0  2  0  0  0  0  0  0
  183.5420  178.3800  139.3330 N   0  0  0  0  0  0  0  0  0  0  0  0
  181.5840  178.4070  137.8000 C   0  0  0  0  0  2  0  0  0  0  0  0
  180.3820  176.2850  136.6930 C   0  0  0  0  0  1  0  0  0  0  0  0
  179.9820  176.4760  138.1530 C   0  0  0  0  0  2  0  0  0  0  0  0
  1  6  1  0  0  0  0
  2 11  1  0  0  0  0
  2 12  1  0  0  0  0
  3 10  1  0  0  0  0
  4  8  2  0  0  0  0
  5  1  2  0  0  0  0
  7  9  2  0  0  0  0
  7  4  1  0  0  0  0
  8  1  1  0  0  0  0
  9  5  1  0  0  0  0
 10 11  2  0  0  0  0
 11  7  1  0  0  0  0
 12 15  2  0  0  0  0
 13  2  2  0  0  0  0
 14  3  2  0  0  0  0
 14 13  1  0  0  0  0
 15  4  1  0  0  0  0
 16  3  1  1  0  0  0
 17 16  1  0  0  0  0
 18 16  1  0  0  0  0
 19 20  1  0  0  0  0
 19 17  1  0  0  0  0
 20 18  1  0  0  0  0
 21 19  1  0  0  0  0
 22 21  1  6  0  0  0
 23 25  1  0  0  0  0
 24 22  1  0  0  0  0
 25 22  1  0  0  0  0
 25 26  1  1  0  0  0
 27 24  1  0  0  0  0
 27 23  1  0  0  0  0
 28 29  1  0  0  0  0
 28 25  1  0  0  0  0
 31 32  1  0  0  0  0
 32 30  1  0  0  0  0
 33 31  1  0  0  0  0
 33 29  1  0  0  0  0
 34 29  1  0  0  0  0
 34 30  1  0  0  0  0
 35 13  1  0  0  0  0
 37 43  1  6  0  0  0
 37 36  1  0  0  0  0
 38 40  1  0  0  0  0
 39 36  1  0  0  0  0
 40 39  1  0  0  0  0
 40 35  1  0  0  0  0
 41 38  1  0  0  0  0
 41 37  1  0  0  0  0
 42 43  1  0  0  0  0
M  END
>  <MODEL>
6

>  <REMARK>
 VINA RESULT:      -8.5      2.486      3.585
  Name = 
  8 active torsions:
  status: ('A' for Active; 'I' for Inactive)
    1  A    between atoms: C_1  and  C_34
    2  A    between atoms: C_1  and  N_35
    3  A    between atoms: C_2  and  C_13
    4  A    between atoms: C_3  and  C_4
    5  A    between atoms: C_3  and  N_12
    6  A    between atoms: C_11  and  C_14
    7  A    between atoms: C_14  and  C_22
    8  A    between atoms: C_19  and  C_37
                            x       y       z     vdW  Elec       q    Type
                         _______ _______ _______ _____ _____    ______ ____

>  <TORSDO>
F 8

$$$$
=
 OpenBabel10272414193D

 43 49  0  0  1  0  0  0  0  0999 V2000
  181.7160  178.7920  143.4790 C   0  0  0  0  0  0  0  0  0  0  0  0
  186.7240  178.5500  142.7670 C   0  0  0  0  0  0  0  0  0  0  0  0
  187.0680  178.3730  140.0050 C   0  0  0  0  0  0  0  0  0  0  0  0
  184.1190  178.7140  143.8060 C   0  0  0  0  0  0  0  0  0  0  0  0
  181.8980  178.7220  142.0970 C   0  0  0  0  0  3  0  0  0  0  0  0
  180.3400  178.8650  144.0450 C   0  0  0  0  0  1  0  0  0  0  0  0
  184.3100  178.6410  142.4070 C   0  0  0  0  0  0  0  0  0  0  0  0
  182.8240  178.7890  144.3320 C   0  0  0  0  0  3  0  0  0  0  0  0
  183.1890  178.6470  141.5610 C   0  0  0  0  0  3  0  0  0  0  0  0
  185.8210  178.4780  140.5400 N   0  0  0  0  0  0  0  0  0  0  0  0
  185.6160  178.5550  141.8870 C   0  0  0  0  0  0  0  0  0  0  0  0
  186.5140  178.6290  144.1520 C   0  0  0  0  0  3  0  0  0  0  0  0
  188.0200  178.4770  142.2250 C   0  0  0  0  0  0  0  0  0  0  0  0
  188.1850  178.3850  140.8410 C   0  0  0  0  0  3  0  0  0  0  0  0
  185.2200  178.7080  144.6670 C   0  0  0  0  0  3  0  0  0  0  0  0
  187.2660  178.3490  138.5200 C   0  0  1  0  0  3  0  0  0  0  0  0
  188.2170  177.2390  138.0920 C   0  0  0  0  0  2  0  0  0  0  0  0
  185.9550  178.0430  137.8350 C   0  0  0  0  0  2  0  0  0  0  0  0
  187.4470  176.2500  137.3520 N   0  0  0  0  0  0  0  0  0  0  0  0
  186.3040  176.9830  136.8200 C   0  0  0  0  0  2  0  0  0  0  0  0
  188.2660  175.8070  136.2330 C   0  0  0  0  0  2  0  0  0  0  0  0
  187.9390  174.3530  135.8730 C   0  0  2  0  0  3  0  0  0  0  0  0
  188.5950  172.1070  136.1350 O   0  0  0  0  0  0  0  0  0  0  0  0
  186.9750  173.7310  136.8270 C   0  0  0  0  0  2  0  0  0  0  0  0
  189.1150  173.3920  135.8860 C   0  0  1  0  0  0  0  0  0  0  0  0
  189.7680  173.4100  134.5130 C   0  0  0  0  0  1  0  0  0  0  0  0
  187.3500  172.2700  136.7810 C   0  0  0  0  0  2  0  0  0  0  0  0
  190.1480  173.7460  136.9720 C   0  0  0  0  0  2  0  0  0  0  0  0
  191.4410  174.3140  136.3940 C   0  0  0  0  0  3  0  0  0  0  0  0
  193.1200  176.1640  136.5250 C   0  0  0  0  0  2  0  0  0  0  0  0
  193.8560  173.8380  135.9520 C   0  0  0  0  0  2  0  0  0  0  0  0
  194.2440  175.1380  136.6520 C   0  0  0  0  0  2  0  0  0  0  0  0
  192.5600  173.2880  136.5510 C   0  0  0  0  0  2  0  0  0  0  0  0
  191.8230  175.6060  137.1120 C   0  0  0  0  0  2  0  0  0  0  0  0
  189.2380  178.5070  143.0910 C   0  0  0  0  0  2  0  0  0  0  0  0
  191.6280  176.7920  144.4470 C   0  0  0  0  0  2  0  0  0  0  0  0
  191.3990  176.7200  145.9660 C   0  0  1  0  0  3  0  0  0  0  0  0
  189.3180  177.9720  145.3760 C   0  0  0  0  0  2  0  0  0  0  0  0
  190.3380  176.5000  143.6670 C   0  0  0  0  0  2  0  0  0  0  0  0
  189.2190  177.3940  144.0260 N   0  0  0  0  0  0  0  0  0  0  0  0
  189.9480  176.9980  146.3700 C   0  0  0  0  0  2  0  0  0  0  0  0
  192.7070  175.6500  147.8600 C   0  0  0  0  0  1  0  0  0  0  0  0
  191.9180  175.4170  146.5750 C   0  0  0  0  0  2  0  0  0  0  0  0
  1  6  1  0  0  0  0
  1  8  1  0  0  0  0
  2 12  1  0  0  0  0
  3 10  2  0  0  0  0
  3 14  1  0  0  0  0
  4  8  2  0  0  0  0
  4 15  1  0  0  0  0
  5  1  2  0  0  0  0
  7  4  1  0  0  0  0
  9  5  1  0  0  0  0
  9  7  2  0  0  0  0
 10 11  1  0  0  0  0
 11  7  1  0  0  0  0
 11  2  2  0  0  0  0
 12 15  2  0  0  0  0
 13  2  1  0  0  0  0
 13 35  1  0  0  0  0
 14 13  2  0  0  0  0
 16  3  1  1  0  0  0
 17 16  1  0  0  0  0
 18 16  1  0  0  0  0
 19 17  1  0  0  0  0
 20 19  1  0  0  0  0
 20 18  1  0  0  0  0
 21 19  1  0  0  0  0
 22 25  1  0  0  0  0
 22 21  1  1  0  0  0
 22 24  1  0  0  0  0
 23 27  1  0  0  0  0
 25 26  1  6  0  0  0
 25 23  1  0  0  0  0
 25 28  1  0  0  0  0
 27 24  1  0  0  0  0
 29 33  1  0  0  0  0
 29 28  1  0  0  0  0
 29 34  1  0  0  0  0
 30 32  1  0  0  0  0
 30 34  1  0  0  0  0
 31 33  1  0  0  0  0
 31 32  1  0  0  0  0
 35 40  1  0  0  0  0
 36 37  1  0  0  0  0
 37 41  1  0  0  0  0
 37 43  1  6  0  0  0
 38 41  1  0  0  0  0
 39 40  1  0  0  0  0
 39 36  1  0  0  0  0
 40 38  1  0  0  0  0
 43 42  1  0  0  0  0
M  END
>  <MODEL>
7

>  <REMARK>
 VINA RESULT:      -8.5      2.398      6.257
  Name = 
  8 active torsions:
  status: ('A' for Active; 'I' for Inactive)
    1  A    between atoms: C_1  and  C_34
    2  A    between atoms: C_1  and  N_35
    3  A    between atoms: C_2  and  C_13
    4  A    between atoms: C_3  and  C_4
    5  A    between atoms: C_3  and  N_12
    6  A    between atoms: C_11  and  C_14
    7  A    between atoms: C_14  and  C_22
    8  A    between atoms: C_19  and  C_37
                            x       y       z     vdW  Elec       q    Type
                         _______ _______ _______ _____ _____    ______ ____

>  <TORSDO>
F 8

$$$$
=
 OpenBabel10272414193D

 43 49  0  0  1  0  0  0  0  0999 V2000
  191.1890  176.4040  146.0150 C   0  0  0  0  0  0  0  0  0  0  0  0
  188.0430  178.0920  142.4230 C   0  0  0  0  0  0  0  0  0  0  0  0
  189.3760  177.6570  140.0120 C   0  0  0  0  0  0  0  0  0  0  0  0
  189.2980  177.3510  144.8240 C   0  0  0  0  0  0  0  0  0  0  0  0
  191.8410  176.1740  144.8020 C   0  0  0  0  0  3  0  0  0  0  0  0
  191.8480  176.0300  147.2960 C   0  0  0  0  0  1  0  0  0  0  0  0
  189.9540  177.1210  143.5930 C   0  0  0  0  0  0  0  0  0  0  0  0
  189.9200  176.9910  146.0250 C   0  0  0  0  0  3  0  0  0  0  0  0
  191.2280  176.5300  143.5950 C   0  0  0  0  0  3  0  0  0  0  0  0
  189.9450  177.2880  141.1920 N   0  0  0  0  0  0  0  0  0  0  0  0
  189.3260  177.4960  142.3900 C   0  0  0  0  0  0  0  0  0  0  0  0
  187.4060  178.3060  143.6550 C   0  0  0  0  0  3  0  0  0  0  0  0
  187.4280  178.4460  141.2080 C   0  0  0  0  0  0  0  0  0  0  0  0
  188.1030  178.2290  140.0050 C   0  0  0  0  0  3  0  0  0  0  0  0
  188.0320  177.9400  144.8470 C   0  0  0  0  0  3  0  0  0  0  0  0
  190.0540  177.3630  138.7090 C   0  0  1  0  0  3  0  0  0  0  0  0
  191.0470  176.2140  138.8320 C   0  0  0  0  0  2  0  0  0  0  0  0
  189.0330  176.9070  137.6930 C   0  0  0  0  0  2  0  0  0  0  0  0
  190.5250  175.0890  138.0690 N   0  0  0  0  0  0  0  0  0  0  0  0
  189.6560  175.6860  137.0630 C   0  0  0  0  0  2  0  0  0  0  0  0
  191.6500  174.4650  137.3890 C   0  0  0  0  0  2  0  0  0  0  0  0
  192.8080  175.4590  137.2460 C   0  0  2  0  0  3  0  0  0  0  0  0
  195.0340  175.7360  136.5290 O   0  0  0  0  0  0  0  0  0  0  0  0
  192.7560  176.2170  135.9620 C   0  0  0  0  0  2  0  0  0  0  0  0
  194.2000  174.8500  137.2370 C   0  0  1  0  0  0  0  0  0  0  0  0
  194.6880  174.7420  138.6730 C   0  0  0  0  0  1  0  0  0  0  0  0
  194.2100  176.5120  135.6850 C   0  0  0  0  0  2  0  0  0  0  0  0
  194.2290  173.4670  136.5600 C   0  0  0  0  0  2  0  0  0  0  0  0
  195.1760  172.4910  137.2520 C   0  0  0  0  0  3  0  0  0  0  0  0
  195.5290  170.1200  137.9710 C   0  0  0  0  0  2  0  0  0  0  0  0
  197.4740  171.5050  137.2080 C   0  0  0  0  0  2  0  0  0  0  0  0
  196.8770  170.1000  137.2510 C   0  0  0  0  0  2  0  0  0  0  0  0
  196.5080  172.4620  136.5070 C   0  0  0  0  0  2  0  0  0  0  0  0
  194.5710  171.0890  137.2770 C   0  0  0  0  0  2  0  0  0  0  0  0
  186.0590  179.0420  141.1640 C   0  0  0  0  0  2  0  0  0  0  0  0
  182.8500  178.6230  141.3210 C   0  0  0  0  0  2  0  0  0  0  0  0
  182.2570  178.7300  139.9070 C   0  0  1  0  0  3  0  0  0  0  0  0
  184.6630  178.9760  139.2760 C   0  0  0  0  0  2  0  0  0  0  0  0
  184.1030  177.7340  141.3430 C   0  0  0  0  0  2  0  0  0  0  0  0
  185.1590  178.1830  140.4130 N   0  0  0  0  0  0  0  0  0  0  0  0
  183.2910  178.5000  138.8010 C   0  0  0  0  0  2  0  0  0  0  0  0
  181.3680  176.3590  139.7220 C   0  0  0  0  0  1  0  0  0  0  0  0
  181.0230  177.8450  139.7210 C   0  0  0  0  0  2  0  0  0  0  0  0
  1  8  1  0  0  0  0
  1  6  1  0  0  0  0
  2 12  1  0  0  0  0
  3 10  1  0  0  0  0
  4 15  1  0  0  0  0
  4  8  2  0  0  0  0
  5  1  2  0  0  0  0
  7  9  2  0  0  0  0
  7  4  1  0  0  0  0
  9  5  1  0  0  0  0
 10 11  2  0  0  0  0
 11  2  1  0  0  0  0
 11  7  1  0  0  0  0
 12 15  2  0  0  0  0
 13  2  2  0  0  0  0
 14  3  2  0  0  0  0
 14 13  1  0  0  0  0
 16 17  1  0  0  0  0
 16  3  1  1  0  0  0
 18 16  1  0  0  0  0
 19 17  1  0  0  0  0
 20 18  1  0  0  0  0
 20 19  1  0  0  0  0
 21 19  1  0  0  0  0
 22 21  1  6  0  0  0
 23 25  1  0  0  0  0
 24 22  1  0  0  0  0
 25 22  1  0  0  0  0
 25 26  1  1  0  0  0
 27 24  1  0  0  0  0
 27 23  1  0  0  0  0
 28 25  1  0  0  0  0
 28 29  1  0  0  0  0
 29 34  1  0  0  0  0
 31 32  1  0  0  0  0
 32 30  1  0  0  0  0
 33 31  1  0  0  0  0
 33 29  1  0  0  0  0
 34 30  1  0  0  0  0
 35 13  1  0  0  0  0
 36 39  1  0  0  0  0
 37 43  1  1  0  0  0
 37 36  1  0  0  0  0
 38 40  1  0  0  0  0
 40 35  1  0  0  0  0
 40 39  1  0  0  0  0
 41 38  1  0  0  0  0
 41 37  1  0  0  0  0
 43 42  1  0  0  0  0
M  END
>  <MODEL>
8

>  <REMARK>
 VINA RESULT:      -8.5      1.487      2.180
  Name = 
  8 active torsions:
  status: ('A' for Active; 'I' for Inactive)
    1  A    between atoms: C_1  and  C_34
    2  A    between atoms: C_1  and  N_35
    3  A    between atoms: C_2  and  C_13
    4  A    between atoms: C_3  and  C_4
    5  A    between atoms: C_3  and  N_12
    6  A    between atoms: C_11  and  C_14
    7  A    between atoms: C_14  and  C_22
    8  A    between atoms: C_19  and  C_37
                            x       y       z     vdW  Elec       q    Type
                         _______ _______ _______ _____ _____    ______ ____

>  <TORSDO>
F 8

$$$$
=
 OpenBabel10272414193D

 43 49  0  0  1  0  0  0  0  0999 V2000
  188.8450  177.4050  146.6250 C   0  0  0  0  0  0  0  0  0  0  0  0
  185.9260  178.3900  142.6050 C   0  0  0  0  0  0  0  0  0  0  0  0
  187.6550  178.3650  140.4160 C   0  0  0  0  0  0  0  0  0  0  0  0
  186.9690  177.9020  145.1680 C   0  0  0  0  0  0  0  0  0  0  0  0
  189.6990  177.3760  145.5220 C   0  0  0  0  0  3  0  0  0  0  0  0
  189.3860  177.1620  147.9910 C   0  0  0  0  0  1  0  0  0  0  0  0
  187.8300  177.8750  144.0460 C   0  0  0  0  0  0  0  0  0  0  0  0
  187.4830  177.6660  146.4480 C   0  0  0  0  0  3  0  0  0  0  0  0
  189.1960  177.6100  144.2370 C   0  0  0  0  0  3  0  0  0  0  0  0
  188.1230  178.1090  141.6690 N   0  0  0  0  0  0  0  0  0  0  0  0
  187.3070  178.1240  142.7630 C   0  0  0  0  0  0  0  0  0  0  0  0
  185.0870  178.4060  143.7300 C   0  0  0  0  0  3  0  0  0  0  0  0
  185.4240  178.6220  141.3120 C   0  0  0  0  0  0  0  0  0  0  0  0
  186.2950  178.6120  140.2210 C   0  0  0  0  0  3  0  0  0  0  0  0
  185.6070  178.1660  145.0020 C   0  0  0  0  0  3  0  0  0  0  0  0
  188.5620  178.2830  139.2270 C   0  0  1  0  0  3  0  0  0  0  0  0
  189.3570  176.9840  139.2080 C   0  0  0  0  0  2  0  0  0  0  0  0
  187.7430  178.2740  137.9580 C   0  0  0  0  0  2  0  0  0  0  0  0
  188.8840  176.1870  138.0840 N   0  0  0  0  0  0  0  0  0  0  0  0
  188.3360  177.1540  137.1410 C   0  0  0  0  0  2  0  0  0  0  0  0
  190.0480  175.5600  137.4730 C   0  0  0  0  0  2  0  0  0  0  0  0
  189.6340  174.7520  136.2390 C   0  0  2  0  0  3  0  0  0  0  0  0
  190.1260  172.8670  134.9150 O   0  0  0  0  0  0  0  0  0  0  0  0
  188.5980  173.7240  136.5500 C   0  0  0  0  0  2  0  0  0  0  0  0
  190.7400  173.9460  135.5800 C   0  0  1  0  0  0  0  0  0  0  0  0
  191.4390  174.8310  134.5600 C   0  0  0  0  0  1  0  0  0  0  0  0
  188.8740  172.6470  135.5300 C   0  0  0  0  0  2  0  0  0  0  0  0
  191.7580  173.4050  136.6020 C   0  0  0  0  0  2  0  0  0  0  0  0
  193.1950  173.7910  136.2630 C   0  0  0  0  0  3  0  0  0  0  0  0
  195.2950  174.8610  137.1030 C   0  0  0  0  0  2  0  0  0  0  0  0
  195.4190  172.9150  135.5290 C   0  0  0  0  0  2  0  0  0  0  0  0
  196.0900  173.6180  136.7060 C   0  0  0  0  0  2  0  0  0  0  0  0
  193.9830  172.5370  135.8940 C   0  0  0  0  0  2  0  0  0  0  0  0
  193.8560  174.4810  137.4540 C   0  0  0  0  0  2  0  0  0  0  0  0
  183.9710  178.8700  141.0660 C   0  0  0  0  0  2  0  0  0  0  0  0
  181.3980  177.3950  139.7630 C   0  0  0  0  0  2  0  0  0  0  0  0
  180.8540  178.2530  138.6090 C   0  0  1  0  0  3  0  0  0  0  0  0
  182.8260  179.6790  139.1810 C   0  0  0  0  0  2  0  0  0  0  0  0
  182.9260  177.2590  139.6940 C   0  0  0  0  0  2  0  0  0  0  0  0
  183.6320  178.5560  139.6880 N   0  0  0  0  0  0  0  0  0  0  0  0
  181.8830  179.2460  138.0600 C   0  0  0  0  0  2  0  0  0  0  0  0
  181.2640  176.9190  136.4890 C   0  0  0  0  0  1  0  0  0  0  0  0
  180.2290  177.4100  137.4970 C   0  0  0  0  0  2  0  0  0  0  0  0
  1  6  1  0  0  0  0
  2 11  1  0  0  0  0
  2 12  1  0  0  0  0
  3 10  1  0  0  0  0
  4  8  2  0  0  0  0
  5  1  2  0  0  0  0
  7  9  2  0  0  0  0
  7  4  1  0  0  0  0
  8  1  1  0  0  0  0
  9  5  1  0  0  0  0
 10 11  2  0  0  0  0
 11  7  1  0  0  0  0
 12 15  2  0  0  0  0
 13  2  2  0  0  0  0
 14  3  2  0  0  0  0
 14 13  1  0  0  0  0
 15  4  1  0  0  0  0
 16  3  1  1  0  0  0
 17 16  1  0  0  0  0
 18 16  1  0  0  0  0
 19 17  1  0  0  0  0
 20 18  1  0  0  0  0
 20 19  1  0  0  0  0
 21 19  1  0  0  0  0
 22 24  1  0  0  0  0
 22 21  1  1  0  0  0
 23 27  1  0  0  0  0
 23 25  1  0  0  0  0
 25 26  1  6  0  0  0
 25 22  1  0  0  0  0
 25 28  1  0  0  0  0
 27 24  1  0  0  0  0
 29 28  1  0  0  0  0
 29 34  1  0  0  0  0
 30 34  1  0  0  0  0
 31 33  1  0  0  0  0
 31 32  1  0  0  0  0
 32 30  1  0  0  0  0
 33 29  1  0  0  0  0
 35 13  1  0  0  0  0
 37 43  1  6  0  0  0
 37 36  1  0  0  0  0
 38 40  1  0  0  0  0
 39 36  1  0  0  0  0
 40 39  1  0  0  0  0
 40 35  1  0  0  0  0
 41 37  1  0  0  0  0
 41 38  1  0  0  0  0
 42 43  1  0  0  0  0
M  END
>  <MODEL>
9

>  <REMARK>
 VINA RESULT:      -8.5      1.386      1.812
  Name = 
  8 active torsions:
  status: ('A' for Active; 'I' for Inactive)
    1  A    between atoms: C_1  and  C_34
    2  A    between atoms: C_1  and  N_35
    3  A    between atoms: C_2  and  C_13
    4  A    between atoms: C_3  and  C_4
    5  A    between atoms: C_3  and  N_12
    6  A    between atoms: C_11  and  C_14
    7  A    between atoms: C_14  and  C_22
    8  A    between atoms: C_19  and  C_37
                            x       y       z     vdW  Elec       q    Type
                         _______ _______ _______ _____ _____    ______ ____

>  <TORSDO>
F 8

$$$$
