=
 OpenBabel10262423493D

 34 38  0  0  1  0  0  0  0  0999 V2000
  193.0210  176.2090  137.2330 C   0  0  2  0  0  3  0  0  0  0  0  0
  190.9620  175.3930  135.9830 C   0  0  0  0  0  0  0  0  0  0  0  0
  189.2140  174.9820  134.3460 O   0  0  0  0  0  0  0  0  0  0  0  0
  190.6760  177.2260  137.7370 C   0  0  2  0  0  3  0  0  0  0  0  0
  187.1410  178.7010  137.0660 C   0  0  0  0  0  2  0  0  0  0  0  0
  191.6280  174.4300  135.6270 O   0  0  0  0  0  0  0  0  0  0  0  0
  188.9400  176.8740  135.8620 C   0  0  1  0  0  3  0  0  0  0  0  0
  189.2820  173.3660  137.1040 N   0  0  0  0  0  2  0  0  0  0  0  0
  188.5760  173.8480  134.8850 C   0  0  1  0  0  3  0  0  0  0  0  0
  188.6240  174.3730  136.2890 C   0  0  2  0  0  3  0  0  0  0  0  0
  191.6170  176.5660  136.6840 C   0  0  1  0  0  3  0  0  0  0  0  0
  187.0840  178.3950  135.6910 O   0  0  0  0  0  0  0  0  0  0  0  0
  188.5910  178.7030  137.5640 C   0  0  2  0  0  3  0  0  0  0  0  0
  187.5420  171.4060  136.2250 S   0  0  0  0  0  0  0  0  0  0  0  0
  190.8570  176.6030  139.1110 C   0  0  0  0  0  0  0  0  0  0  0  0
  186.4350  172.6890  135.4890 C   0  0  0  0  0  2  0  0  0  0  0  0
  193.2670  176.7130  138.6590 C   0  0  0  0  0  2  0  0  0  0  0  0
  189.4820  175.4540  135.6500 C   0  0  2  0  0  0  0  0  0  0  0  0
  189.3190  179.6940  136.8990 O   0  0  0  0  0  1  0  0  0  0  0  0
  187.4480  177.0420  135.5500 C   0  0  0  0  0  2  0  0  0  0  0  0
  189.1970  177.3220  137.3050 C   0  0  2  0  0  3  0  0  0  0  0  0
  192.1030  176.3460  139.5290 C   0  0  0  0  0  3  0  0  0  0  0  0
  187.1360  173.6110  134.4690 C   0  0  0  0  0  2  0  0  0  0  0  0
  188.2160  172.4740  137.5740 C   0  0  0  0  0  2  0  0  0  0  0  0
  194.8710  175.6390  136.1560 C   0  0  0  0  0  1  0  0  0  0  0  0
  194.0040  176.7110  136.3780 O   0  0  0  0  0  0  0  0  0  0  0  0
  189.6840  176.1600  139.9470 C   0  0  0  0  0  2  0  0  0  0  0  0
  189.5510  176.8970  141.2840 C   0  0  1  0  0  3  0  0  0  0  0  0
  187.5200  178.4040  141.3560 C   0  0  0  0  0  0  0  0  0  0  0  0
  186.1900  178.5850  141.7100 O   0  0  0  0  0  1  0  0  0  0  0  0
  188.1520  177.1490  141.6030 N   0  0  0  0  0  2  0  0  0  0  0  0
  188.1540  179.3490  140.8150 O   0  0  0  0  0  0  0  0  0  0  0  0
  191.4360  177.4060  143.0400 C   0  0  0  0  0  1  0  0  0  0  0  0
  190.3670  175.9940  142.6410 S   0  0  0  0  0  0  0  0  0  0  0  0
  1 26  1  6  0  0  0
  1 17  1  0  0  0  0
  3  9  1  0  0  0  0
  4 15  1  1  0  0  0
  5 13  1  0  0  0  0
  6  2  2  0  0  0  0
  7 20  1  1  0  0  0
  7 21  1  0  0  0  0
  8 24  1  0  0  0  0
  9 23  1  6  0  0  0
  9 10  1  0  0  0  0
 10  8  1  1  0  0  0
 11  2  1  1  0  0  0
 11  1  1  0  0  0  0
 11  4  1  0  0  0  0
 12  5  1  0  0  0  0
 13 19  1  6  0  0  0
 14 24  1  0  0  0  0
 15 22  2  0  0  0  0
 15 27  1  0  0  0  0
 16 14  1  0  0  0  0
 17 22  1  0  0  0  0
 18  3  1  6  0  0  0
 18  7  1  0  0  0  0
 18  2  1  0  0  0  0
 18 10  1  0  0  0  0
 20 12  1  0  0  0  0
 21 13  1  0  0  0  0
 21  4  1  0  0  0  0
 23 16  1  0  0  0  0
 25 26  1  0  0  0  0
 27 28  1  0  0  0  0
 28 31  1  0  0  0  0
 28 34  1  0  0  0  0
 29 31  1  0  0  0  0
 29 30  1  0  0  0  0
 32 29  2  0  0  0  0
 34 33  1  0  0  0  0
M  END
>  <MODEL>
1

>  <REMARK>
 VINA RESULT:      -4.3      0.000      0.000
  Name = 
  5 active torsions:
  status: ('A' for Active; 'I' for Inactive)
    1  A    between atoms: C_1  and  O_19
    2  A    between atoms: C_12  and  N_23
    3  A    between atoms: C_12  and  S_27
    4  A    between atoms: C_12  and  C_28
    5  A    between atoms: C_21  and  C_28
                            x       y       z     vdW  Elec       q    Type
                         _______ _______ _______ _____ _____    ______ ____

>  <TORSDO>
F 5

$$$$
=
 OpenBabel10262423493D

 34 38  0  0  1  0  0  0  0  0999 V2000
  192.8780  176.3790  137.5200 C   0  0  2  0  0  3  0  0  0  0  0  0
  190.9280  175.5270  136.1280 C   0  0  0  0  0  0  0  0  0  0  0  0
  189.3050  175.0910  134.3730 O   0  0  0  0  0  0  0  0  0  0  0  0
  190.4830  177.3410  137.8690 C   0  0  2  0  0  3  0  0  0  0  0  0
  186.9700  178.7440  136.9670 C   0  0  0  0  0  2  0  0  0  0  0  0
  191.6380  174.5820  135.8130 O   0  0  0  0  0  0  0  0  0  0  0  0
  188.8860  176.9660  135.8780 C   0  0  1  0  0  3  0  0  0  0  0  0
  189.2200  173.4560  137.1200 N   0  0  0  0  0  2  0  0  0  0  0  0
  188.6570  173.9390  134.8610 C   0  0  1  0  0  3  0  0  0  0  0  0
  188.5980  174.4550  136.2680 C   0  0  2  0  0  3  0  0  0  0  0  0
  191.5070  176.7090  136.8790 C   0  0  1  0  0  3  0  0  0  0  0  0
  187.0130  178.4470  135.5890 O   0  0  0  0  0  0  0  0  0  0  0  0
  188.3820  178.7740  137.5620 C   0  0  2  0  0  3  0  0  0  0  0  0
  187.5880  171.4660  136.1130 S   0  0  0  0  0  0  0  0  0  0  0  0
  190.5830  176.7120  139.2480 C   0  0  0  0  0  0  0  0  0  0  0  0
  186.5060  172.7290  135.3100 C   0  0  0  0  0  2  0  0  0  0  0  0
  193.0150  176.8780  138.9620 C   0  0  0  0  0  2  0  0  0  0  0  0
  189.4730  175.5590  135.6950 C   0  0  2  0  0  0  0  0  0  0  0  0
  189.1310  179.7850  136.9540 O   0  0  0  0  0  1  0  0  0  0  0  0
  187.4150  177.1030  135.4650 C   0  0  0  0  0  2  0  0  0  0  0  0
  189.0350  177.4080  137.3370 C   0  0  2  0  0  3  0  0  0  0  0  0
  191.8030  176.4790  139.7490 C   0  0  0  0  0  3  0  0  0  0  0  0
  187.2540  173.6740  134.3460 C   0  0  0  0  0  2  0  0  0  0  0  0
  188.1450  172.5380  137.5100 C   0  0  0  0  0  2  0  0  0  0  0  0
  194.6380  175.8010  136.3060 C   0  0  0  0  0  1  0  0  0  0  0  0
  193.9060  176.9090  136.7380 O   0  0  0  0  0  0  0  0  0  0  0  0
  189.3650  176.2380  139.9990 C   0  0  0  0  0  2  0  0  0  0  0  0
  189.0780  177.0180  141.2870 C   0  0  1  0  0  3  0  0  0  0  0  0
  190.6980  177.2760  143.2130 C   0  0  0  0  0  0  0  0  0  0  0  0
  191.8710  177.8280  143.7090 O   0  0  0  0  0  0  0  0  0  0  0  0
  190.3080  177.5400  141.8650 N   0  0  0  0  0  2  0  0  0  0  0  0
  189.9920  176.5420  143.9550 O   0  0  0  0  0  1  0  0  0  0  0  0
  187.0290  178.0270  142.5830 C   0  0  0  0  0  1  0  0  0  0  0  0
  187.8760  178.3620  141.0130 S   0  0  0  0  0  0  0  0  0  0  0  0
  1 26  1  6  0  0  0
  1 17  1  0  0  0  0
  3  9  1  0  0  0  0
  4 15  1  1  0  0  0
  5 13  1  0  0  0  0
  6  2  2  0  0  0  0
  7 20  1  1  0  0  0
  7 21  1  0  0  0  0
  8 24  1  0  0  0  0
  9 23  1  6  0  0  0
  9 10  1  0  0  0  0
 10  8  1  1  0  0  0
 11  2  1  1  0  0  0
 11  1  1  0  0  0  0
 11  4  1  0  0  0  0
 12  5  1  0  0  0  0
 13 19  1  6  0  0  0
 14 24  1  0  0  0  0
 15 22  2  0  0  0  0
 15 27  1  0  0  0  0
 16 14  1  0  0  0  0
 17 22  1  0  0  0  0
 18  3  1  6  0  0  0
 18  7  1  0  0  0  0
 18  2  1  0  0  0  0
 18 10  1  0  0  0  0
 20 12  1  0  0  0  0
 21 13  1  0  0  0  0
 21  4  1  0  0  0  0
 23 16  1  0  0  0  0
 25 26  1  0  0  0  0
 27 28  1  0  0  0  0
 28 31  1  0  0  0  0
 29 30  2  0  0  0  0
 29 32  1  0  0  0  0
 31 29  1  0  0  0  0
 34 28  1  0  0  0  0
 34 33  1  0  0  0  0
M  END
>  <MODEL>
2

>  <REMARK>
 VINA RESULT:      -4.3      1.427      1.831
  Name = 
  5 active torsions:
  status: ('A' for Active; 'I' for Inactive)
    1  A    between atoms: C_1  and  O_19
    2  A    between atoms: C_12  and  N_23
    3  A    between atoms: C_12  and  S_27
    4  A    between atoms: C_12  and  C_28
    5  A    between atoms: C_21  and  C_28
                            x       y       z     vdW  Elec       q    Type
                         _______ _______ _______ _____ _____    ______ ____

>  <TORSDO>
F 5

$$$$
=
 OpenBabel10262423493D

 34 38  0  0  1  0  0  0  0  0999 V2000
  186.2460  178.2720  139.2890 C   0  0  2  0  0  3  0  0  0  0  0  0
  184.4140  177.5400  137.6830 C   0  0  0  0  0  0  0  0  0  0  0  0
  182.9630  177.2160  135.7620 O   0  0  0  0  0  0  0  0  0  0  0  0
  183.8670  179.3270  139.4220 C   0  0  2  0  0  3  0  0  0  0  0  0
  180.5230  180.9010  138.2100 C   0  0  0  0  0  2  0  0  0  0  0  0
  185.1140  176.5720  137.4140 O   0  0  0  0  0  0  0  0  0  0  0  0
  182.4680  179.0690  137.2700 C   0  0  1  0  0  3  0  0  0  0  0  0
  182.5330  175.5200  138.4380 N   0  0  0  0  0  2  0  0  0  0  0  0
  182.2230  176.0810  136.1480 C   0  0  1  0  0  3  0  0  0  0  0  0
  182.0410  176.5640  137.5560 C   0  0  2  0  0  3  0  0  0  0  0  0
  184.9610  178.6770  138.5230 C   0  0  1  0  0  3  0  0  0  0  0  0
  180.6960  180.6360  136.8360 O   0  0  0  0  0  0  0  0  0  0  0  0
  181.8680  180.8560  138.9460 C   0  0  2  0  0  3  0  0  0  0  0  0
  180.9340  173.6260  137.2150 S   0  0  0  0  0  0  0  0  0  0  0  0
  183.8020  178.6620  140.7850 C   0  0  0  0  0  0  0  0  0  0  0  0
  179.9900  174.9540  136.3440 C   0  0  0  0  0  2  0  0  0  0  0  0
  186.2540  178.7300  140.7510 C   0  0  0  0  0  2  0  0  0  0  0  0
  183.0140  177.6440  137.1070 C   0  0  2  0  0  0  0  0  0  0  0  0
  182.7150  181.8490  138.4460 O   0  0  0  0  0  1  0  0  0  0  0  0
  181.0540  179.2800  136.7150 C   0  0  0  0  0  2  0  0  0  0  0  0
  182.4850  179.4700  138.7480 C   0  0  2  0  0  3  0  0  0  0  0  0
  184.9540  178.3640  141.4000 C   0  0  0  0  0  3  0  0  0  0  0  0
  180.8700  175.8890  135.4870 C   0  0  0  0  0  2  0  0  0  0  0  0
  181.3880  174.6390  138.6920 C   0  0  0  0  0  2  0  0  0  0  0  0
  188.4550  178.3640  139.4020 C   0  0  0  0  0  1  0  0  0  0  0  0
  187.3680  178.7770  138.6290 O   0  0  0  0  0  0  0  0  0  0  0  0
  182.4950  178.2210  141.3960 C   0  0  0  0  0  2  0  0  0  0  0  0
  182.2900  178.6850  142.8420 C   0  0  1  0  0  3  0  0  0  0  0  0
  183.8780  179.3680  144.6900 C   0  0  0  0  0  0  0  0  0  0  0  0
  184.9830  180.1070  145.0900 O   0  0  0  0  0  0  0  0  0  0  0  0
  183.4550  179.4110  143.3270 N   0  0  0  0  0  2  0  0  0  0  0  0
  183.2620  178.6620  145.5320 O   0  0  0  0  0  1  0  0  0  0  0  0
  179.9900  178.4560  144.0880 C   0  0  0  0  0  1  0  0  0  0  0  0
  180.7830  179.6950  143.0240 S   0  0  0  0  0  0  0  0  0  0  0  0
  1 26  1  6  0  0  0
  1 17  1  0  0  0  0
  3  9  1  0  0  0  0
  4 15  1  1  0  0  0
  5 13  1  0  0  0  0
  6  2  2  0  0  0  0
  7 20  1  1  0  0  0
  7 21  1  0  0  0  0
  8 24  1  0  0  0  0
  9 23  1  6  0  0  0
  9 10  1  0  0  0  0
 10  8  1  1  0  0  0
 11  2  1  1  0  0  0
 11  1  1  0  0  0  0
 11  4  1  0  0  0  0
 12  5  1  0  0  0  0
 13 19  1  6  0  0  0
 14 24  1  0  0  0  0
 15 27  1  0  0  0  0
 15 22  2  0  0  0  0
 16 14  1  0  0  0  0
 17 22  1  0  0  0  0
 18  3  1  6  0  0  0
 18  7  1  0  0  0  0
 18 10  1  0  0  0  0
 18  2  1  0  0  0  0
 20 12  1  0  0  0  0
 21 13  1  0  0  0  0
 21  4  1  0  0  0  0
 23 16  1  0  0  0  0
 26 25  1  0  0  0  0
 27 28  1  0  0  0  0
 28 34  1  0  0  0  0
 28 31  1  0  0  0  0
 29 30  2  0  0  0  0
 29 32  1  0  0  0  0
 31 29  1  0  0  0  0
 34 33  1  0  0  0  0
M  END
>  <MODEL>
3

>  <REMARK>
 VINA RESULT:      -4.3      5.337      7.285
  Name = 
  5 active torsions:
  status: ('A' for Active; 'I' for Inactive)
    1  A    between atoms: C_1  and  O_19
    2  A    between atoms: C_12  and  N_23
    3  A    between atoms: C_12  and  S_27
    4  A    between atoms: C_12  and  C_28
    5  A    between atoms: C_21  and  C_28
                            x       y       z     vdW  Elec       q    Type
                         _______ _______ _______ _____ _____    ______ ____

>  <TORSDO>
F 5

$$$$
=
 OpenBabel10262423493D

 34 38  0  0  1  0  0  0  0  0999 V2000
  188.1040  178.2710  135.5440 C   0  0  2  0  0  3  0  0  0  0  0  0
  189.7720  176.3780  135.2220 C   0  0  0  0  0  0  0  0  0  0  0  0
  191.0440  174.4800  134.3970 O   0  0  0  0  0  0  0  0  0  0  0  0
  187.8110  176.0180  136.8170 C   0  0  2  0  0  3  0  0  0  0  0  0
  187.7140  172.1770  137.4190 C   0  0  0  0  0  2  0  0  0  0  0  0
  190.5220  177.2000  134.7140 O   0  0  0  0  0  0  0  0  0  0  0  0
  189.0730  174.0290  135.7640 C   0  0  1  0  0  3  0  0  0  0  0  0
  191.9580  176.0350  137.0370 N   0  0  0  0  0  2  0  0  0  0  0  0
  192.1880  174.5210  135.2180 C   0  0  1  0  0  3  0  0  0  0  0  0
  191.4020  174.8240  136.4590 C   0  0  2  0  0  3  0  0  0  0  0  0
  188.3350  176.7390  135.5390 C   0  0  1  0  0  3  0  0  0  0  0  0
  188.2940  171.7950  136.1930 O   0  0  0  0  0  0  0  0  0  0  0  0
  187.1470  173.5990  137.3340 C   0  0  2  0  0  3  0  0  0  0  0  0
  194.5070  174.9660  137.0220 S   0  0  0  0  0  0  0  0  0  0  0  0
  188.0500  176.8530  138.0630 C   0  0  0  0  0  0  0  0  0  0  0  0
  193.8230  173.2870  136.6650 C   0  0  0  0  0  2  0  0  0  0  0  0
  187.2690  178.7600  136.7320 C   0  0  0  0  0  2  0  0  0  0  0  0
  190.2570  174.9600  135.4670 C   0  0  2  0  0  0  0  0  0  0  0  0
  186.1320  173.6470  136.3740 O   0  0  0  0  0  1  0  0  0  0  0  0
  189.4590  172.5680  136.0240 C   0  0  0  0  0  2  0  0  0  0  0  0
  188.2830  174.5550  136.9670 C   0  0  2  0  0  3  0  0  0  0  0  0
  187.8050  178.1680  138.0000 C   0  0  0  0  0  3  0  0  0  0  0  0
  192.9530  173.2220  135.3920 C   0  0  0  0  0  2  0  0  0  0  0  0
  193.0290  175.5920  137.9370 C   0  0  0  0  0  2  0  0  0  0  0  0
  186.2270  178.0850  134.3840 C   0  0  0  0  0  1  0  0  0  0  0  0
  187.4980  178.6620  134.3480 O   0  0  0  0  0  0  0  0  0  0  0  0
  188.6660  176.2680  139.3090 C   0  0  0  0  0  2  0  0  0  0  0  0
  189.2110  177.3120  140.2900 C   0  0  1  0  0  3  0  0  0  0  0  0
  187.5600  177.9160  142.1100 C   0  0  0  0  0  0  0  0  0  0  0  0
  187.0850  177.7040  143.3970 O   0  0  0  0  0  1  0  0  0  0  0  0
  188.6430  177.1260  141.6180 N   0  0  0  0  0  2  0  0  0  0  0  0
  187.0290  178.8010  141.3870 O   0  0  0  0  0  0  0  0  0  0  0  0
  191.0380  177.4050  142.1740 C   0  0  0  0  0  1  0  0  0  0  0  0
  191.0330  177.2910  140.3630 S   0  0  0  0  0  0  0  0  0  0  0  0
  1 26  1  6  0  0  0
  1 17  1  0  0  0  0
  2 18  1  0  0  0  0
  3  9  1  0  0  0  0
  4 21  1  0  0  0  0
  4 15  1  1  0  0  0
  6  2  2  0  0  0  0
  7 20  1  1  0  0  0
  7 21  1  0  0  0  0
  8 24  1  0  0  0  0
  9 23  1  1  0  0  0
  9 10  1  0  0  0  0
 10  8  1  6  0  0  0
 11  2  1  1  0  0  0
 11  1  1  0  0  0  0
 11  4  1  0  0  0  0
 12  5  1  0  0  0  0
 13 19  1  6  0  0  0
 13  5  1  0  0  0  0
 14 24  1  0  0  0  0
 15 27  1  0  0  0  0
 16 14  1  0  0  0  0
 17 22  1  0  0  0  0
 18  3  1  6  0  0  0
 18  7  1  0  0  0  0
 18 10  1  0  0  0  0
 20 12  1  0  0  0  0
 21 13  1  0  0  0  0
 22 15  2  0  0  0  0
 23 16  1  0  0  0  0
 26 25  1  0  0  0  0
 27 28  1  0  0  0  0
 28 34  1  0  0  0  0
 28 31  1  0  0  0  0
 29 30  1  0  0  0  0
 31 29  1  0  0  0  0
 32 29  2  0  0  0  0
 34 33  1  0  0  0  0
M  END
>  <MODEL>
4

>  <REMARK>
 VINA RESULT:      -4.0      2.244      4.624
  Name = 
  5 active torsions:
  status: ('A' for Active; 'I' for Inactive)
    1  A    between atoms: C_1  and  O_19
    2  A    between atoms: C_12  and  N_23
    3  A    between atoms: C_12  and  S_27
    4  A    between atoms: C_12  and  C_28
    5  A    between atoms: C_21  and  C_28
                            x       y       z     vdW  Elec       q    Type
                         _______ _______ _______ _____ _____    ______ ____

>  <TORSDO>
F 5

$$$$
=
 OpenBabel10262423493D

 34 38  0  0  1  0  0  0  0  0999 V2000
  182.0360  178.2380  135.5170 C   0  0  2  0  0  3  0  0  0  0  0  0
  184.3640  177.2600  135.2050 C   0  0  0  0  0  0  0  0  0  0  0  0
  186.3210  176.0520  134.4230 O   0  0  0  0  0  0  0  0  0  0  0  0
  182.8330  176.2260  136.9680 C   0  0  2  0  0  3  0  0  0  0  0  0
  184.4920  172.8210  137.8490 C   0  0  0  0  0  2  0  0  0  0  0  0
  184.6460  178.2750  134.5830 O   0  0  0  0  0  0  0  0  0  0  0  0
  184.8130  174.9110  135.9650 C   0  0  1  0  0  3  0  0  0  0  0  0
  186.5360  178.1030  136.8670 N   0  0  0  0  0  2  0  0  0  0  0  0
  187.3540  176.6780  135.1480 C   0  0  1  0  0  3  0  0  0  0  0  0
  186.5620  176.7210  136.4210 C   0  0  2  0  0  3  0  0  0  0  0  0
  182.9290  176.9750  135.6050 C   0  0  1  0  0  3  0  0  0  0  0  0
  185.1360  172.6170  136.6110 O   0  0  0  0  0  0  0  0  0  0  0  0
  183.3440  173.8270  137.7050 C   0  0  2  0  0  3  0  0  0  0  0  0
  189.2910  178.2800  136.7320 S   0  0  0  0  0  0  0  0  0  0  0  0
  182.7180  177.1980  138.1290 C   0  0  0  0  0  0  0  0  0  0  0  0
  189.4210  176.4460  136.5500 C   0  0  0  0  0  2  0  0  0  0  0  0
  181.1150  178.4200  136.7280 C   0  0  0  0  0  2  0  0  0  0  0  0
  185.4410  176.2370  135.5130 C   0  0  2  0  0  0  0  0  0  0  0  0
  182.3810  173.3250  136.8260 O   0  0  0  0  0  1  0  0  0  0  0  0
  185.8230  173.8060  136.2990 C   0  0  0  0  0  2  0  0  0  0  0  0
  183.9160  175.1470  137.1850 C   0  0  2  0  0  3  0  0  0  0  0  0
  181.9060  178.2550  137.9910 C   0  0  0  0  0  3  0  0  0  0  0  0
  188.6260  175.8770  135.3560 C   0  0  0  0  0  2  0  0  0  0  0  0
  187.7240  178.2720  137.7100 C   0  0  0  0  0  2  0  0  0  0  0  0
  180.3290  177.1980  134.5660 C   0  0  0  0  0  1  0  0  0  0  0  0
  181.2760  178.2000  134.3470 O   0  0  0  0  0  0  0  0  0  0  0  0
  183.5760  177.0740  139.3620 C   0  0  0  0  0  2  0  0  0  0  0  0
  183.6210  178.3380  140.2260 C   0  0  1  0  0  3  0  0  0  0  0  0
  181.6430  178.8200  141.7290 C   0  0  0  0  0  0  0  0  0  0  0  0
  180.9990  178.6170  142.9410 O   0  0  0  0  0  1  0  0  0  0  0  0
  182.8760  178.1510  141.4630 N   0  0  0  0  0  2  0  0  0  0  0  0
  181.1320  179.5890  140.8720 O   0  0  0  0  0  0  0  0  0  0  0  0
  185.1610  178.4840  142.3480 C   0  0  0  0  0  1  0  0  0  0  0  0
  185.3330  178.8580  140.5800 S   0  0  0  0  0  0  0  0  0  0  0  0
  1 26  1  6  0  0  0
  1 11  1  0  0  0  0
  1 17  1  0  0  0  0
  2 18  1  0  0  0  0
  3  9  1  0  0  0  0
  4 21  1  0  0  0  0
  4 15  1  1  0  0  0
  6  2  2  0  0  0  0
  7 20  1  1  0  0  0
  7 21  1  0  0  0  0
  8 24  1  0  0  0  0
  9 23  1  1  0  0  0
  9 10  1  0  0  0  0
 10  8  1  6  0  0  0
 11  2  1  1  0  0  0
 11  4  1  0  0  0  0
 12  5  1  0  0  0  0
 13 19  1  6  0  0  0
 13  5  1  0  0  0  0
 14 24  1  0  0  0  0
 15 27  1  0  0  0  0
 16 14  1  0  0  0  0
 17 22  1  0  0  0  0
 18  3  1  6  0  0  0
 18  7  1  0  0  0  0
 18 10  1  0  0  0  0
 20 12  1  0  0  0  0
 21 13  1  0  0  0  0
 22 15  2  0  0  0  0
 23 16  1  0  0  0  0
 26 25  1  0  0  0  0
 27 28  1  0  0  0  0
 28 34  1  0  0  0  0
 28 31  1  0  0  0  0
 29 30  1  0  0  0  0
 31 29  1  0  0  0  0
 32 29  2  0  0  0  0
 34 33  1  0  0  0  0
M  END
>  <MODEL>
5

>  <REMARK>
 VINA RESULT:      -3.8      4.463      7.424
  Name = 
  5 active torsions:
  status: ('A' for Active; 'I' for Inactive)
    1  A    between atoms: C_1  and  O_19
    2  A    between atoms: C_12  and  N_23
    3  A    between atoms: C_12  and  S_27
    4  A    between atoms: C_12  and  C_28
    5  A    between atoms: C_21  and  C_28
                            x       y       z     vdW  Elec       q    Type
                         _______ _______ _______ _____ _____    ______ ____

>  <TORSDO>
F 5

$$$$
=
 OpenBabel10262423493D

 34 38  0  0  1  0  0  0  0  0999 V2000
  182.0090  175.1360  137.8240 C   0  0  2  0  0  3  0  0  0  0  0  0
  181.5660  176.6660  139.8060 C   0  0  0  0  0  0  0  0  0  0  0  0
  180.5550  178.0120  141.5580 O   0  0  0  0  0  0  0  0  0  0  0  0
  182.1790  177.7220  137.5640 C   0  0  2  0  0  3  0  0  0  0  0  0
  181.2360  181.4760  137.9430 C   0  0  0  0  0  2  0  0  0  0  0  0
  181.6750  175.6790  140.5210 O   0  0  0  0  0  0  0  0  0  0  0  0
  180.9320  179.0580  139.3850 C   0  0  1  0  0  3  0  0  0  0  0  0
  183.7260  177.6310  141.4160 N   0  0  0  0  0  2  0  0  0  0  0  0
  181.6560  178.2630  142.4000 C   0  0  1  0  0  3  0  0  0  0  0  0
  182.5910  178.5230  141.2570 C   0  0  2  0  0  3  0  0  0  0  0  0
  181.5080  176.5230  138.2980 C   0  0  1  0  0  3  0  0  0  0  0  0
  180.2170  181.3020  138.9020 O   0  0  0  0  0  0  0  0  0  0  0  0
  181.5080  180.1660  137.1940 C   0  0  2  0  0  3  0  0  0  0  0  0
  184.1440  178.4990  144.0070 S   0  0  0  0  0  0  0  0  0  0  0  0
  183.6500  177.4580  137.2980 C   0  0  0  0  0  0  0  0  0  0  0  0
  182.9840  179.9130  143.7420 C   0  0  0  0  0  2  0  0  0  0  0  0
  182.9520  175.2060  136.6180 C   0  0  0  0  0  2  0  0  0  0  0  0
  181.4070  178.0400  140.4320 C   0  0  2  0  0  0  0  0  0  0  0  0
  180.3620  179.7720  136.4980 O   0  0  0  0  0  1  0  0  0  0  0  0
  180.7380  180.4820  139.9200 C   0  0  0  0  0  2  0  0  0  0  0  0
  181.9160  179.0990  138.2120 C   0  0  2  0  0  3  0  0  0  0  0  0
  184.0070  176.2420  136.8650 C   0  0  0  0  0  3  0  0  0  0  0  0
  181.5710  179.4890  143.2900 C   0  0  0  0  0  2  0  0  0  0  0  0
  184.6910  178.3580  142.2480 C   0  0  0  0  0  2  0  0  0  0  0  0
  180.7820  174.3930  136.1360 C   0  0  0  0  0  1  0  0  0  0  0  0
  180.9180  174.3170  137.5230 O   0  0  0  0  0  0  0  0  0  0  0  0
  184.7150  178.4740  137.6260 C   0  0  0  0  0  2  0  0  0  0  0  0
  186.1300  177.8930  137.7200 C   0  0  1  0  0  3  0  0  0  0  0  0
  187.3950  177.2830  135.6150 C   0  0  0  0  0  0  0  0  0  0  0  0
  188.1650  177.6910  134.5350 O   0  0  0  0  0  0  0  0  0  0  0  0
  186.9190  178.2520  136.5490 N   0  0  0  0  0  2  0  0  0  0  0  0
  187.1200  176.0610  135.7580 O   0  0  0  0  0  1  0  0  0  0  0  0
  188.3810  177.3040  138.9370 C   0  0  0  0  0  1  0  0  0  0  0  0
  186.9780  178.4120  139.2480 S   0  0  0  0  0  0  0  0  0  0  0  0
  1 26  1  6  0  0  0
  1 11  1  0  0  0  0
  2  6  2  0  0  0  0
  3  9  1  0  0  0  0
  4 15  1  1  0  0  0
  4 21  1  0  0  0  0
  4 11  1  0  0  0  0
  5 12  1  0  0  0  0
  7 20  1  1  0  0  0
  7 18  1  0  0  0  0
  8 24  1  0  0  0  0
  9 23  1  1  0  0  0
 10  8  1  1  0  0  0
 10  9  1  0  0  0  0
 11  2  1  1  0  0  0
 12 20  1  0  0  0  0
 13 19  1  1  0  0  0
 13  5  1  0  0  0  0
 13 21  1  0  0  0  0
 15 27  1  0  0  0  0
 16 14  1  0  0  0  0
 17 22  1  0  0  0  0
 17  1  1  0  0  0  0
 18  2  1  6  0  0  0
 18 10  1  0  0  0  0
 18  3  1  0  0  0  0
 21  7  1  0  0  0  0
 22 15  2  0  0  0  0
 23 16  1  0  0  0  0
 24 14  1  0  0  0  0
 25 26  1  0  0  0  0
 27 28  1  0  0  0  0
 28 34  1  0  0  0  0
 29 32  1  0  0  0  0
 29 31  1  0  0  0  0
 30 29  2  0  0  0  0
 31 28  1  0  0  0  0
 33 34  1  0  0  0  0
M  END
>  <MODEL>
6

>  <REMARK>
 VINA RESULT:      -3.7      5.314      9.147
  Name = 
  5 active torsions:
  status: ('A' for Active; 'I' for Inactive)
    1  A    between atoms: C_1  and  O_19
    2  A    between atoms: C_12  and  N_23
    3  A    between atoms: C_12  and  S_27
    4  A    between atoms: C_12  and  C_28
    5  A    between atoms: C_21  and  C_28
                            x       y       z     vdW  Elec       q    Type
                         _______ _______ _______ _____ _____    ______ ____

>  <TORSDO>
F 5

$$$$
=
 OpenBabel10262423493D

 34 38  0  0  1  0  0  0  0  0999 V2000
  183.1940  173.7170  137.6400 C   0  0  2  0  0  3  0  0  0  0  0  0
  181.7870  175.4820  138.8130 C   0  0  0  0  0  0  0  0  0  0  0  0
  179.9820  176.8760  139.6490 O   0  0  0  0  0  0  0  0  0  0  0  0
  183.0430  176.1380  136.6890 C   0  0  2  0  0  3  0  0  0  0  0  0
  181.4500  179.5140  135.5970 C   0  0  0  0  0  2  0  0  0  0  0  0
  181.7660  174.7380  139.7850 O   0  0  0  0  0  0  0  0  0  0  0  0
  180.9980  177.4770  137.5130 C   0  0  1  0  0  3  0  0  0  0  0  0
  182.9800  177.2970  140.6760 N   0  0  0  0  0  2  0  0  0  0  0  0
  180.6190  177.5790  140.6900 C   0  0  1  0  0  3  0  0  0  0  0  0
  181.8690  177.8110  139.8940 C   0  0  2  0  0  3  0  0  0  0  0  0
  182.3380  174.9990  137.4860 C   0  0  1  0  0  3  0  0  0  0  0  0
  180.1810  179.3010  136.1740 O   0  0  0  0  0  0  0  0  0  0  0  0
  182.1910  178.1850  135.4070 C   0  0  2  0  0  3  0  0  0  0  0  0
  182.2260  178.7920  142.8750 S   0  0  0  0  0  0  0  0  0  0  0  0
  184.5250  176.2070  137.0130 C   0  0  0  0  0  0  0  0  0  0  0  0
  181.0510  179.7690  141.8350 C   0  0  0  0  0  2  0  0  0  0  0  0
  184.5050  173.7590  136.8470 C   0  0  0  0  0  2  0  0  0  0  0  0
  181.1860  176.8720  138.9110 C   0  0  2  0  0  0  0  0  0  0  0  0
  181.4790  177.3680  134.5250 O   0  0  0  0  0  1  0  0  0  0  0  0
  180.3920  178.8860  137.5030 C   0  0  0  0  0  2  0  0  0  0  0  0
  182.3380  177.5100  136.7720 C   0  0  2  0  0  3  0  0  0  0  0  0
  185.2070  175.0580  137.1050 C   0  0  0  0  0  3  0  0  0  0  0  0
  180.0070  178.9080  141.0930 C   0  0  0  0  0  2  0  0  0  0  0  0
  183.4230  178.4120  141.5200 C   0  0  0  0  0  2  0  0  0  0  0  0
  183.3850  171.5840  137.0770 C   0  0  0  0  0  1  0  0  0  0  0  0
  182.4470  172.6010  137.2580 O   0  0  0  0  0  0  0  0  0  0  0  0
  185.2070  177.5080  137.3520 C   0  0  0  0  0  2  0  0  0  0  0  0
  186.3890  177.8540  136.4400 C   0  0  1  0  0  3  0  0  0  0  0  0
  188.7140  178.1230  137.4010 C   0  0  0  0  0  0  0  0  0  0  0  0
  189.8810  177.5300  137.8640 O   0  0  0  0  0  1  0  0  0  0  0  0
  187.6310  177.3030  136.9640 N   0  0  0  0  0  2  0  0  0  0  0  0
  188.6210  179.3790  137.3740 O   0  0  0  0  0  0  0  0  0  0  0  0
  187.7990  176.6430  134.5850 C   0  0  0  0  0  1  0  0  0  0  0  0
  186.1110  177.2950  134.7270 S   0  0  0  0  0  0  0  0  0  0  0  0
  1 26  1  6  0  0  0
  2  6  2  0  0  0  0
  3  9  1  0  0  0  0
  4 21  1  0  0  0  0
  4 15  1  1  0  0  0
  4 11  1  0  0  0  0
  5 12  1  0  0  0  0
  7 20  1  1  0  0  0
  7 18  1  0  0  0  0
  8 24  1  0  0  0  0
  9 23  1  6  0  0  0
 10  8  1  1  0  0  0
 10  9  1  0  0  0  0
 11  1  1  0  0  0  0
 11  2  1  1  0  0  0
 12 20  1  0  0  0  0
 13 19  1  6  0  0  0
 13  5  1  0  0  0  0
 13 21  1  0  0  0  0
 15 22  2  0  0  0  0
 15 27  1  0  0  0  0
 16 14  1  0  0  0  0
 17 22  1  0  0  0  0
 17  1  1  0  0  0  0
 18  2  1  6  0  0  0
 18  3  1  0  0  0  0
 18 10  1  0  0  0  0
 21  7  1  0  0  0  0
 23 16  1  0  0  0  0
 24 14  1  0  0  0  0
 25 26  1  0  0  0  0
 28 31  1  0  0  0  0
 28 27  1  0  0  0  0
 29 30  1  0  0  0  0
 31 29  1  0  0  0  0
 32 29  2  0  0  0  0
 33 34  1  0  0  0  0
 34 28  1  0  0  0  0
M  END
>  <MODEL>
7

>  <REMARK>
 VINA RESULT:      -3.5      5.310      8.615
  Name = 
  5 active torsions:
  status: ('A' for Active; 'I' for Inactive)
    1  A    between atoms: C_1  and  O_19
    2  A    between atoms: C_12  and  N_23
    3  A    between atoms: C_12  and  S_27
    4  A    between atoms: C_12  and  C_28
    5  A    between atoms: C_21  and  C_28
                            x       y       z     vdW  Elec       q    Type
                         _______ _______ _______ _____ _____    ______ ____

>  <TORSDO>
F 5

$$$$
=
 OpenBabel10262423493D

 34 38  0  0  1  0  0  0  0  0999 V2000
  182.2400  178.7130  142.6380 C   0  0  2  0  0  3  0  0  0  0  0  0
  181.2960  179.4530  140.3950 C   0  0  0  0  0  0  0  0  0  0  0  0
  179.9820  179.7170  138.3690 O   0  0  0  0  0  0  0  0  0  0  0  0
  183.3390  177.9220  140.4130 C   0  0  2  0  0  3  0  0  0  0  0  0
  183.6020  176.5740  136.7740 C   0  0  0  0  0  2  0  0  0  0  0  0
  180.6720  180.3110  141.0040 O   0  0  0  0  0  0  0  0  0  0  0  0
  181.8020  178.0910  138.3480 C   0  0  1  0  0  3  0  0  0  0  0  0
  182.3850  181.7190  139.0290 N   0  0  0  0  0  2  0  0  0  0  0  0
  180.4480  180.9540  137.8820 C   0  0  1  0  0  3  0  0  0  0  0  0
  181.8810  180.6430  138.1950 C   0  0  2  0  0  3  0  0  0  0  0  0
  182.0350  178.3610  141.1430 C   0  0  1  0  0  3  0  0  0  0  0  0
  182.2330  176.6740  136.4540 O   0  0  0  0  0  0  0  0  0  0  0  0
  183.8060  176.5610  138.2940 C   0  0  2  0  0  3  0  0  0  0  0  0
  181.5590  183.6250  137.2060 S   0  0  0  0  0  0  0  0  0  0  0  0
  184.5370  178.7310  140.8810 C   0  0  0  0  0  0  0  0  0  0  0  0
  181.2620  182.3140  135.9380 C   0  0  0  0  0  2  0  0  0  0  0  0
  183.6530  178.4130  143.1480 C   0  0  0  0  0  2  0  0  0  0  0  0
  181.2680  179.4300  138.8770 C   0  0  2  0  0  0  0  0  0  0  0  0
  183.1780  175.4410  138.8460 O   0  0  0  0  0  1  0  0  0  0  0  0
  181.8130  177.9670  136.8200 C   0  0  0  0  0  2  0  0  0  0  0  0
  183.2200  177.8490  138.8750 C   0  0  2  0  0  3  0  0  0  0  0  0
  184.6620  178.9740  142.1920 C   0  0  0  0  0  3  0  0  0  0  0  0
  180.2840  181.2110  136.3960 C   0  0  0  0  0  2  0  0  0  0  0  0
  182.9040  182.7320  138.1040 C   0  0  0  0  0  2  0  0  0  0  0  0
  180.5830  179.0330  144.0720 C   0  0  0  0  0  1  0  0  0  0  0  0
  181.3020  178.0320  143.4170 O   0  0  0  0  0  0  0  0  0  0  0  0
  185.5020  179.3620  139.9100 C   0  0  0  0  0  2  0  0  0  0  0  0
  186.6120  178.4220  139.4270 C   0  0  1  0  0  3  0  0  0  0  0  0
  187.2570  177.3740  137.2170 C   0  0  0  0  0  0  0  0  0  0  0  0
  187.3740  177.4910  135.8390 O   0  0  0  0  0  0  0  0  0  0  0  0
  186.7370  178.4640  137.9770 N   0  0  0  0  0  2  0  0  0  0  0  0
  187.6070  176.3040  137.7830 O   0  0  0  0  0  1  0  0  0  0  0  0
  188.0640  177.3900  141.3570 C   0  0  0  0  0  1  0  0  0  0  0  0
  188.2110  178.7970  140.2200 S   0  0  0  0  0  0  0  0  0  0  0  0
  1 17  1  0  0  0  0
  1 26  1  1  0  0  0
  2  6  2  0  0  0  0
  4 15  1  6  0  0  0
  4 11  1  0  0  0  0
  5 13  1  0  0  0  0
  7 20  1  6  0  0  0
  7 21  1  0  0  0  0
  7 18  1  0  0  0  0
  9 23  1  6  0  0  0
  9 10  1  0  0  0  0
  9  3  1  0  0  0  0
 10 18  1  0  0  0  0
 10  8  1  1  0  0  0
 11  2  1  6  0  0  0
 11  1  1  0  0  0  0
 12  5  1  0  0  0  0
 12 20  1  0  0  0  0
 13 19  1  1  0  0  0
 13 21  1  0  0  0  0
 14 24  1  0  0  0  0
 15 22  2  0  0  0  0
 16 23  1  0  0  0  0
 16 14  1  0  0  0  0
 18  3  1  6  0  0  0
 18  2  1  0  0  0  0
 21  4  1  0  0  0  0
 22 17  1  0  0  0  0
 24  8  1  0  0  0  0
 26 25  1  0  0  0  0
 27 15  1  0  0  0  0
 28 27  1  0  0  0  0
 28 34  1  0  0  0  0
 29 32  1  0  0  0  0
 29 31  1  0  0  0  0
 30 29  2  0  0  0  0
 31 28  1  0  0  0  0
 34 33  1  0  0  0  0
M  END
>  <MODEL>
8

>  <REMARK>
 VINA RESULT:      -3.2      5.520      9.225
  Name = 
  5 active torsions:
  status: ('A' for Active; 'I' for Inactive)
    1  A    between atoms: C_1  and  O_19
    2  A    between atoms: C_12  and  N_23
    3  A    between atoms: C_12  and  S_27
    4  A    between atoms: C_12  and  C_28
    5  A    between atoms: C_21  and  C_28
                            x       y       z     vdW  Elec       q    Type
                         _______ _______ _______ _____ _____    ______ ____

>  <TORSDO>
F 5

$$$$
=
 OpenBabel10262423493D

 34 38  0  0  1  0  0  0  0  0999 V2000
  181.2770  177.2920  135.5120 C   0  0  2  0  0  3  0  0  0  0  0  0
  183.7520  176.8160  135.1660 C   0  0  0  0  0  0  0  0  0  0  0  0
  185.9060  176.0470  134.3480 O   0  0  0  0  0  0  0  0  0  0  0  0
  182.4830  175.4620  136.9200 C   0  0  2  0  0  3  0  0  0  0  0  0
  184.8110  172.4530  137.7270 C   0  0  0  0  0  2  0  0  0  0  0  0
  183.8140  177.8770  134.5610 O   0  0  0  0  0  0  0  0  0  0  0  0
  184.6790  174.5960  135.8800 C   0  0  1  0  0  3  0  0  0  0  0  0
  185.7230  178.0570  136.8280 N   0  0  0  0  0  2  0  0  0  0  0  0
  186.7970  176.8580  135.0780 C   0  0  1  0  0  3  0  0  0  0  0  0
  186.0260  176.7170  136.3560 C   0  0  2  0  0  3  0  0  0  0  0  0
  182.4100  176.2370  135.5700 C   0  0  1  0  0  3  0  0  0  0  0  0
  185.4710  172.4060  136.4810 O   0  0  0  0  0  0  0  0  0  0  0  0
  183.4810  173.2060  137.6100 C   0  0  2  0  0  3  0  0  0  0  0  0
  188.3830  178.7950  136.6780 S   0  0  0  0  0  0  0  0  0  0  0  0
  182.1840  176.3700  138.0990 C   0  0  0  0  0  0  0  0  0  0  0  0
  188.8830  177.0300  136.4610 C   0  0  0  0  0  2  0  0  0  0  0  0
  180.3510  177.2620  136.7320 C   0  0  0  0  0  2  0  0  0  0  0  0
  185.0190  176.0290  135.4470 C   0  0  2  0  0  0  0  0  0  0  0  0
  182.6320  172.5320  136.7270 O   0  0  0  0  0  1  0  0  0  0  0  0
  185.8970  173.7150  136.1860 C   0  0  0  0  0  2  0  0  0  0  0  0
  183.7660  174.6230  137.1090 C   0  0  2  0  0  3  0  0  0  0  0  0
  181.1720  177.2410  137.9860 C   0  0  0  0  0  3  0  0  0  0  0  0
  188.2080  176.3310  135.2620 C   0  0  0  0  0  2  0  0  0  0  0  0
  186.8600  178.4510  137.6670 C   0  0  0  0  0  2  0  0  0  0  0  0
  180.1460  175.7760  134.3610 C   0  0  0  0  0  1  0  0  0  0  0  0
  180.5290  177.1190  134.3460 O   0  0  0  0  0  0  0  0  0  0  0  0
  183.0620  176.4030  139.3240 C   0  0  0  0  0  2  0  0  0  0  0  0
  183.5760  177.7990  139.6920 C   0  0  1  0  0  3  0  0  0  0  0  0
  183.0280  180.1480  138.9250 C   0  0  0  0  0  0  0  0  0  0  0  0
  182.0670  181.0870  138.5770 O   0  0  0  0  0  0  0  0  0  0  0  0
  182.6260  178.8270  139.2890 N   0  0  0  0  0  2  0  0  0  0  0  0
  184.2460  180.4690  138.9120 O   0  0  0  0  0  1  0  0  0  0  0  0
  185.5560  178.7270  141.1450 C   0  0  0  0  0  1  0  0  0  0  0  0
  183.9550  177.9370  141.4700 S   0  0  0  0  0  0  0  0  0  0  0  0
  1 26  1  6  0  0  0
  1 11  1  0  0  0  0
  1 17  1  0  0  0  0
  2 18  1  0  0  0  0
  3  9  1  0  0  0  0
  4 21  1  0  0  0  0
  4 15  1  1  0  0  0
  6  2  2  0  0  0  0
  7 20  1  1  0  0  0
  7 21  1  0  0  0  0
  8 24  1  0  0  0  0
  9 23  1  1  0  0  0
  9 10  1  0  0  0  0
 10  8  1  6  0  0  0
 11  2  1  1  0  0  0
 11  4  1  0  0  0  0
 12  5  1  0  0  0  0
 13 19  1  6  0  0  0
 13  5  1  0  0  0  0
 14 24  1  0  0  0  0
 15 27  1  0  0  0  0
 16 14  1  0  0  0  0
 17 22  1  0  0  0  0
 18  3  1  6  0  0  0
 18  7  1  0  0  0  0
 18 10  1  0  0  0  0
 20 12  1  0  0  0  0
 21 13  1  0  0  0  0
 22 15  2  0  0  0  0
 23 16  1  0  0  0  0
 26 25  1  0  0  0  0
 27 28  1  0  0  0  0
 28 34  1  0  0  0  0
 29 31  1  0  0  0  0
 30 29  2  0  0  0  0
 31 28  1  0  0  0  0
 32 29  1  0  0  0  0
 33 34  1  0  0  0  0
M  END
>  <MODEL>
9

>  <REMARK>
 VINA RESULT:      -3.1      4.720      7.716
  Name = 
  5 active torsions:
  status: ('A' for Active; 'I' for Inactive)
    1  A    between atoms: C_1  and  O_19
    2  A    between atoms: C_12  and  N_23
    3  A    between atoms: C_12  and  S_27
    4  A    between atoms: C_12  and  C_28
    5  A    between atoms: C_21  and  C_28
                            x       y       z     vdW  Elec       q    Type
                         _______ _______ _______ _____ _____    ______ ____

>  <TORSDO>
F 5

$$$$
