=
 OpenBabel10272401023D

 27 30  0  0  1  0  0  0  0  0999 V2000
  189.0690  177.0240  141.5190 C   0  0  1  0  0  3  0  0  0  0  0  0
  187.6460  177.3700  141.9870 C   0  0  2  0  0  3  0  0  0  0  0  0
  184.2040  179.4350  143.6140 C   0  0  0  0  0  3  0  0  0  0  0  0
  182.4500  179.4560  145.1410 F   0  0  0  0  0  0  0  0  0  0  0  0
  187.1230  178.6140  141.2640 C   0  0  0  0  0  2  0  0  0  0  0  0
  185.9480  177.9980  145.3870 C   0  0  0  0  0  2  0  0  0  0  0  0
  184.4730  178.1840  145.7620 C   0  0  0  0  0  2  0  0  0  0  0  0
  187.5250  177.5190  143.5070 C   0  0  0  0  0  2  0  0  0  0  0  0
  183.7200  179.0970  144.8200 C   0  0  0  0  0  0  0  0  0  0  0  0
  185.6000  179.0760  143.1880 C   0  0  1  0  0  3  0  0  0  0  0  0
  186.0770  177.8000  143.8860 C   0  0  2  0  0  3  0  0  0  0  0  0
  185.6820  178.9120  141.6750 C   0  0  0  0  0  2  0  0  0  0  0  0
  189.5520  177.6280  140.1740 C   0  0  0  0  0  0  0  0  0  0  0  0
  192.1060  177.6640  140.3560 O   0  0  0  0  0  0  0  0  0  0  0  0
  190.7170  175.0470  138.5290 O   0  0  0  0  0  0  0  0  0  0  0  0
  190.8270  177.1650  137.1810 O   0  0  0  0  0  0  0  0  0  0  0  0
  189.2900  178.9880  140.1240 F   0  0  0  0  0  0  0  0  0  0  0  0
  190.4410  176.5230  138.4840 S   0  0  0  0  0  0  0  0  0  0  0  0
  188.8480  176.9470  139.0170 C   0  0  0  0  0  0  0  0  0  0  0  0
  187.7020  176.7770  138.6350 O   0  0  0  0  0  0  0  0  0  0  0  0
  191.0220  177.3790  139.8740 C   0  0  0  0  0  0  0  0  0  0  0  0
  191.5670  176.0450  144.1210 C   0  0  0  0  0  3  0  0  0  0  0  0
  190.4140  178.4670  143.0660 C   0  0  0  0  0  2  0  0  0  0  0  0
  190.0540  177.1250  142.5960 N   0  0  0  0  0  0  0  0  0  0  0  0
  190.7770  175.9680  143.0500 C   0  0  0  0  0  3  0  0  0  0  0  0
  191.6900  177.3140  144.8530 C   0  0  0  0  0  3  0  0  0  0  0  0
  191.1290  178.4310  144.3900 C   0  0  0  0  0  3  0  0  0  0  0  0
  1 13  1  6  0  0  0
  1 24  1  0  0  0  0
  2  1  1  1  0  0  0
  2  8  1  0  0  0  0
  3  9  2  0  0  0  0
  5 12  1  0  0  0  0
  5  2  1  0  0  0  0
  6  7  1  0  0  0  0
  9  4  1  0  0  0  0
  9  7  1  0  0  0  0
 10 12  1  6  0  0  0
 10  3  1  0  0  0  0
 10 11  1  0  0  0  0
 11  8  1  1  0  0  0
 11  6  1  0  0  0  0
 16 18  2  0  0  0  0
 17 13  1  0  0  0  0
 18 15  2  0  0  0  0
 18 19  1  0  0  0  0
 18 21  1  0  0  0  0
 19 13  1  0  0  0  0
 20 19  2  0  0  0  0
 21 13  1  0  0  0  0
 21 14  2  0  0  0  0
 22 26  1  0  0  0  0
 23 27  1  0  0  0  0
 24 25  1  0  0  0  0
 24 23  1  0  0  0  0
 25 22  2  0  0  0  0
 27 26  2  0  0  0  0
M  END
>  <MODEL>
1

>  <REMARK>
 VINA RESULT:      -8.6      0.000      0.000
  Name = 
  3 active torsions:
  status: ('A' for Active; 'I' for Inactive)
    1  A    between atoms: C_1  and  C_15
    2  A    between atoms: C_2  and  C_15
    3  A    between atoms: N_11  and  C_15
                            x       y       z     vdW  Elec       q    Type
                         _______ _______ _______ _____ _____    ______ ____

>  <TORSDO>
F 3

$$$$
=
 OpenBabel10272401023D

 27 30  0  0  1  0  0  0  0  0999 V2000
  187.6200  177.9920  144.8960 C   0  0  1  0  0  3  0  0  0  0  0  0
  186.5050  177.8880  143.8430 C   0  0  2  0  0  3  0  0  0  0  0  0
  183.5510  178.8510  140.8240 C   0  0  0  0  0  3  0  0  0  0  0  0
  181.3360  178.7560  140.1250 F   0  0  0  0  0  0  0  0  0  0  0  0
  186.9800  178.4310  142.4920 C   0  0  0  0  0  2  0  0  0  0  0  0
  182.8390  179.0460  143.6000 C   0  0  0  0  0  2  0  0  0  0  0  0
  181.7520  178.7540  142.5590 C   0  0  0  0  0  2  0  0  0  0  0  0
  185.1950  178.5530  144.2780 C   0  0  0  0  0  2  0  0  0  0  0  0
  182.2430  178.8440  141.1310 C   0  0  0  0  0  0  0  0  0  0  0  0
  184.6150  178.9480  141.8820 C   0  0  1  0  0  3  0  0  0  0  0  0
  184.1320  178.3520  143.2050 C   0  0  2  0  0  3  0  0  0  0  0  0
  185.8970  178.2590  141.4290 C   0  0  0  0  0  2  0  0  0  0  0  0
  187.3230  177.4410  146.3150 C   0  0  0  0  0  0  0  0  0  0  0  0
  189.4090  176.0930  146.9400 O   0  0  0  0  0  0  0  0  0  0  0  0
  189.1730  179.2960  148.2790 O   0  0  0  0  0  0  0  0  0  0  0  0
  187.7770  177.6480  149.5640 O   0  0  0  0  0  0  0  0  0  0  0  0
  186.3810  176.4260  146.2620 F   0  0  0  0  0  0  0  0  0  0  0  0
  188.1600  178.1890  148.2150 S   0  0  0  0  0  0  0  0  0  0  0  0
  186.8000  178.5520  147.2050 C   0  0  0  0  0  0  0  0  0  0  0  0
  185.8640  179.3330  147.2120 O   0  0  0  0  0  0  0  0  0  0  0  0
  188.5550  176.9560  147.0640 C   0  0  0  0  0  0  0  0  0  0  0  0
  190.2830  175.9820  143.2130 C   0  0  0  0  0  3  0  0  0  0  0  0
  190.0410  178.5300  144.5360 C   0  0  0  0  0  2  0  0  0  0  0  0
  188.9260  177.5930  144.3720 N   0  0  0  0  0  0  0  0  0  0  0  0
  189.0720  176.4100  143.5670 C   0  0  0  0  0  3  0  0  0  0  0  0
  191.4790  176.7100  143.6590 C   0  0  0  0  0  3  0  0  0  0  0  0
  191.3750  177.8730  144.3030 C   0  0  0  0  0  3  0  0  0  0  0  0
  1 24  1  6  0  0  0
  1 13  1  0  0  0  0
  2  8  1  0  0  0  0
  2  1  1  1  0  0  0
  3  9  2  0  0  0  0
  4  9  1  0  0  0  0
  5  2  1  0  0  0  0
  7  6  1  0  0  0  0
  9  7  1  0  0  0  0
 10  3  1  6  0  0  0
 10 11  1  0  0  0  0
 11  6  1  1  0  0  0
 11  8  1  0  0  0  0
 12 10  1  0  0  0  0
 12  5  1  0  0  0  0
 13 21  1  0  0  0  0
 13 19  1  0  0  0  0
 14 21  2  0  0  0  0
 17 13  1  0  0  0  0
 18 15  2  0  0  0  0
 18 16  2  0  0  0  0
 19 20  2  0  0  0  0
 19 18  1  0  0  0  0
 21 18  1  0  0  0  0
 22 25  2  0  0  0  0
 22 26  1  0  0  0  0
 24 23  1  0  0  0  0
 25 24  1  0  0  0  0
 26 27  2  0  0  0  0
 27 23  1  0  0  0  0
M  END
>  <MODEL>
2

>  <REMARK>
 VINA RESULT:      -8.4      4.514      5.706
  Name = 
  3 active torsions:
  status: ('A' for Active; 'I' for Inactive)
    1  A    between atoms: C_1  and  C_15
    2  A    between atoms: C_2  and  C_15
    3  A    between atoms: N_11  and  C_15
                            x       y       z     vdW  Elec       q    Type
                         _______ _______ _______ _____ _____    ______ ____

>  <TORSDO>
F 3

$$$$
=
 OpenBabel10272401023D

 27 30  0  0  1  0  0  0  0  0999 V2000
  189.5480  177.1740  139.4740 C   0  0  1  0  0  3  0  0  0  0  0  0
  189.6710  177.6150  140.9420 C   0  0  2  0  0  3  0  0  0  0  0  0
  190.2370  177.6200  145.2370 C   0  0  0  0  0  3  0  0  0  0  0  0
  189.3980  178.1430  147.3410 F   0  0  0  0  0  0  0  0  0  0  0  0
  191.0490  177.2590  141.5040 C   0  0  0  0  0  2  0  0  0  0  0  0
  187.6370  177.0400  144.1630 C   0  0  0  0  0  2  0  0  0  0  0  0
  187.7580  177.6580  145.5600 C   0  0  0  0  0  2  0  0  0  0  0  0
  188.5500  177.0730  141.8350 C   0  0  0  0  0  2  0  0  0  0  0  0
  189.1830  177.7540  146.0580 C   0  0  0  0  0  0  0  0  0  0  0  0
  190.0800  177.1910  143.8040 C   0  0  1  0  0  3  0  0  0  0  0  0
  188.7140  177.6060  143.2530 C   0  0  2  0  0  3  0  0  0  0  0  0
  191.1950  177.7640  142.9380 C   0  0  0  0  0  2  0  0  0  0  0  0
  188.8920  178.1650  138.4770 C   0  0  0  0  0  0  0  0  0  0  0  0
  189.9280  177.5850  136.2080 O   0  0  0  0  0  0  0  0  0  0  0  0
  186.7480  176.3160  136.8320 O   0  0  0  0  0  0  0  0  0  0  0  0
  186.6630  178.7270  136.1280 O   0  0  0  0  0  0  0  0  0  0  0  0
  189.3910  179.4450  138.6560 F   0  0  0  0  0  0  0  0  0  0  0  0
  187.3010  177.7000  137.0210 S   0  0  0  0  0  0  0  0  0  0  0  0
  187.3900  178.1890  138.6810 C   0  0  0  0  0  0  0  0  0  0  0  0
  186.6080  178.4360  139.5840 O   0  0  0  0  0  0  0  0  0  0  0  0
  189.0320  177.7610  137.0180 C   0  0  0  0  0  0  0  0  0  0  0  0
  193.1340  176.7060  138.5350 C   0  0  0  0  0  3  0  0  0  0  0  0
  190.6910  175.1790  138.4770 C   0  0  0  0  0  2  0  0  0  0  0  0
  190.7750  176.5570  138.9690 N   0  0  0  0  0  0  0  0  0  0  0  0
  192.0480  177.2090  139.1190 C   0  0  0  0  0  3  0  0  0  0  0  0
  193.0320  175.4870  137.7190 C   0  0  0  0  0  3  0  0  0  0  0  0
  191.8950  174.7940  137.6590 C   0  0  0  0  0  3  0  0  0  0  0  0
  1 13  1  6  0  0  0
  2  1  1  6  0  0  0
  2  5  1  0  0  0  0
  2  8  1  0  0  0  0
  3  9  2  0  0  0  0
  5 12  1  0  0  0  0
  6  7  1  0  0  0  0
  7  9  1  0  0  0  0
  9  4  1  0  0  0  0
 10 12  1  6  0  0  0
 10  3  1  0  0  0  0
 11  8  1  6  0  0  0
 11 10  1  0  0  0  0
 11  6  1  0  0  0  0
 13 17  1  0  0  0  0
 13 19  1  0  0  0  0
 14 21  2  0  0  0  0
 15 18  2  0  0  0  0
 16 18  2  0  0  0  0
 18 19  1  0  0  0  0
 19 20  2  0  0  0  0
 21 18  1  0  0  0  0
 21 13  1  0  0  0  0
 22 25  2  0  0  0  0
 23 24  1  0  0  0  0
 24 25  1  0  0  0  0
 24  1  1  0  0  0  0
 26 22  1  0  0  0  0
 27 26  2  0  0  0  0
 27 23  1  0  0  0  0
M  END
>  <MODEL>
3

>  <REMARK>
 VINA RESULT:      -8.0      2.868      4.553
  Name = 
  3 active torsions:
  status: ('A' for Active; 'I' for Inactive)
    1  A    between atoms: C_1  and  C_15
    2  A    between atoms: C_2  and  C_15
    3  A    between atoms: N_11  and  C_15
                            x       y       z     vdW  Elec       q    Type
                         _______ _______ _______ _____ _____    ______ ____

>  <TORSDO>
F 3

$$$$
=
 OpenBabel10272401023D

 27 30  0  0  1  0  0  0  0  0999 V2000
  190.2830  176.4850  145.5820 C   0  0  1  0  0  3  0  0  0  0  0  0
  189.0050  177.3390  145.6200 C   0  0  2  0  0  3  0  0  0  0  0  0
  184.8870  178.6210  146.0230 C   0  0  0  0  0  3  0  0  0  0  0  0
  183.0410  179.6680  145.0740 F   0  0  0  0  0  0  0  0  0  0  0  0
  188.3380  177.2580  146.9960 C   0  0  0  0  0  2  0  0  0  0  0  0
  185.7920  177.5730  143.5070 C   0  0  0  0  0  2  0  0  0  0  0  0
  184.6330  178.5750  143.5350 C   0  0  0  0  0  2  0  0  0  0  0  0
  188.0130  176.9990  144.5030 C   0  0  0  0  0  2  0  0  0  0  0  0
  184.1590  178.9120  144.9320 C   0  0  0  0  0  0  0  0  0  0  0  0
  186.1360  177.7870  145.9470 C   0  0  1  0  0  3  0  0  0  0  0  0
  186.8090  177.9280  144.5800 C   0  0  2  0  0  3  0  0  0  0  0  0
  187.1100  178.1650  147.0560 C   0  0  0  0  0  2  0  0  0  0  0  0
  191.1700  176.5750  144.3120 C   0  0  0  0  0  0  0  0  0  0  0  0
  190.0870  174.9570  142.6470 O   0  0  0  0  0  0  0  0  0  0  0  0
  189.3670  178.3350  142.2200 O   0  0  0  0  0  0  0  0  0  0  0  0
  191.6160  177.7380  141.2710 O   0  0  0  0  0  0  0  0  0  0  0  0
  192.3850  175.9420  144.5150 F   0  0  0  0  0  0  0  0  0  0  0  0
  190.6790  177.6380  142.4420 S   0  0  0  0  0  0  0  0  0  0  0  0
  191.4230  178.0270  143.9570 C   0  0  0  0  0  0  0  0  0  0  0  0
  191.9190  179.0080  144.4840 O   0  0  0  0  0  0  0  0  0  0  0  0
  190.5110  176.0260  143.0550 C   0  0  0  0  0  0  0  0  0  0  0  0
  191.6630  177.7660  148.8090 C   0  0  0  0  0  3  0  0  0  0  0  0
  191.8270  175.3730  147.2120 C   0  0  0  0  0  2  0  0  0  0  0  0
  191.0390  176.5490  146.8320 N   0  0  0  0  0  0  0  0  0  0  0  0
  190.8710  177.6490  147.7440 C   0  0  0  0  0  3  0  0  0  0  0  0
  192.7250  176.7780  149.0480 C   0  0  0  0  0  3  0  0  0  0  0  0
  192.8290  175.6850  148.2920 C   0  0  0  0  0  3  0  0  0  0  0  0
  1 13  1  6  0  0  0
  1 24  1  0  0  0  0
  2  1  1  1  0  0  0
  2  5  1  0  0  0  0
  5 12  1  0  0  0  0
  6  7  1  0  0  0  0
  7  9  1  0  0  0  0
  8 11  1  0  0  0  0
  8  2  1  0  0  0  0
  9  4  1  0  0  0  0
  9  3  2  0  0  0  0
 10  3  1  6  0  0  0
 10 12  1  0  0  0  0
 11  6  1  6  0  0  0
 11 10  1  0  0  0  0
 13 17  1  0  0  0  0
 14 21  2  0  0  0  0
 15 18  2  0  0  0  0
 16 18  2  0  0  0  0
 18 21  1  0  0  0  0
 18 19  1  0  0  0  0
 19 13  1  0  0  0  0
 19 20  2  0  0  0  0
 21 13  1  0  0  0  0
 22 26  1  0  0  0  0
 23 27  1  0  0  0  0
 24 23  1  0  0  0  0
 24 25  1  0  0  0  0
 25 22  2  0  0  0  0
 27 26  2  0  0  0  0
M  END
>  <MODEL>
4

>  <REMARK>
 VINA RESULT:      -8.0      2.858      4.346
  Name = 
  3 active torsions:
  status: ('A' for Active; 'I' for Inactive)
    1  A    between atoms: C_1  and  C_15
    2  A    between atoms: C_2  and  C_15
    3  A    between atoms: N_11  and  C_15
                            x       y       z     vdW  Elec       q    Type
                         _______ _______ _______ _____ _____    ______ ____

>  <TORSDO>
F 3

$$$$
=
 OpenBabel10272401023D

 27 30  0  0  1  0  0  0  0  0999 V2000
  188.5100  177.4840  144.4390 C   0  0  1  0  0  3  0  0  0  0  0  0
  187.1200  178.1400  144.3990 C   0  0  2  0  0  3  0  0  0  0  0  0
  182.8380  178.7890  144.4730 C   0  0  0  0  0  3  0  0  0  0  0  0
  180.9450  179.6160  143.4070 F   0  0  0  0  0  0  0  0  0  0  0  0
  186.3570  177.8790  145.7000 C   0  0  0  0  0  2  0  0  0  0  0  0
  184.1030  178.0400  142.0060 C   0  0  0  0  0  2  0  0  0  0  0  0
  182.8090  178.8620  141.9740 C   0  0  0  0  0  2  0  0  0  0  0  0
  186.2900  177.7310  143.1780 C   0  0  0  0  0  2  0  0  0  0  0  0
  182.1720  179.0390  143.3340 C   0  0  0  0  0  0  0  0  0  0  0  0
  184.1990  178.1500  144.4750 C   0  0  1  0  0  3  0  0  0  0  0  0
  184.9580  178.4700  143.1860 C   0  0  2  0  0  3  0  0  0  0  0  0
  185.0070  178.5940  145.6880 C   0  0  0  0  0  2  0  0  0  0  0  0
  189.5250  177.8800  143.3350 C   0  0  0  0  0  0  0  0  0  0  0  0
  191.4120  179.0770  144.5850 O   0  0  0  0  0  0  0  0  0  0  0  0
  191.9820  175.7510  143.7310 O   0  0  0  0  0  0  0  0  0  0  0  0
  192.3590  177.2890  141.7790 O   0  0  0  0  0  0  0  0  0  0  0  0
  189.0350  178.9250  142.5680 F   0  0  0  0  0  0  0  0  0  0  0  0
  191.4520  176.8930  142.9100 S   0  0  0  0  0  0  0  0  0  0  0  0
  189.7990  176.6930  142.4320 C   0  0  0  0  0  0  0  0  0  0  0  0
  189.1620  175.9470  141.7070 O   0  0  0  0  0  0  0  0  0  0  0  0
  190.9070  178.2350  143.8610 C   0  0  0  0  0  0  0  0  0  0  0  0
  189.2910  178.4740  147.9560 C   0  0  0  0  0  3  0  0  0  0  0  0
  189.9530  176.3390  146.1380 C   0  0  0  0  0  2  0  0  0  0  0  0
  189.0830  177.4640  145.7850 N   0  0  0  0  0  0  0  0  0  0  0  0
  188.6640  178.4120  146.7820 C   0  0  0  0  0  3  0  0  0  0  0  0
  190.4260  177.5810  148.2320 C   0  0  0  0  0  3  0  0  0  0  0  0
  190.7610  176.6130  147.3790 C   0  0  0  0  0  3  0  0  0  0  0  0
  1 13  1  6  0  0  0
  1 24  1  0  0  0  0
  2  1  1  1  0  0  0
  2  5  1  0  0  0  0
  7  6  1  0  0  0  0
  7  9  1  0  0  0  0
  8 11  1  0  0  0  0
  8  2  1  0  0  0  0
  9  4  1  0  0  0  0
  9  3  2  0  0  0  0
 10  3  1  6  0  0  0
 10 12  1  0  0  0  0
 11  6  1  6  0  0  0
 11 10  1  0  0  0  0
 12  5  1  0  0  0  0
 13 21  1  0  0  0  0
 16 18  2  0  0  0  0
 17 13  1  0  0  0  0
 18 15  2  0  0  0  0
 18 21  1  0  0  0  0
 19 18  1  0  0  0  0
 19 13  1  0  0  0  0
 20 19  2  0  0  0  0
 21 14  2  0  0  0  0
 22 26  1  0  0  0  0
 23 27  1  0  0  0  0
 24 23  1  0  0  0  0
 24 25  1  0  0  0  0
 25 22  2  0  0  0  0
 27 26  2  0  0  0  0
M  END
>  <MODEL>
5

>  <REMARK>
 VINA RESULT:      -7.9      2.498      3.648
  Name = 
  3 active torsions:
  status: ('A' for Active; 'I' for Inactive)
    1  A    between atoms: C_1  and  C_15
    2  A    between atoms: C_2  and  C_15
    3  A    between atoms: N_11  and  C_15
                            x       y       z     vdW  Elec       q    Type
                         _______ _______ _______ _____ _____    ______ ____

>  <TORSDO>
F 3

$$$$
=
 OpenBabel10272401023D

 27 30  0  0  1  0  0  0  0  0999 V2000
  188.7360  178.2120  141.5680 C   0  0  1  0  0  3  0  0  0  0  0  0
  187.2630  178.0440  141.9750 C   0  0  2  0  0  3  0  0  0  0  0  0
  183.1030  178.8210  142.8970 C   0  0  0  0  0  3  0  0  0  0  0  0
  181.3580  178.6830  144.4280 F   0  0  0  0  0  0  0  0  0  0  0  0
  186.3320  178.5040  140.8500 C   0  0  0  0  0  2  0  0  0  0  0  0
  185.0860  179.1840  144.9420 C   0  0  0  0  0  2  0  0  0  0  0  0
  183.6490  178.8290  145.3380 C   0  0  0  0  0  2  0  0  0  0  0  0
  186.9170  178.7330  143.2990 C   0  0  0  0  0  2  0  0  0  0  0  0
  182.6830  178.8320  144.1730 C   0  0  0  0  0  0  0  0  0  0  0  0
  184.5530  178.9830  142.5350 C   0  0  1  0  0  3  0  0  0  0  0  0
  185.4600  178.4670  143.6550 C   0  0  2  0  0  3  0  0  0  0  0  0
  184.8710  178.2670  141.2280 C   0  0  0  0  0  2  0  0  0  0  0  0
  189.8130  177.5740  142.4840 C   0  0  0  0  0  0  0  0  0  0  0  0
  190.9250  179.5590  143.6590 O   0  0  0  0  0  0  0  0  0  0  0  0
  188.5300  177.8170  145.4870 O   0  0  0  0  0  0  0  0  0  0  0  0
  190.7450  176.6300  145.4910 O   0  0  0  0  0  0  0  0  0  0  0  0
  190.8790  177.1020  141.7350 F   0  0  0  0  0  0  0  0  0  0  0  0
  189.6890  177.3180  144.6720 S   0  0  0  0  0  0  0  0  0  0  0  0
  189.2130  176.4230  143.2670 C   0  0  0  0  0  0  0  0  0  0  0  0
  188.6590  175.3630  143.0270 O   0  0  0  0  0  0  0  0  0  0  0  0
  190.3250  178.5000  143.5770 C   0  0  0  0  0  0  0  0  0  0  0  0
  189.1900  178.8250  137.9100 C   0  0  0  0  0  3  0  0  0  0  0  0
  189.1790  176.5800  139.7170 C   0  0  0  0  0  2  0  0  0  0  0  0
  188.9560  177.9650  140.1420 N   0  0  0  0  0  0  0  0  0  0  0  0
  189.1300  179.0560  139.2200 C   0  0  0  0  0  3  0  0  0  0  0  0
  189.0630  177.4520  137.3980 C   0  0  0  0  0  3  0  0  0  0  0  0
  189.0210  176.4110  138.2290 C   0  0  0  0  0  3  0  0  0  0  0  0
  1 24  1  6  0  0  0
  1 13  1  0  0  0  0
  2  1  1  6  0  0  0
  2  8  1  0  0  0  0
  3  9  2  0  0  0  0
  5 12  1  0  0  0  0
  5  2  1  0  0  0  0
  6  7  1  0  0  0  0
  9  4  1  0  0  0  0
  9  7  1  0  0  0  0
 10 12  1  6  0  0  0
 10  3  1  0  0  0  0
 10 11  1  0  0  0  0
 11  8  1  6  0  0  0
 11  6  1  0  0  0  0
 13 19  1  0  0  0  0
 13 21  1  0  0  0  0
 17 13  1  0  0  0  0
 18 15  2  0  0  0  0
 18 16  2  0  0  0  0
 19 18  1  0  0  0  0
 20 19  2  0  0  0  0
 21 14  2  0  0  0  0
 21 18  1  0  0  0  0
 22 25  2  0  0  0  0
 23 24  1  0  0  0  0
 25 24  1  0  0  0  0
 26 22  1  0  0  0  0
 26 27  2  0  0  0  0
 27 23  1  0  0  0  0
M  END
>  <MODEL>
6

>  <REMARK>
 VINA RESULT:      -7.9      2.708      4.243
  Name = 
  3 active torsions:
  status: ('A' for Active; 'I' for Inactive)
    1  A    between atoms: C_1  and  C_15
    2  A    between atoms: C_2  and  C_15
    3  A    between atoms: N_11  and  C_15
                            x       y       z     vdW  Elec       q    Type
                         _______ _______ _______ _____ _____    ______ ____

>  <TORSDO>
F 3

$$$$
=
 OpenBabel10272401023D

 27 30  0  0  1  0  0  0  0  0999 V2000
  188.6060  177.3880  141.5880 C   0  0  1  0  0  3  0  0  0  0  0  0
  187.3240  178.0570  142.1120 C   0  0  2  0  0  3  0  0  0  0  0  0
  183.3950  178.7340  143.8060 C   0  0  0  0  0  3  0  0  0  0  0  0
  181.2770  179.6650  143.5770 F   0  0  0  0  0  0  0  0  0  0  0  0
  187.0810  177.6930  143.5790 C   0  0  0  0  0  2  0  0  0  0  0  0
  183.6390  178.1870  140.9970 C   0  0  0  0  0  2  0  0  0  0  0  0
  182.4570  179.0190  141.5060 C   0  0  0  0  0  2  0  0  0  0  0  0
  186.0900  177.7610  141.2550 C   0  0  0  0  0  2  0  0  0  0  0  0
  182.3690  179.0850  143.0150 C   0  0  0  0  0  0  0  0  0  0  0  0
  184.6370  178.0860  143.2580 C   0  0  1  0  0  3  0  0  0  0  0  0
  184.8840  178.5080  141.8080 C   0  0  2  0  0  3  0  0  0  0  0  0
  185.8490  178.4180  144.1180 C   0  0  0  0  0  2  0  0  0  0  0  0
  189.2170  177.9350  140.2720 C   0  0  0  0  0  0  0  0  0  0  0  0
  191.7500  177.8090  140.6280 O   0  0  0  0  0  0  0  0  0  0  0  0
  190.3190  175.2550  138.7470 O   0  0  0  0  0  0  0  0  0  0  0  0
  190.6590  177.3360  137.3800 O   0  0  0  0  0  0  0  0  0  0  0  0
  189.0480  179.3080  140.1840 F   0  0  0  0  0  0  0  0  0  0  0  0
  190.1440  176.7450  138.6620 S   0  0  0  0  0  0  0  0  0  0  0  0
  188.5500  177.2800  139.0780 C   0  0  0  0  0  0  0  0  0  0  0  0
  187.4240  177.1770  138.6210 O   0  0  0  0  0  0  0  0  0  0  0  0
  190.6840  177.5860  140.0770 C   0  0  0  0  0  0  0  0  0  0  0  0
  190.9910  178.0410  144.3890 C   0  0  0  0  0  3  0  0  0  0  0  0
  190.0160  175.7790  142.8940 C   0  0  0  0  0  2  0  0  0  0  0  0
  189.5920  177.1600  142.6440 N   0  0  0  0  0  0  0  0  0  0  0  0
  189.9940  178.2240  143.5250 C   0  0  0  0  0  3  0  0  0  0  0  0
  191.6970  176.7530  144.4350 C   0  0  0  0  0  3  0  0  0  0  0  0
  191.2730  175.7110  143.7190 C   0  0  0  0  0  3  0  0  0  0  0  0
  1 13  1  6  0  0  0
  1 24  1  0  0  0  0
  2  1  1  6  0  0  0
  2  5  1  0  0  0  0
  5 12  1  0  0  0  0
  6  7  1  0  0  0  0
  7  9  1  0  0  0  0
  8 11  1  0  0  0  0
  8  2  1  0  0  0  0
  9  4  1  0  0  0  0
  9  3  2  0  0  0  0
 10  3  1  1  0  0  0
 10 12  1  0  0  0  0
 11  6  1  6  0  0  0
 11 10  1  0  0  0  0
 16 18  2  0  0  0  0
 17 13  1  0  0  0  0
 18 15  2  0  0  0  0
 18 19  1  0  0  0  0
 18 21  1  0  0  0  0
 19 13  1  0  0  0  0
 20 19  2  0  0  0  0
 21 13  1  0  0  0  0
 21 14  2  0  0  0  0
 22 26  1  0  0  0  0
 23 27  1  0  0  0  0
 24 23  1  0  0  0  0
 24 25  1  0  0  0  0
 25 22  2  0  0  0  0
 27 26  2  0  0  0  0
M  END
>  <MODEL>
7

>  <REMARK>
 VINA RESULT:      -7.7      1.086      2.059
  Name = 
  3 active torsions:
  status: ('A' for Active; 'I' for Inactive)
    1  A    between atoms: C_1  and  C_15
    2  A    between atoms: C_2  and  C_15
    3  A    between atoms: N_11  and  C_15
                            x       y       z     vdW  Elec       q    Type
                         _______ _______ _______ _____ _____    ______ ____

>  <TORSDO>
F 3

$$$$
=
 OpenBabel10272401023D

 27 30  0  0  1  0  0  0  0  0999 V2000
  182.7750  178.2400  139.9110 C   0  0  1  0  0  3  0  0  0  0  0  0
  183.0600  178.0680  141.4120 C   0  0  2  0  0  3  0  0  0  0  0  0
  184.0850  178.8300  145.5510 C   0  0  0  0  0  3  0  0  0  0  0  0
  185.4260  178.3220  147.3810 F   0  0  0  0  0  0  0  0  0  0  0  0
  182.1410  178.9640  142.2460 C   0  0  0  0  0  2  0  0  0  0  0  0
  186.1800  178.2960  143.6600 C   0  0  0  0  0  2  0  0  0  0  0  0
  186.3890  177.9500  145.1380 C   0  0  0  0  0  2  0  0  0  0  0  0
  184.5310  178.2860  141.7800 C   0  0  0  0  0  2  0  0  0  0  0  0
  185.2740  178.4360  146.0370 C   0  0  0  0  0  0  0  0  0  0  0  0
  183.8400  178.9820  144.0760 C   0  0  1  0  0  3  0  0  0  0  0  0
  184.7340  178.0380  143.2690 C   0  0  2  0  0  3  0  0  0  0  0  0
  182.3750  178.7370  143.7390 C   0  0  0  0  0  2  0  0  0  0  0  0
  182.2910  176.9940  139.1230 C   0  0  0  0  0  0  0  0  0  0  0  0
  180.0000  176.4400  140.1240 O   0  0  0  0  0  0  0  0  0  0  0  0
  179.9960  178.1820  137.1120 O   0  0  0  0  0  0  0  0  0  0  0  0
  180.3890  175.7250  136.7620 O   0  0  0  0  0  0  0  0  0  0  0  0
  183.0040  175.8670  139.4990 F   0  0  0  0  0  0  0  0  0  0  0  0
  180.7630  176.9610  137.5320 S   0  0  0  0  0  0  0  0  0  0  0  0
  182.4740  177.2180  137.6350 C   0  0  0  0  0  0  0  0  0  0  0  0
  183.3890  177.4620  136.8670 O   0  0  0  0  0  0  0  0  0  0  0  0
  180.8000  176.7220  139.2470 C   0  0  0  0  0  0  0  0  0  0  0  0
  179.9830  180.7230  139.8520 C   0  0  0  0  0  3  0  0  0  0  0  0
  182.6720  180.5030  138.8390 C   0  0  0  0  0  2  0  0  0  0  0  0
  182.0110  179.4530  139.6200 N   0  0  0  0  0  0  0  0  0  0  0  0
  180.7290  179.6860  140.2300 C   0  0  0  0  0  3  0  0  0  0  0  0
  180.4610  181.6260  138.7960 C   0  0  0  0  0  3  0  0  0  0  0  0
  181.6920  181.5090  138.2970 C   0  0  0  0  0  3  0  0  0  0  0  0
  1 13  1  1  0  0  0
  2  1  1  6  0  0  0
  2  8  1  0  0  0  0
  2  5  1  0  0  0  0
  3  9  2  0  0  0  0
  5 12  1  0  0  0  0
  6  7  1  0  0  0  0
  7  9  1  0  0  0  0
  9  4  1  0  0  0  0
 10 12  1  1  0  0  0
 10  3  1  0  0  0  0
 11  8  1  6  0  0  0
 11  6  1  0  0  0  0
 11 10  1  0  0  0  0
 13 21  1  0  0  0  0
 13 17  1  0  0  0  0
 15 18  2  0  0  0  0
 16 18  2  0  0  0  0
 18 19  1  0  0  0  0
 18 21  1  0  0  0  0
 19 13  1  0  0  0  0
 20 19  2  0  0  0  0
 21 14  2  0  0  0  0
 22 25  2  0  0  0  0
 23 24  1  0  0  0  0
 24  1  1  0  0  0  0
 24 25  1  0  0  0  0
 26 22  1  0  0  0  0
 27 26  2  0  0  0  0
 27 23  1  0  0  0  0
M  END
>  <MODEL>
8

>  <REMARK>
 VINA RESULT:      -7.5      5.166      7.902
  Name = 
  3 active torsions:
  status: ('A' for Active; 'I' for Inactive)
    1  A    between atoms: C_1  and  C_15
    2  A    between atoms: C_2  and  C_15
    3  A    between atoms: N_11  and  C_15
                            x       y       z     vdW  Elec       q    Type
                         _______ _______ _______ _____ _____    ______ ____

>  <TORSDO>
F 3

$$$$
=
 OpenBabel10272401023D

 27 30  0  0  1  0  0  0  0  0999 V2000
  187.1140  177.8980  140.8810 C   0  0  1  0  0  3  0  0  0  0  0  0
  188.2060  177.9190  141.9630 C   0  0  2  0  0  3  0  0  0  0  0  0
  191.0420  176.7350  145.0150 C   0  0  0  0  0  3  0  0  0  0  0  0
  191.8310  176.9920  147.1870 F   0  0  0  0  0  0  0  0  0  0  0  0
  189.3790  177.0180  141.5690 C   0  0  0  0  0  2  0  0  0  0  0  0
  188.3250  177.2890  145.7610 C   0  0  0  0  0  2  0  0  0  0  0  0
  189.4470  177.4910  146.7860 C   0  0  0  0  0  2  0  0  0  0  0  0
  187.6840  177.5730  143.3600 C   0  0  0  0  0  2  0  0  0  0  0  0
  190.7970  177.0050  146.3070 C   0  0  0  0  0  0  0  0  0  0  0  0
  189.9490  176.7270  143.9830 C   0  0  1  0  0  3  0  0  0  0  0  0
  188.8150  177.6760  144.3760 C   0  0  2  0  0  3  0  0  0  0  0  0
  190.4950  177.0990  142.6090 C   0  0  0  0  0  2  0  0  0  0  0  0
  185.8710  178.8010  141.0950 C   0  0  0  0  0  0  0  0  0  0  0  0
  185.1620  179.5000  138.7350 O   0  0  0  0  0  0  0  0  0  0  0  0
  183.3580  176.9050  140.1930 O   0  0  0  0  0  0  0  0  0  0  0  0
  182.6030  179.1480  141.0370 O   0  0  0  0  0  0  0  0  0  0  0  0
  186.2410  180.0310  141.6150 F   0  0  0  0  0  0  0  0  0  0  0  0
  183.7660  178.2410  140.7460 S   0  0  0  0  0  0  0  0  0  0  0  0
  184.9020  178.1340  142.0500 C   0  0  0  0  0  0  0  0  0  0  0  0
  184.9100  177.7180  143.1960 O   0  0  0  0  0  0  0  0  0  0  0  0
  185.0310  179.0070  139.8440 C   0  0  0  0  0  0  0  0  0  0  0  0
  189.1060  179.0380  137.9330 C   0  0  0  0  0  3  0  0  0  0  0  0
  187.2430  176.9340  138.5710 C   0  0  0  0  0  2  0  0  0  0  0  0
  187.6630  177.9640  139.5270 N   0  0  0  0  0  0  0  0  0  0  0  0
  188.7120  178.8900  139.1970 C   0  0  0  0  0  3  0  0  0  0  0  0
  188.4580  178.2630  136.8650 C   0  0  0  0  0  3  0  0  0  0  0  0
  187.5680  177.3120  137.1500 C   0  0  0  0  0  3  0  0  0  0  0  0
  1 24  1  6  0  0  0
  1 13  1  0  0  0  0
  2  1  1  6  0  0  0
  2  8  1  0  0  0  0
  3  9  2  0  0  0  0
  5  2  1  0  0  0  0
  5 12  1  0  0  0  0
  6  7  1  0  0  0  0
  9  7  1  0  0  0  0
  9  4  1  0  0  0  0
 10 12  1  6  0  0  0
 10 11  1  0  0  0  0
 10  3  1  0  0  0  0
 11  8  1  6  0  0  0
 11  6  1  0  0  0  0
 13 17  1  0  0  0  0
 13 19  1  0  0  0  0
 14 21  2  0  0  0  0
 15 18  2  0  0  0  0
 18 16  2  0  0  0  0
 18 19  1  0  0  0  0
 19 20  2  0  0  0  0
 21 18  1  0  0  0  0
 21 13  1  0  0  0  0
 22 25  2  0  0  0  0
 23 24  1  0  0  0  0
 25 24  1  0  0  0  0
 26 27  2  0  0  0  0
 26 22  1  0  0  0  0
 27 23  1  0  0  0  0
M  END
>  <MODEL>
9

>  <REMARK>
 VINA RESULT:      -7.4      3.493      5.976
  Name = 
  3 active torsions:
  status: ('A' for Active; 'I' for Inactive)
    1  A    between atoms: C_1  and  C_15
    2  A    between atoms: C_2  and  C_15
    3  A    between atoms: N_11  and  C_15
                            x       y       z     vdW  Elec       q    Type
                         _______ _______ _______ _____ _____    ______ ____

>  <TORSDO>
F 3

$$$$
