=
 OpenBabel10272401583D

 28 32  0  0  1  0  0  0  0  0999 V2000
  184.3750  178.6280  142.9180 C   0  0  0  0  0  0  0  0  0  0  0  0
  189.1280  177.9850  140.9820 C   0  0  0  0  0  2  0  0  0  0  0  0
  187.3100  177.8540  146.8510 C   0  0  0  0  0  1  0  0  0  0  0  0
  190.4320  177.9400  143.0670 C   0  0  2  0  0  3  0  0  0  0  0  0
  188.0220  177.9780  143.2380 N   0  0  1  0  0  0  0  0  0  0  0  0
  191.5790  177.4100  140.9590 C   0  0  0  0  0  0  0  0  0  0  0  0
  189.1250  177.4730  142.4240 C   0  0  1  0  0  3  0  0  0  0  0  0
  189.4290  176.9710  145.0840 C   0  0  0  0  0  2  0  0  0  0  0  0
  191.6160  177.2100  142.4510 C   0  0  0  0  0  2  0  0  0  0  0  0
  185.7820  178.2070  144.8710 C   0  0  0  0  0  0  0  0  0  0  0  0
  186.7320  177.7260  142.5890 C   0  0  0  0  0  2  0  0  0  0  0  0
  190.4300  177.8960  144.5390 N   0  0  0  0  0  2  0  0  0  0  0  0
  183.5350  179.0790  145.1510 C   0  0  0  0  0  3  0  0  0  0  0  0
  187.0430  177.7710  145.4180 N   0  0  0  0  0  0  0  0  0  0  0  0
  184.7430  178.6490  145.7010 C   0  0  0  0  0  3  0  0  0  0  0  0
  192.6200  177.5710  140.3440 O   0  0  0  0  0  0  0  0  0  0  0  0
  190.2720  177.3170  140.2090 C   0  0  0  0  0  2  0  0  0  0  0  0
  188.0180  177.1970  144.4840 C   0  0  1  0  0  3  0  0  0  0  0  0
  183.3530  179.0670  143.7670 C   0  0  0  0  0  3  0  0  0  0  0  0
  185.6030  178.2130  143.4680 C   0  0  0  0  0  0  0  0  0  0  0  0
  184.1380  178.6190  141.4290 C   0  0  0  0  0  2  0  0  0  0  0  0
  182.8810  177.9680  141.0350 N   0  0  0  0  0  0  0  0  0  0  0  0
  181.5390  178.0520  139.1730 C   0  0  0  0  0  0  0  0  0  0  0  0
  183.1730  176.8500  140.2920 O   0  0  0  0  0  0  0  0  0  0  0  0
  180.9370  179.4290  141.0880 C   0  0  0  0  0  1  0  0  0  0  0  0
  182.0710  178.8840  140.2400 C   0  0  1  0  0  3  0  0  0  0  0  0
  181.1940  178.5440  138.0410 N   0  0  0  0  0  2  0  0  0  0  0  0
  182.2030  176.7490  139.2740 C   0  0  0  0  0  2  0  0  0  0  0  0
  1 20  2  0  0  0  0
  1 19  1  0  0  0  0
  4  9  1  6  0  0  0
  4 12  1  0  0  0  0
  5 11  1  6  0  0  0
  5 18  1  0  0  0  0
  6  9  1  0  0  0  0
  7  2  1  6  0  0  0
  7  4  1  0  0  0  0
  7  5  1  0  0  0  0
 10 14  1  0  0  0  0
 10 15  2  0  0  0  0
 11 20  1  0  0  0  0
 12  8  1  0  0  0  0
 13 15  1  0  0  0  0
 14  3  1  0  0  0  0
 16  6  2  0  0  0  0
 17  6  1  0  0  0  0
 17  2  1  0  0  0  0
 18  8  1  1  0  0  0
 18 14  1  0  0  0  0
 19 13  2  0  0  0  0
 20 10  1  0  0  0  0
 21  1  1  0  0  0  0
 22 21  1  0  0  0  0
 23 28  1  0  0  0  0
 23 26  1  0  0  0  0
 24 22  1  0  0  0  0
 26 22  1  0  0  0  0
 26 25  1  1  0  0  0
 27 23  2  0  0  0  0
 28 24  1  0  0  0  0
M  END
>  <MODEL>
1

>  <REMARK>
 VINA RESULT:      -9.5      0.000      0.000
  Name = 
  2 active torsions:
  status: ('A' for Active; 'I' for Inactive)
    1  A    between atoms: C_1  and  C_2
    2  A    between atoms: C_2  and  N_3
                            x       y       z     vdW  Elec       q    Type
                         _______ _______ _______ _____ _____    ______ ____

>  <TORSDO>
F 2

$$$$
=
 OpenBabel10272401583D

 28 32  0  0  1  0  0  0  0  0999 V2000
  185.3030  178.9410  144.2170 C   0  0  0  0  0  0  0  0  0  0  0  0
  188.2160  178.1700  140.0140 C   0  0  0  0  0  2  0  0  0  0  0  0
  189.3750  176.6050  145.8430 C   0  0  0  0  0  1  0  0  0  0  0  0
  190.2660  177.3150  141.0700 C   0  0  2  0  0  3  0  0  0  0  0  0
  188.3320  177.6720  142.4730 N   0  0  1  0  0  0  0  0  0  0  0  0
  190.1020  177.2560  138.6190 C   0  0  0  0  0  0  0  0  0  0  0  0
  188.7380  177.2650  141.1310 C   0  0  1  0  0  3  0  0  0  0  0  0
  190.0870  175.9640  143.1090 C   0  0  0  0  0  2  0  0  0  0  0  0
  190.7700  176.6240  139.8120 C   0  0  0  0  0  2  0  0  0  0  0  0
  187.2720  177.7550  145.0440 C   0  0  0  0  0  0  0  0  0  0  0  0
  186.8770  177.8230  142.5580 C   0  0  0  0  0  2  0  0  0  0  0  0
  190.9350  176.8420  142.2940 N   0  0  0  0  0  2  0  0  0  0  0  0
  185.7600  178.8420  146.6000 C   0  0  0  0  0  3  0  0  0  0  0  0
  188.4630  176.9890  144.7700 N   0  0  0  0  0  0  0  0  0  0  0  0
  186.9090  178.0880  146.3560 C   0  0  0  0  0  3  0  0  0  0  0  0
  190.7370  177.4280  137.5920 O   0  0  0  0  0  0  0  0  0  0  0  0
  188.6310  177.5900  138.6550 C   0  0  0  0  0  2  0  0  0  0  0  0
  188.6870  176.5710  143.3810 C   0  0  1  0  0  3  0  0  0  0  0  0
  184.9620  179.2650  145.5360 C   0  0  0  0  0  3  0  0  0  0  0  0
  186.4730  178.1990  143.9660 C   0  0  0  0  0  0  0  0  0  0  0  0
  184.4110  179.4060  143.0940 C   0  0  0  0  0  2  0  0  0  0  0  0
  183.3750  178.4330  142.7210 N   0  0  0  0  0  0  0  0  0  0  0  0
  181.3660  178.5640  141.6150 C   0  0  0  0  0  0  0  0  0  0  0  0
  183.6070  178.0050  141.4370 O   0  0  0  0  0  0  0  0  0  0  0  0
  181.3410  178.5770  144.0490 C   0  0  0  0  0  1  0  0  0  0  0  0
  182.0560  179.0520  142.7980 C   0  0  1  0  0  3  0  0  0  0  0  0
  180.4060  179.2180  141.0750 N   0  0  0  0  0  2  0  0  0  0  0  0
  182.3570  177.8450  140.8070 C   0  0  0  0  0  2  0  0  0  0  0  0
  1 19  1  0  0  0  0
  4  9  1  6  0  0  0
  4  7  1  0  0  0  0
  4 12  1  0  0  0  0
  5 11  1  6  0  0  0
  5 18  1  0  0  0  0
  6 17  1  0  0  0  0
  6  9  1  0  0  0  0
  7  2  1  6  0  0  0
  7  5  1  0  0  0  0
 10 15  2  0  0  0  0
 11 20  1  0  0  0  0
 12  8  1  0  0  0  0
 14 10  1  0  0  0  0
 14  3  1  0  0  0  0
 15 13  1  0  0  0  0
 16  6  2  0  0  0  0
 17  2  1  0  0  0  0
 18  8  1  1  0  0  0
 18 14  1  0  0  0  0
 19 13  2  0  0  0  0
 20  1  2  0  0  0  0
 20 10  1  0  0  0  0
 21  1  1  0  0  0  0
 22 26  1  0  0  0  0
 22 21  1  0  0  0  0
 23 26  1  0  0  0  0
 24 22  1  0  0  0  0
 26 25  1  1  0  0  0
 27 23  2  0  0  0  0
 28 24  1  0  0  0  0
 28 23  1  0  0  0  0
M  END
>  <MODEL>
2

>  <REMARK>
 VINA RESULT:      -9.3      1.600      2.196
  Name = 
  2 active torsions:
  status: ('A' for Active; 'I' for Inactive)
    1  A    between atoms: C_1  and  C_2
    2  A    between atoms: C_2  and  N_3
                            x       y       z     vdW  Elec       q    Type
                         _______ _______ _______ _____ _____    ______ ____

>  <TORSDO>
F 2

$$$$
=
 OpenBabel10272401583D

 28 32  0  0  1  0  0  0  0  0999 V2000
  190.2010  176.4100  143.7940 C   0  0  0  0  0  0  0  0  0  0  0  0
  185.2170  177.7050  143.3140 C   0  0  0  0  0  2  0  0  0  0  0  0
  188.8610  178.1760  148.2400 C   0  0  0  0  0  1  0  0  0  0  0  0
  184.6900  178.2380  145.6570 C   0  0  2  0  0  3  0  0  0  0  0  0
  186.9910  177.7670  145.0910 N   0  0  1  0  0  0  0  0  0  0  0  0
  183.0010  178.7250  143.9390 C   0  0  0  0  0  0  0  0  0  0  0  0
  185.7650  178.3720  144.5770 C   0  0  1  0  0  3  0  0  0  0  0  0
  186.4250  179.2290  147.0770 C   0  0  0  0  0  2  0  0  0  0  0  0
  183.4850  179.1010  145.3150 C   0  0  0  0  0  2  0  0  0  0  0  0
  189.5870  177.3130  145.9800 C   0  0  0  0  0  0  0  0  0  0  0  0
  188.0180  177.6950  144.0480 C   0  0  0  0  0  2  0  0  0  0  0  0
  185.1810  178.4520  147.0280 N   0  0  0  0  0  2  0  0  0  0  0  0
  191.6550  176.0730  145.7080 C   0  0  0  0  0  3  0  0  0  0  0  0
  188.6510  178.0390  146.8020 N   0  0  0  0  0  0  0  0  0  0  0  0
  190.7680  176.7830  146.5180 C   0  0  0  0  0  3  0  0  0  0  0  0
  181.8040  178.6920  143.7060 O   0  0  0  0  0  0  0  0  0  0  0  0
  183.9880  178.4830  142.8230 C   0  0  0  0  0  2  0  0  0  0  0  0
  187.5150  178.6730  146.1250 C   0  0  1  0  0  3  0  0  0  0  0  0
  191.3720  175.8880  144.3540 C   0  0  0  0  0  3  0  0  0  0  0  0
  189.2930  177.1100  144.6120 C   0  0  0  0  0  0  0  0  0  0  0  0
  189.9340  176.2010  142.3240 C   0  0  0  0  0  2  0  0  0  0  0  0
  190.1510  177.4030  141.5080 N   0  0  0  0  0  0  0  0  0  0  0  0
  190.2410  177.8220  139.2520 C   0  0  0  0  0  0  0  0  0  0  0  0
  188.9310  177.9300  141.1590 O   0  0  0  0  0  0  0  0  0  0  0  0
  192.3380  177.5150  140.4490 C   0  0  0  0  0  1  0  0  0  0  0  0
  190.8970  177.0620  140.3030 C   0  0  1  0  0  3  0  0  0  0  0  0
  190.2750  177.4490  138.0270 N   0  0  0  0  0  2  0  0  0  0  0  0
  189.0380  178.4180  139.8410 C   0  0  0  0  0  2  0  0  0  0  0  0
  1 19  2  0  0  0  0
  1 20  1  0  0  0  0
  4  9  1  6  0  0  0
  4 12  1  0  0  0  0
  5 11  1  6  0  0  0
  5 18  1  0  0  0  0
  6  9  1  0  0  0  0
  7  2  1  6  0  0  0
  7  5  1  0  0  0  0
  7  4  1  0  0  0  0
 10 15  1  0  0  0  0
 10 14  1  0  0  0  0
 11 20  1  0  0  0  0
 12  8  1  0  0  0  0
 13 15  2  0  0  0  0
 14  3  1  0  0  0  0
 16  6  2  0  0  0  0
 17  2  1  0  0  0  0
 17  6  1  0  0  0  0
 18 14  1  0  0  0  0
 18  8  1  1  0  0  0
 19 13  1  0  0  0  0
 20 10  2  0  0  0  0
 21  1  1  0  0  0  0
 22 21  1  0  0  0  0
 23 28  1  0  0  0  0
 23 26  1  0  0  0  0
 24 22  1  0  0  0  0
 26 25  1  1  0  0  0
 26 22  1  0  0  0  0
 27 23  2  0  0  0  0
 28 24  1  0  0  0  0
M  END
>  <MODEL>
3

>  <REMARK>
 VINA RESULT:      -9.0      2.945      6.833
  Name = 
  2 active torsions:
  status: ('A' for Active; 'I' for Inactive)
    1  A    between atoms: C_1  and  C_2
    2  A    between atoms: C_2  and  N_3
                            x       y       z     vdW  Elec       q    Type
                         _______ _______ _______ _____ _____    ______ ____

>  <TORSDO>
F 2

$$$$
=
 OpenBabel10272401583D

 28 32  0  0  1  0  0  0  0  0999 V2000
  187.2000  178.2520  139.6850 C   0  0  0  0  0  0  0  0  0  0  0  0
  187.4060  177.5910  144.8100 C   0  0  0  0  0  2  0  0  0  0  0  0
  191.9660  177.2840  140.7020 C   0  0  0  0  0  1  0  0  0  0  0  0
  189.7310  176.8250  145.0460 C   0  0  2  0  0  3  0  0  0  0  0  0
  188.9980  177.5700  142.8680 N   0  0  1  0  0  0  0  0  0  0  0  0
  188.4460  177.3030  147.0850 C   0  0  0  0  0  0  0  0  0  0  0  0
  188.8310  177.8100  144.2980 C   0  0  1  0  0  3  0  0  0  0  0  0
  191.4390  177.7010  143.5200 C   0  0  0  0  0  2  0  0  0  0  0  0
  189.8360  177.2110  146.5130 C   0  0  0  0  0  2  0  0  0  0  0  0
  189.5590  177.8220  140.1550 C   0  0  0  0  0  0  0  0  0  0  0  0
  188.0350  178.3520  142.0880 C   0  0  0  0  0  2  0  0  0  0  0  0
  191.0430  176.6060  144.4130 N   0  0  0  0  0  2  0  0  0  0  0  0
  188.7310  177.7220  137.8760 C   0  0  0  0  0  3  0  0  0  0  0  0
  190.6300  177.7040  141.1130 N   0  0  0  0  0  0  0  0  0  0  0  0
  189.7830  177.6150  138.7870 C   0  0  0  0  0  3  0  0  0  0  0  0
  188.2320  176.9140  148.2210 O   0  0  0  0  0  0  0  0  0  0  0  0
  187.3390  177.9620  146.2980 C   0  0  0  0  0  2  0  0  0  0  0  0
  190.3310  178.0720  142.5020 C   0  0  1  0  0  3  0  0  0  0  0  0
  187.4470  178.0390  138.3240 C   0  0  0  0  0  3  0  0  0  0  0  0
  188.2550  178.1250  140.6090 C   0  0  0  0  0  0  0  0  0  0  0  0
  185.8030  178.6040  140.1310 C   0  0  0  0  0  2  0  0  0  0  0  0
  184.9040  178.9640  139.0250 N   0  0  0  0  0  0  0  0  0  0  0  0
  182.6300  178.9030  138.7160 C   0  0  0  0  0  0  0  0  0  0  0  0
  184.4490  180.2450  139.2210 O   0  0  0  0  0  0  0  0  0  0  0  0
  183.9580  177.0600  137.8430 C   0  0  0  0  0  1  0  0  0  0  0  0
  183.7730  178.0450  138.9820 C   0  0  1  0  0  3  0  0  0  0  0  0
  181.4420  178.5760  139.0690 N   0  0  0  0  0  2  0  0  0  0  0  0
  183.1030  180.2880  138.8050 C   0  0  0  0  0  2  0  0  0  0  0  0
  1 21  1  0  0  0  0
  1 20  1  0  0  0  0
  2 17  1  0  0  0  0
  3 14  1  0  0  0  0
  4  9  1  1  0  0  0
  5 11  1  6  0  0  0
  5  7  1  0  0  0  0
  6 16  2  0  0  0  0
  7  2  1  1  0  0  0
  7  4  1  0  0  0  0
  8 12  1  0  0  0  0
  9  6  1  0  0  0  0
 10 20  2  0  0  0  0
 10 14  1  0  0  0  0
 12  4  1  0  0  0  0
 13 19  1  0  0  0  0
 13 15  2  0  0  0  0
 14 18  1  0  0  0  0
 15 10  1  0  0  0  0
 17  6  1  0  0  0  0
 18  5  1  0  0  0  0
 18  8  1  1  0  0  0
 19  1  2  0  0  0  0
 20 11  1  0  0  0  0
 22 24  1  0  0  0  0
 22 21  1  0  0  0  0
 23 28  1  0  0  0  0
 23 26  1  0  0  0  0
 23 27  2  0  0  0  0
 26 25  1  6  0  0  0
 26 22  1  0  0  0  0
 28 24  1  0  0  0  0
M  END
>  <MODEL>
4

>  <REMARK>
 VINA RESULT:      -9.0      2.699      4.946
  Name = 
  2 active torsions:
  status: ('A' for Active; 'I' for Inactive)
    1  A    between atoms: C_1  and  C_2
    2  A    between atoms: C_2  and  N_3
                            x       y       z     vdW  Elec       q    Type
                         _______ _______ _______ _____ _____    ______ ____

>  <TORSDO>
F 2

$$$$
=
 OpenBabel10272401583D

 28 32  0  0  1  0  0  0  0  0999 V2000
  187.2650  178.1830  140.7420 C   0  0  0  0  0  0  0  0  0  0  0  0
  190.5110  177.2590  144.6610 C   0  0  0  0  0  2  0  0  0  0  0  0
  184.5130  178.5840  144.8590 C   0  0  0  0  0  1  0  0  0  0  0  0
  189.0510  177.8130  146.5600 C   0  0  2  0  0  3  0  0  0  0  0  0
  188.0770  177.7930  144.3500 N   0  0  1  0  0  0  0  0  0  0  0  0
  191.2410  176.8010  147.0270 C   0  0  0  0  0  0  0  0  0  0  0  0
  189.0800  177.1400  145.1870 C   0  0  1  0  0  3  0  0  0  0  0  0
  186.6470  177.3620  146.3920 C   0  0  0  0  0  2  0  0  0  0  0  0
  189.8490  176.9980  147.5670 C   0  0  0  0  0  2  0  0  0  0  0  0
  185.8740  178.3450  142.7430 C   0  0  0  0  0  0  0  0  0  0  0  0
  188.1660  177.3260  142.9630 C   0  0  0  0  0  2  0  0  0  0  0  0
  187.7000  178.1540  147.0370 N   0  0  0  0  0  2  0  0  0  0  0  0
  185.0480  179.1640  140.6140 C   0  0  0  0  0  3  0  0  0  0  0  0
  185.7070  178.1200  144.1580 N   0  0  0  0  0  0  0  0  0  0  0  0
  184.8630  178.9430  141.9790 C   0  0  0  0  0  3  0  0  0  0  0  0
  192.1950  176.8400  147.7850 O   0  0  0  0  0  0  0  0  0  0  0  0
  191.4540  176.4610  145.5710 C   0  0  0  0  0  2  0  0  0  0  0  0
  186.7600  177.3640  144.8460 C   0  0  1  0  0  3  0  0  0  0  0  0
  186.2430  178.7850  139.9990 C   0  0  0  0  0  3  0  0  0  0  0  0
  187.0900  177.9770  142.1240 C   0  0  0  0  0  0  0  0  0  0  0  0
  188.5380  177.7760  140.0420 C   0  0  0  0  0  2  0  0  0  0  0  0
  188.3510  177.4430  138.6230 N   0  0  0  0  0  0  0  0  0  0  0  0
  189.7590  176.8420  136.9120 C   0  0  0  0  0  0  0  0  0  0  0  0
  188.2500  176.0790  138.4950 O   0  0  0  0  0  0  0  0  0  0  0  0
  189.0880  179.1750  137.0820 C   0  0  0  0  0  1  0  0  0  0  0  0
  189.4850  177.9240  137.8430 C   0  0  1  0  0  3  0  0  0  0  0  0
  190.9220  176.6640  136.4060 N   0  0  0  0  0  2  0  0  0  0  0  0
  188.9120  175.7120  137.3060 C   0  0  0  0  0  2  0  0  0  0  0  0
  1 20  1  0  0  0  0
  2 17  1  0  0  0  0
  4 12  1  0  0  0  0
  4  9  1  1  0  0  0
  5 11  1  6  0  0  0
  5 18  1  0  0  0  0
  5  7  1  0  0  0  0
  6  9  1  0  0  0  0
  6 16  2  0  0  0  0
  7  2  1  6  0  0  0
  7  4  1  0  0  0  0
  8 12  1  0  0  0  0
 10 14  1  0  0  0  0
 13 15  2  0  0  0  0
 14 18  1  0  0  0  0
 14  3  1  0  0  0  0
 15 10  1  0  0  0  0
 17  6  1  0  0  0  0
 18  8  1  1  0  0  0
 19 13  1  0  0  0  0
 19  1  2  0  0  0  0
 20 10  2  0  0  0  0
 20 11  1  0  0  0  0
 21  1  1  0  0  0  0
 22 21  1  0  0  0  0
 23 28  1  0  0  0  0
 23 26  1  0  0  0  0
 24 22  1  0  0  0  0
 26 25  1  6  0  0  0
 26 22  1  0  0  0  0
 27 23  2  0  0  0  0
 28 24  1  0  0  0  0
M  END
>  <MODEL>
5

>  <REMARK>
 VINA RESULT:      -9.0      3.018      5.258
  Name = 
  2 active torsions:
  status: ('A' for Active; 'I' for Inactive)
    1  A    between atoms: C_1  and  C_2
    2  A    between atoms: C_2  and  N_3
                            x       y       z     vdW  Elec       q    Type
                         _______ _______ _______ _____ _____    ______ ____

>  <TORSDO>
F 2

$$$$
=
 OpenBabel10272401583D

 28 32  0  0  1  0  0  0  0  0999 V2000
  184.7360  178.9780  144.1530 C   0  0  0  0  0  0  0  0  0  0  0  0
  188.0350  178.2380  140.2390 C   0  0  0  0  0  2  0  0  0  0  0  0
  181.9040  178.6390  140.0850 C   0  0  0  0  0  1  0  0  0  0  0  0
  186.4410  177.7880  138.4210 C   0  0  2  0  0  3  0  0  0  0  0  0
  185.5550  178.4750  140.5610 N   0  0  1  0  0  0  0  0  0  0  0  0
  188.8190  178.0430  137.8540 C   0  0  0  0  0  0  0  0  0  0  0  0
  186.6850  178.6590  139.6540 C   0  0  1  0  0  3  0  0  0  0  0  0
  184.2660  178.9190  138.4300 C   0  0  0  0  0  2  0  0  0  0  0  0
  187.4180  178.1520  137.3130 C   0  0  0  0  0  2  0  0  0  0  0  0
  183.3170  178.8590  142.1670 C   0  0  0  0  0  0  0  0  0  0  0  0
  185.7990  179.1360  141.8450 C   0  0  0  0  0  2  0  0  0  0  0  0
  185.0400  177.7610  137.9680 N   0  0  0  0  0  2  0  0  0  0  0  0
  182.3350  178.6980  144.3810 C   0  0  0  0  0  3  0  0  0  0  0  0
  183.1940  178.8660  140.7310 N   0  0  0  0  0  0  0  0  0  0  0  0
  182.1930  178.7150  142.9920 C   0  0  0  0  0  3  0  0  0  0  0  0
  189.7090  177.6030  137.1460 O   0  0  0  0  0  0  0  0  0  0  0  0
  189.1470  178.5640  139.2330 C   0  0  0  0  0  2  0  0  0  0  0  0
  184.4040  179.1600  139.9550 C   0  0  1  0  0  3  0  0  0  0  0  0
  183.6000  178.8290  144.9570 C   0  0  0  0  0  3  0  0  0  0  0  0
  184.5990  178.9740  142.7510 C   0  0  0  0  0  0  0  0  0  0  0  0
  186.0850  179.1280  144.8110 C   0  0  0  0  0  2  0  0  0  0  0  0
  186.6420  177.8640  145.3090 N   0  0  0  0  0  0  0  0  0  0  0  0
  188.7610  177.1120  145.7780 C   0  0  0  0  0  0  0  0  0  0  0  0
  186.7950  177.9510  146.6720 O   0  0  0  0  0  0  0  0  0  0  0  0
  187.7890  176.5400  143.6210 C   0  0  0  0  0  1  0  0  0  0  0  0
  187.9370  177.6080  144.6880 C   0  0  1  0  0  3  0  0  0  0  0  0
  190.0370  177.2280  145.7660 N   0  0  0  0  0  2  0  0  0  0  0  0
  187.9860  177.2770  147.0110 C   0  0  0  0  0  2  0  0  0  0  0  0
  1 21  1  0  0  0  0
  1 19  1  0  0  0  0
  3 14  1  0  0  0  0
  4  9  1  6  0  0  0
  4  7  1  0  0  0  0
  5 11  1  1  0  0  0
  6 17  1  0  0  0  0
  7  2  1  1  0  0  0
  7  5  1  0  0  0  0
  9  6  1  0  0  0  0
 10 20  1  0  0  0  0
 10 15  2  0  0  0  0
 11 20  1  0  0  0  0
 12  4  1  0  0  0  0
 12  8  1  0  0  0  0
 13 19  2  0  0  0  0
 14 10  1  0  0  0  0
 15 13  1  0  0  0  0
 16  6  2  0  0  0  0
 17  2  1  0  0  0  0
 18  8  1  6  0  0  0
 18  5  1  0  0  0  0
 18 14  1  0  0  0  0
 20  1  2  0  0  0  0
 21 22  1  0  0  0  0
 22 24  1  0  0  0  0
 23 28  1  0  0  0  0
 24 28  1  0  0  0  0
 26 25  1  6  0  0  0
 26 22  1  0  0  0  0
 26 23  1  0  0  0  0
 27 23  2  0  0  0  0
M  END
>  <MODEL>
6

>  <REMARK>
 VINA RESULT:      -8.7      2.505      6.094
  Name = 
  2 active torsions:
  status: ('A' for Active; 'I' for Inactive)
    1  A    between atoms: C_1  and  C_2
    2  A    between atoms: C_2  and  N_3
                            x       y       z     vdW  Elec       q    Type
                         _______ _______ _______ _____ _____    ______ ____

>  <TORSDO>
F 2

$$$$
=
 OpenBabel10272401583D

 28 32  0  0  1  0  0  0  0  0999 V2000
  188.8320  177.5010  138.9560 C   0  0  0  0  0  0  0  0  0  0  0  0
  185.5020  178.4130  142.8080 C   0  0  0  0  0  2  0  0  0  0  0  0
  191.4040  176.7300  143.1360 C   0  0  0  0  0  1  0  0  0  0  0  0
  186.8590  177.6780  144.7230 C   0  0  2  0  0  3  0  0  0  0  0  0
  187.9120  177.7540  142.5510 N   0  0  1  0  0  0  0  0  0  0  0  0
  184.7140  178.7910  145.1690 C   0  0  0  0  0  0  0  0  0  0  0  0
  186.9180  178.4200  143.3870 C   0  0  1  0  0  3  0  0  0  0  0  0
  189.2890  177.9960  144.6590 C   0  0  0  0  0  2  0  0  0  0  0  0
  186.0720  178.4860  145.7440 C   0  0  0  0  0  2  0  0  0  0  0  0
  190.1380  177.1560  140.9920 C   0  0  0  0  0  0  0  0  0  0  0  0
  187.9010  178.2940  141.1890 C   0  0  0  0  0  2  0  0  0  0  0  0
  188.1700  177.2350  145.2270 N   0  0  0  0  0  2  0  0  0  0  0  0
  190.9920  176.3990  138.8510 C   0  0  0  0  0  3  0  0  0  0  0  0
  190.2650  177.2980  142.4210 N   0  0  0  0  0  0  0  0  0  0  0  0
  191.1400  176.5380  140.2320 C   0  0  0  0  0  3  0  0  0  0  0  0
  183.7320  178.7700  145.8920 O   0  0  0  0  0  0  0  0  0  0  0  0
  184.5740  179.2170  143.7270 C   0  0  0  0  0  2  0  0  0  0  0  0
  189.2320  178.0780  143.1130 C   0  0  1  0  0  3  0  0  0  0  0  0
  189.8440  176.8780  138.2180 C   0  0  0  0  0  3  0  0  0  0  0  0
  188.9670  177.6250  140.3530 C   0  0  0  0  0  0  0  0  0  0  0  0
  187.6100  178.0160  138.2370 C   0  0  0  0  0  2  0  0  0  0  0  0
  187.4070  177.4130  136.9120 N   0  0  0  0  0  0  0  0  0  0  0  0
  185.5680  176.9650  135.6130 C   0  0  0  0  0  0  0  0  0  0  0  0
  187.3390  178.4140  135.9730 O   0  0  0  0  0  0  0  0  0  0  0  0
  186.4860  175.1620  136.9670 C   0  0  0  0  0  1  0  0  0  0  0  0
  186.1680  176.6440  136.8980 C   0  0  1  0  0  3  0  0  0  0  0  0
  184.3040  176.8870  135.4200 N   0  0  0  0  0  2  0  0  0  0  0  0
  186.3710  178.0390  135.0200 C   0  0  0  0  0  2  0  0  0  0  0  0
  1 20  1  0  0  0  0
  2 17  1  0  0  0  0
  4 12  1  0  0  0  0
  4  9  1  1  0  0  0
  5 11  1  6  0  0  0
  5 18  1  0  0  0  0
  5  7  1  0  0  0  0
  6  9  1  0  0  0  0
  6 16  2  0  0  0  0
  7  2  1  6  0  0  0
  7  4  1  0  0  0  0
  8 12  1  0  0  0  0
 10 14  1  0  0  0  0
 13 15  2  0  0  0  0
 14 18  1  0  0  0  0
 14  3  1  0  0  0  0
 15 10  1  0  0  0  0
 17  6  1  0  0  0  0
 18  8  1  1  0  0  0
 19 13  1  0  0  0  0
 19  1  2  0  0  0  0
 20 10  2  0  0  0  0
 20 11  1  0  0  0  0
 21  1  1  0  0  0  0
 22 21  1  0  0  0  0
 23 26  1  0  0  0  0
 24 22  1  0  0  0  0
 26 22  1  0  0  0  0
 26 25  1  6  0  0  0
 27 23  2  0  0  0  0
 28 23  1  0  0  0  0
 28 24  1  0  0  0  0
M  END
>  <MODEL>
7

>  <REMARK>
 VINA RESULT:      -8.5      3.167      6.002
  Name = 
  2 active torsions:
  status: ('A' for Active; 'I' for Inactive)
    1  A    between atoms: C_1  and  C_2
    2  A    between atoms: C_2  and  N_3
                            x       y       z     vdW  Elec       q    Type
                         _______ _______ _______ _____ _____    ______ ____

>  <TORSDO>
F 2

$$$$
=
 OpenBabel10272401583D

 28 32  0  0  1  0  0  0  0  0999 V2000
  186.6700  177.9620  142.6920 C   0  0  0  0  0  0  0  0  0  0  0  0
  190.9000  176.4630  145.2640 C   0  0  0  0  0  2  0  0  0  0  0  0
  185.8160  179.1420  147.4420 C   0  0  0  0  0  1  0  0  0  0  0  0
  190.4070  177.4110  147.4790 C   0  0  2  0  0  3  0  0  0  0  0  0
  188.6880  177.5320  145.7860 N   0  0  1  0  0  0  0  0  0  0  0  0
  192.3620  175.9400  147.2460 C   0  0  0  0  0  0  0  0  0  0  0  0
  189.7800  176.6980  146.2790 C   0  0  1  0  0  3  0  0  0  0  0  0
  188.0790  177.5200  148.2420 C   0  0  0  0  0  2  0  0  0  0  0  0
  191.3460  176.4730  148.2220 C   0  0  0  0  0  2  0  0  0  0  0  0
  186.2000  178.5160  145.0250 C   0  0  0  0  0  0  0  0  0  0  0  0
  188.1520  177.0060  144.5280 C   0  0  0  0  0  2  0  0  0  0  0  0
  189.4340  178.0720  148.3650 N   0  0  0  0  0  2  0  0  0  0  0  0
  184.8130  179.4220  143.2520 C   0  0  0  0  0  3  0  0  0  0  0  0
  186.5380  178.3890  146.4210 N   0  0  0  0  0  0  0  0  0  0  0  0
  185.1170  179.3020  144.6080 C   0  0  0  0  0  3  0  0  0  0  0  0
  193.5190  175.7860  147.6000 O   0  0  0  0  0  0  0  0  0  0  0  0
  191.9370  175.5040  145.8640 C   0  0  0  0  0  2  0  0  0  0  0  0
  187.5990  177.4380  146.7700 C   0  0  1  0  0  3  0  0  0  0  0  0
  185.5860  178.7550  142.3000 C   0  0  0  0  0  3  0  0  0  0  0  0
  186.9920  177.8550  144.0590 C   0  0  0  0  0  0  0  0  0  0  0  0
  187.4760  177.2470  141.6360 C   0  0  0  0  0  2  0  0  0  0  0  0
  188.5160  178.0820  141.0210 N   0  0  0  0  0  0  0  0  0  0  0  0
  190.2710  177.6780  139.5960 C   0  0  0  0  0  0  0  0  0  0  0  0
  188.0980  178.4640  139.7700 O   0  0  0  0  0  0  0  0  0  0  0  0
  190.7320  177.7930  141.9830 C   0  0  0  0  0  1  0  0  0  0  0  0
  189.7610  177.3310  140.9120 C   0  0  1  0  0  3  0  0  0  0  0  0
  191.0510  176.8980  138.9450 N   0  0  0  0  0  2  0  0  0  0  0  0
  189.2250  178.4550  138.9220 C   0  0  0  0  0  2  0  0  0  0  0  0
  1 20  1  0  0  0  0
  2 17  1  0  0  0  0
  4  9  1  1  0  0  0
  4 12  1  0  0  0  0
  5 11  1  6  0  0  0
  5  7  1  0  0  0  0
  5 18  1  0  0  0  0
  6 16  2  0  0  0  0
  6  9  1  0  0  0  0
  7  2  1  6  0  0  0
  7  4  1  0  0  0  0
  8 12  1  0  0  0  0
 10 14  1  0  0  0  0
 13 15  2  0  0  0  0
 14 18  1  0  0  0  0
 14  3  1  0  0  0  0
 15 10  1  0  0  0  0
 17  6  1  0  0  0  0
 18  8  1  1  0  0  0
 19  1  2  0  0  0  0
 19 13  1  0  0  0  0
 20 11  1  0  0  0  0
 20 10  2  0  0  0  0
 21  1  1  0  0  0  0
 22 21  1  0  0  0  0
 23 26  1  0  0  0  0
 24 22  1  0  0  0  0
 26 22  1  0  0  0  0
 26 25  1  1  0  0  0
 27 23  2  0  0  0  0
 28 23  1  0  0  0  0
 28 24  1  0  0  0  0
M  END
>  <MODEL>
8

>  <REMARK>
 VINA RESULT:      -8.4      3.081      5.239
  Name = 
  2 active torsions:
  status: ('A' for Active; 'I' for Inactive)
    1  A    between atoms: C_1  and  C_2
    2  A    between atoms: C_2  and  N_3
                            x       y       z     vdW  Elec       q    Type
                         _______ _______ _______ _____ _____    ______ ____

>  <TORSDO>
F 2

$$$$
=
 OpenBabel10272401583D

 28 32  0  0  1  0  0  0  0  0999 V2000
  188.8840  177.5510  138.7520 C   0  0  0  0  0  0  0  0  0  0  0  0
  185.5280  178.4380  142.5860 C   0  0  0  0  0  2  0  0  0  0  0  0
  191.4080  176.6870  142.9430 C   0  0  0  0  0  1  0  0  0  0  0  0
  186.8580  177.6590  144.5020 C   0  0  2  0  0  3  0  0  0  0  0  0
  187.9330  177.7570  142.3410 N   0  0  1  0  0  0  0  0  0  0  0  0
  184.7210  178.7890  144.9450 C   0  0  0  0  0  0  0  0  0  0  0  0
  186.9380  178.4220  143.1780 C   0  0  1  0  0  3  0  0  0  0  0  0
  189.2920  177.9520  144.4660 C   0  0  0  0  0  2  0  0  0  0  0  0
  186.0700  178.4590  145.5280 C   0  0  0  0  0  2  0  0  0  0  0  0
  190.1670  177.1600  140.7940 C   0  0  0  0  0  0  0  0  0  0  0  0
  187.9400  178.3190  140.9880 C   0  0  0  0  0  2  0  0  0  0  0  0
  188.1590  177.1940  145.0110 N   0  0  0  0  0  2  0  0  0  0  0  0
  191.0340  176.4280  138.6500 C   0  0  0  0  0  3  0  0  0  0  0  0
  190.2820  177.2780  142.2270 N   0  0  0  0  0  0  0  0  0  0  0  0
  191.1700  176.5440  140.0340 C   0  0  0  0  0  3  0  0  0  0  0  0
  183.7320  178.7670  145.6580 O   0  0  0  0  0  0  0  0  0  0  0  0
  184.5990  179.2380  143.5090 C   0  0  0  0  0  2  0  0  0  0  0  0
  189.2510  178.0590  142.9200 C   0  0  1  0  0  3  0  0  0  0  0  0
  189.8970  176.9290  138.0130 C   0  0  0  0  0  3  0  0  0  0  0  0
  189.0080  177.6510  140.1510 C   0  0  0  0  0  0  0  0  0  0  0  0
  187.6750  178.0900  138.0290 C   0  0  0  0  0  2  0  0  0  0  0  0
  186.4940  177.2210  138.1240 N   0  0  0  0  0  0  0  0  0  0  0  0
  184.5920  176.9470  136.8670 C   0  0  0  0  0  0  0  0  0  0  0  0
  186.6970  176.1080  137.3460 O   0  0  0  0  0  0  0  0  0  0  0  0
  184.4690  178.3590  138.8460 C   0  0  0  0  0  1  0  0  0  0  0  0
  185.3110  177.9340  137.6570 C   0  0  1  0  0  3  0  0  0  0  0  0
  183.7920  177.2880  135.9260 N   0  0  0  0  0  2  0  0  0  0  0  0
  185.4660  175.7760  136.7450 C   0  0  0  0  0  2  0  0  0  0  0  0
  1 20  1  0  0  0  0
  2 17  1  0  0  0  0
  4 12  1  0  0  0  0
  4  9  1  1  0  0  0
  5 11  1  6  0  0  0
  5 18  1  0  0  0  0
  5  7  1  0  0  0  0
  6  9  1  0  0  0  0
  6 16  2  0  0  0  0
  7  2  1  6  0  0  0
  7  4  1  0  0  0  0
  8 12  1  0  0  0  0
 10 14  1  0  0  0  0
 13 15  2  0  0  0  0
 14 18  1  0  0  0  0
 14  3  1  0  0  0  0
 15 10  1  0  0  0  0
 17  6  1  0  0  0  0
 18  8  1  1  0  0  0
 19 13  1  0  0  0  0
 19  1  2  0  0  0  0
 20 10  2  0  0  0  0
 20 11  1  0  0  0  0
 21 22  1  0  0  0  0
 21  1  1  0  0  0  0
 23 26  1  0  0  0  0
 24 22  1  0  0  0  0
 26 22  1  0  0  0  0
 26 25  1  1  0  0  0
 27 23  2  0  0  0  0
 28 23  1  0  0  0  0
 28 24  1  0  0  0  0
M  END
>  <MODEL>
9

>  <REMARK>
 VINA RESULT:      -8.4      2.560      5.620
  Name = 
  2 active torsions:
  status: ('A' for Active; 'I' for Inactive)
    1  A    between atoms: C_1  and  C_2
    2  A    between atoms: C_2  and  N_3
                            x       y       z     vdW  Elec       q    Type
                         _______ _______ _______ _____ _____    ______ ____

>  <TORSDO>
F 2

$$$$
