=
 OpenBabel10272413173D

 32 34  0  0  1  0  0  0  0  0999 V2000
  187.4450  178.3880  142.6510 C   0  0  1  0  0  3  0  0  0  0  0  0
  184.8670  178.3780  142.7400 C   0  0  1  0  0  3  0  0  0  0  0  0
  185.3270  178.8660  141.3810 C   0  0  0  0  0  2  0  0  0  0  0  0
  186.1400  177.8030  142.0980 C   0  0  1  0  0  3  0  0  0  0  0  0
  185.1430  179.4080  143.7310 N   0  0  0  0  0  2  0  0  0  0  0  0
  182.8720  178.8240  144.3290 C   0  0  0  0  0  1  0  0  0  0  0  0
  184.2510  179.1640  144.8500 C   0  0  0  0  0  2  0  0  0  0  0  0
  188.1500  177.3870  143.5660 C   0  0  2  0  0  3  0  0  0  0  0  0
  187.5440  176.1320  143.4790 O   0  0  0  0  0  1  0  0  0  0  0  0
  188.1050  177.8590  145.0130 C   0  0  0  0  0  2  0  0  0  0  0  0
  189.4640  178.0980  145.5050 N   0  0  0  0  0  0  0  0  0  0  0  0
  190.4500  177.8930  144.4260 C   0  0  1  0  0  3  0  0  0  0  0  0
  191.1540  179.1930  144.0400 C   0  0  0  0  0  1  0  0  0  0  0  0
  191.4960  176.8400  144.8110 C   0  0  0  0  0  2  0  0  0  0  0  0
  191.6120  175.7360  143.7700 C   0  0  0  0  0  1  0  0  0  0  0  0
  189.7180  177.1870  146.6370 C   0  0  0  0  0  2  0  0  0  0  0  0
  189.6390  178.5310  148.6180 O   0  0  0  0  0  0  0  0  0  0  0  0
  187.8780  177.0390  148.3800 N   0  0  0  0  0  1  0  0  0  0  0  0
  189.0910  177.6340  147.9290 C   0  0  0  0  0  0  0  0  0  0  0  0
  188.3560  178.7780  141.4970 C   0  0  0  0  0  2  0  0  0  0  0  0
  190.2570  177.4190  140.6710 C   0  0  0  0  0  2  0  0  0  0  0  0
  189.4850  177.9340  139.4780 C   0  0  2  0  0  3  0  0  0  0  0  0
  188.7490  177.5270  140.7400 C   0  0  2  0  0  3  0  0  0  0  0  0
  189.3220  176.8290  138.4580 C   0  0  0  0  0  2  0  0  0  0  0  0
  190.3040  176.9980  137.4010 N   0  0  0  0  0  2  0  0  0  0  0  0
  190.7270  175.7120  137.0250 N   0  0  0  0  0  0  0  0  0  0  0  0
  192.9850  175.1130  135.8460 O   0  0  0  0  0  1  0  0  0  0  0  0
  192.9280  176.3120  137.8940 C   0  0  0  0  0  2  0  0  0  0  0  0
  191.7860  175.3160  137.9510 C   0  0  2  0  0  3  0  0  0  0  0  0
  193.0910  174.9620  137.2310 C   0  0  1  0  0  3  0  0  0  0  0  0
  189.5920  174.8050  137.2000 C   0  0  0  0  0  2  0  0  0  0  0  0
  190.0070  173.4880  137.3230 F   0  0  0  0  0  0  0  0  0  0  0  0
  1 20  1  6  0  0  0
  1  8  1  0  0  0  0
  2  5  1  1  0  0  0
  3  4  1  0  0  0  0
  3  2  1  0  0  0  0
  4  1  1  1  0  0  0
  4  2  1  0  0  0  0
  5  7  1  0  0  0  0
  6  7  1  0  0  0  0
  8  9  1  1  0  0  0
  8 10  1  0  0  0  0
 10 11  1  0  0  0  0
 11 16  1  0  0  0  0
 12 13  1  1  0  0  0
 12 14  1  0  0  0  0
 12 11  1  0  0  0  0
 15 14  1  0  0  0  0
 16 19  1  0  0  0  0
 19 18  1  0  0  0  0
 19 17  2  0  0  0  0
 21 23  1  0  0  0  0
 22 24  1  6  0  0  0
 22 21  1  0  0  0  0
 22 23  1  0  0  0  0
 23 20  1  1  0  0  0
 25 24  1  0  0  0  0
 26 31  1  0  0  0  0
 26 25  1  0  0  0  0
 28 29  1  0  0  0  0
 29 26  1  6  0  0  0
 30 27  1  6  0  0  0
 30 28  1  0  0  0  0
 30 29  1  0  0  0  0
 31 32  1  0  0  0  0
M  END
>  <MODEL>
1

>  <REMARK>
 VINA RESULT:      -5.9      0.000      0.000
  Name = 
  17 active torsions:
  status: ('A' for Active; 'I' for Inactive)
    1  A    between atoms: C_2  and  C_6
    2  A    between atoms: C_3  and  N_20
    3  A    between atoms: C_3  and  C_22
    4  A    between atoms: C_4  and  C_14
    5  A    between atoms: C_4  and  C_24
    6  A    between atoms: C_4  and  C_30
    7  A    between atoms: C_5  and  C_14
    8  A    between atoms: C_6  and  N_17
    9  A    between atoms: C_11  and  N_12
   10  A    between atoms: N_12  and  N_17
   11  A    between atoms: N_12  and  C_28
   12  A    between atoms: N_13  and  C_18
   13  A    between atoms: N_13  and  C_29
   14  A    between atoms: C_15  and  N_20
   15  A    between atoms: C_15  and  C_26
   16  A    between atoms: C_16  and  N_20
   17  A    between atoms: C_16  and  C_24
                            x       y       z     vdW  Elec       q    Type
                         _______ _______ _______ _____ _____    ______ ____

>  <TORSDO>
F 17

$$$$
=
 OpenBabel10272413173D

 32 34  0  0  1  0  0  0  0  0999 V2000
  189.2400  177.6160  143.1190 C   0  0  1  0  0  3  0  0  0  0  0  0
  191.0300  177.9980  144.9370 C   0  0  1  0  0  3  0  0  0  0  0  0
  191.3810  178.8030  143.7010 C   0  0  0  0  0  2  0  0  0  0  0  0
  189.9200  178.6110  144.0680 C   0  0  1  0  0  3  0  0  0  0  0  0
  191.2560  176.5860  144.6630 N   0  0  0  0  0  2  0  0  0  0  0  0
  191.2430  176.5120  147.0820 C   0  0  0  0  0  1  0  0  0  0  0  0
  191.9330  176.0350  145.8220 C   0  0  0  0  0  2  0  0  0  0  0  0
  187.9000  177.1470  143.6850 C   0  0  2  0  0  3  0  0  0  0  0  0
  187.6890  175.7980  143.3940 O   0  0  0  0  0  1  0  0  0  0  0  0
  186.7560  177.9640  143.0990 C   0  0  0  0  0  2  0  0  0  0  0  0
  185.6200  177.9720  144.0230 N   0  0  0  0  0  0  0  0  0  0  0  0
  184.3700  178.2930  143.3060 C   0  0  1  0  0  3  0  0  0  0  0  0
  183.6320  179.4720  143.9380 C   0  0  0  0  0  1  0  0  0  0  0  0
  184.6310  178.5880  141.8240 C   0  0  0  0  0  2  0  0  0  0  0  0
  183.5650  177.9880  140.9190 C   0  0  0  0  0  1  0  0  0  0  0  0
  185.8890  178.9570  145.0870 C   0  0  0  0  0  2  0  0  0  0  0  0
  184.7610  178.3870  147.1220 O   0  0  0  0  0  0  0  0  0  0  0  0
  187.0140  177.8320  147.0650 N   0  0  0  0  0  1  0  0  0  0  0  0
  185.8400  178.3810  146.4760 C   0  0  0  0  0  0  0  0  0  0  0  0
  189.0380  178.2680  141.7600 C   0  0  0  0  0  2  0  0  0  0  0  0
  190.7220  176.9890  140.4680 C   0  0  0  0  0  2  0  0  0  0  0  0
  189.9570  177.8730  139.5100 C   0  0  2  0  0  3  0  0  0  0  0  0
  189.2420  177.2260  140.6810 C   0  0  2  0  0  3  0  0  0  0  0  0
  189.6140  177.0960  138.2590 C   0  0  0  0  0  2  0  0  0  0  0  0
  189.0590  177.9990  137.2650 N   0  0  0  0  0  2  0  0  0  0  0  0
  188.0480  177.2950  136.5900 N   0  0  0  0  0  0  0  0  0  0  0  0
  185.9200  175.9130  137.2290 O   0  0  0  0  0  1  0  0  0  0  0  0
  186.2980  178.0900  138.0960 C   0  0  0  0  0  2  0  0  0  0  0  0
  186.8290  178.0990  136.6750 C   0  0  2  0  0  3  0  0  0  0  0  0
  185.6010  177.2600  137.0410 C   0  0  1  0  0  3  0  0  0  0  0  0
  188.4420  177.1970  135.1850 C   0  0  0  0  0  2  0  0  0  0  0  0
  189.7180  177.7000  134.9760 F   0  0  0  0  0  0  0  0  0  0  0  0
  1 20  1  6  0  0  0
  1  8  1  0  0  0  0
  2  5  1  6  0  0  0
  3  4  1  0  0  0  0
  3  2  1  0  0  0  0
  4  1  1  6  0  0  0
  4  2  1  0  0  0  0
  5  7  1  0  0  0  0
  7  6  1  0  0  0  0
  8  9  1  6  0  0  0
 10  8  1  0  0  0  0
 10 11  1  0  0  0  0
 11 16  1  0  0  0  0
 12 13  1  1  0  0  0
 12 11  1  0  0  0  0
 14 12  1  0  0  0  0
 15 14  1  0  0  0  0
 16 19  1  0  0  0  0
 19 18  1  0  0  0  0
 19 17  2  0  0  0  0
 21 23  1  0  0  0  0
 22 24  1  6  0  0  0
 22 21  1  0  0  0  0
 22 23  1  0  0  0  0
 23 20  1  1  0  0  0
 25 24  1  0  0  0  0
 26 25  1  0  0  0  0
 29 26  1  1  0  0  0
 29 30  1  0  0  0  0
 29 28  1  0  0  0  0
 30 27  1  1  0  0  0
 30 28  1  0  0  0  0
 31 26  1  0  0  0  0
 32 31  1  0  0  0  0
M  END
>  <MODEL>
2

>  <REMARK>
 VINA RESULT:      -5.9      2.469      5.209
  Name = 
  17 active torsions:
  status: ('A' for Active; 'I' for Inactive)
    1  A    between atoms: C_2  and  C_6
    2  A    between atoms: C_3  and  N_20
    3  A    between atoms: C_3  and  C_22
    4  A    between atoms: C_4  and  C_14
    5  A    between atoms: C_4  and  C_24
    6  A    between atoms: C_4  and  C_30
    7  A    between atoms: C_5  and  C_14
    8  A    between atoms: C_6  and  N_17
    9  A    between atoms: C_11  and  N_12
   10  A    between atoms: N_12  and  N_17
   11  A    between atoms: N_12  and  C_28
   12  A    between atoms: N_13  and  C_18
   13  A    between atoms: N_13  and  C_29
   14  A    between atoms: C_15  and  N_20
   15  A    between atoms: C_15  and  C_26
   16  A    between atoms: C_16  and  N_20
   17  A    between atoms: C_16  and  C_24
                            x       y       z     vdW  Elec       q    Type
                         _______ _______ _______ _____ _____    ______ ____

>  <TORSDO>
F 17

$$$$
=
 OpenBabel10272413173D

 32 34  0  0  1  0  0  0  0  0999 V2000
  189.3880  177.4530  143.3510 C   0  0  1  0  0  3  0  0  0  0  0  0
  191.2320  177.8360  145.1150 C   0  0  1  0  0  3  0  0  0  0  0  0
  191.4870  178.7210  143.9110 C   0  0  0  0  0  2  0  0  0  0  0  0
  190.0550  178.4320  144.3250 C   0  0  1  0  0  3  0  0  0  0  0  0
  191.5190  176.4540  144.7560 N   0  0  0  0  0  2  0  0  0  0  0  0
  191.4470  176.5520  147.1720 C   0  0  0  0  0  1  0  0  0  0  0  0
  191.9490  175.7850  145.9690 C   0  0  0  0  0  2  0  0  0  0  0  0
  187.9820  177.0830  143.8230 C   0  0  2  0  0  3  0  0  0  0  0  0
  187.6480  175.7930  143.4070 O   0  0  0  0  0  1  0  0  0  0  0  0
  186.9560  178.0630  143.2700 C   0  0  0  0  0  2  0  0  0  0  0  0
  185.7280  178.0070  144.0660 N   0  0  0  0  0  0  0  0  0  0  0  0
  184.5450  178.2200  143.2100 C   0  0  1  0  0  3  0  0  0  0  0  0
  183.4700  179.0490  143.9120 C   0  0  0  0  0  1  0  0  0  0  0  0
  184.9230  178.8910  141.8840 C   0  0  0  0  0  2  0  0  0  0  0  0
  183.9290  178.5780  140.7740 C   0  0  0  0  0  1  0  0  0  0  0  0
  185.8090  179.0310  145.1240 C   0  0  0  0  0  2  0  0  0  0  0  0
  184.7000  178.3630  147.1390 O   0  0  0  0  0  0  0  0  0  0  0  0
  187.0010  178.0570  147.1430 N   0  0  0  0  0  1  0  0  0  0  0  0
  185.7890  178.4680  146.5180 C   0  0  0  0  0  0  0  0  0  0  0  0
  189.3300  178.0760  141.9650 C   0  0  0  0  0  2  0  0  0  0  0  0
  190.9820  176.9920  140.4690 C   0  0  0  0  0  2  0  0  0  0  0  0
  189.9180  177.6420  139.6140 C   0  0  2  0  0  3  0  0  0  0  0  0
  189.5400  176.9910  140.9300 C   0  0  2  0  0  3  0  0  0  0  0  0
  189.5210  176.7070  138.4930 C   0  0  0  0  0  2  0  0  0  0  0  0
  190.6490  175.8600  138.1460 N   0  0  0  0  0  2  0  0  0  0  0  0
  191.2270  176.4020  136.9870 N   0  0  0  0  0  0  0  0  0  0  0  0
  193.7400  176.9430  137.4800 O   0  0  0  0  0  1  0  0  0  0  0  0
  192.8960  174.7280  137.5980 C   0  0  0  0  0  2  0  0  0  0  0  0
  192.1580  175.4050  136.4590 C   0  0  2  0  0  3  0  0  0  0  0  0
  193.6190  175.7550  136.7550 C   0  0  1  0  0  3  0  0  0  0  0  0
  190.1570  176.6010  136.0100 C   0  0  0  0  0  2  0  0  0  0  0  0
  189.6980  175.3950  135.5030 F   0  0  0  0  0  0  0  0  0  0  0  0
  1 20  1  6  0  0  0
  1  8  1  0  0  0  0
  2  5  1  6  0  0  0
  3  4  1  0  0  0  0
  3  2  1  0  0  0  0
  4  1  1  6  0  0  0
  4  2  1  0  0  0  0
  5  7  1  0  0  0  0
  7  6  1  0  0  0  0
  8  9  1  6  0  0  0
 10  8  1  0  0  0  0
 10 11  1  0  0  0  0
 11 16  1  0  0  0  0
 12 13  1  1  0  0  0
 12 11  1  0  0  0  0
 14 12  1  0  0  0  0
 15 14  1  0  0  0  0
 16 19  1  0  0  0  0
 19 17  2  0  0  0  0
 19 18  1  0  0  0  0
 21 23  1  0  0  0  0
 22 24  1  6  0  0  0
 22 21  1  0  0  0  0
 22 23  1  0  0  0  0
 23 20  1  1  0  0  0
 25 24  1  0  0  0  0
 26 25  1  0  0  0  0
 29 30  1  0  0  0  0
 29 26  1  1  0  0  0
 29 28  1  0  0  0  0
 30 27  1  1  0  0  0
 30 28  1  0  0  0  0
 31 26  1  0  0  0  0
 32 31  1  0  0  0  0
M  END
>  <MODEL>
3

>  <REMARK>
 VINA RESULT:      -5.8      1.716      4.575
  Name = 
  17 active torsions:
  status: ('A' for Active; 'I' for Inactive)
    1  A    between atoms: C_2  and  C_6
    2  A    between atoms: C_3  and  N_20
    3  A    between atoms: C_3  and  C_22
    4  A    between atoms: C_4  and  C_14
    5  A    between atoms: C_4  and  C_24
    6  A    between atoms: C_4  and  C_30
    7  A    between atoms: C_5  and  C_14
    8  A    between atoms: C_6  and  N_17
    9  A    between atoms: C_11  and  N_12
   10  A    between atoms: N_12  and  N_17
   11  A    between atoms: N_12  and  C_28
   12  A    between atoms: N_13  and  C_18
   13  A    between atoms: N_13  and  C_29
   14  A    between atoms: C_15  and  N_20
   15  A    between atoms: C_15  and  C_26
   16  A    between atoms: C_16  and  N_20
   17  A    between atoms: C_16  and  C_24
                            x       y       z     vdW  Elec       q    Type
                         _______ _______ _______ _____ _____    ______ ____

>  <TORSDO>
F 17

$$$$
=
 OpenBabel10272413173D

 32 34  0  0  1  0  0  0  0  0999 V2000
  187.5570  178.2870  142.5900 C   0  0  1  0  0  3  0  0  0  0  0  0
  184.9810  178.4160  142.6700 C   0  0  1  0  0  3  0  0  0  0  0  0
  185.4710  178.8650  141.3080 C   0  0  0  0  0  2  0  0  0  0  0  0
  186.2230  177.7670  142.0380 C   0  0  1  0  0  3  0  0  0  0  0  0
  185.3100  179.4400  143.6530 N   0  0  0  0  0  2  0  0  0  0  0  0
  183.0470  178.7260  144.1310 C   0  0  0  0  0  1  0  0  0  0  0  0
  184.0630  179.8380  144.2790 C   0  0  0  0  0  2  0  0  0  0  0  0
  188.2010  177.2600  143.5210 C   0  0  2  0  0  3  0  0  0  0  0  0
  187.6300  176.0000  143.3320 O   0  0  0  0  0  1  0  0  0  0  0  0
  188.0230  177.6700  144.9770 C   0  0  0  0  0  2  0  0  0  0  0  0
  189.3220  178.0000  145.5680 N   0  0  0  0  0  0  0  0  0  0  0  0
  190.4020  177.8240  144.5770 C   0  0  1  0  0  3  0  0  0  0  0  0
  191.0940  179.1450  144.2420 C   0  0  0  0  0  1  0  0  0  0  0  0
  191.4460  176.8080  145.0550 C   0  0  0  0  0  2  0  0  0  0  0  0
  191.7060  175.7190  144.0250 C   0  0  0  0  0  1  0  0  0  0  0  0
  189.5340  177.1360  146.7430 C   0  0  0  0  0  2  0  0  0  0  0  0
  189.8890  178.4570  148.7100 O   0  0  0  0  0  0  0  0  0  0  0  0
  187.7650  177.5420  148.5180 N   0  0  0  0  0  1  0  0  0  0  0  0
  189.0890  177.7540  148.0410 C   0  0  0  0  0  0  0  0  0  0  0  0
  188.4920  178.6090  141.4350 C   0  0  0  0  0  2  0  0  0  0  0  0
  190.6690  177.5190  140.9720 C   0  0  0  0  0  2  0  0  0  0  0  0
  189.8940  177.6060  139.6770 C   0  0  2  0  0  3  0  0  0  0  0  0
  189.1670  177.3330  140.9800 C   0  0  2  0  0  3  0  0  0  0  0  0
  190.0130  176.3020  138.9210 C   0  0  0  0  0  2  0  0  0  0  0  0
  189.7220  176.5290  137.5160 N   0  0  0  0  0  2  0  0  0  0  0  0
  188.3250  176.4890  137.3740 N   0  0  0  0  0  0  0  0  0  0  0  0
  186.8740  178.5220  138.1560 O   0  0  0  0  0  1  0  0  0  0  0  0
  188.5970  178.7680  136.5420 C   0  0  0  0  0  2  0  0  0  0  0  0
  187.9720  177.4090  136.2930 C   0  0  2  0  0  3  0  0  0  0  0  0
  187.1150  178.5820  136.7810 C   0  0  1  0  0  3  0  0  0  0  0  0
  187.9610  175.1320  136.9660 C   0  0  0  0  0  2  0  0  0  0  0  0
  188.9780  174.5270  136.2430 F   0  0  0  0  0  0  0  0  0  0  0  0
  1 20  1  6  0  0  0
  1  8  1  0  0  0  0
  2  5  1  1  0  0  0
  3  4  1  0  0  0  0
  3  2  1  0  0  0  0
  4  1  1  1  0  0  0
  4  2  1  0  0  0  0
  5  7  1  0  0  0  0
  6  7  1  0  0  0  0
  8  9  1  1  0  0  0
  8 10  1  0  0  0  0
 10 11  1  0  0  0  0
 11 16  1  0  0  0  0
 12 13  1  1  0  0  0
 12 14  1  0  0  0  0
 12 11  1  0  0  0  0
 15 14  1  0  0  0  0
 16 19  1  0  0  0  0
 19 18  1  0  0  0  0
 19 17  2  0  0  0  0
 21 23  1  0  0  0  0
 22 24  1  6  0  0  0
 22 21  1  0  0  0  0
 22 23  1  0  0  0  0
 23 20  1  1  0  0  0
 25 24  1  0  0  0  0
 26 25  1  0  0  0  0
 28 30  1  0  0  0  0
 29 28  1  0  0  0  0
 29 30  1  0  0  0  0
 29 26  1  1  0  0  0
 30 27  1  1  0  0  0
 31 26  1  0  0  0  0
 32 31  1  0  0  0  0
M  END
>  <MODEL>
4

>  <REMARK>
 VINA RESULT:      -5.7      1.726      2.295
  Name = 
  17 active torsions:
  status: ('A' for Active; 'I' for Inactive)
    1  A    between atoms: C_2  and  C_6
    2  A    between atoms: C_3  and  N_20
    3  A    between atoms: C_3  and  C_22
    4  A    between atoms: C_4  and  C_14
    5  A    between atoms: C_4  and  C_24
    6  A    between atoms: C_4  and  C_30
    7  A    between atoms: C_5  and  C_14
    8  A    between atoms: C_6  and  N_17
    9  A    between atoms: C_11  and  N_12
   10  A    between atoms: N_12  and  N_17
   11  A    between atoms: N_12  and  C_28
   12  A    between atoms: N_13  and  C_18
   13  A    between atoms: N_13  and  C_29
   14  A    between atoms: C_15  and  N_20
   15  A    between atoms: C_15  and  C_26
   16  A    between atoms: C_16  and  N_20
   17  A    between atoms: C_16  and  C_24
                            x       y       z     vdW  Elec       q    Type
                         _______ _______ _______ _____ _____    ______ ____

>  <TORSDO>
F 17

$$$$
=
 OpenBabel10272413173D

 32 34  0  0  1  0  0  0  0  0999 V2000
  189.8960  177.4020  142.6850 C   0  0  1  0  0  3  0  0  0  0  0  0
  190.8400  177.9210  145.0300 C   0  0  1  0  0  3  0  0  0  0  0  0
  191.5770  178.7430  143.9910 C   0  0  0  0  0  2  0  0  0  0  0  0
  190.1020  178.4480  143.7890 C   0  0  1  0  0  3  0  0  0  0  0  0
  191.2440  176.5270  144.9050 N   0  0  0  0  0  2  0  0  0  0  0  0
  191.0380  176.6680  147.3120 C   0  0  0  0  0  1  0  0  0  0  0  0
  191.8740  176.1570  146.1580 C   0  0  0  0  0  2  0  0  0  0  0  0
  188.4670  177.4510  142.1440 C   0  0  2  0  0  3  0  0  0  0  0  0
  188.1570  178.7360  141.6940 O   0  0  0  0  0  1  0  0  0  0  0  0
  187.4710  177.0530  143.2250 C   0  0  0  0  0  2  0  0  0  0  0  0
  186.5310  178.1490  143.4710 N   0  0  0  0  0  0  0  0  0  0  0  0
  186.4980  178.4920  144.9060 C   0  0  1  0  0  3  0  0  0  0  0  0
  185.0730  178.7220  145.4080 C   0  0  0  0  0  1  0  0  0  0  0  0
  187.1730  177.4110  145.7590 C   0  0  0  0  0  2  0  0  0  0  0  0
  187.4670  177.8920  147.1730 C   0  0  0  0  0  1  0  0  0  0  0  0
  185.1980  177.7370  142.9920 C   0  0  0  0  0  2  0  0  0  0  0  0
  185.3080  179.6030  141.4940 O   0  0  0  0  0  0  0  0  0  0  0  0
  183.3580  178.3520  141.3550 N   0  0  0  0  0  1  0  0  0  0  0  0
  184.6420  178.6210  141.9090 C   0  0  0  0  0  0  0  0  0  0  0  0
  190.8920  177.6480  141.5620 C   0  0  0  0  0  2  0  0  0  0  0  0
  191.6880  176.8020  139.3730 C   0  0  0  0  0  2  0  0  0  0  0  0
  190.2890  177.3470  139.1940 C   0  0  2  0  0  3  0  0  0  0  0  0
  190.6630  176.6220  140.4720 C   0  0  2  0  0  3  0  0  0  0  0  0
  189.4780  176.4020  138.3350 C   0  0  0  0  0  2  0  0  0  0  0  0
  188.1460  176.9480  138.1420 N   0  0  0  0  0  2  0  0  0  0  0  0
  187.9010  176.9530  136.7590 N   0  0  0  0  0  0  0  0  0  0  0  0
  187.4970  175.0610  134.9970 O   0  0  0  0  0  1  0  0  0  0  0  0
  186.2290  175.1900  136.9990 C   0  0  0  0  0  2  0  0  0  0  0  0
  186.4900  176.6200  136.5670 C   0  0  2  0  0  3  0  0  0  0  0  0
  186.2860  175.5180  135.5230 C   0  0  1  0  0  3  0  0  0  0  0  0
  188.1270  178.3150  136.2750 C   0  0  0  0  0  2  0  0  0  0  0  0
  187.1020  179.1680  136.6560 F   0  0  0  0  0  0  0  0  0  0  0  0
  1 20  1  6  0  0  0
  2  5  1  6  0  0  0
  3  2  1  0  0  0  0
  4  1  1  6  0  0  0
  4  3  1  0  0  0  0
  4  2  1  0  0  0  0
  5  7  1  0  0  0  0
  7  6  1  0  0  0  0
  8  9  1  1  0  0  0
  8  1  1  0  0  0  0
  8 10  1  0  0  0  0
 10 11  1  0  0  0  0
 11 12  1  0  0  0  0
 12 13  1  1  0  0  0
 12 14  1  0  0  0  0
 14 15  1  0  0  0  0
 16 11  1  0  0  0  0
 17 19  2  0  0  0  0
 18 19  1  0  0  0  0
 19 16  1  0  0  0  0
 21 23  1  0  0  0  0
 22 24  1  6  0  0  0
 22 21  1  0  0  0  0
 22 23  1  0  0  0  0
 23 20  1  1  0  0  0
 25 24  1  0  0  0  0
 26 25  1  0  0  0  0
 29 26  1  6  0  0  0
 29 28  1  0  0  0  0
 30 27  1  6  0  0  0
 30 29  1  0  0  0  0
 30 28  1  0  0  0  0
 31 32  1  0  0  0  0
 31 26  1  0  0  0  0
M  END
>  <MODEL>
5

>  <REMARK>
 VINA RESULT:      -5.7      2.726      5.386
  Name = 
  17 active torsions:
  status: ('A' for Active; 'I' for Inactive)
    1  A    between atoms: C_2  and  C_6
    2  A    between atoms: C_3  and  N_20
    3  A    between atoms: C_3  and  C_22
    4  A    between atoms: C_4  and  C_14
    5  A    between atoms: C_4  and  C_24
    6  A    between atoms: C_4  and  C_30
    7  A    between atoms: C_5  and  C_14
    8  A    between atoms: C_6  and  N_17
    9  A    between atoms: C_11  and  N_12
   10  A    between atoms: N_12  and  N_17
   11  A    between atoms: N_12  and  C_28
   12  A    between atoms: N_13  and  C_18
   13  A    between atoms: N_13  and  C_29
   14  A    between atoms: C_15  and  N_20
   15  A    between atoms: C_15  and  C_26
   16  A    between atoms: C_16  and  N_20
   17  A    between atoms: C_16  and  C_24
                            x       y       z     vdW  Elec       q    Type
                         _______ _______ _______ _____ _____    ______ ____

>  <TORSDO>
F 17

$$$$
=
 OpenBabel10272413173D

 32 34  0  0  1  0  0  0  0  0999 V2000
  185.1780  178.2500  143.0470 C   0  0  1  0  0  3  0  0  0  0  0  0
  183.3560  179.7160  144.1360 C   0  0  1  0  0  3  0  0  0  0  0  0
  184.2580  179.1430  145.2110 C   0  0  0  0  0  2  0  0  0  0  0  0
  184.8550  179.5070  143.8630 C   0  0  1  0  0  3  0  0  0  0  0  0
  182.5240  178.6490  143.5980 N   0  0  0  0  0  2  0  0  0  0  0  0
  180.1450  178.2840  143.8530 C   0  0  0  0  0  1  0  0  0  0  0  0
  181.2160  179.2230  143.3420 C   0  0  0  0  0  2  0  0  0  0  0  0
  185.9440  178.6070  141.7720 C   0  0  2  0  0  3  0  0  0  0  0  0
  186.0310  179.9920  141.6250 O   0  0  0  0  0  1  0  0  0  0  0  0
  185.2500  178.0220  140.5490 C   0  0  0  0  0  2  0  0  0  0  0  0
  185.6030  178.7930  139.3550 N   0  0  0  0  0  0  0  0  0  0  0  0
  184.3950  179.1140  138.5700 C   0  0  1  0  0  3  0  0  0  0  0  0
  183.9470  177.9380  137.7010 C   0  0  0  0  0  1  0  0  0  0  0  0
  183.2360  179.5540  139.4720 C   0  0  0  0  0  2  0  0  0  0  0  0
  182.1660  180.3190  138.7070 C   0  0  0  0  0  1  0  0  0  0  0  0
  186.5620  178.0060  138.5580 C   0  0  0  0  0  2  0  0  0  0  0  0
  188.6320  179.1570  138.1940 O   0  0  0  0  0  0  0  0  0  0  0  0
  188.6600  177.6200  139.9330 N   0  0  0  0  0  1  0  0  0  0  0  0
  188.0020  178.3050  138.8720 C   0  0  0  0  0  0  0  0  0  0  0  0
  185.9940  177.2890  143.8980 C   0  0  0  0  0  2  0  0  0  0  0  0
  188.3180  176.4890  143.5790 C   0  0  0  0  0  2  0  0  0  0  0  0
  188.1870  177.0280  144.9850 C   0  0  2  0  0  3  0  0  0  0  0  0
  187.4500  177.7010  143.8440 C   0  0  2  0  0  3  0  0  0  0  0  0
  189.3970  177.8680  145.3260 C   0  0  0  0  0  2  0  0  0  0  0  0
  190.0900  177.2810  146.4600 N   0  0  0  0  0  2  0  0  0  0  0  0
  191.4630  177.3170  146.1660 N   0  0  0  0  0  0  0  0  0  0  0  0
  192.6090  176.9250  148.4860 O   0  0  0  0  0  1  0  0  0  0  0  0
  191.2440  175.2670  147.4740 C   0  0  0  0  0  2  0  0  0  0  0  0
  191.9800  175.9600  146.3440 C   0  0  2  0  0  3  0  0  0  0  0  0
  192.6530  175.7660  147.7060 C   0  0  1  0  0  3  0  0  0  0  0  0
  191.6040  177.6860  144.7570 C   0  0  0  0  0  2  0  0  0  0  0  0
  191.9740  176.5990  143.9790 F   0  0  0  0  0  0  0  0  0  0  0  0
  1 20  1  1  0  0  0
  2  5  1  6  0  0  0
  2  3  1  0  0  0  0
  4  1  1  6  0  0  0
  4  2  1  0  0  0  0
  4  3  1  0  0  0  0
  7  5  1  0  0  0  0
  7  6  1  0  0  0  0
  8  9  1  6  0  0  0
  8  1  1  0  0  0  0
 10  8  1  0  0  0  0
 11 10  1  0  0  0  0
 12 13  1  1  0  0  0
 12 11  1  0  0  0  0
 12 14  1  0  0  0  0
 15 14  1  0  0  0  0
 16 19  1  0  0  0  0
 16 11  1  0  0  0  0
 17 19  2  0  0  0  0
 19 18  1  0  0  0  0
 21 23  1  0  0  0  0
 21 22  1  0  0  0  0
 22 24  1  6  0  0  0
 23 20  1  1  0  0  0
 23 22  1  0  0  0  0
 24 25  1  0  0  0  0
 26 25  1  0  0  0  0
 28 30  1  0  0  0  0
 29 26  1  1  0  0  0
 29 28  1  0  0  0  0
 29 30  1  0  0  0  0
 30 27  1  1  0  0  0
 31 26  1  0  0  0  0
 32 31  1  0  0  0  0
M  END
>  <MODEL>
6

>  <REMARK>
 VINA RESULT:      -5.6      3.245      7.452
  Name = 
  17 active torsions:
  status: ('A' for Active; 'I' for Inactive)
    1  A    between atoms: C_2  and  C_6
    2  A    between atoms: C_3  and  N_20
    3  A    between atoms: C_3  and  C_22
    4  A    between atoms: C_4  and  C_14
    5  A    between atoms: C_4  and  C_24
    6  A    between atoms: C_4  and  C_30
    7  A    between atoms: C_5  and  C_14
    8  A    between atoms: C_6  and  N_17
    9  A    between atoms: C_11  and  N_12
   10  A    between atoms: N_12  and  N_17
   11  A    between atoms: N_12  and  C_28
   12  A    between atoms: N_13  and  C_18
   13  A    between atoms: N_13  and  C_29
   14  A    between atoms: C_15  and  N_20
   15  A    between atoms: C_15  and  C_26
   16  A    between atoms: C_16  and  N_20
   17  A    between atoms: C_16  and  C_24
                            x       y       z     vdW  Elec       q    Type
                         _______ _______ _______ _____ _____    ______ ____

>  <TORSDO>
F 17

$$$$
=
 OpenBabel10272413173D

 32 34  0  0  1  0  0  0  0  0999 V2000
  188.9100  177.4860  140.9500 C   0  0  1  0  0  3  0  0  0  0  0  0
  189.5180  177.4360  138.4430 C   0  0  1  0  0  3  0  0  0  0  0  0
  188.9970  178.8110  138.8120 C   0  0  0  0  0  2  0  0  0  0  0  0
  189.8080  178.0290  139.8310 C   0  0  1  0  0  3  0  0  0  0  0  0
  188.4080  176.4930  138.4460 N   0  0  0  0  0  2  0  0  0  0  0  0
  186.3570  177.0250  137.2770 C   0  0  0  0  0  1  0  0  0  0  0  0
  187.7910  176.5650  137.1350 C   0  0  0  0  0  2  0  0  0  0  0  0
  189.7470  176.9500  142.1110 C   0  0  2  0  0  3  0  0  0  0  0  0
  189.1540  175.8090  142.6560 O   0  0  0  0  0  1  0  0  0  0  0  0
  189.8870  178.0030  143.2020 C   0  0  0  0  0  2  0  0  0  0  0  0
  189.7690  177.3790  144.5210 N   0  0  0  0  0  0  0  0  0  0  0  0
  188.6850  178.0110  145.2980 C   0  0  1  0  0  3  0  0  0  0  0  0
  187.3390  177.3260  145.0670 C   0  0  0  0  0  1  0  0  0  0  0  0
  189.0010  178.0250  146.7990 C   0  0  0  0  0  2  0  0  0  0  0  0
  188.4160  176.8210  147.5230 C   0  0  0  0  0  1  0  0  0  0  0  0
  191.0630  177.5050  145.2160 C   0  0  0  0  0  2  0  0  0  0  0  0
  191.9820  175.4120  144.5000 O   0  0  0  0  0  0  0  0  0  0  0  0
  192.1400  175.8190  146.7790 N   0  0  0  0  0  1  0  0  0  0  0  0
  191.7520  176.1900  145.4610 C   0  0  0  0  0  0  0  0  0  0  0  0
  187.9820  178.5890  141.4350 C   0  0  0  0  0  2  0  0  0  0  0  0
  185.6970  178.8600  140.5140 C   0  0  0  0  0  2  0  0  0  0  0  0
  185.6500  179.1440  141.9980 C   0  0  2  0  0  3  0  0  0  0  0  0
  186.5640  178.0590  141.4630 C   0  0  2  0  0  3  0  0  0  0  0  0
  184.4360  178.4810  142.6080 C   0  0  0  0  0  2  0  0  0  0  0  0
  183.3150  178.5850  141.6900 N   0  0  0  0  0  2  0  0  0  0  0  0
  182.2450  179.1430  142.4090 N   0  0  0  0  0  0  0  0  0  0  0  0
  180.3990  180.5640  141.2160 O   0  0  0  0  0  1  0  0  0  0  0  0
  180.8730  178.3320  140.5600 C   0  0  0  0  0  2  0  0  0  0  0  0
  181.0470  178.3790  142.0660 C   0  0  2  0  0  3  0  0  0  0  0  0
  179.9820  179.2400  141.3790 C   0  0  1  0  0  3  0  0  0  0  0  0
  182.5240  178.9550  143.8330 C   0  0  0  0  0  2  0  0  0  0  0  0
  181.3680  178.6770  144.5460 F   0  0  0  0  0  0  0  0  0  0  0  0
  1 20  1  1  0  0  0
  1  8  1  0  0  0  0
  2  5  1  1  0  0  0
  2  3  1  0  0  0  0
  2  4  1  0  0  0  0
  3  4  1  0  0  0  0
  4  1  1  1  0  0  0
  7  6  1  0  0  0  0
  7  5  1  0  0  0  0
  8  9  1  1  0  0  0
  8 10  1  0  0  0  0
 10 11  1  0  0  0  0
 11 16  1  0  0  0  0
 11 12  1  0  0  0  0
 12 13  1  1  0  0  0
 12 14  1  0  0  0  0
 14 15  1  0  0  0  0
 16 19  1  0  0  0  0
 17 19  2  0  0  0  0
 19 18  1  0  0  0  0
 21 23  1  0  0  0  0
 21 22  1  0  0  0  0
 22 24  1  1  0  0  0
 23 20  1  6  0  0  0
 23 22  1  0  0  0  0
 25 26  1  0  0  0  0
 25 24  1  0  0  0  0
 26 31  1  0  0  0  0
 28 30  1  0  0  0  0
 28 29  1  0  0  0  0
 29 26  1  6  0  0  0
 30 27  1  6  0  0  0
 30 29  1  0  0  0  0
 31 32  1  0  0  0  0
M  END
>  <MODEL>
7

>  <REMARK>
 VINA RESULT:      -5.6      3.385      7.270
  Name = 
  17 active torsions:
  status: ('A' for Active; 'I' for Inactive)
    1  A    between atoms: C_2  and  C_6
    2  A    between atoms: C_3  and  N_20
    3  A    between atoms: C_3  and  C_22
    4  A    between atoms: C_4  and  C_14
    5  A    between atoms: C_4  and  C_24
    6  A    between atoms: C_4  and  C_30
    7  A    between atoms: C_5  and  C_14
    8  A    between atoms: C_6  and  N_17
    9  A    between atoms: C_11  and  N_12
   10  A    between atoms: N_12  and  N_17
   11  A    between atoms: N_12  and  C_28
   12  A    between atoms: N_13  and  C_18
   13  A    between atoms: N_13  and  C_29
   14  A    between atoms: C_15  and  N_20
   15  A    between atoms: C_15  and  C_26
   16  A    between atoms: C_16  and  N_20
   17  A    between atoms: C_16  and  C_24
                            x       y       z     vdW  Elec       q    Type
                         _______ _______ _______ _____ _____    ______ ____

>  <TORSDO>
F 17

$$$$
=
 OpenBabel10272413173D

 32 34  0  0  1  0  0  0  0  0999 V2000
  188.9450  177.2020  142.8350 C   0  0  1  0  0  3  0  0  0  0  0  0
  190.0180  178.4140  144.8440 C   0  0  1  0  0  3  0  0  0  0  0  0
  191.0930  177.7100  144.0420 C   0  0  0  0  0  2  0  0  0  0  0  0
  189.8990  178.3030  143.3150 C   0  0  1  0  0  3  0  0  0  0  0  0
  189.2260  177.4180  145.5520 N   0  0  0  0  0  2  0  0  0  0  0  0
  188.4430  177.8180  147.8070 C   0  0  0  0  0  1  0  0  0  0  0  0
  189.6350  177.4660  146.9430 C   0  0  0  0  0  2  0  0  0  0  0  0
  187.6970  177.8040  142.1890 C   0  0  2  0  0  3  0  0  0  0  0  0
  187.9000  179.1530  141.8930 O   0  0  0  0  0  1  0  0  0  0  0  0
  186.4980  177.6770  143.1190 C   0  0  0  0  0  2  0  0  0  0  0  0
  185.5390  178.7520  142.8530 N   0  0  0  0  0  0  0  0  0  0  0  0
  185.1350  179.4090  144.1110 C   0  0  1  0  0  3  0  0  0  0  0  0
  183.6220  179.3710  144.3180 C   0  0  0  0  0  1  0  0  0  0  0  0
  185.8330  178.7820  145.3240 C   0  0  0  0  0  2  0  0  0  0  0  0
  184.8530  178.4140  146.4290 C   0  0  0  0  0  1  0  0  0  0  0  0
  184.3740  178.1780  142.1560 C   0  0  0  0  0  2  0  0  0  0  0  0
  184.8990  179.5540  140.2670 O   0  0  0  0  0  0  0  0  0  0  0  0
  183.5570  177.7210  139.7960 N   0  0  0  0  0  1  0  0  0  0  0  0
  184.3030  178.5340  140.6960 C   0  0  0  0  0  0  0  0  0  0  0  0
  189.6670  176.3010  141.8450 C   0  0  0  0  0  2  0  0  0  0  0  0
  189.6320  177.2460  139.5540 C   0  0  0  0  0  2  0  0  0  0  0  0
  190.8110  176.3070  139.6650 C   0  0  2  0  0  3  0  0  0  0  0  0
  190.4120  177.1650  140.8490 C   0  0  2  0  0  3  0  0  0  0  0  0
  192.0260  176.9320  139.0170 C   0  0  0  0  0  2  0  0  0  0  0  0
  192.1000  176.5180  137.6270 N   0  0  0  0  0  2  0  0  0  0  0  0
  192.3510  175.1360  137.6220 N   0  0  0  0  0  0  0  0  0  0  0  0
  190.1850  173.6710  137.5120 O   0  0  0  0  0  1  0  0  0  0  0  0
  190.7270  175.2260  135.8010 C   0  0  0  0  0  2  0  0  0  0  0  0
  192.0430  174.6440  136.2800 C   0  0  2  0  0  3  0  0  0  0  0  0
  190.7770  173.7820  136.2500 C   0  0  1  0  0  3  0  0  0  0  0  0
  193.7810  174.9460  137.8700 C   0  0  0  0  0  2  0  0  0  0  0  0
  194.3290  174.0130  137.0030 F   0  0  0  0  0  0  0  0  0  0  0  0
  1 20  1  6  0  0  0
  2  5  1  1  0  0  0
  3  2  1  0  0  0  0
  4  1  1  1  0  0  0
  4  3  1  0  0  0  0
  4  2  1  0  0  0  0
  5  7  1  0  0  0  0
  7  6  1  0  0  0  0
  8  9  1  1  0  0  0
  8  1  1  0  0  0  0
  8 10  1  0  0  0  0
 11 10  1  0  0  0  0
 11 12  1  0  0  0  0
 12 13  1  1  0  0  0
 12 14  1  0  0  0  0
 14 15  1  0  0  0  0
 16 11  1  0  0  0  0
 17 19  2  0  0  0  0
 18 19  1  0  0  0  0
 19 16  1  0  0  0  0
 21 22  1  0  0  0  0
 21 23  1  0  0  0  0
 22 24  1  6  0  0  0
 22 23  1  0  0  0  0
 23 20  1  1  0  0  0
 25 24  1  0  0  0  0
 26 25  1  0  0  0  0
 26 31  1  0  0  0  0
 28 30  1  0  0  0  0
 28 29  1  0  0  0  0
 29 26  1  1  0  0  0
 30 29  1  0  0  0  0
 30 27  1  1  0  0  0
 32 31  1  0  0  0  0
M  END
>  <MODEL>
8

>  <REMARK>
 VINA RESULT:      -5.6      2.141      5.116
  Name = 
  17 active torsions:
  status: ('A' for Active; 'I' for Inactive)
    1  A    between atoms: C_2  and  C_6
    2  A    between atoms: C_3  and  N_20
    3  A    between atoms: C_3  and  C_22
    4  A    between atoms: C_4  and  C_14
    5  A    between atoms: C_4  and  C_24
    6  A    between atoms: C_4  and  C_30
    7  A    between atoms: C_5  and  C_14
    8  A    between atoms: C_6  and  N_17
    9  A    between atoms: C_11  and  N_12
   10  A    between atoms: N_12  and  N_17
   11  A    between atoms: N_12  and  C_28
   12  A    between atoms: N_13  and  C_18
   13  A    between atoms: N_13  and  C_29
   14  A    between atoms: C_15  and  N_20
   15  A    between atoms: C_15  and  C_26
   16  A    between atoms: C_16  and  N_20
   17  A    between atoms: C_16  and  C_24
                            x       y       z     vdW  Elec       q    Type
                         _______ _______ _______ _____ _____    ______ ____

>  <TORSDO>
F 17

$$$$
=
 OpenBabel10272413173D

 32 34  0  0  1  0  0  0  0  0999 V2000
  189.7860  177.2110  143.5480 C   0  0  1  0  0  3  0  0  0  0  0  0
  191.3420  178.0390  145.4320 C   0  0  1  0  0  3  0  0  0  0  0  0
  191.8240  178.5790  144.1000 C   0  0  0  0  0  2  0  0  0  0  0  0
  190.3330  178.4100  144.3330 C   0  0  1  0  0  3  0  0  0  0  0  0
  191.6200  176.6110  145.4930 N   0  0  0  0  0  2  0  0  0  0  0  0
  192.6740  175.6470  147.4470 C   0  0  0  0  0  1  0  0  0  0  0  0
  191.3900  176.1960  146.8640 C   0  0  0  0  0  2  0  0  0  0  0  0
  188.4970  176.6850  144.1810 C   0  0  2  0  0  3  0  0  0  0  0  0
  187.8500  175.8030  143.3140 O   0  0  0  0  0  1  0  0  0  0  0  0
  187.5550  177.8340  144.5120 C   0  0  0  0  0  2  0  0  0  0  0  0
  186.8750  177.5760  145.7830 N   0  0  0  0  0  0  0  0  0  0  0  0
  185.4280  177.8400  145.6600 C   0  0  1  0  0  3  0  0  0  0  0  0
  184.9180  178.7660  146.7630 C   0  0  0  0  0  1  0  0  0  0  0  0
  185.0780  178.4340  144.2910 C   0  0  0  0  0  2  0  0  0  0  0  0
  183.6890  179.0560  144.2690 C   0  0  0  0  0  1  0  0  0  0  0  0
  187.4840  178.4280  146.8210 C   0  0  0  0  0  2  0  0  0  0  0  0
  188.5220  178.2630  148.9730 O   0  0  0  0  0  0  0  0  0  0  0  0
  188.2360  176.2420  147.8680 N   0  0  0  0  0  1  0  0  0  0  0  0
  188.1070  177.6570  147.9520 C   0  0  0  0  0  0  0  0  0  0  0  0
  189.5330  177.6220  142.1060 C   0  0  0  0  0  2  0  0  0  0  0  0
  191.5090  177.5430  140.6110 C   0  0  0  0  0  2  0  0  0  0  0  0
  190.2720  177.2860  139.7810 C   0  0  2  0  0  3  0  0  0  0  0  0
  190.3640  176.7430  141.1940 C   0  0  2  0  0  3  0  0  0  0  0  0
  190.5290  176.1470  138.8200 C   0  0  0  0  0  2  0  0  0  0  0  0
  191.0000  176.6800  137.5530 N   0  0  0  0  0  2  0  0  0  0  0  0
  191.9590  175.7790  137.0600 N   0  0  0  0  0  0  0  0  0  0  0  0
  191.4830  173.3760  136.1400 O   0  0  0  0  0  1  0  0  0  0  0  0
  190.3910  175.2890  135.2540 C   0  0  0  0  0  2  0  0  0  0  0  0
  191.7990  175.7280  135.6080 C   0  0  2  0  0  3  0  0  0  0  0  0
  191.5320  174.3080  135.0990 C   0  0  1  0  0  3  0  0  0  0  0  0
  193.2800  176.3310  137.3620 C   0  0  0  0  0  2  0  0  0  0  0  0
  193.8450  175.7210  138.4720 F   0  0  0  0  0  0  0  0  0  0  0  0
  1 20  1  6  0  0  0
  1  8  1  0  0  0  0
  2  5  1  6  0  0  0
  3  4  1  0  0  0  0
  3  2  1  0  0  0  0
  4  1  1  6  0  0  0
  4  2  1  0  0  0  0
  5  7  1  0  0  0  0
  7  6  1  0  0  0  0
  8  9  1  6  0  0  0
  8 10  1  0  0  0  0
 10 11  1  0  0  0  0
 11 16  1  0  0  0  0
 12 11  1  0  0  0  0
 12 13  1  1  0  0  0
 14 12  1  0  0  0  0
 15 14  1  0  0  0  0
 16 19  1  0  0  0  0
 18 19  1  0  0  0  0
 19 17  2  0  0  0  0
 21 23  1  0  0  0  0
 22 24  1  6  0  0  0
 22 21  1  0  0  0  0
 22 23  1  0  0  0  0
 23 20  1  1  0  0  0
 25 24  1  0  0  0  0
 26 31  1  0  0  0  0
 26 25  1  0  0  0  0
 28 29  1  0  0  0  0
 29 26  1  1  0  0  0
 30 28  1  0  0  0  0
 30 29  1  0  0  0  0
 30 27  1  1  0  0  0
 31 32  1  0  0  0  0
M  END
>  <MODEL>
9

>  <REMARK>
 VINA RESULT:      -5.4      1.816      4.526
  Name = 
  17 active torsions:
  status: ('A' for Active; 'I' for Inactive)
    1  A    between atoms: C_2  and  C_6
    2  A    between atoms: C_3  and  N_20
    3  A    between atoms: C_3  and  C_22
    4  A    between atoms: C_4  and  C_14
    5  A    between atoms: C_4  and  C_24
    6  A    between atoms: C_4  and  C_30
    7  A    between atoms: C_5  and  C_14
    8  A    between atoms: C_6  and  N_17
    9  A    between atoms: C_11  and  N_12
   10  A    between atoms: N_12  and  N_17
   11  A    between atoms: N_12  and  C_28
   12  A    between atoms: N_13  and  C_18
   13  A    between atoms: N_13  and  C_29
   14  A    between atoms: C_15  and  N_20
   15  A    between atoms: C_15  and  C_26
   16  A    between atoms: C_16  and  N_20
   17  A    between atoms: C_16  and  C_24
                            x       y       z     vdW  Elec       q    Type
                         _______ _______ _______ _____ _____    ______ ____

>  <TORSDO>
F 17

$$$$
