=
 OpenBabel10272413123D

 32 36  0  0  1  0  0  0  0  0999 V2000
  189.1980  177.0730  142.4570 C   0  0  2  0  0  3  0  0  0  0  0  0
  186.6340  178.1640  142.9580 C   0  0  0  0  0  0  0  0  0  0  0  0
  190.3140  176.3770  142.2060 C   0  0  0  0  0  3  0  0  0  0  0  0
  188.7170  177.2080  143.8530 C   0  0  0  0  0  0  0  0  0  0  0  0
  187.0070  177.8200  145.3900 O   0  0  0  0  0  0  0  0  0  0  0  0
  182.9390  178.6860  142.6350 C   0  0  0  0  0  3  0  0  0  0  0  0
  187.4940  177.7140  144.0800 C   0  0  0  0  0  0  0  0  0  0  0  0
  183.4480  178.8850  145.0250 C   0  0  0  0  0  3  0  0  0  0  0  0
  184.8560  178.6050  144.7060 C   0  0  0  0  0  0  0  0  0  0  0  0
  189.6170  176.8120  145.0030 C   0  0  0  0  0  0  0  0  0  0  0  0
  185.6850  178.1920  145.6660 C   0  0  0  0  0  3  0  0  0  0  0  0
  190.7620  175.9330  144.5730 C   0  0  0  0  0  3  0  0  0  0  0  0
  187.0930  178.1420  141.7000 C   0  0  0  0  0  3  0  0  0  0  0  0
  188.3910  177.6130  141.3880 N   0  0  0  0  0  0  0  0  0  0  0  0
  185.3290  178.8410  143.2850 C   0  0  2  0  0  3  0  0  0  0  0  0
  191.0930  175.7590  143.2910 C   0  0  0  0  0  3  0  0  0  0  0  0
  182.5470  178.9380  144.0390 C   0  0  0  0  0  3  0  0  0  0  0  0
  184.2270  178.5870  142.2840 C   0  0  0  0  0  3  0  0  0  0  0  0
  188.4350  178.1150  137.6680 C   0  0  0  0  0  0  0  0  0  0  0  0
  187.6210  178.6050  136.6540 O   0  0  0  0  0  1  0  0  0  0  0  0
  188.8240  177.6250  140.0170 C   0  0  0  0  0  0  0  0  0  0  0  0
  189.7020  177.6160  137.3550 C   0  0  0  0  0  3  0  0  0  0  0  0
  190.0880  177.1150  139.6890 C   0  0  0  0  0  3  0  0  0  0  0  0
  187.9880  178.1130  138.9960 C   0  0  0  0  0  0  0  0  0  0  0  0
  186.7110  178.5790  139.2920 O   0  0  0  0  0  1  0  0  0  0  0  0
  190.5340  177.1090  138.3640 C   0  0  0  0  0  0  0  0  0  0  0  0
  192.0210  175.2380  137.7240 C   0  0  0  0  0  1  0  0  0  0  0  0
  191.8020  176.5970  138.0790 O   0  0  0  0  0  0  0  0  0  0  0  0
  190.1460  178.0080  145.6400 N   0  0  0  0  0  2  0  0  0  0  0  0
  190.6460  177.6260  146.8400 O   0  0  0  0  0  0  0  0  0  0  0  0
  189.5400  177.1500  147.5440 C   0  0  0  0  0  2  0  0  0  0  0  0
  188.9380  178.2770  148.3570 C   0  0  0  0  0  1  0  0  0  0  0  0
  1  3  1  6  0  0  0
  1  4  1  0  0  0  0
  2 15  1  0  0  0  0
  2  7  1  0  0  0  0
  3 16  2  0  0  0  0
  4  7  2  0  0  0  0
  4 10  1  0  0  0  0
  5 11  1  0  0  0  0
  6 17  1  0  0  0  0
  7  5  1  0  0  0  0
  9  8  1  0  0  0  0
  9 11  2  0  0  0  0
 10 29  1  0  0  0  0
 12 10  2  0  0  0  0
 13  2  2  0  0  0  0
 14 13  1  0  0  0  0
 14  1  1  0  0  0  0
 15 18  1  6  0  0  0
 15  9  1  0  0  0  0
 16 12  1  0  0  0  0
 17  8  2  0  0  0  0
 18  6  2  0  0  0  0
 19 24  1  0  0  0  0
 20 19  1  0  0  0  0
 21 14  1  0  0  0  0
 22 19  2  0  0  0  0
 22 26  1  0  0  0  0
 23 21  1  0  0  0  0
 24 25  1  0  0  0  0
 24 21  2  0  0  0  0
 26 23  2  0  0  0  0
 27 28  1  0  0  0  0
 28 26  1  0  0  0  0
 29 30  1  0  0  0  0
 30 31  1  0  0  0  0
 31 32  1  0  0  0  0
M  END
>  <MODEL>
1

>  <REMARK>
 VINA RESULT:      -9.9      0.000      0.000
  Name = 
  5 active torsions:
  status: ('A' for Active; 'I' for Inactive)
    1  A    between atoms: C_13  and  O_18
    2  A    between atoms: C_14  and  N_29
    3  A    between atoms: O_15  and  C_26
    4  A    between atoms: C_16  and  N_27
    5  A    between atoms: O_18  and  N_29
                            x       y       z     vdW  Elec       q    Type
                         _______ _______ _______ _____ _____    ______ ____

>  <TORSDO>
F 5

$$$$
=
 OpenBabel10272413123D

 32 36  0  0  1  0  0  0  0  0999 V2000
  189.6570  177.1790  137.7860 C   0  0  2  0  0  3  0  0  0  0  0  0
  189.9050  177.0110  140.6010 C   0  0  0  0  0  0  0  0  0  0  0  0
  189.6440  177.4330  136.4710 C   0  0  0  0  0  3  0  0  0  0  0  0
  188.5980  177.7510  138.6520 C   0  0  0  0  0  0  0  0  0  0  0  0
  187.7600  178.2420  140.8240 O   0  0  0  0  0  0  0  0  0  0  0  0
  191.4910  177.2580  143.9850 C   0  0  0  0  0  3  0  0  0  0  0  0
  188.7310  177.6790  139.9870 C   0  0  0  0  0  0  0  0  0  0  0  0
  189.1610  177.9620  144.2730 C   0  0  0  0  0  3  0  0  0  0  0  0
  188.9640  177.7550  142.8300 C   0  0  0  0  0  0  0  0  0  0  0  0
  187.3680  178.3730  138.0300 C   0  0  0  0  0  0  0  0  0  0  0  0
  187.9310  178.3300  142.2110 C   0  0  0  0  0  3  0  0  0  0  0  0
  187.5550  178.7070  136.5740 C   0  0  0  0  0  3  0  0  0  0  0  0
  190.8190  176.4020  139.8330 C   0  0  0  0  0  3  0  0  0  0  0  0
  190.7360  176.4430  138.4000 N   0  0  0  0  0  0  0  0  0  0  0  0
  189.9330  176.8480  142.0980 C   0  0  2  0  0  3  0  0  0  0  0  0
  188.5870  178.2510  135.8580 C   0  0  0  0  0  3  0  0  0  0  0  0
  190.3550  177.7100  144.8180 C   0  0  0  0  0  3  0  0  0  0  0  0
  191.3140  176.9060  142.7060 C   0  0  0  0  0  3  0  0  0  0  0  0
  192.5720  173.7860  136.4850 C   0  0  0  0  0  0  0  0  0  0  0  0
  192.4050  172.4710  136.0700 O   0  0  0  0  0  1  0  0  0  0  0  0
  191.7460  175.7620  137.6360 C   0  0  0  0  0  0  0  0  0  0  0  0
  193.7480  174.4670  136.1620 C   0  0  0  0  0  3  0  0  0  0  0  0
  192.9360  176.4300  137.3180 C   0  0  0  0  0  3  0  0  0  0  0  0
  191.5720  174.4260  137.2300 C   0  0  0  0  0  0  0  0  0  0  0  0
  190.4200  173.7270  137.5770 O   0  0  0  0  0  1  0  0  0  0  0  0
  193.9380  175.7920  136.5810 C   0  0  0  0  0  0  0  0  0  0  0  0
  195.2890  177.1950  135.0540 C   0  0  0  0  0  1  0  0  0  0  0  0
  195.1070  176.4950  136.2780 O   0  0  0  0  0  0  0  0  0  0  0  0
  186.2400  177.4660  138.1700 N   0  0  0  0  0  2  0  0  0  0  0  0
  185.1200  178.1910  137.9330 O   0  0  0  0  0  0  0  0  0  0  0  0
  184.8170  178.7790  139.1610 C   0  0  0  0  0  2  0  0  0  0  0  0
  183.5250  179.5600  139.0400 C   0  0  0  0  0  1  0  0  0  0  0  0
  1  3  1  1  0  0  0
  1 14  1  0  0  0  0
  1  4  1  0  0  0  0
  2 15  1  0  0  0  0
  4  7  2  0  0  0  0
  5 11  1  0  0  0  0
  6 17  1  0  0  0  0
  7  2  1  0  0  0  0
  7  5  1  0  0  0  0
  8 17  2  0  0  0  0
  9  8  1  0  0  0  0
 10 29  1  0  0  0  0
 10  4  1  0  0  0  0
 11  9  2  0  0  0  0
 12 10  2  0  0  0  0
 13  2  2  0  0  0  0
 14 13  1  0  0  0  0
 15 18  1  1  0  0  0
 15  9  1  0  0  0  0
 16  3  2  0  0  0  0
 16 12  1  0  0  0  0
 18  6  2  0  0  0  0
 19 24  1  0  0  0  0
 20 19  1  0  0  0  0
 21 14  1  0  0  0  0
 22 19  2  0  0  0  0
 22 26  1  0  0  0  0
 23 21  1  0  0  0  0
 24 25  1  0  0  0  0
 24 21  2  0  0  0  0
 26 23  2  0  0  0  0
 27 28  1  0  0  0  0
 28 26  1  0  0  0  0
 30 29  1  0  0  0  0
 30 31  1  0  0  0  0
 32 31  1  0  0  0  0
M  END
>  <MODEL>
2

>  <REMARK>
 VINA RESULT:      -9.4      3.148      6.495
  Name = 
  5 active torsions:
  status: ('A' for Active; 'I' for Inactive)
    1  A    between atoms: C_13  and  O_18
    2  A    between atoms: C_14  and  N_29
    3  A    between atoms: O_15  and  C_26
    4  A    between atoms: C_16  and  N_27
    5  A    between atoms: O_18  and  N_29
                            x       y       z     vdW  Elec       q    Type
                         _______ _______ _______ _____ _____    ______ ____

>  <TORSDO>
F 5

$$$$
=
 OpenBabel10272413123D

 32 36  0  0  1  0  0  0  0  0999 V2000
  187.7110  177.6510  143.4660 C   0  0  0  0  0  0  0  0  0  0  0  0
  189.3630  177.5210  141.1690 C   0  0  0  0  0  0  0  0  0  0  0  0
  186.8980  177.5140  144.5200 C   0  0  0  0  0  3  0  0  0  0  0  0
  187.1360  177.9390  142.1290 C   0  0  0  0  0  0  0  0  0  0  0  0
  187.3940  178.0960  139.7700 O   0  0  0  0  0  0  0  0  0  0  0  0
  191.8740  176.1540  138.7500 C   0  0  0  0  0  3  0  0  0  0  0  0
  187.9240  177.8610  141.0440 C   0  0  0  0  0  0  0  0  0  0  0  0
  190.1420  177.2370  137.3940 C   0  0  0  0  0  2  0  0  0  0  0  0
  189.4310  177.5640  138.6390 C   0  0  0  0  0  0  0  0  0  0  0  0
  185.6860  178.3510  142.0050 C   0  0  1  0  0  3  0  0  0  0  0  0
  188.1340  177.8750  138.6010 C   0  0  0  0  0  3  0  0  0  0  0  0
  184.8770  178.0210  143.2320 C   0  0  0  0  0  3  0  0  0  0  0  0
  189.9200  177.3570  142.3770 C   0  0  0  0  0  3  0  0  0  0  0  0
  189.1330  177.4260  143.5770 N   0  0  0  0  0  0  0  0  0  0  0  0
  190.2200  177.5770  139.9330 C   0  0  0  0  0  0  0  0  0  0  0  0
  185.4400  177.6640  144.3900 C   0  0  0  0  0  3  0  0  0  0  0  0
  191.3070  176.5840  137.4530 C   0  0  0  0  0  3  0  0  0  0  0  0
  191.3440  176.5680  139.9070 C   0  0  0  0  0  3  0  0  0  0  0  0
  191.5620  176.2740  146.1970 C   0  0  0  0  0  0  0  0  0  0  0  0
  192.6940  175.4770  146.3170 O   0  0  0  0  0  1  0  0  0  0  0  0
  189.7950  177.2480  144.8410 C   0  0  0  0  0  0  0  0  0  0  0  0
  191.0460  176.9140  147.3270 C   0  0  0  0  0  3  0  0  0  0  0  0
  189.2790  177.8730  145.9830 C   0  0  0  0  0  3  0  0  0  0  0  0
  190.9350  176.4300  144.9540 C   0  0  0  0  0  0  0  0  0  0  0  0
  191.4360  175.7590  143.8420 O   0  0  0  0  0  1  0  0  0  0  0  0
  189.8990  177.7140  147.2270 C   0  0  0  0  0  0  0  0  0  0  0  0
  188.0770  178.0380  148.8690 C   0  0  0  0  0  1  0  0  0  0  0  0
  189.3570  178.3600  148.3410 O   0  0  0  0  0  0  0  0  0  0  0  0
  185.6070  179.7810  141.7510 N   0  0  0  0  0  2  0  0  0  0  0  0
  185.2320  179.9300  140.4570 O   0  0  0  0  0  0  0  0  0  0  0  0
  184.0750  179.1610  140.3370 C   0  0  0  0  0  2  0  0  0  0  0  0
  183.8390  178.8310  138.8770 C   0  0  0  0  0  1  0  0  0  0  0  0
  1 14  1  0  0  0  0
  1  3  2  0  0  0  0
  2 13  2  0  0  0  0
  4  1  1  0  0  0  0
  5  7  1  0  0  0  0
  6 18  1  0  0  0  0
  7  2  1  0  0  0  0
  7  4  2  0  0  0  0
  8 17  1  0  0  0  0
  8  9  1  0  0  0  0
  9 15  1  0  0  0  0
 10 29  1  1  0  0  0
 10  4  1  0  0  0  0
 10 12  1  0  0  0  0
 11  9  2  0  0  0  0
 11  5  1  0  0  0  0
 12 16  2  0  0  0  0
 13 14  1  0  0  0  0
 14 21  1  0  0  0  0
 15  2  1  0  0  0  0
 16  3  1  0  0  0  0
 17  6  2  0  0  0  0
 18 15  2  0  0  0  0
 19 20  1  0  0  0  0
 19 22  1  0  0  0  0
 21 24  1  0  0  0  0
 21 23  2  0  0  0  0
 23 26  1  0  0  0  0
 24 19  2  0  0  0  0
 25 24  1  0  0  0  0
 26 22  2  0  0  0  0
 26 28  1  0  0  0  0
 28 27  1  0  0  0  0
 30 29  1  0  0  0  0
 31 30  1  0  0  0  0
 32 31  1  0  0  0  0
M  END
>  <MODEL>
3

>  <REMARK>
 VINA RESULT:      -8.9      1.815      7.667
  Name = 
  5 active torsions:
  status: ('A' for Active; 'I' for Inactive)
    1  A    between atoms: C_13  and  O_18
    2  A    between atoms: C_14  and  N_29
    3  A    between atoms: O_15  and  C_26
    4  A    between atoms: C_16  and  N_27
    5  A    between atoms: O_18  and  N_29
                            x       y       z     vdW  Elec       q    Type
                         _______ _______ _______ _____ _____    ______ ____

>  <TORSDO>
F 5

$$$$
=
 OpenBabel10272413123D

 32 36  0  0  1  0  0  0  0  0999 V2000
  189.7880  177.0340  137.9220 C   0  0  2  0  0  3  0  0  0  0  0  0
  189.8950  176.8710  140.7470 C   0  0  0  0  0  0  0  0  0  0  0  0
  189.8510  177.2800  136.6070 C   0  0  0  0  0  3  0  0  0  0  0  0
  188.7240  177.6720  138.7350 C   0  0  0  0  0  0  0  0  0  0  0  0
  187.8150  178.2240  140.8640 O   0  0  0  0  0  0  0  0  0  0  0  0
  191.3330  177.0500  144.2000 C   0  0  0  0  0  3  0  0  0  0  0  0
  188.7910  177.6000  140.0750 C   0  0  0  0  0  0  0  0  0  0  0  0
  189.0350  177.8880  144.3750 C   0  0  0  0  0  3  0  0  0  0  0  0
  188.8950  177.6830  142.9260 C   0  0  0  0  0  0  0  0  0  0  0  0
  187.5620  178.3590  138.0540 C   0  0  0  0  0  0  0  0  0  0  0  0
  187.9260  178.3110  142.2570 C   0  0  0  0  0  3  0  0  0  0  0  0
  187.8360  178.6720  136.6060 C   0  0  0  0  0  3  0  0  0  0  0  0
  190.8070  176.2060  140.0250 C   0  0  0  0  0  3  0  0  0  0  0  0
  190.7930  176.2410  138.5890 N   0  0  0  0  0  0  0  0  0  0  0  0
  189.8430  176.7170  142.2440 C   0  0  2  0  0  3  0  0  0  0  0  0
  188.8720  178.1530  135.9420 C   0  0  0  0  0  3  0  0  0  0  0  0
  190.1870  177.5710  144.9770 C   0  0  0  0  0  3  0  0  0  0  0  0
  191.1960  176.7000  142.9160 C   0  0  0  0  0  3  0  0  0  0  0  0
  194.0970  175.1860  137.1510 C   0  0  0  0  0  0  0  0  0  0  0  0
  195.4240  175.5960  137.1310 O   0  0  0  0  0  1  0  0  0  0  0  0
  191.7970  175.4990  137.8760 C   0  0  0  0  0  0  0  0  0  0  0  0
  193.7200  174.0310  136.4610 C   0  0  0  0  0  3  0  0  0  0  0  0
  191.4300  174.3470  137.1690 C   0  0  0  0  0  3  0  0  0  0  0  0
  193.1370  175.9290  137.8530 C   0  0  0  0  0  0  0  0  0  0  0  0
  193.5160  177.0970  138.5060 O   0  0  0  0  0  1  0  0  0  0  0  0
  192.3840  173.6070  136.4620 C   0  0  0  0  0  0  0  0  0  0  0  0
  190.7040  172.3480  135.1540 C   0  0  0  0  0  1  0  0  0  0  0  0
  191.9780  172.4610  135.7750 O   0  0  0  0  0  0  0  0  0  0  0  0
  186.3790  177.5180  138.1450 N   0  0  0  0  0  2  0  0  0  0  0  0
  185.3810  178.2950  138.6320 O   0  0  0  0  0  0  0  0  0  0  0  0
  184.2380  177.8590  137.9630 C   0  0  0  0  0  2  0  0  0  0  0  0
  184.5340  176.5490  137.2620 C   0  0  0  0  0  1  0  0  0  0  0  0
  1  3  1  1  0  0  0
  1 14  1  0  0  0  0
  1  4  1  0  0  0  0
  2 15  1  0  0  0  0
  4  7  2  0  0  0  0
  5 11  1  0  0  0  0
  6 17  1  0  0  0  0
  7  2  1  0  0  0  0
  7  5  1  0  0  0  0
  8 17  2  0  0  0  0
  9  8  1  0  0  0  0
 10 29  1  0  0  0  0
 10  4  1  0  0  0  0
 11  9  2  0  0  0  0
 12 10  2  0  0  0  0
 13  2  2  0  0  0  0
 14 13  1  0  0  0  0
 15 18  1  1  0  0  0
 15  9  1  0  0  0  0
 16 12  1  0  0  0  0
 16  3  2  0  0  0  0
 18  6  2  0  0  0  0
 19 24  1  0  0  0  0
 20 19  1  0  0  0  0
 21 14  1  0  0  0  0
 22 26  1  0  0  0  0
 22 19  2  0  0  0  0
 23 21  1  0  0  0  0
 24 21  2  0  0  0  0
 24 25  1  0  0  0  0
 26 23  2  0  0  0  0
 27 28  1  0  0  0  0
 28 26  1  0  0  0  0
 29 30  1  0  0  0  0
 31 30  1  0  0  0  0
 32 31  1  0  0  0  0
M  END
>  <MODEL>
4

>  <REMARK>
 VINA RESULT:      -8.8      3.159      6.620
  Name = 
  5 active torsions:
  status: ('A' for Active; 'I' for Inactive)
    1  A    between atoms: C_13  and  O_18
    2  A    between atoms: C_14  and  N_29
    3  A    between atoms: O_15  and  C_26
    4  A    between atoms: C_16  and  N_27
    5  A    between atoms: O_18  and  N_29
                            x       y       z     vdW  Elec       q    Type
                         _______ _______ _______ _____ _____    ______ ____

>  <TORSDO>
F 5

$$$$
=
 OpenBabel10272413123D

 32 36  0  0  1  0  0  0  0  0999 V2000
  186.9900  178.1080  140.6860 C   0  0  2  0  0  3  0  0  0  0  0  0
  187.4950  177.6800  143.4390 C   0  0  0  0  0  0  0  0  0  0  0  0
  186.8200  178.5000  139.4170 C   0  0  0  0  0  3  0  0  0  0  0  0
  185.9130  178.3500  141.6770 C   0  0  0  0  0  0  0  0  0  0  0  0
  185.1750  178.4120  143.9380 O   0  0  0  0  0  0  0  0  0  0  0  0
  189.2730  177.8650  146.7300 C   0  0  0  0  0  3  0  0  0  0  0  0
  186.1670  178.1570  142.9820 C   0  0  0  0  0  0  0  0  0  0  0  0
  186.8800  178.0400  147.2370 C   0  0  0  0  0  3  0  0  0  0  0  0
  186.6110  177.9610  145.7940 C   0  0  0  0  0  0  0  0  0  0  0  0
  184.5390  178.7730  141.2100 C   0  0  0  0  0  0  0  0  0  0  0  0
  185.4390  178.3780  145.3130 C   0  0  0  0  0  3  0  0  0  0  0  0
  184.5370  179.3000  139.7990 C   0  0  0  0  0  3  0  0  0  0  0  0
  188.4450  177.3610  142.5490 C   0  0  0  0  0  3  0  0  0  0  0  0
  188.2380  177.5440  141.1390 N   0  0  0  0  0  0  0  0  0  0  0  0
  187.6760  177.3600  144.8990 C   0  0  2  0  0  3  0  0  0  0  0  0
  185.5760  179.1480  138.9730 C   0  0  0  0  0  3  0  0  0  0  0  0
  188.1420  177.9790  147.6770 C   0  0  0  0  0  3  0  0  0  0  0  0
  189.0640  177.6300  145.4290 C   0  0  0  0  0  3  0  0  0  0  0  0
  191.6590  177.0220  139.6810 C   0  0  0  0  0  0  0  0  0  0  0  0
  192.9940  177.2230  140.0100 O   0  0  0  0  0  1  0  0  0  0  0  0
  189.2970  177.1750  140.2390 C   0  0  0  0  0  0  0  0  0  0  0  0
  191.3300  176.4550  138.4470 C   0  0  0  0  0  3  0  0  0  0  0  0
  188.9790  176.6180  138.9930 C   0  0  0  0  0  3  0  0  0  0  0  0
  190.6460  177.3920  140.5760 C   0  0  0  0  0  0  0  0  0  0  0  0
  190.9840  177.9890  141.7870 O   0  0  0  0  0  1  0  0  0  0  0  0
  189.9870  176.2540  138.0950 C   0  0  0  0  0  0  0  0  0  0  0  0
  188.5320  174.8040  136.7160 C   0  0  0  0  0  1  0  0  0  0  0  0
  189.6290  175.6960  136.8650 O   0  0  0  0  0  0  0  0  0  0  0  0
  183.6260  177.6440  141.2990 N   0  0  0  0  0  2  0  0  0  0  0  0
  182.3750  178.1340  141.1250 O   0  0  0  0  0  0  0  0  0  0  0  0
  182.0860  178.7910  142.3200 C   0  0  0  0  0  2  0  0  0  0  0  0
  180.5920  179.0160  142.4230 C   0  0  0  0  0  1  0  0  0  0  0  0
  1  3  1  1  0  0  0
  1 14  1  0  0  0  0
  1  4  1  0  0  0  0
  2 15  1  0  0  0  0
  4  7  2  0  0  0  0
  5 11  1  0  0  0  0
  6 17  1  0  0  0  0
  7  2  1  0  0  0  0
  7  5  1  0  0  0  0
  8 17  2  0  0  0  0
  9  8  1  0  0  0  0
 10 29  1  0  0  0  0
 10  4  1  0  0  0  0
 11  9  2  0  0  0  0
 12 10  2  0  0  0  0
 13  2  2  0  0  0  0
 14 13  1  0  0  0  0
 15 18  1  1  0  0  0
 15  9  1  0  0  0  0
 16  3  2  0  0  0  0
 16 12  1  0  0  0  0
 18  6  2  0  0  0  0
 19 20  1  0  0  0  0
 19 24  1  0  0  0  0
 21 24  2  0  0  0  0
 21 14  1  0  0  0  0
 22 19  2  0  0  0  0
 23 21  1  0  0  0  0
 24 25  1  0  0  0  0
 26 22  1  0  0  0  0
 26 23  2  0  0  0  0
 27 28  1  0  0  0  0
 28 26  1  0  0  0  0
 30 29  1  0  0  0  0
 30 31  1  0  0  0  0
 31 32  1  0  0  0  0
M  END
>  <MODEL>
5

>  <REMARK>
 VINA RESULT:      -8.7      2.162      5.255
  Name = 
  5 active torsions:
  status: ('A' for Active; 'I' for Inactive)
    1  A    between atoms: C_13  and  O_18
    2  A    between atoms: C_14  and  N_29
    3  A    between atoms: O_15  and  C_26
    4  A    between atoms: C_16  and  N_27
    5  A    between atoms: O_18  and  N_29
                            x       y       z     vdW  Elec       q    Type
                         _______ _______ _______ _____ _____    ______ ____

>  <TORSDO>
F 5

$$$$
=
 OpenBabel10272413123D

 32 36  0  0  1  0  0  0  0  0999 V2000
  190.0290  176.6870  143.3970 C   0  0  2  0  0  3  0  0  0  0  0  0
  187.4630  177.8580  143.1480 C   0  0  0  0  0  0  0  0  0  0  0  0
  191.1460  175.9550  143.4930 C   0  0  0  0  0  3  0  0  0  0  0  0
  189.2220  176.9550  144.6120 C   0  0  0  0  0  0  0  0  0  0  0  0
  187.2080  177.7290  145.6150 O   0  0  0  0  0  0  0  0  0  0  0  0
  183.9860  178.4040  141.8670 C   0  0  0  0  0  3  0  0  0  0  0  0
  188.0000  177.4980  144.4830 C   0  0  0  0  0  0  0  0  0  0  0  0
  183.8930  178.8110  144.2830 C   0  0  0  0  0  3  0  0  0  0  0  0
  185.3250  178.4820  144.3510 C   0  0  0  0  0  0  0  0  0  0  0  0
  189.7930  176.6510  145.9790 C   0  0  0  0  0  0  0  0  0  0  0  0
  185.8740  178.1440  145.5190 C   0  0  0  0  0  3  0  0  0  0  0  0
  190.9750  175.7190  145.9240 C   0  0  0  0  0  3  0  0  0  0  0  0
  188.2180  177.7150  142.0500 C   0  0  0  0  0  3  0  0  0  0  0  0
  189.5330  177.1410  142.1190 N   0  0  0  0  0  0  0  0  0  0  0  0
  186.1440  178.5810  143.0800 C   0  0  2  0  0  3  0  0  0  0  0  0
  191.6080  175.4250  144.7850 C   0  0  0  0  0  3  0  0  0  0  0  0
  183.2670  178.7880  143.1020 C   0  0  0  0  0  3  0  0  0  0  0  0
  185.3160  178.2550  141.8590 C   0  0  0  0  0  3  0  0  0  0  0  0
  192.3620  177.2890  139.6550 C   0  0  0  0  0  0  0  0  0  0  0  0
  193.6980  177.6630  139.5960 O   0  0  0  0  0  1  0  0  0  0  0  0
  190.2930  177.0230  140.9040 C   0  0  0  0  0  0  0  0  0  0  0  0
  191.7330  176.7910  138.5100 C   0  0  0  0  0  3  0  0  0  0  0  0
  189.6700  176.5380  139.7460 C   0  0  0  0  0  3  0  0  0  0  0  0
  191.6430  177.4150  140.8520 C   0  0  0  0  0  0  0  0  0  0  0  0
  192.2680  177.9450  141.9760 O   0  0  0  0  0  1  0  0  0  0  0  0
  190.3820  176.4170  138.5490 C   0  0  0  0  0  0  0  0  0  0  0  0
  189.2110  176.7700  136.3980 C   0  0  0  0  0  1  0  0  0  0  0  0
  189.7260  175.9240  137.4180 O   0  0  0  0  0  0  0  0  0  0  0  0
  190.1920  177.8910  146.6260 N   0  0  0  0  0  2  0  0  0  0  0  0
  190.0540  177.7000  147.9610 O   0  0  0  0  0  0  0  0  0  0  0  0
  188.9820  178.5150  148.3220 C   0  0  0  0  0  2  0  0  0  0  0  0
  187.8840  177.6630  148.9260 C   0  0  0  0  0  1  0  0  0  0  0  0
  1  3  1  6  0  0  0
  1  4  1  0  0  0  0
  2  7  1  0  0  0  0
  3 16  2  0  0  0  0
  4 10  1  0  0  0  0
  6 17  1  0  0  0  0
  7  4  2  0  0  0  0
  7  5  1  0  0  0  0
  8  9  1  0  0  0  0
  9 11  2  0  0  0  0
 10 29  1  0  0  0  0
 11  5  1  0  0  0  0
 12 10  2  0  0  0  0
 13 14  1  0  0  0  0
 13  2  2  0  0  0  0
 14  1  1  0  0  0  0
 15 18  1  6  0  0  0
 15  2  1  0  0  0  0
 15  9  1  0  0  0  0
 16 12  1  0  0  0  0
 17  8  2  0  0  0  0
 18  6  2  0  0  0  0
 19 24  1  0  0  0  0
 20 19  1  0  0  0  0
 21 14  1  0  0  0  0
 22 26  1  0  0  0  0
 22 19  2  0  0  0  0
 23 21  1  0  0  0  0
 24 21  2  0  0  0  0
 24 25  1  0  0  0  0
 26 23  2  0  0  0  0
 27 28  1  0  0  0  0
 28 26  1  0  0  0  0
 29 30  1  0  0  0  0
 30 31  1  0  0  0  0
 31 32  1  0  0  0  0
M  END
>  <MODEL>
6

>  <REMARK>
 VINA RESULT:      -8.7      1.525      2.368
  Name = 
  5 active torsions:
  status: ('A' for Active; 'I' for Inactive)
    1  A    between atoms: C_13  and  O_18
    2  A    between atoms: C_14  and  N_29
    3  A    between atoms: O_15  and  C_26
    4  A    between atoms: C_16  and  N_27
    5  A    between atoms: O_18  and  N_29
                            x       y       z     vdW  Elec       q    Type
                         _______ _______ _______ _____ _____    ______ ____

>  <TORSDO>
F 5

$$$$
=
 OpenBabel10272413123D

 32 36  0  0  1  0  0  0  0  0999 V2000
  184.9590  178.6280  142.7390 C   0  0  2  0  0  3  0  0  0  0  0  0
  187.2100  177.9090  141.1810 C   0  0  0  0  0  0  0  0  0  0  0  0
  183.9520  179.1610  143.4430 C   0  0  0  0  0  3  0  0  0  0  0  0
  186.2600  178.3720  143.4030 C   0  0  0  0  0  0  0  0  0  0  0  0
  188.5720  177.8310  143.2560 O   0  0  0  0  0  0  0  0  0  0  0  0
  189.7240  178.0500  138.4070 C   0  0  0  0  0  3  0  0  0  0  0  0
  187.3260  178.0450  142.6540 C   0  0  0  0  0  0  0  0  0  0  0  0
  190.9700  177.4260  140.4240 C   0  0  0  0  0  3  0  0  0  0  0  0
  189.7110  177.5150  141.1790 C   0  0  0  0  0  0  0  0  0  0  0  0
  186.3660  178.4440  144.9100 C   0  0  0  0  0  0  0  0  0  0  0  0
  189.7410  177.6440  142.5070 C   0  0  0  0  0  3  0  0  0  0  0  0
  185.2130  179.1780  145.5420 C   0  0  0  0  0  3  0  0  0  0  0  0
  186.0210  178.0380  140.5780 C   0  0  0  0  0  3  0  0  0  0  0  0
  184.8420  178.3880  141.3210 N   0  0  0  0  0  0  0  0  0  0  0  0
  188.4080  177.4140  140.4130 C   0  0  2  0  0  3  0  0  0  0  0  0
  184.0980  179.4800  144.8720 C   0  0  0  0  0  3  0  0  0  0  0  0
  190.9680  177.6640  139.1090 C   0  0  0  0  0  3  0  0  0  0  0  0
  188.5360  177.9870  139.0210 C   0  0  0  0  0  3  0  0  0  0  0  0
  182.2120  179.5320  138.8980 C   0  0  0  0  0  0  0  0  0  0  0  0
  182.0480  180.4450  137.8640 O   0  0  0  0  0  1  0  0  0  0  0  0
  183.5960  178.5040  140.6130 C   0  0  0  0  0  0  0  0  0  0  0  0
  181.1450  178.7090  139.2680 C   0  0  0  0  0  3  0  0  0  0  0  0
  182.5150  177.6940  140.9830 C   0  0  0  0  0  3  0  0  0  0  0  0
  183.4370  179.4400  139.5730 C   0  0  0  0  0  0  0  0  0  0  0  0
  184.4810  180.2890  139.2210 O   0  0  0  0  0  1  0  0  0  0  0  0
  181.2890  177.7890  140.3160 C   0  0  0  0  0  0  0  0  0  0  0  0
  180.1260  175.6050  140.2910 C   0  0  0  0  0  1  0  0  0  0  0  0
  180.2380  176.9590  140.7120 O   0  0  0  0  0  0  0  0  0  0  0  0
  186.4340  177.0980  145.4580 N   0  0  0  0  0  2  0  0  0  0  0  0
  186.7990  177.2210  146.7570 O   0  0  0  0  0  0  0  0  0  0  0  0
  188.1810  177.3970  146.7180 C   0  0  0  0  0  2  0  0  0  0  0  0
  188.6460  178.0270  148.0150 C   0  0  0  0  0  1  0  0  0  0  0  0
  1  4  1  0  0  0  0
  1  3  1  6  0  0  0
  2  7  1  0  0  0  0
  3 16  2  0  0  0  0
  4 10  1  0  0  0  0
  6 18  2  0  0  0  0
  6 17  1  0  0  0  0
  7  5  1  0  0  0  0
  7  4  2  0  0  0  0
  8  9  1  0  0  0  0
  9 11  2  0  0  0  0
 10 29  1  0  0  0  0
 10 12  2  0  0  0  0
 11  5  1  0  0  0  0
 13  2  2  0  0  0  0
 13 14  1  0  0  0  0
 14  1  1  0  0  0  0
 15 18  1  6  0  0  0
 15  9  1  0  0  0  0
 15  2  1  0  0  0  0
 16 12  1  0  0  0  0
 17  8  2  0  0  0  0
 19 22  2  0  0  0  0
 19 24  1  0  0  0  0
 20 19  1  0  0  0  0
 21 23  1  0  0  0  0
 21 14  1  0  0  0  0
 22 26  1  0  0  0  0
 24 21  2  0  0  0  0
 25 24  1  0  0  0  0
 26 28  1  0  0  0  0
 26 23  2  0  0  0  0
 27 28  1  0  0  0  0
 29 30  1  0  0  0  0
 31 30  1  0  0  0  0
 31 32  1  0  0  0  0
M  END
>  <MODEL>
7

>  <REMARK>
 VINA RESULT:      -8.5      2.593      6.293
  Name = 
  5 active torsions:
  status: ('A' for Active; 'I' for Inactive)
    1  A    between atoms: C_13  and  O_18
    2  A    between atoms: C_14  and  N_29
    3  A    between atoms: O_15  and  C_26
    4  A    between atoms: C_16  and  N_27
    5  A    between atoms: O_18  and  N_29
                            x       y       z     vdW  Elec       q    Type
                         _______ _______ _______ _____ _____    ______ ____

>  <TORSDO>
F 5

$$$$
=
 OpenBabel10272413123D

 32 36  0  0  1  0  0  0  0  0999 V2000
  189.8710  177.2800  142.3090 C   0  0  0  0  0  0  0  0  0  0  0  0
  187.2820  177.6920  143.3810 C   0  0  0  0  0  0  0  0  0  0  0  0
  191.1310  177.2780  141.8570 C   0  0  0  0  0  3  0  0  0  0  0  0
  188.7760  177.7500  141.4260 C   0  0  0  0  0  0  0  0  0  0  0  0
  186.5150  178.4320  141.1370 O   0  0  0  0  0  0  0  0  0  0  0  0
  184.6320  178.9050  145.7320 C   0  0  0  0  0  3  0  0  0  0  0  0
  187.5550  177.9560  141.9460 C   0  0  0  0  0  0  0  0  0  0  0  0
  183.6890  179.1110  143.4790 C   0  0  0  0  0  2  0  0  0  0  0  0
  184.9620  178.6040  142.9450 C   0  0  0  0  0  0  0  0  0  0  0  0
  189.0340  177.9570  139.9500 C   0  0  1  0  0  3  0  0  0  0  0  0
  185.2740  178.8100  141.6640 C   0  0  0  0  0  3  0  0  0  0  0  0
  190.5000  178.0510  139.6200 C   0  0  0  0  0  3  0  0  0  0  0  0
  188.2340  177.1720  144.1680 C   0  0  0  0  0  3  0  0  0  0  0  0
  189.5600  176.9290  143.6750 N   0  0  0  0  0  0  0  0  0  0  0  0
  185.8650  177.8180  143.8730 C   0  0  0  0  0  0  0  0  0  0  0  0
  191.4560  177.7130  140.4900 C   0  0  0  0  0  3  0  0  0  0  0  0
  183.5310  179.2370  144.8000 C   0  0  0  0  0  3  0  0  0  0  0  0
  185.7420  178.2930  145.3020 C   0  0  0  0  0  3  0  0  0  0  0  0
  192.1290  174.6260  145.1550 C   0  0  0  0  0  0  0  0  0  0  0  0
  192.7890  173.4410  144.8560 O   0  0  0  0  0  1  0  0  0  0  0  0
  190.5310  176.3630  144.5720 C   0  0  0  0  0  0  0  0  0  0  0  0
  192.4050  175.2850  146.3560 C   0  0  0  0  0  3  0  0  0  0  0  0
  190.8060  177.0070  145.7850 C   0  0  0  0  0  3  0  0  0  0  0  0
  191.1860  175.1560  144.2640 C   0  0  0  0  0  0  0  0  0  0  0  0
  190.8930  174.4730  143.0880 O   0  0  0  0  0  1  0  0  0  0  0  0
  191.7420  176.4770  146.6800 C   0  0  0  0  0  0  0  0  0  0  0  0
  192.7880  176.6040  148.9180 C   0  0  0  0  0  1  0  0  0  0  0  0
  191.9920  177.1540  147.8760 O   0  0  0  0  0  0  0  0  0  0  0  0
  188.4440  176.8620  139.1960 N   0  0  0  0  0  2  0  0  0  0  0  0
  187.6310  177.4190  138.2650 O   0  0  0  0  0  0  0  0  0  0  0  0
  188.0730  176.8900  137.0530 C   0  0  0  0  0  2  0  0  0  0  0  0
  188.0720  177.9780  135.9990 C   0  0  0  0  0  1  0  0  0  0  0  0
  1 14  1  0  0  0  0
  2 15  1  0  0  0  0
  2 13  2  0  0  0  0
  3  1  2  0  0  0  0
  4  7  2  0  0  0  0
  4  1  1  0  0  0  0
  5 11  1  0  0  0  0
  5  7  1  0  0  0  0
  7  2  1  0  0  0  0
  8 17  1  0  0  0  0
  9  8  1  0  0  0  0
  9 15  1  0  0  0  0
 10 29  1  6  0  0  0
 10  4  1  0  0  0  0
 11  9  2  0  0  0  0
 12 10  1  0  0  0  0
 12 16  2  0  0  0  0
 14 13  1  0  0  0  0
 14 21  1  0  0  0  0
 15 18  2  0  0  0  0
 16  3  1  0  0  0  0
 17  6  2  0  0  0  0
 18  6  1  0  0  0  0
 19 22  1  0  0  0  0
 20 19  1  0  0  0  0
 21 23  2  0  0  0  0
 22 26  2  0  0  0  0
 23 26  1  0  0  0  0
 24 21  1  0  0  0  0
 24 19  2  0  0  0  0
 25 24  1  0  0  0  0
 26 28  1  0  0  0  0
 28 27  1  0  0  0  0
 30 29  1  0  0  0  0
 31 30  1  0  0  0  0
 32 31  1  0  0  0  0
M  END
>  <MODEL>
8

>  <REMARK>
 VINA RESULT:      -8.5      1.960      6.397
  Name = 
  5 active torsions:
  status: ('A' for Active; 'I' for Inactive)
    1  A    between atoms: C_13  and  O_18
    2  A    between atoms: C_14  and  N_29
    3  A    between atoms: O_15  and  C_26
    4  A    between atoms: C_16  and  N_27
    5  A    between atoms: O_18  and  N_29
                            x       y       z     vdW  Elec       q    Type
                         _______ _______ _______ _____ _____    ______ ____

>  <TORSDO>
F 5

$$$$
=
 OpenBabel10272413123D

 32 36  0  0  1  0  0  0  0  0999 V2000
  187.9310  177.4860  142.0900 C   0  0  2  0  0  3  0  0  0  0  0  0
  185.2890  178.4790  142.3130 C   0  0  0  0  0  0  0  0  0  0  0  0
  189.0940  176.8340  141.9600 C   0  0  0  0  0  3  0  0  0  0  0  0
  187.2970  177.5920  143.4260 C   0  0  0  0  0  0  0  0  0  0  0  0
  185.4080  178.1290  144.7690 O   0  0  0  0  0  0  0  0  0  0  0  0
  181.6350  178.8670  141.5900 C   0  0  0  0  0  3  0  0  0  0  0  0
  186.0380  178.0520  143.5200 C   0  0  0  0  0  0  0  0  0  0  0  0
  181.8730  179.0660  144.0220 C   0  0  0  0  0  3  0  0  0  0  0  0
  183.3160  178.8400  143.8570 C   0  0  0  0  0  0  0  0  0  0  0  0
  188.0800  177.2210  144.6650 C   0  0  0  0  0  0  0  0  0  0  0  0
  184.0510  178.4510  144.9010 C   0  0  0  0  0  3  0  0  0  0  0  0
  189.2970  176.3880  144.3600 C   0  0  0  0  0  3  0  0  0  0  0  0
  185.8830  178.4830  141.1120 C   0  0  0  0  0  3  0  0  0  0  0  0
  187.2260  178.0040  140.9420 N   0  0  0  0  0  0  0  0  0  0  0  0
  183.9320  179.1050  142.4980 C   0  0  2  0  0  3  0  0  0  0  0  0
  189.7720  176.2360  143.1210 C   0  0  0  0  0  3  0  0  0  0  0  0
  181.0830  179.0940  142.9440 C   0  0  0  0  0  3  0  0  0  0  0  0
  182.9560  178.8180  141.3810 C   0  0  0  0  0  3  0  0  0  0  0  0
  187.6260  178.4400  137.2340 C   0  0  0  0  0  0  0  0  0  0  0  0
  186.8790  178.8100  136.1230 O   0  0  0  0  0  1  0  0  0  0  0  0
  187.8060  178.0430  139.6260 C   0  0  0  0  0  0  0  0  0  0  0  0
  188.9700  178.0910  137.0770 C   0  0  0  0  0  3  0  0  0  0  0  0
  189.1480  177.6820  139.4540 C   0  0  0  0  0  3  0  0  0  0  0  0
  187.0370  178.4090  138.5050 C   0  0  0  0  0  0  0  0  0  0  0  0
  185.6890  178.7240  138.6460 O   0  0  0  0  0  1  0  0  0  0  0  0
  189.7380  177.7060  138.1860 C   0  0  0  0  0  0  0  0  0  0  0  0
  191.7010  176.3790  138.8960 C   0  0  0  0  0  1  0  0  0  0  0  0
  191.0810  177.3440  138.0570 O   0  0  0  0  0  0  0  0  0  0  0  0
  188.4920  178.4310  145.3610 N   0  0  0  0  0  2  0  0  0  0  0  0
  189.0650  178.0390  146.5240 O   0  0  0  0  0  0  0  0  0  0  0  0
  187.9910  177.7420  147.3620 C   0  0  0  0  0  2  0  0  0  0  0  0
  188.3290  178.1550  148.7800 C   0  0  0  0  0  1  0  0  0  0  0  0
  1  3  1  6  0  0  0
  1  4  1  0  0  0  0
  2 15  1  0  0  0  0
  2  7  1  0  0  0  0
  3 16  2  0  0  0  0
  4  7  2  0  0  0  0
  4 10  1  0  0  0  0
  5 11  1  0  0  0  0
  6 17  1  0  0  0  0
  7  5  1  0  0  0  0
  9  8  1  0  0  0  0
  9 11  2  0  0  0  0
 10 29  1  0  0  0  0
 12 10  2  0  0  0  0
 13  2  2  0  0  0  0
 14 13  1  0  0  0  0
 14  1  1  0  0  0  0
 15 18  1  6  0  0  0
 15  9  1  0  0  0  0
 16 12  1  0  0  0  0
 17  8  2  0  0  0  0
 18  6  2  0  0  0  0
 19 24  1  0  0  0  0
 20 19  1  0  0  0  0
 21 14  1  0  0  0  0
 22 19  2  0  0  0  0
 22 26  1  0  0  0  0
 23 21  1  0  0  0  0
 24 25  1  0  0  0  0
 24 21  2  0  0  0  0
 26 23  2  0  0  0  0
 28 26  1  0  0  0  0
 28 27  1  0  0  0  0
 29 30  1  0  0  0  0
 30 31  1  0  0  0  0
 31 32  1  0  0  0  0
M  END
>  <MODEL>
9

>  <REMARK>
 VINA RESULT:      -8.4      1.150      1.457
  Name = 
  5 active torsions:
  status: ('A' for Active; 'I' for Inactive)
    1  A    between atoms: C_13  and  O_18
    2  A    between atoms: C_14  and  N_29
    3  A    between atoms: O_15  and  C_26
    4  A    between atoms: C_16  and  N_27
    5  A    between atoms: O_18  and  N_29
                            x       y       z     vdW  Elec       q    Type
                         _______ _______ _______ _____ _____    ______ ____

>  <TORSDO>
F 5

$$$$
