=
 OpenBabel10272415093D

 34 39  0  0  1  0  0  0  0  0999 V2000
  182.9100  177.9590  140.9410 C   0  0  0  0  0  0  0  0  0  0  0  0
  180.2880  175.9840  139.0880 C   0  0  0  0  0  3  0  0  0  0  0  0
  180.0830  177.7500  140.6870 N   0  0  0  0  0  0  0  0  0  0  0  0
  184.3770  177.9760  142.9970 C   0  0  2  0  0  3  0  0  0  0  0  0
  184.3200  177.9330  141.4500 C   0  0  0  0  0  2  0  0  0  0  0  0
  182.3410  179.5500  142.7730 C   0  0  1  0  0  3  0  0  0  0  0  0
  181.0220  179.8530  143.3780 N   0  0  0  0  0  0  0  0  0  0  0  0
  183.1830  178.6770  143.7090 C   0  0  0  0  0  2  0  0  0  0  0  0
  180.6550  178.6520  141.4220 C   0  0  0  0  0  0  0  0  0  0  0  0
  182.0560  178.7770  141.5420 C   0  0  0  0  0  0  0  0  0  0  0  0
  180.0480  179.3040  142.5110 N   0  0  0  0  0  0  0  0  0  0  0  0
  181.0770  175.0560  138.2100 C   0  0  0  0  0  2  0  0  0  0  0  0
  181.7600  175.7630  137.0270 C   0  0  2  0  0  3  0  0  0  0  0  0
  182.1460  177.2380  137.2800 C   0  0  0  0  0  2  0  0  0  0  0  0
  180.8870  176.9090  139.8390 C   0  0  0  0  0  0  0  0  0  0  0  0
  183.0410  177.4360  138.5060 C   0  0  0  0  0  2  0  0  0  0  0  0
  182.4200  177.0270  139.8550 C   0  0  1  0  0  3  0  0  0  0  0  0
  188.1760  177.9440  143.7330 C   0  0  0  0  0  2  0  0  0  0  0  0
  185.9600  177.8860  145.9330 C   0  0  0  0  0  2  0  0  0  0  0  0
  190.0800  176.9780  146.8460 C   0  0  0  0  0  0  0  0  0  0  0  0
  189.7310  177.2660  145.5220 C   0  0  0  0  0  3  0  0  0  0  0  0
  188.4130  177.5770  145.1710 C   0  0  0  0  0  0  0  0  0  0  0  0
  185.7400  178.4820  143.4760 C   0  0  1  0  0  3  0  0  0  0  0  0
  187.7770  177.3340  147.5070 C   0  0  0  0  0  3  0  0  0  0  0  0
  187.4200  177.6340  146.1880 C   0  0  0  0  0  0  0  0  0  0  0  0
  189.0950  177.0140  147.8370 C   0  0  0  0  0  3  0  0  0  0  0  0
  185.7170  178.9990  144.9230 C   0  0  0  0  0  2  0  0  0  0  0  0
  186.8380  177.4530  143.2050 C   0  0  0  0  0  2  0  0  0  0  0  0
  191.4730  176.6470  147.1870 C   0  0  0  0  0  0  0  0  0  0  0  0
  192.0370  177.1930  148.1720 O   0  0  0  0  0  1  0  0  0  0  0  0
  192.1800  175.7230  146.4240 O   0  0  0  0  0  0  0  0  0  0  0  0
  180.9600  175.5860  135.8100 N   0  0  0  0  0  0  0  0  0  0  0  0
  181.7410  175.8180  134.7260 O   0  0  0  0  0  1  0  0  0  0  0  0
  180.5170  174.2020  135.7410 C   0  0  0  0  0  1  0  0  0  0  0  0
  1  5  1  0  0  0  0
  1 10  2  0  0  0  0
  2 15  2  0  0  0  0
  3  9  2  0  0  0  0
  4  5  1  6  0  0  0
  4 23  1  0  0  0  0
  4  8  1  0  0  0  0
  6  7  1  0  0  0  0
  6  8  1  1  0  0  0
  9 10  1  0  0  0  0
  9 11  1  0  0  0  0
 10  6  1  0  0  0  0
 11  7  2  0  0  0  0
 12  2  1  0  0  0  0
 13 32  1  6  0  0  0
 13 14  1  0  0  0  0
 13 12  1  0  0  0  0
 14 16  1  0  0  0  0
 15 17  1  0  0  0  0
 15  3  1  0  0  0  0
 17 16  1  6  0  0  0
 17  1  1  0  0  0  0
 18 22  1  0  0  0  0
 19 25  1  0  0  0  0
 20 29  1  0  0  0  0
 20 26  1  0  0  0  0
 21 20  2  0  0  0  0
 22 21  1  0  0  0  0
 22 25  2  0  0  0  0
 23 28  1  1  0  0  0
 23 27  1  0  0  0  0
 24 26  2  0  0  0  0
 25 24  1  0  0  0  0
 27 19  1  0  0  0  0
 28 18  1  0  0  0  0
 29 30  1  0  0  0  0
 31 29  2  0  0  0  0
 33 32  1  0  0  0  0
 34 32  1  0  0  0  0
M  END
>  <MODEL>
1

>  <REMARK>
 VINA RESULT:     -10.0      0.000      0.000
  Name = 
  3 active torsions:
  status: ('A' for Active; 'I' for Inactive)
    1  A    between atoms: N_3  and  C_25
    2  A    between atoms: C_7  and  C_11
    3  A    between atoms: C_8  and  C_18
                            x       y       z     vdW  Elec       q    Type
                         _______ _______ _______ _____ _____    ______ ____

>  <TORSDO>
F 3

$$$$
=
 OpenBabel10272415093D

 34 39  0  0  1  0  0  0  0  0999 V2000
  191.1340  176.5000  138.1280 C   0  0  0  0  0  0  0  0  0  0  0  0
  192.0190  173.7410  135.7160 C   0  0  0  0  0  3  0  0  0  0  0  0
  190.5020  175.5790  135.5100 N   0  0  0  0  0  0  0  0  0  0  0  0
  189.6290  177.1160  140.0610 C   0  0  2  0  0  3  0  0  0  0  0  0
  191.0820  176.8790  139.5770 C   0  0  0  0  0  2  0  0  0  0  0  0
  189.2780  178.1070  137.7010 C   0  0  1  0  0  3  0  0  0  0  0  0
  188.3100  178.1480  136.5790 N   0  0  0  0  0  0  0  0  0  0  0  0
  188.6130  177.5820  138.9780 C   0  0  0  0  0  2  0  0  0  0  0  0
  190.0120  176.6720  136.0050 C   0  0  0  0  0  0  0  0  0  0  0  0
  190.3320  177.1490  137.2950 C   0  0  0  0  0  0  0  0  0  0  0  0
  188.8160  177.2800  135.5830 N   0  0  0  0  0  0  0  0  0  0  0  0
  193.0600  172.9380  136.4400 C   0  0  0  0  0  2  0  0  0  0  0  0
  194.4220  173.6470  136.5410 C   0  0  2  0  0  3  0  0  0  0  0  0
  194.3550  175.1900  136.5730 C   0  0  0  0  0  2  0  0  0  0  0  0
  191.5240  174.8660  136.2340 C   0  0  0  0  0  0  0  0  0  0  0  0
  193.4700  175.7430  137.6940 C   0  0  0  0  0  2  0  0  0  0  0  0
  191.9820  175.3550  137.6170 C   0  0  1  0  0  3  0  0  0  0  0  0
  190.3430  178.2040  143.7050 C   0  0  0  0  0  2  0  0  0  0  0  0
  187.5210  177.4040  142.6310 C   0  0  0  0  0  2  0  0  0  0  0  0
  188.3190  177.7480  146.8590 C   0  0  0  0  0  0  0  0  0  0  0  0
  189.3660  177.9630  145.9560 C   0  0  0  0  0  3  0  0  0  0  0  0
  189.1610  177.8750  144.5750 C   0  0  0  0  0  0  0  0  0  0  0  0
  189.6100  177.9910  141.3160 C   0  0  1  0  0  3  0  0  0  0  0  0
  186.8180  177.3700  144.9950 C   0  0  0  0  0  3  0  0  0  0  0  0
  187.8560  177.5940  144.0840 C   0  0  0  0  0  0  0  0  0  0  0  0
  187.0440  177.4500  146.3700 C   0  0  0  0  0  3  0  0  0  0  0  0
  188.1950  178.4260  141.7260 C   0  0  0  0  0  2  0  0  0  0  0  0
  190.4130  177.3510  142.4490 C   0  0  0  0  0  2  0  0  0  0  0  0
  188.5630  177.8390  148.3080 C   0  0  0  0  0  0  0  0  0  0  0  0
  187.6640  177.5130  149.1290 O   0  0  0  0  0  1  0  0  0  0  0  0
  189.7900  178.2870  148.7850 O   0  0  0  0  0  0  0  0  0  0  0  0
  195.3270  173.1380  135.5050 N   0  0  0  0  0  0  0  0  0  0  0  0
  195.4950  174.0900  134.5540 O   0  0  0  0  0  1  0  0  0  0  0  0
  196.6290  172.8880  136.1050 C   0  0  0  0  0  1  0  0  0  0  0  0
  1  5  1  0  0  0  0
  2 15  2  0  0  0  0
  2 12  1  0  0  0  0
  3  9  2  0  0  0  0
  3 15  1  0  0  0  0
  4  8  1  6  0  0  0
  4 23  1  0  0  0  0
  5  4  1  0  0  0  0
  6  8  1  1  0  0  0
  7  6  1  0  0  0  0
  9 10  1  0  0  0  0
 10  6  1  0  0  0  0
 10  1  2  0  0  0  0
 11  9  1  0  0  0  0
 11  7  2  0  0  0  0
 12 13  1  0  0  0  0
 13 32  1  6  0  0  0
 13 14  1  0  0  0  0
 14 16  1  0  0  0  0
 15 17  1  0  0  0  0
 17 16  1  6  0  0  0
 17  1  1  0  0  0  0
 18 22  1  0  0  0  0
 19 25  1  0  0  0  0
 20 29  1  0  0  0  0
 21 20  2  0  0  0  0
 22 21  1  0  0  0  0
 23 27  1  1  0  0  0
 23 28  1  0  0  0  0
 24 26  2  0  0  0  0
 25 22  2  0  0  0  0
 25 24  1  0  0  0  0
 26 20  1  0  0  0  0
 27 19  1  0  0  0  0
 28 18  1  0  0  0  0
 29 31  2  0  0  0  0
 29 30  1  0  0  0  0
 32 34  1  0  0  0  0
 33 32  1  0  0  0  0
M  END
>  <MODEL>
2

>  <REMARK>
 VINA RESULT:      -9.8      6.970      8.826
  Name = 
  3 active torsions:
  status: ('A' for Active; 'I' for Inactive)
    1  A    between atoms: N_3  and  C_25
    2  A    between atoms: C_7  and  C_11
    3  A    between atoms: C_8  and  C_18
                            x       y       z     vdW  Elec       q    Type
                         _______ _______ _______ _____ _____    ______ ____

>  <TORSDO>
F 3

$$$$
=
 OpenBabel10272415093D

 34 39  0  0  1  0  0  0  0  0999 V2000
  191.5260  176.1130  137.9490 C   0  0  0  0  0  0  0  0  0  0  0  0
  192.7000  173.3950  135.6150 C   0  0  0  0  0  3  0  0  0  0  0  0
  191.1790  175.2090  135.2720 N   0  0  0  0  0  0  0  0  0  0  0  0
  189.8220  176.6830  139.7240 C   0  0  2  0  0  3  0  0  0  0  0  0
  191.3200  176.4760  139.3880 C   0  0  0  0  0  2  0  0  0  0  0  0
  189.6940  177.6930  137.3500 C   0  0  1  0  0  3  0  0  0  0  0  0
  188.8440  177.7290  136.1360 N   0  0  0  0  0  0  0  0  0  0  0  0
  188.9130  177.1420  138.5480 C   0  0  0  0  0  2  0  0  0  0  0  0
  190.6220  176.2890  135.7240 C   0  0  0  0  0  0  0  0  0  0  0  0
  190.8010  176.7570  137.0450 C   0  0  0  0  0  0  0  0  0  0  0  0
  189.4630  176.8800  135.1890 N   0  0  0  0  0  0  0  0  0  0  0  0
  193.6770  172.6020  136.4340 C   0  0  0  0  0  2  0  0  0  0  0  0
  195.0080  173.3330  136.6780 C   0  0  2  0  0  3  0  0  0  0  0  0
  194.9110  174.8740  136.7170 C   0  0  0  0  0  2  0  0  0  0  0  0
  192.1350  174.5060  136.0890 C   0  0  0  0  0  0  0  0  0  0  0  0
  193.9080  175.4010  137.7470 C   0  0  0  0  0  2  0  0  0  0  0  0
  192.4420  174.9880  137.5160 C   0  0  1  0  0  3  0  0  0  0  0  0
  189.3430  177.5440  143.4660 C   0  0  0  0  0  2  0  0  0  0  0  0
  187.1870  178.0350  141.2600 C   0  0  0  0  0  2  0  0  0  0  0  0
  186.2120  178.2290  145.4610 C   0  0  0  0  0  0  0  0  0  0  0  0
  187.5190  177.8990  145.0870 C   0  0  0  0  0  3  0  0  0  0  0  0
  187.8930  177.8310  143.7410 C   0  0  0  0  0  0  0  0  0  0  0  0
  189.6610  177.5450  140.9780 C   0  0  1  0  0  3  0  0  0  0  0  0
  185.6240  178.4570  143.1220 C   0  0  0  0  0  3  0  0  0  0  0  0
  186.9310  178.1380  142.7380 C   0  0  0  0  0  0  0  0  0  0  0  0
  185.2660  178.5080  144.4690 C   0  0  0  0  0  3  0  0  0  0  0  0
  188.5440  178.5920  140.8500 C   0  0  0  0  0  2  0  0  0  0  0  0
  189.5560  176.6790  142.2350 C   0  0  0  0  0  2  0  0  0  0  0  0
  185.8420  178.2850  146.8840 C   0  0  0  0  0  0  0  0  0  0  0  0
  184.6320  178.3430  147.2280 O   0  0  0  0  0  0  0  0  0  0  0  0
  186.8290  178.2740  147.8650 O   0  0  0  0  0  1  0  0  0  0  0  0
  196.0230  172.8510  135.7350 N   0  0  0  0  0  0  0  0  0  0  0  0
  197.2540  173.0310  136.2740 O   0  0  0  0  0  1  0  0  0  0  0  0
  195.8370  171.4210  135.5410 C   0  0  0  0  0  1  0  0  0  0  0  0
  1  5  1  0  0  0  0
  2 15  2  0  0  0  0
  2 12  1  0  0  0  0
  3  9  2  0  0  0  0
  3 15  1  0  0  0  0
  4  8  1  6  0  0  0
  4 23  1  0  0  0  0
  5  4  1  0  0  0  0
  6  8  1  1  0  0  0
  7  6  1  0  0  0  0
  9 10  1  0  0  0  0
 10  6  1  0  0  0  0
 10  1  2  0  0  0  0
 11  9  1  0  0  0  0
 11  7  2  0  0  0  0
 12 13  1  0  0  0  0
 13 32  1  6  0  0  0
 13 14  1  0  0  0  0
 14 16  1  0  0  0  0
 15 17  1  0  0  0  0
 17 16  1  6  0  0  0
 17  1  1  0  0  0  0
 18 22  1  0  0  0  0
 19 25  1  0  0  0  0
 20 29  1  0  0  0  0
 21 20  1  0  0  0  0
 22 21  2  0  0  0  0
 23 27  1  6  0  0  0
 23 28  1  0  0  0  0
 24 26  1  0  0  0  0
 25 24  2  0  0  0  0
 25 22  1  0  0  0  0
 26 20  2  0  0  0  0
 27 19  1  0  0  0  0
 28 18  1  0  0  0  0
 29 30  2  0  0  0  0
 29 31  1  0  0  0  0
 32 33  1  0  0  0  0
 34 32  1  0  0  0  0
M  END
>  <MODEL>
3

>  <REMARK>
 VINA RESULT:      -8.8      7.396      9.543
  Name = 
  3 active torsions:
  status: ('A' for Active; 'I' for Inactive)
    1  A    between atoms: N_3  and  C_25
    2  A    between atoms: C_7  and  C_11
    3  A    between atoms: C_8  and  C_18
                            x       y       z     vdW  Elec       q    Type
                         _______ _______ _______ _____ _____    ______ ____

>  <TORSDO>
F 3

$$$$
=
 OpenBabel10272415093D

 34 39  0  0  1  0  0  0  0  0999 V2000
  186.4280  177.9380  143.4980 C   0  0  0  0  0  0  0  0  0  0  0  0
  189.6100  178.3570  145.4760 C   0  0  0  0  0  3  0  0  0  0  0  0
  187.3180  178.4130  146.1590 N   0  0  0  0  0  0  0  0  0  0  0  0
  184.7220  179.1630  142.0940 C   0  0  2  0  0  3  0  0  0  0  0  0
  185.8150  178.0670  142.1360 C   0  0  0  0  0  2  0  0  0  0  0  0
  184.1750  178.3470  144.4830 C   0  0  1  0  0  3  0  0  0  0  0  0
  183.8170  178.8380  145.8360 N   0  0  0  0  0  0  0  0  0  0  0  0
  183.9850  179.4490  143.4350 C   0  0  0  0  0  2  0  0  0  0  0  0
  186.0670  178.2570  145.8570 C   0  0  0  0  0  0  0  0  0  0  0  0
  185.6140  178.0030  144.5440 C   0  0  0  0  0  0  0  0  0  0  0  0
  184.9900  178.7410  146.6200 N   0  0  0  0  0  0  0  0  0  0  0  0
  190.7010  178.1730  144.4610 C   0  0  0  0  0  2  0  0  0  0  0  0
  190.8690  176.7160  143.9970 C   0  0  2  0  0  3  0  0  0  0  0  0
  189.5790  175.8660  144.0310 C   0  0  0  0  0  2  0  0  0  0  0  0
  188.3250  178.1910  145.1540 C   0  0  0  0  0  0  0  0  0  0  0  0
  188.4240  176.4700  143.2260 C   0  0  0  0  0  2  0  0  0  0  0  0
  187.9220  177.8420  143.7120 C   0  0  1  0  0  3  0  0  0  0  0  0
  182.4500  177.2330  139.6270 C   0  0  0  0  0  2  0  0  0  0  0  0
  185.1720  178.5480  138.8460 C   0  0  0  0  0  2  0  0  0  0  0  0
  183.1950  175.7250  136.2480 C   0  0  0  0  0  0  0  0  0  0  0  0
  182.6150  176.0220  137.4860 C   0  0  0  0  0  3  0  0  0  0  0  0
  183.2070  176.9370  138.3630 C   0  0  0  0  0  0  0  0  0  0  0  0
  183.7650  178.9310  140.9230 C   0  0  1  0  0  3  0  0  0  0  0  0
  184.9810  177.2880  136.7340 C   0  0  0  0  0  3  0  0  0  0  0  0
  184.4030  177.6000  137.9690 C   0  0  0  0  0  0  0  0  0  0  0  0
  184.3830  176.3640  135.8770 C   0  0  0  0  0  3  0  0  0  0  0  0
  184.2760  179.5220  139.6000 C   0  0  0  0  0  2  0  0  0  0  0  0
  183.3570  177.4600  140.8260 C   0  0  0  0  0  2  0  0  0  0  0  0
  182.5560  174.7530  135.3460 C   0  0  0  0  0  0  0  0  0  0  0  0
  183.1790  174.3010  134.3490 O   0  0  0  0  0  0  0  0  0  0  0  0
  181.2560  174.3210  135.5900 O   0  0  0  0  0  1  0  0  0  0  0  0
  191.9820  176.0880  144.7160 N   0  0  0  0  0  0  0  0  0  0  0  0
  191.7850  176.2270  146.0510 O   0  0  0  0  0  1  0  0  0  0  0  0
  191.9820  174.6630  144.4230 C   0  0  0  0  0  1  0  0  0  0  0  0
  1 17  1  0  0  0  0
  1 10  2  0  0  0  0
  4  5  1  1  0  0  0
  4  8  1  0  0  0  0
  5  1  1  0  0  0  0
  6  8  1  6  0  0  0
  6 10  1  0  0  0  0
  6  7  1  0  0  0  0
  7 11  2  0  0  0  0
  9  3  2  0  0  0  0
  9 11  1  0  0  0  0
 10  9  1  0  0  0  0
 12  2  1  0  0  0  0
 13 14  1  0  0  0  0
 13 12  1  0  0  0  0
 13 32  1  1  0  0  0
 15  2  2  0  0  0  0
 15  3  1  0  0  0  0
 16 14  1  0  0  0  0
 17 16  1  1  0  0  0
 17 15  1  0  0  0  0
 18 28  1  0  0  0  0
 19 27  1  0  0  0  0
 20 21  1  0  0  0  0
 21 22  2  0  0  0  0
 22 18  1  0  0  0  0
 23 27  1  6  0  0  0
 23  4  1  0  0  0  0
 24 25  2  0  0  0  0
 25 22  1  0  0  0  0
 25 19  1  0  0  0  0
 26 20  2  0  0  0  0
 26 24  1  0  0  0  0
 28 23  1  0  0  0  0
 29 31  1  0  0  0  0
 29 20  1  0  0  0  0
 30 29  2  0  0  0  0
 32 33  1  0  0  0  0
 34 32  1  0  0  0  0
M  END
>  <MODEL>
4

>  <REMARK>
 VINA RESULT:      -8.8      3.026      9.690
  Name = 
  3 active torsions:
  status: ('A' for Active; 'I' for Inactive)
    1  A    between atoms: N_3  and  C_25
    2  A    between atoms: C_7  and  C_11
    3  A    between atoms: C_8  and  C_18
                            x       y       z     vdW  Elec       q    Type
                         _______ _______ _______ _____ _____    ______ ____

>  <TORSDO>
F 3

$$$$
=
 OpenBabel10272415093D

 34 39  0  0  1  0  0  0  0  0999 V2000
  190.2260  176.9660  140.5580 C   0  0  0  0  0  0  0  0  0  0  0  0
  190.2960  178.8380  143.8300 C   0  0  0  0  0  3  0  0  0  0  0  0
  188.6380  178.7480  142.1080 N   0  0  0  0  0  0  0  0  0  0  0  0
  190.9190  177.0730  138.1310 C   0  0  2  0  0  3  0  0  0  0  0  0
  191.0780  176.3470  139.4910 C   0  0  0  0  0  2  0  0  0  0  0  0
  188.4500  177.3270  138.8470 C   0  0  1  0  0  3  0  0  0  0  0  0
  187.3250  178.2920  138.8500 N   0  0  0  0  0  0  0  0  0  0  0  0
  189.5550  177.7800  137.8860 C   0  0  0  0  0  2  0  0  0  0  0  0
  188.2250  178.2330  140.9930 C   0  0  0  0  0  0  0  0  0  0  0  0
  188.9970  177.3340  140.2240 C   0  0  0  0  0  0  0  0  0  0  0  0
  187.2280  178.7880  140.1710 N   0  0  0  0  0  0  0  0  0  0  0  0
  191.5990  178.4340  144.4570 C   0  0  0  0  0  2  0  0  0  0  0  0
  191.6070  176.9880  144.9800 C   0  0  2  0  0  3  0  0  0  0  0  0
  190.6860  176.0110  144.2160 C   0  0  0  0  0  2  0  0  0  0  0  0
  189.8810  178.2990  142.6820 C   0  0  0  0  0  0  0  0  0  0  0  0
  190.9660  175.9510  142.7120 C   0  0  0  0  0  2  0  0  0  0  0  0
  190.7510  177.2690  141.9440 C   0  0  1  0  0  3  0  0  0  0  0  0
  191.2360  173.8360  136.0340 C   0  0  0  0  0  2  0  0  0  0  0  0
  193.6100  175.1870  137.5480 C   0  0  0  0  0  2  0  0  0  0  0  0
  193.9100  171.1710  135.9940 C   0  0  0  0  0  0  0  0  0  0  0  0
  192.7020  171.8630  135.8460 C   0  0  0  0  0  3  0  0  0  0  0  0
  192.5530  173.1700  136.3210 C   0  0  0  0  0  0  0  0  0  0  0  0
  191.3350  176.1580  136.9770 C   0  0  1  0  0  3  0  0  0  0  0  0
  194.8620  173.1120  137.0880 C   0  0  0  0  0  3  0  0  0  0  0  0
  193.6620  173.8150  136.9350 C   0  0  0  0  0  0  0  0  0  0  0  0
  194.9890  171.8050  136.6180 C   0  0  0  0  0  3  0  0  0  0  0  0
  192.8450  176.1910  136.6950 C   0  0  0  0  0  2  0  0  0  0  0  0
  190.7710  174.7480  137.1580 C   0  0  0  0  0  2  0  0  0  0  0  0
  194.0390  169.7940  135.4910 C   0  0  0  0  0  0  0  0  0  0  0  0
  194.7850  169.5400  134.5090 O   0  0  0  0  0  0  0  0  0  0  0  0
  193.3380  168.7580  136.1000 O   0  0  0  0  0  1  0  0  0  0  0  0
  191.3680  176.9790  146.4280 N   0  0  0  0  0  0  0  0  0  0  0  0
  190.0340  176.8980  146.6590 O   0  0  0  0  0  1  0  0  0  0  0  0
  191.9820  175.7880  146.9940 C   0  0  0  0  0  1  0  0  0  0  0  0
  1 17  1  0  0  0  0
  2 12  1  0  0  0  0
  3 15  1  0  0  0  0
  4  8  1  6  0  0  0
  4  5  1  0  0  0  0
  5  1  1  0  0  0  0
  6  8  1  6  0  0  0
  6  7  1  0  0  0  0
  6 10  1  0  0  0  0
  7 11  2  0  0  0  0
  9  3  2  0  0  0  0
 10  1  2  0  0  0  0
 10  9  1  0  0  0  0
 11  9  1  0  0  0  0
 12 13  1  0  0  0  0
 13 32  1  1  0  0  0
 14 13  1  0  0  0  0
 15  2  2  0  0  0  0
 16 14  1  0  0  0  0
 17 15  1  0  0  0  0
 17 16  1  1  0  0  0
 18 22  1  0  0  0  0
 18 28  1  0  0  0  0
 20 26  1  0  0  0  0
 21 20  2  0  0  0  0
 21 22  1  0  0  0  0
 22 25  2  0  0  0  0
 23 27  1  1  0  0  0
 23 28  1  0  0  0  0
 23  4  1  0  0  0  0
 25 24  1  0  0  0  0
 25 19  1  0  0  0  0
 26 24  2  0  0  0  0
 27 19  1  0  0  0  0
 29 20  1  0  0  0  0
 29 31  1  0  0  0  0
 30 29  2  0  0  0  0
 32 33  1  0  0  0  0
 32 34  1  0  0  0  0
M  END
>  <MODEL>
5

>  <REMARK>
 VINA RESULT:      -8.7      7.793     11.027
  Name = 
  3 active torsions:
  status: ('A' for Active; 'I' for Inactive)
    1  A    between atoms: N_3  and  C_25
    2  A    between atoms: C_7  and  C_11
    3  A    between atoms: C_8  and  C_18
                            x       y       z     vdW  Elec       q    Type
                         _______ _______ _______ _____ _____    ______ ____

>  <TORSDO>
F 3

$$$$
=
 OpenBabel10272415093D

 34 39  0  0  1  0  0  0  0  0999 V2000
  183.4060  178.5480  141.2740 C   0  0  0  0  0  0  0  0  0  0  0  0
  180.6120  177.3480  139.0460 C   0  0  0  0  0  3  0  0  0  0  0  0
  180.6000  178.0730  141.3250 N   0  0  0  0  0  0  0  0  0  0  0  0
  185.2290  177.7890  142.8490 C   0  0  2  0  0  3  0  0  0  0  0  0
  184.8850  178.4890  141.5100 C   0  0  0  0  0  2  0  0  0  0  0  0
  183.0920  178.9570  143.7120 C   0  0  1  0  0  3  0  0  0  0  0  0
  181.8940  178.7330  144.5560 N   0  0  0  0  0  0  0  0  0  0  0  0
  184.1480  177.8760  143.9660 C   0  0  0  0  0  2  0  0  0  0  0  0
  181.2420  178.5820  142.3290 C   0  0  0  0  0  0  0  0  0  0  0  0
  182.6310  178.8400  142.3100 C   0  0  0  0  0  0  0  0  0  0  0  0
  180.8110  178.5320  143.6670 N   0  0  0  0  0  0  0  0  0  0  0  0
  181.2800  177.0860  137.7270 C   0  0  0  0  0  2  0  0  0  0  0  0
  181.6830  178.3670  136.9770 C   0  0  2  0  0  3  0  0  0  0  0  0
  182.0160  179.5760  137.8800 C   0  0  0  0  0  2  0  0  0  0  0  0
  181.2830  177.8740  140.0720 C   0  0  0  0  0  0  0  0  0  0  0  0
  183.1110  179.2890  138.9110 C   0  0  0  0  0  2  0  0  0  0  0  0
  182.7810  178.1940  139.9420 C   0  0  1  0  0  3  0  0  0  0  0  0
  188.9850  177.4470  143.7120 C   0  0  0  0  0  2  0  0  0  0  0  0
  186.7190  177.7860  145.8350 C   0  0  0  0  0  2  0  0  0  0  0  0
  190.7030  176.5580  146.9550 C   0  0  0  0  0  0  0  0  0  0  0  0
  190.4180  176.7680  145.6010 C   0  0  0  0  0  3  0  0  0  0  0  0
  189.1470  177.1770  145.1830 C   0  0  0  0  0  0  0  0  0  0  0  0
  186.6230  178.1970  143.3320 C   0  0  1  0  0  3  0  0  0  0  0  0
  188.4300  177.1900  147.5080 C   0  0  0  0  0  3  0  0  0  0  0  0
  188.1400  177.4140  146.1580 C   0  0  0  0  0  0  0  0  0  0  0  0
  189.7000  176.7710  147.9060 C   0  0  0  0  0  3  0  0  0  0  0  0
  186.6140  178.8310  144.7320 C   0  0  0  0  0  2  0  0  0  0  0  0
  187.6190  177.0470  143.1800 C   0  0  0  0  0  2  0  0  0  0  0  0
  192.0460  176.1210  147.3680 C   0  0  0  0  0  0  0  0  0  0  0  0
  192.7010  175.3100  146.6590 O   0  0  0  0  0  0  0  0  0  0  0  0
  192.6070  176.6010  148.5470 O   0  0  0  0  0  1  0  0  0  0  0  0
  180.6810  178.6820  135.9520 N   0  0  0  0  0  0  0  0  0  0  0  0
  180.5880  180.0280  135.8200 O   0  0  0  0  0  1  0  0  0  0  0  0
  181.1350  178.1490  134.6770 C   0  0  0  0  0  1  0  0  0  0  0  0
  1  5  1  0  0  0  0
  1 10  2  0  0  0  0
  2 15  2  0  0  0  0
  3  9  2  0  0  0  0
  4  5  1  6  0  0  0
  4 23  1  0  0  0  0
  4  8  1  0  0  0  0
  6  8  1  1  0  0  0
  6  7  1  0  0  0  0
  9 11  1  0  0  0  0
 10  9  1  0  0  0  0
 10  6  1  0  0  0  0
 11  7  2  0  0  0  0
 12  2  1  0  0  0  0
 13 32  1  6  0  0  0
 13 12  1  0  0  0  0
 13 14  1  0  0  0  0
 14 16  1  0  0  0  0
 15  3  1  0  0  0  0
 17 16  1  6  0  0  0
 17 15  1  0  0  0  0
 17  1  1  0  0  0  0
 18 22  1  0  0  0  0
 19 25  1  0  0  0  0
 20 29  1  0  0  0  0
 20 26  1  0  0  0  0
 21 20  2  0  0  0  0
 22 21  1  0  0  0  0
 22 25  2  0  0  0  0
 23 28  1  1  0  0  0
 23 27  1  0  0  0  0
 24 26  2  0  0  0  0
 25 24  1  0  0  0  0
 27 19  1  0  0  0  0
 28 18  1  0  0  0  0
 29 31  1  0  0  0  0
 30 29  2  0  0  0  0
 33 32  1  0  0  0  0
 34 32  1  0  0  0  0
M  END
>  <MODEL>
6

>  <REMARK>
 VINA RESULT:      -8.6      1.504      1.769
  Name = 
  3 active torsions:
  status: ('A' for Active; 'I' for Inactive)
    1  A    between atoms: N_3  and  C_25
    2  A    between atoms: C_7  and  C_11
    3  A    between atoms: C_8  and  C_18
                            x       y       z     vdW  Elec       q    Type
                         _______ _______ _______ _____ _____    ______ ____

>  <TORSDO>
F 3

$$$$
=
 OpenBabel10272415093D

 34 39  0  0  1  0  0  0  0  0999 V2000
  189.3370  176.2860  137.4730 C   0  0  0  0  0  0  0  0  0  0  0  0
  189.0180  173.5920  134.8560 C   0  0  0  0  0  3  0  0  0  0  0  0
  188.2670  175.8630  134.8700 N   0  0  0  0  0  0  0  0  0  0  0  0
  188.2700  177.2490  139.5510 C   0  0  2  0  0  3  0  0  0  0  0  0
  189.5070  176.5440  138.9400 C   0  0  0  0  0  2  0  0  0  0  0  0
  188.1750  178.4820  137.2830 C   0  0  1  0  0  3  0  0  0  0  0  0
  187.2270  178.9560  136.2460 N   0  0  0  0  0  0  0  0  0  0  0  0
  187.4350  178.1330  138.5790 C   0  0  0  0  0  2  0  0  0  0  0  0
  188.2390  177.0170  135.4590 C   0  0  0  0  0  0  0  0  0  0  0  0
  188.7820  177.2440  136.7430 C   0  0  0  0  0  0  0  0  0  0  0  0
  187.3250  178.0460  135.1680 N   0  0  0  0  0  0  0  0  0  0  0  0
  189.7330  172.4130  135.4510 C   0  0  0  0  0  2  0  0  0  0  0  0
  191.2620  172.5740  135.4790 C   0  0  2  0  0  3  0  0  0  0  0  0
  191.7660  174.0300  135.5970 C   0  0  0  0  0  2  0  0  0  0  0  0
  188.9970  174.7760  135.4700 C   0  0  0  0  0  0  0  0  0  0  0  0
  191.2080  174.7750  136.8130 C   0  0  0  0  0  2  0  0  0  0  0  0
  189.6790  174.9570  136.8360 C   0  0  1  0  0  3  0  0  0  0  0  0
  189.6770  177.7460  143.1200 C   0  0  0  0  0  2  0  0  0  0  0  0
  186.6400  177.8410  142.4010 C   0  0  0  0  0  2  0  0  0  0  0  0
  187.9880  177.5460  146.4910 C   0  0  0  0  0  0  0  0  0  0  0  0
  188.9410  177.5590  145.4660 C   0  0  0  0  0  3  0  0  0  0  0  0
  188.5610  177.6640  144.1240 C   0  0  0  0  0  0  0  0  0  0  0  0
  188.6430  177.9720  140.8470 C   0  0  1  0  0  3  0  0  0  0  0  0
  186.2350  177.7680  144.8330 C   0  0  0  0  0  3  0  0  0  0  0  0
  187.1810  177.7930  143.8030 C   0  0  0  0  0  0  0  0  0  0  0  0
  186.6320  177.6510  146.1650 C   0  0  0  0  0  3  0  0  0  0  0  0
  187.4620  178.7280  141.4760 C   0  0  0  0  0  2  0  0  0  0  0  0
  189.3610  177.0320  141.8170 C   0  0  0  0  0  2  0  0  0  0  0  0
  188.4140  177.4280  147.8950 C   0  0  0  0  0  0  0  0  0  0  0  0
  188.0300  176.4570  148.5990 O   0  0  0  0  0  1  0  0  0  0  0  0
  189.2480  178.3880  148.4570 O   0  0  0  0  0  0  0  0  0  0  0  0
  191.8610  171.8560  134.3480 N   0  0  0  0  0  0  0  0  0  0  0  0
  193.2050  171.7970  134.5180 O   0  0  0  0  0  1  0  0  0  0  0  0
  191.3620  170.4900  134.3460 C   0  0  0  0  0  1  0  0  0  0  0  0
  1  5  1  0  0  0  0
  2 12  1  0  0  0  0
  2 15  2  0  0  0  0
  3  9  2  0  0  0  0
  3 15  1  0  0  0  0
  4  8  1  6  0  0  0
  4 23  1  0  0  0  0
  5  4  1  0  0  0  0
  6  8  1  1  0  0  0
  7  6  1  0  0  0  0
  9 10  1  0  0  0  0
 10  6  1  0  0  0  0
 10  1  2  0  0  0  0
 11  9  1  0  0  0  0
 11  7  2  0  0  0  0
 12 13  1  0  0  0  0
 13 32  1  6  0  0  0
 13 14  1  0  0  0  0
 14 16  1  0  0  0  0
 15 17  1  0  0  0  0
 17 16  1  6  0  0  0
 17  1  1  0  0  0  0
 18 22  1  0  0  0  0
 19 25  1  0  0  0  0
 20 29  1  0  0  0  0
 21 20  2  0  0  0  0
 22 21  1  0  0  0  0
 23 27  1  1  0  0  0
 23 28  1  0  0  0  0
 24 26  2  0  0  0  0
 25 22  2  0  0  0  0
 25 24  1  0  0  0  0
 26 20  1  0  0  0  0
 27 19  1  0  0  0  0
 28 18  1  0  0  0  0
 29 31  2  0  0  0  0
 29 30  1  0  0  0  0
 32 33  1  0  0  0  0
 34 32  1  0  0  0  0
M  END
>  <MODEL>
7

>  <REMARK>
 VINA RESULT:      -8.5      6.236      7.431
  Name = 
  3 active torsions:
  status: ('A' for Active; 'I' for Inactive)
    1  A    between atoms: N_3  and  C_25
    2  A    between atoms: C_7  and  C_11
    3  A    between atoms: C_8  and  C_18
                            x       y       z     vdW  Elec       q    Type
                         _______ _______ _______ _____ _____    ______ ____

>  <TORSDO>
F 3

$$$$
=
 OpenBabel10272415093D

 34 39  0  0  1  0  0  0  0  0999 V2000
  187.9390  175.0620  136.8890 C   0  0  0  0  0  0  0  0  0  0  0  0
  185.4100  173.7620  134.4130 C   0  0  0  0  0  3  0  0  0  0  0  0
  187.8020  173.7360  134.3740 N   0  0  0  0  0  0  0  0  0  0  0  0
  189.2350  177.1120  137.5960 C   0  0  2  0  0  3  0  0  0  0  0  0
  188.1680  176.0580  137.9850 C   0  0  0  0  0  2  0  0  0  0  0  0
  190.3810  175.1320  136.3960 C   0  0  1  0  0  3  0  0  0  0  0  0
  191.0980  174.7740  135.1490 N   0  0  0  0  0  0  0  0  0  0  0  0
  190.3090  176.6530  136.5670 C   0  0  0  0  0  2  0  0  0  0  0  0
  188.9230  173.9730  134.9800 C   0  0  0  0  0  0  0  0  0  0  0  0
  189.0030  174.6130  136.2370 C   0  0  0  0  0  0  0  0  0  0  0  0
  190.1760  174.0630  134.3470 N   0  0  0  0  0  0  0  0  0  0  0  0
  184.0840  174.0570  135.0520 C   0  0  0  0  0  2  0  0  0  0  0  0
  183.7660  173.1510  136.2540 C   0  0  2  0  0  3  0  0  0  0  0  0
  184.9990  172.6440  137.0350 C   0  0  0  0  0  2  0  0  0  0  0  0
  186.5580  174.0080  135.0480 C   0  0  0  0  0  0  0  0  0  0  0  0
  185.9100  173.7670  137.5400 C   0  0  0  0  0  2  0  0  0  0  0  0
  186.5540  174.6410  136.4480 C   0  0  1  0  0  3  0  0  0  0  0  0
  191.1280  177.3730  140.9610 C   0  0  0  0  0  2  0  0  0  0  0  0
  188.0480  177.7790  140.6420 C   0  0  0  0  0  2  0  0  0  0  0  0
  189.8700  177.2420  144.5180 C   0  0  0  0  0  0  0  0  0  0  0  0
  190.6810  177.1920  143.3790 C   0  0  0  0  0  3  0  0  0  0  0  0
  190.1450  177.3690  142.0990 C   0  0  0  0  0  0  0  0  0  0  0  0
  189.8390  177.7590  138.8440 C   0  0  1  0  0  3  0  0  0  0  0  0
  187.9510  177.6770  143.1050 C   0  0  0  0  0  3  0  0  0  0  0  0
  188.7560  177.6390  141.9610 C   0  0  0  0  0  0  0  0  0  0  0  0
  188.5010  177.4850  144.3720 C   0  0  0  0  0  3  0  0  0  0  0  0
  188.8290  178.6080  139.6320 C   0  0  0  0  0  2  0  0  0  0  0  0
  190.5790  176.7280  139.6980 C   0  0  0  0  0  2  0  0  0  0  0  0
  190.4580  177.0440  145.8530 C   0  0  0  0  0  0  0  0  0  0  0  0
  189.8100  177.3550  146.8880 O   0  0  0  0  0  1  0  0  0  0  0  0
  191.7350  176.5100  145.9840 O   0  0  0  0  0  0  0  0  0  0  0  0
  182.8720  172.0650  135.8380 N   0  0  0  0  0  0  0  0  0  0  0  0
  183.5350  170.8850  135.9220 O   0  0  0  0  0  1  0  0  0  0  0  0
  181.7520  172.0030  136.7650 C   0  0  0  0  0  1  0  0  0  0  0  0
  1  5  1  0  0  0  0
  2 15  2  0  0  0  0
  2 12  1  0  0  0  0
  3  9  2  0  0  0  0
  3 15  1  0  0  0  0
  4  8  1  1  0  0  0
  4  5  1  0  0  0  0
  4 23  1  0  0  0  0
  6  8  1  6  0  0  0
  7  6  1  0  0  0  0
  9 10  1  0  0  0  0
 10  6  1  0  0  0  0
 10  1  2  0  0  0  0
 11  9  1  0  0  0  0
 11  7  2  0  0  0  0
 12 13  1  0  0  0  0
 13 32  1  6  0  0  0
 13 14  1  0  0  0  0
 14 16  1  0  0  0  0
 15 17  1  0  0  0  0
 17  1  1  0  0  0  0
 17 16  1  1  0  0  0
 18 22  1  0  0  0  0
 19 25  1  0  0  0  0
 20 29  1  0  0  0  0
 21 20  2  0  0  0  0
 22 21  1  0  0  0  0
 23 27  1  1  0  0  0
 23 28  1  0  0  0  0
 24 26  2  0  0  0  0
 25 22  2  0  0  0  0
 25 24  1  0  0  0  0
 26 20  1  0  0  0  0
 27 19  1  0  0  0  0
 28 18  1  0  0  0  0
 29 31  2  0  0  0  0
 29 30  1  0  0  0  0
 32 33  1  0  0  0  0
 32 34  1  0  0  0  0
M  END
>  <MODEL>
8

>  <REMARK>
 VINA RESULT:      -7.6      5.107      6.908
  Name = 
  3 active torsions:
  status: ('A' for Active; 'I' for Inactive)
    1  A    between atoms: N_3  and  C_25
    2  A    between atoms: C_7  and  C_11
    3  A    between atoms: C_8  and  C_18
                            x       y       z     vdW  Elec       q    Type
                         _______ _______ _______ _____ _____    ______ ____

>  <TORSDO>
F 3

$$$$
=
 OpenBabel10272415093D

 34 39  0  0  1  0  0  0  0  0999 V2000
  187.0220  176.4310  137.3320 C   0  0  0  0  0  0  0  0  0  0  0  0
  184.7450  176.0930  134.3460 C   0  0  0  0  0  3  0  0  0  0  0  0
  186.5050  174.6840  135.1450 N   0  0  0  0  0  0  0  0  0  0  0  0
  189.1860  177.4510  138.1440 C   0  0  2  0  0  3  0  0  0  0  0  0
  187.6430  177.4070  138.2850 C   0  0  0  0  0  2  0  0  0  0  0  0
  188.9610  174.9130  137.7150 C   0  0  1  0  0  3  0  0  0  0  0  0
  189.4800  173.8190  136.8610 N   0  0  0  0  0  0  0  0  0  0  0  0
  189.8640  176.1480  137.6300 C   0  0  0  0  0  2  0  0  0  0  0  0
  187.3800  174.4170  136.0630 C   0  0  0  0  0  0  0  0  0  0  0  0
  187.6330  175.2660  137.1620 C   0  0  0  0  0  0  0  0  0  0  0  0
  188.4780  173.5520  135.8990 N   0  0  0  0  0  0  0  0  0  0  0  0
  183.8420  177.2890  134.4340 C   0  0  0  0  0  2  0  0  0  0  0  0
  182.8060  177.1950  135.5670 C   0  0  2  0  0  3  0  0  0  0  0  0
  183.2510  176.3660  136.7930 C   0  0  0  0  0  2  0  0  0  0  0  0
  185.6420  175.8270  135.2980 C   0  0  0  0  0  0  0  0  0  0  0  0
  184.5650  176.8480  137.4160 C   0  0  0  0  0  2  0  0  0  0  0  0
  185.8020  176.7680  136.5030 C   0  0  1  0  0  3  0  0  0  0  0  0
  191.1650  177.4500  141.4680 C   0  0  0  0  0  2  0  0  0  0  0  0
  188.0860  177.9230  141.2580 C   0  0  0  0  0  2  0  0  0  0  0  0
  189.9950  177.0920  145.0390 C   0  0  0  0  0  0  0  0  0  0  0  0
  190.7760  177.1090  143.8790 C   0  0  0  0  0  3  0  0  0  0  0  0
  190.2120  177.3830  142.6280 C   0  0  0  0  0  0  0  0  0  0  0  0
  189.8310  178.0010  139.4170 C   0  0  1  0  0  3  0  0  0  0  0  0
  188.0480  177.6520  143.7090 C   0  0  0  0  0  3  0  0  0  0  0  0
  188.8240  177.6820  142.5450 C   0  0  0  0  0  0  0  0  0  0  0  0
  188.6260  177.3660  144.9460 C   0  0  0  0  0  3  0  0  0  0  0  0
  188.8550  178.8080  140.2870 C   0  0  0  0  0  2  0  0  0  0  0  0
  190.5750  176.9030  140.1790 C   0  0  0  0  0  2  0  0  0  0  0  0
  190.6120  176.7940  146.3420 C   0  0  0  0  0  0  0  0  0  0  0  0
  189.9030  176.4210  147.3140 O   0  0  0  0  0  1  0  0  0  0  0  0
  191.9860  176.9200  146.5110 O   0  0  0  0  0  0  0  0  0  0  0  0
  181.5140  176.7600  135.0270 N   0  0  0  0  0  0  0  0  0  0  0  0
  181.4490  175.4060  135.0610 O   0  0  0  0  0  1  0  0  0  0  0  0
  180.4550  177.2690  135.8850 C   0  0  0  0  0  1  0  0  0  0  0  0
  1  5  1  0  0  0  0
  2 12  1  0  0  0  0
  2 15  2  0  0  0  0
  3 15  1  0  0  0  0
  3  9  2  0  0  0  0
  4  8  1  1  0  0  0
  4  5  1  0  0  0  0
  4 23  1  0  0  0  0
  6  8  1  6  0  0  0
  7  6  1  0  0  0  0
  9 10  1  0  0  0  0
 10  1  2  0  0  0  0
 10  6  1  0  0  0  0
 11  9  1  0  0  0  0
 11  7  2  0  0  0  0
 12 13  1  0  0  0  0
 13 32  1  6  0  0  0
 13 14  1  0  0  0  0
 14 16  1  0  0  0  0
 15 17  1  0  0  0  0
 17  1  1  0  0  0  0
 17 16  1  1  0  0  0
 18 22  1  0  0  0  0
 19 25  1  0  0  0  0
 20 29  1  0  0  0  0
 21 20  2  0  0  0  0
 22 21  1  0  0  0  0
 23 28  1  1  0  0  0
 23 27  1  0  0  0  0
 24 26  2  0  0  0  0
 25 22  2  0  0  0  0
 25 24  1  0  0  0  0
 26 20  1  0  0  0  0
 27 19  1  0  0  0  0
 28 18  1  0  0  0  0
 29 31  2  0  0  0  0
 29 30  1  0  0  0  0
 32 33  1  0  0  0  0
 32 34  1  0  0  0  0
M  END
>  <MODEL>
9

>  <REMARK>
 VINA RESULT:      -7.4      4.031      5.858
  Name = 
  3 active torsions:
  status: ('A' for Active; 'I' for Inactive)
    1  A    between atoms: N_3  and  C_25
    2  A    between atoms: C_7  and  C_11
    3  A    between atoms: C_8  and  C_18
                            x       y       z     vdW  Elec       q    Type
                         _______ _______ _______ _____ _____    ______ ____

>  <TORSDO>
F 3

$$$$
