=
 OpenBabel10272401553D

 28 31  0  0  1  0  0  0  0  0999 V2000
  189.9570  176.8080  143.1390 N   0  0  0  0  0  0  0  0  0  0  0  0
  189.8870  176.9170  141.7030 C   0  0  0  0  0  0  0  0  0  0  0  0
  185.0070  178.1040  142.3820 C   0  0  0  0  0  2  0  0  0  0  0  0
  188.3240  177.8030  147.6480 O   0  0  0  0  0  1  0  0  0  0  0  0
  190.5930  176.1620  140.9830 O   0  0  0  0  0  0  0  0  0  0  0  0
  184.2580  178.5850  144.7490 C   0  0  0  0  0  0  0  0  0  0  0  0
  186.5600  177.8780  144.3790 C   0  0  0  0  0  0  0  0  0  0  0  0
  182.8760  179.2060  142.8290 N   0  0  0  0  0  0  0  0  0  0  0  0
  185.2770  178.1620  143.8680 C   0  0  0  0  0  0  0  0  0  0  0  0
  185.7760  178.3950  146.6240 C   0  0  0  0  0  3  0  0  0  0  0  0
  182.8650  178.8300  144.2420 C   0  0  0  0  0  2  0  0  0  0  0  0
  189.1200  177.3190  145.4140 C   0  0  0  0  0  0  0  0  0  0  0  0
  187.6000  177.4810  143.5310 C   0  0  0  0  0  3  0  0  0  0  0  0
  184.5090  178.6830  146.1180 C   0  0  0  0  0  3  0  0  0  0  0  0
  191.5730  177.0210  144.9580 C   0  0  0  0  0  2  0  0  0  0  0  0
  188.0840  177.7080  146.2790 C   0  0  0  0  0  0  0  0  0  0  0  0
  190.4560  176.9330  145.9910 C   0  0  0  0  0  2  0  0  0  0  0  0
  181.4900  179.2540  142.4010 C   0  0  0  0  0  1  0  0  0  0  0  0
  183.5100  178.1260  142.0790 C   0  0  0  0  0  2  0  0  0  0  0  0
  186.8090  177.9960  145.7670 C   0  0  0  0  0  0  0  0  0  0  0  0
  191.1730  176.2370  143.7180 C   0  0  0  0  0  2  0  0  0  0  0  0
  188.8820  177.2060  144.0260 C   0  0  0  0  0  0  0  0  0  0  0  0
  189.0500  177.9670  141.0280 C   0  0  0  0  0  2  0  0  0  0  0  0
  187.2270  178.0520  139.3020 C   0  0  0  0  0  1  0  0  0  0  0  0
  188.6490  177.5890  139.5960 C   0  0  1  0  0  3  0  0  0  0  0  0
  189.6440  178.0920  138.5420 C   0  0  0  0  0  3  0  0  0  0  0  0
  190.1550  176.9420  137.6900 C   0  0  0  0  0  1  0  0  0  0  0  0
  188.9950  179.1100  137.6210 C   0  0  0  0  0  1  0  0  0  0  0  0
  1 21  1  0  0  0  0
  1 22  1  0  0  0  0
  2  1  1  0  0  0  0
  3  9  1  0  0  0  0
  5  2  2  0  0  0  0
  6 14  1  0  0  0  0
  7 20  1  0  0  0  0
  8 11  1  0  0  0  0
  9  7  1  0  0  0  0
  9  6  2  0  0  0  0
 11  6  1  0  0  0  0
 12 17  1  0  0  0  0
 12 16  1  0  0  0  0
 13 22  1  0  0  0  0
 13  7  2  0  0  0  0
 14 10  2  0  0  0  0
 15 17  1  0  0  0  0
 16  4  1  0  0  0  0
 18  8  1  0  0  0  0
 19  3  1  0  0  0  0
 19  8  1  0  0  0  0
 20 16  2  0  0  0  0
 20 10  1  0  0  0  0
 21 15  1  0  0  0  0
 22 12  2  0  0  0  0
 23  2  1  0  0  0  0
 25 24  1  6  0  0  0
 25 23  1  0  0  0  0
 26 25  1  0  0  0  0
 27 26  1  0  0  0  0
 28 26  1  0  0  0  0
M  END
>  <MODEL>
1

>  <REMARK>
 VINA RESULT:     -10.7      0.000      0.000
  Name = 
  3 active torsions:
  status: ('A' for Active; 'I' for Inactive)
    1  A    between atoms: C_2  and  C_3
    2  A    between atoms: C_3  and  C_11
    3  A    between atoms: C_6  and  C_11
                            x       y       z     vdW  Elec       q    Type
                         _______ _______ _______ _____ _____    ______ ____

>  <TORSDO>
F 3

$$$$
=
 OpenBabel10272401553D

 28 31  0  0  1  0  0  0  0  0999 V2000
  187.1330  178.3170  146.2620 N   0  0  0  0  0  0  0  0  0  0  0  0
  185.8690  178.6230  145.6400 C   0  0  0  0  0  0  0  0  0  0  0  0
  188.3340  178.1990  141.2330 C   0  0  0  0  0  2  0  0  0  0  0  0
  191.6530  176.4320  146.2010 O   0  0  0  0  0  1  0  0  0  0  0  0
  185.0630  179.4060  146.2100 O   0  0  0  0  0  0  0  0  0  0  0  0
  190.6680  177.2290  141.3080 C   0  0  0  0  0  0  0  0  0  0  0  0
  189.4870  177.5820  143.4090 C   0  0  0  0  0  0  0  0  0  0  0  0
  189.4410  177.4220  139.2010 N   0  0  0  0  0  0  0  0  0  0  0  0
  189.5280  177.6860  142.0040 C   0  0  0  0  0  0  0  0  0  0  0  0
  191.7210  176.6170  143.3980 C   0  0  0  0  0  3  0  0  0  0  0  0
  190.7670  177.3900  139.8170 C   0  0  0  0  0  2  0  0  0  0  0  0
  189.4180  177.3610  146.2170 C   0  0  0  0  0  0  0  0  0  0  0  0
  188.3630  178.0020  144.1290 C   0  0  0  0  0  3  0  0  0  0  0  0
  191.7590  176.7150  142.0080 C   0  0  0  0  0  3  0  0  0  0  0  0
  188.0230  177.3230  148.3070 C   0  0  0  0  0  2  0  0  0  0  0  0
  190.5560  176.9430  145.5090 C   0  0  0  0  0  0  0  0  0  0  0  0
  189.4300  177.3240  147.7220 C   0  0  0  0  0  2  0  0  0  0  0  0
  189.6410  177.7460  137.8010 C   0  0  0  0  0  1  0  0  0  0  0  0
  188.6960  178.5330  139.7870 C   0  0  0  0  0  2  0  0  0  0  0  0
  190.5920  177.0430  144.1090 C   0  0  0  0  0  0  0  0  0  0  0  0
  187.2310  178.4770  147.7130 C   0  0  0  0  0  2  0  0  0  0  0  0
  188.3060  177.8930  145.5250 C   0  0  0  0  0  0  0  0  0  0  0  0
  185.4380  177.9690  144.3570 C   0  0  0  0  0  2  0  0  0  0  0  0
  185.3930  179.2600  142.2020 C   0  0  0  0  0  1  0  0  0  0  0  0
  184.6090  178.8950  143.4570 C   0  0  1  0  0  3  0  0  0  0  0  0
  183.2250  178.3220  143.1210 C   0  0  0  0  0  3  0  0  0  0  0  0
  182.1610  178.9160  144.0280 C   0  0  0  0  0  1  0  0  0  0  0  0
  182.8440  178.6250  141.6830 C   0  0  0  0  0  1  0  0  0  0  0  0
  1 21  1  0  0  0  0
  2  5  2  0  0  0  0
  2  1  1  0  0  0  0
  3  9  1  0  0  0  0
  6  9  2  0  0  0  0
  6 14  1  0  0  0  0
  7 20  2  0  0  0  0
  7 13  1  0  0  0  0
  8 19  1  0  0  0  0
  8 11  1  0  0  0  0
  9  7  1  0  0  0  0
 10 20  1  0  0  0  0
 11  6  1  0  0  0  0
 12 17  1  0  0  0  0
 13 22  2  0  0  0  0
 14 10  2  0  0  0  0
 16  4  1  0  0  0  0
 16 12  2  0  0  0  0
 17 15  1  0  0  0  0
 18  8  1  0  0  0  0
 19  3  1  0  0  0  0
 20 16  1  0  0  0  0
 21 15  1  0  0  0  0
 22 12  1  0  0  0  0
 22  1  1  0  0  0  0
 23  2  1  0  0  0  0
 25 24  1  6  0  0  0
 25 23  1  0  0  0  0
 26 25  1  0  0  0  0
 26 27  1  0  0  0  0
 28 26  1  0  0  0  0
M  END
>  <MODEL>
2

>  <REMARK>
 VINA RESULT:     -10.3      2.056      6.019
  Name = 
  3 active torsions:
  status: ('A' for Active; 'I' for Inactive)
    1  A    between atoms: C_2  and  C_3
    2  A    between atoms: C_3  and  C_11
    3  A    between atoms: C_6  and  C_11
                            x       y       z     vdW  Elec       q    Type
                         _______ _______ _______ _____ _____    ______ ____

>  <TORSDO>
F 3

$$$$
=
 OpenBabel10272401553D

 28 31  0  0  1  0  0  0  0  0999 V2000
  190.4770  176.7310  144.7420 N   0  0  0  0  0  0  0  0  0  0  0  0
  190.7700  176.7830  143.3310 C   0  0  0  0  0  0  0  0  0  0  0  0
  185.8850  177.9800  142.7140 C   0  0  0  0  0  2  0  0  0  0  0  0
  187.7680  177.8960  148.6530 O   0  0  0  0  0  1  0  0  0  0  0  0
  191.6300  176.0030  142.8410 O   0  0  0  0  0  0  0  0  0  0  0  0
  184.5680  178.5510  144.7960 C   0  0  0  0  0  0  0  0  0  0  0  0
  186.8840  177.8370  145.0450 C   0  0  0  0  0  0  0  0  0  0  0  0
  183.7170  179.0920  142.5680 N   0  0  0  0  0  0  0  0  0  0  0  0
  185.7730  178.0970  144.2170 C   0  0  0  0  0  0  0  0  0  0  0  0
  185.5630  178.4390  146.9990 C   0  0  0  0  0  3  0  0  0  0  0  0
  183.3480  178.7710  143.9460 C   0  0  0  0  0  2  0  0  0  0  0  0
  189.0970  177.3270  146.7120 C   0  0  0  0  0  0  0  0  0  0  0  0
  188.1010  177.4100  144.5020 C   0  0  0  0  0  3  0  0  0  0  0  0
  184.4660  178.7020  146.1790 C   0  0  0  0  0  3  0  0  0  0  0  0
  191.5840  177.0200  146.8990 C   0  0  0  0  0  2  0  0  0  0  0  0
  187.8800  177.7460  147.2720 C   0  0  0  0  0  0  0  0  0  0  0  0
  190.2430  176.9680  147.6200 C   0  0  0  0  0  2  0  0  0  0  0  0
  182.4840  179.1180  141.8040 C   0  0  0  0  0  1  0  0  0  0  0  0
  184.5120  177.9860  142.0430 C   0  0  0  0  0  2  0  0  0  0  0  0
  186.7770  178.0100  146.4450 C   0  0  0  0  0  0  0  0  0  0  0  0
  191.5040  176.1870  145.6290 C   0  0  0  0  0  2  0  0  0  0  0  0
  189.2150  177.1590  145.3130 C   0  0  0  0  0  0  0  0  0  0  0  0
  190.1380  177.8030  142.4270 C   0  0  0  0  0  2  0  0  0  0  0  0
  188.5580  178.1810  140.5100 C   0  0  0  0  0  1  0  0  0  0  0  0
  189.5060  177.1870  141.1720 C   0  0  1  0  0  3  0  0  0  0  0  0
  190.5460  176.6430  140.1830 C   0  0  0  0  0  3  0  0  0  0  0  0
  189.9320  176.4490  138.8070 C   0  0  0  0  0  1  0  0  0  0  0  0
  191.7200  177.5970  140.0470 C   0  0  0  0  0  1  0  0  0  0  0  0
  1 22  1  0  0  0  0
  1 21  1  0  0  0  0
  2  1  1  0  0  0  0
  3  9  1  0  0  0  0
  5  2  2  0  0  0  0
  6 14  1  0  0  0  0
  7 20  1  0  0  0  0
  8 11  1  0  0  0  0
  9  6  2  0  0  0  0
  9  7  1  0  0  0  0
 11  6  1  0  0  0  0
 12 16  1  0  0  0  0
 12 17  1  0  0  0  0
 13  7  2  0  0  0  0
 13 22  1  0  0  0  0
 14 10  2  0  0  0  0
 15 17  1  0  0  0  0
 16  4  1  0  0  0  0
 18  8  1  0  0  0  0
 19  8  1  0  0  0  0
 19  3  1  0  0  0  0
 20 10  1  0  0  0  0
 20 16  2  0  0  0  0
 21 15  1  0  0  0  0
 22 12  2  0  0  0  0
 23  2  1  0  0  0  0
 25 24  1  6  0  0  0
 25 23  1  0  0  0  0
 26 25  1  0  0  0  0
 27 26  1  0  0  0  0
 28 26  1  0  0  0  0
M  END
>  <MODEL>
3

>  <REMARK>
 VINA RESULT:     -10.1      1.199      1.543
  Name = 
  3 active torsions:
  status: ('A' for Active; 'I' for Inactive)
    1  A    between atoms: C_2  and  C_3
    2  A    between atoms: C_3  and  C_11
    3  A    between atoms: C_6  and  C_11
                            x       y       z     vdW  Elec       q    Type
                         _______ _______ _______ _____ _____    ______ ____

>  <TORSDO>
F 3

$$$$
=
 OpenBabel10272401553D

 28 31  0  0  1  0  0  0  0  0999 V2000
  186.9030  178.5080  140.9430 N   0  0  0  0  0  0  0  0  0  0  0  0
  188.0500  178.1670  140.1400 C   0  0  0  0  0  0  0  0  0  0  0  0
  190.3970  177.2020  144.5260 C   0  0  0  0  0  2  0  0  0  0  0  0
  184.2880  178.2980  145.0800 O   0  0  0  0  0  1  0  0  0  0  0  0
  188.2630  178.7790  139.0590 O   0  0  0  0  0  0  0  0  0  0  0  0
  188.9630  177.1310  146.6080 C   0  0  0  0  0  0  0  0  0  0  0  0
  187.9120  177.7230  144.4910 C   0  0  0  0  0  0  0  0  0  0  0  0
  191.2370  176.2300  146.6020 N   0  0  0  0  0  0  0  0  0  0  0  0
  189.0680  177.3830  145.2230 C   0  0  0  0  0  0  0  0  0  0  0  0
  186.5900  177.5960  146.5310 C   0  0  0  0  0  3  0  0  0  0  0  0
  190.1890  176.8330  147.4240 C   0  0  0  0  0  2  0  0  0  0  0  0
  185.5910  178.3940  143.0420 C   0  0  0  0  0  0  0  0  0  0  0  0
  187.9760  177.9550  143.1130 C   0  0  0  0  0  3  0  0  0  0  0  0
  187.7320  177.2540  147.2530 C   0  0  0  0  0  3  0  0  0  0  0  0
  184.4660  178.5650  140.8020 C   0  0  0  0  0  2  0  0  0  0  0  0
  185.5130  178.1720  144.4260 C   0  0  0  0  0  0  0  0  0  0  0  0
  184.3620  178.8430  142.2960 C   0  0  0  0  0  2  0  0  0  0  0  0
  192.4200  176.1400  147.4370 C   0  0  0  0  0  1  0  0  0  0  0  0
  191.5550  177.1600  145.5220 C   0  0  0  0  0  2  0  0  0  0  0  0
  186.6650  177.8290  145.1510 C   0  0  0  0  0  0  0  0  0  0  0  0
  185.7690  179.1430  140.2720 C   0  0  0  0  0  2  0  0  0  0  0  0
  186.8310  178.2820  142.3730 C   0  0  0  0  0  0  0  0  0  0  0  0
  188.9690  177.0370  140.5100 C   0  0  0  0  0  2  0  0  0  0  0  0
  191.3860  177.3580  141.1170 C   0  0  0  0  0  1  0  0  0  0  0  0
  190.3940  177.2160  139.9690 C   0  0  1  0  0  3  0  0  0  0  0  0
  190.8070  176.1090  138.9890 C   0  0  0  0  0  3  0  0  0  0  0  0
  189.7650  175.9400  137.8970 C   0  0  0  0  0  1  0  0  0  0  0  0
  192.1360  176.4340  138.3280 C   0  0  0  0  0  1  0  0  0  0  0  0
  1 22  1  0  0  0  0
  2 23  1  0  0  0  0
  2  1  1  0  0  0  0
  3  9  1  0  0  0  0
  3 19  1  0  0  0  0
  5  2  2  0  0  0  0
  6 14  1  0  0  0  0
  6 11  1  0  0  0  0
  7 20  1  0  0  0  0
  7  9  1  0  0  0  0
  8 11  1  0  0  0  0
  8 18  1  0  0  0  0
  9  6  2  0  0  0  0
 10 14  2  0  0  0  0
 12 16  1  0  0  0  0
 13  7  2  0  0  0  0
 15 17  1  0  0  0  0
 16  4  1  0  0  0  0
 16 20  2  0  0  0  0
 17 12  1  0  0  0  0
 19  8  1  0  0  0  0
 20 10  1  0  0  0  0
 21 15  1  0  0  0  0
 21  1  1  0  0  0  0
 22 12  2  0  0  0  0
 22 13  1  0  0  0  0
 25 23  1  0  0  0  0
 25 24  1  1  0  0  0
 26 25  1  0  0  0  0
 27 26  1  0  0  0  0
 28 26  1  0  0  0  0
M  END
>  <MODEL>
4

>  <REMARK>
 VINA RESULT:     -10.0      2.107      5.394
  Name = 
  3 active torsions:
  status: ('A' for Active; 'I' for Inactive)
    1  A    between atoms: C_2  and  C_3
    2  A    between atoms: C_3  and  C_11
    3  A    between atoms: C_6  and  C_11
                            x       y       z     vdW  Elec       q    Type
                         _______ _______ _______ _____ _____    ______ ____

>  <TORSDO>
F 3

$$$$
=
 OpenBabel10272401553D

 28 31  0  0  1  0  0  0  0  0999 V2000
  189.1310  177.6430  146.0930 N   0  0  0  0  0  0  0  0  0  0  0  0
  190.2110  177.7700  145.1460 C   0  0  0  0  0  0  0  0  0  0  0  0
  186.6060  178.5160  141.6640 C   0  0  0  0  0  2  0  0  0  0  0  0
  184.5130  178.4140  147.5320 O   0  0  0  0  0  1  0  0  0  0  0  0
  191.2620  177.0920  145.3000 O   0  0  0  0  0  0  0  0  0  0  0  0
  184.2510  178.8890  142.5060 C   0  0  0  0  0  0  0  0  0  0  0  0
  186.0000  178.3910  144.1270 C   0  0  0  0  0  0  0  0  0  0  0  0
  184.8730  179.4210  140.2020 N   0  0  0  0  0  0  0  0  0  0  0  0
  185.5970  178.5720  142.7880 C   0  0  0  0  0  0  0  0  0  0  0  0
  183.7180  178.7990  144.8650 C   0  0  0  0  0  3  0  0  0  0  0  0
  183.7790  179.0210  141.0860 C   0  0  0  0  0  2  0  0  0  0  0  0
  186.7920  178.0390  146.8080 C   0  0  0  0  0  0  0  0  0  0  0  0
  187.3320  178.1010  144.4440 C   0  0  0  0  0  3  0  0  0  0  0  0
  183.3200  178.9840  143.5420 C   0  0  0  0  0  3  0  0  0  0  0  0
  188.6750  177.9630  148.4700 C   0  0  0  0  0  2  0  0  0  0  0  0
  185.4500  178.3210  146.5050 C   0  0  0  0  0  0  0  0  0  0  0  0
  187.1830  177.7610  148.2350 C   0  0  0  0  0  2  0  0  0  0  0  0
  184.3580  179.3550  138.8470 C   0  0  0  0  0  1  0  0  0  0  0  0
  185.9260  178.4130  140.3000 C   0  0  0  0  0  2  0  0  0  0  0  0
  185.0530  178.5070  145.1710 C   0  0  0  0  0  0  0  0  0  0  0  0
  189.4590  177.1690  147.4370 C   0  0  0  0  0  2  0  0  0  0  0  0
  187.7470  177.9300  145.7710 C   0  0  0  0  0  0  0  0  0  0  0  0
  190.1590  178.7540  144.0120 C   0  0  0  0  0  2  0  0  0  0  0  0
  191.9860  177.5040  142.8240 C   0  0  0  0  0  1  0  0  0  0  0  0
  190.6180  178.1580  142.6740 C   0  0  1  0  0  3  0  0  0  0  0  0
  189.5890  177.2000  142.0610 C   0  0  0  0  0  3  0  0  0  0  0  0
  189.7360  177.1450  140.5500 C   0  0  0  0  0  1  0  0  0  0  0  0
  189.7640  175.7920  142.6040 C   0  0  0  0  0  1  0  0  0  0  0  0
  1 21  1  0  0  0  0
  2  5  2  0  0  0  0
  2  1  1  0  0  0  0
  3  9  1  0  0  0  0
  6  9  2  0  0  0  0
  6 14  1  0  0  0  0
  7 13  2  0  0  0  0
  7 20  1  0  0  0  0
  8 19  1  0  0  0  0
  8 11  1  0  0  0  0
  9  7  1  0  0  0  0
 10 20  1  0  0  0  0
 11  6  1  0  0  0  0
 12 17  1  0  0  0  0
 13 22  1  0  0  0  0
 14 10  2  0  0  0  0
 16 12  1  0  0  0  0
 16  4  1  0  0  0  0
 17 15  1  0  0  0  0
 18  8  1  0  0  0  0
 19  3  1  0  0  0  0
 20 16  2  0  0  0  0
 21 15  1  0  0  0  0
 22  1  1  0  0  0  0
 22 12  2  0  0  0  0
 23  2  1  0  0  0  0
 25 24  1  1  0  0  0
 25 23  1  0  0  0  0
 26 28  1  0  0  0  0
 26 25  1  0  0  0  0
 27 26  1  0  0  0  0
M  END
>  <MODEL>
5

>  <REMARK>
 VINA RESULT:      -9.7      2.014      3.454
  Name = 
  3 active torsions:
  status: ('A' for Active; 'I' for Inactive)
    1  A    between atoms: C_2  and  C_3
    2  A    between atoms: C_3  and  C_11
    3  A    between atoms: C_6  and  C_11
                            x       y       z     vdW  Elec       q    Type
                         _______ _______ _______ _____ _____    ______ ____

>  <TORSDO>
F 3

$$$$
=
 OpenBabel10272401553D

 28 31  0  0  1  0  0  0  0  0999 V2000
  187.1400  177.7440  145.8620 N   0  0  0  0  0  0  0  0  0  0  0  0
  188.5630  177.5600  145.9950 C   0  0  0  0  0  0  0  0  0  0  0  0
  188.6980  177.6810  140.9300 C   0  0  0  0  0  2  0  0  0  0  0  0
  183.1630  179.1630  143.3780 O   0  0  0  0  0  1  0  0  0  0  0  0
  189.0200  176.8700  146.9450 O   0  0  0  0  0  0  0  0  0  0  0  0
  186.5910  178.4110  139.7400 C   0  0  0  0  0  0  0  0  0  0  0  0
  186.5430  178.2040  142.1670 C   0  0  0  0  0  0  0  0  0  0  0  0
  188.7390  178.3170  138.5750 N   0  0  0  0  0  0  0  0  0  0  0  0
  187.2410  178.0790  140.9480 C   0  0  0  0  0  0  0  0  0  0  0  0
  184.5650  178.9380  140.9530 C   0  0  0  0  0  3  0  0  0  0  0  0
  187.2880  178.2230  138.4220 C   0  0  0  0  0  2  0  0  0  0  0  0
  185.1370  178.4650  144.5940 C   0  0  0  0  0  0  0  0  0  0  0  0
  187.1640  177.9090  143.3850 C   0  0  0  0  0  3  0  0  0  0  0  0
  185.2570  178.8210  139.7490 C   0  0  0  0  0  3  0  0  0  0  0  0
  185.2460  178.6680  147.0960 C   0  0  0  0  0  2  0  0  0  0  0  0
  184.4960  178.7570  143.3790 C   0  0  0  0  0  0  0  0  0  0  0  0
  184.3470  178.5180  145.8750 C   0  0  0  0  0  2  0  0  0  0  0  0
  189.3160  177.9590  137.2920 C   0  0  0  0  0  1  0  0  0  0  0  0
  189.1610  177.2940  139.5260 C   0  0  0  0  0  2  0  0  0  0  0  0
  185.1960  178.6370  142.1670 C   0  0  0  0  0  0  0  0  0  0  0  0
  186.3210  177.5930  147.0640 C   0  0  0  0  0  2  0  0  0  0  0  0
  186.4850  178.0390  144.6030 C   0  0  0  0  0  0  0  0  0  0  0  0
  189.5390  178.2380  145.0750 C   0  0  0  0  0  2  0  0  0  0  0  0
  190.1250  176.1500  143.8070 C   0  0  0  0  0  1  0  0  0  0  0  0
  190.6780  177.3170  144.6170 C   0  0  1  0  0  3  0  0  0  0  0  0
  191.7860  178.0630  143.8630 C   0  0  0  0  0  3  0  0  0  0  0  0
  191.9740  177.4870  142.4700 C   0  0  0  0  0  1  0  0  0  0  0  0
  191.4520  179.5390  143.7230 C   0  0  0  0  0  1  0  0  0  0  0  0
  1  2  1  0  0  0  0
  1 21  1  0  0  0  0
  2  5  2  0  0  0  0
  3  9  1  0  0  0  0
  4 16  1  0  0  0  0
  6 14  2  0  0  0  0
  6  9  1  0  0  0  0
  7 20  1  0  0  0  0
  7 13  1  0  0  0  0
  8 19  1  0  0  0  0
  9  7  2  0  0  0  0
 10 20  2  0  0  0  0
 11  8  1  0  0  0  0
 11  6  1  0  0  0  0
 12 22  1  0  0  0  0
 12 17  1  0  0  0  0
 13 22  2  0  0  0  0
 14 10  1  0  0  0  0
 16 12  2  0  0  0  0
 17 15  1  0  0  0  0
 18  8  1  0  0  0  0
 19  3  1  0  0  0  0
 20 16  1  0  0  0  0
 21 15  1  0  0  0  0
 22  1  1  0  0  0  0
 23  2  1  0  0  0  0
 25 24  1  6  0  0  0
 25 23  1  0  0  0  0
 26 25  1  0  0  0  0
 27 26  1  0  0  0  0
 28 26  1  0  0  0  0
M  END
>  <MODEL>
6

>  <REMARK>
 VINA RESULT:      -9.4      2.137      5.557
  Name = 
  3 active torsions:
  status: ('A' for Active; 'I' for Inactive)
    1  A    between atoms: C_2  and  C_3
    2  A    between atoms: C_3  and  C_11
    3  A    between atoms: C_6  and  C_11
                            x       y       z     vdW  Elec       q    Type
                         _______ _______ _______ _____ _____    ______ ____

>  <TORSDO>
F 3

$$$$
=
 OpenBabel10272401553D

 28 31  0  0  1  0  0  0  0  0999 V2000
  185.3570  178.7010  144.7440 N   0  0  0  0  0  0  0  0  0  0  0  0
  184.4330  178.8860  143.6530 C   0  0  0  0  0  0  0  0  0  0  0  0
  188.3570  177.8580  140.6150 C   0  0  0  0  0  2  0  0  0  0  0  0
  189.4910  176.9120  146.6680 O   0  0  0  0  0  1  0  0  0  0  0  0
  183.5030  179.7300  143.7560 O   0  0  0  0  0  0  0  0  0  0  0  0
  190.4510  176.9540  141.7060 C   0  0  0  0  0  0  0  0  0  0  0  0
  188.5820  177.5930  143.1310 C   0  0  0  0  0  0  0  0  0  0  0  0
  190.1160  176.8080  139.2880 N   0  0  0  0  0  0  0  0  0  0  0  0
  189.1520  177.4880  141.8460 C   0  0  0  0  0  0  0  0  0  0  0  0
  190.6160  176.6800  144.1040 C   0  0  0  0  0  3  0  0  0  0  0  0
  191.1100  176.8930  140.3560 C   0  0  0  0  0  2  0  0  0  0  0  0
  187.4520  177.7910  145.7040 C   0  0  0  0  0  0  0  0  0  0  0  0
  187.2870  178.0940  143.3030 C   0  0  0  0  0  3  0  0  0  0  0  0
  191.1780  176.5700  142.8330 C   0  0  0  0  0  3  0  0  0  0  0  0
  185.3740  178.0390  147.0940 C   0  0  0  0  0  2  0  0  0  0  0  0
  188.7560  177.2940  145.5480 C   0  0  0  0  0  0  0  0  0  0  0  0
  186.8960  177.9790  147.0910 C   0  0  0  0  0  2  0  0  0  0  0  0
  190.8410  176.9230  138.0360 C   0  0  0  0  0  1  0  0  0  0  0  0
  189.2500  177.9790  139.3810 C   0  0  0  0  0  2  0  0  0  0  0  0
  189.3200  177.1850  144.2660 C   0  0  0  0  0  0  0  0  0  0  0  0
  184.9090  179.0760  146.0840 C   0  0  0  0  0  2  0  0  0  0  0  0
  186.7050  178.1930  144.5740 C   0  0  0  0  0  0  0  0  0  0  0  0
  184.4920  178.0410  142.4120 C   0  0  0  0  0  2  0  0  0  0  0  0
  184.8540  178.9180  140.0850 C   0  0  0  0  0  1  0  0  0  0  0  0
  183.8330  178.7070  141.1960 C   0  0  1  0  0  3  0  0  0  0  0  0
  182.5930  177.9520  140.6990 C   0  0  0  0  0  3  0  0  0  0  0  0
  181.5590  178.9170  140.1450 C   0  0  0  0  0  1  0  0  0  0  0  0
  182.9580  176.9690  139.6000 C   0  0  0  0  0  1  0  0  0  0  0  0
  1 21  1  0  0  0  0
  2  5  2  0  0  0  0
  2  1  1  0  0  0  0
  3  9  1  0  0  0  0
  6  9  2  0  0  0  0
  6 14  1  0  0  0  0
  7 13  2  0  0  0  0
  7 20  1  0  0  0  0
  8 19  1  0  0  0  0
  8 11  1  0  0  0  0
  9  7  1  0  0  0  0
 10 20  1  0  0  0  0
 11  6  1  0  0  0  0
 12 17  1  0  0  0  0
 13 22  1  0  0  0  0
 14 10  2  0  0  0  0
 16 12  1  0  0  0  0
 16  4  1  0  0  0  0
 17 15  1  0  0  0  0
 18  8  1  0  0  0  0
 19  3  1  0  0  0  0
 20 16  2  0  0  0  0
 21 15  1  0  0  0  0
 22  1  1  0  0  0  0
 22 12  2  0  0  0  0
 23  2  1  0  0  0  0
 25 24  1  6  0  0  0
 25 23  1  0  0  0  0
 26 25  1  0  0  0  0
 27 26  1  0  0  0  0
 28 26  1  0  0  0  0
M  END
>  <MODEL>
7

>  <REMARK>
 VINA RESULT:      -9.4      1.960      5.983
  Name = 
  3 active torsions:
  status: ('A' for Active; 'I' for Inactive)
    1  A    between atoms: C_2  and  C_3
    2  A    between atoms: C_3  and  C_11
    3  A    between atoms: C_6  and  C_11
                            x       y       z     vdW  Elec       q    Type
                         _______ _______ _______ _____ _____    ______ ____

>  <TORSDO>
F 3

$$$$
=
 OpenBabel10272401553D

 28 31  0  0  1  0  0  0  0  0999 V2000
  185.4050  178.7130  139.7940 N   0  0  0  0  0  0  0  0  0  0  0  0
  186.4970  178.4140  138.9020 C   0  0  0  0  0  0  0  0  0  0  0  0
  189.2740  177.7470  143.0880 C   0  0  0  0  0  2  0  0  0  0  0  0
  183.1790  178.4870  144.1520 O   0  0  0  0  0  1  0  0  0  0  0  0
  186.5750  179.0010  137.7890 O   0  0  0  0  0  0  0  0  0  0  0  0
  188.0350  177.6610  145.2900 C   0  0  0  0  0  0  0  0  0  0  0  0
  186.7670  178.1140  143.2600 C   0  0  0  0  0  0  0  0  0  0  0  0
  190.3520  176.9010  145.1080 N   0  0  0  0  0  0  0  0  0  0  0  0
  188.0020  177.8710  143.8950 C   0  0  0  0  0  0  0  0  0  0  0  0
  185.6390  177.9780  145.4110 C   0  0  0  0  0  3  0  0  0  0  0  0
  189.3430  177.4670  146.0030 C   0  0  0  0  0  2  0  0  0  0  0  0
  184.2910  178.5920  142.0040 C   0  0  0  0  0  0  0  0  0  0  0  0
  186.6950  178.3020  141.8750 C   0  0  0  0  0  3  0  0  0  0  0  0
  186.8590  177.7310  146.0390 C   0  0  0  0  0  3  0  0  0  0  0  0
  182.9660  178.6160  139.8690 C   0  0  0  0  0  2  0  0  0  0  0  0
  184.3480  178.4140  143.3960 C   0  0  0  0  0  0  0  0  0  0  0  0
  182.9760  178.9390  141.3580 C   0  0  0  0  0  2  0  0  0  0  0  0
  191.6070  176.9120  145.8370 C   0  0  0  0  0  1  0  0  0  0  0  0
  190.5150  177.8100  143.9770 C   0  0  0  0  0  2  0  0  0  0  0  0
  185.5780  178.1660  144.0250 C   0  0  0  0  0  0  0  0  0  0  0  0
  184.1780  179.2530  139.2080 C   0  0  0  0  0  2  0  0  0  0  0  0
  185.4730  178.5330  141.2310 C   0  0  0  0  0  0  0  0  0  0  0  0
  187.5150  177.3560  139.2210 C   0  0  0  0  0  2  0  0  0  0  0  0
  189.9840  177.6110  139.6120 C   0  0  0  0  0  1  0  0  0  0  0  0
  188.8780  177.6120  138.5630 C   0  0  1  0  0  3  0  0  0  0  0  0
  189.1780  176.6410  137.4130 C   0  0  0  0  0  3  0  0  0  0  0  0
  188.1080  175.5670  137.3190 C   0  0  0  0  0  1  0  0  0  0  0  0
  189.2310  177.3730  136.0820 C   0  0  0  0  0  1  0  0  0  0  0  0
  1 22  1  0  0  0  0
  2 23  1  0  0  0  0
  2  1  1  0  0  0  0
  3  9  1  0  0  0  0
  3 19  1  0  0  0  0
  5  2  2  0  0  0  0
  6 11  1  0  0  0  0
  6 14  1  0  0  0  0
  7  9  1  0  0  0  0
  7 20  1  0  0  0  0
  8 18  1  0  0  0  0
  8 11  1  0  0  0  0
  9  6  2  0  0  0  0
 10 14  2  0  0  0  0
 12 16  1  0  0  0  0
 13  7  2  0  0  0  0
 15 17  1  0  0  0  0
 16 20  2  0  0  0  0
 16  4  1  0  0  0  0
 17 12  1  0  0  0  0
 19  8  1  0  0  0  0
 20 10  1  0  0  0  0
 21  1  1  0  0  0  0
 21 15  1  0  0  0  0
 22 13  1  0  0  0  0
 22 12  2  0  0  0  0
 25 23  1  0  0  0  0
 25 24  1  1  0  0  0
 26 25  1  0  0  0  0
 27 26  1  0  0  0  0
 28 26  1  0  0  0  0
M  END
>  <MODEL>
8

>  <REMARK>
 VINA RESULT:      -8.8      2.247      5.508
  Name = 
  3 active torsions:
  status: ('A' for Active; 'I' for Inactive)
    1  A    between atoms: C_2  and  C_3
    2  A    between atoms: C_3  and  C_11
    3  A    between atoms: C_6  and  C_11
                            x       y       z     vdW  Elec       q    Type
                         _______ _______ _______ _____ _____    ______ ____

>  <TORSDO>
F 3

$$$$
=
 OpenBabel10272401553D

 28 31  0  0  1  0  0  0  0  0999 V2000
  188.7230  177.8480  140.4180 N   0  0  0  0  0  0  0  0  0  0  0  0
  189.9920  177.2620  140.7720 C   0  0  0  0  0  0  0  0  0  0  0  0
  188.4850  177.7630  145.5850 C   0  0  0  0  0  2  0  0  0  0  0  0
  184.0590  178.9970  141.3760 O   0  0  0  0  0  1  0  0  0  0  0  0
  191.0080  177.4900  140.0620 O   0  0  0  0  0  0  0  0  0  0  0  0
  186.0630  178.3740  145.9750 C   0  0  0  0  0  0  0  0  0  0  0  0
  186.8760  178.2520  143.6820 C   0  0  0  0  0  0  0  0  0  0  0  0
  187.4620  177.5140  147.7860 N   0  0  0  0  0  0  0  0  0  0  0  0
  187.1230  178.1640  145.0670 C   0  0  0  0  0  0  0  0  0  0  0  0
  184.5480  178.7970  144.1350 C   0  0  0  0  0  3  0  0  0  0  0  0
  186.3110  178.3540  147.4570 C   0  0  0  0  0  2  0  0  0  0  0  0
  186.3650  178.4240  140.9160 C   0  0  0  0  0  0  0  0  0  0  0  0
  187.8980  178.0250  142.7540 C   0  0  0  0  0  3  0  0  0  0  0  0
  184.7900  178.7040  145.5050 C   0  0  0  0  0  3  0  0  0  0  0  0
  187.1120  177.8640  138.5830 C   0  0  0  0  0  2  0  0  0  0  0  0
  185.3310  178.6630  141.8360 C   0  0  0  0  0  0  0  0  0  0  0  0
  186.1020  178.6110  139.4460 C   0  0  0  0  0  2  0  0  0  0  0  0
  187.7160  177.6950  149.2040 C   0  0  0  0  0  1  0  0  0  0  0  0
  188.6250  178.0420  147.0800 C   0  0  0  0  0  2  0  0  0  0  0  0
  185.5790  178.5700  143.2150 C   0  0  0  0  0  0  0  0  0  0  0  0
  188.5200  178.2350  139.0220 C   0  0  0  0  0  2  0  0  0  0  0  0
  187.6620  178.0980  141.3740 C   0  0  0  0  0  0  0  0  0  0  0  0
  190.1310  176.3100  141.9270 C   0  0  0  0  0  2  0  0  0  0  0  0
  191.4100  178.1930  142.9900 C   0  0  0  0  0  1  0  0  0  0  0  0
  191.2760  176.6790  142.8790 C   0  0  1  0  0  3  0  0  0  0  0  0
  191.1490  176.0130  144.2560 C   0  0  0  0  0  3  0  0  0  0  0  0
  191.9830  174.7450  144.3210 C   0  0  0  0  0  1  0  0  0  0  0  0
  191.6200  176.9460  145.3580 C   0  0  0  0  0  1  0  0  0  0  0  0
  1  2  1  0  0  0  0
  1 22  1  0  0  0  0
  2 23  1  0  0  0  0
  3 19  1  0  0  0  0
  4 16  1  0  0  0  0
  5  2  2  0  0  0  0
  6 11  1  0  0  0  0
  7  9  1  0  0  0  0
  8 18  1  0  0  0  0
  9  3  1  0  0  0  0
  9  6  2  0  0  0  0
 10 14  2  0  0  0  0
 11  8  1  0  0  0  0
 12 22  2  0  0  0  0
 12 16  1  0  0  0  0
 13  7  2  0  0  0  0
 14  6  1  0  0  0  0
 15 21  1  0  0  0  0
 15 17  1  0  0  0  0
 16 20  2  0  0  0  0
 17 12  1  0  0  0  0
 19  8  1  0  0  0  0
 20  7  1  0  0  0  0
 20 10  1  0  0  0  0
 21  1  1  0  0  0  0
 22 13  1  0  0  0  0
 23 25  1  0  0  0  0
 25 24  1  1  0  0  0
 25 26  1  0  0  0  0
 26 27  1  0  0  0  0
 26 28  1  0  0  0  0
M  END
>  <MODEL>
9

>  <REMARK>
 VINA RESULT:      -8.8      2.377      5.263
  Name = 
  3 active torsions:
  status: ('A' for Active; 'I' for Inactive)
    1  A    between atoms: C_2  and  C_3
    2  A    between atoms: C_3  and  C_11
    3  A    between atoms: C_6  and  C_11
                            x       y       z     vdW  Elec       q    Type
                         _______ _______ _______ _____ _____    ______ ____

>  <TORSDO>
F 3

$$$$
