=
 OpenBabel10272401513D

 28 32  0  0  1  0  0  0  0  0999 V2000
  182.6590  178.7830  141.1130 C   0  0  0  0  0  0  0  0  0  0  0  0
  183.5810  178.6100  139.9330 C   0  0  1  0  0  3  0  0  0  0  0  0
  185.4570  178.1670  141.5560 C   0  0  1  0  0  3  0  0  0  0  0  0
  186.9000  178.5090  145.6360 C   0  0  0  0  0  2  0  0  0  0  0  0
  179.9820  179.3000  144.3100 O   0  0  0  0  0  1  0  0  0  0  0  0
  185.0430  178.9040  140.2860 C   0  0  0  0  0  2  0  0  0  0  0  0
  188.7500  177.9480  143.4800 C   0  0  0  0  0  2  0  0  0  0  0  0
  184.9770  178.4100  144.0310 C   0  0  0  0  0  0  0  0  0  0  0  0
  189.0600  177.4030  145.8450 N   0  0  0  0  0  0  0  0  0  0  0  0
  186.3810  178.2030  144.3000 N   0  0  0  0  0  0  0  0  0  0  0  0
  186.8960  178.5090  141.9160 C   0  0  0  0  0  2  0  0  0  0  0  0
  189.2190  176.9040  144.4850 C   0  0  0  0  0  2  0  0  0  0  0  0
  182.2420  178.8850  143.5190 C   0  0  0  0  0  0  0  0  0  0  0  0
  184.5090  178.4620  142.6990 C   0  0  0  0  0  0  0  0  0  0  0  0
  187.2620  177.7720  143.1940 C   0  0  1  0  0  3  0  0  0  0  0  0
  180.4190  179.1880  141.9480 C   0  0  0  0  0  3  0  0  0  0  0  0
  182.7190  178.8320  144.8330 C   0  0  0  0  0  3  0  0  0  0  0  0
  180.8820  179.1240  143.2650 C   0  0  0  0  0  0  0  0  0  0  0  0
  189.7680  176.4760  146.7100 C   0  0  0  0  0  1  0  0  0  0  0  0
  187.6530  177.3170  146.2120 C   0  0  0  0  0  2  0  0  0  0  0  0
  184.0700  178.6030  145.0840 C   0  0  0  0  0  3  0  0  0  0  0  0
  181.3020  179.0200  140.8810 C   0  0  0  0  0  3  0  0  0  0  0  0
  183.1410  178.7000  142.4400 C   0  0  0  0  0  0  0  0  0  0  0  0
  184.1080  177.0110  138.0770 C   0  0  0  0  0  0  0  0  0  0  0  0
  182.6030  176.2680  139.9420 C   0  0  0  0  0  1  0  0  0  0  0  0
  183.4240  177.2950  139.3080 N   0  0  0  0  0  0  0  0  0  0  0  0
  183.9850  175.6800  137.4160 C   0  0  0  0  0  1  0  0  0  0  0  0
  184.8250  177.8940  137.5320 O   0  0  0  0  0  0  0  0  0  0  0  0
  1 23  1  0  0  0  0
  2 26  1  1  0  0  0
  2  6  1  0  0  0  0
  2  1  1  0  0  0  0
  3  6  1  6  0  0  0
  3 11  1  0  0  0  0
  3 14  1  0  0  0  0
  4 20  1  0  0  0  0
  7 12  1  0  0  0  0
  8 10  1  0  0  0  0
  8 21  1  0  0  0  0
  9 20  1  0  0  0  0
  9 19  1  0  0  0  0
 10  4  1  0  0  0  0
 12  9  1  0  0  0  0
 13 17  1  0  0  0  0
 14  8  2  0  0  0  0
 15 11  1  6  0  0  0
 15  7  1  0  0  0  0
 15 10  1  0  0  0  0
 16 18  2  0  0  0  0
 17 21  2  0  0  0  0
 18 13  1  0  0  0  0
 18  5  1  0  0  0  0
 22  1  2  0  0  0  0
 22 16  1  0  0  0  0
 23 14  1  0  0  0  0
 23 13  2  0  0  0  0
 24 26  1  0  0  0  0
 26 25  1  0  0  0  0
 27 24  1  0  0  0  0
 28 24  2  0  0  0  0
M  END
>  <MODEL>
1

>  <REMARK>
 VINA RESULT:      -8.4      0.000      0.000
  Name = 
  1 active torsions:
  status: ('A' for Active; 'I' for Inactive)
    1  A    between atoms: C_2  and  N_11
                            x       y       z     vdW  Elec       q    Type
                         _______ _______ _______ _____ _____    ______ ____

>  <TORSDO>
F 1

$$$$
=
 OpenBabel10272401513D

 28 32  0  0  1  0  0  0  0  0999 V2000
  190.0050  177.5590  138.2130 C   0  0  0  0  0  0  0  0  0  0  0  0
  191.4590  177.1690  138.3000 C   0  0  1  0  0  3  0  0  0  0  0  0
  191.2190  177.1100  140.8070 C   0  0  1  0  0  3  0  0  0  0  0  0
  188.8960  178.3120  144.2730 C   0  0  0  0  0  2  0  0  0  0  0  0
  185.9690  178.6580  137.8270 O   0  0  0  0  0  1  0  0  0  0  0  0
  192.0900  177.5620  139.6400 C   0  0  0  0  0  2  0  0  0  0  0  0
  191.6130  177.3640  144.5990 C   0  0  0  0  0  2  0  0  0  0  0  0
  189.0120  177.8440  141.8130 C   0  0  0  0  0  0  0  0  0  0  0  0
  189.8420  177.3210  146.2870 N   0  0  0  0  0  0  0  0  0  0  0  0
  189.6000  177.7280  143.1280 N   0  0  0  0  0  0  0  0  0  0  0  0
  191.8380  177.5510  142.1260 C   0  0  0  0  0  2  0  0  0  0  0  0
  190.9360  176.5590  145.7010 C   0  0  0  0  0  2  0  0  0  0  0  0
  187.8700  178.1410  139.2490 C   0  0  0  0  0  0  0  0  0  0  0  0
  189.7970  177.6110  140.6620 C   0  0  0  0  0  0  0  0  0  0  0  0
  190.9310  177.0990  143.2600 C   0  0  1  0  0  3  0  0  0  0  0  0
  188.0800  178.0760  136.8330 C   0  0  0  0  0  3  0  0  0  0  0  0
  187.1050  178.3700  140.3970 C   0  0  0  0  0  3  0  0  0  0  0  0
  187.3020  178.2930  137.9740 C   0  0  0  0  0  0  0  0  0  0  0  0
  189.4360  176.6070  147.4840 C   0  0  0  0  0  1  0  0  0  0  0  0
  188.7050  177.2810  145.3770 C   0  0  0  0  0  2  0  0  0  0  0  0
  187.6710  178.2270  141.6630 C   0  0  0  0  0  3  0  0  0  0  0  0
  189.4220  177.7130  136.9530 C   0  0  0  0  0  3  0  0  0  0  0  0
  189.2280  177.7600  139.3770 C   0  0  0  0  0  0  0  0  0  0  0  0
  192.9860  175.2680  137.7220 C   0  0  0  0  0  0  0  0  0  0  0  0
  190.5320  174.8260  137.9980 C   0  0  0  0  0  1  0  0  0  0  0  0
  191.6610  175.7500  137.9970 N   0  0  0  0  0  0  0  0  0  0  0  0
  193.2360  173.8290  137.4230 C   0  0  0  0  0  1  0  0  0  0  0  0
  193.9650  176.0640  137.7290 O   0  0  0  0  0  0  0  0  0  0  0  0
  1  2  1  0  0  0  0
  1 23  1  0  0  0  0
  2 26  1  1  0  0  0
  2  6  1  0  0  0  0
  3  6  1  6  0  0  0
  3 11  1  0  0  0  0
  4 20  1  0  0  0  0
  5 18  1  0  0  0  0
  7 12  1  0  0  0  0
  8 10  1  0  0  0  0
  9 19  1  0  0  0  0
 10 15  1  0  0  0  0
 10  4  1  0  0  0  0
 12  9  1  0  0  0  0
 13 23  2  0  0  0  0
 13 17  1  0  0  0  0
 14  3  1  0  0  0  0
 14  8  2  0  0  0  0
 15 11  1  6  0  0  0
 15  7  1  0  0  0  0
 16 22  1  0  0  0  0
 16 18  2  0  0  0  0
 17 21  2  0  0  0  0
 18 13  1  0  0  0  0
 20  9  1  0  0  0  0
 21  8  1  0  0  0  0
 22  1  2  0  0  0  0
 23 14  1  0  0  0  0
 24 28  2  0  0  0  0
 24 26  1  0  0  0  0
 26 25  1  0  0  0  0
 27 24  1  0  0  0  0
M  END
>  <MODEL>
2

>  <REMARK>
 VINA RESULT:      -8.0      4.488      6.612
  Name = 
  1 active torsions:
  status: ('A' for Active; 'I' for Inactive)
    1  A    between atoms: C_2  and  N_11
                            x       y       z     vdW  Elec       q    Type
                         _______ _______ _______ _____ _____    ______ ____

>  <TORSDO>
F 1

$$$$
=
 OpenBabel10272401513D

 28 32  0  0  1  0  0  0  0  0999 V2000
  182.7620  178.8160  141.3790 C   0  0  0  0  0  0  0  0  0  0  0  0
  182.3900  178.8380  139.9170 C   0  0  1  0  0  3  0  0  0  0  0  0
  184.8100  178.3950  139.3710 C   0  0  1  0  0  3  0  0  0  0  0  0
  188.9250  178.4500  140.7520 C   0  0  0  0  0  2  0  0  0  0  0  0
  183.6580  178.7890  145.4830 O   0  0  0  0  0  1  0  0  0  0  0  0
  183.5740  179.2160  139.0200 C   0  0  0  0  0  2  0  0  0  0  0  0
  188.3420  178.2610  137.9220 C   0  0  0  0  0  2  0  0  0  0  0  0
  186.4770  178.3510  141.2780 C   0  0  0  0  0  0  0  0  0  0  0  0
  190.3850  177.5120  139.0430 N   0  0  0  0  0  0  0  0  0  0  0  0
  187.5440  178.2360  140.3110 N   0  0  0  0  0  0  0  0  0  0  0  0
  185.9850  178.8170  138.5020 C   0  0  0  0  0  2  0  0  0  0  0  0
  189.3950  177.1660  138.0310 C   0  0  0  0  0  2  0  0  0  0  0  0
  184.4080  178.6440  143.1760 C   0  0  0  0  0  0  0  0  0  0  0  0
  185.1390  178.4950  140.8450 C   0  0  0  0  0  0  0  0  0  0  0  0
  187.1990  177.9910  138.8960 C   0  0  1  0  0  3  0  0  0  0  0  0
  182.0580  178.9490  143.6950 C   0  0  0  0  0  3  0  0  0  0  0  0
  185.7360  178.5020  143.5910 C   0  0  0  0  0  3  0  0  0  0  0  0
  183.3800  178.7930  144.1210 C   0  0  0  0  0  0  0  0  0  0  0  0
  191.4760  176.5670  138.8930 C   0  0  0  0  0  1  0  0  0  0  0  0
  189.8090  177.2740  140.3590 C   0  0  0  0  0  2  0  0  0  0  0  0
  186.7570  178.3620  142.6530 C   0  0  0  0  0  3  0  0  0  0  0  0
  181.7530  178.9610  142.3330 C   0  0  0  0  0  3  0  0  0  0  0  0
  184.1020  178.6420  141.7930 C   0  0  0  0  0  0  0  0  0  0  0  0
  180.6380  177.6180  138.6060 C   0  0  0  0  0  0  0  0  0  0  0  0
  182.2970  176.3020  139.9520 C   0  0  0  0  0  1  0  0  0  0  0  0
  181.7650  177.5820  139.4960 N   0  0  0  0  0  0  0  0  0  0  0  0
  179.9820  176.3610  138.1430 C   0  0  0  0  0  1  0  0  0  0  0  0
  180.1820  178.7220  138.2040 O   0  0  0  0  0  0  0  0  0  0  0  0
  1 23  2  0  0  0  0
  1 22  1  0  0  0  0
  2 26  1  6  0  0  0
  2  1  1  0  0  0  0
  3 11  1  6  0  0  0
  3 14  1  0  0  0  0
  6  3  1  0  0  0  0
  6  2  1  0  0  0  0
  7 12  1  0  0  0  0
  8 21  1  0  0  0  0
  9 20  1  0  0  0  0
 10  4  1  0  0  0  0
 10  8  1  0  0  0  0
 11 15  1  0  0  0  0
 12  9  1  0  0  0  0
 13 17  1  0  0  0  0
 13 18  2  0  0  0  0
 14  8  2  0  0  0  0
 14 23  1  0  0  0  0
 15  7  1  6  0  0  0
 15 10  1  0  0  0  0
 16 18  1  0  0  0  0
 18  5  1  0  0  0  0
 19  9  1  0  0  0  0
 20  4  1  0  0  0  0
 21 17  2  0  0  0  0
 22 16  2  0  0  0  0
 23 13  1  0  0  0  0
 24 26  1  0  0  0  0
 26 25  1  0  0  0  0
 27 24  1  0  0  0  0
 28 24  2  0  0  0  0
M  END
>  <MODEL>
3

>  <REMARK>
 VINA RESULT:      -7.9      2.859      3.966
  Name = 
  1 active torsions:
  status: ('A' for Active; 'I' for Inactive)
    1  A    between atoms: C_2  and  N_11
                            x       y       z     vdW  Elec       q    Type
                         _______ _______ _______ _____ _____    ______ ____

>  <TORSDO>
F 1

$$$$
=
 OpenBabel10272401513D

 28 32  0  0  1  0  0  0  0  0999 V2000
  190.3970  176.5450  136.1910 C   0  0  0  0  0  0  0  0  0  0  0  0
  191.7310  176.0190  136.6570 C   0  0  1  0  0  3  0  0  0  0  0  0
  190.9770  176.4210  139.0280 C   0  0  1  0  0  3  0  0  0  0  0  0
  188.1950  178.4510  141.6710 C   0  0  0  0  0  2  0  0  0  0  0  0
  186.7260  177.9960  134.7520 O   0  0  0  0  0  1  0  0  0  0  0  0
  192.1250  176.5660  138.0340 C   0  0  0  0  0  2  0  0  0  0  0  0
  190.6210  177.2810  142.7340 C   0  0  0  0  0  2  0  0  0  0  0  0
  188.7410  177.5540  139.3950 C   0  0  0  0  0  0  0  0  0  0  0  0
  188.5560  177.7250  143.9680 N   0  0  0  0  0  0  0  0  0  0  0  0
  189.0250  177.6030  140.8110 N   0  0  0  0  0  0  0  0  0  0  0  0
  191.3710  177.0120  140.3740 C   0  0  0  0  0  2  0  0  0  0  0  0
  189.6250  176.7580  143.7600 C   0  0  0  0  0  2  0  0  0  0  0  0
  188.2020  177.5280  136.6250 C   0  0  0  0  0  0  0  0  0  0  0  0
  189.7030  177.0420  138.4960 C   0  0  0  0  0  0  0  0  0  0  0  0
  190.1960  176.8660  141.3280 C   0  0  1  0  0  3  0  0  0  0  0  0
  188.8890  177.0240  134.3530 C   0  0  0  0  0  3  0  0  0  0  0  0
  187.2600  178.0340  137.5250 C   0  0  0  0  0  3  0  0  0  0  0  0
  187.9350  177.5180  135.2460 C   0  0  0  0  0  0  0  0  0  0  0  0
  187.8160  177.2770  145.1330 C   0  0  0  0  0  1  0  0  0  0  0  0
  187.6350  177.6530  142.8410 C   0  0  0  0  0  2  0  0  0  0  0  0
  187.5290  178.0510  138.8930 C   0  0  0  0  0  3  0  0  0  0  0  0
  190.1120  176.5420  134.8230 C   0  0  0  0  0  3  0  0  0  0  0  0
  189.4360  177.0280  137.1080 C   0  0  0  0  0  0  0  0  0  0  0  0
  193.0090  173.9030  136.2510 C   0  0  0  0  0  0  0  0  0  0  0  0
  190.6090  173.7640  136.9690 C   0  0  0  0  0  1  0  0  0  0  0  0
  191.7830  174.5560  136.6160 N   0  0  0  0  0  0  0  0  0  0  0  0
  193.1080  172.4150  136.2100 C   0  0  0  0  0  1  0  0  0  0  0  0
  194.0270  174.5850  135.9540 O   0  0  0  0  0  0  0  0  0  0  0  0
  1  2  1  0  0  0  0
  1 23  1  0  0  0  0
  2 26  1  1  0  0  0
  2  6  1  0  0  0  0
  3  6  1  6  0  0  0
  3 11  1  0  0  0  0
  4 20  1  0  0  0  0
  5 18  1  0  0  0  0
  7 12  1  0  0  0  0
  8 10  1  0  0  0  0
  9 19  1  0  0  0  0
 10 15  1  0  0  0  0
 10  4  1  0  0  0  0
 12  9  1  0  0  0  0
 13 23  2  0  0  0  0
 13 17  1  0  0  0  0
 14  3  1  0  0  0  0
 14  8  2  0  0  0  0
 15 11  1  6  0  0  0
 15  7  1  0  0  0  0
 16 22  1  0  0  0  0
 16 18  2  0  0  0  0
 17 21  2  0  0  0  0
 18 13  1  0  0  0  0
 20  9  1  0  0  0  0
 21  8  1  0  0  0  0
 22  1  2  0  0  0  0
 23 14  1  0  0  0  0
 24 26  1  0  0  0  0
 26 25  1  0  0  0  0
 27 24  1  0  0  0  0
 28 24  2  0  0  0  0
M  END
>  <MODEL>
4

>  <REMARK>
 VINA RESULT:      -7.9      5.526      7.789
  Name = 
  1 active torsions:
  status: ('A' for Active; 'I' for Inactive)
    1  A    between atoms: C_2  and  N_11
                            x       y       z     vdW  Elec       q    Type
                         _______ _______ _______ _____ _____    ______ ____

>  <TORSDO>
F 1

$$$$
=
 OpenBabel10272401513D

 28 32  0  0  1  0  0  0  0  0999 V2000
  186.4760  178.7140  141.1620 C   0  0  0  0  0  0  0  0  0  0  0  0
  187.7040  178.8400  140.2960 C   0  0  1  0  0  3  0  0  0  0  0  0
  189.0850  178.1110  142.2740 C   0  0  1  0  0  3  0  0  0  0  0  0
  189.2880  177.5850  146.5780 C   0  0  0  0  0  2  0  0  0  0  0  0
  182.9750  178.4130  143.4650 O   0  0  0  0  0  1  0  0  0  0  0  0
  188.9730  179.0970  141.1160 C   0  0  0  0  0  2  0  0  0  0  0  0
  191.7130  177.5820  144.9950 C   0  0  0  0  0  2  0  0  0  0  0  0
  187.9100  177.7800  144.4940 C   0  0  0  0  0  0  0  0  0  0  0  0
  191.4010  176.5350  147.1850 N   0  0  0  0  0  0  0  0  0  0  0  0
  189.1970  177.5670  145.1160 N   0  0  0  0  0  0  0  0  0  0  0  0
  190.3250  178.4130  143.1030 C   0  0  0  0  0  2  0  0  0  0  0  0
  191.9820  176.3570  145.8610 C   0  0  0  0  0  2  0  0  0  0  0  0
  185.3950  178.2630  143.3070 C   0  0  0  0  0  0  0  0  0  0  0  0
  187.8310  178.1110  143.1220 C   0  0  0  0  0  0  0  0  0  0  0  0
  190.3890  177.4230  144.2550 C   0  0  1  0  0  3  0  0  0  0  0  0
  184.0640  178.8460  141.3650 C   0  0  0  0  0  3  0  0  0  0  0  0
  185.4880  177.9360  144.6630 C   0  0  0  0  0  3  0  0  0  0  0  0
  184.1440  178.5060  142.7180 C   0  0  0  0  0  0  0  0  0  0  0  0
  191.9250  175.4640  148.0120 C   0  0  0  0  0  1  0  0  0  0  0  0
  189.9620  176.3220  147.0960 C   0  0  0  0  0  2  0  0  0  0  0  0
  186.7310  177.7030  145.2500 C   0  0  0  0  0  3  0  0  0  0  0  0
  185.2220  178.9500  140.5940 C   0  0  0  0  0  3  0  0  0  0  0  0
  186.5730  178.3540  142.5260 C   0  0  0  0  0  0  0  0  0  0  0  0
  187.2370  177.7190  138.1040 C   0  0  0  0  0  0  0  0  0  0  0  0
  188.6550  176.5380  139.8050 C   0  0  0  0  0  1  0  0  0  0  0  0
  187.8580  177.6920  139.3990 N   0  0  0  0  0  0  0  0  0  0  0  0
  187.3810  176.5770  137.1560 C   0  0  0  0  0  1  0  0  0  0  0  0
  186.5550  178.7180  137.7480 O   0  0  0  0  0  0  0  0  0  0  0  0
  1 23  1  0  0  0  0
  2 26  1  1  0  0  0
  2  6  1  0  0  0  0
  2  1  1  0  0  0  0
  3  6  1  6  0  0  0
  3 11  1  0  0  0  0
  3 14  1  0  0  0  0
  4 20  1  0  0  0  0
  7 12  1  0  0  0  0
  8 10  1  0  0  0  0
  8 21  1  0  0  0  0
  9 19  1  0  0  0  0
 10  4  1  0  0  0  0
 12  9  1  0  0  0  0
 13 17  1  0  0  0  0
 14  8  2  0  0  0  0
 15 11  1  6  0  0  0
 15  7  1  0  0  0  0
 15 10  1  0  0  0  0
 16 18  2  0  0  0  0
 17 21  2  0  0  0  0
 18 13  1  0  0  0  0
 18  5  1  0  0  0  0
 20  9  1  0  0  0  0
 22  1  2  0  0  0  0
 22 16  1  0  0  0  0
 23 14  1  0  0  0  0
 23 13  2  0  0  0  0
 24 26  1  0  0  0  0
 26 25  1  0  0  0  0
 27 24  1  0  0  0  0
 28 24  2  0  0  0  0
M  END
>  <MODEL>
5

>  <REMARK>
 VINA RESULT:      -7.8      2.222      3.479
  Name = 
  1 active torsions:
  status: ('A' for Active; 'I' for Inactive)
    1  A    between atoms: C_2  and  N_11
                            x       y       z     vdW  Elec       q    Type
                         _______ _______ _______ _____ _____    ______ ____

>  <TORSDO>
F 1

$$$$
=
 OpenBabel10272401513D

 28 32  0  0  1  0  0  0  0  0999 V2000
  188.0800  177.7970  138.1720 C   0  0  0  0  0  0  0  0  0  0  0  0
  189.4690  177.3550  137.7860 C   0  0  1  0  0  3  0  0  0  0  0  0
  190.0280  177.2170  140.2390 C   0  0  1  0  0  3  0  0  0  0  0  0
  188.9710  178.3770  144.2870 C   0  0  0  0  0  2  0  0  0  0  0  0
  184.1790  179.0470  139.1070 O   0  0  0  0  0  1  0  0  0  0  0  0
  190.5060  177.6790  138.8660 C   0  0  0  0  0  2  0  0  0  0  0  0
  191.6080  177.3240  143.7160 C   0  0  0  0  0  2  0  0  0  0  0  0
  188.2850  177.9900  141.9070 C   0  0  0  0  0  0  0  0  0  0  0  0
  190.4590  177.2840  145.8760 N   0  0  0  0  0  0  0  0  0  0  0  0
  189.2520  177.8080  142.9650 N   0  0  0  0  0  0  0  0  0  0  0  0
  191.0500  177.5900  141.3040 C   0  0  0  0  0  2  0  0  0  0  0  0
  191.2790  176.5060  144.9570 C   0  0  0  0  0  2  0  0  0  0  0  0
  186.4080  178.4160  139.8430 C   0  0  0  0  0  0  0  0  0  0  0  0
  188.6570  177.7710  140.5610 C   0  0  0  0  0  0  0  0  0  0  0  0
  190.5270  177.1310  142.6560 C   0  0  1  0  0  3  0  0  0  0  0  0
  185.8420  178.4280  137.4840 C   0  0  0  0  0  3  0  0  0  0  0  0
  186.0540  178.6310  141.1790 C   0  0  0  0  0  3  0  0  0  0  0  0
  185.4740  178.6310  138.8160 C   0  0  0  0  0  0  0  0  0  0  0  0
  190.4200  176.5440  147.1230 C   0  0  0  0  0  1  0  0  0  0  0  0
  189.0920  177.3150  145.3710 C   0  0  0  0  0  2  0  0  0  0  0  0
  186.9830  178.4250  142.1970 C   0  0  0  0  0  3  0  0  0  0  0  0
  187.1370  178.0150  137.1650 C   0  0  0  0  0  3  0  0  0  0  0  0
  187.7190  177.9840  139.5260 C   0  0  0  0  0  0  0  0  0  0  0  0
  190.6690  175.4140  136.7510 C   0  0  0  0  0  0  0  0  0  0  0  0
  188.3740  175.0670  137.7040 C   0  0  0  0  0  1  0  0  0  0  0  0
  189.5030  175.9410  137.4030 N   0  0  0  0  0  0  0  0  0  0  0  0
  190.7480  173.9780  136.3570 C   0  0  0  0  0  1  0  0  0  0  0  0
  191.6480  176.1660  136.4970 O   0  0  0  0  0  0  0  0  0  0  0  0
  1 23  1  0  0  0  0
  2 26  1  1  0  0  0
  2  1  1  0  0  0  0
  2  6  1  0  0  0  0
  3  6  1  6  0  0  0
  3 14  1  0  0  0  0
  3 11  1  0  0  0  0
  4 20  1  0  0  0  0
  7 12  1  0  0  0  0
  8 21  1  0  0  0  0
  8 10  1  0  0  0  0
  9 19  1  0  0  0  0
 10  4  1  0  0  0  0
 12  9  1  0  0  0  0
 13 17  1  0  0  0  0
 14  8  2  0  0  0  0
 15 11  1  6  0  0  0
 15 10  1  0  0  0  0
 15  7  1  0  0  0  0
 16 18  2  0  0  0  0
 17 21  2  0  0  0  0
 18  5  1  0  0  0  0
 18 13  1  0  0  0  0
 20  9  1  0  0  0  0
 22 16  1  0  0  0  0
 22  1  2  0  0  0  0
 23 13  2  0  0  0  0
 23 14  1  0  0  0  0
 24 26  1  0  0  0  0
 26 25  1  0  0  0  0
 27 24  1  0  0  0  0
 28 24  2  0  0  0  0
M  END
>  <MODEL>
6

>  <REMARK>
 VINA RESULT:      -7.4      3.598      5.197
  Name = 
  1 active torsions:
  status: ('A' for Active; 'I' for Inactive)
    1  A    between atoms: C_2  and  N_11
                            x       y       z     vdW  Elec       q    Type
                         _______ _______ _______ _____ _____    ______ ____

>  <TORSDO>
F 1

$$$$
=
 OpenBabel10272401513D

 28 32  0  0  1  0  0  0  0  0999 V2000
  186.5970  177.6950  145.1380 C   0  0  0  0  0  0  0  0  0  0  0  0
  187.8400  176.9010  145.4520 C   0  0  1  0  0  3  0  0  0  0  0  0
  188.4930  177.1010  143.0270 C   0  0  1  0  0  3  0  0  0  0  0  0
  187.2100  177.9510  138.9670 C   0  0  0  0  0  2  0  0  0  0  0  0
  183.0910  179.8900  144.4000 O   0  0  0  0  0  1  0  0  0  0  0  0
  188.3880  176.1640  144.2260 C   0  0  0  0  0  2  0  0  0  0  0  0
  189.7360  176.6170  139.4470 C   0  0  0  0  0  2  0  0  0  0  0  0
  186.8580  178.2020  141.4360 C   0  0  0  0  0  0  0  0  0  0  0  0
  189.1320  177.9260  137.4700 N   0  0  0  0  0  0  0  0  0  0  0  0
  187.7240  177.8450  140.3360 N   0  0  0  0  0  0  0  0  0  0  0  0
  188.9930  176.3400  141.8080 C   0  0  0  0  0  2  0  0  0  0  0  0
  190.1940  177.6530  138.4300 C   0  0  0  0  0  2  0  0  0  0  0  0
  185.1230  178.8480  143.5670 C   0  0  0  0  0  0  0  0  0  0  0  0
  187.1770  177.7960  142.7510 C   0  0  0  0  0  0  0  0  0  0  0  0
  189.0660  177.3030  140.6330 C   0  0  1  0  0  3  0  0  0  0  0  0
  184.5630  178.7550  145.9250 C   0  0  0  0  0  3  0  0  0  0  0  0
  184.8180  179.2420  142.2600 C   0  0  0  0  0  3  0  0  0  0  0  0
  184.2570  179.1660  144.6260 C   0  0  0  0  0  0  0  0  0  0  0  0
  189.7320  178.7030  136.4010 C   0  0  0  0  0  1  0  0  0  0  0  0
  188.1420  178.7890  138.1020 C   0  0  0  0  0  2  0  0  0  0  0  0
  185.6730  178.9180  141.2080 C   0  0  0  0  0  3  0  0  0  0  0  0
  185.7250  178.0230  146.1780 C   0  0  0  0  0  3  0  0  0  0  0  0
  186.3090  178.1170  143.8200 C   0  0  0  0  0  0  0  0  0  0  0  0
  188.9990  177.6990  147.5250 C   0  0  0  0  0  0  0  0  0  0  0  0
  189.7610  178.5520  145.2920 C   0  0  0  0  0  1  0  0  0  0  0  0
  188.8650  177.7270  146.0950 N   0  0  0  0  0  0  0  0  0  0  0  0
  190.0390  178.5140  148.2180 C   0  0  0  0  0  1  0  0  0  0  0  0
  188.2320  176.9800  148.2210 O   0  0  0  0  0  0  0  0  0  0  0  0
  1  2  1  0  0  0  0
  1 22  1  0  0  0  0
  2 26  1  6  0  0  0
  3 11  1  6  0  0  0
  3  6  1  0  0  0  0
  4 10  1  0  0  0  0
  5 18  1  0  0  0  0
  6  2  1  0  0  0  0
  8 14  2  0  0  0  0
  9 20  1  0  0  0  0
  9 12  1  0  0  0  0
 10 15  1  0  0  0  0
 10  8  1  0  0  0  0
 12  7  1  0  0  0  0
 13 23  1  0  0  0  0
 13 18  2  0  0  0  0
 14  3  1  0  0  0  0
 14 23  1  0  0  0  0
 15  7  1  6  0  0  0
 15 11  1  0  0  0  0
 16 22  2  0  0  0  0
 17 13  1  0  0  0  0
 18 16  1  0  0  0  0
 19  9  1  0  0  0  0
 20  4  1  0  0  0  0
 21  8  1  0  0  0  0
 21 17  2  0  0  0  0
 23  1  2  0  0  0  0
 24 27  1  0  0  0  0
 24 28  2  0  0  0  0
 25 26  1  0  0  0  0
 26 24  1  0  0  0  0
M  END
>  <MODEL>
7

>  <REMARK>
 VINA RESULT:      -7.4      3.224      6.695
  Name = 
  1 active torsions:
  status: ('A' for Active; 'I' for Inactive)
    1  A    between atoms: C_2  and  N_11
                            x       y       z     vdW  Elec       q    Type
                         _______ _______ _______ _____ _____    ______ ____

>  <TORSDO>
F 1

$$$$
=
 OpenBabel10272401513D

 28 32  0  0  1  0  0  0  0  0999 V2000
  189.0960  177.1330  145.4810 C   0  0  0  0  0  0  0  0  0  0  0  0
  189.4180  176.6450  144.0910 C   0  0  1  0  0  3  0  0  0  0  0  0
  187.1190  177.3860  143.3770 C   0  0  1  0  0  3  0  0  0  0  0  0
  183.1080  178.5090  144.6040 C   0  0  0  0  0  2  0  0  0  0  0  0
  188.3280  178.4420  149.3990 O   0  0  0  0  0  1  0  0  0  0  0  0
  188.1610  176.2760  143.2960 C   0  0  0  0  0  2  0  0  0  0  0  0
  183.6440  177.8090  141.8450 C   0  0  0  0  0  2  0  0  0  0  0  0
  185.5420  178.2680  145.1530 C   0  0  0  0  0  0  0  0  0  0  0  0
  181.8160  179.2150  142.6630 N   0  0  0  0  0  0  0  0  0  0  0  0
  184.4930  178.3230  144.1610 N   0  0  0  0  0  0  0  0  0  0  0  0
  185.8610  176.9820  142.6210 C   0  0  0  0  0  2  0  0  0  0  0  0
  182.8280  179.0760  141.6240 C   0  0  0  0  0  2  0  0  0  0  0  0
  187.5620  178.1020  147.1170 C   0  0  0  0  0  0  0  0  0  0  0  0
  186.8140  177.7550  144.8130 C   0  0  0  0  0  0  0  0  0  0  0  0
  184.8420  178.1040  142.7420 C   0  0  1  0  0  3  0  0  0  0  0  0
  189.8190  177.4970  147.7660 C   0  0  0  0  0  3  0  0  0  0  0  0
  186.2980  178.6060  147.4410 C   0  0  0  0  0  3  0  0  0  0  0  0
  188.5650  178.0160  148.0960 C   0  0  0  0  0  0  0  0  0  0  0  0
  180.9270  180.2780  142.2330 C   0  0  0  0  0  1  0  0  0  0  0  0
  182.4610  179.6830  143.8830 C   0  0  0  0  0  2  0  0  0  0  0  0
  185.3000  178.6830  146.4710 C   0  0  0  0  0  3  0  0  0  0  0  0
  190.0820  177.0580  146.4680 C   0  0  0  0  0  3  0  0  0  0  0  0
  187.8260  177.6700  145.7950 C   0  0  0  0  0  0  0  0  0  0  0  0
  190.8960  177.1830  142.1410 C   0  0  0  0  0  0  0  0  0  0  0  0
  190.4480  178.9540  143.8610 C   0  0  0  0  0  1  0  0  0  0  0  0
  190.2650  177.5940  143.3640 N   0  0  0  0  0  0  0  0  0  0  0  0
  191.7550  178.1230  141.3630 C   0  0  0  0  0  1  0  0  0  0  0  0
  190.7330  176.0120  141.7050 O   0  0  0  0  0  0  0  0  0  0  0  0
  1 23  2  0  0  0  0
  1 22  1  0  0  0  0
  2 26  1  6  0  0  0
  2  1  1  0  0  0  0
  3 11  1  1  0  0  0
  3 14  1  0  0  0  0
  6  3  1  0  0  0  0
  6  2  1  0  0  0  0
  8 21  1  0  0  0  0
  9 20  1  0  0  0  0
 10  4  1  0  0  0  0
 10  8  1  0  0  0  0
 11 15  1  0  0  0  0
 12  7  1  0  0  0  0
 12  9  1  0  0  0  0
 13 17  1  0  0  0  0
 13 18  2  0  0  0  0
 14  8  2  0  0  0  0
 14 23  1  0  0  0  0
 15  7  1  6  0  0  0
 15 10  1  0  0  0  0
 16 18  1  0  0  0  0
 18  5  1  0  0  0  0
 19  9  1  0  0  0  0
 20  4  1  0  0  0  0
 21 17  2  0  0  0  0
 22 16  2  0  0  0  0
 23 13  1  0  0  0  0
 24 26  1  0  0  0  0
 26 25  1  0  0  0  0
 27 24  1  0  0  0  0
 28 24  2  0  0  0  0
M  END
>  <MODEL>
8

>  <REMARK>
 VINA RESULT:      -7.3      3.042      6.957
  Name = 
  1 active torsions:
  status: ('A' for Active; 'I' for Inactive)
    1  A    between atoms: C_2  and  N_11
                            x       y       z     vdW  Elec       q    Type
                         _______ _______ _______ _____ _____    ______ ____

>  <TORSDO>
F 1

$$$$
=
 OpenBabel10272401513D

 28 32  0  0  1  0  0  0  0  0999 V2000
  185.6210  178.7580  144.3560 C   0  0  0  0  0  0  0  0  0  0  0  0
  184.8000  179.4410  143.2920 C   0  0  1  0  0  3  0  0  0  0  0  0
  186.5140  178.7050  141.5990 C   0  0  1  0  0  3  0  0  0  0  0  0
  190.5450  177.2580  140.8890 C   0  0  0  0  0  2  0  0  0  0  0  0
  187.8160  176.9040  147.4210 O   0  0  0  0  0  1  0  0  0  0  0  0
  185.6420  179.8590  142.0820 C   0  0  0  0  0  2  0  0  0  0  0  0
  188.9830  178.3430  138.7060 C   0  0  0  0  0  2  0  0  0  0  0  0
  188.5930  177.5260  142.4380 C   0  0  0  0  0  0  0  0  0  0  0  0
  190.8420  176.7630  138.5230 N   0  0  0  0  0  0  0  0  0  0  0  0
  189.1260  177.5600  141.0960 N   0  0  0  0  0  0  0  0  0  0  0  0
  187.3770  179.1530  140.4280 C   0  0  0  0  0  2  0  0  0  0  0  0
  189.5090  177.0830  138.0300 C   0  0  0  0  0  2  0  0  0  0  0  0
  187.5960  177.5140  145.0790 C   0  0  0  0  0  0  0  0  0  0  0  0
  187.3500  178.1340  142.7240 C   0  0  0  0  0  0  0  0  0  0  0  0
  188.2430  177.9820  139.9900 C   0  0  1  0  0  3  0  0  0  0  0  0
  185.8790  178.1220  146.6810 C   0  0  0  0  0  3  0  0  0  0  0  0
  188.8260  176.9170  144.7830 C   0  0  0  0  0  3  0  0  0  0  0  0
  187.1020  177.5100  146.3940 C   0  0  0  0  0  0  0  0  0  0  0  0
  191.3680  175.7300  137.6490 C   0  0  0  0  0  1  0  0  0  0  0  0
  190.7200  176.1630  139.8450 C   0  0  0  0  0  2  0  0  0  0  0  0
  189.3190  176.9280  143.4790 C   0  0  0  0  0  3  0  0  0  0  0  0
  185.1450  178.7420  145.6690 C   0  0  0  0  0  3  0  0  0  0  0  0
  186.8490  178.1300  144.0450 C   0  0  0  0  0  0  0  0  0  0  0  0
  182.3860  178.8280  143.5690 C   0  0  0  0  0  0  0  0  0  0  0  0
  183.7510  177.6630  141.8150 C   0  0  0  0  0  1  0  0  0  0  0  0
  183.6410  178.6360  142.8980 N   0  0  0  0  0  0  0  0  0  0  0  0
  181.1800  178.0380  143.1880 C   0  0  0  0  0  1  0  0  0  0  0  0
  182.2870  179.6730  144.4990 O   0  0  0  0  0  0  0  0  0  0  0  0
  1 22  1  0  0  0  0
  2 26  1  6  0  0  0
  2  1  1  0  0  0  0
  3 11  1  6  0  0  0
  3  6  1  0  0  0  0
  3 14  1  0  0  0  0
  4 10  1  0  0  0  0
  6  2  1  0  0  0  0
  8 14  2  0  0  0  0
  8 21  1  0  0  0  0
  9 20  1  0  0  0  0
 10  8  1  0  0  0  0
 12  9  1  0  0  0  0
 12  7  1  0  0  0  0
 13 18  2  0  0  0  0
 14 23  1  0  0  0  0
 15  7  1  6  0  0  0
 15 11  1  0  0  0  0
 15 10  1  0  0  0  0
 17 13  1  0  0  0  0
 18 16  1  0  0  0  0
 18  5  1  0  0  0  0
 19  9  1  0  0  0  0
 20  4  1  0  0  0  0
 21 17  2  0  0  0  0
 22 16  2  0  0  0  0
 23  1  2  0  0  0  0
 23 13  1  0  0  0  0
 24 28  2  0  0  0  0
 25 26  1  0  0  0  0
 26 24  1  0  0  0  0
 27 24  1  0  0  0  0
M  END
>  <MODEL>
9

>  <REMARK>
 VINA RESULT:      -7.1      3.313      5.659
  Name = 
  1 active torsions:
  status: ('A' for Active; 'I' for Inactive)
    1  A    between atoms: C_2  and  N_11
                            x       y       z     vdW  Elec       q    Type
                         _______ _______ _______ _____ _____    ______ ____

>  <TORSDO>
F 1

$$$$
