=
 OpenBabel10272413183D

 32 35  0  0  1  0  0  0  0  0999 V2000
  188.8760  176.4710  143.5620 C   0  0  0  0  0  2  0  0  0  0  0  0
  189.9780  177.3980  143.1550 N   0  0  0  0  0  0  0  0  0  0  0  0
  188.4600  176.9930  144.9470 C   0  0  1  0  0  3  0  0  0  0  0  0
  189.3530  178.0310  145.3610 N   0  0  0  0  0  0  0  0  0  0  0  0
  190.8840  179.4130  144.0520 C   0  0  0  0  0  1  0  0  0  0  0  0
  190.4650  177.9700  144.3870 C   0  0  2  0  0  3  0  0  0  0  0  0
  187.0690  177.6330  144.9050 C   0  0  0  0  0  0  0  0  0  0  0  0
  186.4100  177.9700  146.1020 C   0  0  0  0  0  3  0  0  0  0  0  0
  183.0650  178.7720  142.4410 C   0  0  0  0  0  3  0  0  0  0  0  0
  186.3790  177.7430  143.7100 C   0  0  0  0  0  3  0  0  0  0  0  0
  183.1440  179.0800  144.8330 C   0  0  0  0  0  3  0  0  0  0  0  0
  184.4740  178.6190  144.8830 C   0  0  0  0  0  0  0  0  0  0  0  0
  185.1290  178.4950  146.0760 C   0  0  0  0  0  3  0  0  0  0  0  0
  185.0710  178.2390  143.6680 C   0  0  0  0  0  0  0  0  0  0  0  0
  182.4760  179.1690  143.6490 C   0  0  0  0  0  3  0  0  0  0  0  0
  184.3870  178.3300  142.4700 C   0  0  0  0  0  3  0  0  0  0  0  0
  190.9980  176.6040  142.3920 C   0  0  2  0  0  3  0  0  0  0  0  0
  191.9210  176.1150  143.2240 O   0  0  0  0  0  1  0  0  0  0  0  0
  191.6180  177.3150  141.1290 C   0  0  0  0  0  2  0  0  0  0  0  0
  191.0240  176.9060  139.7570 C   0  0  1  0  0  3  0  0  0  0  0  0
  190.0880  177.9100  139.3680 O   0  0  0  0  0  0  0  0  0  0  0  0
  188.7390  177.4290  139.4750 C   0  0  0  0  0  2  0  0  0  0  0  0
  187.8720  178.3420  140.3350 C   0  0  0  0  0  2  0  0  0  0  0  0
  186.6260  178.6240  139.6860 O   0  0  0  0  0  1  0  0  0  0  0  0
  192.0620  176.7320  138.7140 N   0  0  0  0  0  2  0  0  0  0  0  0
  190.9740  174.5630  137.9130 N   0  0  0  0  0  1  0  0  0  0  0  0
  193.3280  175.3930  136.9020 S   0  0  0  0  0  0  0  0  0  0  0  0
  192.0390  175.5450  137.8660 C   0  0  0  0  0  0  0  0  0  0  0  0
  189.8940  177.7540  146.6960 C   0  0  0  0  0  2  0  0  0  0  0  0
  191.0470  176.7970  146.5240 C   0  0  1  0  0  3  0  0  0  0  0  0
  191.8960  176.4680  147.6830 C   0  0  0  0  0  2  0  0  0  0  0  0
  190.7320  175.7370  147.4140 O   0  0  0  0  0  0  0  0  0  0  0  0
  1  3  1  0  0  0  0
  2  1  1  0  0  0  0
  2  6  1  0  0  0  0
  3  7  1  6  0  0  0
  3  4  1  0  0  0  0
  4 29  1  0  0  0  0
  6  5  1  6  0  0  0
  6  4  1  0  0  0  0
  7  8  1  0  0  0  0
  9 16  2  0  0  0  0
  9 15  1  0  0  0  0
 10  7  2  0  0  0  0
 11 12  1  0  0  0  0
 12 13  1  0  0  0  0
 13  8  2  0  0  0  0
 14 10  1  0  0  0  0
 14 12  2  0  0  0  0
 15 11  2  0  0  0  0
 16 14  1  0  0  0  0
 17  2  1  0  0  0  0
 17 18  1  1  0  0  0
 19 17  1  0  0  0  0
 20 19  1  1  0  0  0
 21 22  1  0  0  0  0
 21 20  1  0  0  0  0
 22 23  1  0  0  0  0
 24 23  1  0  0  0  0
 25 20  1  0  0  0  0
 27 28  2  0  0  0  0
 28 26  1  0  0  0  0
 28 25  1  0  0  0  0
 30 29  1  1  0  0  0
 30 32  1  0  0  0  0
 30 31  1  0  0  0  0
 32 31  1  0  0  0  0
M  END
>  <MODEL>
1

>  <REMARK>
 VINA RESULT:      -8.8      0.000      0.000
  Name = 
  11 active torsions:
  status: ('A' for Active; 'I' for Inactive)
    1  A    between atoms: C_2  and  C_5
    2  A    between atoms: C_3  and  O_8
    3  A    between atoms: C_3  and  C_22
    4  A    between atoms: N_4  and  C_24
    5  A    between atoms: O_8  and  C_20
    6  A    between atoms: C_13  and  C_18
    7  A    between atoms: N_14  and  C_18
    8  A    between atoms: N_15  and  C_20
    9  A    between atoms: N_15  and  C_26
   10  A    between atoms: C_16  and  C_20
   11  A    between atoms: C_16  and  C_24
                            x       y       z     vdW  Elec       q    Type
                         _______ _______ _______ _____ _____    ______ ____

>  <TORSDO>
F 11

$$$$
=
 OpenBabel10272413183D

 32 35  0  0  1  0  0  0  0  0999 V2000
  188.9110  176.5600  143.4050 C   0  0  0  0  0  2  0  0  0  0  0  0
  190.0060  177.5140  143.0450 N   0  0  0  0  0  0  0  0  0  0  0  0
  188.5020  176.9980  144.8200 C   0  0  1  0  0  3  0  0  0  0  0  0
  189.3950  178.0130  145.2880 N   0  0  0  0  0  0  0  0  0  0  0  0
  190.9110  179.4770  144.0520 C   0  0  0  0  0  1  0  0  0  0  0  0
  190.4990  178.0150  144.3050 C   0  0  2  0  0  3  0  0  0  0  0  0
  187.1090  177.6330  144.8260 C   0  0  0  0  0  0  0  0  0  0  0  0
  186.4800  177.9470  146.0450 C   0  0  0  0  0  3  0  0  0  0  0  0
  183.0380  178.7990  142.4870 C   0  0  0  0  0  3  0  0  0  0  0  0
  186.3880  177.7620  143.6500 C   0  0  0  0  0  3  0  0  0  0  0  0
  183.1780  179.0660  144.8800 C   0  0  0  0  0  3  0  0  0  0  0  0
  184.5110  178.6090  144.8880 C   0  0  0  0  0  0  0  0  0  0  0  0
  185.1970  178.4670  146.0610 C   0  0  0  0  0  3  0  0  0  0  0  0
  185.0770  178.2520  143.6510 C   0  0  0  0  0  0  0  0  0  0  0  0
  182.4800  179.1730  143.7160 C   0  0  0  0  0  3  0  0  0  0  0  0
  184.3620  178.3620  142.4730 C   0  0  0  0  0  3  0  0  0  0  0  0
  191.0240  176.7710  142.2290 C   0  0  2  0  0  3  0  0  0  0  0  0
  191.9740  176.2690  143.0210 O   0  0  0  0  0  1  0  0  0  0  0  0
  191.6020  177.5420  140.9820 C   0  0  0  0  0  2  0  0  0  0  0  0
  190.8600  177.3180  139.6390 C   0  0  1  0  0  3  0  0  0  0  0  0
  190.8990  175.9230  139.3450 O   0  0  0  0  0  0  0  0  0  0  0  0
  191.4320  175.6860  138.0320 C   0  0  0  0  0  2  0  0  0  0  0  0
  192.9540  175.6090  138.0370 C   0  0  0  0  0  2  0  0  0  0  0  0
  193.5320  176.8870  137.7470 O   0  0  0  0  0  1  0  0  0  0  0  0
  189.4610  177.8030  139.6710 N   0  0  0  0  0  2  0  0  0  0  0  0
  188.9870  179.5070  137.8260 N   0  0  0  0  0  1  0  0  0  0  0  0
  187.8270  177.0760  137.8060 S   0  0  0  0  0  0  0  0  0  0  0  0
  188.8070  178.2010  138.4290 C   0  0  0  0  0  0  0  0  0  0  0  0
  189.9460  177.6620  146.6020 C   0  0  0  0  0  2  0  0  0  0  0  0
  191.0110  176.6170  146.3750 C   0  0  1  0  0  3  0  0  0  0  0  0
  191.9970  176.3460  147.4370 C   0  0  0  0  0  2  0  0  0  0  0  0
  190.7710  175.6720  147.4060 O   0  0  0  0  0  0  0  0  0  0  0  0
  1  3  1  0  0  0  0
  2  1  1  0  0  0  0
  2  6  1  0  0  0  0
  3  7  1  6  0  0  0
  3  4  1  0  0  0  0
  4 29  1  0  0  0  0
  6  5  1  6  0  0  0
  6  4  1  0  0  0  0
  7  8  1  0  0  0  0
  8 13  2  0  0  0  0
  9 15  1  0  0  0  0
 10 14  1  0  0  0  0
 10  7  2  0  0  0  0
 11 12  1  0  0  0  0
 12 13  1  0  0  0  0
 14 12  2  0  0  0  0
 15 11  2  0  0  0  0
 16  9  2  0  0  0  0
 16 14  1  0  0  0  0
 17 18  1  1  0  0  0
 17  2  1  0  0  0  0
 19 17  1  0  0  0  0
 20 25  1  0  0  0  0
 20 19  1  1  0  0  0
 21 20  1  0  0  0  0
 22 23  1  0  0  0  0
 22 21  1  0  0  0  0
 24 23  1  0  0  0  0
 26 28  1  0  0  0  0
 27 28  2  0  0  0  0
 28 25  1  0  0  0  0
 30 29  1  1  0  0  0
 30 32  1  0  0  0  0
 30 31  1  0  0  0  0
 32 31  1  0  0  0  0
M  END
>  <MODEL>
2

>  <REMARK>
 VINA RESULT:      -8.6      1.734      2.498
  Name = 
  11 active torsions:
  status: ('A' for Active; 'I' for Inactive)
    1  A    between atoms: C_2  and  C_5
    2  A    between atoms: C_3  and  O_8
    3  A    between atoms: C_3  and  C_22
    4  A    between atoms: N_4  and  C_24
    5  A    between atoms: O_8  and  C_20
    6  A    between atoms: C_13  and  C_18
    7  A    between atoms: N_14  and  C_18
    8  A    between atoms: N_15  and  C_20
    9  A    between atoms: N_15  and  C_26
   10  A    between atoms: C_16  and  C_20
   11  A    between atoms: C_16  and  C_24
                            x       y       z     vdW  Elec       q    Type
                         _______ _______ _______ _____ _____    ______ ____

>  <TORSDO>
F 11

$$$$
=
 OpenBabel10272413183D

 32 35  0  0  1  0  0  0  0  0999 V2000
  184.5850  178.9420  140.1220 C   0  0  0  0  0  2  0  0  0  0  0  0
  184.2250  177.7080  139.3570 N   0  0  0  0  0  0  0  0  0  0  0  0
  183.4600  179.0610  141.1630 C   0  0  1  0  0  3  0  0  0  0  0  0
  182.4610  178.0680  140.9100 N   0  0  0  0  0  0  0  0  0  0  0  0
  182.5810  176.0000  139.6150 C   0  0  0  0  0  1  0  0  0  0  0  0
  182.8130  177.5210  139.5810 C   0  0  2  0  0  3  0  0  0  0  0  0
  183.9770  178.7800  142.5760 C   0  0  0  0  0  0  0  0  0  0  0  0
  183.2240  179.1760  143.6970 C   0  0  0  0  0  3  0  0  0  0  0  0
  187.5930  177.5050  145.5270 C   0  0  0  0  0  3  0  0  0  0  0  0
  185.2540  178.2810  142.7740 C   0  0  0  0  0  3  0  0  0  0  0  0
  185.5140  178.3200  146.4410 C   0  0  0  0  0  3  0  0  0  0  0  0
  184.9640  178.4620  145.1520 C   0  0  0  0  0  0  0  0  0  0  0  0
  183.7110  178.9790  144.9780 C   0  0  0  0  0  3  0  0  0  0  0  0
  185.7770  178.1080  144.0610 C   0  0  0  0  0  0  0  0  0  0  0  0
  186.7770  177.8400  146.6150 C   0  0  0  0  0  3  0  0  0  0  0  0
  187.0580  177.6220  144.2440 C   0  0  0  0  0  3  0  0  0  0  0  0
  184.6040  177.9210  137.9200 C   0  0  2  0  0  3  0  0  0  0  0  0
  183.5120  177.9490  137.1530 O   0  0  0  0  0  1  0  0  0  0  0  0
  185.7310  176.9740  137.3570 C   0  0  0  0  0  2  0  0  0  0  0  0
  187.1000  177.6410  137.0650 C   0  0  1  0  0  3  0  0  0  0  0  0
  187.3520  178.5920  138.0980 O   0  0  0  0  0  0  0  0  0  0  0  0
  188.4920  178.2120  138.8840 C   0  0  0  0  0  2  0  0  0  0  0  0
  188.1870  178.2210  140.3780 C   0  0  0  0  0  2  0  0  0  0  0  0
  188.9870  177.2540  141.0690 O   0  0  0  0  0  1  0  0  0  0  0  0
  188.2070  176.6610  136.9790 N   0  0  0  0  0  2  0  0  0  0  0  0
  188.5390  174.8000  135.2600 N   0  0  0  0  0  1  0  0  0  0  0  0
  189.3140  177.3260  134.7410 S   0  0  0  0  0  0  0  0  0  0  0  0
  188.6480  176.1850  135.6730 C   0  0  0  0  0  0  0  0  0  0  0  0
  181.1290  178.6760  140.8230 C   0  0  0  0  0  2  0  0  0  0  0  0
  181.1920  179.7420  139.7570 C   0  0  1  0  0  3  0  0  0  0  0  0
  179.9880  180.0460  138.9630 C   0  0  0  0  0  2  0  0  0  0  0  0
  180.2270  180.6920  140.1830 O   0  0  0  0  0  0  0  0  0  0  0  0
  1  3  1  0  0  0  0
  2  6  1  0  0  0  0
  2  1  1  0  0  0  0
  3  7  1  1  0  0  0
  4  3  1  0  0  0  0
  6  5  1  1  0  0  0
  6  4  1  0  0  0  0
  7 10  2  0  0  0  0
  7  8  1  0  0  0  0
  8 13  2  0  0  0  0
  9 15  1  0  0  0  0
 10 14  1  0  0  0  0
 11 15  2  0  0  0  0
 12 11  1  0  0  0  0
 13 12  1  0  0  0  0
 14 16  1  0  0  0  0
 14 12  2  0  0  0  0
 16  9  2  0  0  0  0
 17 18  1  6  0  0  0
 17  2  1  0  0  0  0
 19 17  1  0  0  0  0
 20 19  1  1  0  0  0
 20 21  1  0  0  0  0
 21 22  1  0  0  0  0
 22 23  1  0  0  0  0
 23 24  1  0  0  0  0
 25 20  1  0  0  0  0
 26 28  1  0  0  0  0
 27 28  2  0  0  0  0
 28 25  1  0  0  0  0
 29  4  1  0  0  0  0
 30 32  1  0  0  0  0
 30 29  1  1  0  0  0
 31 30  1  0  0  0  0
 31 32  1  0  0  0  0
M  END
>  <MODEL>
3

>  <REMARK>
 VINA RESULT:      -7.1      3.380      6.886
  Name = 
  11 active torsions:
  status: ('A' for Active; 'I' for Inactive)
    1  A    between atoms: C_2  and  C_5
    2  A    between atoms: C_3  and  O_8
    3  A    between atoms: C_3  and  C_22
    4  A    between atoms: N_4  and  C_24
    5  A    between atoms: O_8  and  C_20
    6  A    between atoms: C_13  and  C_18
    7  A    between atoms: N_14  and  C_18
    8  A    between atoms: N_15  and  C_20
    9  A    between atoms: N_15  and  C_26
   10  A    between atoms: C_16  and  C_20
   11  A    between atoms: C_16  and  C_24
                            x       y       z     vdW  Elec       q    Type
                         _______ _______ _______ _____ _____    ______ ____

>  <TORSDO>
F 11

$$$$
=
 OpenBabel10272413183D

 32 35  0  0  1  0  0  0  0  0999 V2000
  184.6960  178.7670  140.0840 C   0  0  0  0  0  2  0  0  0  0  0  0
  184.2520  177.5320  139.3640 N   0  0  0  0  0  0  0  0  0  0  0  0
  183.5520  179.0360  141.0750 C   0  0  1  0  0  3  0  0  0  0  0  0
  182.4770  178.1230  140.8320 N   0  0  0  0  0  0  0  0  0  0  0  0
  182.4540  175.9910  139.6400 C   0  0  0  0  0  1  0  0  0  0  0  0
  182.8220  177.4820  139.5440 C   0  0  2  0  0  3  0  0  0  0  0  0
  183.9950  178.7820  142.5180 C   0  0  0  0  0  0  0  0  0  0  0  0
  183.1830  179.1950  143.5910 C   0  0  0  0  0  3  0  0  0  0  0  0
  187.4540  177.5700  145.6760 C   0  0  0  0  0  3  0  0  0  0  0  0
  185.2610  178.2900  142.7910 C   0  0  0  0  0  3  0  0  0  0  0  0
  185.3280  178.3940  146.4650 C   0  0  0  0  0  3  0  0  0  0  0  0
  184.8450  178.5120  145.1470 C   0  0  0  0  0  0  0  0  0  0  0  0
  183.6030  179.0230  144.8990 C   0  0  0  0  0  3  0  0  0  0  0  0
  185.7150  178.1420  144.1070 C   0  0  0  0  0  0  0  0  0  0  0  0
  186.5810  177.9210  146.7140 C   0  0  0  0  0  3  0  0  0  0  0  0
  186.9860  177.6630  144.3660 C   0  0  0  0  0  3  0  0  0  0  0  0
  184.6970  177.6400  137.9340 C   0  0  2  0  0  3  0  0  0  0  0  0
  184.8740  176.4240  137.4120 O   0  0  0  0  0  1  0  0  0  0  0  0
  185.9060  178.6130  137.6600 C   0  0  0  0  0  2  0  0  0  0  0  0
  187.3010  177.9480  137.5390 C   0  0  1  0  0  3  0  0  0  0  0  0
  187.6350  177.8820  136.1540 O   0  0  0  0  0  0  0  0  0  0  0  0
  188.6480  176.8930  135.9120 C   0  0  0  0  0  2  0  0  0  0  0  0
  188.0640  175.4890  135.8090 C   0  0  0  0  0  2  0  0  0  0  0  0
  188.3460  174.7300  136.9910 O   0  0  0  0  0  1  0  0  0  0  0  0
  188.3490  178.6770  138.2920 N   0  0  0  0  0  2  0  0  0  0  0  0
  188.2580  178.5310  140.8420 N   0  0  0  0  0  1  0  0  0  0  0  0
  190.0670  177.1200  139.4320 S   0  0  0  0  0  0  0  0  0  0  0  0
  188.8230  178.1440  139.5640 C   0  0  0  0  0  0  0  0  0  0  0  0
  181.2080  178.8400  140.6660 C   0  0  0  0  0  2  0  0  0  0  0  0
  181.3680  179.7670  139.4850 C   0  0  1  0  0  3  0  0  0  0  0  0
  180.2010  180.0650  138.6350 C   0  0  0  0  0  2  0  0  0  0  0  0
  180.4730  180.8300  139.7770 O   0  0  0  0  0  0  0  0  0  0  0  0
  1  3  1  0  0  0  0
  2  6  1  0  0  0  0
  2  1  1  0  0  0  0
  3  7  1  1  0  0  0
  4  3  1  0  0  0  0
  6  5  1  1  0  0  0
  6  4  1  0  0  0  0
  7 10  2  0  0  0  0
  7  8  1  0  0  0  0
  8 13  2  0  0  0  0
  9 15  1  0  0  0  0
 10 14  1  0  0  0  0
 11 15  2  0  0  0  0
 12 11  1  0  0  0  0
 13 12  1  0  0  0  0
 14 16  1  0  0  0  0
 14 12  2  0  0  0  0
 16  9  2  0  0  0  0
 17 18  1  1  0  0  0
 17  2  1  0  0  0  0
 19 17  1  0  0  0  0
 20 19  1  6  0  0  0
 20 25  1  0  0  0  0
 21 20  1  0  0  0  0
 22 21  1  0  0  0  0
 23 22  1  0  0  0  0
 23 24  1  0  0  0  0
 25 28  1  0  0  0  0
 27 28  2  0  0  0  0
 28 26  1  0  0  0  0
 29  4  1  0  0  0  0
 30 32  1  0  0  0  0
 30 29  1  1  0  0  0
 31 30  1  0  0  0  0
 31 32  1  0  0  0  0
M  END
>  <MODEL>
4

>  <REMARK>
 VINA RESULT:      -7.0      3.666      6.996
  Name = 
  11 active torsions:
  status: ('A' for Active; 'I' for Inactive)
    1  A    between atoms: C_2  and  C_5
    2  A    between atoms: C_3  and  O_8
    3  A    between atoms: C_3  and  C_22
    4  A    between atoms: N_4  and  C_24
    5  A    between atoms: O_8  and  C_20
    6  A    between atoms: C_13  and  C_18
    7  A    between atoms: N_14  and  C_18
    8  A    between atoms: N_15  and  C_20
    9  A    between atoms: N_15  and  C_26
   10  A    between atoms: C_16  and  C_20
   11  A    between atoms: C_16  and  C_24
                            x       y       z     vdW  Elec       q    Type
                         _______ _______ _______ _____ _____    ______ ____

>  <TORSDO>
F 11

$$$$
=
 OpenBabel10272413183D

 32 35  0  0  1  0  0  0  0  0999 V2000
  184.3800  178.7140  139.9010 C   0  0  0  0  0  2  0  0  0  0  0  0
  183.9820  177.4500  139.2050 N   0  0  0  0  0  0  0  0  0  0  0  0
  183.2660  178.9180  140.9400 C   0  0  1  0  0  3  0  0  0  0  0  0
  182.2400  177.9400  140.7470 N   0  0  0  0  0  0  0  0  0  0  0  0
  182.2950  175.8030  139.5640 C   0  0  0  0  0  1  0  0  0  0  0  0
  182.5670  177.3140  139.4480 C   0  0  2  0  0  3  0  0  0  0  0  0
  183.7860  178.6990  142.3640 C   0  0  0  0  0  0  0  0  0  0  0  0
  183.0280  179.1300  143.4680 C   0  0  0  0  0  3  0  0  0  0  0  0
  187.4150  177.5840  145.3620 C   0  0  0  0  0  3  0  0  0  0  0  0
  185.0690  178.2230  142.5810 C   0  0  0  0  0  3  0  0  0  0  0  0
  185.3270  178.4100  146.2430 C   0  0  0  0  0  3  0  0  0  0  0  0
  184.7750  178.4950  144.9500 C   0  0  0  0  0  0  0  0  0  0  0  0
  183.5170  178.9900  144.7560 C   0  0  0  0  0  3  0  0  0  0  0  0
  185.5930  178.1080  143.8740 C   0  0  0  0  0  0  0  0  0  0  0  0
  186.5950  177.9520  146.4360 C   0  0  0  0  0  3  0  0  0  0  0  0
  186.8790  177.6440  144.0760 C   0  0  0  0  0  3  0  0  0  0  0  0
  184.3570  177.5760  137.7570 C   0  0  2  0  0  3  0  0  0  0  0  0
  183.3000  177.9660  137.0390 O   0  0  0  0  0  1  0  0  0  0  0  0
  185.1090  176.3410  137.1300 C   0  0  0  0  0  2  0  0  0  0  0  0
  186.6580  176.4030  137.1570 C   0  0  1  0  0  3  0  0  0  0  0  0
  187.1490  175.4680  136.1980 O   0  0  0  0  0  0  0  0  0  0  0  0
  187.7100  174.3130  136.8410 C   0  0  0  0  0  2  0  0  0  0  0  0
  189.1690  174.0940  136.4550 C   0  0  0  0  0  2  0  0  0  0  0  0
  190.0240  174.2050  137.5990 O   0  0  0  0  0  1  0  0  0  0  0  0
  187.1820  177.7600  136.8750 N   0  0  0  0  0  2  0  0  0  0  0  0
  188.8690  179.5900  137.4540 N   0  0  0  0  0  1  0  0  0  0  0  0
  188.6130  177.3960  138.9950 S   0  0  0  0  0  0  0  0  0  0  0  0
  188.2180  178.3250  137.7320 C   0  0  0  0  0  0  0  0  0  0  0  0
  180.9230  178.5780  140.6350 C   0  0  0  0  0  2  0  0  0  0  0  0
  181.1180  179.8790  139.8970 C   0  0  1  0  0  3  0  0  0  0  0  0
  180.0390  180.3900  139.0320 C   0  0  0  0  0  2  0  0  0  0  0  0
  180.0740  180.7010  140.3970 O   0  0  0  0  0  0  0  0  0  0  0  0
  1  3  1  0  0  0  0
  2  6  1  0  0  0  0
  2  1  1  0  0  0  0
  3  7  1  1  0  0  0
  4  3  1  0  0  0  0
  6  5  1  1  0  0  0
  6  4  1  0  0  0  0
  7 10  2  0  0  0  0
  7  8  1  0  0  0  0
  8 13  2  0  0  0  0
  9 15  1  0  0  0  0
 10 14  1  0  0  0  0
 11 15  2  0  0  0  0
 12 11  1  0  0  0  0
 13 12  1  0  0  0  0
 14 16  1  0  0  0  0
 14 12  2  0  0  0  0
 16  9  2  0  0  0  0
 17 18  1  6  0  0  0
 17  2  1  0  0  0  0
 19 17  1  0  0  0  0
 20 19  1  6  0  0  0
 21 22  1  0  0  0  0
 21 20  1  0  0  0  0
 23 22  1  0  0  0  0
 23 24  1  0  0  0  0
 25 20  1  0  0  0  0
 25 28  1  0  0  0  0
 26 28  1  0  0  0  0
 28 27  2  0  0  0  0
 29  4  1  0  0  0  0
 30 32  1  0  0  0  0
 30 29  1  1  0  0  0
 31 30  1  0  0  0  0
 31 32  1  0  0  0  0
M  END
>  <MODEL>
5

>  <REMARK>
 VINA RESULT:      -6.9      4.044      7.290
  Name = 
  11 active torsions:
  status: ('A' for Active; 'I' for Inactive)
    1  A    between atoms: C_2  and  C_5
    2  A    between atoms: C_3  and  O_8
    3  A    between atoms: C_3  and  C_22
    4  A    between atoms: N_4  and  C_24
    5  A    between atoms: O_8  and  C_20
    6  A    between atoms: C_13  and  C_18
    7  A    between atoms: N_14  and  C_18
    8  A    between atoms: N_15  and  C_20
    9  A    between atoms: N_15  and  C_26
   10  A    between atoms: C_16  and  C_20
   11  A    between atoms: C_16  and  C_24
                            x       y       z     vdW  Elec       q    Type
                         _______ _______ _______ _____ _____    ______ ____

>  <TORSDO>
F 11

$$$$
=
 OpenBabel10272413183D

 32 35  0  0  1  0  0  0  0  0999 V2000
  188.9290  178.9870  142.7610 C   0  0  0  0  0  2  0  0  0  0  0  0
  189.5810  177.7580  143.3110 N   0  0  0  0  0  0  0  0  0  0  0  0
  188.2270  178.4850  141.4900 C   0  0  1  0  0  3  0  0  0  0  0  0
  188.5790  177.1190  141.2510 N   0  0  0  0  0  0  0  0  0  0  0  0
  189.5050  175.4380  142.7630 C   0  0  0  0  0  1  0  0  0  0  0  0
  189.6910  176.8550  142.1910 C   0  0  2  0  0  3  0  0  0  0  0  0
  186.7040  178.4990  141.6520 C   0  0  0  0  0  0  0  0  0  0  0  0
  185.8750  178.6830  140.5300 C   0  0  0  0  0  3  0  0  0  0  0  0
  182.8080  178.7680  144.5070 C   0  0  0  0  0  3  0  0  0  0  0  0
  186.1290  178.4900  142.9120 C   0  0  0  0  0  3  0  0  0  0  0  0
  182.5620  178.8680  142.1090 C   0  0  0  0  0  3  0  0  0  0  0  0
  183.9500  178.7210  141.9250 C   0  0  0  0  0  0  0  0  0  0  0  0
  184.5000  178.7570  140.6750 C   0  0  0  0  0  3  0  0  0  0  0  0
  184.7440  178.5990  143.0800 C   0  0  0  0  0  0  0  0  0  0  0  0
  182.0150  178.8710  143.3570 C   0  0  0  0  0  3  0  0  0  0  0  0
  184.1830  178.6040  144.3430 C   0  0  0  0  0  3  0  0  0  0  0  0
  190.8940  178.1570  143.9190 C   0  0  2  0  0  3  0  0  0  0  0  0
  191.8620  178.1110  143.0010 O   0  0  0  0  0  1  0  0  0  0  0  0
  191.2800  177.4280  145.2620 C   0  0  0  0  0  2  0  0  0  0  0  0
  190.1000  177.0420  146.1910 C   0  0  1  0  0  3  0  0  0  0  0  0
  190.6270  176.2680  147.2680 O   0  0  0  0  0  0  0  0  0  0  0  0
  191.9720  175.8490  146.9940 C   0  0  0  0  0  2  0  0  0  0  0  0
  192.7990  175.7090  148.2680 C   0  0  0  0  0  2  0  0  0  0  0  0
  192.8600  176.9520  148.9770 O   0  0  0  0  0  1  0  0  0  0  0  0
  189.3700  178.2230  146.7080 N   0  0  0  0  0  2  0  0  0  0  0  0
  188.2150  177.9400  148.9700 N   0  0  0  0  0  1  0  0  0  0  0  0
  186.8090  177.8800  146.6730 S   0  0  0  0  0  0  0  0  0  0  0  0
  188.1750  178.0300  147.5240 C   0  0  0  0  0  0  0  0  0  0  0  0
  189.0780  176.9380  139.8830 C   0  0  0  0  0  2  0  0  0  0  0  0
  189.1670  178.3070  139.2540 C   0  0  1  0  0  3  0  0  0  0  0  0
  189.5830  178.4330  137.8450 C   0  0  0  0  0  2  0  0  0  0  0  0
  188.2370  178.2400  138.1840 O   0  0  0  0  0  0  0  0  0  0  0  0
  1  2  1  0  0  0  0
  2 17  1  0  0  0  0
  3  7  1  1  0  0  0
  3  1  1  0  0  0  0
  4  3  1  0  0  0  0
  4  6  1  0  0  0  0
  6  5  1  1  0  0  0
  6  2  1  0  0  0  0
  7 10  1  0  0  0  0
  8 13  1  0  0  0  0
  8  7  2  0  0  0  0
 10 14  2  0  0  0  0
 11 15  2  0  0  0  0
 12 11  1  0  0  0  0
 12 14  1  0  0  0  0
 13 12  2  0  0  0  0
 14 16  1  0  0  0  0
 15  9  1  0  0  0  0
 16  9  2  0  0  0  0
 17 18  1  6  0  0  0
 17 19  1  0  0  0  0
 20 19  1  6  0  0  0
 20 25  1  0  0  0  0
 20 21  1  0  0  0  0
 22 21  1  0  0  0  0
 22 23  1  0  0  0  0
 23 24  1  0  0  0  0
 25 28  1  0  0  0  0
 27 28  2  0  0  0  0
 28 26  1  0  0  0  0
 29  4  1  0  0  0  0
 30 29  1  6  0  0  0
 31 32  1  0  0  0  0
 31 30  1  0  0  0  0
 32 30  1  0  0  0  0
M  END
>  <MODEL>
6

>  <REMARK>
 VINA RESULT:      -6.9      2.847      6.554
  Name = 
  11 active torsions:
  status: ('A' for Active; 'I' for Inactive)
    1  A    between atoms: C_2  and  C_5
    2  A    between atoms: C_3  and  O_8
    3  A    between atoms: C_3  and  C_22
    4  A    between atoms: N_4  and  C_24
    5  A    between atoms: O_8  and  C_20
    6  A    between atoms: C_13  and  C_18
    7  A    between atoms: N_14  and  C_18
    8  A    between atoms: N_15  and  C_20
    9  A    between atoms: N_15  and  C_26
   10  A    between atoms: C_16  and  C_20
   11  A    between atoms: C_16  and  C_24
                            x       y       z     vdW  Elec       q    Type
                         _______ _______ _______ _____ _____    ______ ____

>  <TORSDO>
F 11

$$$$
=
 OpenBabel10272413183D

 32 35  0  0  1  0  0  0  0  0999 V2000
  189.7500  176.3770  141.5990 C   0  0  0  0  0  2  0  0  0  0  0  0
  190.8680  177.3670  141.5040 N   0  0  0  0  0  0  0  0  0  0  0  0
  189.5750  176.1750  143.1130 C   0  0  1  0  0  3  0  0  0  0  0  0
  190.6090  176.8710  143.8150 N   0  0  0  0  0  0  0  0  0  0  0  0
  192.0710  178.6870  143.0840 C   0  0  0  0  0  1  0  0  0  0  0  0
  191.5680  177.2680  142.7610 C   0  0  2  0  0  3  0  0  0  0  0  0
  188.2580  176.7790  143.6070 C   0  0  0  0  0  0  0  0  0  0  0  0
  187.3100  177.2590  142.6850 C   0  0  0  0  0  3  0  0  0  0  0  0
  185.5710  178.5620  147.2130 C   0  0  0  0  0  3  0  0  0  0  0  0
  188.0490  177.0060  144.9570 C   0  0  0  0  0  3  0  0  0  0  0  0
  184.8000  178.7260  144.9330 C   0  0  0  0  0  3  0  0  0  0  0  0
  185.9430  178.0520  144.4610 C   0  0  0  0  0  0  0  0  0  0  0  0
  186.1420  177.8600  143.1240 C   0  0  0  0  0  3  0  0  0  0  0  0
  186.8910  177.6440  145.4170 C   0  0  0  0  0  0  0  0  0  0  0  0
  184.6180  178.9530  146.2640 C   0  0  0  0  0  3  0  0  0  0  0  0
  186.7000  177.8770  146.7660 C   0  0  0  0  0  3  0  0  0  0  0  0
  191.6970  177.0230  140.3010 C   0  0  2  0  0  3  0  0  0  0  0  0
  192.9100  177.5710  140.4030 O   0  0  0  0  0  1  0  0  0  0  0  0
  191.0180  177.2780  138.9020 C   0  0  0  0  0  2  0  0  0  0  0  0
  190.3520  176.0480  138.2330 C   0  0  1  0  0  3  0  0  0  0  0  0
  189.9190  176.4380  136.9310 O   0  0  0  0  0  0  0  0  0  0  0  0
  189.3210  177.7440  136.9550 C   0  0  0  0  0  2  0  0  0  0  0  0
  187.8020  177.6760  137.0670 C   0  0  0  0  0  2  0  0  0  0  0  0
  187.2570  178.9540  137.4140 O   0  0  0  0  0  1  0  0  0  0  0  0
  191.2610  174.8810  138.1500 N   0  0  0  0  0  2  0  0  0  0  0  0
  193.1030  175.4910  136.4870 N   0  0  0  0  0  1  0  0  0  0  0  0
  191.4980  173.3690  136.0670 S   0  0  0  0  0  0  0  0  0  0  0  0
  192.0140  174.6400  136.9230 C   0  0  0  0  0  0  0  0  0  0  0  0
  191.2980  175.9770  144.7530 C   0  0  0  0  0  2  0  0  0  0  0  0
  191.6820  176.8010  145.9570 C   0  0  1  0  0  3  0  0  0  0  0  0
  191.0880  176.4880  147.2700 C   0  0  0  0  0  2  0  0  0  0  0  0
  192.2570  175.8480  146.8390 O   0  0  0  0  0  0  0  0  0  0  0  0
  1  3  1  0  0  0  0
  2  1  1  0  0  0  0
  2  6  1  0  0  0  0
  3  7  1  1  0  0  0
  3  4  1  0  0  0  0
  4 29  1  0  0  0  0
  6  5  1  1  0  0  0
  6  4  1  0  0  0  0
  7 10  1  0  0  0  0
  8 13  1  0  0  0  0
  8  7  2  0  0  0  0
 10 14  2  0  0  0  0
 11 15  2  0  0  0  0
 12 11  1  0  0  0  0
 12 14  1  0  0  0  0
 13 12  2  0  0  0  0
 14 16  1  0  0  0  0
 15  9  1  0  0  0  0
 16  9  2  0  0  0  0
 17 18  1  6  0  0  0
 17  2  1  0  0  0  0
 19 17  1  0  0  0  0
 20 19  1  6  0  0  0
 21 22  1  0  0  0  0
 21 20  1  0  0  0  0
 22 23  1  0  0  0  0
 23 24  1  0  0  0  0
 25 20  1  0  0  0  0
 26 28  1  0  0  0  0
 27 28  2  0  0  0  0
 28 25  1  0  0  0  0
 30 29  1  6  0  0  0
 30 32  1  0  0  0  0
 30 31  1  0  0  0  0
 32 31  1  0  0  0  0
M  END
>  <MODEL>
7

>  <REMARK>
 VINA RESULT:      -6.9      1.790      2.658
  Name = 
  11 active torsions:
  status: ('A' for Active; 'I' for Inactive)
    1  A    between atoms: C_2  and  C_5
    2  A    between atoms: C_3  and  O_8
    3  A    between atoms: C_3  and  C_22
    4  A    between atoms: N_4  and  C_24
    5  A    between atoms: O_8  and  C_20
    6  A    between atoms: C_13  and  C_18
    7  A    between atoms: N_14  and  C_18
    8  A    between atoms: N_15  and  C_20
    9  A    between atoms: N_15  and  C_26
   10  A    between atoms: C_16  and  C_20
   11  A    between atoms: C_16  and  C_24
                            x       y       z     vdW  Elec       q    Type
                         _______ _______ _______ _____ _____    ______ ____

>  <TORSDO>
F 11

$$$$
=
 OpenBabel10272413183D

 32 35  0  0  1  0  0  0  0  0999 V2000
  191.0080  176.7200  139.4090 C   0  0  0  0  0  2  0  0  0  0  0  0
  190.5230  175.6680  138.4630 N   0  0  0  0  0  0  0  0  0  0  0  0
  189.8060  177.6690  139.5400 C   0  0  1  0  0  3  0  0  0  0  0  0
  188.7790  177.2770  138.6250 N   0  0  0  0  0  0  0  0  0  0  0  0
  188.4150  175.1530  137.4740 C   0  0  0  0  0  1  0  0  0  0  0  0
  189.4280  176.2780  137.7480 C   0  0  2  0  0  3  0  0  0  0  0  0
  189.1770  177.5810  140.9340 C   0  0  0  0  0  0  0  0  0  0  0  0
  189.7740  176.7880  141.9310 C   0  0  0  0  0  3  0  0  0  0  0  0
  185.4150  178.3530  143.8770 C   0  0  0  0  0  3  0  0  0  0  0  0
  187.9380  178.1480  141.1850 C   0  0  0  0  0  3  0  0  0  0  0  0
  187.3070  177.0660  144.6410 C   0  0  0  0  0  3  0  0  0  0  0  0
  187.9700  177.2440  143.4110 C   0  0  0  0  0  0  0  0  0  0  0  0
  189.1800  176.6560  143.1750 C   0  0  0  0  0  3  0  0  0  0  0  0
  187.3070  177.9960  142.4250 C   0  0  0  0  0  0  0  0  0  0  0  0
  186.0830  177.6200  144.8660 C   0  0  0  0  0  3  0  0  0  0  0  0
  186.0640  178.5540  142.6590 C   0  0  0  0  0  3  0  0  0  0  0  0
  191.6760  175.2500  137.5970 C   0  0  2  0  0  3  0  0  0  0  0  0
  191.8470  173.9270  137.6620 O   0  0  0  0  0  1  0  0  0  0  0  0
  193.0140  176.0570  137.7960 C   0  0  0  0  0  2  0  0  0  0  0  0
  194.1370  175.7810  136.7640 C   0  0  1  0  0  3  0  0  0  0  0  0
  194.4760  177.0200  136.1430 O   0  0  0  0  0  0  0  0  0  0  0  0
  195.1120  176.8050  134.8740 C   0  0  0  0  0  2  0  0  0  0  0  0
  196.1950  177.8420  134.5930 C   0  0  0  0  0  2  0  0  0  0  0  0
  196.0390  178.9860  135.4410 O   0  0  0  0  0  1  0  0  0  0  0  0
  195.3360  175.1610  137.3750 N   0  0  0  0  0  2  0  0  0  0  0  0
  195.3660  173.0300  138.7870 N   0  0  0  0  0  1  0  0  0  0  0  0
  195.5890  172.9250  136.1050 S   0  0  0  0  0  0  0  0  0  0  0  0
  195.4090  173.7090  137.5070 C   0  0  0  0  0  0  0  0  0  0  0  0
  188.3530  178.4110  137.7980 C   0  0  0  0  0  2  0  0  0  0  0  0
  187.0350  178.0360  137.1670 C   0  0  1  0  0  3  0  0  0  0  0  0
  185.8080  178.0570  137.9840 C   0  0  0  0  0  2  0  0  0  0  0  0
  186.2500  179.2090  137.3210 O   0  0  0  0  0  0  0  0  0  0  0  0
  1  3  1  0  0  0  0
  2  1  1  0  0  0  0
  3  7  1  1  0  0  0
  4  3  1  0  0  0  0
  6  5  1  1  0  0  0
  6  2  1  0  0  0  0
  6  4  1  0  0  0  0
  7 10  2  0  0  0  0
  7  8  1  0  0  0  0
  8 13  2  0  0  0  0
  9 15  1  0  0  0  0
 10 14  1  0  0  0  0
 11 15  2  0  0  0  0
 12 11  1  0  0  0  0
 13 12  1  0  0  0  0
 14 16  1  0  0  0  0
 14 12  2  0  0  0  0
 16  9  2  0  0  0  0
 17 18  1  1  0  0  0
 17 19  1  0  0  0  0
 17  2  1  0  0  0  0
 20 25  1  0  0  0  0
 20 19  1  1  0  0  0
 21 20  1  0  0  0  0
 22 21  1  0  0  0  0
 23 22  1  0  0  0  0
 23 24  1  0  0  0  0
 25 28  1  0  0  0  0
 27 28  2  0  0  0  0
 28 26  1  0  0  0  0
 29  4  1  0  0  0  0
 30 32  1  0  0  0  0
 30 29  1  1  0  0  0
 30 31  1  0  0  0  0
 32 31  1  0  0  0  0
M  END
>  <MODEL>
8

>  <REMARK>
 VINA RESULT:      -6.6      3.365      6.413
  Name = 
  11 active torsions:
  status: ('A' for Active; 'I' for Inactive)
    1  A    between atoms: C_2  and  C_5
    2  A    between atoms: C_3  and  O_8
    3  A    between atoms: C_3  and  C_22
    4  A    between atoms: N_4  and  C_24
    5  A    between atoms: O_8  and  C_20
    6  A    between atoms: C_13  and  C_18
    7  A    between atoms: N_14  and  C_18
    8  A    between atoms: N_15  and  C_20
    9  A    between atoms: N_15  and  C_26
   10  A    between atoms: C_16  and  C_20
   11  A    between atoms: C_16  and  C_24
                            x       y       z     vdW  Elec       q    Type
                         _______ _______ _______ _____ _____    ______ ____

>  <TORSDO>
F 11

$$$$
=
 OpenBabel10272413183D

 32 35  0  0  1  0  0  0  0  0999 V2000
  184.2660  178.5810  139.8470 C   0  0  0  0  0  2  0  0  0  0  0  0
  183.7560  177.3300  139.2040 N   0  0  0  0  0  0  0  0  0  0  0  0
  183.1920  178.9110  140.8960 C   0  0  1  0  0  3  0  0  0  0  0  0
  182.0870  178.0130  140.7550 N   0  0  0  0  0  0  0  0  0  0  0  0
  181.9500  175.8380  139.6500 C   0  0  0  0  0  1  0  0  0  0  0  0
  182.3390  177.3170  139.4740 C   0  0  2  0  0  3  0  0  0  0  0  0
  183.7200  178.7010  142.3180 C   0  0  0  0  0  0  0  0  0  0  0  0
  182.9600  179.1250  143.4240 C   0  0  0  0  0  3  0  0  0  0  0  0
  187.3730  177.6350  145.3060 C   0  0  0  0  0  3  0  0  0  0  0  0
  185.0090  178.2410  142.5320 C   0  0  0  0  0  3  0  0  0  0  0  0
  185.2780  178.4370  146.1930 C   0  0  0  0  0  3  0  0  0  0  0  0
  184.7200  178.5140  144.9010 C   0  0  0  0  0  0  0  0  0  0  0  0
  183.4550  178.9930  144.7110 C   0  0  0  0  0  3  0  0  0  0  0  0
  185.5390  178.1340  143.8230 C   0  0  0  0  0  0  0  0  0  0  0  0
  186.5520  177.9950  146.3820 C   0  0  0  0  0  3  0  0  0  0  0  0
  186.8310  177.6870  144.0220 C   0  0  0  0  0  3  0  0  0  0  0  0
  184.1120  177.3750  137.7460 C   0  0  2  0  0  3  0  0  0  0  0  0
  183.1680  178.0240  137.0600 O   0  0  0  0  0  1  0  0  0  0  0  0
  184.5150  175.9990  137.0940 C   0  0  0  0  0  2  0  0  0  0  0  0
  185.9790  175.8840  136.5950 C   0  0  1  0  0  3  0  0  0  0  0  0
  186.8400  176.1570  137.6990 O   0  0  0  0  0  0  0  0  0  0  0  0
  188.0110  176.8730  137.2760 C   0  0  0  0  0  2  0  0  0  0  0  0
  187.6770  177.9890  136.2930 C   0  0  0  0  0  2  0  0  0  0  0  0
  187.5240  179.2410  136.9720 O   0  0  0  0  0  1  0  0  0  0  0  0
  186.2830  174.5550  136.0140 N   0  0  0  0  0  2  0  0  0  0  0  0
  185.5820  172.9490  137.8740 N   0  0  0  0  0  1  0  0  0  0  0  0
  188.0160  172.7790  136.7340 S   0  0  0  0  0  0  0  0  0  0  0  0
  186.5430  173.4250  136.9000 C   0  0  0  0  0  0  0  0  0  0  0  0
  180.8240  178.7500  140.6410 C   0  0  0  0  0  2  0  0  0  0  0  0
  181.1230  180.0400  139.9180 C   0  0  1  0  0  3  0  0  0  0  0  0
  180.0690  180.6780  139.1080 C   0  0  0  0  0  2  0  0  0  0  0  0
  180.1910  180.9540  140.4760 O   0  0  0  0  0  0  0  0  0  0  0  0
  1  3  1  0  0  0  0
  2  6  1  0  0  0  0
  2  1  1  0  0  0  0
  3  7  1  1  0  0  0
  4  3  1  0  0  0  0
  6  5  1  1  0  0  0
  6  4  1  0  0  0  0
  7 10  2  0  0  0  0
  7  8  1  0  0  0  0
  8 13  2  0  0  0  0
  9 15  1  0  0  0  0
 10 14  1  0  0  0  0
 11 15  2  0  0  0  0
 12 11  1  0  0  0  0
 13 12  1  0  0  0  0
 14 16  1  0  0  0  0
 14 12  2  0  0  0  0
 16  9  2  0  0  0  0
 17 18  1  6  0  0  0
 17  2  1  0  0  0  0
 19 17  1  0  0  0  0
 20 19  1  1  0  0  0
 20 21  1  0  0  0  0
 22 21  1  0  0  0  0
 23 24  1  0  0  0  0
 23 22  1  0  0  0  0
 25 20  1  0  0  0  0
 25 28  1  0  0  0  0
 27 28  2  0  0  0  0
 28 26  1  0  0  0  0
 29  4  1  0  0  0  0
 30 32  1  0  0  0  0
 30 29  1  1  0  0  0
 31 30  1  0  0  0  0
 31 32  1  0  0  0  0
M  END
>  <MODEL>
9

>  <REMARK>
 VINA RESULT:      -6.5      4.358      7.318
  Name = 
  11 active torsions:
  status: ('A' for Active; 'I' for Inactive)
    1  A    between atoms: C_2  and  C_5
    2  A    between atoms: C_3  and  O_8
    3  A    between atoms: C_3  and  C_22
    4  A    between atoms: N_4  and  C_24
    5  A    between atoms: O_8  and  C_20
    6  A    between atoms: C_13  and  C_18
    7  A    between atoms: N_14  and  C_18
    8  A    between atoms: N_15  and  C_20
    9  A    between atoms: N_15  and  C_26
   10  A    between atoms: C_16  and  C_20
   11  A    between atoms: C_16  and  C_24
                            x       y       z     vdW  Elec       q    Type
                         _______ _______ _______ _____ _____    ______ ____

>  <TORSDO>
F 11

$$$$
