=
 OpenBabel10272401553D

 28 32  0  0  1  0  0  0  0  0999 V2000
  189.9800  177.1160  142.7100 N   0  0  0  0  0  0  0  0  0  0  0  0
  185.0540  178.3640  142.8610 C   0  0  0  0  0  2  0  0  0  0  0  0
  188.9410  177.4960  147.4400 F   0  0  0  0  0  0  0  0  0  0  0  0
  184.5420  178.5630  145.2270 C   0  0  0  0  0  0  0  0  0  0  0  0
  186.7720  177.9680  144.4970 C   0  0  0  0  0  0  0  0  0  0  0  0
  182.8200  178.9590  143.5640 C   0  0  0  0  0  0  0  0  0  0  0  0
  185.4860  178.2900  144.2010 C   0  0  0  0  0  0  0  0  0  0  0  0
  186.2600  178.1700  146.9820 C   0  0  0  0  0  3  0  0  0  0  0  0
  183.2230  178.8930  144.8970 C   0  0  0  0  0  3  0  0  0  0  0  0
  189.4500  177.3020  145.1100 C   0  0  0  0  0  0  0  0  0  0  0  0
  187.7020  177.7030  143.4770 C   0  0  0  0  0  3  0  0  0  0  0  0
  184.8750  178.5140  146.5180 C   0  0  0  0  0  3  0  0  0  0  0  0
  191.6970  176.6840  144.3290 C   0  0  0  0  0  3  0  0  0  0  0  0
  188.5380  177.5650  146.1420 C   0  0  0  0  0  0  0  0  0  0  0  0
  190.7190  176.9750  145.3950 C   0  0  0  0  0  3  0  0  0  0  0  0
  181.4150  179.3110  143.2280 C   0  0  0  0  0  1  0  0  0  0  0  0
  183.7350  178.6940  142.5450 C   0  0  0  0  0  3  0  0  0  0  0  0
  187.2070  177.8970  145.8440 C   0  0  0  0  0  0  0  0  0  0  0  0
  191.3280  176.7530  143.0500 C   0  0  0  0  0  3  0  0  0  0  0  0
  189.0310  177.3770  143.7660 C   0  0  0  0  0  0  0  0  0  0  0  0
  189.6010  177.1870  141.2980 C   0  0  0  0  0  2  0  0  0  0  0  0
  190.6820  176.6270  140.3720 C   0  0  2  0  0  3  0  0  0  0  0  0
  192.5710  176.2470  138.2620 C   0  0  0  0  0  0  0  0  0  0  0  0
  191.8770  177.5720  140.2670 C   0  0  0  0  0  2  0  0  0  0  0  0
  190.1410  176.3260  138.9790 C   0  0  0  0  0  2  0  0  0  0  0  0
  191.2060  175.6120  138.1480 C   0  0  0  0  0  2  0  0  0  0  0  0
  193.6450  175.8050  137.3300 C   0  0  0  0  0  1  0  0  0  0  0  0
  192.8910  177.0750  139.2710 C   0  0  0  0  0  3  0  0  0  0  0  0
  1 19  1  0  0  0  0
  1 20  1  0  0  0  0
  2  7  1  0  0  0  0
  4 12  1  0  0  0  0
  5 18  1  0  0  0  0
  6  9  1  0  0  0  0
  7  5  2  0  0  0  0
  7  4  1  0  0  0  0
  9  4  2  0  0  0  0
 10 15  2  0  0  0  0
 10 14  1  0  0  0  0
 11 20  2  0  0  0  0
 11  5  1  0  0  0  0
 12  8  2  0  0  0  0
 13 15  1  0  0  0  0
 14  3  1  0  0  0  0
 16  6  1  0  0  0  0
 17  2  1  0  0  0  0
 17  6  2  0  0  0  0
 18 14  2  0  0  0  0
 18  8  1  0  0  0  0
 19 13  2  0  0  0  0
 20 10  1  0  0  0  0
 21  1  1  0  0  0  0
 22 21  1  1  0  0  0
 23 28  2  0  0  0  0
 24 22  1  0  0  0  0
 25 22  1  0  0  0  0
 26 23  1  0  0  0  0
 26 25  1  0  0  0  0
 27 23  1  0  0  0  0
 28 24  1  0  0  0  0
M  END
>  <MODEL>
1

>  <REMARK>
 VINA RESULT:     -11.8      0.000      0.000
  Name = 
  2 active torsions:
  status: ('A' for Active; 'I' for Inactive)
    1  A    between atoms: N_1  and  C_2
    2  A    between atoms: C_2  and  C_3
                            x       y       z     vdW  Elec       q    Type
                         _______ _______ _______ _____ _____    ______ ____

>  <TORSDO>
F 2

$$$$
=
 OpenBabel10272401553D

 28 32  0  0  1  0  0  0  0  0999 V2000
  187.1720  178.2640  140.9700 N   0  0  0  0  0  0  0  0  0  0  0  0
  190.3130  176.9680  144.7530 C   0  0  0  0  0  2  0  0  0  0  0  0
  184.4650  178.5740  144.9920 F   0  0  0  0  0  0  0  0  0  0  0  0
  188.9520  177.1150  146.7600 C   0  0  0  0  0  0  0  0  0  0  0  0
  188.0060  177.6330  144.5930 C   0  0  0  0  0  0  0  0  0  0  0  0
  191.2790  176.4470  146.9050 C   0  0  0  0  0  0  0  0  0  0  0  0
  189.0660  177.2480  145.3500 C   0  0  0  0  0  0  0  0  0  0  0  0
  186.5600  177.7940  146.6810 C   0  0  0  0  0  3  0  0  0  0  0  0
  190.0570  176.7170  147.5190 C   0  0  0  0  0  3  0  0  0  0  0  0
  185.8010  178.4280  143.0120 C   0  0  0  0  0  0  0  0  0  0  0  0
  188.1250  177.7590  143.1980 C   0  0  0  0  0  3  0  0  0  0  0  0
  187.8050  177.3620  147.3970 C   0  0  0  0  0  3  0  0  0  0  0  0
  184.8830  178.9620  140.7950 C   0  0  0  0  0  3  0  0  0  0  0  0
  185.6610  178.3060  144.4020 C   0  0  0  0  0  0  0  0  0  0  0  0
  184.7610  178.8160  142.2590 C   0  0  0  0  0  3  0  0  0  0  0  0
  192.4460  176.0250  147.7240 C   0  0  0  0  0  1  0  0  0  0  0  0
  191.4080  176.5720  145.5230 C   0  0  0  0  0  3  0  0  0  0  0  0
  186.7530  177.9110  145.1920 C   0  0  0  0  0  0  0  0  0  0  0  0
  186.0440  178.6970  140.1950 C   0  0  0  0  0  3  0  0  0  0  0  0
  187.0410  178.1460  142.4030 C   0  0  0  0  0  0  0  0  0  0  0  0
  188.4340  177.9770  140.2860 C   0  0  0  0  0  2  0  0  0  0  0  0
  188.2660  177.8720  138.7690 C   0  0  2  0  0  3  0  0  0  0  0  0
  188.6990  177.4520  135.9760 C   0  0  0  0  0  0  0  0  0  0  0  0
  188.5620  176.4600  138.2670 C   0  0  0  0  0  2  0  0  0  0  0  0
  189.1430  178.8750  138.0270 C   0  0  0  0  0  2  0  0  0  0  0  0
  188.8150  178.8500  136.5340 C   0  0  0  0  0  2  0  0  0  0  0  0
  188.6180  177.2780  134.4990 C   0  0  0  0  0  1  0  0  0  0  0  0
  188.5060  176.3830  136.7650 C   0  0  0  0  0  3  0  0  0  0  0  0
  1 20  1  0  0  0  0
  2  7  1  0  0  0  0
  2 17  1  0  0  0  0
  4 12  1  0  0  0  0
  4  9  2  0  0  0  0
  5 18  1  0  0  0  0
  5  7  2  0  0  0  0
  6  9  1  0  0  0  0
  6 16  1  0  0  0  0
  7  4  1  0  0  0  0
  8 12  2  0  0  0  0
 10 14  1  0  0  0  0
 11  5  1  0  0  0  0
 13 15  1  0  0  0  0
 14  3  1  0  0  0  0
 14 18  2  0  0  0  0
 15 10  2  0  0  0  0
 17  6  2  0  0  0  0
 18  8  1  0  0  0  0
 19 13  2  0  0  0  0
 19  1  1  0  0  0  0
 20 10  1  0  0  0  0
 20 11  2  0  0  0  0
 21  1  1  0  0  0  0
 22 21  1  1  0  0  0
 23 26  1  0  0  0  0
 23 28  2  0  0  0  0
 24 22  1  0  0  0  0
 25 22  1  0  0  0  0
 26 25  1  0  0  0  0
 27 23  1  0  0  0  0
 28 24  1  0  0  0  0
M  END
>  <MODEL>
2

>  <REMARK>
 VINA RESULT:     -11.8      2.505      5.435
  Name = 
  2 active torsions:
  status: ('A' for Active; 'I' for Inactive)
    1  A    between atoms: N_1  and  C_2
    2  A    between atoms: C_2  and  C_3
                            x       y       z     vdW  Elec       q    Type
                         _______ _______ _______ _____ _____    ______ ____

>  <TORSDO>
F 2

$$$$
=
 OpenBabel10272401553D

 28 32  0  0  1  0  0  0  0  0999 V2000
  189.7250  177.4980  141.6330 N   0  0  0  0  0  0  0  0  0  0  0  0
  184.8070  178.5080  142.4340 C   0  0  0  0  0  2  0  0  0  0  0  0
  189.2160  177.4360  146.4640 F   0  0  0  0  0  0  0  0  0  0  0  0
  184.5600  178.4860  144.8510 C   0  0  0  0  0  0  0  0  0  0  0  0
  186.7130  178.0540  143.8310 C   0  0  0  0  0  0  0  0  0  0  0  0
  182.6480  178.9420  143.4280 C   0  0  0  0  0  0  0  0  0  0  0  0
  185.3910  178.3420  143.7070 C   0  0  0  0  0  0  0  0  0  0  0  0
  186.4790  178.0260  146.3650 C   0  0  0  0  0  3  0  0  0  0  0  0
  183.2020  178.7830  144.6980 C   0  0  0  0  0  3  0  0  0  0  0  0
  189.4650  177.4600  144.0840 C   0  0  0  0  0  0  0  0  0  0  0  0
  187.5300  177.9170  142.6950 C   0  0  0  0  0  3  0  0  0  0  0  0
  185.0400  178.3440  146.0880 C   0  0  0  0  0  3  0  0  0  0  0  0
  191.6290  177.0100  143.0100 C   0  0  0  0  0  3  0  0  0  0  0  0
  188.6670  177.5960  145.2300 C   0  0  0  0  0  0  0  0  0  0  0  0
  190.7690  177.1670  144.1980 C   0  0  0  0  0  3  0  0  0  0  0  0
  181.2030  179.2570  143.2820 C   0  0  0  0  0  1  0  0  0  0  0  0
  183.4500  178.8040  142.2960 C   0  0  0  0  0  3  0  0  0  0  0  0
  187.3000  177.8910  145.1100 C   0  0  0  0  0  0  0  0  0  0  0  0
  191.1140  177.1680  141.7900 C   0  0  0  0  0  3  0  0  0  0  0  0
  188.8930  177.6280  142.8060 C   0  0  0  0  0  0  0  0  0  0  0  0
  189.1860  177.6690  140.2840 C   0  0  0  0  0  2  0  0  0  0  0  0
  189.7780  176.6720  139.2860 C   0  0  2  0  0  3  0  0  0  0  0  0
  190.8170  175.4160  136.9390 C   0  0  0  0  0  0  0  0  0  0  0  0
  191.0860  177.1830  138.6880 C   0  0  0  0  0  2  0  0  0  0  0  0
  188.7990  176.3350  138.1660 C   0  0  0  0  0  2  0  0  0  0  0  0
  189.3650  175.2130  137.2980 C   0  0  0  0  0  2  0  0  0  0  0  0
  191.4290  174.5310  135.9100 C   0  0  0  0  0  1  0  0  0  0  0  0
  191.6110  176.2550  137.6250 C   0  0  0  0  0  3  0  0  0  0  0  0
  1 19  1  0  0  0  0
  1 20  1  0  0  0  0
  2  7  1  0  0  0  0
  4 12  1  0  0  0  0
  5 18  1  0  0  0  0
  6  9  1  0  0  0  0
  7  5  2  0  0  0  0
  7  4  1  0  0  0  0
  9  4  2  0  0  0  0
 10 15  2  0  0  0  0
 10 14  1  0  0  0  0
 11 20  2  0  0  0  0
 11  5  1  0  0  0  0
 12  8  2  0  0  0  0
 13 15  1  0  0  0  0
 14  3  1  0  0  0  0
 16  6  1  0  0  0  0
 17  2  1  0  0  0  0
 17  6  2  0  0  0  0
 18 14  2  0  0  0  0
 18  8  1  0  0  0  0
 19 13  2  0  0  0  0
 20 10  1  0  0  0  0
 21  1  1  0  0  0  0
 22 21  1  1  0  0  0
 23 26  1  0  0  0  0
 23 28  2  0  0  0  0
 24 22  1  0  0  0  0
 25 22  1  0  0  0  0
 26 25  1  0  0  0  0
 27 23  1  0  0  0  0
 28 24  1  0  0  0  0
M  END
>  <MODEL>
3

>  <REMARK>
 VINA RESULT:     -11.0      1.032      1.286
  Name = 
  2 active torsions:
  status: ('A' for Active; 'I' for Inactive)
    1  A    between atoms: N_1  and  C_2
    2  A    between atoms: C_2  and  C_3
                            x       y       z     vdW  Elec       q    Type
                         _______ _______ _______ _____ _____    ______ ____

>  <TORSDO>
F 2

$$$$
=
 OpenBabel10272401553D

 28 32  0  0  1  0  0  0  0  0999 V2000
  190.2470  176.1400  143.7810 N   0  0  0  0  0  0  0  0  0  0  0  0
  185.4380  177.7370  143.3630 C   0  0  0  0  0  2  0  0  0  0  0  0
  189.3000  178.3460  148.0040 F   0  0  0  0  0  0  0  0  0  0  0  0
  184.9740  178.8480  145.4720 C   0  0  0  0  0  0  0  0  0  0  0  0
  187.1400  177.8500  145.0600 C   0  0  0  0  0  0  0  0  0  0  0  0
  183.2680  178.7260  143.7500 C   0  0  0  0  0  0  0  0  0  0  0  0
  185.8800  178.1370  144.6410 C   0  0  0  0  0  0  0  0  0  0  0  0
  186.6760  179.0090  147.2780 C   0  0  0  0  0  3  0  0  0  0  0  0
  183.6810  179.1330  145.0190 C   0  0  0  0  0  3  0  0  0  0  0  0
  189.7640  177.2530  145.9260 C   0  0  0  0  0  0  0  0  0  0  0  0
  188.0330  177.1490  144.2310 C   0  0  0  0  0  3  0  0  0  0  0  0
  185.3180  179.2610  146.6930 C   0  0  0  0  0  3  0  0  0  0  0  0
  191.9440  176.2130  145.4760 C   0  0  0  0  0  3  0  0  0  0  0  0
  188.8890  177.9560  146.7680 C   0  0  0  0  0  0  0  0  0  0  0  0
  191.0060  176.9580  146.3370 C   0  0  0  0  0  3  0  0  0  0  0  0
  181.8920  179.0360  143.2820 C   0  0  0  0  0  1  0  0  0  0  0  0
  184.1460  178.0270  142.9230 C   0  0  0  0  0  3  0  0  0  0  0  0
  187.5840  178.2550  146.3420 C   0  0  0  0  0  0  0  0  0  0  0  0
  191.5650  175.8260  144.2570 C   0  0  0  0  0  3  0  0  0  0  0  0
  189.3350  176.8520  144.6450 C   0  0  0  0  0  0  0  0  0  0  0  0
  189.8570  175.7060  142.4390 C   0  0  0  0  0  2  0  0  0  0  0  0
  189.8230  176.8610  141.4370 C   0  0  2  0  0  3  0  0  0  0  0  0
  189.3260  178.5150  139.1600 C   0  0  0  0  0  0  0  0  0  0  0  0
  188.3930  177.3100  141.1430 C   0  0  0  0  0  2  0  0  0  0  0  0
  190.5280  176.5060  140.1320 C   0  0  0  0  0  2  0  0  0  0  0  0
  190.6190  177.7400  139.2360 C   0  0  0  0  0  2  0  0  0  0  0  0
  189.2000  179.5980  138.1460 C   0  0  0  0  0  1  0  0  0  0  0  0
  188.3530  178.3700  140.0750 C   0  0  0  0  0  3  0  0  0  0  0  0
  1 19  1  0  0  0  0
  1 20  1  0  0  0  0
  2  7  1  0  0  0  0
  4 12  1  0  0  0  0
  5 18  1  0  0  0  0
  6  9  1  0  0  0  0
  7  5  2  0  0  0  0
  7  4  1  0  0  0  0
  9  4  2  0  0  0  0
 10 15  2  0  0  0  0
 10 14  1  0  0  0  0
 11 20  2  0  0  0  0
 11  5  1  0  0  0  0
 12  8  2  0  0  0  0
 13 15  1  0  0  0  0
 14  3  1  0  0  0  0
 16  6  1  0  0  0  0
 17  2  1  0  0  0  0
 17  6  2  0  0  0  0
 18 14  2  0  0  0  0
 18  8  1  0  0  0  0
 19 13  2  0  0  0  0
 20 10  1  0  0  0  0
 21  1  1  0  0  0  0
 22 21  1  1  0  0  0
 23 26  1  0  0  0  0
 23 28  2  0  0  0  0
 24 22  1  0  0  0  0
 25 22  1  0  0  0  0
 26 25  1  0  0  0  0
 27 23  1  0  0  0  0
 28 24  1  0  0  0  0
M  END
>  <MODEL>
4

>  <REMARK>
 VINA RESULT:     -10.8      1.405      2.052
  Name = 
  2 active torsions:
  status: ('A' for Active; 'I' for Inactive)
    1  A    between atoms: N_1  and  C_2
    2  A    between atoms: C_2  and  C_3
                            x       y       z     vdW  Elec       q    Type
                         _______ _______ _______ _____ _____    ______ ____

>  <TORSDO>
F 2

$$$$
=
 OpenBabel10272401553D

 28 32  0  0  1  0  0  0  0  0999 V2000
  186.6180  178.3680  139.9930 N   0  0  0  0  0  0  0  0  0  0  0  0
  187.9060  178.0210  144.9000 C   0  0  0  0  0  2  0  0  0  0  0  0
  182.4640  179.0510  142.4180 F   0  0  0  0  0  0  0  0  0  0  0  0
  185.8240  178.3530  146.1070 C   0  0  0  0  0  0  0  0  0  0  0  0
  185.8650  178.4170  143.6870 C   0  0  0  0  0  0  0  0  0  0  0  0
  187.8900  177.9540  147.3140 C   0  0  0  0  0  0  0  0  0  0  0  0
  186.5170  178.2680  144.8700 C   0  0  0  0  0  0  0  0  0  0  0  0
  183.6720  178.7670  144.9300 C   0  0  0  0  0  3  0  0  0  0  0  0
  186.5160  178.1960  147.3120 C   0  0  0  0  0  3  0  0  0  0  0  0
  184.5120  178.7220  141.2240 C   0  0  0  0  0  0  0  0  0  0  0  0
  186.5570  178.3280  142.4670 C   0  0  0  0  0  3  0  0  0  0  0  0
  184.5110  178.5830  146.1600 C   0  0  0  0  0  3  0  0  0  0  0  0
  184.5990  178.7960  138.7690 C   0  0  0  0  0  3  0  0  0  0  0  0
  183.8030  178.8120  142.4310 C   0  0  0  0  0  0  0  0  0  0  0  0
  183.8760  178.8770  140.0530 C   0  0  0  0  0  3  0  0  0  0  0  0
  188.6130  177.7880  148.6030 C   0  0  0  0  0  1  0  0  0  0  0  0
  188.5850  177.8670  146.1090 C   0  0  0  0  0  3  0  0  0  0  0  0
  184.4700  178.6610  143.6570 C   0  0  0  0  0  0  0  0  0  0  0  0
  185.9110  178.5550  138.7570 C   0  0  0  0  0  3  0  0  0  0  0  0
  185.8990  178.4710  141.2410 C   0  0  0  0  0  0  0  0  0  0  0  0
  188.0560  178.1030  139.9530 C   0  0  0  0  0  2  0  0  0  0  0  0
  188.5090  177.5340  138.6070 C   0  0  2  0  0  3  0  0  0  0  0  0
  190.0430  176.7500  136.3270 C   0  0  0  0  0  0  0  0  0  0  0  0
  189.6180  176.4970  138.7780 C   0  0  0  0  0  2  0  0  0  0  0  0
  188.9730  178.6280  137.6510 C   0  0  0  0  0  2  0  0  0  0  0  0
  189.2490  178.0330  136.2710 C   0  0  0  0  0  2  0  0  0  0  0  0
  190.5840  176.1900  135.0580 C   0  0  0  0  0  1  0  0  0  0  0  0
  190.1400  176.0200  137.4490 C   0  0  0  0  0  3  0  0  0  0  0  0
  1 20  1  0  0  0  0
  2 17  1  0  0  0  0
  3 14  1  0  0  0  0
  4 12  1  0  0  0  0
  4  9  2  0  0  0  0
  5  7  2  0  0  0  0
  6 16  1  0  0  0  0
  7  2  1  0  0  0  0
  7  4  1  0  0  0  0
  8 12  2  0  0  0  0
  9  6  1  0  0  0  0
 10 20  1  0  0  0  0
 10 14  1  0  0  0  0
 11  5  1  0  0  0  0
 13 15  1  0  0  0  0
 14 18  2  0  0  0  0
 15 10  2  0  0  0  0
 17  6  2  0  0  0  0
 18  5  1  0  0  0  0
 18  8  1  0  0  0  0
 19 13  2  0  0  0  0
 19  1  1  0  0  0  0
 20 11  2  0  0  0  0
 21  1  1  0  0  0  0
 22 24  1  0  0  0  0
 22 21  1  1  0  0  0
 23 28  2  0  0  0  0
 25 22  1  0  0  0  0
 26 23  1  0  0  0  0
 26 25  1  0  0  0  0
 27 23  1  0  0  0  0
 28 24  1  0  0  0  0
M  END
>  <MODEL>
5

>  <REMARK>
 VINA RESULT:     -10.8      2.654      5.022
  Name = 
  2 active torsions:
  status: ('A' for Active; 'I' for Inactive)
    1  A    between atoms: N_1  and  C_2
    2  A    between atoms: C_2  and  C_3
                            x       y       z     vdW  Elec       q    Type
                         _______ _______ _______ _____ _____    ______ ____

>  <TORSDO>
F 2

$$$$
=
 OpenBabel10272401553D

 28 32  0  0  1  0  0  0  0  0999 V2000
  188.4140  178.0290  140.7210 N   0  0  0  0  0  0  0  0  0  0  0  0
  190.9910  176.7970  144.9280 C   0  0  0  0  0  2  0  0  0  0  0  0
  185.1430  178.2940  144.3030 F   0  0  0  0  0  0  0  0  0  0  0  0
  189.3490  176.9210  146.7130 C   0  0  0  0  0  0  0  0  0  0  0  0
  188.7200  177.4180  144.4290 C   0  0  0  0  0  0  0  0  0  0  0  0
  191.6420  176.2960  147.1990 C   0  0  0  0  0  0  0  0  0  0  0  0
  189.6650  177.0540  145.3350 C   0  0  0  0  0  0  0  0  0  0  0  0
  186.9820  177.5550  146.2830 C   0  0  0  0  0  3  0  0  0  0  0  0
  190.3380  176.5440  147.6280 C   0  0  0  0  0  3  0  0  0  0  0  0
  186.7560  178.1710  142.5400 C   0  0  0  0  0  0  0  0  0  0  0  0
  189.0400  177.5450  143.0660 C   0  0  0  0  0  3  0  0  0  0  0  0
  188.1170  177.1470  147.1750 C   0  0  0  0  0  3  0  0  0  0  0  0
  186.1620  178.6850  140.2110 C   0  0  0  0  0  3  0  0  0  0  0  0
  186.4170  178.0470  143.8950 C   0  0  0  0  0  0  0  0  0  0  0  0
  185.8310  178.5380  141.6420 C   0  0  0  0  0  3  0  0  0  0  0  0
  192.6830  175.8960  148.1820 C   0  0  0  0  0  1  0  0  0  0  0  0
  191.9690  176.4220  145.8500 C   0  0  0  0  0  3  0  0  0  0  0  0
  187.3880  177.6730  144.8380 C   0  0  0  0  0  0  0  0  0  0  0  0
  187.4030  178.4400  139.7870 C   0  0  0  0  0  3  0  0  0  0  0  0
  188.0770  177.9110  142.1210 C   0  0  0  0  0  0  0  0  0  0  0  0
  189.7660  177.7650  140.2300 C   0  0  0  0  0  2  0  0  0  0  0  0
  189.7690  177.0240  138.8920 C   0  0  2  0  0  3  0  0  0  0  0  0
  190.4560  176.0060  136.3120 C   0  0  0  0  0  0  0  0  0  0  0  0
  190.9930  176.1210  138.7510 C   0  0  0  0  0  2  0  0  0  0  0  0
  189.6990  177.9820  137.7080 C   0  0  0  0  0  2  0  0  0  0  0  0
  189.5300  177.1950  136.4090 C   0  0  0  0  0  2  0  0  0  0  0  0
  190.5670  175.2930  135.0090 C   0  0  0  0  0  1  0  0  0  0  0  0
  191.0540  175.4780  137.3920 C   0  0  0  0  0  3  0  0  0  0  0  0
  1 20  1  0  0  0  0
  2  7  1  0  0  0  0
  2 17  1  0  0  0  0
  4 12  1  0  0  0  0
  4  9  2  0  0  0  0
  5 18  1  0  0  0  0
  5  7  2  0  0  0  0
  6  9  1  0  0  0  0
  6 16  1  0  0  0  0
  7  4  1  0  0  0  0
  8 12  2  0  0  0  0
 10 14  1  0  0  0  0
 11  5  1  0  0  0  0
 13 15  1  0  0  0  0
 14  3  1  0  0  0  0
 14 18  2  0  0  0  0
 15 10  2  0  0  0  0
 17  6  2  0  0  0  0
 18  8  1  0  0  0  0
 19 13  2  0  0  0  0
 19  1  1  0  0  0  0
 20 10  1  0  0  0  0
 20 11  2  0  0  0  0
 21  1  1  0  0  0  0
 22 21  1  1  0  0  0
 23 26  1  0  0  0  0
 23 28  2  0  0  0  0
 24 22  1  0  0  0  0
 25 22  1  0  0  0  0
 26 25  1  0  0  0  0
 27 23  1  0  0  0  0
 28 24  1  0  0  0  0
M  END
>  <MODEL>
6

>  <REMARK>
 VINA RESULT:     -10.8      2.186      5.201
  Name = 
  2 active torsions:
  status: ('A' for Active; 'I' for Inactive)
    1  A    between atoms: N_1  and  C_2
    2  A    between atoms: C_2  and  C_3
                            x       y       z     vdW  Elec       q    Type
                         _______ _______ _______ _____ _____    ______ ____

>  <TORSDO>
F 2

$$$$
=
 OpenBabel10272401553D

 28 32  0  0  1  0  0  0  0  0999 V2000
  183.4140  178.3910  141.3930 N   0  0  0  0  0  0  0  0  0  0  0  0
  188.1300  177.2910  142.9430 C   0  0  0  0  0  2  0  0  0  0  0  0
  183.3540  179.1560  146.1900 F   0  0  0  0  0  0  0  0  0  0  0  0
  188.0920  177.6660  145.3430 C   0  0  0  0  0  0  0  0  0  0  0  0
  186.1060  178.0360  144.0090 C   0  0  0  0  0  0  0  0  0  0  0  0
  190.1250  176.9150  144.2530 C   0  0  0  0  0  0  0  0  0  0  0  0
  187.4120  177.6730  144.0950 C   0  0  0  0  0  0  0  0  0  0  0  0
  186.0410  178.4350  146.5220 C   0  0  0  0  0  3  0  0  0  0  0  0
  189.4370  177.2880  145.4070 C   0  0  0  0  0  3  0  0  0  0  0  0
  183.3860  178.7860  143.8260 C   0  0  0  0  0  0  0  0  0  0  0  0
  185.4390  178.0380  142.7720 C   0  0  0  0  0  3  0  0  0  0  0  0
  187.4800  178.0130  146.4760 C   0  0  0  0  0  3  0  0  0  0  0  0
  181.3960  179.1670  142.4350 C   0  0  0  0  0  3  0  0  0  0  0  0
  184.0330  178.7880  145.0700 C   0  0  0  0  0  0  0  0  0  0  0  0
  182.0990  179.1510  143.7320 C   0  0  0  0  0  3  0  0  0  0  0  0
  191.5550  176.5160  144.3360 C   0  0  0  0  0  1  0  0  0  0  0  0
  189.4720  176.9170  143.0210 C   0  0  0  0  0  3  0  0  0  0  0  0
  185.3840  178.4160  145.1670 C   0  0  0  0  0  0  0  0  0  0  0  0
  182.0400  178.8030  141.3250 C   0  0  0  0  0  3  0  0  0  0  0  0
  184.0930  178.4020  142.6680 C   0  0  0  0  0  0  0  0  0  0  0  0
  184.0970  177.9950  140.1610 C   0  0  0  0  0  2  0  0  0  0  0  0
  183.1290  177.4740  139.0970 C   0  0  2  0  0  3  0  0  0  0  0  0
  181.9360  176.0630  136.9170 C   0  0  0  0  0  0  0  0  0  0  0  0
  182.9270  175.9640  139.2110 C   0  0  0  0  0  2  0  0  0  0  0  0
  183.5880  177.8250  137.6860 C   0  0  0  0  0  2  0  0  0  0  0  0
  182.5090  177.4380  136.6750 C   0  0  0  0  0  2  0  0  0  0  0  0
  181.0530  175.4640  135.8780 C   0  0  0  0  0  1  0  0  0  0  0  0
  182.0630  175.4350  138.0970 C   0  0  0  0  0  3  0  0  0  0  0  0
  1 20  1  0  0  0  0
  2 17  1  0  0  0  0
  2  7  1  0  0  0  0
  4  9  2  0  0  0  0
  4 12  1  0  0  0  0
  5  7  2  0  0  0  0
  5 18  1  0  0  0  0
  6 16  1  0  0  0  0
  6  9  1  0  0  0  0
  7  4  1  0  0  0  0
 10 14  1  0  0  0  0
 11  5  1  0  0  0  0
 12  8  2  0  0  0  0
 13 15  1  0  0  0  0
 14 18  2  0  0  0  0
 14  3  1  0  0  0  0
 15 10  2  0  0  0  0
 17  6  2  0  0  0  0
 18  8  1  0  0  0  0
 19  1  1  0  0  0  0
 19 13  2  0  0  0  0
 20 11  2  0  0  0  0
 20 10  1  0  0  0  0
 21  1  1  0  0  0  0
 22 24  1  0  0  0  0
 22 21  1  1  0  0  0
 23 28  2  0  0  0  0
 25 22  1  0  0  0  0
 26 23  1  0  0  0  0
 26 25  1  0  0  0  0
 27 23  1  0  0  0  0
 28 24  1  0  0  0  0
M  END
>  <MODEL>
7

>  <REMARK>
 VINA RESULT:     -10.7      3.451      7.215
  Name = 
  2 active torsions:
  status: ('A' for Active; 'I' for Inactive)
    1  A    between atoms: N_1  and  C_2
    2  A    between atoms: C_2  and  C_3
                            x       y       z     vdW  Elec       q    Type
                         _______ _______ _______ _____ _____    ______ ____

>  <TORSDO>
F 2

$$$$
=
 OpenBabel10272401553D

 28 32  0  0  1  0  0  0  0  0999 V2000
  187.0980  178.3480  139.6980 N   0  0  0  0  0  0  0  0  0  0  0  0
  187.6010  177.7770  144.7260 C   0  0  0  0  0  2  0  0  0  0  0  0
  191.8040  177.3460  140.3690 F   0  0  0  0  0  0  0  0  0  0  0  0
  189.9570  177.2860  145.0560 C   0  0  0  0  0  0  0  0  0  0  0  0
  189.0790  177.6570  142.8310 C   0  0  0  0  0  0  0  0  0  0  0  0
  188.4530  177.4110  146.9560 C   0  0  0  0  0  0  0  0  0  0  0  0
  188.8820  177.5750  144.1720 C   0  0  0  0  0  0  0  0  0  0  0  0
  191.5510  177.1440  143.1520 C   0  0  0  0  0  3  0  0  0  0  0  0
  189.7300  177.2070  146.4340 C   0  0  0  0  0  3  0  0  0  0  0  0
  189.4840  177.8320  140.0390 C   0  0  0  0  0  0  0  0  0  0  0  0
  188.0120  177.9460  141.9630 C   0  0  0  0  0  3  0  0  0  0  0  0
  191.1970  177.0830  144.6080 C   0  0  0  0  0  3  0  0  0  0  0  0
  188.5510  178.1980  137.7940 C   0  0  0  0  0  3  0  0  0  0  0  0
  190.5620  177.5450  140.8880 C   0  0  0  0  0  0  0  0  0  0  0  0
  189.6690  177.9060  138.7120 C   0  0  0  0  0  3  0  0  0  0  0  0
  188.2270  177.3240  148.4230 C   0  0  0  0  0  1  0  0  0  0  0  0
  187.3890  177.6950  146.1020 C   0  0  0  0  0  3  0  0  0  0  0  0
  190.3670  177.4570  142.2760 C   0  0  0  0  0  0  0  0  0  0  0  0
  187.3260  178.4040  138.2820 C   0  0  0  0  0  3  0  0  0  0  0  0
  188.1990  178.0410  140.5800 C   0  0  0  0  0  0  0  0  0  0  0  0
  185.7460  178.5810  140.2070 C   0  0  0  0  0  2  0  0  0  0  0  0
  184.7070  178.6730  139.0880 C   0  0  2  0  0  3  0  0  0  0  0  0
  182.2820  178.6520  137.5760 C   0  0  0  0  0  0  0  0  0  0  0  0
  183.6220  179.6980  139.4100 C   0  0  0  0  0  2  0  0  0  0  0  0
  184.0640  177.3210  138.7920 C   0  0  0  0  0  2  0  0  0  0  0  0
  183.1670  177.4280  137.5600 C   0  0  0  0  0  2  0  0  0  0  0  0
  181.1950  178.7600  136.5640 C   0  0  0  0  0  1  0  0  0  0  0  0
  182.5410  179.7090  138.3630 C   0  0  0  0  0  3  0  0  0  0  0  0
  1 21  1  0  0  0  0
  1 20  1  0  0  0  0
  2 17  1  0  0  0  0
  3 14  1  0  0  0  0
  4  9  2  0  0  0  0
  5  7  2  0  0  0  0
  6 16  1  0  0  0  0
  7  2  1  0  0  0  0
  7  4  1  0  0  0  0
  8 12  2  0  0  0  0
  9  6  1  0  0  0  0
 10 20  1  0  0  0  0
 10 14  1  0  0  0  0
 11  5  1  0  0  0  0
 12  4  1  0  0  0  0
 13 19  2  0  0  0  0
 13 15  1  0  0  0  0
 14 18  2  0  0  0  0
 15 10  2  0  0  0  0
 17  6  2  0  0  0  0
 18  5  1  0  0  0  0
 18  8  1  0  0  0  0
 19  1  1  0  0  0  0
 20 11  2  0  0  0  0
 22 24  1  0  0  0  0
 22 21  1  1  0  0  0
 23 28  2  0  0  0  0
 25 22  1  0  0  0  0
 26 23  1  0  0  0  0
 26 25  1  0  0  0  0
 27 23  1  0  0  0  0
 28 24  1  0  0  0  0
M  END
>  <MODEL>
8

>  <REMARK>
 VINA RESULT:     -10.2      3.187      6.796
  Name = 
  2 active torsions:
  status: ('A' for Active; 'I' for Inactive)
    1  A    between atoms: N_1  and  C_2
    2  A    between atoms: C_2  and  C_3
                            x       y       z     vdW  Elec       q    Type
                         _______ _______ _______ _____ _____    ______ ____

>  <TORSDO>
F 2

$$$$
=
 OpenBabel10272401553D

 28 32  0  0  1  0  0  0  0  0999 V2000
  188.9770  177.8180  138.3170 N   0  0  0  0  0  0  0  0  0  0  0  0
  185.6450  178.6370  142.0690 C   0  0  0  0  0  2  0  0  0  0  0  0
  191.2070  176.2210  142.3260 F   0  0  0  0  0  0  0  0  0  0  0  0
  186.7690  177.8460  144.0720 C   0  0  0  0  0  0  0  0  0  0  0  0
  187.8620  177.7120  141.9170 C   0  0  0  0  0  0  0  0  0  0  0  0
  184.5340  178.7810  144.2090 C   0  0  0  0  0  0  0  0  0  0  0  0
  186.7830  178.0570  142.6670 C   0  0  0  0  0  0  0  0  0  0  0  0
  189.0590  176.8780  144.0010 C   0  0  0  0  0  3  0  0  0  0  0  0
  185.6470  178.2090  144.8250 C   0  0  0  0  0  3  0  0  0  0  0  0
  190.1050  177.0010  140.3500 C   0  0  0  0  0  0  0  0  0  0  0  0
  187.8700  177.9260  140.5270 C   0  0  0  0  0  3  0  0  0  0  0  0
  187.8070  177.3040  144.7100 C   0  0  0  0  0  3  0  0  0  0  0  0
  191.1740  176.8670  138.1410 C   0  0  0  0  0  3  0  0  0  0  0  0
  190.1170  176.7820  141.7350 C   0  0  0  0  0  0  0  0  0  0  0  0
  191.1630  176.6560  139.6010 C   0  0  0  0  0  3  0  0  0  0  0  0
  183.3490  179.1620  145.0220 C   0  0  0  0  0  1  0  0  0  0  0  0
  184.5320  178.9940  142.8320 C   0  0  0  0  0  3  0  0  0  0  0  0
  189.0060  177.1330  142.5180 C   0  0  0  0  0  0  0  0  0  0  0  0
  190.1190  177.4210  137.5410 C   0  0  0  0  0  3  0  0  0  0  0  0
  188.9750  177.5850  139.7420 C   0  0  0  0  0  0  0  0  0  0  0  0
  187.8350  178.4260  137.6340 C   0  0  0  0  0  2  0  0  0  0  0  0
  186.8040  177.3900  137.1800 C   0  0  2  0  0  3  0  0  0  0  0  0
  184.5830  176.0710  135.9600 C   0  0  0  0  0  0  0  0  0  0  0  0
  186.7520  177.2780  135.6580 C   0  0  0  0  0  2  0  0  0  0  0  0
  185.4110  177.6940  137.7210 C   0  0  0  0  0  2  0  0  0  0  0  0
  184.4590  176.5470  137.3880 C   0  0  0  0  0  2  0  0  0  0  0  0
  183.5600  175.1260  135.4320 C   0  0  0  0  0  1  0  0  0  0  0  0
  185.6620  176.3420  135.2080 C   0  0  0  0  0  3  0  0  0  0  0  0
  1 20  1  0  0  0  0
  2  7  1  0  0  0  0
  2 17  1  0  0  0  0
  4 12  1  0  0  0  0
  4  9  2  0  0  0  0
  5 18  1  0  0  0  0
  5  7  2  0  0  0  0
  6  9  1  0  0  0  0
  6 16  1  0  0  0  0
  7  4  1  0  0  0  0
  8 12  2  0  0  0  0
 10 14  1  0  0  0  0
 11  5  1  0  0  0  0
 13 15  1  0  0  0  0
 14  3  1  0  0  0  0
 14 18  2  0  0  0  0
 15 10  2  0  0  0  0
 17  6  2  0  0  0  0
 18  8  1  0  0  0  0
 19 13  2  0  0  0  0
 19  1  1  0  0  0  0
 20 10  1  0  0  0  0
 20 11  2  0  0  0  0
 21  1  1  0  0  0  0
 22 21  1  6  0  0  0
 22 25  1  0  0  0  0
 23 26  1  0  0  0  0
 24 22  1  0  0  0  0
 26 25  1  0  0  0  0
 27 23  1  0  0  0  0
 28 24  1  0  0  0  0
 28 23  2  0  0  0  0
M  END
>  <MODEL>
9

>  <REMARK>
 VINA RESULT:      -9.9      3.372      5.077
  Name = 
  2 active torsions:
  status: ('A' for Active; 'I' for Inactive)
    1  A    between atoms: N_1  and  C_2
    2  A    between atoms: C_2  and  C_3
                            x       y       z     vdW  Elec       q    Type
                         _______ _______ _______ _____ _____    ______ ____

>  <TORSDO>
F 2

$$$$
