=
 OpenBabel10272402093D

 32 37  0  0  1  0  0  0  0  0999 V2000
  189.0570  178.4670  138.9370 C   0  0  1  0  0  3  0  0  0  0  0  0
  190.4490  176.9010  140.0640 C   0  0  1  0  0  0  0  0  0  0  0  0
  186.8660  174.9570  136.9780 C   0  0  0  0  0  0  0  0  0  0  0  0
  187.6750  178.5670  138.6480 O   0  0  0  0  0  0  0  0  0  0  0  0
  189.2210  177.7310  140.2480 C   0  0  1  0  0  3  0  0  0  0  0  0
  190.8360  176.0400  141.2580 C   0  0  2  0  0  3  0  0  0  0  0  0
  186.6320  173.7180  136.9440 O   0  0  0  0  0  0  0  0  0  0  0  0
  190.5600  176.4670  138.6080 C   0  0  1  0  0  3  0  0  0  0  0  0
  190.1170  176.4360  142.5840 C   0  0  1  0  0  3  0  0  0  0  0  0
  185.7210  175.9350  136.8480 C   0  0  1  0  0  3  0  0  0  0  0  0
  187.2820  177.5850  137.7680 C   0  0  0  0  0  0  0  0  0  0  0  0
  191.7390  177.1970  140.8200 C   0  0  0  0  0  2  0  0  0  0  0  0
  189.1890  178.4980  141.5240 C   0  0  0  0  0  3  0  0  0  0  0  0
  186.0230  177.1640  137.6570 C   0  0  0  0  0  3  0  0  0  0  0  0
  188.2190  175.4470  137.1070 N   0  0  0  0  0  0  0  0  0  0  0  0
  189.2970  174.5520  136.7110 C   0  0  0  0  0  1  0  0  0  0  0  0
  189.6400  177.4770  137.8810 C   0  0  1  0  0  3  0  0  0  0  0  0
  191.0620  176.1140  143.7310 C   0  0  0  0  0  1  0  0  0  0  0  0
  188.4240  176.9080  137.1010 C   0  0  2  0  0  3  0  0  0  0  0  0
  189.5720  177.8810  142.6480 C   0  0  0  0  0  0  0  0  0  0  0  0
  194.1530  175.4620  138.0380 O   0  0  0  0  0  0  0  0  0  0  0  0
  193.3260  176.8110  136.2240 C   0  0  0  0  0  2  0  0  0  0  0  0
  191.9910  176.6540  136.6420 O   0  0  0  0  0  0  0  0  0  0  0  0
  191.9960  176.5330  138.0490 C   0  0  2  0  0  3  0  0  0  0  0  0
  194.1430  175.5790  136.6340 C   0  0  0  0  0  2  0  0  0  0  0  0
  192.8180  175.3030  138.4580 C   0  0  0  0  0  2  0  0  0  0  0  0
  189.3590  178.5790  143.8820 N   0  0  0  0  0  2  0  0  0  0  0  0
  188.6450  178.0400  145.0270 C   0  0  0  0  0  2  0  0  0  0  0  0
  187.2710  177.5770  144.5920 C   0  0  0  0  0  1  0  0  0  0  0  0
  185.5090  176.3190  135.3900 C   0  0  0  0  0  2  0  0  0  0  0  0
  183.0500  176.1290  135.5970 C   0  0  0  0  0  1  0  0  0  0  0  0
  184.1910  177.0490  135.2180 C   0  0  0  0  0  2  0  0  0  0  0  0
  1  4  1  6  0  0  0
  1  5  1  0  0  0  0
  2  5  1  0  0  0  0
  2 12  1  1  0  0  0
  2  6  1  0  0  0  0
  3 15  1  0  0  0  0
  5 13  1  1  0  0  0
  6 12  1  1  0  0  0
  6  9  1  0  0  0  0
  7  3  2  0  0  0  0
  8 24  1  6  0  0  0
  8  2  1  0  0  0  0
  9 20  1  0  0  0  0
  9 18  1  1  0  0  0
 10 30  1  6  0  0  0
 10  3  1  0  0  0  0
 10 14  1  0  0  0  0
 11  4  1  0  0  0  0
 13 20  2  0  0  0  0
 14 11  2  0  0  0  0
 16 15  1  0  0  0  0
 17  8  1  0  0  0  0
 17  1  1  0  0  0  0
 19 15  1  0  0  0  0
 19 11  1  0  0  0  0
 19 17  1  0  0  0  0
 20 27  1  0  0  0  0
 21 26  1  0  0  0  0
 22 25  1  0  0  0  0
 22 23  1  0  0  0  0
 23 24  1  0  0  0  0
 24 26  1  0  0  0  0
 25 21  1  0  0  0  0
 27 28  1  0  0  0  0
 29 28  1  0  0  0  0
 32 30  1  0  0  0  0
 32 31  1  0  0  0  0
M  END
>  <MODEL>
1

>  <REMARK>
 VINA RESULT:      -5.6      0.000      0.000
  Name = 
  5 active torsions:
  status: ('A' for Active; 'I' for Inactive)
    1  A    between atoms: C_10  and  C_28
    2  A    between atoms: N_14  and  C_21
    3  A    between atoms: N_14  and  C_29
    4  A    between atoms: C_15  and  C_19
    5  A    between atoms: C_19  and  C_26
                            x       y       z     vdW  Elec       q    Type
                         _______ _______ _______ _____ _____    ______ ____

>  <TORSDO>
F 5

$$$$
=
 OpenBabel10272402093D

 32 37  0  0  1  0  0  0  0  0999 V2000
  192.4370  177.4220  139.3900 C   0  0  1  0  0  3  0  0  0  0  0  0
  191.2300  175.9610  137.9520 C   0  0  1  0  0  0  0  0  0  0  0  0
  189.5040  176.3770  142.7470 C   0  0  0  0  0  0  0  0  0  0  0  0
  192.8830  177.3780  140.7340 O   0  0  0  0  0  0  0  0  0  0  0  0
  192.4290  176.0130  138.8420 C   0  0  1  0  0  3  0  0  0  0  0  0
  190.9840  174.6220  137.2720 C   0  0  2  0  0  3  0  0  0  0  0  0
  188.5910  175.6250  143.1830 O   0  0  0  0  0  0  0  0  0  0  0  0
  190.1380  176.8650  138.5110 C   0  0  1  0  0  3  0  0  0  0  0  0
  192.2060  173.6530  137.3190 C   0  0  1  0  0  3  0  0  0  0  0  0
  190.6380  176.7780  143.6630 C   0  0  1  0  0  3  0  0  0  0  0  0
  191.8210  177.3960  141.6070 C   0  0  0  0  0  0  0  0  0  0  0  0
  191.3590  175.8510  136.4380 C   0  0  0  0  0  2  0  0  0  0  0  0
  193.6680  175.4620  138.2270 C   0  0  0  0  0  3  0  0  0  0  0  0
  191.8950  176.9400  142.8570 C   0  0  0  0  0  3  0  0  0  0  0  0
  189.4590  176.8820  141.3950 N   0  0  0  0  0  0  0  0  0  0  0  0
  188.1610  176.9220  140.7360 C   0  0  0  0  0  1  0  0  0  0  0  0
  190.9250  177.8020  139.4590 C   0  0  1  0  0  3  0  0  0  0  0  0
  192.1600  172.7970  136.0630 C   0  0  0  0  0  1  0  0  0  0  0  0
  190.5410  177.7880  140.9640 C   0  0  2  0  0  3  0  0  0  0  0  0
  193.5830  174.3190  137.5370 C   0  0  0  0  0  0  0  0  0  0  0  0
  187.5960  177.6310  135.8300 O   0  0  0  0  0  0  0  0  0  0  0  0
  188.4110  179.6470  136.8610 C   0  0  0  0  0  2  0  0  0  0  0  0
  188.9880  178.9340  137.9300 O   0  0  0  0  0  0  0  0  0  0  0  0
  189.3930  177.6760  137.4330 C   0  0  2  0  0  3  0  0  0  0  0  0
  187.1910  178.8840  136.3310 C   0  0  0  0  0  2  0  0  0  0  0  0
  188.1710  176.9150  136.8980 C   0  0  0  0  0  2  0  0  0  0  0  0
  194.8140  173.7180  137.1140 N   0  0  0  0  0  2  0  0  0  0  0  0
  195.7040  172.9570  137.9750 C   0  0  0  0  0  2  0  0  0  0  0  0
  195.4320  171.4780  137.8010 C   0  0  0  0  0  1  0  0  0  0  0  0
  190.3130  178.0850  144.3740 C   0  0  0  0  0  2  0  0  0  0  0  0
  190.2570  176.9600  146.5770 C   0  0  0  0  0  1  0  0  0  0  0  0
  189.4750  177.8240  145.6120 C   0  0  0  0  0  2  0  0  0  0  0  0
  1 17  1  0  0  0  0
  1  4  1  1  0  0  0
  2 12  1  6  0  0  0
  2  8  1  0  0  0  0
  2  5  1  0  0  0  0
  3  7  2  0  0  0  0
  3 10  1  0  0  0  0
  4 11  1  0  0  0  0
  5 13  1  6  0  0  0
  5  1  1  0  0  0  0
  6 12  1  6  0  0  0
  6  9  1  0  0  0  0
  6  2  1  0  0  0  0
  8 24  1  6  0  0  0
  8 17  1  0  0  0  0
  9 18  1  6  0  0  0
  9 20  1  0  0  0  0
 10 30  1  6  0  0  0
 11 14  2  0  0  0  0
 14 10  1  0  0  0  0
 15  3  1  0  0  0  0
 16 15  1  0  0  0  0
 17 19  1  0  0  0  0
 19 15  1  0  0  0  0
 19 11  1  0  0  0  0
 20 13  2  0  0  0  0
 21 25  1  0  0  0  0
 21 26  1  0  0  0  0
 22 23  1  0  0  0  0
 24 23  1  0  0  0  0
 25 22  1  0  0  0  0
 26 24  1  0  0  0  0
 27 20  1  0  0  0  0
 27 28  1  0  0  0  0
 29 28  1  0  0  0  0
 30 32  1  0  0  0  0
 32 31  1  0  0  0  0
M  END
>  <MODEL>
2

>  <REMARK>
 VINA RESULT:      -5.6      2.503      7.127
  Name = 
  5 active torsions:
  status: ('A' for Active; 'I' for Inactive)
    1  A    between atoms: C_10  and  C_28
    2  A    between atoms: N_14  and  C_21
    3  A    between atoms: N_14  and  C_29
    4  A    between atoms: C_15  and  C_19
    5  A    between atoms: C_19  and  C_26
                            x       y       z     vdW  Elec       q    Type
                         _______ _______ _______ _____ _____    ______ ____

>  <TORSDO>
F 5

$$$$
=
 OpenBabel10272402093D

 32 37  0  0  1  0  0  0  0  0999 V2000
  184.5700  179.5150  139.9630 C   0  0  1  0  0  3  0  0  0  0  0  0
  186.3500  178.2140  140.8550 C   0  0  1  0  0  0  0  0  0  0  0  0
  182.9690  175.7430  137.9210 C   0  0  0  0  0  0  0  0  0  0  0  0
  183.1750  179.3390  139.7910 O   0  0  0  0  0  0  0  0  0  0  0  0
  185.0010  178.7560  141.1970 C   0  0  1  0  0  3  0  0  0  0  0  0
  187.0130  177.3850  141.9460 C   0  0  2  0  0  3  0  0  0  0  0  0
  182.9900  174.4870  137.8120 O   0  0  0  0  0  0  0  0  0  0  0  0
  186.4120  177.8970  139.3660 C   0  0  1  0  0  3  0  0  0  0  0  0
  186.3540  177.5440  143.3510 C   0  0  1  0  0  3  0  0  0  0  0  0
  181.6410  176.4650  137.9570 C   0  0  1  0  0  3  0  0  0  0  0  0
  182.9110  178.3500  138.8740 C   0  0  0  0  0  0  0  0  0  0  0  0
  187.6170  178.7290  141.5270 C   0  0  0  0  0  2  0  0  0  0  0  0
  184.9320  179.4230  142.5260 C   0  0  0  0  0  3  0  0  0  0  0  0
  181.7600  177.6820  138.8300 C   0  0  0  0  0  3  0  0  0  0  0  0
  184.1990  176.4980  137.9800 N   0  0  0  0  0  0  0  0  0  0  0  0
  185.3950  175.8730  137.4340 C   0  0  0  0  0  1  0  0  0  0  0  0
  185.2420  178.7320  138.7920 C   0  0  1  0  0  3  0  0  0  0  0  0
  187.4470  177.3610  144.3920 C   0  0  0  0  0  1  0  0  0  0  0  0
  184.1000  177.9670  138.0690 C   0  0  2  0  0  3  0  0  0  0  0  0
  185.5350  178.8360  143.5660 C   0  0  0  0  0  0  0  0  0  0  0  0
  189.9560  177.5360  138.1200 O   0  0  0  0  0  0  0  0  0  0  0  0
  188.7820  179.2630  136.9230 C   0  0  0  0  0  2  0  0  0  0  0  0
  187.5350  178.8330  137.4130 O   0  0  0  0  0  0  0  0  0  0  0  0
  187.7460  178.2950  138.7020 C   0  0  2  0  0  3  0  0  0  0  0  0
  189.7400  178.0690  136.8340 C   0  0  0  0  0  2  0  0  0  0  0  0
  188.7090  177.1030  138.6120 C   0  0  0  0  0  2  0  0  0  0  0  0
  185.2990  179.4020  144.8630 N   0  0  0  0  0  2  0  0  0  0  0  0
  184.4760  178.7940  145.8950 C   0  0  0  0  0  2  0  0  0  0  0  0
  185.3430  178.4290  147.0820 C   0  0  0  0  0  1  0  0  0  0  0  0
  181.2210  176.8790  136.5530 C   0  0  0  0  0  2  0  0  0  0  0  0
  180.6210  179.0900  135.6170 C   0  0  0  0  0  1  0  0  0  0  0  0
  180.2220  178.0200  136.6100 C   0  0  0  0  0  2  0  0  0  0  0  0
  1  4  1  6  0  0  0
  1  5  1  0  0  0  0
  2  5  1  0  0  0  0
  2 12  1  1  0  0  0
  2  6  1  0  0  0  0
  3 10  1  0  0  0  0
  3 15  1  0  0  0  0
  5 13  1  1  0  0  0
  6 12  1  1  0  0  0
  6  9  1  0  0  0  0
  7  3  2  0  0  0  0
  8 24  1  6  0  0  0
  8  2  1  0  0  0  0
  9 20  1  0  0  0  0
  9 18  1  1  0  0  0
 10 30  1  6  0  0  0
 10 14  1  0  0  0  0
 11  4  1  0  0  0  0
 13 20  2  0  0  0  0
 14 11  2  0  0  0  0
 15 19  1  0  0  0  0
 16 15  1  0  0  0  0
 17  8  1  0  0  0  0
 17  1  1  0  0  0  0
 19 17  1  0  0  0  0
 19 11  1  0  0  0  0
 20 27  1  0  0  0  0
 21 26  1  0  0  0  0
 22 23  1  0  0  0  0
 23 24  1  0  0  0  0
 25 22  1  0  0  0  0
 25 21  1  0  0  0  0
 26 24  1  0  0  0  0
 27 28  1  0  0  0  0
 28 29  1  0  0  0  0
 30 32  1  0  0  0  0
 31 32  1  0  0  0  0
M  END
>  <MODEL>
3

>  <REMARK>
 VINA RESULT:      -5.4      2.887      4.400
  Name = 
  5 active torsions:
  status: ('A' for Active; 'I' for Inactive)
    1  A    between atoms: C_10  and  C_28
    2  A    between atoms: N_14  and  C_21
    3  A    between atoms: N_14  and  C_29
    4  A    between atoms: C_15  and  C_19
    5  A    between atoms: C_19  and  C_26
                            x       y       z     vdW  Elec       q    Type
                         _______ _______ _______ _____ _____    ______ ____

>  <TORSDO>
F 5

$$$$
=
 OpenBabel10272402093D

 32 37  0  0  1  0  0  0  0  0999 V2000
  185.5710  178.6710  138.9090 C   0  0  1  0  0  3  0  0  0  0  0  0
  183.6040  177.4010  139.3310 C   0  0  1  0  0  0  0  0  0  0  0  0
  187.1950  177.3160  142.9690 C   0  0  0  0  0  0  0  0  0  0  0  0
  186.9610  178.4710  139.0850 O   0  0  0  0  0  0  0  0  0  0  0  0
  184.9240  177.3320  138.6350 C   0  0  1  0  0  3  0  0  0  0  0  0
  182.7440  176.1500  139.2170 C   0  0  2  0  0  3  0  0  0  0  0  0
  187.1090  176.5370  143.9570 O   0  0  0  0  0  0  0  0  0  0  0  0
  183.7290  178.2570  140.5840 C   0  0  1  0  0  3  0  0  0  0  0  0
  183.2100  175.1600  138.1050 C   0  0  1  0  0  3  0  0  0  0  0  0
  188.5480  177.5920  142.3550 C   0  0  1  0  0  3  0  0  0  0  0  0
  187.2860  178.4110  140.4200 C   0  0  0  0  0  0  0  0  0  0  0  0
  182.2920  177.4570  138.5570 C   0  0  0  0  0  2  0  0  0  0  0  0
  184.8500  176.8290  137.2360 C   0  0  0  0  0  3  0  0  0  0  0  0
  188.3880  177.8190  140.8790 C   0  0  0  0  0  3  0  0  0  0  0  0
  186.0190  177.9690  142.4420 N   0  0  0  0  0  0  0  0  0  0  0  0
  184.8730  178.1050  143.3290 C   0  0  0  0  0  1  0  0  0  0  0  0
  185.0190  179.0690  140.3140 C   0  0  1  0  0  3  0  0  0  0  0  0
  181.9730  174.4490  137.5780 C   0  0  0  0  0  1  0  0  0  0  0  0
  186.1990  178.8960  141.3080 C   0  0  2  0  0  3  0  0  0  0  0  0
  184.0720  175.7710  136.9790 C   0  0  0  0  0  0  0  0  0  0  0  0
  181.0600  180.8020  139.7840 O   0  0  0  0  0  0  0  0  0  0  0  0
  180.4380  179.4500  141.6750 C   0  0  0  0  0  2  0  0  0  0  0  0
  181.4460  178.5060  141.4030 O   0  0  0  0  0  0  0  0  0  0  0  0
  182.5290  179.1970  140.8160 C   0  0  2  0  0  3  0  0  0  0  0  0
  179.9820  180.1080  140.3660 C   0  0  0  0  0  2  0  0  0  0  0  0
  182.0700  179.8600  139.5090 C   0  0  0  0  0  2  0  0  0  0  0  0
  184.1610  175.1980  135.6680 N   0  0  0  0  0  2  0  0  0  0  0  0
  183.8610  175.9030  134.4330 C   0  0  0  0  0  2  0  0  0  0  0  0
  182.4990  176.5550  134.5430 C   0  0  0  0  0  1  0  0  0  0  0  0
  189.1850  178.8180  142.9960 C   0  0  0  0  0  2  0  0  0  0  0  0
  190.1180  177.9930  145.1330 C   0  0  0  0  0  1  0  0  0  0  0  0
  190.4580  178.4370  143.7270 C   0  0  0  0  0  2  0  0  0  0  0  0
  1  4  1  1  0  0  0
  1 17  1  0  0  0  0
  2 12  1  6  0  0  0
  2  8  1  0  0  0  0
  3  7  2  0  0  0  0
  4 11  1  0  0  0  0
  5 13  1  6  0  0  0
  5  1  1  0  0  0  0
  5  2  1  0  0  0  0
  6 12  1  6  0  0  0
  6  2  1  0  0  0  0
  8 24  1  6  0  0  0
  9 18  1  6  0  0  0
  9  6  1  0  0  0  0
 10  3  1  0  0  0  0
 10 30  1  1  0  0  0
 11 14  2  0  0  0  0
 11 19  1  0  0  0  0
 14 10  1  0  0  0  0
 15  3  1  0  0  0  0
 15 16  1  0  0  0  0
 17  8  1  0  0  0  0
 17 19  1  0  0  0  0
 19 15  1  0  0  0  0
 20 13  2  0  0  0  0
 20  9  1  0  0  0  0
 21 25  1  0  0  0  0
 23 22  1  0  0  0  0
 24 23  1  0  0  0  0
 25 22  1  0  0  0  0
 26 21  1  0  0  0  0
 26 24  1  0  0  0  0
 27 20  1  0  0  0  0
 28 29  1  0  0  0  0
 28 27  1  0  0  0  0
 30 32  1  0  0  0  0
 32 31  1  0  0  0  0
M  END
>  <MODEL>
4

>  <REMARK>
 VINA RESULT:      -5.3      3.740      9.119
  Name = 
  5 active torsions:
  status: ('A' for Active; 'I' for Inactive)
    1  A    between atoms: C_10  and  C_28
    2  A    between atoms: N_14  and  C_21
    3  A    between atoms: N_14  and  C_29
    4  A    between atoms: C_15  and  C_19
    5  A    between atoms: C_19  and  C_26
                            x       y       z     vdW  Elec       q    Type
                         _______ _______ _______ _____ _____    ______ ____

>  <TORSDO>
F 5

$$$$
=
 OpenBabel10272402093D

 32 37  0  0  1  0  0  0  0  0999 V2000
  189.7370  174.6180  137.2600 C   0  0  1  0  0  3  0  0  0  0  0  0
  191.7120  175.8950  137.6210 C   0  0  1  0  0  0  0  0  0  0  0  0
  187.4500  178.5270  136.5950 C   0  0  0  0  0  0  0  0  0  0  0  0
  188.6580  174.6610  136.3450 O   0  0  0  0  0  0  0  0  0  0  0  0
  190.9760  175.1360  136.5650 C   0  0  1  0  0  3  0  0  0  0  0  0
  193.0150  176.5380  137.1700 C   0  0  2  0  0  3  0  0  0  0  0  0
  187.4820  179.7710  136.3870 O   0  0  0  0  0  0  0  0  0  0  0  0
  190.7150  176.5320  138.5810 C   0  0  1  0  0  3  0  0  0  0  0  0
  193.5480  176.0000  135.8050 C   0  0  1  0  0  3  0  0  0  0  0  0
  186.4970  177.6630  135.8010 C   0  0  1  0  0  3  0  0  0  0  0  0
  187.8940  175.7880  136.5360 C   0  0  0  0  0  0  0  0  0  0  0  0
  193.0340  175.3980  138.1930 C   0  0  0  0  0  2  0  0  0  0  0  0
  191.8270  174.1910  135.7900 C   0  0  0  0  0  3  0  0  0  0  0  0
  187.1110  176.3090  135.5910 C   0  0  0  0  0  3  0  0  0  0  0  0
  188.2920  177.9290  137.6060 N   0  0  0  0  0  0  0  0  0  0  0  0
  188.7810  178.7940  138.6690 C   0  0  0  0  0  1  0  0  0  0  0  0
  189.4280  175.7100  138.3310 C   0  0  1  0  0  3  0  0  0  0  0  0
  195.0650  176.0800  135.8440 C   0  0  0  0  0  1  0  0  0  0  0  0
  188.1750  176.4740  137.8220 C   0  0  2  0  0  3  0  0  0  0  0  0
  193.0340  174.6050  135.3860 C   0  0  0  0  0  0  0  0  0  0  0  0
  192.4540  177.4870  141.7920 O   0  0  0  0  0  0  0  0  0  0  0  0
  190.4900  176.1630  142.2230 C   0  0  0  0  0  2  0  0  0  0  0  0
  190.0160  176.3380  140.9090 O   0  0  0  0  0  0  0  0  0  0  0  0
  191.1400  176.4490  140.0610 C   0  0  2  0  0  3  0  0  0  0  0  0
  191.3290  177.3800  142.6330 C   0  0  0  0  0  2  0  0  0  0  0  0
  191.9810  177.6630  140.4760 C   0  0  0  0  0  2  0  0  0  0  0  0
  193.7530  173.7470  134.4900 N   0  0  0  0  0  2  0  0  0  0  0  0
  194.1210  172.3710  134.7770 C   0  0  0  0  0  2  0  0  0  0  0  0
  194.9900  172.3300  136.0170 C   0  0  0  0  0  1  0  0  0  0  0  0
  185.1710  177.5180  136.5350 C   0  0  0  0  0  2  0  0  0  0  0  0
  183.0540  177.2720  135.2800 C   0  0  0  0  0  1  0  0  0  0  0  0
  184.2660  176.5390  135.8120 C   0  0  0  0  0  2  0  0  0  0  0  0
  1  4  1  6  0  0  0
  1 17  1  0  0  0  0
  2 12  1  1  0  0  0
  2  8  1  0  0  0  0
  3 15  1  0  0  0  0
  4 11  1  0  0  0  0
  5 13  1  1  0  0  0
  5  1  1  0  0  0  0
  5  2  1  0  0  0  0
  6  2  1  0  0  0  0
  6 12  1  1  0  0  0
  7  3  2  0  0  0  0
  8 24  1  1  0  0  0
  9 18  1  1  0  0  0
  9  6  1  0  0  0  0
 10 30  1  1  0  0  0
 10  3  1  0  0  0  0
 11 19  1  0  0  0  0
 14 10  1  0  0  0  0
 14 11  2  0  0  0  0
 15 19  1  0  0  0  0
 15 16  1  0  0  0  0
 17  8  1  0  0  0  0
 19 17  1  0  0  0  0
 20 13  2  0  0  0  0
 20  9  1  0  0  0  0
 21 25  1  0  0  0  0
 22 25  1  0  0  0  0
 23 22  1  0  0  0  0
 24 26  1  0  0  0  0
 24 23  1  0  0  0  0
 26 21  1  0  0  0  0
 27 28  1  0  0  0  0
 27 20  1  0  0  0  0
 28 29  1  0  0  0  0
 31 32  1  0  0  0  0
 32 30  1  0  0  0  0
M  END
>  <MODEL>
5

>  <REMARK>
 VINA RESULT:      -5.3      2.278      5.832
  Name = 
  5 active torsions:
  status: ('A' for Active; 'I' for Inactive)
    1  A    between atoms: C_10  and  C_28
    2  A    between atoms: N_14  and  C_21
    3  A    between atoms: N_14  and  C_29
    4  A    between atoms: C_15  and  C_19
    5  A    between atoms: C_19  and  C_26
                            x       y       z     vdW  Elec       q    Type
                         _______ _______ _______ _____ _____    ______ ____

>  <TORSDO>
F 5

$$$$
=
 OpenBabel10272402093D

 32 37  0  0  1  0  0  0  0  0999 V2000
  183.9050  178.2480  139.0010 C   0  0  1  0  0  3  0  0  0  0  0  0
  181.7540  177.5090  138.3030 C   0  0  1  0  0  0  0  0  0  0  0  0
  182.2730  178.6500  143.2600 C   0  0  0  0  0  0  0  0  0  0  0  0
  184.7490  178.0000  140.1110 O   0  0  0  0  0  0  0  0  0  0  0  0
  183.0940  177.0020  138.7270 C   0  0  1  0  0  3  0  0  0  0  0  0
  180.7280  176.4350  137.9720 C   0  0  2  0  0  3  0  0  0  0  0  0
  181.3570  178.3990  144.0900 O   0  0  0  0  0  0  0  0  0  0  0  0
  181.4450  178.8110  139.0320 C   0  0  1  0  0  3  0  0  0  0  0  0
  181.3400  175.0140  137.7740 C   0  0  1  0  0  3  0  0  0  0  0  0
  183.7170  178.4830  143.6720 C   0  0  1  0  0  3  0  0  0  0  0  0
  184.2020  178.4980  141.2690 C   0  0  0  0  0  0  0  0  0  0  0  0
  181.2560  177.3590  136.8700 C   0  0  0  0  0  2  0  0  0  0  0  0
  183.6550  175.9470  137.8390 C   0  0  0  0  0  3  0  0  0  0  0  0
  184.5270  178.0540  142.4820 C   0  0  0  0  0  3  0  0  0  0  0  0
  181.9540  179.1260  141.9340 N   0  0  0  0  0  0  0  0  0  0  0  0
  180.6570  179.7580  141.7420 C   0  0  0  0  0  1  0  0  0  0  0  0
  182.8440  179.2790  139.5000 C   0  0  1  0  0  3  0  0  0  0  0  0
  180.4730  174.2800  136.7630 C   0  0  0  0  0  1  0  0  0  0  0  0
  183.0750  179.4360  141.0270 C   0  0  2  0  0  3  0  0  0  0  0  0
  182.8410  174.9730  137.4140 C   0  0  0  0  0  0  0  0  0  0  0  0
  179.9840  182.1500  138.0530 O   0  0  0  0  0  0  0  0  0  0  0  0
  180.7360  180.9270  136.1220 C   0  0  0  0  0  2  0  0  0  0  0  0
  181.4630  180.0150  136.9120 O   0  0  0  0  0  0  0  0  0  0  0  0
  180.7800  179.8780  138.1410 C   0  0  2  0  0  3  0  0  0  0  0  0
  180.6710  182.2850  136.8310 C   0  0  0  0  0  2  0  0  0  0  0  0
  180.7100  181.2400  138.8470 C   0  0  0  0  0  2  0  0  0  0  0  0
  183.4450  173.8760  136.7150 N   0  0  0  0  0  2  0  0  0  0  0  0
  184.0000  172.6930  137.3510 C   0  0  0  0  0  2  0  0  0  0  0  0
  183.1800  171.4810  136.9650 C   0  0  0  0  0  1  0  0  0  0  0  0
  184.2700  179.7910  144.2240 C   0  0  0  0  0  2  0  0  0  0  0  0
  184.8550  178.4240  146.2020 C   0  0  0  0  0  1  0  0  0  0  0  0
  185.3320  179.5200  145.2730 C   0  0  0  0  0  2  0  0  0  0  0  0
  1 17  1  0  0  0  0
  1  4  1  1  0  0  0
  2 12  1  6  0  0  0
  2  5  1  0  0  0  0
  2  8  1  0  0  0  0
  3 10  1  0  0  0  0
  3  7  2  0  0  0  0
  4 11  1  0  0  0  0
  5 13  1  6  0  0  0
  5  1  1  0  0  0  0
  6 12  1  6  0  0  0
  6  2  1  0  0  0  0
  8 24  1  6  0  0  0
  8 17  1  0  0  0  0
  9 18  1  6  0  0  0
  9  6  1  0  0  0  0
 10 30  1  6  0  0  0
 11 14  2  0  0  0  0
 14 10  1  0  0  0  0
 15  3  1  0  0  0  0
 16 15  1  0  0  0  0
 17 19  1  0  0  0  0
 19 11  1  0  0  0  0
 19 15  1  0  0  0  0
 20  9  1  0  0  0  0
 20 13  2  0  0  0  0
 21 26  1  0  0  0  0
 22 25  1  0  0  0  0
 22 23  1  0  0  0  0
 23 24  1  0  0  0  0
 24 26  1  0  0  0  0
 25 21  1  0  0  0  0
 27 28  1  0  0  0  0
 27 20  1  0  0  0  0
 29 28  1  0  0  0  0
 30 32  1  0  0  0  0
 32 31  1  0  0  0  0
M  END
>  <MODEL>
6

>  <REMARK>
 VINA RESULT:      -5.2      6.126     10.013
  Name = 
  5 active torsions:
  status: ('A' for Active; 'I' for Inactive)
    1  A    between atoms: C_10  and  C_28
    2  A    between atoms: N_14  and  C_21
    3  A    between atoms: N_14  and  C_29
    4  A    between atoms: C_15  and  C_19
    5  A    between atoms: C_19  and  C_26
                            x       y       z     vdW  Elec       q    Type
                         _______ _______ _______ _____ _____    ______ ____

>  <TORSDO>
F 5

$$$$
=
 OpenBabel10272402093D

 32 37  0  0  1  0  0  0  0  0999 V2000
  188.6270  178.0760  138.0370 C   0  0  1  0  0  3  0  0  0  0  0  0
  186.7050  176.7140  137.7070 C   0  0  1  0  0  0  0  0  0  0  0  0
  188.4950  177.0090  142.4870 C   0  0  0  0  0  0  0  0  0  0  0  0
  189.8300  177.9660  138.7760 O   0  0  0  0  0  0  0  0  0  0  0  0
  188.1950  176.6900  137.6140 C   0  0  1  0  0  3  0  0  0  0  0  0
  186.0100  175.4120  137.3380 C   0  0  2  0  0  3  0  0  0  0  0  0
  188.0400  176.2730  143.4050 O   0  0  0  0  0  0  0  0  0  0  0  0
  186.2770  177.6340  138.8440 C   0  0  1  0  0  3  0  0  0  0  0  0
  186.9230  174.3990  136.5790 C   0  0  1  0  0  3  0  0  0  0  0  0
  189.9710  177.3350  142.4590 C   0  0  1  0  0  3  0  0  0  0  0  0
  189.5830  177.9880  140.1290 C   0  0  0  0  0  0  0  0  0  0  0  0
  185.8220  176.6580  136.4660 C   0  0  0  0  0  2  0  0  0  0  0  0
  188.7170  176.1190  136.3420 C   0  0  0  0  0  3  0  0  0  0  0  0
  190.4200  177.4820  141.0330 C   0  0  0  0  0  3  0  0  0  0  0  0
  187.6160  177.5660  141.4860 N   0  0  0  0  0  0  0  0  0  0  0  0
  186.2030  177.6760  141.8200 C   0  0  0  0  0  1  0  0  0  0  0  0
  187.5360  178.5060  139.0680 C   0  0  1  0  0  3  0  0  0  0  0  0
  186.0350  173.5940  135.6440 C   0  0  0  0  0  1  0  0  0  0  0  0
  188.2110  178.4490  140.4650 C   0  0  2  0  0  3  0  0  0  0  0  0
  188.1490  175.0070  135.8620 C   0  0  0  0  0  0  0  0  0  0  0  0
  182.6650  178.5270  138.2190 O   0  0  0  0  0  0  0  0  0  0  0  0
  183.9400  180.4590  138.8760 C   0  0  0  0  0  2  0  0  0  0  0  0
  185.0180  179.6680  139.3160 O   0  0  0  0  0  0  0  0  0  0  0  0
  185.0560  178.5120  138.5060 C   0  0  2  0  0  3  0  0  0  0  0  0
  182.6290  179.6770  139.0310 C   0  0  0  0  0  2  0  0  0  0  0  0
  183.7410  177.7330  138.6580 C   0  0  0  0  0  2  0  0  0  0  0  0
  188.7860  174.3800  134.7410 N   0  0  0  0  0  2  0  0  0  0  0  0
  189.9200  173.4750  134.8320 C   0  0  0  0  0  2  0  0  0  0  0  0
  189.4220  172.0460  134.8750 C   0  0  0  0  0  1  0  0  0  0  0  0
  190.2480  178.6240  143.2200 C   0  0  0  0  0  2  0  0  0  0  0  0
  191.4220  177.3260  144.9690 C   0  0  0  0  0  1  0  0  0  0  0  0
  191.5290  178.5040  144.0240 C   0  0  0  0  0  2  0  0  0  0  0  0
  1  4  1  1  0  0  0
  1 17  1  0  0  0  0
  2 12  1  6  0  0  0
  2  8  1  0  0  0  0
  3  7  2  0  0  0  0
  4 11  1  0  0  0  0
  5 13  1  6  0  0  0
  5  2  1  0  0  0  0
  5  1  1  0  0  0  0
  6 12  1  6  0  0  0
  6  2  1  0  0  0  0
  8 24  1  6  0  0  0
  8 17  1  0  0  0  0
  9 18  1  6  0  0  0
  9  6  1  0  0  0  0
 10  3  1  0  0  0  0
 10 30  1  1  0  0  0
 11 19  1  0  0  0  0
 11 14  2  0  0  0  0
 14 10  1  0  0  0  0
 15 16  1  0  0  0  0
 15  3  1  0  0  0  0
 17 19  1  0  0  0  0
 19 15  1  0  0  0  0
 20 13  2  0  0  0  0
 20  9  1  0  0  0  0
 21 26  1  0  0  0  0
 21 25  1  0  0  0  0
 22 25  1  0  0  0  0
 22 23  1  0  0  0  0
 24 26  1  0  0  0  0
 24 23  1  0  0  0  0
 27 28  1  0  0  0  0
 27 20  1  0  0  0  0
 28 29  1  0  0  0  0
 30 32  1  0  0  0  0
 32 31  1  0  0  0  0
M  END
>  <MODEL>
7

>  <REMARK>
 VINA RESULT:      -5.1      2.618      7.916
  Name = 
  5 active torsions:
  status: ('A' for Active; 'I' for Inactive)
    1  A    between atoms: C_10  and  C_28
    2  A    between atoms: N_14  and  C_21
    3  A    between atoms: N_14  and  C_29
    4  A    between atoms: C_15  and  C_19
    5  A    between atoms: C_19  and  C_26
                            x       y       z     vdW  Elec       q    Type
                         _______ _______ _______ _____ _____    ______ ____

>  <TORSDO>
F 5

$$$$
=
 OpenBabel10272402093D

 32 37  0  0  1  0  0  0  0  0999 V2000
  186.9480  178.7850  138.8670 C   0  0  1  0  0  3  0  0  0  0  0  0
  188.7580  177.2730  139.1790 C   0  0  1  0  0  0  0  0  0  0  0  0
  184.3070  175.2280  137.7140 C   0  0  0  0  0  0  0  0  0  0  0  0
  185.5690  178.7920  139.1890 O   0  0  0  0  0  0  0  0  0  0  0  0
  187.6830  177.9930  139.9260 C   0  0  1  0  0  3  0  0  0  0  0  0
  189.6520  176.3800  140.0280 C   0  0  2  0  0  3  0  0  0  0  0  0
  184.1390  173.9780  137.6790 O   0  0  0  0  0  0  0  0  0  0  0  0
  188.2670  176.9300  137.7790 C   0  0  1  0  0  3  0  0  0  0  0  0
  189.5390  176.6460  141.5620 C   0  0  1  0  0  3  0  0  0  0  0  0
  183.1680  176.1190  138.1540 C   0  0  1  0  0  3  0  0  0  0  0  0
  184.8910  177.8330  138.4740 C   0  0  0  0  0  0  0  0  0  0  0  0
  190.2300  177.6270  139.3520 C   0  0  0  0  0  2  0  0  0  0  0  0
  188.1550  178.6840  141.1580 C   0  0  0  0  0  3  0  0  0  0  0  0
  183.7230  177.3220  138.8620 C   0  0  0  0  0  3  0  0  0  0  0  0
  185.5630  175.8140  137.3090 N   0  0  0  0  0  0  0  0  0  0  0  0
  186.4160  175.0290  136.4280 C   0  0  0  0  0  1  0  0  0  0  0  0
  187.0800  177.9030  137.5860 C   0  0  1  0  0  3  0  0  0  0  0  0
  190.8930  176.3350  142.1800 C   0  0  0  0  0  1  0  0  0  0  0  0
  185.6770  177.2850  137.3390 C   0  0  2  0  0  3  0  0  0  0  0  0
  189.0030  178.0370  141.9650 C   0  0  0  0  0  0  0  0  0  0  0  0
  191.2280  176.1570  135.5700 O   0  0  0  0  0  0  0  0  0  0  0  0
  189.7680  177.7690  134.5390 C   0  0  0  0  0  2  0  0  0  0  0  0
  188.7310  177.4980  135.4530 O   0  0  0  0  0  0  0  0  0  0  0  0
  189.3300  177.1380  136.6810 C   0  0  2  0  0  3  0  0  0  0  0  0
  190.6260  176.5120  134.3470 C   0  0  0  0  0  2  0  0  0  0  0  0
  190.1930  175.8840  136.4860 C   0  0  0  0  0  2  0  0  0  0  0  0
  189.2960  178.6480  143.2290 N   0  0  0  0  0  2  0  0  0  0  0  0
  188.8890  178.1180  144.5190 C   0  0  0  0  0  2  0  0  0  0  0  0
  187.6130  177.3180  144.3560 C   0  0  0  0  0  1  0  0  0  0  0  0
  182.3440  176.5650  136.9540 C   0  0  0  0  0  2  0  0  0  0  0  0
  180.3600  175.5910  138.0650 C   0  0  0  0  0  1  0  0  0  0  0  0
  181.1390  175.6620  136.7700 C   0  0  0  0  0  2  0  0  0  0  0  0
  1  4  1  1  0  0  0
  1  5  1  0  0  0  0
  2 12  1  6  0  0  0
  2  5  1  0  0  0  0
  2  6  1  0  0  0  0
  3 10  1  0  0  0  0
  5 13  1  1  0  0  0
  6 12  1  6  0  0  0
  6  9  1  0  0  0  0
  7  3  2  0  0  0  0
  8 24  1  6  0  0  0
  8  2  1  0  0  0  0
  9 20  1  0  0  0  0
  9 18  1  1  0  0  0
 10 30  1  6  0  0  0
 10 14  1  0  0  0  0
 11 14  2  0  0  0  0
 11  4  1  0  0  0  0
 13 20  2  0  0  0  0
 15 19  1  0  0  0  0
 15  3  1  0  0  0  0
 16 15  1  0  0  0  0
 17  8  1  0  0  0  0
 17  1  1  0  0  0  0
 19 17  1  0  0  0  0
 19 11  1  0  0  0  0
 20 27  1  0  0  0  0
 21 26  1  0  0  0  0
 22 23  1  0  0  0  0
 23 24  1  0  0  0  0
 25 22  1  0  0  0  0
 25 21  1  0  0  0  0
 26 24  1  0  0  0  0
 27 28  1  0  0  0  0
 29 28  1  0  0  0  0
 32 30  1  0  0  0  0
 32 31  1  0  0  0  0
M  END
>  <MODEL>
8

>  <REMARK>
 VINA RESULT:      -5.0      1.898      2.652
  Name = 
  5 active torsions:
  status: ('A' for Active; 'I' for Inactive)
    1  A    between atoms: C_10  and  C_28
    2  A    between atoms: N_14  and  C_21
    3  A    between atoms: N_14  and  C_29
    4  A    between atoms: C_15  and  C_19
    5  A    between atoms: C_19  and  C_26
                            x       y       z     vdW  Elec       q    Type
                         _______ _______ _______ _____ _____    ______ ____

>  <TORSDO>
F 5

$$$$
=
 OpenBabel10272402093D

 32 37  0  0  1  0  0  0  0  0999 V2000
  191.3870  177.5970  139.4550 C   0  0  1  0  0  3  0  0  0  0  0  0
  189.8130  176.2630  138.2710 C   0  0  1  0  0  0  0  0  0  0  0  0
  189.2220  176.5240  143.3430 C   0  0  0  0  0  0  0  0  0  0  0  0
  192.1180  177.4690  140.6610 O   0  0  0  0  0  0  0  0  0  0  0  0
  191.1810  176.2180  138.8700 C   0  0  1  0  0  3  0  0  0  0  0  0
  189.3490  174.9710  137.6140 C   0  0  2  0  0  3  0  0  0  0  0  0
  188.3890  175.7930  143.9450 O   0  0  0  0  0  0  0  0  0  0  0  0
  188.9240  177.1870  139.0940 C   0  0  1  0  0  3  0  0  0  0  0  0
  190.4960  173.9470  137.3490 C   0  0  1  0  0  3  0  0  0  0  0  0
  190.5520  176.8290  143.9950 C   0  0  1  0  0  3  0  0  0  0  0  0
  191.2790  177.4920  141.7500 C   0  0  0  0  0  0  0  0  0  0  0  0
  189.5950  176.2210  136.7630 C   0  0  0  0  0  2  0  0  0  0  0  0
  192.2200  175.6420  137.9720 C   0  0  0  0  0  3  0  0  0  0  0  0
  191.6050  176.9730  142.9340 C   0  0  0  0  0  3  0  0  0  0  0  0
  188.9050  177.0950  142.0550 N   0  0  0  0  0  0  0  0  0  0  0  0
  187.4970  177.2240  141.7070 C   0  0  0  0  0  1  0  0  0  0  0  0
  189.9510  178.0410  139.8750 C   0  0  1  0  0  3  0  0  0  0  0  0
  190.1250  173.1560  136.1050 C   0  0  0  0  0  1  0  0  0  0  0  0
  189.9120  177.9710  141.4260 C   0  0  2  0  0  3  0  0  0  0  0  0
  191.9210  174.5390  137.2770 C   0  0  0  0  0  0  0  0  0  0  0  0
  187.9420  179.8390  136.5960 O   0  0  0  0  0  0  0  0  0  0  0  0
  186.1970  178.2030  136.8620 C   0  0  0  0  0  2  0  0  0  0  0  0
  187.0580  177.3100  137.5280 O   0  0  0  0  0  0  0  0  0  0  0  0
  188.0020  178.0820  138.2410 C   0  0  2  0  0  3  0  0  0  0  0  0
  187.0050  179.0660  135.8840 C   0  0  0  0  0  2  0  0  0  0  0  0
  188.8060  178.9490  137.2620 C   0  0  0  0  0  2  0  0  0  0  0  0
  192.9930  173.9050  136.5660 N   0  0  0  0  0  2  0  0  0  0  0  0
  194.4050  174.1080  136.8420 C   0  0  0  0  0  2  0  0  0  0  0  0
  194.9610  172.8900  137.5490 C   0  0  0  0  0  1  0  0  0  0  0  0
  190.4640  178.1130  144.8090 C   0  0  0  0  0  2  0  0  0  0  0  0
  190.2590  176.8860  146.9480 C   0  0  0  0  0  1  0  0  0  0  0  0
  189.6040  177.9060  146.0410 C   0  0  0  0  0  2  0  0  0  0  0  0
  1 17  1  0  0  0  0
  1  4  1  1  0  0  0
  2 12  1  6  0  0  0
  2  5  1  0  0  0  0
  2  8  1  0  0  0  0
  3  7  2  0  0  0  0
  3 10  1  0  0  0  0
  4 11  1  0  0  0  0
  5 13  1  6  0  0  0
  5  1  1  0  0  0  0
  6 12  1  6  0  0  0
  6  2  1  0  0  0  0
  8 24  1  6  0  0  0
  8 17  1  0  0  0  0
  9 18  1  6  0  0  0
  9  6  1  0  0  0  0
 10 30  1  6  0  0  0
 11 14  2  0  0  0  0
 14 10  1  0  0  0  0
 15  3  1  0  0  0  0
 16 15  1  0  0  0  0
 17 19  1  0  0  0  0
 19 11  1  0  0  0  0
 19 15  1  0  0  0  0
 20  9  1  0  0  0  0
 20 13  2  0  0  0  0
 21 26  1  0  0  0  0
 22 23  1  0  0  0  0
 23 24  1  0  0  0  0
 25 21  1  0  0  0  0
 25 22  1  0  0  0  0
 26 24  1  0  0  0  0
 27 28  1  0  0  0  0
 27 20  1  0  0  0  0
 28 29  1  0  0  0  0
 30 32  1  0  0  0  0
 32 31  1  0  0  0  0
M  END
>  <MODEL>
9

>  <REMARK>
 VINA RESULT:      -5.0      2.235      7.190
  Name = 
  5 active torsions:
  status: ('A' for Active; 'I' for Inactive)
    1  A    between atoms: C_10  and  C_28
    2  A    between atoms: N_14  and  C_21
    3  A    between atoms: N_14  and  C_29
    4  A    between atoms: C_15  and  C_19
    5  A    between atoms: C_19  and  C_26
                            x       y       z     vdW  Elec       q    Type
                         _______ _______ _______ _____ _____    ______ ____

>  <TORSDO>
F 5

$$$$
