=
 OpenBabel10272400093D

 34 39  0  0  1  0  0  0  0  0999 V2000
  189.4920  177.2850  146.7370 C   0  0  0  0  0  0  0  0  0  0  0  0
  191.3250  176.2790  145.4890 C   0  0  0  0  0  0  0  0  0  0  0  0
  189.2330  177.0720  144.3170 C   0  0  0  0  0  0  0  0  0  0  0  0
  188.7140  176.9100  141.8330 C   0  0  2  0  0  3  0  0  0  0  0  0
  190.2730  177.2650  147.8930 C   0  0  0  0  0  3  0  0  0  0  0  0
  192.0840  176.2630  146.6620 C   0  0  0  0  0  3  0  0  0  0  0  0
  190.9700  177.6090  142.6450 C   0  0  0  0  0  3  0  0  0  0  0  0
  190.0370  176.8870  145.4840 C   0  0  0  0  0  0  0  0  0  0  0  0
  191.4460  177.8250  141.2410 C   0  0  0  0  0  2  0  0  0  0  0  0
  189.2280  177.1480  140.4050 C   0  0  0  0  0  2  0  0  0  0  0  0
  191.5770  176.7820  147.8510 C   0  0  0  0  0  3  0  0  0  0  0  0
  187.8580  177.3710  144.4600 C   0  0  0  0  0  0  0  0  0  0  0  0
  188.1540  177.6540  146.8460 C   0  0  0  0  0  3  0  0  0  0  0  0
  191.9370  175.2600  144.1890 Cl  0  0  0  0  0  0  0  0  0  0  0  0
  187.6160  177.7590  142.0680 O   0  0  0  0  0  0  0  0  0  0  0  0
  186.9570  177.3020  143.2300 C   0  0  2  0  0  3  0  0  0  0  0  0
  190.7230  176.8820  140.2880 C   0  0  1  0  0  3  0  0  0  0  0  0
  189.7450  177.1380  142.9250 C   0  0  0  0  0  0  0  0  0  0  0  0
  187.3330  177.6550  145.7260 C   0  0  0  0  0  3  0  0  0  0  0  0
  183.5310  178.7370  142.4680 C   0  0  0  0  0  0  0  0  0  0  0  0
  183.2120  179.3660  143.6750 C   0  0  0  0  0  3  0  0  0  0  0  0
  185.6580  178.0350  143.3930 C   0  0  0  0  0  0  0  0  0  0  0  0
  184.1130  179.3290  144.7430 C   0  0  0  0  0  3  0  0  0  0  0  0
  184.7520  178.0710  142.3270 C   0  0  0  0  0  3  0  0  0  0  0  0
  185.3340  178.6640  144.6040 C   0  0  0  0  0  3  0  0  0  0  0  0
  182.4010  178.7810  141.1330 Cl  0  0  0  0  0  0  0  0  0  0  0  0
  191.1530  177.1350  138.9240 N   0  0  0  0  0  2  0  0  0  0  0  0
  192.5290  176.8660  138.8730 N   0  0  0  0  0  2  0  0  0  0  0  0
  191.5210  175.6920  136.9850 C   0  0  0  0  0  2  0  0  0  0  0  0
  194.9540  175.2230  137.9360 N   0  0  0  0  0  2  0  0  0  0  0  0
  193.6870  175.1260  137.7070 C   0  0  0  0  0  0  0  0  0  0  0  0
  191.7090  174.1700  136.9480 C   0  0  0  0  0  3  0  0  0  0  0  0
  192.8010  176.2980  137.5620 C   0  0  2  0  0  3  0  0  0  0  0  0
  193.0890  173.9130  137.3090 N   0  0  0  0  0  0  0  0  0  0  0  0
  1 13  1  0  0  0  0
  1  5  2  0  0  0  0
  2  6  1  0  0  0  0
  3 12  2  0  0  0  0
  3  8  1  0  0  0  0
  4 10  1  6  0  0  0
  4 15  1  0  0  0  0
  4 18  1  0  0  0  0
  6 11  2  0  0  0  0
  7 18  2  0  0  0  0
  8  2  2  0  0  0  0
  8  1  1  0  0  0  0
  9  7  1  0  0  0  0
 11  5  1  0  0  0  0
 12 19  1  0  0  0  0
 14  2  1  0  0  0  0
 15 16  1  0  0  0  0
 16 22  1  1  0  0  0
 16 12  1  0  0  0  0
 17 27  1  6  0  0  0
 17 10  1  0  0  0  0
 17  9  1  0  0  0  0
 18  3  1  0  0  0  0
 19 13  2  0  0  0  0
 20 21  1  0  0  0  0
 21 23  2  0  0  0  0
 22 25  2  0  0  0  0
 24 20  2  0  0  0  0
 24 22  1  0  0  0  0
 25 23  1  0  0  0  0
 26 20  1  0  0  0  0
 28 27  1  0  0  0  0
 29 33  1  0  0  0  0
 31 30  2  0  0  0  0
 32 29  1  0  0  0  0
 32 34  2  0  0  0  0
 33 31  1  0  0  0  0
 33 28  1  1  0  0  0
 34 31  1  0  0  0  0
M  END
>  <MODEL>
1

>  <REMARK>
 VINA RESULT:     -11.4      0.000      0.000
  Name = 
  4 active torsions:
  status: ('A' for Active; 'I' for Inactive)
    1  A    between atoms: N_3  and  N_13
    2  A    between atoms: N_3  and  C_29
    3  A    between atoms: C_12  and  C_28
    4  A    between atoms: N_13  and  C_33
                            x       y       z     vdW  Elec       q    Type
                         _______ _______ _______ _____ _____    ______ ____

>  <TORSDO>
F 4

$$$$
=
 OpenBabel10272400093D

 34 39  0  0  1  0  0  0  0  0999 V2000
  189.4220  177.2990  146.7300 C   0  0  0  0  0  0  0  0  0  0  0  0
  191.2540  176.3360  145.4480 C   0  0  0  0  0  0  0  0  0  0  0  0
  189.1350  177.1080  144.3110 C   0  0  0  0  0  0  0  0  0  0  0  0
  188.5870  176.9650  141.8320 C   0  0  2  0  0  3  0  0  0  0  0  0
  190.2180  177.2790  147.8760 C   0  0  0  0  0  3  0  0  0  0  0  0
  192.0290  176.3190  146.6110 C   0  0  0  0  0  3  0  0  0  0  0  0
  190.8430  177.6900  142.6240 C   0  0  0  0  0  3  0  0  0  0  0  0
  189.9570  176.9240  145.4660 C   0  0  0  0  0  0  0  0  0  0  0  0
  191.2970  177.9290  141.2160 C   0  0  0  0  0  2  0  0  0  0  0  0
  189.0800  177.2260  140.4000 C   0  0  0  0  0  2  0  0  0  0  0  0
  191.5290  176.8170  147.8120 C   0  0  0  0  0  3  0  0  0  0  0  0
  187.7580  177.3840  144.4750 C   0  0  0  0  0  0  0  0  0  0  0  0
  188.0790  177.6460  146.8600 C   0  0  0  0  0  3  0  0  0  0  0  0
  191.8650  175.3410  144.1300 Cl  0  0  0  0  0  0  0  0  0  0  0  0
  187.4800  177.7940  142.0900 O   0  0  0  0  0  0  0  0  0  0  0  0
  186.8430  177.3140  143.2550 C   0  0  2  0  0  3  0  0  0  0  0  0
  190.5770  176.9850  140.2620 C   0  0  1  0  0  3  0  0  0  0  0  0
  189.6290  177.1970  142.9130 C   0  0  0  0  0  0  0  0  0  0  0  0
  187.2440  177.6460  145.7500 C   0  0  0  0  0  3  0  0  0  0  0  0
  183.3970  178.7270  142.5420 C   0  0  0  0  0  0  0  0  0  0  0  0
  183.0710  179.3140  143.7690 C   0  0  0  0  0  3  0  0  0  0  0  0
  185.5350  178.0250  143.4420 C   0  0  0  0  0  0  0  0  0  0  0  0
  183.9750  179.2570  144.8340 C   0  0  0  0  0  3  0  0  0  0  0  0
  184.6260  178.0820  142.3800 C   0  0  0  0  0  3  0  0  0  0  0  0
  185.2040  178.6120  144.6730 C   0  0  0  0  0  3  0  0  0  0  0  0
  182.2640  178.7980  141.2110 Cl  0  0  0  0  0  0  0  0  0  0  0  0
  190.9850  177.2590  138.8960 N   0  0  0  0  0  2  0  0  0  0  0  0
  191.4740  176.0560  138.3660 N   0  0  0  0  0  2  0  0  0  0  0  0
  189.9940  177.0960  136.7280 C   0  0  0  0  0  2  0  0  0  0  0  0
  190.0490  173.5490  137.2960 N   0  0  0  0  0  2  0  0  0  0  0  0
  189.7750  174.8090  137.2310 C   0  0  0  0  0  0  0  0  0  0  0  0
  188.5110  176.7130  136.8060 C   0  0  0  0  0  3  0  0  0  0  0  0
  190.8090  175.8530  137.0880 C   0  0  2  0  0  3  0  0  0  0  0  0
  188.4630  175.2800  137.0200 N   0  0  0  0  0  0  0  0  0  0  0  0
  1 13  1  0  0  0  0
  1  5  2  0  0  0  0
  2  8  2  0  0  0  0
  2  6  1  0  0  0  0
  3 12  2  0  0  0  0
  3  8  1  0  0  0  0
  4 10  1  6  0  0  0
  4 15  1  0  0  0  0
  4 18  1  0  0  0  0
  6 11  2  0  0  0  0
  7 18  2  0  0  0  0
  8  1  1  0  0  0  0
  9  7  1  0  0  0  0
 11  5  1  0  0  0  0
 12 19  1  0  0  0  0
 14  2  1  0  0  0  0
 15 16  1  0  0  0  0
 16 22  1  1  0  0  0
 16 12  1  0  0  0  0
 17 27  1  6  0  0  0
 17 10  1  0  0  0  0
 17  9  1  0  0  0  0
 18  3  1  0  0  0  0
 19 13  2  0  0  0  0
 20 21  1  0  0  0  0
 21 23  2  0  0  0  0
 22 25  2  0  0  0  0
 24 20  2  0  0  0  0
 24 22  1  0  0  0  0
 25 23  1  0  0  0  0
 26 20  1  0  0  0  0
 28 27  1  0  0  0  0
 29 32  1  0  0  0  0
 29 33  1  0  0  0  0
 31 30  2  0  0  0  0
 32 34  2  0  0  0  0
 33 31  1  0  0  0  0
 33 28  1  1  0  0  0
 34 31  1  0  0  0  0
M  END
>  <MODEL>
2

>  <REMARK>
 VINA RESULT:     -11.4      1.146      1.665
  Name = 
  4 active torsions:
  status: ('A' for Active; 'I' for Inactive)
    1  A    between atoms: N_3  and  N_13
    2  A    between atoms: N_3  and  C_29
    3  A    between atoms: C_12  and  C_28
    4  A    between atoms: N_13  and  C_33
                            x       y       z     vdW  Elec       q    Type
                         _______ _______ _______ _____ _____    ______ ____

>  <TORSDO>
F 4

$$$$
=
 OpenBabel10272400093D

 34 39  0  0  1  0  0  0  0  0999 V2000
  187.4660  178.2760  147.2740 C   0  0  0  0  0  0  0  0  0  0  0  0
  189.6280  177.3440  146.6530 C   0  0  0  0  0  0  0  0  0  0  0  0
  187.8300  177.7270  144.9220 C   0  0  0  0  0  0  0  0  0  0  0  0
  187.9540  177.1890  142.4390 C   0  0  2  0  0  3  0  0  0  0  0  0
  187.9370  178.4970  148.5690 C   0  0  0  0  0  3  0  0  0  0  0  0
  190.0740  177.5670  147.9590 C   0  0  0  0  0  3  0  0  0  0  0  0
  189.8740  178.2470  143.6360 C   0  0  0  0  0  3  0  0  0  0  0  0
  188.3340  177.7890  146.2570 C   0  0  0  0  0  0  0  0  0  0  0  0
  190.6610  178.3380  142.3640 C   0  0  0  0  0  2  0  0  0  0  0  0
  188.7820  177.3020  141.1500 C   0  0  0  0  0  2  0  0  0  0  0  0
  189.2480  178.1700  148.9040 C   0  0  0  0  0  3  0  0  0  0  0  0
  186.4420  177.8770  144.6950 C   0  0  0  0  0  0  0  0  0  0  0  0
  186.1160  178.4950  147.0130 C   0  0  0  0  0  3  0  0  0  0  0  0
  190.6240  176.2470  145.7020 Cl  0  0  0  0  0  0  0  0  0  0  0  0
  186.7650  177.9250  142.2810 O   0  0  0  0  0  0  0  0  0  0  0  0
  185.8810  177.5450  143.3140 C   0  0  2  0  0  3  0  0  0  0  0  0
  190.2770  177.2020  141.4250 C   0  0  1  0  0  3  0  0  0  0  0  0
  188.6620  177.6750  143.6930 C   0  0  0  0  0  0  0  0  0  0  0  0
  185.5990  178.2560  145.7460 C   0  0  0  0  0  3  0  0  0  0  0  0
  182.7530  178.6870  141.5000 C   0  0  0  0  0  0  0  0  0  0  0  0
  181.9850  179.1960  142.5510 C   0  0  0  0  0  3  0  0  0  0  0  0
  184.5250  178.1350  143.0580 C   0  0  0  0  0  0  0  0  0  0  0  0
  182.4830  179.1730  143.8570 C   0  0  0  0  0  3  0  0  0  0  0  0
  184.0210  178.1560  141.7530 C   0  0  0  0  0  3  0  0  0  0  0  0
  183.7500  178.6420  144.1120 C   0  0  0  0  0  3  0  0  0  0  0  0
  182.1280  178.7130  139.8660 Cl  0  0  0  0  0  0  0  0  0  0  0  0
  191.0060  177.3270  140.1760 N   0  0  0  0  0  2  0  0  0  0  0  0
  190.9610  176.0740  139.5480 N   0  0  0  0  0  2  0  0  0  0  0  0
  190.0590  177.4340  137.7340 C   0  0  0  0  0  2  0  0  0  0  0  0
  191.1390  174.0430  137.2460 N   0  0  0  0  0  2  0  0  0  0  0  0
  190.4860  175.1470  137.3930 C   0  0  0  0  0  0  0  0  0  0  0  0
  188.9340  176.8060  136.9020 C   0  0  0  0  0  3  0  0  0  0  0  0
  191.0280  176.3140  138.1150 C   0  0  2  0  0  3  0  0  0  0  0  0
  189.3180  175.4300  136.6550 N   0  0  0  0  0  0  0  0  0  0  0  0
  1  5  2  0  0  0  0
  2  6  1  0  0  0  0
  3  8  1  0  0  0  0
  4 10  1  6  0  0  0
  4 18  1  0  0  0  0
  5 11  1  0  0  0  0
  6 11  2  0  0  0  0
  7 18  2  0  0  0  0
  8  2  2  0  0  0  0
  8  1  1  0  0  0  0
  9  7  1  0  0  0  0
 10 17  1  0  0  0  0
 12  3  2  0  0  0  0
 12 19  1  0  0  0  0
 13  1  1  0  0  0  0
 14  2  1  0  0  0  0
 15  4  1  0  0  0  0
 15 16  1  0  0  0  0
 16 22  1  6  0  0  0
 16 12  1  0  0  0  0
 17 27  1  6  0  0  0
 17  9  1  0  0  0  0
 18  3  1  0  0  0  0
 19 13  2  0  0  0  0
 20 24  2  0  0  0  0
 20 21  1  0  0  0  0
 21 23  2  0  0  0  0
 22 25  2  0  0  0  0
 23 25  1  0  0  0  0
 24 22  1  0  0  0  0
 26 20  1  0  0  0  0
 28 27  1  0  0  0  0
 29 33  1  0  0  0  0
 30 31  2  0  0  0  0
 31 33  1  0  0  0  0
 32 29  1  0  0  0  0
 33 28  1  1  0  0  0
 34 32  2  0  0  0  0
 34 31  1  0  0  0  0
M  END
>  <MODEL>
3

>  <REMARK>
 VINA RESULT:     -11.1      1.560      2.143
  Name = 
  4 active torsions:
  status: ('A' for Active; 'I' for Inactive)
    1  A    between atoms: N_3  and  N_13
    2  A    between atoms: N_3  and  C_29
    3  A    between atoms: C_12  and  C_28
    4  A    between atoms: N_13  and  C_33
                            x       y       z     vdW  Elec       q    Type
                         _______ _______ _______ _____ _____    ______ ____

>  <TORSDO>
F 4

$$$$
=
 OpenBabel10272400093D

 34 39  0  0  1  0  0  0  0  0999 V2000
  187.3840  177.5550  144.6010 C   0  0  0  0  0  0  0  0  0  0  0  0
  185.2820  178.7760  144.7200 C   0  0  0  0  0  0  0  0  0  0  0  0
  186.4030  178.3290  142.5020 C   0  0  0  0  0  0  0  0  0  0  0  0
  185.6050  179.0740  140.2050 C   0  0  2  0  0  3  0  0  0  0  0  0
  187.3030  177.2860  145.9680 C   0  0  0  0  0  3  0  0  0  0  0  0
  185.2270  178.5010  146.0900 C   0  0  0  0  0  3  0  0  0  0  0  0
  184.0150  178.1510  141.8950 C   0  0  0  0  0  3  0  0  0  0  0  0
  186.3220  178.2180  143.9240 C   0  0  0  0  0  0  0  0  0  0  0  0
  182.8750  178.2550  140.9280 C   0  0  0  0  0  2  0  0  0  0  0  0
  184.4180  179.1620  139.2340 C   0  0  0  0  0  2  0  0  0  0  0  0
  186.2120  177.7340  146.7060 C   0  0  0  0  0  3  0  0  0  0  0  0
  187.6230  178.0380  141.8490 C   0  0  0  0  0  0  0  0  0  0  0  0
  188.5500  177.2030  143.9240 C   0  0  0  0  0  3  0  0  0  0  0  0
  184.2010  180.0530  144.1710 Cl  0  0  0  0  0  0  0  0  0  0  0  0
  186.5810  178.2220  139.6560 O   0  0  0  0  0  0  0  0  0  0  0  0
  187.7790  178.4130  140.3780 C   0  0  2  0  0  3  0  0  0  0  0  0
  183.1050  179.4110  139.9630 C   0  0  1  0  0  3  0  0  0  0  0  0
  185.2520  178.5740  141.5960 C   0  0  0  0  0  0  0  0  0  0  0  0
  188.6860  177.4820  142.5710 C   0  0  0  0  0  3  0  0  0  0  0  0
  191.2570  177.1370  139.5720 C   0  0  0  0  0  0  0  0  0  0  0  0
  191.0140  176.3400  138.4490 C   0  0  0  0  0  3  0  0  0  0  0  0
  188.9020  177.6940  139.6890 C   0  0  0  0  0  0  0  0  0  0  0  0
  189.7160  176.2160  137.9460 C   0  0  0  0  0  3  0  0  0  0  0  0
  190.2020  177.8130  140.1920 C   0  0  0  0  0  3  0  0  0  0  0  0
  188.6600  176.8900  138.5660 C   0  0  0  0  0  3  0  0  0  0  0  0
  192.8820  177.2890  140.2020 Cl  0  0  0  0  0  0  0  0  0  0  0  0
  182.0210  179.4700  138.9980 N   0  0  0  0  0  2  0  0  0  0  0  0
  182.0130  180.7700  138.4720 N   0  0  0  0  0  2  0  0  0  0  0  0
  180.6680  179.9470  136.6100 C   0  0  0  0  0  2  0  0  0  0  0  0
  180.5420  183.3630  137.7160 N   0  0  0  0  0  2  0  0  0  0  0  0
  180.7310  182.2470  137.0930 C   0  0  0  0  0  0  0  0  0  0  0  0
  180.7320  180.7570  135.3090 C   0  0  0  0  0  3  0  0  0  0  0  0
  180.7490  180.9370  137.7720 C   0  0  2  0  0  3  0  0  0  0  0  0
  180.6680  182.1550  135.6870 N   0  0  0  0  0  0  0  0  0  0  0  0
  1  5  2  0  0  0  0
  2  6  1  0  0  0  0
  3  8  1  0  0  0  0
  4 10  1  6  0  0  0
  4 18  1  0  0  0  0
  5 11  1  0  0  0  0
  6 11  2  0  0  0  0
  8  1  1  0  0  0  0
  8  2  2  0  0  0  0
  9  7  1  0  0  0  0
 10 17  1  0  0  0  0
 12  3  2  0  0  0  0
 12 19  1  0  0  0  0
 13  1  1  0  0  0  0
 14  2  1  0  0  0  0
 15  4  1  0  0  0  0
 15 16  1  0  0  0  0
 16 22  1  6  0  0  0
 16 12  1  0  0  0  0
 17 27  1  6  0  0  0
 17  9  1  0  0  0  0
 18  7  2  0  0  0  0
 18  3  1  0  0  0  0
 19 13  2  0  0  0  0
 20 24  1  0  0  0  0
 20 26  1  0  0  0  0
 21 20  2  0  0  0  0
 22 24  2  0  0  0  0
 23 21  1  0  0  0  0
 23 25  2  0  0  0  0
 25 22  1  0  0  0  0
 28 27  1  0  0  0  0
 29 33  1  0  0  0  0
 31 30  2  0  0  0  0
 31 33  1  0  0  0  0
 32 34  2  0  0  0  0
 32 29  1  0  0  0  0
 33 28  1  6  0  0  0
 34 31  1  0  0  0  0
M  END
>  <MODEL>
4

>  <REMARK>
 VINA RESULT:     -10.1      4.774      8.478
  Name = 
  4 active torsions:
  status: ('A' for Active; 'I' for Inactive)
    1  A    between atoms: N_3  and  N_13
    2  A    between atoms: N_3  and  C_29
    3  A    between atoms: C_12  and  C_28
    4  A    between atoms: N_13  and  C_33
                            x       y       z     vdW  Elec       q    Type
                         _______ _______ _______ _____ _____    ______ ____

>  <TORSDO>
F 4

$$$$
=
 OpenBabel10272400093D

 34 39  0  0  1  0  0  0  0  0999 V2000
  184.5870  178.6460  144.3290 C   0  0  0  0  0  0  0  0  0  0  0  0
  186.7590  177.5660  144.1240 C   0  0  0  0  0  0  0  0  0  0  0  0
  185.4660  178.2860  142.0780 C   0  0  0  0  0  0  0  0  0  0  0  0
  186.1460  177.9750  139.6470 C   0  0  2  0  0  3  0  0  0  0  0  0
  184.7460  178.6960  145.7150 C   0  0  0  0  0  3  0  0  0  0  0  0
  186.8920  177.6210  145.5140 C   0  0  0  0  0  3  0  0  0  0  0  0
  187.7920  178.7210  141.3710 C   0  0  0  0  0  3  0  0  0  0  0  0
  185.6360  178.1730  143.4920 C   0  0  0  0  0  0  0  0  0  0  0  0
  188.8680  178.8510  140.3350 C   0  0  0  0  0  2  0  0  0  0  0  0
  187.2670  178.1260  138.6080 C   0  0  0  0  0  2  0  0  0  0  0  0
  185.9090  178.2110  146.3050 C   0  0  0  0  0  3  0  0  0  0  0  0
  184.1890  178.5950  141.5540 C   0  0  0  0  0  0  0  0  0  0  0  0
  183.3590  179.0210  143.7880 C   0  0  0  0  0  3  0  0  0  0  0  0
  187.8720  176.4700  143.3100 Cl  0  0  0  0  0  0  0  0  0  0  0  0
  185.0880  178.8370  139.3030 O   0  0  0  0  0  0  0  0  0  0  0  0
  183.9550  178.4510  140.0520 C   0  0  2  0  0  3  0  0  0  0  0  0
  188.6390  177.8520  139.2080 C   0  0  1  0  0  3  0  0  0  0  0  0
  186.5640  178.2680  141.0780 C   0  0  0  0  0  0  0  0  0  0  0  0
  183.1470  178.9550  142.4170 C   0  0  0  0  0  3  0  0  0  0  0  0
  181.7890  181.1840  138.5620 C   0  0  0  0  0  0  0  0  0  0  0  0
  180.5230  180.5930  138.5960 C   0  0  0  0  0  3  0  0  0  0  0  0
  182.7480  179.1930  139.5580 C   0  0  0  0  0  0  0  0  0  0  0  0
  180.3660  179.3020  139.1080 C   0  0  0  0  0  3  0  0  0  0  0  0
  182.9010  180.4850  139.0410 C   0  0  0  0  0  3  0  0  0  0  0  0
  181.4770  178.6020  139.5870 C   0  0  0  0  0  3  0  0  0  0  0  0
  181.9840  182.7990  137.9180 Cl  0  0  0  0  0  0  0  0  0  0  0  0
  189.6560  178.0220  138.1860 N   0  0  0  0  0  2  0  0  0  0  0  0
  189.7690  176.7960  137.5140 N   0  0  0  0  0  2  0  0  0  0  0  0
  192.0130  176.6530  138.4610 C   0  0  0  0  0  2  0  0  0  0  0  0
  190.1830  173.7500  137.3980 N   0  0  0  0  0  2  0  0  0  0  0  0
  190.9980  174.7420  137.5420 C   0  0  0  0  0  0  0  0  0  0  0  0
  193.0420  175.8410  137.6640 C   0  0  0  0  0  3  0  0  0  0  0  0
  190.6590  175.9600  138.3040 C   0  0  2  0  0  3  0  0  0  0  0  0
  192.3660  174.6400  137.2170 N   0  0  0  0  0  0  0  0  0  0  0  0
  1  5  2  0  0  0  0
  2  6  1  0  0  0  0
  3  8  1  0  0  0  0
  4 10  1  6  0  0  0
  4 18  1  0  0  0  0
  5 11  1  0  0  0  0
  6 11  2  0  0  0  0
  8  2  2  0  0  0  0
  8  1  1  0  0  0  0
  9  7  1  0  0  0  0
 10 17  1  0  0  0  0
 12  3  2  0  0  0  0
 12 19  1  0  0  0  0
 13  1  1  0  0  0  0
 14  2  1  0  0  0  0
 15  4  1  0  0  0  0
 15 16  1  0  0  0  0
 16 22  1  6  0  0  0
 16 12  1  0  0  0  0
 17 27  1  6  0  0  0
 17  9  1  0  0  0  0
 18  7  2  0  0  0  0
 18  3  1  0  0  0  0
 19 13  2  0  0  0  0
 20 21  2  0  0  0  0
 20 24  1  0  0  0  0
 21 23  1  0  0  0  0
 22 25  1  0  0  0  0
 23 25  2  0  0  0  0
 24 22  2  0  0  0  0
 26 20  1  0  0  0  0
 28 27  1  0  0  0  0
 30 31  2  0  0  0  0
 31 33  1  0  0  0  0
 32 29  1  0  0  0  0
 33 28  1  6  0  0  0
 33 29  1  0  0  0  0
 34 31  1  0  0  0  0
 34 32  2  0  0  0  0
M  END
>  <MODEL>
5

>  <REMARK>
 VINA RESULT:     -10.0      2.738      4.497
  Name = 
  4 active torsions:
  status: ('A' for Active; 'I' for Inactive)
    1  A    between atoms: N_3  and  N_13
    2  A    between atoms: N_3  and  C_29
    3  A    between atoms: C_12  and  C_28
    4  A    between atoms: N_13  and  C_33
                            x       y       z     vdW  Elec       q    Type
                         _______ _______ _______ _____ _____    ______ ____

>  <TORSDO>
F 4

$$$$
=
 OpenBabel10272400093D

 34 39  0  0  1  0  0  0  0  0999 V2000
  191.1810  176.3880  145.1050 C   0  0  0  0  0  0  0  0  0  0  0  0
  189.7980  177.4340  146.8140 C   0  0  0  0  0  0  0  0  0  0  0  0
  189.1390  177.5160  144.3770 C   0  0  0  0  0  0  0  0  0  0  0  0
  187.1030  178.6670  143.3790 C   0  0  2  0  0  3  0  0  0  0  0  0
  191.9930  175.8420  146.1000 C   0  0  0  0  0  3  0  0  0  0  0  0
  190.6310  176.8820  147.7920 C   0  0  0  0  0  3  0  0  0  0  0  0
  186.9370  177.3260  145.4800 C   0  0  0  0  0  3  0  0  0  0  0  0
  190.0030  177.1120  145.4420 C   0  0  0  0  0  0  0  0  0  0  0  0
  185.4580  177.5570  145.5500 C   0  0  0  0  0  2  0  0  0  0  0  0
  185.5850  178.8810  143.4750 C   0  0  0  0  0  2  0  0  0  0  0  0
  191.7020  176.0640  147.4420 C   0  0  0  0  0  3  0  0  0  0  0  0
  189.5970  177.4370  143.0420 C   0  0  0  0  0  0  0  0  0  0  0  0
  191.5770  176.2520  143.7760 C   0  0  0  0  0  3  0  0  0  0  0  0
  188.7460  178.7300  147.3740 Cl  0  0  0  0  0  0  0  0  0  0  0  0
  187.3940  178.0030  142.1730 O   0  0  0  0  0  0  0  0  0  0  0  0
  188.7820  178.1130  141.9420 C   0  0  2  0  0  3  0  0  0  0  0  0
  185.1030  178.8980  144.9190 C   0  0  1  0  0  3  0  0  0  0  0  0
  187.7050  177.8730  144.5260 C   0  0  0  0  0  0  0  0  0  0  0  0
  190.8150  176.8090  142.7570 C   0  0  0  0  0  3  0  0  0  0  0  0
  188.5350  177.4830  138.2120 C   0  0  0  0  0  0  0  0  0  0  0  0
  189.6930  176.7370  137.9720 C   0  0  0  0  0  3  0  0  0  0  0  0
  189.1040  177.6180  140.5630 C   0  0  0  0  0  0  0  0  0  0  0  0
  190.5590  176.4320  139.0260 C   0  0  0  0  0  3  0  0  0  0  0  0
  188.2420  177.9240  139.5050 C   0  0  0  0  0  3  0  0  0  0  0  0
  190.2670  176.8720  140.3200 C   0  0  0  0  0  3  0  0  0  0  0  0
  187.4530  177.8670  136.8910 Cl  0  0  0  0  0  0  0  0  0  0  0  0
  183.6640  179.0890  144.9460 N   0  0  0  0  0  2  0  0  0  0  0  0
  183.1290  178.3130  143.9070 N   0  0  0  0  0  2  0  0  0  0  0  0
  180.7290  178.7340  143.7620 C   0  0  0  0  0  2  0  0  0  0  0  0
  182.9320  179.1550  140.9560 N   0  0  0  0  0  2  0  0  0  0  0  0
  182.0530  178.7690  141.8190 C   0  0  0  0  0  0  0  0  0  0  0  0
  179.9850  178.0560  142.6060 C   0  0  0  0  0  3  0  0  0  0  0  0
  182.1160  179.1250  143.2500 C   0  0  2  0  0  3  0  0  0  0  0  0
  180.8200  178.2060  141.4300 N   0  0  0  0  0  0  0  0  0  0  0  0
  1  8  1  0  0  0  0
  1  5  2  0  0  0  0
  2 14  1  0  0  0  0
  2  6  1  0  0  0  0
  3 18  1  0  0  0  0
  3  8  1  0  0  0  0
  4 10  1  1  0  0  0
  4 18  1  0  0  0  0
  5 11  1  0  0  0  0
  7  9  1  0  0  0  0
  8  2  2  0  0  0  0
 10 17  1  0  0  0  0
 11  6  2  0  0  0  0
 12  3  2  0  0  0  0
 13  1  1  0  0  0  0
 15  4  1  0  0  0  0
 16 22  1  6  0  0  0
 16 15  1  0  0  0  0
 16 12  1  0  0  0  0
 17 27  1  6  0  0  0
 17  9  1  0  0  0  0
 18  7  2  0  0  0  0
 19 12  1  0  0  0  0
 19 13  2  0  0  0  0
 20 24  1  0  0  0  0
 21 20  2  0  0  0  0
 21 23  1  0  0  0  0
 23 25  2  0  0  0  0
 24 22  2  0  0  0  0
 25 22  1  0  0  0  0
 26 20  1  0  0  0  0
 28 27  1  0  0  0  0
 30 31  2  0  0  0  0
 31 33  1  0  0  0  0
 32 29  1  0  0  0  0
 33 29  1  0  0  0  0
 33 28  1  1  0  0  0
 34 31  1  0  0  0  0
 34 32  2  0  0  0  0
M  END
>  <MODEL>
6

>  <REMARK>
 VINA RESULT:      -9.8      4.291      7.421
  Name = 
  4 active torsions:
  status: ('A' for Active; 'I' for Inactive)
    1  A    between atoms: N_3  and  N_13
    2  A    between atoms: N_3  and  C_29
    3  A    between atoms: C_12  and  C_28
    4  A    between atoms: N_13  and  C_33
                            x       y       z     vdW  Elec       q    Type
                         _______ _______ _______ _____ _____    ______ ____

>  <TORSDO>
F 4

$$$$
=
 OpenBabel10272400093D

 34 39  0  0  1  0  0  0  0  0999 V2000
  187.2410  177.6780  144.7940 C   0  0  0  0  0  0  0  0  0  0  0  0
  185.0810  178.7990  144.7510 C   0  0  0  0  0  0  0  0  0  0  0  0
  186.3490  178.3330  142.6160 C   0  0  0  0  0  0  0  0  0  0  0  0
  185.6520  178.9620  140.2530 C   0  0  2  0  0  3  0  0  0  0  0  0
  187.0930  177.4510  146.1630 C   0  0  0  0  0  3  0  0  0  0  0  0
  184.9590  178.5680  146.1240 C   0  0  0  0  0  3  0  0  0  0  0  0
  184.0110  178.0200  141.8830 C   0  0  0  0  0  3  0  0  0  0  0  0
  186.1910  178.2660  144.0350 C   0  0  0  0  0  0  0  0  0  0  0  0
  182.9250  178.0350  140.8490 C   0  0  0  0  0  2  0  0  0  0  0  0
  184.5210  178.9600  139.2140 C   0  0  0  0  0  2  0  0  0  0  0  0
  185.9410  177.8700  146.8220 C   0  0  0  0  0  3  0  0  0  0  0  0
  187.6170  178.0810  142.0440 C   0  0  0  0  0  0  0  0  0  0  0  0
  188.4600  177.3610  144.1970 C   0  0  0  0  0  3  0  0  0  0  0  0
  183.9750  180.0030  144.0960 Cl  0  0  0  0  0  0  0  0  0  0  0  0
  186.6960  178.1400  139.7910 O   0  0  0  0  0  0  0  0  0  0  0  0
  187.8400  178.4130  140.5720 C   0  0  2  0  0  3  0  0  0  0  0  0
  183.1570  179.1690  139.8580 C   0  0  1  0  0  3  0  0  0  0  0  0
  185.2420  178.4920  141.6380 C   0  0  0  0  0  0  0  0  0  0  0  0
  188.6610  177.6010  142.8440 C   0  0  0  0  0  3  0  0  0  0  0  0
  189.9700  176.2900  138.2620 C   0  0  0  0  0  0  0  0  0  0  0  0
  191.2440  176.4600  138.8140 C   0  0  0  0  0  3  0  0  0  0  0  0
  189.0330  177.7270  139.9740 C   0  0  0  0  0  0  0  0  0  0  0  0
  191.4150  177.2650  139.9440 C   0  0  0  0  0  3  0  0  0  0  0  0
  188.8670  176.9240  138.8400 C   0  0  0  0  0  3  0  0  0  0  0  0
  190.3130  177.8990  140.5230 C   0  0  0  0  0  3  0  0  0  0  0  0
  189.7570  175.2850  136.8460 Cl  0  0  0  0  0  0  0  0  0  0  0  0
  182.1300  179.1430  138.8320 N   0  0  0  0  0  2  0  0  0  0  0  0
  182.6510  178.4220  137.7490 N   0  0  0  0  0  2  0  0  0  0  0  0
  180.2980  177.8330  138.0120 C   0  0  0  0  0  2  0  0  0  0  0  0
  182.8350  175.3780  137.3440 N   0  0  0  0  0  2  0  0  0  0  0  0
  181.9250  176.1430  137.8490 C   0  0  0  0  0  0  0  0  0  0  0  0
  179.9820  176.7010  138.9970 C   0  0  0  0  0  3  0  0  0  0  0  0
  181.6200  177.4890  137.3240 C   0  0  2  0  0  3  0  0  0  0  0  0
  180.9680  175.6630  138.7660 N   0  0  0  0  0  0  0  0  0  0  0  0
  1  5  2  0  0  0  0
  2  6  1  0  0  0  0
  3  8  1  0  0  0  0
  4 10  1  6  0  0  0
  4 18  1  0  0  0  0
  5 11  1  0  0  0  0
  6 11  2  0  0  0  0
  8  2  2  0  0  0  0
  8  1  1  0  0  0  0
  9  7  1  0  0  0  0
 10 17  1  0  0  0  0
 12  3  2  0  0  0  0
 12 19  1  0  0  0  0
 13  1  1  0  0  0  0
 14  2  1  0  0  0  0
 15  4  1  0  0  0  0
 15 16  1  0  0  0  0
 16 22  1  6  0  0  0
 16 12  1  0  0  0  0
 17 27  1  6  0  0  0
 17  9  1  0  0  0  0
 18  7  2  0  0  0  0
 18  3  1  0  0  0  0
 19 13  2  0  0  0  0
 20 21  2  0  0  0  0
 20 24  1  0  0  0  0
 21 23  1  0  0  0  0
 22 25  1  0  0  0  0
 23 25  2  0  0  0  0
 24 22  2  0  0  0  0
 26 20  1  0  0  0  0
 28 27  1  0  0  0  0
 29 32  1  0  0  0  0
 30 31  2  0  0  0  0
 31 34  1  0  0  0  0
 33 28  1  1  0  0  0
 33 31  1  0  0  0  0
 33 29  1  0  0  0  0
 34 32  2  0  0  0  0
M  END
>  <MODEL>
7

>  <REMARK>
 VINA RESULT:      -9.8      4.320      7.709
  Name = 
  4 active torsions:
  status: ('A' for Active; 'I' for Inactive)
    1  A    between atoms: N_3  and  N_13
    2  A    between atoms: N_3  and  C_29
    3  A    between atoms: C_12  and  C_28
    4  A    between atoms: N_13  and  C_33
                            x       y       z     vdW  Elec       q    Type
                         _______ _______ _______ _____ _____    ______ ____

>  <TORSDO>
F 4

$$$$
=
 OpenBabel10272400093D

 34 39  0  0  1  0  0  0  0  0999 V2000
  186.4680  178.2070  140.6660 C   0  0  0  0  0  0  0  0  0  0  0  0
  187.5940  178.4480  138.5210 C   0  0  0  0  0  0  0  0  0  0  0  0
  188.8940  177.9190  140.6210 C   0  0  0  0  0  0  0  0  0  0  0  0
  191.4110  177.6280  140.8320 C   0  0  2  0  0  3  0  0  0  0  0  0
  185.2320  178.3070  140.0250 C   0  0  0  0  0  3  0  0  0  0  0  0
  186.3450  178.5540  137.9030 C   0  0  0  0  0  3  0  0  0  0  0  0
  190.1430  176.6270  138.9260 C   0  0  0  0  0  3  0  0  0  0  0  0
  187.6760  178.1720  139.9160 C   0  0  0  0  0  0  0  0  0  0  0  0
  191.3890  175.9930  138.3870 C   0  0  0  0  0  2  0  0  0  0  0  0
  192.6700  176.9590  140.2580 C   0  0  0  0  0  2  0  0  0  0  0  0
  185.1690  178.4510  138.6430 C   0  0  0  0  0  3  0  0  0  0  0  0
  188.9060  177.9880  142.0330 C   0  0  0  0  0  0  0  0  0  0  0  0
  186.4940  178.1940  142.0590 C   0  0  0  0  0  3  0  0  0  0  0  0
  188.9580  178.9740  137.5400 Cl  0  0  0  0  0  0  0  0  0  0  0  0
  191.1850  177.1340  142.1300 O   0  0  0  0  0  0  0  0  0  0  0  0
  190.2490  177.9830  142.7590 C   0  0  2  0  0  3  0  0  0  0  0  0
  192.6070  176.8360  138.7420 C   0  0  1  0  0  3  0  0  0  0  0  0
  190.1510  177.4210  140.0080 C   0  0  0  0  0  0  0  0  0  0  0  0
  187.7040  178.1300  142.7370 C   0  0  0  0  0  3  0  0  0  0  0  0
  191.1190  176.6050  146.1830 C   0  0  0  0  0  0  0  0  0  0  0  0
  190.0010  176.9810  146.9330 C   0  0  0  0  0  3  0  0  0  0  0  0
  190.1460  177.6290  144.2130 C   0  0  0  0  0  0  0  0  0  0  0  0
  188.9550  177.6840  146.3260 C   0  0  0  0  0  3  0  0  0  0  0  0
  191.1920  176.9290  144.8250 C   0  0  0  0  0  3  0  0  0  0  0  0
  189.0270  178.0090  144.9690 C   0  0  0  0  0  3  0  0  0  0  0  0
  192.4280  175.7280  146.9430 Cl  0  0  0  0  0  0  0  0  0  0  0  0
  193.8130  176.1870  138.2600 N   0  0  0  0  0  2  0  0  0  0  0  0
  193.4730  174.8580  137.9680 N   0  0  0  0  0  2  0  0  0  0  0  0
  194.2860  173.0940  136.4910 C   0  0  0  0  0  2  0  0  0  0  0  0
  196.0500  174.0860  139.4590 N   0  0  0  0  0  2  0  0  0  0  0  0
  195.3520  173.4940  138.5480 C   0  0  0  0  0  0  0  0  0  0  0  0
  194.6630  171.7650  137.1560 C   0  0  0  0  0  3  0  0  0  0  0  0
  194.6730  174.2160  137.4550 C   0  0  2  0  0  3  0  0  0  0  0  0
  195.3970  172.0970  138.3600 N   0  0  0  0  0  0  0  0  0  0  0  0
  1 13  1  0  0  0  0
  2  8  1  0  0  0  0
  3 12  2  0  0  0  0
  4 10  1  6  0  0  0
  4 15  1  0  0  0  0
  5  1  1  0  0  0  0
  6  2  2  0  0  0  0
  6 11  1  0  0  0  0
  7 18  2  0  0  0  0
  8  3  1  0  0  0  0
  8  1  2  0  0  0  0
  9 17  1  0  0  0  0
  9  7  1  0  0  0  0
 11  5  2  0  0  0  0
 12 19  1  0  0  0  0
 12 16  1  0  0  0  0
 13 19  2  0  0  0  0
 14  2  1  0  0  0  0
 15 16  1  0  0  0  0
 16 22  1  1  0  0  0
 17 27  1  1  0  0  0
 17 10  1  0  0  0  0
 18  3  1  0  0  0  0
 18  4  1  0  0  0  0
 20 21  1  0  0  0  0
 20 26  1  0  0  0  0
 22 24  1  0  0  0  0
 22 25  2  0  0  0  0
 23 21  2  0  0  0  0
 24 20  2  0  0  0  0
 25 23  1  0  0  0  0
 28 27  1  0  0  0  0
 29 32  1  0  0  0  0
 29 33  1  0  0  0  0
 31 30  2  0  0  0  0
 32 34  2  0  0  0  0
 33 28  1  1  0  0  0
 33 31  1  0  0  0  0
 34 31  1  0  0  0  0
M  END
>  <MODEL>
8

>  <REMARK>
 VINA RESULT:      -9.7      2.407      5.846
  Name = 
  4 active torsions:
  status: ('A' for Active; 'I' for Inactive)
    1  A    between atoms: N_3  and  N_13
    2  A    between atoms: N_3  and  C_29
    3  A    between atoms: C_12  and  C_28
    4  A    between atoms: N_13  and  C_33
                            x       y       z     vdW  Elec       q    Type
                         _______ _______ _______ _____ _____    ______ ____

>  <TORSDO>
F 4

$$$$
=
 OpenBabel10272400093D

 34 39  0  0  1  0  0  0  0  0999 V2000
  186.7390  178.2560  140.4110 C   0  0  0  0  0  0  0  0  0  0  0  0
  187.8570  178.4160  138.2540 C   0  0  0  0  0  0  0  0  0  0  0  0
  189.1540  177.8870  140.3560 C   0  0  0  0  0  0  0  0  0  0  0  0
  191.6620  177.5170  140.5560 C   0  0  2  0  0  3  0  0  0  0  0  0
  185.5030  178.3830  139.7760 C   0  0  0  0  0  3  0  0  0  0  0  0
  186.6080  178.5500  137.6420 C   0  0  0  0  0  3  0  0  0  0  0  0
  190.3480  176.5210  138.6800 C   0  0  0  0  0  3  0  0  0  0  0  0
  187.9410  178.1650  139.6530 C   0  0  0  0  0  0  0  0  0  0  0  0
  191.5690  175.8350  138.1450 C   0  0  0  0  0  2  0  0  0  0  0  0
  192.8930  176.7950  139.9890 C   0  0  0  0  0  2  0  0  0  0  0  0
  185.4350  178.5020  138.3910 C   0  0  0  0  0  3  0  0  0  0  0  0
  189.1790  177.9830  141.7660 C   0  0  0  0  0  0  0  0  0  0  0  0
  186.7750  178.2700  141.8030 C   0  0  0  0  0  3  0  0  0  0  0  0
  189.2310  178.8770  137.2540 Cl  0  0  0  0  0  0  0  0  0  0  0  0
  191.4290  177.0570  141.8660 O   0  0  0  0  0  0  0  0  0  0  0  0
  190.5260  177.9490  142.4840 C   0  0  2  0  0  3  0  0  0  0  0  0
  192.8160  176.6450  138.4760 C   0  0  1  0  0  3  0  0  0  0  0  0
  190.3900  177.3350  139.7450 C   0  0  0  0  0  0  0  0  0  0  0  0
  187.9870  178.1790  142.4750 C   0  0  0  0  0  3  0  0  0  0  0  0
  191.2930  176.4810  145.8940 C   0  0  0  0  0  0  0  0  0  0  0  0
  190.2750  177.0340  146.6770 C   0  0  0  0  0  3  0  0  0  0  0  0
  190.4210  177.6270  143.9450 C   0  0  0  0  0  0  0  0  0  0  0  0
  189.3300  177.8850  146.0970 C   0  0  0  0  0  3  0  0  0  0  0  0
  191.3670  176.7780  144.5310 C   0  0  0  0  0  3  0  0  0  0  0  0
  189.4030  178.1840  144.7340 C   0  0  0  0  0  3  0  0  0  0  0  0
  192.4770  175.4170  146.6220 Cl  0  0  0  0  0  0  0  0  0  0  0  0
  193.9970  175.9470  137.9990 N   0  0  0  0  0  2  0  0  0  0  0  0
  194.2980  176.4700  136.7330 N   0  0  0  0  0  2  0  0  0  0  0  0
  195.7480  174.5400  137.0920 C   0  0  0  0  0  2  0  0  0  0  0  0
  196.2980  176.8960  134.4360 N   0  0  0  0  0  2  0  0  0  0  0  0
  196.3330  176.1770  135.5080 C   0  0  0  0  0  0  0  0  0  0  0  0
  197.2540  174.8200  137.1540 C   0  0  0  0  0  3  0  0  0  0  0  0
  195.1450  175.4970  136.0620 C   0  0  2  0  0  3  0  0  0  0  0  0
  197.5470  175.7580  136.0890 N   0  0  0  0  0  0  0  0  0  0  0  0
  1 13  1  0  0  0  0
  2  8  1  0  0  0  0
  3 12  2  0  0  0  0
  4 10  1  6  0  0  0
  4 15  1  0  0  0  0
  5  1  1  0  0  0  0
  6  2  2  0  0  0  0
  6 11  1  0  0  0  0
  7 18  2  0  0  0  0
  8  3  1  0  0  0  0
  8  1  2  0  0  0  0
  9 17  1  0  0  0  0
  9  7  1  0  0  0  0
 11  5  2  0  0  0  0
 12 19  1  0  0  0  0
 12 16  1  0  0  0  0
 13 19  2  0  0  0  0
 14  2  1  0  0  0  0
 15 16  1  0  0  0  0
 16 22  1  1  0  0  0
 17 27  1  1  0  0  0
 17 10  1  0  0  0  0
 18  3  1  0  0  0  0
 18  4  1  0  0  0  0
 20 26  1  0  0  0  0
 20 21  1  0  0  0  0
 22 24  1  0  0  0  0
 22 25  2  0  0  0  0
 23 21  2  0  0  0  0
 24 20  2  0  0  0  0
 25 23  1  0  0  0  0
 28 27  1  0  0  0  0
 29 32  1  0  0  0  0
 30 31  2  0  0  0  0
 31 33  1  0  0  0  0
 31 34  1  0  0  0  0
 33 28  1  1  0  0  0
 33 29  1  0  0  0  0
 34 32  2  0  0  0  0
M  END
>  <MODEL>
9

>  <REMARK>
 VINA RESULT:      -9.7      2.627      6.105
  Name = 
  4 active torsions:
  status: ('A' for Active; 'I' for Inactive)
    1  A    between atoms: N_3  and  N_13
    2  A    between atoms: N_3  and  C_29
    3  A    between atoms: C_12  and  C_28
    4  A    between atoms: N_13  and  C_33
                            x       y       z     vdW  Elec       q    Type
                         _______ _______ _______ _____ _____    ______ ____

>  <TORSDO>
F 4

$$$$
