=
 OpenBabel10272401083D

 27 30  0  0  1  0  0  0  0  0999 V2000
  187.5970  176.3680  143.3830 C   0  0  0  0  0  2  0  0  0  0  0  0
  188.4970  177.6090  143.1610 C   0  0  2  0  0  3  0  0  0  0  0  0
  187.3550  177.6400  144.2130 C   0  0  2  0  0  0  0  0  0  0  0  0
  189.9330  177.3770  147.1910 C   0  0  0  0  0  2  0  0  0  0  0  0
  189.1760  178.0770  148.2920 C   0  0  0  0  0  2  0  0  0  0  0  0
  188.0370  177.6750  145.6230 C   0  0  1  0  0  3  0  0  0  0  0  0
  190.3690  177.1120  144.9450 O   0  0  0  0  0  1  0  0  0  0  0  0
  187.6480  178.1680  148.0890 C   0  0  0  0  0  2  0  0  0  0  0  0
  187.2030  177.3330  146.9020 C   0  0  0  0  0  2  0  0  0  0  0  0
  189.5570  177.8270  145.7740 C   0  0  2  0  0  3  0  0  0  0  0  0
  183.4080  178.9740  144.1080 C   0  0  0  0  0  3  0  0  0  0  0  0
  186.0390  178.1880  144.0130 C   0  0  0  0  0  0  0  0  0  0  0  0
  185.5000  178.7230  145.1960 C   0  0  0  0  0  3  0  0  0  0  0  0
  184.1590  179.0930  145.2390 C   0  0  0  0  0  3  0  0  0  0  0  0
  183.9490  178.4330  142.9320 C   0  0  0  0  0  3  0  0  0  0  0  0
  185.2700  177.9520  142.8820 C   0  0  0  0  0  3  0  0  0  0  0  0
  188.1570  178.4770  141.9060 C   0  0  0  0  0  2  0  0  0  0  0  0
  191.2430  176.9480  140.4300 C   0  0  0  0  0  3  0  0  0  0  0  0
  192.0880  176.4020  138.3560 O   0  0  0  0  0  1  0  0  0  0  0  0
  189.8880  177.5340  138.5190 C   0  0  0  0  0  0  0  0  0  0  0  0
  189.7670  177.4790  137.1600 O   0  0  0  0  0  1  0  0  0  0  0  0
  188.8880  178.1070  139.4020 C   0  0  0  0  0  0  0  0  0  0  0  0
  191.0760  176.9740  139.1150 C   0  0  0  0  0  0  0  0  0  0  0  0
  189.0900  177.9600  140.7820 C   0  0  0  0  0  0  0  0  0  0  0  0
  190.2280  177.4050  141.2620 C   0  0  0  0  0  3  0  0  0  0  0  0
  186.7040  177.9150  138.4200 O   0  0  0  0  0  1  0  0  0  0  0  0
  187.7370  178.7090  138.9170 O   0  0  0  0  0  0  0  0  0  0  0  0
  1  3  1  0  0  0  0
  2 17  1  6  0  0  0
  2  1  1  0  0  0  0
  2  3  1  0  0  0  0
  3 12  1  6  0  0  0
  3  6  1  0  0  0  0
  4  5  1  0  0  0  0
  6 10  1  0  0  0  0
  6  9  1  6  0  0  0
  8  5  1  0  0  0  0
  9  8  1  0  0  0  0
 10  7  1  6  0  0  0
 10  4  1  0  0  0  0
 11 14  1  0  0  0  0
 12 13  1  0  0  0  0
 13 14  2  0  0  0  0
 15 11  2  0  0  0  0
 16 15  1  0  0  0  0
 16 12  2  0  0  0  0
 18 25  1  0  0  0  0
 19 23  1  0  0  0  0
 20 23  1  0  0  0  0
 20 22  2  0  0  0  0
 21 20  1  0  0  0  0
 22 24  1  0  0  0  0
 23 18  2  0  0  0  0
 24 25  2  0  0  0  0
 24 17  1  0  0  0  0
 26 27  1  0  0  0  0
 27 22  1  0  0  0  0
M  END
>  <MODEL>
1

>  <REMARK>
 VINA RESULT:     -10.0      0.000      0.000
  Name = 
  5 active torsions:
  status: ('A' for Active; 'I' for Inactive)
    1  A    between atoms: C_2  and  C_6
    2  A    between atoms: C_6  and  C_17
    3  A    between atoms: C_9  and  C_15
    4  A    between atoms: C_14  and  O_19
    5  A    between atoms: C_15  and  C_18
                            x       y       z     vdW  Elec       q    Type
                         _______ _______ _______ _____ _____    ______ ____

>  <TORSDO>
F 5

$$$$
=
 OpenBabel10272401083D

 27 30  0  0  1  0  0  0  0  0999 V2000
  190.6700  178.9760  144.2670 C   0  0  0  0  0  2  0  0  0  0  0  0
  190.2610  178.3930  142.8920 C   0  0  2  0  0  3  0  0  0  0  0  0
  189.9390  177.6240  144.2020 C   0  0  2  0  0  0  0  0  0  0  0  0
  186.3020  177.7070  145.7350 C   0  0  0  0  0  2  0  0  0  0  0  0
  185.4840  178.0650  144.5200 C   0  0  0  0  0  2  0  0  0  0  0  0
  188.3850  177.6790  144.3920 C   0  0  1  0  0  3  0  0  0  0  0  0
  188.2980  177.8090  146.8800 O   0  0  0  0  0  1  0  0  0  0  0  0
  186.1600  177.7840  143.1610 C   0  0  0  0  0  2  0  0  0  0  0  0
  187.4460  176.9980  143.3420 C   0  0  0  0  0  2  0  0  0  0  0  0
  187.7540  178.1980  145.6920 C   0  0  2  0  0  3  0  0  0  0  0  0
  192.5290  174.9040  146.0100 C   0  0  0  0  0  3  0  0  0  0  0  0
  190.7160  176.5490  144.7630 C   0  0  0  0  0  0  0  0  0  0  0  0
  191.1410  176.8260  146.0730 C   0  0  0  0  0  3  0  0  0  0  0  0
  192.0790  176.0000  146.6850 C   0  0  0  0  0  3  0  0  0  0  0  0
  192.1060  174.6350  144.6990 C   0  0  0  0  0  3  0  0  0  0  0  0
  191.2390  175.5060  144.0120 C   0  0  0  0  0  3  0  0  0  0  0  0
  191.4060  177.7050  142.0800 C   0  0  0  0  0  2  0  0  0  0  0  0
  188.7490  177.4880  139.4470 C   0  0  0  0  0  3  0  0  0  0  0  0
  188.5680  177.0130  137.1990 O   0  0  0  0  0  1  0  0  0  0  0  0
  190.7800  176.8490  138.3070 C   0  0  0  0  0  0  0  0  0  0  0  0
  191.3460  176.5100  137.1110 O   0  0  0  0  0  1  0  0  0  0  0  0
  191.5190  176.9780  139.5490 C   0  0  0  0  0  0  0  0  0  0  0  0
  189.3610  177.1090  138.3330 C   0  0  0  0  0  0  0  0  0  0  0  0
  190.8230  177.4730  140.6630 C   0  0  0  0  0  0  0  0  0  0  0  0
  189.4920  177.7090  140.6000 C   0  0  0  0  0  3  0  0  0  0  0  0
  193.7970  177.7360  139.4550 O   0  0  0  0  0  1  0  0  0  0  0  0
  192.8760  176.7040  139.6290 O   0  0  0  0  0  0  0  0  0  0  0  0
  2 17  1  6  0  0  0
  2  3  1  0  0  0  0
  2  1  1  0  0  0  0
  3  1  1  0  0  0  0
  3  6  1  0  0  0  0
  3 12  1  1  0  0  0
  5  4  1  0  0  0  0
  6  9  1  1  0  0  0
  6 10  1  0  0  0  0
  8  9  1  0  0  0  0
  8  5  1  0  0  0  0
 10  4  1  0  0  0  0
 10  7  1  1  0  0  0
 11 14  1  0  0  0  0
 12 13  1  0  0  0  0
 13 14  2  0  0  0  0
 15 11  2  0  0  0  0
 16 15  1  0  0  0  0
 16 12  2  0  0  0  0
 18 25  1  0  0  0  0
 19 23  1  0  0  0  0
 20 23  1  0  0  0  0
 20 22  2  0  0  0  0
 21 20  1  0  0  0  0
 22 27  1  0  0  0  0
 22 24  1  0  0  0  0
 23 18  2  0  0  0  0
 24 17  1  0  0  0  0
 25 24  2  0  0  0  0
 26 27  1  0  0  0  0
M  END
>  <MODEL>
2

>  <REMARK>
 VINA RESULT:      -9.6      1.916      4.815
  Name = 
  5 active torsions:
  status: ('A' for Active; 'I' for Inactive)
    1  A    between atoms: C_2  and  C_6
    2  A    between atoms: C_6  and  C_17
    3  A    between atoms: C_9  and  C_15
    4  A    between atoms: C_14  and  O_19
    5  A    between atoms: C_15  and  C_18
                            x       y       z     vdW  Elec       q    Type
                         _______ _______ _______ _____ _____    ______ ____

>  <TORSDO>
F 5

$$$$
=
 OpenBabel10272401083D

 27 30  0  0  1  0  0  0  0  0999 V2000
  186.4570  176.5170  144.0910 C   0  0  0  0  0  2  0  0  0  0  0  0
  186.4280  177.9000  143.3950 C   0  0  2  0  0  3  0  0  0  0  0  0
  187.6470  177.4760  144.2580 C   0  0  2  0  0  0  0  0  0  0  0  0
  190.1030  177.6280  141.1710 C   0  0  0  0  0  2  0  0  0  0  0  0
  191.3040  176.9020  141.7200 C   0  0  0  0  0  2  0  0  0  0  0  0
  188.8460  177.2550  143.2740 C   0  0  1  0  0  3  0  0  0  0  0  0
  188.2390  178.9330  141.5330 O   0  0  0  0  0  1  0  0  0  0  0  0
  191.0270  175.9890  142.9340 C   0  0  0  0  0  2  0  0  0  0  0  0
  189.5370  175.8540  143.1880 C   0  0  0  0  0  2  0  0  0  0  0  0
  189.2320  178.3140  142.2310 C   0  0  2  0  0  3  0  0  0  0  0  0
  188.6630  178.1030  148.2520 C   0  0  0  0  0  3  0  0  0  0  0  0
  187.8750  177.8400  145.6330 C   0  0  0  0  0  0  0  0  0  0  0  0
  189.2400  177.8170  145.9700 C   0  0  0  0  0  3  0  0  0  0  0  0
  189.6240  177.9260  147.3020 C   0  0  0  0  0  3  0  0  0  0  0  0
  187.3010  178.1190  147.9110 C   0  0  0  0  0  3  0  0  0  0  0  0
  186.8710  177.9070  146.5880 C   0  0  0  0  0  3  0  0  0  0  0  0
  185.5670  178.9970  144.1030 C   0  0  0  0  0  2  0  0  0  0  0  0
  181.8280  178.7670  144.0130 C   0  0  0  0  0  3  0  0  0  0  0  0
  180.1340  178.6310  142.4550 O   0  0  0  0  0  1  0  0  0  0  0  0
  182.4940  178.6590  141.6940 C   0  0  0  0  0  0  0  0  0  0  0  0
  182.0690  178.6120  140.3970 O   0  0  0  0  0  1  0  0  0  0  0  0
  183.8890  178.7100  142.0910 C   0  0  0  0  0  0  0  0  0  0  0  0
  181.4940  178.6750  142.7330 C   0  0  0  0  0  0  0  0  0  0  0  0
  184.1630  178.9010  143.4530 C   0  0  0  0  0  0  0  0  0  0  0  0
  183.1630  178.9210  144.3660 C   0  0  0  0  0  3  0  0  0  0  0  0
  185.0700  179.6860  140.2410 O   0  0  0  0  0  1  0  0  0  0  0  0
  184.9200  178.6530  141.1650 O   0  0  0  0  0  0  0  0  0  0  0  0
  1  3  1  0  0  0  0
  2  1  1  0  0  0  0
  2 17  1  1  0  0  0
  2  3  1  0  0  0  0
  3 12  1  1  0  0  0
  4  5  1  0  0  0  0
  4 10  1  0  0  0  0
  5  8  1  0  0  0  0
  6  9  1  6  0  0  0
  6  3  1  0  0  0  0
  8  9  1  0  0  0  0
 10  7  1  6  0  0  0
 10  6  1  0  0  0  0
 12 13  2  0  0  0  0
 12 16  1  0  0  0  0
 13 14  1  0  0  0  0
 14 11  2  0  0  0  0
 15 11  1  0  0  0  0
 16 15  2  0  0  0  0
 18 25  1  0  0  0  0
 19 23  1  0  0  0  0
 20 22  2  0  0  0  0
 20 23  1  0  0  0  0
 21 20  1  0  0  0  0
 22 24  1  0  0  0  0
 23 18  2  0  0  0  0
 24 17  1  0  0  0  0
 24 25  2  0  0  0  0
 26 27  1  0  0  0  0
 27 22  1  0  0  0  0
M  END
>  <MODEL>
3

>  <REMARK>
 VINA RESULT:      -9.5      2.313      6.160
  Name = 
  5 active torsions:
  status: ('A' for Active; 'I' for Inactive)
    1  A    between atoms: C_2  and  C_6
    2  A    between atoms: C_6  and  C_17
    3  A    between atoms: C_9  and  C_15
    4  A    between atoms: C_14  and  O_19
    5  A    between atoms: C_15  and  C_18
                            x       y       z     vdW  Elec       q    Type
                         _______ _______ _______ _____ _____    ______ ____

>  <TORSDO>
F 5

$$$$
=
 OpenBabel10272401083D

 27 30  0  0  1  0  0  0  0  0999 V2000
  187.7940  176.4950  143.1370 C   0  0  0  0  0  2  0  0  0  0  0  0
  188.6740  177.7660  143.0470 C   0  0  2  0  0  3  0  0  0  0  0  0
  187.4890  177.6960  144.0480 C   0  0  2  0  0  0  0  0  0  0  0  0
  189.9110  177.1560  147.1180 C   0  0  0  0  0  2  0  0  0  0  0  0
  189.1600  177.8740  148.2100 C   0  0  0  0  0  2  0  0  0  0  0  0
  188.1100  177.6380  145.4850 C   0  0  1  0  0  3  0  0  0  0  0  0
  190.4240  176.9300  144.8840 O   0  0  0  0  0  1  0  0  0  0  0  0
  187.6530  178.0820  147.9490 C   0  0  0  0  0  2  0  0  0  0  0  0
  187.2000  177.3180  146.7170 C   0  0  0  0  0  2  0  0  0  0  0  0
  189.6300  177.6760  145.7030 C   0  0  2  0  0  3  0  0  0  0  0  0
  183.5320  179.0000  143.9030 C   0  0  0  0  0  3  0  0  0  0  0  0
  186.1700  178.2320  143.8330 C   0  0  0  0  0  0  0  0  0  0  0  0
  185.6200  178.7800  145.0050 C   0  0  0  0  0  3  0  0  0  0  0  0
  184.2770  179.1420  145.0360 C   0  0  0  0  0  3  0  0  0  0  0  0
  184.0840  178.4460  142.7370 C   0  0  0  0  0  3  0  0  0  0  0  0
  185.4090  177.9730  142.7010 C   0  0  0  0  0  3  0  0  0  0  0  0
  188.3660  178.7200  141.8470 C   0  0  0  0  0  2  0  0  0  0  0  0
  187.9710  177.3370  138.3870 C   0  0  0  0  0  3  0  0  0  0  0  0
  189.1460  176.0290  136.8960 O   0  0  0  0  0  1  0  0  0  0  0  0
  190.0840  176.4510  139.1520 C   0  0  0  0  0  0  0  0  0  0  0  0
  191.1900  175.7220  138.8210 O   0  0  0  0  0  1  0  0  0  0  0  0
  189.8890  177.0940  140.4390 C   0  0  0  0  0  0  0  0  0  0  0  0
  189.0520  176.6040  138.1550 C   0  0  0  0  0  0  0  0  0  0  0  0
  188.7680  177.9270  140.5780 C   0  0  0  0  0  0  0  0  0  0  0  0
  187.8530  178.0300  139.5850 C   0  0  0  0  0  3  0  0  0  0  0  0
  192.0270  177.6290  141.3940 O   0  0  0  0  0  1  0  0  0  0  0  0
  190.8040  176.9630  141.4720 O   0  0  0  0  0  0  0  0  0  0  0  0
  1  3  1  0  0  0  0
  2 17  1  6  0  0  0
  2  1  1  0  0  0  0
  2  3  1  0  0  0  0
  3 12  1  6  0  0  0
  3  6  1  0  0  0  0
  4  5  1  0  0  0  0
  6 10  1  0  0  0  0
  6  9  1  6  0  0  0
  8  5  1  0  0  0  0
  9  8  1  0  0  0  0
 10  7  1  6  0  0  0
 10  4  1  0  0  0  0
 11 14  1  0  0  0  0
 12 13  1  0  0  0  0
 13 14  2  0  0  0  0
 15 11  2  0  0  0  0
 16 15  1  0  0  0  0
 16 12  2  0  0  0  0
 18 25  1  0  0  0  0
 19 23  1  0  0  0  0
 20 22  2  0  0  0  0
 21 20  1  0  0  0  0
 22 24  1  0  0  0  0
 22 27  1  0  0  0  0
 23 18  2  0  0  0  0
 23 20  1  0  0  0  0
 24 17  1  0  0  0  0
 25 24  2  0  0  0  0
 26 27  1  0  0  0  0
M  END
>  <MODEL>
4

>  <REMARK>
 VINA RESULT:      -9.5      1.170      2.017
  Name = 
  5 active torsions:
  status: ('A' for Active; 'I' for Inactive)
    1  A    between atoms: C_2  and  C_6
    2  A    between atoms: C_6  and  C_17
    3  A    between atoms: C_9  and  C_15
    4  A    between atoms: C_14  and  O_19
    5  A    between atoms: C_15  and  C_18
                            x       y       z     vdW  Elec       q    Type
                         _______ _______ _______ _____ _____    ______ ____

>  <TORSDO>
F 5

$$$$
=
 OpenBabel10272401083D

 27 30  0  0  1  0  0  0  0  0999 V2000
  186.8540  176.5290  144.0940 C   0  0  0  0  0  2  0  0  0  0  0  0
  186.8990  177.9410  143.4590 C   0  0  2  0  0  3  0  0  0  0  0  0
  188.0510  177.4530  144.3790 C   0  0  2  0  0  0  0  0  0  0  0  0
  190.6380  177.5700  141.4000 C   0  0  0  0  0  2  0  0  0  0  0  0
  191.8510  176.9500  142.0450 C   0  0  0  0  0  2  0  0  0  0  0  0
  189.3060  177.2460  143.4640 C   0  0  1  0  0  3  0  0  0  0  0  0
  188.6890  178.7810  141.5990 O   0  0  0  0  0  1  0  0  0  0  0  0
  191.5690  176.0930  143.2980 C   0  0  0  0  0  2  0  0  0  0  0  0
  190.0780  175.8850  143.4930 C   0  0  0  0  0  2  0  0  0  0  0  0
  189.6810  178.2640  142.3770 C   0  0  2  0  0  3  0  0  0  0  0  0
  188.8140  177.8810  148.4540 C   0  0  0  0  0  3  0  0  0  0  0  0
  188.1970  177.7520  145.7800 C   0  0  0  0  0  0  0  0  0  0  0  0
  189.5340  177.6680  146.2050 C   0  0  0  0  0  3  0  0  0  0  0  0
  189.8310  177.7090  147.5640 C   0  0  0  0  0  3  0  0  0  0  0  0
  187.4800  177.9580  148.0250 C   0  0  0  0  0  3  0  0  0  0  0  0
  187.1330  177.8160  146.6680 C   0  0  0  0  0  3  0  0  0  0  0  0
  186.0160  179.0260  144.1590 C   0  0  0  0  0  2  0  0  0  0  0  0
  183.4660  178.5300  141.4590 C   0  0  0  0  0  3  0  0  0  0  0  0
  181.1770  178.3530  141.2440 O   0  0  0  0  0  1  0  0  0  0  0  0
  182.1640  178.7890  143.4760 C   0  0  0  0  0  0  0  0  0  0  0  0
  180.9140  178.7680  144.0260 O   0  0  0  0  0  1  0  0  0  0  0  0
  183.3820  179.0050  144.2360 C   0  0  0  0  0  0  0  0  0  0  0  0
  182.2820  178.5690  142.0560 C   0  0  0  0  0  0  0  0  0  0  0  0
  184.5990  178.8570  143.5540 C   0  0  0  0  0  0  0  0  0  0  0  0
  184.6240  178.6330  142.2190 C   0  0  0  0  0  3  0  0  0  0  0  0
  184.0280  178.4140  146.4730 O   0  0  0  0  0  1  0  0  0  0  0  0
  183.3630  179.2710  145.5970 O   0  0  0  0  0  0  0  0  0  0  0  0
  1  3  1  0  0  0  0
  2  1  1  0  0  0  0
  2 17  1  1  0  0  0
  2  3  1  0  0  0  0
  3 12  1  1  0  0  0
  4  5  1  0  0  0  0
  4 10  1  0  0  0  0
  5  8  1  0  0  0  0
  6  9  1  6  0  0  0
  6  3  1  0  0  0  0
  8  9  1  0  0  0  0
 10  7  1  6  0  0  0
 10  6  1  0  0  0  0
 12 13  2  0  0  0  0
 12 16  1  0  0  0  0
 13 14  1  0  0  0  0
 14 11  2  0  0  0  0
 15 11  1  0  0  0  0
 16 15  2  0  0  0  0
 18 23  2  0  0  0  0
 18 25  1  0  0  0  0
 19 23  1  0  0  0  0
 20 21  1  0  0  0  0
 20 22  2  0  0  0  0
 22 27  1  0  0  0  0
 23 20  1  0  0  0  0
 24 17  1  0  0  0  0
 24 22  1  0  0  0  0
 25 24  2  0  0  0  0
 27 26  1  0  0  0  0
M  END
>  <MODEL>
5

>  <REMARK>
 VINA RESULT:      -9.4      3.011      6.432
  Name = 
  5 active torsions:
  status: ('A' for Active; 'I' for Inactive)
    1  A    between atoms: C_2  and  C_6
    2  A    between atoms: C_6  and  C_17
    3  A    between atoms: C_9  and  C_15
    4  A    between atoms: C_14  and  O_19
    5  A    between atoms: C_15  and  C_18
                            x       y       z     vdW  Elec       q    Type
                         _______ _______ _______ _____ _____    ______ ____

>  <TORSDO>
F 5

$$$$
=
 OpenBabel10272401083D

 27 30  0  0  1  0  0  0  0  0999 V2000
  188.8590  175.7070  142.7850 C   0  0  0  0  0  2  0  0  0  0  0  0
  187.7630  176.8010  142.7910 C   0  0  2  0  0  3  0  0  0  0  0  0
  189.2040  177.1310  142.3160 C   0  0  2  0  0  0  0  0  0  0  0  0
  190.0860  177.5690  138.4930 C   0  0  0  0  0  2  0  0  0  0  0  0
  188.7100  177.6010  137.8790 C   0  0  0  0  0  2  0  0  0  0  0  0
  189.1270  177.3770  140.7700 C   0  0  1  0  0  3  0  0  0  0  0  0
  191.4910  176.8550  140.1730 O   0  0  0  0  0  1  0  0  0  0  0  0
  187.5620  177.9540  138.8490 C   0  0  0  0  0  2  0  0  0  0  0  0
  188.1010  178.4070  140.1940 C   0  0  0  0  0  2  0  0  0  0  0  0
  190.1780  176.7940  139.8140 C   0  0  2  0  0  3  0  0  0  0  0  0
  191.9640  178.6360  145.0520 C   0  0  0  0  0  3  0  0  0  0  0  0
  190.2370  177.7400  143.1120 C   0  0  0  0  0  0  0  0  0  0  0  0
  190.8050  176.8380  144.0280 C   0  0  0  0  0  3  0  0  0  0  0  0
  191.6590  177.3080  145.0220 C   0  0  0  0  0  3  0  0  0  0  0  0
  191.3890  179.5340  144.1390 C   0  0  0  0  0  3  0  0  0  0  0  0
  190.4420  179.1110  143.1870 C   0  0  0  0  0  3  0  0  0  0  0  0
  187.4500  177.4390  144.1840 C   0  0  0  0  0  2  0  0  0  0  0  0
  184.3050  178.5390  142.4700 C   0  0  0  0  0  3  0  0  0  0  0  0
  182.2030  179.3080  143.0240 O   0  0  0  0  0  1  0  0  0  0  0  0
  183.8510  178.8550  144.8210 C   0  0  0  0  0  0  0  0  0  0  0  0
  182.9180  179.2040  145.7550 O   0  0  0  0  0  1  0  0  0  0  0  0
  185.1990  178.4210  145.1400 C   0  0  0  0  0  0  0  0  0  0  0  0
  183.4680  178.9070  143.4310 C   0  0  0  0  0  0  0  0  0  0  0  0
  185.9930  177.9590  144.0800 C   0  0  0  0  0  0  0  0  0  0  0  0
  185.5520  178.0260  142.8020 C   0  0  0  0  0  3  0  0  0  0  0  0
  185.7030  179.5590  147.1950 O   0  0  0  0  0  1  0  0  0  0  0  0
  185.6700  178.3840  146.4440 O   0  0  0  0  0  0  0  0  0  0  0  0
  1  2  1  0  0  0  0
  2 17  1  1  0  0  0
  3  1  1  0  0  0  0
  3  2  1  0  0  0  0
  3 12  1  1  0  0  0
  4 10  1  0  0  0  0
  5  4  1  0  0  0  0
  5  8  1  0  0  0  0
  6  9  1  1  0  0  0
  6  3  1  0  0  0  0
  8  9  1  0  0  0  0
 10  7  1  1  0  0  0
 10  6  1  0  0  0  0
 12 16  2  0  0  0  0
 12 13  1  0  0  0  0
 13 14  2  0  0  0  0
 14 11  1  0  0  0  0
 15 11  2  0  0  0  0
 16 15  1  0  0  0  0
 18 25  2  0  0  0  0
 18 23  1  0  0  0  0
 19 23  1  0  0  0  0
 20 22  1  0  0  0  0
 20 21  1  0  0  0  0
 22 27  1  0  0  0  0
 23 20  2  0  0  0  0
 24 17  1  0  0  0  0
 24 22  2  0  0  0  0
 25 24  1  0  0  0  0
 27 26  1  0  0  0  0
M  END
>  <MODEL>
6

>  <REMARK>
 VINA RESULT:      -9.4      2.824      7.176
  Name = 
  5 active torsions:
  status: ('A' for Active; 'I' for Inactive)
    1  A    between atoms: C_2  and  C_6
    2  A    between atoms: C_6  and  C_17
    3  A    between atoms: C_9  and  C_15
    4  A    between atoms: C_14  and  O_19
    5  A    between atoms: C_15  and  C_18
                            x       y       z     vdW  Elec       q    Type
                         _______ _______ _______ _____ _____    ______ ____

>  <TORSDO>
F 5

$$$$
=
 OpenBabel10272401083D

 27 30  0  0  1  0  0  0  0  0999 V2000
  190.5920  178.9560  144.4720 C   0  0  0  0  0  2  0  0  0  0  0  0
  189.7530  178.4230  143.2840 C   0  0  2  0  0  3  0  0  0  0  0  0
  189.7770  177.6620  144.6370 C   0  0  2  0  0  0  0  0  0  0  0  0
  186.7760  178.0380  147.1750 C   0  0  0  0  0  2  0  0  0  0  0  0
  185.6530  178.4140  146.2420 C   0  0  0  0  0  2  0  0  0  0  0  0
  188.3560  177.8280  145.2770 C   0  0  1  0  0  3  0  0  0  0  0  0
  189.0260  178.0390  147.6690 O   0  0  0  0  0  1  0  0  0  0  0  0
  185.8740  178.0470  144.7590 C   0  0  0  0  0  2  0  0  0  0  0  0
  187.1090  177.1810  144.5880 C   0  0  0  0  0  2  0  0  0  0  0  0
  188.1740  178.4280  146.6790 C   0  0  2  0  0  3  0  0  0  0  0  0
  192.5230  174.7350  145.7610 C   0  0  0  0  0  3  0  0  0  0  0  0
  190.6020  176.5250  144.9520 C   0  0  0  0  0  0  0  0  0  0  0  0
  191.1460  176.6030  146.2460 C   0  0  0  0  0  3  0  0  0  0  0  0
  192.1370  175.7070  146.6350 C   0  0  0  0  0  3  0  0  0  0  0  0
  191.9810  174.6640  144.4690 C   0  0  0  0  0  3  0  0  0  0  0  0
  191.0540  175.6170  144.0050 C   0  0  0  0  0  3  0  0  0  0  0  0
  190.5540  177.6640  142.1760 C   0  0  0  0  0  2  0  0  0  0  0  0
  187.4900  178.4140  140.1530 C   0  0  0  0  0  3  0  0  0  0  0  0
  186.7840  178.2920  137.9620 O   0  0  0  0  0  1  0  0  0  0  0  0
  189.0480  177.4790  138.5620 C   0  0  0  0  0  0  0  0  0  0  0  0
  189.2800  177.1780  137.2500 O   0  0  0  0  0  1  0  0  0  0  0  0
  190.0120  177.2690  139.6270 C   0  0  0  0  0  0  0  0  0  0  0  0
  187.7710  178.0530  138.9080 C   0  0  0  0  0  0  0  0  0  0  0  0
  189.6810  177.7610  140.8990 C   0  0  0  0  0  0  0  0  0  0  0  0
  188.4640  178.3040  141.1370 C   0  0  0  0  0  3  0  0  0  0  0  0
  191.3040  175.4130  138.8200 O   0  0  0  0  0  1  0  0  0  0  0  0
  191.2460  176.6810  139.3970 O   0  0  0  0  0  0  0  0  0  0  0  0
  1  3  1  0  0  0  0
  2 17  1  6  0  0  0
  2  1  1  0  0  0  0
  2  3  1  0  0  0  0
  3 12  1  1  0  0  0
  3  6  1  0  0  0  0
  5  4  1  0  0  0  0
  6  9  1  1  0  0  0
  6 10  1  0  0  0  0
  8  5  1  0  0  0  0
  9  8  1  0  0  0  0
 10  4  1  0  0  0  0
 10  7  1  1  0  0  0
 11 14  1  0  0  0  0
 12 13  1  0  0  0  0
 13 14  2  0  0  0  0
 15 11  2  0  0  0  0
 16 15  1  0  0  0  0
 16 12  2  0  0  0  0
 18 25  1  0  0  0  0
 19 23  1  0  0  0  0
 20 23  1  0  0  0  0
 20 22  2  0  0  0  0
 21 20  1  0  0  0  0
 22 24  1  0  0  0  0
 23 18  2  0  0  0  0
 24 25  2  0  0  0  0
 24 17  1  0  0  0  0
 26 27  1  0  0  0  0
 27 22  1  0  0  0  0
M  END
>  <MODEL>
7

>  <REMARK>
 VINA RESULT:      -9.3      1.858      4.586
  Name = 
  5 active torsions:
  status: ('A' for Active; 'I' for Inactive)
    1  A    between atoms: C_2  and  C_6
    2  A    between atoms: C_6  and  C_17
    3  A    between atoms: C_9  and  C_15
    4  A    between atoms: C_14  and  O_19
    5  A    between atoms: C_15  and  C_18
                            x       y       z     vdW  Elec       q    Type
                         _______ _______ _______ _____ _____    ______ ____

>  <TORSDO>
F 5

$$$$
=
 OpenBabel10272401083D

 27 30  0  0  1  0  0  0  0  0999 V2000
  187.8560  176.0710  143.4330 C   0  0  0  0  0  2  0  0  0  0  0  0
  188.6900  177.2970  142.9840 C   0  0  2  0  0  3  0  0  0  0  0  0
  187.9230  177.3160  144.3340 C   0  0  2  0  0  0  0  0  0  0  0  0
  189.7560  177.3350  147.8310 C   0  0  0  0  0  2  0  0  0  0  0  0
  191.1470  176.9130  147.4310 C   0  0  0  0  0  2  0  0  0  0  0  0
  189.0010  177.2790  145.4710 C   0  0  1  0  0  3  0  0  0  0  0  0
  187.4840  177.2880  147.4500 O   0  0  0  0  0  1  0  0  0  0  0  0
  191.4970  177.1140  145.9410 C   0  0  0  0  0  2  0  0  0  0  0  0
  190.4150  177.9040  145.2270 C   0  0  0  0  0  2  0  0  0  0  0  0
  188.6460  176.8360  146.8970 C   0  0  2  0  0  3  0  0  0  0  0  0
  184.2120  179.2080  144.4730 C   0  0  0  0  0  3  0  0  0  0  0  0
  186.6290  177.9050  144.5610 C   0  0  0  0  0  0  0  0  0  0  0  0
  185.7600  177.7160  143.4730 C   0  0  0  0  0  3  0  0  0  0  0  0
  184.5500  178.4010  143.4280 C   0  0  0  0  0  3  0  0  0  0  0  0
  185.0860  179.3990  145.5550 C   0  0  0  0  0  3  0  0  0  0  0  0
  186.3610  178.8030  145.5840 C   0  0  0  0  0  3  0  0  0  0  0  0
  188.0170  178.2220  141.9190 C   0  0  0  0  0  2  0  0  0  0  0  0
  190.7630  176.9990  139.6820 C   0  0  0  0  0  3  0  0  0  0  0  0
  191.1790  176.7340  137.4300 O   0  0  0  0  0  1  0  0  0  0  0  0
  189.0410  177.7510  138.1650 C   0  0  0  0  0  0  0  0  0  0  0  0
  188.6480  177.8510  136.8610 O   0  0  0  0  0  1  0  0  0  0  0  0
  188.2320  178.1770  139.2930 C   0  0  0  0  0  0  0  0  0  0  0  0
  190.3330  177.1720  138.4390 C   0  0  0  0  0  0  0  0  0  0  0  0
  188.7110  177.8770  140.5770 C   0  0  0  0  0  0  0  0  0  0  0  0
  189.9310  177.3160  140.7480 C   0  0  0  0  0  3  0  0  0  0  0  0
  185.9860  178.1100  138.4430 O   0  0  0  0  0  1  0  0  0  0  0  0
  186.9980  178.7860  139.1240 O   0  0  0  0  0  0  0  0  0  0  0  0
  1  3  1  0  0  0  0
  2 17  1  6  0  0  0
  2  1  1  0  0  0  0
  2  3  1  0  0  0  0
  3 12  1  1  0  0  0
  3  6  1  0  0  0  0
  5  4  1  0  0  0  0
  6  9  1  1  0  0  0
  6 10  1  0  0  0  0
  8  5  1  0  0  0  0
  9  8  1  0  0  0  0
 10  7  1  1  0  0  0
 10  4  1  0  0  0  0
 11 15  1  0  0  0  0
 12 16  1  0  0  0  0
 13 12  2  0  0  0  0
 14 13  1  0  0  0  0
 14 11  2  0  0  0  0
 15 16  2  0  0  0  0
 18 25  1  0  0  0  0
 19 23  1  0  0  0  0
 20 23  1  0  0  0  0
 20 22  2  0  0  0  0
 21 20  1  0  0  0  0
 22 24  1  0  0  0  0
 23 18  2  0  0  0  0
 24 25  2  0  0  0  0
 24 17  1  0  0  0  0
 26 27  1  0  0  0  0
 27 22  1  0  0  0  0
M  END
>  <MODEL>
8

>  <REMARK>
 VINA RESULT:      -9.3      1.167      1.886
  Name = 
  5 active torsions:
  status: ('A' for Active; 'I' for Inactive)
    1  A    between atoms: C_2  and  C_6
    2  A    between atoms: C_6  and  C_17
    3  A    between atoms: C_9  and  C_15
    4  A    between atoms: C_14  and  O_19
    5  A    between atoms: C_15  and  C_18
                            x       y       z     vdW  Elec       q    Type
                         _______ _______ _______ _____ _____    ______ ____

>  <TORSDO>
F 5

$$$$
=
 OpenBabel10272401083D

 27 30  0  0  1  0  0  0  0  0999 V2000
  188.8290  178.9700  140.9680 C   0  0  0  0  0  2  0  0  0  0  0  0
  188.8690  177.4420  141.2120 C   0  0  2  0  0  3  0  0  0  0  0  0
  187.9760  178.0380  140.0910 C   0  0  2  0  0  0  0  0  0  0  0  0
  189.5040  178.0370  136.4510 C   0  0  0  0  0  2  0  0  0  0  0  0
  190.0560  176.6360  136.3690 C   0  0  0  0  0  2  0  0  0  0  0  0
  188.6150  177.6120  138.7250 C   0  0  1  0  0  3  0  0  0  0  0  0
  188.9370  179.8720  137.7220 O   0  0  0  0  0  1  0  0  0  0  0  0
  189.4540  175.6280  137.3700 C   0  0  0  0  0  2  0  0  0  0  0  0
  188.2610  176.2240  138.0960 C   0  0  0  0  0  2  0  0  0  0  0  0
  189.4180  178.6060  137.8720 C   0  0  2  0  0  3  0  0  0  0  0  0
  183.9740  179.1970  139.9640 C   0  0  0  0  0  3  0  0  0  0  0  0
  186.5670  178.3180  140.1930 C   0  0  0  0  0  0  0  0  0  0  0  0
  185.9390  178.3570  138.9370 C   0  0  0  0  0  3  0  0  0  0  0  0
  184.6340  178.8280  138.8300 C   0  0  0  0  0  3  0  0  0  0  0  0
  184.6080  179.1630  141.2160 C   0  0  0  0  0  3  0  0  0  0  0  0
  185.9590  178.7920  141.3470 C   0  0  0  0  0  3  0  0  0  0  0  0
  188.0210  176.9250  142.4190 C   0  0  0  0  0  2  0  0  0  0  0  0
  191.1610  176.4240  144.4000 C   0  0  0  0  0  3  0  0  0  0  0  0
  191.9800  176.8940  146.5040 O   0  0  0  0  0  1  0  0  0  0  0  0
  189.6430  177.4990  145.9400 C   0  0  0  0  0  0  0  0  0  0  0  0
  189.4900  178.0390  147.1860 O   0  0  0  0  0  1  0  0  0  0  0  0
  188.6020  177.4820  144.9290 C   0  0  0  0  0  0  0  0  0  0  0  0
  190.9230  176.9250  145.6060 C   0  0  0  0  0  0  0  0  0  0  0  0
  188.9560  177.0220  143.6510 C   0  0  0  0  0  0  0  0  0  0  0  0
  190.1880  176.5130  143.4140 C   0  0  0  0  0  3  0  0  0  0  0  0
  186.4830  177.2730  146.0400 O   0  0  0  0  0  1  0  0  0  0  0  0
  187.3280  177.9690  145.1760 O   0  0  0  0  0  0  0  0  0  0  0  0
  1  2  1  0  0  0  0
  2 17  1  1  0  0  0
  3 12  1  1  0  0  0
  3  1  1  0  0  0  0
  3  2  1  0  0  0  0
  4 10  1  0  0  0  0
  5  4  1  0  0  0  0
  5  8  1  0  0  0  0
  6  9  1  6  0  0  0
  6  3  1  0  0  0  0
  8  9  1  0  0  0  0
 10  7  1  6  0  0  0
 10  6  1  0  0  0  0
 11 15  1  0  0  0  0
 12 16  1  0  0  0  0
 13 12  2  0  0  0  0
 14 13  1  0  0  0  0
 14 11  2  0  0  0  0
 15 16  2  0  0  0  0
 17 24  1  0  0  0  0
 18 23  1  0  0  0  0
 20 21  1  0  0  0  0
 22 27  1  0  0  0  0
 22 20  1  0  0  0  0
 23 20  2  0  0  0  0
 23 19  1  0  0  0  0
 24 22  2  0  0  0  0
 25 24  1  0  0  0  0
 25 18  2  0  0  0  0
 27 26  1  0  0  0  0
M  END
>  <MODEL>
9

>  <REMARK>
 VINA RESULT:      -8.7      2.337      6.728
  Name = 
  5 active torsions:
  status: ('A' for Active; 'I' for Inactive)
    1  A    between atoms: C_2  and  C_6
    2  A    between atoms: C_6  and  C_17
    3  A    between atoms: C_9  and  C_15
    4  A    between atoms: C_14  and  O_19
    5  A    between atoms: C_15  and  C_18
                            x       y       z     vdW  Elec       q    Type
                         _______ _______ _______ _____ _____    ______ ____

>  <TORSDO>
F 5

$$$$
