=
 OpenBabel10272415183D

 34 39  0  0  1  0  0  0  0  0999 V2000
  185.7040  178.6850  140.8450 C   0  0  0  0  0  0  0  0  0  0  0  0
  188.7260  178.0980  138.7650 C   0  0  0  0  0  3  0  0  0  0  0  0
  186.4710  178.6000  138.1880 N   0  0  0  0  0  0  0  0  0  0  0  0
  184.1870  178.6210  142.8850 C   0  0  0  0  0  0  0  0  0  0  0  0
  185.3650  178.7890  142.2810 C   0  0  0  0  0  3  0  0  0  0  0  0
  182.5950  178.5040  140.9650 C   0  0  0  0  0  3  0  0  0  0  0  0
  182.6830  180.0320  139.0630 C   0  0  0  0  0  1  0  0  0  0  0  0
  182.9440  178.2200  142.2140 C   0  0  0  0  0  3  0  0  0  0  0  0
  185.2080  178.8680  138.5120 N   0  0  0  0  0  0  0  0  0  0  0  0
  184.7770  178.9160  139.8050 C   0  0  0  0  0  0  0  0  0  0  0  0
  183.4030  179.2510  140.0560 N   0  0  0  0  0  0  0  0  0  0  0  0
  189.7060  177.8680  139.7350 C   0  0  0  0  0  0  0  0  0  0  0  0
  189.3480  177.9140  141.0910 C   0  0  0  0  0  3  0  0  0  0  0  0
  187.4070  178.3710  139.1370 C   0  0  0  0  0  0  0  0  0  0  0  0
  188.0310  178.1860  141.4690 C   0  0  0  0  0  3  0  0  0  0  0  0
  187.0440  178.4180  140.4960 C   0  0  0  0  0  0  0  0  0  0  0  0
  184.1630  178.6920  144.3760 C   0  0  0  0  0  2  0  0  0  0  0  0
  187.1510  178.7220  146.7110 C   0  0  0  0  0  3  0  0  0  0  0  0
  186.4300  177.6360  144.2260 C   0  0  0  0  0  3  0  0  0  0  0  0
  190.2550  176.9130  145.8110 C   0  0  0  0  0  0  0  0  0  0  0  0
  189.3400  177.7020  146.5220 C   0  0  0  0  0  3  0  0  0  0  0  0
  188.0660  177.9420  146.0000 C   0  0  0  0  0  0  0  0  0  0  0  0
  188.6220  176.6230  144.0340 C   0  0  0  0  0  3  0  0  0  0  0  0
  187.7040  177.3950  144.7480 C   0  0  0  0  0  0  0  0  0  0  0  0
  189.8950  176.3860  144.5610 C   0  0  0  0  0  3  0  0  0  0  0  0
  185.5150  178.4130  144.9460 C   0  0  0  0  0  0  0  0  0  0  0  0
  185.8770  178.9590  146.1830 C   0  0  0  0  0  3  0  0  0  0  0  0
  191.6330  176.6850  146.3480 C   0  0  2  0  0  3  0  0  0  0  0  0
  191.6230  175.6420  147.3990 C   0  0  0  0  0  2  0  0  0  0  0  0
  191.6660  177.0090  147.7200 O   0  0  0  0  0  0  0  0  0  0  0  0
  191.0150  177.5980  139.3070 O   0  0  0  0  0  0  0  0  0  0  0  0
  190.7730  175.3650  138.6970 O   0  0  0  0  0  0  0  0  0  0  0  0
  192.7690  176.4260  137.9860 C   0  0  0  0  0  1  0  0  0  0  0  0
  191.4580  176.4220  138.6830 C   0  0  0  0  0  0  0  0  0  0  0  0
  1  5  1  0  0  0  0
  2 14  2  0  0  0  0
  2 12  1  0  0  0  0
  3  9  2  0  0  0  0
  3 14  1  0  0  0  0
  4 17  1  0  0  0  0
  5  4  2  0  0  0  0
  6  8  2  0  0  0  0
  7 11  1  0  0  0  0
  8  4  1  0  0  0  0
  9 10  1  0  0  0  0
 10 11  1  0  0  0  0
 10  1  2  0  0  0  0
 11  6  1  0  0  0  0
 12 13  2  0  0  0  0
 13 15  1  0  0  0  0
 14 16  1  0  0  0  0
 16  1  1  0  0  0  0
 16 15  2  0  0  0  0
 17 26  1  0  0  0  0
 19 24  2  0  0  0  0
 19 26  1  0  0  0  0
 20 21  2  0  0  0  0
 22 21  1  0  0  0  0
 22 18  2  0  0  0  0
 23 25  2  0  0  0  0
 23 24  1  0  0  0  0
 24 22  1  0  0  0  0
 25 20  1  0  0  0  0
 26 27  2  0  0  0  0
 27 18  1  0  0  0  0
 28 20  1  1  0  0  0
 28 29  1  0  0  0  0
 28 30  1  0  0  0  0
 29 30  1  0  0  0  0
 31 12  1  0  0  0  0
 33 34  1  0  0  0  0
 34 32  2  0  0  0  0
 34 31  1  0  0  0  0
M  END
>  <MODEL>
1

>  <REMARK>
 VINA RESULT:     -11.3      0.000      0.000
  Name = 
  5 active torsions:
  status: ('A' for Active; 'I' for Inactive)
    1  A    between atoms: C_7  and  C_11
    2  A    between atoms: C_8  and  C_18
    3  A    between atoms: C_18  and  C_30
    4  A    between atoms: O_23  and  C_24
    5  A    between atoms: O_23  and  C_25
                            x       y       z     vdW  Elec       q    Type
                         _______ _______ _______ _____ _____    ______ ____

>  <TORSDO>
F 5

$$$$
=
 OpenBabel10272415183D

 34 39  0  0  1  0  0  0  0  0999 V2000
  183.5900  178.8920  141.8390 C   0  0  0  0  0  0  0  0  0  0  0  0
  185.2720  178.3550  138.5680 C   0  0  0  0  0  3  0  0  0  0  0  0
  182.9840  178.6770  139.1470 N   0  0  0  0  0  0  0  0  0  0  0  0
  183.2590  178.8700  144.3600 C   0  0  0  0  0  0  0  0  0  0  0  0
  183.9790  179.0700  143.2540 C   0  0  0  0  0  3  0  0  0  0  0  0
  180.9550  178.5270  143.4610 C   0  0  0  0  0  3  0  0  0  0  0  0
  179.9820  179.9280  141.7140 C   0  0  0  0  0  1  0  0  0  0  0  0
  181.8860  178.3490  144.3900 C   0  0  0  0  0  3  0  0  0  0  0  0
  182.0170  178.8870  140.0370 N   0  0  0  0  0  0  0  0  0  0  0  0
  182.2610  178.9950  141.3750 C   0  0  0  0  0  0  0  0  0  0  0  0
  181.1560  179.2600  142.2530 N   0  0  0  0  0  0  0  0  0  0  0  0
  186.6140  178.2510  138.9460 C   0  0  0  0  0  0  0  0  0  0  0  0
  186.9520  178.3650  140.3020 C   0  0  0  0  0  3  0  0  0  0  0  0
  184.2770  178.5700  139.5280 C   0  0  0  0  0  0  0  0  0  0  0  0
  185.9630  178.5790  141.2660 C   0  0  0  0  0  3  0  0  0  0  0  0
  184.6130  178.6850  140.8890 C   0  0  0  0  0  0  0  0  0  0  0  0
  183.9520  179.0390  145.6710 C   0  0  0  0  0  2  0  0  0  0  0  0
  187.1360  177.4500  144.3590 C   0  0  0  0  0  3  0  0  0  0  0  0
  186.1760  178.5950  146.7340 C   0  0  0  0  0  3  0  0  0  0  0  0
  190.0980  177.0960  146.5540 C   0  0  0  0  0  0  0  0  0  0  0  0
  189.2670  177.0190  145.4290 C   0  0  0  0  0  3  0  0  0  0  0  0
  187.9630  177.5200  145.4830 C   0  0  0  0  0  0  0  0  0  0  0  0
  188.3050  178.1570  147.8050 C   0  0  0  0  0  3  0  0  0  0  0  0
  187.4800  178.0960  146.6800 C   0  0  0  0  0  0  0  0  0  0  0  0
  189.6080  177.6540  147.7440 C   0  0  0  0  0  3  0  0  0  0  0  0
  185.3530  178.5290  145.6040 C   0  0  0  0  0  0  0  0  0  0  0  0
  185.8320  177.9530  144.4210 C   0  0  0  0  0  3  0  0  0  0  0  0
  191.4820  176.5270  146.5110 C   0  0  2  0  0  3  0  0  0  0  0  0
  191.6580  175.4900  147.5530 C   0  0  0  0  0  2  0  0  0  0  0  0
  192.1440  176.7970  147.7260 O   0  0  0  0  0  0  0  0  0  0  0  0
  187.5710  178.0340  137.9420 O   0  0  0  0  0  0  0  0  0  0  0  0
  189.1060  179.7470  137.5890 O   0  0  0  0  0  0  0  0  0  0  0  0
  190.0100  177.6670  138.2780 C   0  0  0  0  0  1  0  0  0  0  0  0
  188.8740  178.5530  137.9130 C   0  0  0  0  0  0  0  0  0  0  0  0
  1  5  1  0  0  0  0
  2 12  2  0  0  0  0
  2 14  1  0  0  0  0
  3 14  2  0  0  0  0
  3  9  1  0  0  0  0
  4  8  1  0  0  0  0
  4 17  1  0  0  0  0
  5  4  2  0  0  0  0
  6  8  2  0  0  0  0
  7 11  1  0  0  0  0
  9 10  2  0  0  0  0
 10  1  1  0  0  0  0
 10 11  1  0  0  0  0
 11  6  1  0  0  0  0
 12 13  1  0  0  0  0
 13 15  2  0  0  0  0
 14 16  1  0  0  0  0
 16 15  1  0  0  0  0
 16  1  2  0  0  0  0
 18 27  2  0  0  0  0
 18 22  1  0  0  0  0
 20 25  1  0  0  0  0
 21 22  1  0  0  0  0
 21 20  2  0  0  0  0
 22 24  2  0  0  0  0
 24 19  1  0  0  0  0
 24 23  1  0  0  0  0
 25 23  2  0  0  0  0
 26 17  1  0  0  0  0
 26 19  2  0  0  0  0
 27 26  1  0  0  0  0
 28 20  1  1  0  0  0
 28 29  1  0  0  0  0
 28 30  1  0  0  0  0
 29 30  1  0  0  0  0
 31 12  1  0  0  0  0
 32 34  2  0  0  0  0
 34 31  1  0  0  0  0
 34 33  1  0  0  0  0
M  END
>  <MODEL>
2

>  <REMARK>
 VINA RESULT:     -11.2      1.661      2.708
  Name = 
  5 active torsions:
  status: ('A' for Active; 'I' for Inactive)
    1  A    between atoms: C_7  and  C_11
    2  A    between atoms: C_8  and  C_18
    3  A    between atoms: C_18  and  C_30
    4  A    between atoms: O_23  and  C_24
    5  A    between atoms: O_23  and  C_25
                            x       y       z     vdW  Elec       q    Type
                         _______ _______ _______ _____ _____    ______ ____

>  <TORSDO>
F 5

$$$$
=
 OpenBabel10272415183D

 34 39  0  0  1  0  0  0  0  0999 V2000
  189.3520  177.3170  144.6390 C   0  0  0  0  0  0  0  0  0  0  0  0
  190.9510  177.2640  141.2850 C   0  0  0  0  0  3  0  0  0  0  0  0
  191.8040  176.8130  143.4620 N   0  0  0  0  0  0  0  0  0  0  0  0
  187.6520  177.8940  146.4410 C   0  0  0  0  0  0  0  0  0  0  0  0
  188.0020  177.5270  145.2060 C   0  0  0  0  0  3  0  0  0  0  0  0
  189.8060  177.7320  147.6940 C   0  0  0  0  0  3  0  0  0  0  0  0
  191.3440  175.8500  147.4660 C   0  0  0  0  0  1  0  0  0  0  0  0
  188.5910  178.2370  147.5170 C   0  0  0  0  0  3  0  0  0  0  0  0
  191.6590  176.7040  144.7810 N   0  0  0  0  0  0  0  0  0  0  0  0
  190.4740  176.9450  145.4110 C   0  0  0  0  0  0  0  0  0  0  0  0
  190.4060  176.7640  146.8340 N   0  0  0  0  0  0  0  0  0  0  0  0
  189.8870  177.6170  140.4510 C   0  0  0  0  0  0  0  0  0  0  0  0
  188.6280  177.8690  141.0180 C   0  0  0  0  0  3  0  0  0  0  0  0
  190.7680  177.1630  142.6680 C   0  0  0  0  0  0  0  0  0  0  0  0
  188.4390  177.7700  142.3990 C   0  0  0  0  0  3  0  0  0  0  0  0
  189.5080  177.4160  143.2410 C   0  0  0  0  0  0  0  0  0  0  0  0
  186.2020  178.1260  146.7040 C   0  0  0  0  0  2  0  0  0  0  0  0
  185.3900  178.1800  142.9990 C   0  0  0  0  0  3  0  0  0  0  0  0
  184.0740  178.5450  145.4510 C   0  0  0  0  0  3  0  0  0  0  0  0
  181.9480  178.9100  141.8430 C   0  0  0  0  0  0  0  0  0  0  0  0
  183.3170  178.6110  141.8220 C   0  0  0  0  0  3  0  0  0  0  0  0
  184.0270  178.4850  143.0190 C   0  0  0  0  0  0  0  0  0  0  0  0
  182.0030  178.9840  144.2720 C   0  0  0  0  0  3  0  0  0  0  0  0
  183.3630  178.6700  144.2530 C   0  0  0  0  0  0  0  0  0  0  0  0
  181.2980  179.1080  143.0700 C   0  0  0  0  0  3  0  0  0  0  0  0
  185.4370  178.2330  145.4250 C   0  0  0  0  0  0  0  0  0  0  0  0
  186.0950  178.0560  144.2020 C   0  0  0  0  0  3  0  0  0  0  0  0
  181.1930  179.0830  140.5630 C   0  0  2  0  0  3  0  0  0  0  0  0
  180.6910  177.7810  140.0660 C   0  0  0  0  0  2  0  0  0  0  0  0
  181.8440  178.3780  139.5300 O   0  0  0  0  0  0  0  0  0  0  0  0
  190.1260  177.7050  139.0700 O   0  0  0  0  0  0  0  0  0  0  0  0
  189.0470  179.3550  137.8330 O   0  0  0  0  0  0  0  0  0  0  0  0
  188.4200  177.1200  137.3550 C   0  0  0  0  0  1  0  0  0  0  0  0
  189.2120  178.1340  138.0960 C   0  0  0  0  0  0  0  0  0  0  0  0
  1  5  1  0  0  0  0
  1 10  1  0  0  0  0
  2 14  1  0  0  0  0
  3  9  1  0  0  0  0
  4 17  1  0  0  0  0
  4  8  1  0  0  0  0
  5  4  2  0  0  0  0
  8  6  2  0  0  0  0
  9 10  2  0  0  0  0
 10 11  1  0  0  0  0
 11  7  1  0  0  0  0
 11  6  1  0  0  0  0
 12 13  1  0  0  0  0
 12  2  2  0  0  0  0
 13 15  2  0  0  0  0
 14 16  1  0  0  0  0
 14  3  2  0  0  0  0
 15 16  1  0  0  0  0
 16  1  2  0  0  0  0
 18 22  2  0  0  0  0
 18 27  1  0  0  0  0
 20 25  1  0  0  0  0
 21 20  2  0  0  0  0
 21 22  1  0  0  0  0
 22 24  1  0  0  0  0
 24 23  1  0  0  0  0
 24 19  2  0  0  0  0
 25 23  2  0  0  0  0
 26 19  1  0  0  0  0
 26 17  1  0  0  0  0
 27 26  2  0  0  0  0
 28 20  1  1  0  0  0
 29 28  1  0  0  0  0
 30 29  1  0  0  0  0
 30 28  1  0  0  0  0
 31 12  1  0  0  0  0
 32 34  2  0  0  0  0
 33 34  1  0  0  0  0
 34 31  1  0  0  0  0
M  END
>  <MODEL>
3

>  <REMARK>
 VINA RESULT:     -10.7      3.282      7.005
  Name = 
  5 active torsions:
  status: ('A' for Active; 'I' for Inactive)
    1  A    between atoms: C_7  and  C_11
    2  A    between atoms: C_8  and  C_18
    3  A    between atoms: C_18  and  C_30
    4  A    between atoms: O_23  and  C_24
    5  A    between atoms: O_23  and  C_25
                            x       y       z     vdW  Elec       q    Type
                         _______ _______ _______ _____ _____    ______ ____

>  <TORSDO>
F 5

$$$$
=
 OpenBabel10272415183D

 34 39  0  0  1  0  0  0  0  0999 V2000
  186.8770  178.2250  145.0890 C   0  0  0  0  0  0  0  0  0  0  0  0
  183.2450  178.7040  144.4610 C   0  0  0  0  0  3  0  0  0  0  0  0
  184.4820  178.3650  146.4680 N   0  0  0  0  0  0  0  0  0  0  0  0
  189.3090  177.6690  144.5980 C   0  0  0  0  0  0  0  0  0  0  0  0
  188.1330  178.2310  144.3100 C   0  0  0  0  0  3  0  0  0  0  0  0
  189.0120  176.9600  146.9730 C   0  0  0  0  0  3  0  0  0  0  0  0
  187.9890  178.3830  148.6730 C   0  0  0  0  0  1  0  0  0  0  0  0
  189.5810  176.8410  145.7800 C   0  0  0  0  0  3  0  0  0  0  0  0
  185.6240  178.1750  147.1260 N   0  0  0  0  0  0  0  0  0  0  0  0
  186.8290  178.0940  146.4940 C   0  0  0  0  0  0  0  0  0  0  0  0
  188.0110  177.9260  147.2930 N   0  0  0  0  0  0  0  0  0  0  0  0
  183.2080  178.8530  143.0720 C   0  0  0  0  0  0  0  0  0  0  0  0
  184.4080  178.7960  142.3460 C   0  0  0  0  0  3  0  0  0  0  0  0
  184.4600  178.5000  145.1220 C   0  0  0  0  0  0  0  0  0  0  0  0
  185.6250  178.5920  143.0020 C   0  0  0  0  0  3  0  0  0  0  0  0
  185.6650  178.4420  144.3990 C   0  0  0  0  0  0  0  0  0  0  0  0
  190.3840  177.7560  143.5660 C   0  0  0  0  0  2  0  0  0  0  0  0
  188.0870  178.3980  140.6180 C   0  0  0  0  0  3  0  0  0  0  0  0
  190.4080  176.9320  141.2010 C   0  0  0  0  0  3  0  0  0  0  0  0
  188.7380  176.7870  137.3460 C   0  0  0  0  0  0  0  0  0  0  0  0
  188.1320  177.5640  138.3430 C   0  0  0  0  0  3  0  0  0  0  0  0
  188.6860  177.6180  139.6250 C   0  0  0  0  0  0  0  0  0  0  0  0
  190.4470  176.0930  138.9280 C   0  0  0  0  0  3  0  0  0  0  0  0
  189.8550  176.8790  139.9180 C   0  0  0  0  0  0  0  0  0  0  0  0
  189.8880  176.0430  137.6480 C   0  0  0  0  0  3  0  0  0  0  0  0
  189.8070  177.7200  142.1890 C   0  0  0  0  0  0  0  0  0  0  0  0
  188.6460  178.4470  141.8990 C   0  0  0  0  0  3  0  0  0  0  0  0
  188.1260  176.6970  135.9840 C   0  0  2  0  0  3  0  0  0  0  0  0
  188.8990  177.4960  135.0050 C   0  0  0  0  0  2  0  0  0  0  0  0
  187.7040  177.9760  135.5680 O   0  0  0  0  0  0  0  0  0  0  0  0
  181.9620  179.0550  142.4580 O   0  0  0  0  0  0  0  0  0  0  0  0
  180.3200  180.5750  143.0990 O   0  0  0  0  0  0  0  0  0  0  0  0
  180.0020  178.3370  143.8130 C   0  0  0  0  0  1  0  0  0  0  0  0
  180.7650  179.3960  143.1050 C   0  0  0  0  0  0  0  0  0  0  0  0
  1 10  1  0  0  0  0
  2 14  1  0  0  0  0
  3  9  1  0  0  0  0
  4  8  1  0  0  0  0
  5  4  2  0  0  0  0
  5  1  1  0  0  0  0
  6 11  1  0  0  0  0
  8  6  2  0  0  0  0
 10  9  2  0  0  0  0
 10 11  1  0  0  0  0
 11  7  1  0  0  0  0
 12  2  2  0  0  0  0
 13 15  2  0  0  0  0
 13 12  1  0  0  0  0
 14  3  2  0  0  0  0
 15 16  1  0  0  0  0
 16  1  2  0  0  0  0
 16 14  1  0  0  0  0
 17  4  1  0  0  0  0
 18 27  1  0  0  0  0
 19 26  1  0  0  0  0
 20 25  1  0  0  0  0
 20 21  2  0  0  0  0
 21 22  1  0  0  0  0
 22 24  1  0  0  0  0
 22 18  2  0  0  0  0
 23 24  1  0  0  0  0
 24 19  2  0  0  0  0
 25 23  2  0  0  0  0
 26 17  1  0  0  0  0
 27 26  2  0  0  0  0
 28 20  1  1  0  0  0
 29 30  1  0  0  0  0
 29 28  1  0  0  0  0
 30 28  1  0  0  0  0
 31 12  1  0  0  0  0
 31 34  1  0  0  0  0
 32 34  2  0  0  0  0
 34 33  1  0  0  0  0
M  END
>  <MODEL>
4

>  <REMARK>
 VINA RESULT:     -10.4      3.866      8.220
  Name = 
  5 active torsions:
  status: ('A' for Active; 'I' for Inactive)
    1  A    between atoms: C_7  and  C_11
    2  A    between atoms: C_8  and  C_18
    3  A    between atoms: C_18  and  C_30
    4  A    between atoms: O_23  and  C_24
    5  A    between atoms: O_23  and  C_25
                            x       y       z     vdW  Elec       q    Type
                         _______ _______ _______ _____ _____    ______ ____

>  <TORSDO>
F 5

$$$$
=
 OpenBabel10272415183D

 34 39  0  0  1  0  0  0  0  0999 V2000
  187.7430  177.6570  144.9340 C   0  0  0  0  0  0  0  0  0  0  0  0
  190.6240  176.8750  142.7210 C   0  0  0  0  0  3  0  0  0  0  0  0
  190.4200  176.9740  145.0910 N   0  0  0  0  0  0  0  0  0  0  0  0
  185.4800  178.5820  145.6340 C   0  0  0  0  0  0  0  0  0  0  0  0
  186.3000  177.9490  144.7930 C   0  0  0  0  0  3  0  0  0  0  0  0
  186.8640  178.7890  147.7010 C   0  0  0  0  0  3  0  0  0  0  0  0
  188.2090  176.9590  148.5960 C   0  0  0  0  0  1  0  0  0  0  0  0
  185.8850  179.1980  146.9040 C   0  0  0  0  0  3  0  0  0  0  0  0
  189.7120  177.1710  146.2020 N   0  0  0  0  0  0  0  0  0  0  0  0
  188.3930  177.5140  146.1800 C   0  0  0  0  0  0  0  0  0  0  0  0
  187.7040  177.6680  147.4310 N   0  0  0  0  0  0  0  0  0  0  0  0
  190.0520  176.9870  141.4500 C   0  0  0  0  0  0  0  0  0  0  0  0
  188.6940  177.3230  141.3390 C   0  0  0  0  0  3  0  0  0  0  0  0
  189.8550  177.0940  143.8680 C   0  0  0  0  0  0  0  0  0  0  0  0
  187.9210  177.5440  142.4820 C   0  0  0  0  0  3  0  0  0  0  0  0
  188.4930  177.4310  143.7610 C   0  0  0  0  0  0  0  0  0  0  0  0
  184.0790  178.8200  145.1780 C   0  0  0  0  0  2  0  0  0  0  0  0
  185.0070  179.1620  141.5170 C   0  0  0  0  0  3  0  0  0  0  0  0
  182.7910  178.4150  143.0680 C   0  0  0  0  0  3  0  0  0  0  0  0
  182.5290  178.3910  138.8730 C   0  0  0  0  0  0  0  0  0  0  0  0
  183.7230  178.7780  139.4980 C   0  0  0  0  0  3  0  0  0  0  0  0
  183.8160  178.7830  140.8930 C   0  0  0  0  0  0  0  0  0  0  0  0
  181.5060  178.0390  141.0490 C   0  0  0  0  0  3  0  0  0  0  0  0
  182.6990  178.4080  141.6730 C   0  0  0  0  0  0  0  0  0  0  0  0
  181.4200  178.0350  139.6530 C   0  0  0  0  0  3  0  0  0  0  0  0
  183.9890  178.7880  143.6880 C   0  0  0  0  0  0  0  0  0  0  0  0
  185.0920  179.1650  142.9130 C   0  0  0  0  0  3  0  0  0  0  0  0
  182.4150  178.4200  137.3820 C   0  0  2  0  0  3  0  0  0  0  0  0
  182.1980  177.0580  136.8420 C   0  0  0  0  0  2  0  0  0  0  0  0
  183.4630  177.6700  136.8110 O   0  0  0  0  0  0  0  0  0  0  0  0
  190.8680  176.7580  140.3310 O   0  0  0  0  0  0  0  0  0  0  0  0
  190.4800  175.4040  138.4790 O   0  0  0  0  0  0  0  0  0  0  0  0
  189.8950  177.6880  138.2380 C   0  0  0  0  0  1  0  0  0  0  0  0
  190.4310  176.5420  139.0160 C   0  0  0  0  0  0  0  0  0  0  0  0
  1 10  1  0  0  0  0
  2 14  1  0  0  0  0
  3  9  1  0  0  0  0
  4  8  1  0  0  0  0
  5  1  1  0  0  0  0
  5  4  2  0  0  0  0
  8  6  2  0  0  0  0
 10  9  2  0  0  0  0
 10 11  1  0  0  0  0
 11  6  1  0  0  0  0
 11  7  1  0  0  0  0
 12  2  2  0  0  0  0
 13 12  1  0  0  0  0
 13 15  2  0  0  0  0
 14  3  2  0  0  0  0
 15 16  1  0  0  0  0
 16 14  1  0  0  0  0
 16  1  2  0  0  0  0
 17  4  1  0  0  0  0
 18 27  1  0  0  0  0
 19 26  1  0  0  0  0
 20 21  2  0  0  0  0
 20 25  1  0  0  0  0
 21 22  1  0  0  0  0
 22 18  2  0  0  0  0
 22 24  1  0  0  0  0
 23 24  1  0  0  0  0
 24 19  2  0  0  0  0
 25 23  2  0  0  0  0
 26 17  1  0  0  0  0
 27 26  2  0  0  0  0
 28 20  1  1  0  0  0
 29 28  1  0  0  0  0
 30 29  1  0  0  0  0
 30 28  1  0  0  0  0
 31 12  1  0  0  0  0
 32 34  2  0  0  0  0
 33 34  1  0  0  0  0
 34 31  1  0  0  0  0
M  END
>  <MODEL>
5

>  <REMARK>
 VINA RESULT:     -10.2      3.164      7.032
  Name = 
  5 active torsions:
  status: ('A' for Active; 'I' for Inactive)
    1  A    between atoms: C_7  and  C_11
    2  A    between atoms: C_8  and  C_18
    3  A    between atoms: C_18  and  C_30
    4  A    between atoms: O_23  and  C_24
    5  A    between atoms: O_23  and  C_25
                            x       y       z     vdW  Elec       q    Type
                         _______ _______ _______ _____ _____    ______ ____

>  <TORSDO>
F 5

$$$$
=
 OpenBabel10272415183D

 34 39  0  0  1  0  0  0  0  0999 V2000
  185.3910  177.9710  138.5190 C   0  0  0  0  0  0  0  0  0  0  0  0
  188.5910  177.0860  136.8500 C   0  0  0  0  0  3  0  0  0  0  0  0
  186.3220  176.8500  136.1680 N   0  0  0  0  0  0  0  0  0  0  0  0
  183.7890  178.5480  140.4080 C   0  0  0  0  0  0  0  0  0  0  0  0
  184.9530  178.6420  139.7620 C   0  0  0  0  0  3  0  0  0  0  0  0
  182.3620  177.2910  138.7890 C   0  0  0  0  0  3  0  0  0  0  0  0
  182.2950  177.7930  136.4010 C   0  0  0  0  0  1  0  0  0  0  0  0
  182.6790  177.6660  140.0220 C   0  0  0  0  0  3  0  0  0  0  0  0
  185.0140  176.9950  136.3690 N   0  0  0  0  0  0  0  0  0  0  0  0
  184.5030  177.5360  137.5110 C   0  0  0  0  0  0  0  0  0  0  0  0
  183.0790  177.6870  137.6200 N   0  0  0  0  0  0  0  0  0  0  0  0
  189.5350  177.5010  137.7940 C   0  0  0  0  0  0  0  0  0  0  0  0
  189.0930  178.0820  138.9920 C   0  0  0  0  0  3  0  0  0  0  0  0
  187.2240  177.2470  137.0930 C   0  0  0  0  0  0  0  0  0  0  0  0
  187.7280  178.2450  139.2410 C   0  0  0  0  0  3  0  0  0  0  0  0
  186.7770  177.8290  138.2940 C   0  0  0  0  0  0  0  0  0  0  0  0
  183.6620  179.2730  141.7060 C   0  0  0  0  0  2  0  0  0  0  0  0
  186.7200  177.5670  143.1650 C   0  0  0  0  0  3  0  0  0  0  0  0
  184.5160  179.0610  144.0520 C   0  0  0  0  0  3  0  0  0  0  0  0
  187.3510  177.6460  146.8140 C   0  0  0  0  0  0  0  0  0  0  0  0
  187.5030  177.3670  145.4480 C   0  0  0  0  0  3  0  0  0  0  0  0
  186.5650  177.8390  144.5260 C   0  0  0  0  0  0  0  0  0  0  0  0
  185.2960  178.8530  146.3360 C   0  0  0  0  0  3  0  0  0  0  0  0
  185.4550  178.5900  144.9740 C   0  0  0  0  0  0  0  0  0  0  0  0
  186.2390  178.3780  147.2540 C   0  0  0  0  0  3  0  0  0  0  0  0
  184.6790  178.7920  142.6880 C   0  0  0  0  0  0  0  0  0  0  0  0
  185.7770  178.0430  142.2470 C   0  0  0  0  0  3  0  0  0  0  0  0
  188.3330  177.1100  147.8070 C   0  0  2  0  0  3  0  0  0  0  0  0
  189.1190  178.2080  148.4160 C   0  0  0  0  0  2  0  0  0  0  0  0
  189.6440  177.4090  147.3870 O   0  0  0  0  0  0  0  0  0  0  0  0
  190.8950  177.3150  137.5000 O   0  0  0  0  0  0  0  0  0  0  0  0
  191.1940  175.1900  138.4020 O   0  0  0  0  0  0  0  0  0  0  0  0
  193.1680  176.3360  137.7640 C   0  0  0  0  0  1  0  0  0  0  0  0
  191.6930  176.2380  137.9120 C   0  0  0  0  0  0  0  0  0  0  0  0
  1  5  1  0  0  0  0
  2 14  2  0  0  0  0
  2 12  1  0  0  0  0
  3  9  2  0  0  0  0
  3 14  1  0  0  0  0
  4 17  1  0  0  0  0
  5  4  2  0  0  0  0
  6  8  2  0  0  0  0
  7 11  1  0  0  0  0
  8  4  1  0  0  0  0
  9 10  1  0  0  0  0
 10 11  1  0  0  0  0
 10  1  2  0  0  0  0
 11  6  1  0  0  0  0
 12 13  2  0  0  0  0
 13 15  1  0  0  0  0
 14 16  1  0  0  0  0
 16  1  1  0  0  0  0
 16 15  2  0  0  0  0
 17 26  1  0  0  0  0
 18 22  1  0  0  0  0
 19 24  1  0  0  0  0
 20 25  1  0  0  0  0
 21 20  2  0  0  0  0
 22 24  2  0  0  0  0
 22 21  1  0  0  0  0
 23 25  2  0  0  0  0
 24 23  1  0  0  0  0
 26 19  2  0  0  0  0
 27 26  1  0  0  0  0
 27 18  2  0  0  0  0
 28 20  1  6  0  0  0
 28 29  1  0  0  0  0
 30 28  1  0  0  0  0
 30 29  1  0  0  0  0
 31 12  1  0  0  0  0
 31 34  1  0  0  0  0
 33 34  1  0  0  0  0
 34 32  2  0  0  0  0
M  END
>  <MODEL>
6

>  <REMARK>
 VINA RESULT:     -10.1      1.777      2.764
  Name = 
  5 active torsions:
  status: ('A' for Active; 'I' for Inactive)
    1  A    between atoms: C_7  and  C_11
    2  A    between atoms: C_8  and  C_18
    3  A    between atoms: C_18  and  C_30
    4  A    between atoms: O_23  and  C_24
    5  A    between atoms: O_23  and  C_25
                            x       y       z     vdW  Elec       q    Type
                         _______ _______ _______ _____ _____    ______ ____

>  <TORSDO>
F 5

$$$$
=
 OpenBabel10272415183D

 34 39  0  0  1  0  0  0  0  0999 V2000
  189.0130  177.5770  141.1150 C   0  0  0  0  0  0  0  0  0  0  0  0
  188.2920  177.1240  144.7320 C   0  0  0  0  0  3  0  0  0  0  0  0
  190.2700  176.7850  143.4500 N   0  0  0  0  0  0  0  0  0  0  0  0
  188.5600  177.8240  138.6250 C   0  0  0  0  0  0  0  0  0  0  0  0
  188.3130  178.0770  139.9120 C   0  0  0  0  0  3  0  0  0  0  0  0
  190.7550  176.6380  138.7070 C   0  0  0  0  0  3  0  0  0  0  0  0
  192.6230  177.3820  140.0920 C   0  0  0  0  0  1  0  0  0  0  0  0
  189.5910  176.9050  138.1280 C   0  0  0  0  0  3  0  0  0  0  0  0
  190.9420  176.8060  142.3010 N   0  0  0  0  0  0  0  0  0  0  0  0
  190.3700  177.1830  141.1220 C   0  0  0  0  0  0  0  0  0  0  0  0
  191.1870  177.2100  139.9420 N   0  0  0  0  0  0  0  0  0  0  0  0
  186.9500  177.5080  144.8110 C   0  0  0  0  0  0  0  0  0  0  0  0
  186.2890  177.9240  143.6450 C   0  0  0  0  0  3  0  0  0  0  0  0
  188.9700  177.1520  143.5090 C   0  0  0  0  0  0  0  0  0  0  0  0
  186.9610  177.9530  142.4200 C   0  0  0  0  0  3  0  0  0  0  0  0
  188.3100  177.5670  142.3380 C   0  0  0  0  0  0  0  0  0  0  0  0
  187.6160  178.3960  137.6200 C   0  0  0  0  0  2  0  0  0  0  0  0
  184.5970  176.1560  137.1220 C   0  0  0  0  0  3  0  0  0  0  0  0
  185.3350  178.3870  138.6560 C   0  0  0  0  0  3  0  0  0  0  0  0
  181.4770  176.7600  139.0260 C   0  0  0  0  0  0  0  0  0  0  0  0
  182.3940  176.1910  138.1310 C   0  0  0  0  0  3  0  0  0  0  0  0
  183.6790  176.7270  138.0080 C   0  0  0  0  0  0  0  0  0  0  0  0
  183.1300  178.4260  139.6590 C   0  0  0  0  0  3  0  0  0  0  0  0
  184.0510  177.8510  138.7800 C   0  0  0  0  0  0  0  0  0  0  0  0
  181.8460  177.8850  139.7780 C   0  0  0  0  0  3  0  0  0  0  0  0
  186.2520  177.8080  137.7720 C   0  0  0  0  0  0  0  0  0  0  0  0
  185.8810  176.6970  137.0030 C   0  0  0  0  0  3  0  0  0  0  0  0
  180.0890  176.2130  139.1320 C   0  0  2  0  0  3  0  0  0  0  0  0
  180.0230  175.1350  140.1460 C   0  0  0  0  0  2  0  0  0  0  0  0
  180.0870  174.8500  138.7720 O   0  0  0  0  0  0  0  0  0  0  0  0
  186.3180  177.4610  146.0630 O   0  0  0  0  0  0  0  0  0  0  0  0
  185.6280  179.3860  147.1740 O   0  0  0  0  0  0  0  0  0  0  0  0
  187.5150  178.2800  148.0860 C   0  0  0  0  0  1  0  0  0  0  0  0
  186.4270  178.4170  147.0840 C   0  0  0  0  0  0  0  0  0  0  0  0
  1 10  2  0  0  0  0
  1 16  1  0  0  0  0
  2 12  1  0  0  0  0
  3 14  1  0  0  0  0
  4  5  2  0  0  0  0
  5  1  1  0  0  0  0
  6 11  1  0  0  0  0
  8  4  1  0  0  0  0
  8  6  2  0  0  0  0
  9  3  2  0  0  0  0
 10  9  1  0  0  0  0
 11  7  1  0  0  0  0
 11 10  1  0  0  0  0
 12 31  1  0  0  0  0
 13 12  2  0  0  0  0
 14  2  2  0  0  0  0
 15 13  1  0  0  0  0
 16 15  2  0  0  0  0
 16 14  1  0  0  0  0
 17 26  1  0  0  0  0
 17  4  1  0  0  0  0
 18 22  1  0  0  0  0
 19 24  1  0  0  0  0
 20 25  1  0  0  0  0
 21 20  2  0  0  0  0
 22 21  1  0  0  0  0
 22 24  2  0  0  0  0
 23 25  2  0  0  0  0
 24 23  1  0  0  0  0
 26 19  2  0  0  0  0
 27 18  2  0  0  0  0
 27 26  1  0  0  0  0
 28 20  1  1  0  0  0
 28 29  1  0  0  0  0
 30 28  1  0  0  0  0
 30 29  1  0  0  0  0
 31 34  1  0  0  0  0
 34 32  2  0  0  0  0
 34 33  1  0  0  0  0
M  END
>  <MODEL>
7

>  <REMARK>
 VINA RESULT:     -10.1      3.531      8.556
  Name = 
  5 active torsions:
  status: ('A' for Active; 'I' for Inactive)
    1  A    between atoms: C_7  and  C_11
    2  A    between atoms: C_8  and  C_18
    3  A    between atoms: C_18  and  C_30
    4  A    between atoms: O_23  and  C_24
    5  A    between atoms: O_23  and  C_25
                            x       y       z     vdW  Elec       q    Type
                         _______ _______ _______ _____ _____    ______ ____

>  <TORSDO>
F 5

$$$$
=
 OpenBabel10272415183D

 34 39  0  0  1  0  0  0  0  0999 V2000
  184.5170  178.1200  139.1940 C   0  0  0  0  0  0  0  0  0  0  0  0
  187.8640  177.4960  137.7040 C   0  0  0  0  0  3  0  0  0  0  0  0
  185.6610  177.1760  136.8580 N   0  0  0  0  0  0  0  0  0  0  0  0
  182.7650  178.5100  140.9950 C   0  0  0  0  0  0  0  0  0  0  0  0
  183.9610  178.7000  140.4350 C   0  0  0  0  0  3  0  0  0  0  0  0
  181.5200  177.2670  139.2230 C   0  0  0  0  0  3  0  0  0  0  0  0
  181.5800  177.8910  136.8640 C   0  0  0  0  0  1  0  0  0  0  0  0
  181.7340  177.5920  140.4920 C   0  0  0  0  0  3  0  0  0  0  0  0
  184.3360  177.2400  136.9770 N   0  0  0  0  0  0  0  0  0  0  0  0
  183.7230  177.6930  138.1070 C   0  0  0  0  0  0  0  0  0  0  0  0
  182.2880  177.7620  138.1270 N   0  0  0  0  0  0  0  0  0  0  0  0
  188.7190  177.9090  138.7290 C   0  0  0  0  0  0  0  0  0  0  0  0
  188.1680  178.4010  139.9220 C   0  0  0  0  0  3  0  0  0  0  0  0
  186.4760  177.5710  137.8610 C   0  0  0  0  0  0  0  0  0  0  0  0
  186.7830  178.4780  140.0850 C   0  0  0  0  0  3  0  0  0  0  0  0
  185.9200  178.0640  139.0560 C   0  0  0  0  0  0  0  0  0  0  0  0
  182.5140  179.1570  142.3160 C   0  0  0  0  0  2  0  0  0  0  0  0
  184.3990  178.7470  145.5810 C   0  0  0  0  0  3  0  0  0  0  0  0
  184.7940  178.2650  142.8450 C   0  0  0  0  0  3  0  0  0  0  0  0
  187.8260  177.3420  145.6060 C   0  0  0  0  0  0  0  0  0  0  0  0
  186.6180  177.8960  146.0510 C   0  0  0  0  0  3  0  0  0  0  0  0
  185.6060  178.2010  145.1380 C   0  0  0  0  0  0  0  0  0  0  0  0
  187.0160  177.4220  143.3160 C   0  0  0  0  0  3  0  0  0  0  0  0
  185.8060  177.9590  143.7590 C   0  0  0  0  0  0  0  0  0  0  0  0
  188.0250  177.1190  144.2350 C   0  0  0  0  0  3  0  0  0  0  0  0
  183.5840  178.8060  143.2960 C   0  0  0  0  0  0  0  0  0  0  0  0
  183.3900  179.0500  144.6610 C   0  0  0  0  0  3  0  0  0  0  0  0
  188.9260  177.0490  146.5770 C   0  0  2  0  0  3  0  0  0  0  0  0
  189.9640  178.1040  146.5320 C   0  0  0  0  0  2  0  0  0  0  0  0
  190.1390  176.8710  145.8810 O   0  0  0  0  0  0  0  0  0  0  0  0
  190.1040  177.8110  138.5190 O   0  0  0  0  0  0  0  0  0  0  0  0
  190.8040  175.6160  138.8450 O   0  0  0  0  0  0  0  0  0  0  0  0
  192.0820  177.2880  139.9360 C   0  0  0  0  0  1  0  0  0  0  0  0
  190.9600  176.8460  139.0680 C   0  0  0  0  0  0  0  0  0  0  0  0
  1  5  1  0  0  0  0
  2 14  2  0  0  0  0
  2 12  1  0  0  0  0
  3  9  2  0  0  0  0
  3 14  1  0  0  0  0
  4 17  1  0  0  0  0
  5  4  2  0  0  0  0
  6  8  2  0  0  0  0
  7 11  1  0  0  0  0
  8  4  1  0  0  0  0
  9 10  1  0  0  0  0
 10 11  1  0  0  0  0
 10  1  2  0  0  0  0
 11  6  1  0  0  0  0
 12 13  2  0  0  0  0
 13 15  1  0  0  0  0
 14 16  1  0  0  0  0
 16  1  1  0  0  0  0
 16 15  2  0  0  0  0
 17 26  1  0  0  0  0
 19 26  2  0  0  0  0
 19 24  1  0  0  0  0
 20 21  1  0  0  0  0
 22 18  1  0  0  0  0
 22 21  2  0  0  0  0
 23 24  2  0  0  0  0
 23 25  1  0  0  0  0
 24 22  1  0  0  0  0
 25 20  2  0  0  0  0
 26 27  1  0  0  0  0
 27 18  2  0  0  0  0
 28 20  1  6  0  0  0
 29 28  1  0  0  0  0
 30 29  1  0  0  0  0
 30 28  1  0  0  0  0
 31 12  1  0  0  0  0
 31 34  1  0  0  0  0
 32 34  2  0  0  0  0
 34 33  1  0  0  0  0
M  END
>  <MODEL>
8

>  <REMARK>
 VINA RESULT:      -9.9      1.505      2.278
  Name = 
  5 active torsions:
  status: ('A' for Active; 'I' for Inactive)
    1  A    between atoms: C_7  and  C_11
    2  A    between atoms: C_8  and  C_18
    3  A    between atoms: C_18  and  C_30
    4  A    between atoms: O_23  and  C_24
    5  A    between atoms: O_23  and  C_25
                            x       y       z     vdW  Elec       q    Type
                         _______ _______ _______ _____ _____    ______ ____

>  <TORSDO>
F 5

$$$$
=
 OpenBabel10272415183D

 34 39  0  0  1  0  0  0  0  0999 V2000
  189.3280  177.3320  144.5660 C   0  0  0  0  0  0  0  0  0  0  0  0
  191.2180  177.3310  141.3670 C   0  0  0  0  0  3  0  0  0  0  0  0
  191.9340  177.3700  143.6380 N   0  0  0  0  0  0  0  0  0  0  0  0
  187.3640  177.6350  146.1540 C   0  0  0  0  0  0  0  0  0  0  0  0
  187.9190  177.2380  145.0070 C   0  0  0  0  0  3  0  0  0  0  0  0
  189.3500  178.1930  147.5620 C   0  0  0  0  0  3  0  0  0  0  0  0
  191.3320  176.7750  147.6940 C   0  0  0  0  0  1  0  0  0  0  0  0
  188.0710  178.3340  147.2360 C   0  0  0  0  0  3  0  0  0  0  0  0
  191.6890  177.3750  144.9470 N   0  0  0  0  0  0  0  0  0  0  0  0
  190.4240  177.3620  145.4560 C   0  0  0  0  0  0  0  0  0  0  0  0
  190.2610  177.3300  146.8830 N   0  0  0  0  0  0  0  0  0  0  0  0
  190.1890  177.2920  140.4220 C   0  0  0  0  0  0  0  0  0  0  0  0
  188.8570  177.2630  140.8630 C   0  0  0  0  0  3  0  0  0  0  0  0
  190.9280  177.3410  142.7350 C   0  0  0  0  0  0  0  0  0  0  0  0
  188.5610  177.2730  142.2290 C   0  0  0  0  0  3  0  0  0  0  0  0
  189.5940  177.3120  143.1810 C   0  0  0  0  0  0  0  0  0  0  0  0
  185.8840  177.5010  146.2840 C   0  0  0  0  0  2  0  0  0  0  0  0
  183.2830  179.1260  144.0520 C   0  0  0  0  0  3  0  0  0  0  0  0
  185.7690  177.8490  143.8050 C   0  0  0  0  0  3  0  0  0  0  0  0
  183.7790  179.2650  140.3850 C   0  0  0  0  0  0  0  0  0  0  0  0
  183.1980  179.4260  141.6500 C   0  0  0  0  0  3  0  0  0  0  0  0
  183.8580  178.9600  142.7900 C   0  0  0  0  0  0  0  0  0  0  0  0
  185.6790  178.1420  141.4020 C   0  0  0  0  0  3  0  0  0  0  0  0
  185.1100  178.3160  142.6650 C   0  0  0  0  0  0  0  0  0  0  0  0
  185.0140  178.6110  140.2650 C   0  0  0  0  0  3  0  0  0  0  0  0
  185.1910  178.0230  145.0680 C   0  0  0  0  0  0  0  0  0  0  0  0
  183.9480  178.6570  145.1900 C   0  0  0  0  0  3  0  0  0  0  0  0
  183.0590  179.7290  139.1580 C   0  0  2  0  0  3  0  0  0  0  0  0
  182.0040  178.7650  138.7690 C   0  0  0  0  0  2  0  0  0  0  0  0
  183.2480  178.7990  138.1160 O   0  0  0  0  0  0  0  0  0  0  0  0
  190.5360  177.2850  139.0620 O   0  0  0  0  0  0  0  0  0  0  0  0
  190.6790  175.0840  138.3180 O   0  0  0  0  0  0  0  0  0  0  0  0
  192.4650  176.5100  137.6920 C   0  0  0  0  0  1  0  0  0  0  0  0
  191.1730  176.2410  138.3740 C   0  0  0  0  0  0  0  0  0  0  0  0
  1  5  1  0  0  0  0
  1 10  1  0  0  0  0
  2 14  1  0  0  0  0
  3  9  1  0  0  0  0
  4 17  1  0  0  0  0
  4  8  1  0  0  0  0
  5  4  2  0  0  0  0
  8  6  2  0  0  0  0
  9 10  2  0  0  0  0
 10 11  1  0  0  0  0
 11  6  1  0  0  0  0
 11  7  1  0  0  0  0
 12 13  1  0  0  0  0
 12  2  2  0  0  0  0
 13 15  2  0  0  0  0
 14 16  1  0  0  0  0
 14  3  2  0  0  0  0
 15 16  1  0  0  0  0
 16  1  2  0  0  0  0
 18 27  1  0  0  0  0
 19 26  1  0  0  0  0
 20 21  2  0  0  0  0
 21 22  1  0  0  0  0
 22 18  2  0  0  0  0
 23 24  1  0  0  0  0
 24 22  1  0  0  0  0
 24 19  2  0  0  0  0
 25 20  1  0  0  0  0
 25 23  2  0  0  0  0
 26 27  2  0  0  0  0
 26 17  1  0  0  0  0
 28 20  1  1  0  0  0
 29 28  1  0  0  0  0
 30 29  1  0  0  0  0
 30 28  1  0  0  0  0
 31 12  1  0  0  0  0
 32 34  2  0  0  0  0
 33 34  1  0  0  0  0
 34 31  1  0  0  0  0
M  END
>  <MODEL>
9

>  <REMARK>
 VINA RESULT:      -9.9      3.151      6.638
  Name = 
  5 active torsions:
  status: ('A' for Active; 'I' for Inactive)
    1  A    between atoms: C_7  and  C_11
    2  A    between atoms: C_8  and  C_18
    3  A    between atoms: C_18  and  C_30
    4  A    between atoms: O_23  and  C_24
    5  A    between atoms: O_23  and  C_25
                            x       y       z     vdW  Elec       q    Type
                         _______ _______ _______ _____ _____    ______ ____

>  <TORSDO>
F 5

$$$$
