=
 OpenBabel10272400193D

 31 35  0  0  1  0  0  0  0  0999 V2000
  183.3400  178.5240  142.7170 C   0  0  0  0  0  0  0  0  0  0  0  0
  186.9850  178.0210  143.2930 C   0  0  0  0  0  0  0  0  0  0  0  0
  187.0060  177.6350  144.7640 C   0  0  2  0  0  3  0  0  0  0  0  0
  186.5990  178.6280  146.9970 C   0  0  0  0  0  3  0  0  0  0  0  0
  185.8390  178.3530  142.6590 C   0  0  0  0  0  0  0  0  0  0  0  0
  183.1940  178.0890  140.9850 S   0  0  0  0  0  0  0  0  0  0  0  0
  186.3260  178.6200  145.6860 C   0  0  0  0  0  3  0  0  0  0  0  0
  188.1790  178.1260  141.0720 N   0  0  0  0  0  0  0  0  0  0  0  0
  182.3360  178.9480  143.3450 O   0  0  0  0  0  0  0  0  0  0  0  0
  189.4360  177.1360  144.5010 C   0  0  0  0  0  3  0  0  0  0  0  0
  187.8520  177.6430  149.2940 Cl  0  0  0  0  0  0  0  0  0  0  0  0
  186.9540  178.5620  140.4770 C   0  0  0  0  0  3  0  0  0  0  0  0
  188.2230  177.8460  142.4840 C   0  0  0  0  0  0  0  0  0  0  0  0
  184.5990  178.4040  143.3800 N   0  0  0  0  0  2  0  0  0  0  0  0
  187.6590  177.7590  147.5600 C   0  0  0  0  0  0  0  0  0  0  0  0
  185.8390  178.6670  141.2010 C   0  0  0  0  0  0  0  0  0  0  0  0
  184.5930  179.1590  140.5370 C   0  0  0  0  0  2  0  0  0  0  0  0
  189.3500  177.4040  143.0590 C   0  0  0  0  0  3  0  0  0  0  0  0
  188.3780  177.2760  145.2970 C   0  0  0  0  0  0  0  0  0  0  0  0
  188.5360  177.1500  146.7530 C   0  0  0  0  0  3  0  0  0  0  0  0
  189.3700  178.0570  140.2320 C   0  0  0  0  0  2  0  0  0  0  0  0
  187.4790  177.2730  134.7210 C   0  0  1  0  0  3  0  0  0  0  0  0
  188.5940  176.6830  138.2630 N   0  0  0  0  0  2  0  0  0  0  0  0
  187.5380  174.8390  135.0670 C   0  0  0  0  0  2  0  0  0  0  0  0
  188.9750  178.9900  138.0820 O   0  0  0  0  0  0  0  0  0  0  0  0
  186.6570  178.4090  134.3460 N   0  0  0  0  0  1  0  0  0  0  0  0
  188.9820  177.9540  138.7970 C   0  0  0  0  0  0  0  0  0  0  0  0
  187.9290  177.4260  136.1070 N   0  0  0  0  0  0  0  0  0  0  0  0
  187.7520  175.0240  136.5660 C   0  0  0  0  0  2  0  0  0  0  0  0
  188.1340  176.4360  136.9290 C   0  0  0  0  0  0  0  0  0  0  0  0
  186.6990  175.9810  134.5240 C   0  0  0  0  0  2  0  0  0  0  0  0
  1  9  2  0  0  0  0
  1 14  1  0  0  0  0
  2  3  1  0  0  0  0
  3 19  1  0  0  0  0
  3  7  1  1  0  0  0
  4 15  1  0  0  0  0
  5  2  2  0  0  0  0
  5 14  1  0  0  0  0
  6  1  1  0  0  0  0
  7  4  2  0  0  0  0
  8 13  1  0  0  0  0
 10 19  2  0  0  0  0
 12  8  1  0  0  0  0
 12 16  2  0  0  0  0
 13 18  2  0  0  0  0
 13  2  1  0  0  0  0
 15 11  1  0  0  0  0
 16  5  1  0  0  0  0
 17  6  1  0  0  0  0
 17 16  1  0  0  0  0
 18 10  1  0  0  0  0
 19 20  1  0  0  0  0
 20 15  2  0  0  0  0
 21  8  1  0  0  0  0
 22 26  1  1  0  0  0
 22 28  1  0  0  0  0
 23 27  1  0  0  0  0
 24 29  1  0  0  0  0
 25 27  2  0  0  0  0
 27 21  1  0  0  0  0
 28 30  2  0  0  0  0
 29 30  1  0  0  0  0
 30 23  1  0  0  0  0
 31 22  1  0  0  0  0
 31 24  1  0  0  0  0
M  END
>  <MODEL>
1

>  <REMARK>
 VINA RESULT:     -10.2      0.000      0.000
  Name = 
  2 active torsions:
  status: ('A' for Active; 'I' for Inactive)
    1  A    between atoms: C_9  and  C_23
    2  A    between atoms: N_15  and  C_23
                            x       y       z     vdW  Elec       q    Type
                         _______ _______ _______ _____ _____    ______ ____

>  <TORSDO>
F 2

$$$$
=
 OpenBabel10272400193D

 31 35  0  0  1  0  0  0  0  0999 V2000
  185.2420  178.2760  144.3000 C   0  0  0  0  0  0  0  0  0  0  0  0
  188.6660  177.6190  142.9880 C   0  0  0  0  0  0  0  0  0  0  0  0
  189.3270  176.9640  144.1910 C   0  0  2  0  0  3  0  0  0  0  0  0
  190.1070  177.5270  146.4740 C   0  0  0  0  0  3  0  0  0  0  0  0
  187.3960  178.0800  143.0360 C   0  0  0  0  0  0  0  0  0  0  0  0
  184.2650  178.1760  142.8010 S   0  0  0  0  0  0  0  0  0  0  0  0
  189.2570  177.7690  145.4670 C   0  0  0  0  0  3  0  0  0  0  0  0
  188.6960  178.1190  140.5140 N   0  0  0  0  0  0  0  0  0  0  0  0
  184.6940  178.5910  145.3870 O   0  0  0  0  0  0  0  0  0  0  0  0
  191.2920  176.4850  142.7300 C   0  0  0  0  0  3  0  0  0  0  0  0
  192.1750  176.1110  147.7120 Cl  0  0  0  0  0  0  0  0  0  0  0  0
  187.3860  178.6780  140.6500 C   0  0  0  0  0  3  0  0  0  0  0  0
  189.3610  177.5780  141.6720 C   0  0  0  0  0  0  0  0  0  0  0  0
  186.6450  178.0150  144.2570 N   0  0  0  0  0  2  0  0  0  0  0  0
  191.2110  176.5520  146.3210 C   0  0  0  0  0  0  0  0  0  0  0  0
  186.7520  178.6620  141.8230 C   0  0  0  0  0  0  0  0  0  0  0  0
  185.3980  179.2890  141.9170 C   0  0  0  0  0  2  0  0  0  0  0  0
  190.5740  177.0200  141.5650 C   0  0  0  0  0  3  0  0  0  0  0  0
  190.7450  176.4900  143.9440 C   0  0  0  0  0  0  0  0  0  0  0  0
  191.5470  176.0910  145.1100 C   0  0  0  0  0  3  0  0  0  0  0  0
  189.3470  178.1890  139.2110 C   0  0  0  0  0  2  0  0  0  0  0  0
  185.4020  176.2480  135.3070 C   0  0  1  0  0  3  0  0  0  0  0  0
  188.0620  176.4140  137.9610 N   0  0  0  0  0  2  0  0  0  0  0  0
  186.0810  173.9350  135.8010 C   0  0  0  0  0  2  0  0  0  0  0  0
  187.8670  178.6880  137.4190 O   0  0  0  0  0  0  0  0  0  0  0  0
  184.2960  177.1860  135.2590 N   0  0  0  0  0  1  0  0  0  0  0  0
  188.3910  177.7960  138.1370 C   0  0  0  0  0  0  0  0  0  0  0  0
  186.3800  176.6900  136.3050 N   0  0  0  0  0  0  0  0  0  0  0  0
  186.8960  174.3960  137.0050 C   0  0  0  0  0  2  0  0  0  0  0  0
  187.1170  175.8870  137.0220 C   0  0  0  0  0  0  0  0  0  0  0  0
  184.8840  174.8490  135.6130 C   0  0  0  0  0  2  0  0  0  0  0  0
  1  9  2  0  0  0  0
  2  5  2  0  0  0  0
  2  3  1  0  0  0  0
  3  7  1  1  0  0  0
  5 14  1  0  0  0  0
  6  1  1  0  0  0  0
  7  4  2  0  0  0  0
  8 12  1  0  0  0  0
  8 13  1  0  0  0  0
 10 19  2  0  0  0  0
 12 16  2  0  0  0  0
 13  2  1  0  0  0  0
 14  1  1  0  0  0  0
 15  4  1  0  0  0  0
 15 11  1  0  0  0  0
 16 17  1  0  0  0  0
 16  5  1  0  0  0  0
 17  6  1  0  0  0  0
 18 13  2  0  0  0  0
 18 10  1  0  0  0  0
 19  3  1  0  0  0  0
 19 20  1  0  0  0  0
 20 15  2  0  0  0  0
 21  8  1  0  0  0  0
 22 26  1  1  0  0  0
 22 31  1  0  0  0  0
 22 28  1  0  0  0  0
 23 27  1  0  0  0  0
 24 29  1  0  0  0  0
 25 27  2  0  0  0  0
 27 21  1  0  0  0  0
 28 30  2  0  0  0  0
 29 30  1  0  0  0  0
 30 23  1  0  0  0  0
 31 24  1  0  0  0  0
M  END
>  <MODEL>
2

>  <REMARK>
 VINA RESULT:      -9.8      1.883      2.347
  Name = 
  2 active torsions:
  status: ('A' for Active; 'I' for Inactive)
    1  A    between atoms: C_9  and  C_23
    2  A    between atoms: N_15  and  C_23
                            x       y       z     vdW  Elec       q    Type
                         _______ _______ _______ _____ _____    ______ ____

>  <TORSDO>
F 2

$$$$
=
 OpenBabel10272400193D

 31 35  0  0  1  0  0  0  0  0999 V2000
  185.3230  178.2340  144.0450 C   0  0  0  0  0  0  0  0  0  0  0  0
  188.7940  177.5730  142.8650 C   0  0  0  0  0  0  0  0  0  0  0  0
  189.4140  176.9370  144.0990 C   0  0  2  0  0  3  0  0  0  0  0  0
  190.1090  177.5330  146.4010 C   0  0  0  0  0  3  0  0  0  0  0  0
  187.5220  178.0300  142.8610 C   0  0  0  0  0  0  0  0  0  0  0  0
  184.4010  178.1100  142.5130 S   0  0  0  0  0  0  0  0  0  0  0  0
  189.2960  177.7580  145.3620 C   0  0  0  0  0  3  0  0  0  0  0  0
  188.9110  178.0420  140.3880 N   0  0  0  0  0  0  0  0  0  0  0  0
  184.7350  178.5600  145.1070 O   0  0  0  0  0  0  0  0  0  0  0  0
  191.4320  176.4470  142.7160 C   0  0  0  0  0  3  0  0  0  0  0  0
  192.1370  176.1410  147.7310 Cl  0  0  0  0  0  0  0  0  0  0  0  0
  187.5960  178.5970  140.4690 C   0  0  0  0  0  3  0  0  0  0  0  0
  189.5360  177.5190  141.5750 C   0  0  0  0  0  0  0  0  0  0  0  0
  186.7280  177.9780  144.0550 N   0  0  0  0  0  2  0  0  0  0  0  0
  191.2220  176.5600  146.3010 C   0  0  0  0  0  0  0  0  0  0  0  0
  186.9200  178.5940  141.6180 C   0  0  0  0  0  0  0  0  0  0  0  0
  185.5610  179.2160  141.6560 C   0  0  0  0  0  2  0  0  0  0  0  0
  190.7550  176.9640  141.5190 C   0  0  0  0  0  3  0  0  0  0  0  0
  190.8420  176.4660  143.9100 C   0  0  0  0  0  0  0  0  0  0  0  0
  191.6030  176.0850  145.1090 C   0  0  0  0  0  3  0  0  0  0  0  0
  189.6090  178.0980  139.1070 C   0  0  0  0  0  2  0  0  0  0  0  0
  187.0920  174.1690  135.5310 C   0  0  1  0  0  3  0  0  0  0  0  0
  189.4520  175.8880  137.9000 N   0  0  0  0  0  2  0  0  0  0  0  0
  189.0340  172.6880  135.8230 C   0  0  0  0  0  2  0  0  0  0  0  0
  187.9170  177.6180  137.5080 O   0  0  0  0  0  0  0  0  0  0  0  0
  185.6500  174.2900  135.6490 N   0  0  0  0  0  1  0  0  0  0  0  0
  188.9400  177.2070  138.1180 C   0  0  0  0  0  0  0  0  0  0  0  0
  187.7420  175.1110  136.4450 N   0  0  0  0  0  0  0  0  0  0  0  0
  189.5650  173.5540  136.9600 C   0  0  0  0  0  2  0  0  0  0  0  0
  188.8840  174.8970  137.0360 C   0  0  0  0  0  0  0  0  0  0  0  0
  187.5170  172.7340  135.8100 C   0  0  0  0  0  2  0  0  0  0  0  0
  1 14  1  0  0  0  0
  1  9  2  0  0  0  0
  2  3  1  0  0  0  0
  3  7  1  1  0  0  0
  5  2  2  0  0  0  0
  5 14  1  0  0  0  0
  6  1  1  0  0  0  0
  7  4  2  0  0  0  0
  8 12  1  0  0  0  0
  8 13  1  0  0  0  0
 10 19  2  0  0  0  0
 12 16  2  0  0  0  0
 13  2  1  0  0  0  0
 15  4  1  0  0  0  0
 15 11  1  0  0  0  0
 16 17  1  0  0  0  0
 16  5  1  0  0  0  0
 17  6  1  0  0  0  0
 18 13  2  0  0  0  0
 18 10  1  0  0  0  0
 19  3  1  0  0  0  0
 19 20  1  0  0  0  0
 20 15  2  0  0  0  0
 21  8  1  0  0  0  0
 22 26  1  1  0  0  0
 22 31  1  0  0  0  0
 22 28  1  0  0  0  0
 23 27  1  0  0  0  0
 24 29  1  0  0  0  0
 25 27  2  0  0  0  0
 27 21  1  0  0  0  0
 28 30  2  0  0  0  0
 29 30  1  0  0  0  0
 30 23  1  0  0  0  0
 31 24  1  0  0  0  0
M  END
>  <MODEL>
3

>  <REMARK>
 VINA RESULT:      -9.7      2.066      2.620
  Name = 
  2 active torsions:
  status: ('A' for Active; 'I' for Inactive)
    1  A    between atoms: C_9  and  C_23
    2  A    between atoms: N_15  and  C_23
                            x       y       z     vdW  Elec       q    Type
                         _______ _______ _______ _____ _____    ______ ____

>  <TORSDO>
F 2

$$$$
=
 OpenBabel10272400193D

 31 35  0  0  1  0  0  0  0  0999 V2000
  186.1130  178.4370  138.4850 C   0  0  0  0  0  0  0  0  0  0  0  0
  188.1690  177.8620  141.5370 C   0  0  0  0  0  0  0  0  0  0  0  0
  187.0910  177.7150  142.6000 C   0  0  2  0  0  3  0  0  0  0  0  0
  185.3820  179.0680  143.7780 C   0  0  0  0  0  3  0  0  0  0  0  0
  187.8660  178.1420  140.2500 C   0  0  0  0  0  0  0  0  0  0  0  0
  187.1670  177.7400  137.2140 S   0  0  0  0  0  0  0  0  0  0  0  0
  186.1140  178.8640  142.6750 C   0  0  0  0  0  3  0  0  0  0  0  0
  190.5770  177.5570  140.8480 N   0  0  0  0  0  0  0  0  0  0  0  0
  185.0360  179.0020  138.1660 O   0  0  0  0  0  0  0  0  0  0  0  0
  188.8920  177.0660  144.2000 C   0  0  0  0  0  3  0  0  0  0  0  0
  184.4920  178.4030  146.3440 Cl  0  0  0  0  0  0  0  0  0  0  0  0
  190.2080  177.9500  139.5230 C   0  0  0  0  0  3  0  0  0  0  0  0
  189.5720  177.5030  141.8780 C   0  0  0  0  0  0  0  0  0  0  0  0
  186.5040  178.3660  139.8560 N   0  0  0  0  0  2  0  0  0  0  0  0
  185.5950  178.2510  144.9950 C   0  0  0  0  0  0  0  0  0  0  0  0
  188.9390  178.2200  139.2160 C   0  0  0  0  0  0  0  0  0  0  0  0
  188.6120  178.6580  137.8240 C   0  0  0  0  0  2  0  0  0  0  0  0
  189.8860  177.1060  143.1190 C   0  0  0  0  0  3  0  0  0  0  0  0
  187.6170  177.3810  143.9820 C   0  0  0  0  0  0  0  0  0  0  0  0
  186.6830  177.4810  145.1130 C   0  0  0  0  0  3  0  0  0  0  0  0
  191.9860  177.2990  141.1260 C   0  0  0  0  0  2  0  0  0  0  0  0
  194.4440  176.4730  135.8500 C   0  0  1  0  0  3  0  0  0  0  0  0
  192.1240  176.3190  138.8050 N   0  0  0  0  0  2  0  0  0  0  0  0
  192.6740  174.8560  135.2990 C   0  0  0  0  0  2  0  0  0  0  0  0
  193.8690  177.6000  139.7080 O   0  0  0  0  0  0  0  0  0  0  0  0
  195.1120  177.6990  135.4520 N   0  0  0  0  0  1  0  0  0  0  0  0
  192.7300  177.0840  139.8530 C   0  0  0  0  0  0  0  0  0  0  0  0
  193.7880  176.6680  137.1450 N   0  0  0  0  0  0  0  0  0  0  0  0
  191.8740  175.2630  136.5320 C   0  0  0  0  0  2  0  0  0  0  0  0
  192.6820  176.0810  137.5070 C   0  0  0  0  0  0  0  0  0  0  0  0
  193.4510  176.0510  134.7760 C   0  0  0  0  0  2  0  0  0  0  0  0
  1 14  1  0  0  0  0
  2 13  1  0  0  0  0
  2  3  1  0  0  0  0
  3  7  1  1  0  0  0
  3 19  1  0  0  0  0
  4 15  1  0  0  0  0
  5  2  2  0  0  0  0
  6 17  1  0  0  0  0
  6  1  1  0  0  0  0
  7  4  2  0  0  0  0
  8 21  1  0  0  0  0
  8 13  1  0  0  0  0
  9  1  2  0  0  0  0
 12  8  1  0  0  0  0
 13 18  2  0  0  0  0
 14  5  1  0  0  0  0
 15 20  2  0  0  0  0
 15 11  1  0  0  0  0
 16 12  2  0  0  0  0
 16  5  1  0  0  0  0
 17 16  1  0  0  0  0
 18 10  1  0  0  0  0
 19 10  2  0  0  0  0
 19 20  1  0  0  0  0
 22 26  1  6  0  0  0
 22 28  1  0  0  0  0
 23 27  1  0  0  0  0
 24 29  1  0  0  0  0
 25 27  2  0  0  0  0
 27 21  1  0  0  0  0
 28 30  2  0  0  0  0
 29 30  1  0  0  0  0
 30 23  1  0  0  0  0
 31 24  1  0  0  0  0
 31 22  1  0  0  0  0
M  END
>  <MODEL>
4

>  <REMARK>
 VINA RESULT:      -9.3      3.453      4.327
  Name = 
  2 active torsions:
  status: ('A' for Active; 'I' for Inactive)
    1  A    between atoms: C_9  and  C_23
    2  A    between atoms: N_15  and  C_23
                            x       y       z     vdW  Elec       q    Type
                         _______ _______ _______ _____ _____    ______ ____

>  <TORSDO>
F 2

$$$$
=
 OpenBabel10272400193D

 31 35  0  0  1  0  0  0  0  0999 V2000
  190.1150  178.1970  144.4240 C   0  0  0  0  0  0  0  0  0  0  0  0
  188.2040  178.0120  141.2320 C   0  0  0  0  0  0  0  0  0  0  0  0
  186.8530  178.5630  141.6600 C   0  0  0  0  0  0  0  0  0  0  0  0
  184.9120  177.9550  143.0760 C   0  0  0  0  0  3  0  0  0  0  0  0
  189.2170  177.8460  142.1120 C   0  0  0  0  0  0  0  0  0  0  0  0
  191.7860  178.4360  143.8210 S   0  0  0  0  0  0  0  0  0  0  0  0
  186.2270  177.8580  142.8410 C   0  0  0  0  0  3  0  0  0  0  0  0
  189.7920  177.3940  139.3710 N   0  0  0  0  0  0  0  0  0  0  0  0
  189.9060  178.0670  145.6570 O   0  0  0  0  0  0  0  0  0  0  0  0
  186.1820  178.5200  139.2580 C   0  0  0  0  0  3  0  0  0  0  0  0
  182.3470  178.9380  142.5540 Cl  0  0  0  0  0  0  0  0  0  0  0  0
  190.7960  177.1480  140.3600 C   0  0  0  0  0  3  0  0  0  0  0  0
  188.4830  177.8310  139.7810 C   0  0  0  0  0  0  0  0  0  0  0  0
  189.0250  178.1370  143.5040 N   0  0  0  0  0  2  0  0  0  0  0  0
  184.0180  178.6520  142.1220 C   0  0  0  0  0  0  0  0  0  0  0  0
  190.5510  177.3620  141.6530 C   0  0  0  0  0  0  0  0  0  0  0  0
  191.6240  177.0570  142.6490 C   0  0  0  0  0  2  0  0  0  0  0  0
  187.5360  178.1000  138.8720 C   0  0  0  0  0  3  0  0  0  0  0  0
  185.8470  178.6970  140.5340 C   0  0  0  0  0  0  0  0  0  0  0  0
  184.4470  178.9660  140.8940 C   0  0  0  0  0  2  0  0  0  0  0  0
  190.1130  177.1160  137.9750 C   0  0  0  0  0  2  0  0  0  0  0  0
  194.8260  173.6190  137.6210 C   0  0  1  0  0  3  0  0  0  0  0  0
  192.3780  176.4260  137.1030 N   0  0  0  0  0  2  0  0  0  0  0  0
  195.7330  175.0530  135.8400 C   0  0  0  0  0  2  0  0  0  0  0  0
  191.1350  175.0440  138.5340 O   0  0  0  0  0  0  0  0  0  0  0  0
  195.0690  173.0340  138.9270 N   0  0  0  0  0  1  0  0  0  0  0  0
  191.2210  176.1240  137.8910 C   0  0  0  0  0  0  0  0  0  0  0  0
  193.6790  174.5280  137.6940 N   0  0  0  0  0  0  0  0  0  0  0  0
  194.6720  176.1150  136.1110 C   0  0  0  0  0  2  0  0  0  0  0  0
  193.5470  175.6080  136.9760 C   0  0  0  0  0  0  0  0  0  0  0  0
  196.0770  174.3340  137.1320 C   0  0  0  0  0  2  0  0  0  0  0  0
  1  9  2  0  0  0  0
  2  3  1  0  0  0  0
  2  5  2  0  0  0  0
  3  7  2  0  0  0  0
  5 14  1  0  0  0  0
  6  1  1  0  0  0  0
  7  4  1  0  0  0  0
  8 13  1  0  0  0  0
  8 12  1  0  0  0  0
 10 19  2  0  0  0  0
 12 16  2  0  0  0  0
 13  2  1  0  0  0  0
 14  1  1  0  0  0  0
 15 11  1  0  0  0  0
 15  4  2  0  0  0  0
 16  5  1  0  0  0  0
 16 17  1  0  0  0  0
 17  6  1  0  0  0  0
 18 10  1  0  0  0  0
 18 13  2  0  0  0  0
 19 20  1  0  0  0  0
 19  3  1  0  0  0  0
 20 15  1  0  0  0  0
 21  8  1  0  0  0  0
 22 28  1  0  0  0  0
 22 26  1  1  0  0  0
 23 27  1  0  0  0  0
 24 29  1  0  0  0  0
 24 31  1  0  0  0  0
 27 21  1  0  0  0  0
 27 25  2  0  0  0  0
 29 30  1  0  0  0  0
 30 23  1  0  0  0  0
 30 28  2  0  0  0  0
 31 22  1  0  0  0  0
M  END
>  <MODEL>
5

>  <REMARK>
 VINA RESULT:      -9.0      4.548      6.187
  Name = 
  2 active torsions:
  status: ('A' for Active; 'I' for Inactive)
    1  A    between atoms: C_9  and  C_23
    2  A    between atoms: N_15  and  C_23
                            x       y       z     vdW  Elec       q    Type
                         _______ _______ _______ _____ _____    ______ ____

>  <TORSDO>
F 2

$$$$
=
 OpenBabel10272400193D

 31 35  0  0  1  0  0  0  0  0999 V2000
  191.2960  177.2310  142.1360 C   0  0  0  0  0  0  0  0  0  0  0  0
  187.7270  178.0050  141.4040 C   0  0  0  0  0  0  0  0  0  0  0  0
  187.2130  178.3830  142.7840 C   0  0  2  0  0  3  0  0  0  0  0  0
  186.7330  177.3500  144.9840 C   0  0  0  0  0  3  0  0  0  0  0  0
  188.9980  177.5910  141.2050 C   0  0  0  0  0  0  0  0  0  0  0  0
  192.0760  177.6630  140.5820 S   0  0  0  0  0  0  0  0  0  0  0  0
  187.4520  177.3450  143.8550 C   0  0  0  0  0  3  0  0  0  0  0  0
  187.3940  178.0030  138.9020 N   0  0  0  0  0  0  0  0  0  0  0  0
  191.9810  176.7290  143.0640 O   0  0  0  0  0  0  0  0  0  0  0  0
  185.0740  179.0660  141.6960 C   0  0  0  0  0  3  0  0  0  0  0  0
  184.8170  178.4130  146.7210 Cl  0  0  0  0  0  0  0  0  0  0  0  0
  188.7170  177.4790  138.7640 C   0  0  0  0  0  3  0  0  0  0  0  0
  186.8720  178.2780  140.2160 C   0  0  0  0  0  0  0  0  0  0  0  0
  189.8950  177.4420  142.3150 N   0  0  0  0  0  2  0  0  0  0  0  0
  185.6050  178.2930  145.1640 C   0  0  0  0  0  0  0  0  0  0  0  0
  189.4930  177.2860  139.8320 C   0  0  0  0  0  0  0  0  0  0  0  0
  190.8570  176.7050  139.6350 C   0  0  0  0  0  2  0  0  0  0  0  0
  185.6480  178.8000  140.3700 C   0  0  0  0  0  3  0  0  0  0  0  0
  185.7690  178.8420  142.8100 C   0  0  0  0  0  0  0  0  0  0  0  0
  185.1140  178.9710  144.1200 C   0  0  0  0  0  3  0  0  0  0  0  0
  186.5860  178.1680  137.6980 C   0  0  0  0  0  2  0  0  0  0  0  0
  184.6410  172.8200  136.2210 C   0  0  1  0  0  3  0  0  0  0  0  0
  186.7170  175.9410  136.5190 N   0  0  0  0  0  2  0  0  0  0  0  0
  186.5740  172.5510  134.7240 C   0  0  0  0  0  2  0  0  0  0  0  0
  184.8060  176.5920  137.7140 O   0  0  0  0  0  0  0  0  0  0  0  0
  183.9120  172.2640  137.3460 N   0  0  0  0  0  1  0  0  0  0  0  0
  185.9680  176.8680  137.3130 C   0  0  0  0  0  0  0  0  0  0  0  0
  185.1710  174.1380  136.5800 N   0  0  0  0  0  0  0  0  0  0  0  0
  187.2360  173.7980  135.3020 C   0  0  0  0  0  2  0  0  0  0  0  0
  186.2880  174.6320  136.1250 C   0  0  0  0  0  0  0  0  0  0  0  0
  185.7490  171.8660  135.7980 C   0  0  0  0  0  2  0  0  0  0  0  0
  1 14  1  0  0  0  0
  1  9  2  0  0  0  0
  2  3  1  0  0  0  0
  3 19  1  0  0  0  0
  3  7  1  1  0  0  0
  4 15  1  0  0  0  0
  5  2  2  0  0  0  0
  5 14  1  0  0  0  0
  6  1  1  0  0  0  0
  7  4  2  0  0  0  0
  8 13  1  0  0  0  0
 10 19  2  0  0  0  0
 12  8  1  0  0  0  0
 12 16  2  0  0  0  0
 13 18  2  0  0  0  0
 13  2  1  0  0  0  0
 15 11  1  0  0  0  0
 16  5  1  0  0  0  0
 17 16  1  0  0  0  0
 17  6  1  0  0  0  0
 18 10  1  0  0  0  0
 19 20  1  0  0  0  0
 20 15  2  0  0  0  0
 21  8  1  0  0  0  0
 22 28  1  0  0  0  0
 22 26  1  1  0  0  0
 23 27  1  0  0  0  0
 24 29  1  0  0  0  0
 24 31  1  0  0  0  0
 27 21  1  0  0  0  0
 27 25  2  0  0  0  0
 29 30  1  0  0  0  0
 30 23  1  0  0  0  0
 30 28  2  0  0  0  0
 31 22  1  0  0  0  0
M  END
>  <MODEL>
6

>  <REMARK>
 VINA RESULT:      -8.8      3.107      4.762
  Name = 
  2 active torsions:
  status: ('A' for Active; 'I' for Inactive)
    1  A    between atoms: C_9  and  C_23
    2  A    between atoms: N_15  and  C_23
                            x       y       z     vdW  Elec       q    Type
                         _______ _______ _______ _____ _____    ______ ____

>  <TORSDO>
F 2

$$$$
=
 OpenBabel10272400193D

 31 35  0  0  1  0  0  0  0  0999 V2000
  184.8240  178.5330  145.9460 C   0  0  0  0  0  0  0  0  0  0  0  0
  187.4830  177.8260  143.4360 C   0  0  0  0  0  0  0  0  0  0  0  0
  188.4900  177.0540  144.2750 C   0  0  0  0  0  0  0  0  0  0  0  0
  190.0820  177.4090  146.1400 C   0  0  0  0  0  3  0  0  0  0  0  0
  186.3530  178.3380  143.9710 C   0  0  0  0  0  0  0  0  0  0  0  0
  183.3650  178.5880  144.9070 S   0  0  0  0  0  0  0  0  0  0  0  0
  188.9440  177.7630  145.5290 C   0  0  0  0  0  3  0  0  0  0  0  0
  186.6470  178.5090  141.1550 N   0  0  0  0  0  0  0  0  0  0  0  0
  184.7300  178.7880  147.1740 O   0  0  0  0  0  0  0  0  0  0  0  0
  189.7520  176.6010  142.1710 C   0  0  0  0  0  3  0  0  0  0  0  0
  192.3570  175.8150  146.4540 Cl  0  0  0  0  0  0  0  0  0  0  0  0
  185.5180  179.1130  141.7920 C   0  0  0  0  0  3  0  0  0  0  0  0
  187.6490  177.8550  141.9570 C   0  0  0  0  0  0  0  0  0  0  0  0
  186.0940  178.2140  145.3770 N   0  0  0  0  0  2  0  0  0  0  0  0
  190.9860  176.4010  145.5390 C   0  0  0  0  0  0  0  0  0  0  0  0
  185.3530  179.0370  143.1120 C   0  0  0  0  0  0  0  0  0  0  0  0
  184.1720  179.7140  143.7310 C   0  0  0  0  0  2  0  0  0  0  0  0
  188.6990  177.2530  141.3820 C   0  0  0  0  0  3  0  0  0  0  0  0
  189.6860  176.5390  143.5000 C   0  0  0  0  0  0  0  0  0  0  0  0
  190.8270  176.0190  144.2670 C   0  0  0  0  0  2  0  0  0  0  0  0
  186.7830  178.6490  139.7090 C   0  0  0  0  0  2  0  0  0  0  0  0
  181.3830  178.6980  137.3860 C   0  0  1  0  0  3  0  0  0  0  0  0
  184.8260  177.6460  138.4740 N   0  0  0  0  0  2  0  0  0  0  0  0
  181.7660  176.4370  136.4960 C   0  0  0  0  0  2  0  0  0  0  0  0
  184.8570  179.9040  139.1070 O   0  0  0  0  0  0  0  0  0  0  0  0
  180.5290  179.5290  138.2150 N   0  0  0  0  0  1  0  0  0  0  0  0
  185.4410  178.7890  139.0770 C   0  0  0  0  0  0  0  0  0  0  0  0
  182.7260  178.6370  137.9690 N   0  0  0  0  0  0  0  0  0  0  0  0
  183.0420  176.2930  137.3200 C   0  0  0  0  0  2  0  0  0  0  0  0
  183.5190  177.6050  137.8880 C   0  0  0  0  0  0  0  0  0  0  0  0
  180.7720  177.3110  137.2400 C   0  0  0  0  0  2  0  0  0  0  0  0
  1  9  2  0  0  0  0
  2  5  2  0  0  0  0
  2  3  1  0  0  0  0
  3  7  2  0  0  0  0
  5 14  1  0  0  0  0
  6  1  1  0  0  0  0
  7  4  1  0  0  0  0
  8 12  1  0  0  0  0
  8 13  1  0  0  0  0
 10 19  2  0  0  0  0
 12 16  2  0  0  0  0
 13  2  1  0  0  0  0
 14  1  1  0  0  0  0
 15  4  2  0  0  0  0
 15 11  1  0  0  0  0
 16 17  1  0  0  0  0
 16  5  1  0  0  0  0
 17  6  1  0  0  0  0
 18 13  2  0  0  0  0
 18 10  1  0  0  0  0
 19 20  1  0  0  0  0
 19  3  1  0  0  0  0
 20 15  1  0  0  0  0
 21  8  1  0  0  0  0
 22 28  1  0  0  0  0
 22 26  1  1  0  0  0
 23 27  1  0  0  0  0
 24 31  1  0  0  0  0
 24 29  1  0  0  0  0
 27 25  2  0  0  0  0
 27 21  1  0  0  0  0
 29 30  1  0  0  0  0
 30 28  2  0  0  0  0
 30 23  1  0  0  0  0
 31 22  1  0  0  0  0
M  END
>  <MODEL>
7

>  <REMARK>
 VINA RESULT:      -8.7      3.221      4.003
  Name = 
  2 active torsions:
  status: ('A' for Active; 'I' for Inactive)
    1  A    between atoms: C_9  and  C_23
    2  A    between atoms: N_15  and  C_23
                            x       y       z     vdW  Elec       q    Type
                         _______ _______ _______ _____ _____    ______ ____

>  <TORSDO>
F 2

$$$$
=
 OpenBabel10272400193D

 31 35  0  0  1  0  0  0  0  0999 V2000
  189.3270  178.1300  139.5810 C   0  0  0  0  0  0  0  0  0  0  0  0
  186.1380  178.3100  141.4970 C   0  0  0  0  0  0  0  0  0  0  0  0
  186.6510  178.3980  142.9260 C   0  0  2  0  0  3  0  0  0  0  0  0
  187.8090  177.0090  144.6200 C   0  0  0  0  0  3  0  0  0  0  0  0
  186.9760  178.1730  140.4460 C   0  0  0  0  0  0  0  0  0  0  0  0
  188.8530  178.9040  138.0360 S   0  0  0  0  0  0  0  0  0  0  0  0
  187.5960  177.2900  143.3280 C   0  0  0  0  0  3  0  0  0  0  0  0
  184.2280  178.5790  139.8690 N   0  0  0  0  0  0  0  0  0  0  0  0
  190.4800  177.6460  139.7140 O   0  0  0  0  0  0  0  0  0  0  0  0
  184.2970  178.8060  143.6460 C   0  0  0  0  0  3  0  0  0  0  0  0
  187.4770  177.4530  147.3600 Cl  0  0  0  0  0  0  0  0  0  0  0  0
  185.1510  178.3360  138.8040 C   0  0  0  0  0  3  0  0  0  0  0  0
  184.6970  178.5740  141.2310 C   0  0  0  0  0  0  0  0  0  0  0  0
  188.3900  178.0480  140.6560 N   0  0  0  0  0  2  0  0  0  0  0  0
  187.0370  177.6910  145.6840 C   0  0  0  0  0  0  0  0  0  0  0  0
  186.4490  178.1520  139.0500 C   0  0  0  0  0  0  0  0  0  0  0  0
  187.3660  177.8690  137.9040 C   0  0  0  0  0  2  0  0  0  0  0  0
  183.8580  178.8320  142.2440 C   0  0  0  0  0  3  0  0  0  0  0  0
  185.5670  178.5700  143.9710 C   0  0  0  0  0  0  0  0  0  0  0  0
  185.9420  178.3980  145.3820 C   0  0  0  0  0  3  0  0  0  0  0  0
  182.8170  178.7480  139.5370 C   0  0  0  0  0  2  0  0  0  0  0  0
  181.4550  183.7480  136.7610 C   0  0  1  0  0  3  0  0  0  0  0  0
  181.5850  180.1470  137.8370 N   0  0  0  0  0  2  0  0  0  0  0  0
  179.9820  182.4840  135.2490 C   0  0  0  0  0  2  0  0  0  0  0  0
  183.3090  181.0410  139.1530 O   0  0  0  0  0  0  0  0  0  0  0  0
  181.5410  184.8430  137.7090 N   0  0  0  0  0  1  0  0  0  0  0  0
  182.6060  180.0450  138.8370 C   0  0  0  0  0  0  0  0  0  0  0  0
  181.7500  182.4840  137.4410 N   0  0  0  0  0  0  0  0  0  0  0  0
  180.0990  181.2390  136.1220 C   0  0  0  0  0  2  0  0  0  0  0  0
  181.2190  181.3360  137.1260 C   0  0  0  0  0  0  0  0  0  0  0  0
  180.0760  183.7280  136.1150 C   0  0  0  0  0  2  0  0  0  0  0  0
  1  9  2  0  0  0  0
  1 14  1  0  0  0  0
  2  3  1  0  0  0  0
  3  7  1  1  0  0  0
  3 19  1  0  0  0  0
  4 15  1  0  0  0  0
  5 14  1  0  0  0  0
  5  2  2  0  0  0  0
  6  1  1  0  0  0  0
  7  4  2  0  0  0  0
  8 13  1  0  0  0  0
 10 19  2  0  0  0  0
 12 16  2  0  0  0  0
 12  8  1  0  0  0  0
 13  2  1  0  0  0  0
 13 18  2  0  0  0  0
 15 11  1  0  0  0  0
 16  5  1  0  0  0  0
 17  6  1  0  0  0  0
 17 16  1  0  0  0  0
 18 10  1  0  0  0  0
 19 20  1  0  0  0  0
 20 15  2  0  0  0  0
 21  8  1  0  0  0  0
 22 28  1  0  0  0  0
 22 26  1  1  0  0  0
 23 27  1  0  0  0  0
 24 31  1  0  0  0  0
 24 29  1  0  0  0  0
 27 25  2  0  0  0  0
 27 21  1  0  0  0  0
 29 30  1  0  0  0  0
 30 28  2  0  0  0  0
 30 23  1  0  0  0  0
 31 22  1  0  0  0  0
M  END
>  <MODEL>
8

>  <REMARK>
 VINA RESULT:      -8.6      4.123      6.171
  Name = 
  2 active torsions:
  status: ('A' for Active; 'I' for Inactive)
    1  A    between atoms: C_9  and  C_23
    2  A    between atoms: N_15  and  C_23
                            x       y       z     vdW  Elec       q    Type
                         _______ _______ _______ _____ _____    ______ ____

>  <TORSDO>
F 2

$$$$
=
 OpenBabel10272400193D

 31 35  0  0  1  0  0  0  0  0999 V2000
  191.2840  177.2310  142.0660 C   0  0  0  0  0  0  0  0  0  0  0  0
  187.7080  178.0070  141.3730 C   0  0  0  0  0  0  0  0  0  0  0  0
  187.2090  178.3840  142.7590 C   0  0  2  0  0  3  0  0  0  0  0  0
  186.7520  177.3500  144.9630 C   0  0  0  0  0  3  0  0  0  0  0  0
  188.9770  177.5930  141.1600 C   0  0  0  0  0  0  0  0  0  0  0  0
  192.0480  177.6630  140.5040 S   0  0  0  0  0  0  0  0  0  0  0  0
  187.4600  177.3450  143.8260 C   0  0  0  0  0  3  0  0  0  0  0  0
  187.3480  178.0070  138.8750 N   0  0  0  0  0  0  0  0  0  0  0  0
  191.9790  176.7270  142.9860 O   0  0  0  0  0  0  0  0  0  0  0  0
  185.0590  179.0700  141.6940 C   0  0  0  0  0  3  0  0  0  0  0  0
  184.8560  178.4130  146.7210 Cl  0  0  0  0  0  0  0  0  0  0  0  0
  188.6700  177.4820  138.7220 C   0  0  0  0  0  3  0  0  0  0  0  0
  186.8410  178.2810  140.1940 C   0  0  0  0  0  0  0  0  0  0  0  0
  189.8860  177.4420  142.2610 N   0  0  0  0  0  2  0  0  0  0  0  0
  185.6270  178.2940  145.1560 C   0  0  0  0  0  0  0  0  0  0  0  0
  189.4570  177.2880  139.7810 C   0  0  0  0  0  0  0  0  0  0  0  0
  190.8180  176.7060  139.5690 C   0  0  0  0  0  2  0  0  0  0  0  0
  185.6180  178.8040  140.3610 C   0  0  0  0  0  3  0  0  0  0  0  0
  185.7660  178.8440  142.8000 C   0  0  0  0  0  0  0  0  0  0  0  0
  185.1250  178.9730  144.1170 C   0  0  0  0  0  3  0  0  0  0  0  0
  186.5270  178.1720  137.6800 C   0  0  0  0  0  2  0  0  0  0  0  0
  183.1950  173.5010  136.3980 C   0  0  1  0  0  3  0  0  0  0  0  0
  184.4000  176.8150  137.7050 N   0  0  0  0  0  2  0  0  0  0  0  0
  181.3610  174.4700  137.7200 C   0  0  0  0  0  2  0  0  0  0  0  0
  186.4000  175.9570  136.8280 O   0  0  0  0  0  0  0  0  0  0  0  0
  183.5940  172.9890  135.1000 N   0  0  0  0  0  1  0  0  0  0  0  0
  185.7920  176.9110  137.3830 C   0  0  0  0  0  0  0  0  0  0  0  0
  183.9850  174.6920  136.7210 N   0  0  0  0  0  0  0  0  0  0  0  0
  182.0980  175.8020  137.8260 C   0  0  0  0  0  2  0  0  0  0  0  0
  183.5470  175.7000  137.4230 C   0  0  0  0  0  0  0  0  0  0  0  0
  181.7030  173.8000  136.4020 C   0  0  0  0  0  2  0  0  0  0  0  0
  1 14  1  0  0  0  0
  1  9  2  0  0  0  0
  2  3  1  0  0  0  0
  3 19  1  0  0  0  0
  3  7  1  1  0  0  0
  4 15  1  0  0  0  0
  5  2  2  0  0  0  0
  5 14  1  0  0  0  0
  6  1  1  0  0  0  0
  7  4  2  0  0  0  0
  8 13  1  0  0  0  0
 10 19  2  0  0  0  0
 12  8  1  0  0  0  0
 12 16  2  0  0  0  0
 13 18  2  0  0  0  0
 13  2  1  0  0  0  0
 15 11  1  0  0  0  0
 16  5  1  0  0  0  0
 17 16  1  0  0  0  0
 17  6  1  0  0  0  0
 18 10  1  0  0  0  0
 19 20  1  0  0  0  0
 20 15  2  0  0  0  0
 21  8  1  0  0  0  0
 22 26  1  6  0  0  0
 22 31  1  0  0  0  0
 22 28  1  0  0  0  0
 24 29  1  0  0  0  0
 25 27  2  0  0  0  0
 27 21  1  0  0  0  0
 27 23  1  0  0  0  0
 28 30  2  0  0  0  0
 30 23  1  0  0  0  0
 30 29  1  0  0  0  0
 31 24  1  0  0  0  0
M  END
>  <MODEL>
9

>  <REMARK>
 VINA RESULT:      -8.6      3.631      5.087
  Name = 
  2 active torsions:
  status: ('A' for Active; 'I' for Inactive)
    1  A    between atoms: C_9  and  C_23
    2  A    between atoms: N_15  and  C_23
                            x       y       z     vdW  Elec       q    Type
                         _______ _______ _______ _____ _____    ______ ____

>  <TORSDO>
F 2

$$$$
