=
 OpenBabel10272413353D

 32 36  0  0  1  0  0  0  0  0999 V2000
  188.1660  176.4770  137.2080 C   0  0  0  0  0  3  0  0  0  0  0  0
  189.8190  177.8630  141.5510 C   0  0  0  0  0  0  0  0  0  0  0  0
  184.8200  179.2730  143.4720 C   0  0  0  0  0  2  0  0  0  0  0  0
  185.1440  178.1620  144.4290 C   0  0  0  0  0  3  0  0  0  0  0  0
  190.2140  176.5990  139.0770 C   0  0  0  0  0  0  0  0  0  0  0  0
  188.7510  177.8000  140.6360 C   0  0  0  0  0  0  0  0  0  0  0  0
  187.9360  177.1060  138.4310 C   0  0  0  0  0  3  0  0  0  0  0  0
  185.3930  178.9920  142.0820 C   0  0  0  0  0  2  0  0  0  0  0  0
  187.4220  178.3910  140.9410 C   0  0  0  0  0  3  0  0  0  0  0  0
  186.8320  178.5510  142.1340 C   0  0  0  0  0  0  0  0  0  0  0  0
  188.6790  177.9470  143.7260 C   0  0  0  0  0  0  0  0  0  0  0  0
  191.5180  175.4450  137.5540 O   0  0  0  0  0  0  0  0  0  0  0  0
  190.4030  175.9710  137.8330 C   0  0  0  0  0  0  0  0  0  0  0  0
  188.9600  177.1780  139.3820 C   0  0  0  0  0  0  0  0  0  0  0  0
  191.2510  176.6600  140.0150 C   0  0  0  0  0  3  0  0  0  0  0  0
  189.3790  175.9280  136.9260 N   0  0  0  0  0  0  0  0  0  0  0  0
  186.3580  177.6120  144.4330 C   0  0  0  0  0  3  0  0  0  0  0  0
  187.3650  178.0090  143.4250 C   0  0  0  0  0  0  0  0  0  0  0  0
  191.0550  177.2930  141.2390 C   0  0  0  0  0  3  0  0  0  0  0  0
  189.6920  178.5970  142.8370 C   0  0  0  0  0  2  0  0  0  0  0  0
  188.9210  177.1700  147.5350 C   0  0  2  0  0  3  0  0  0  0  0  0
  190.0650  176.1610  147.3610 C   0  0  0  0  0  2  0  0  0  0  0  0
  190.6690  177.0810  145.0640 C   0  0  2  0  0  3  0  0  0  0  0  0
  192.2110  175.7970  146.3740 O   0  0  0  0  0  1  0  0  0  0  0  0
  191.1730  176.7220  146.4700 C   0  0  2  0  0  3  0  0  0  0  0  0
  188.6320  178.0040  146.2790 C   0  0  0  0  0  2  0  0  0  0  0  0
  189.2000  178.0230  148.6030 O   0  0  0  0  0  1  0  0  0  0  0  0
  191.3580  178.2100  144.6140 O   0  0  0  0  0  1  0  0  0  0  0  0
  189.1440  177.3080  145.0150 C   0  0  1  0  0  3  0  0  0  0  0  0
  189.5570  175.2840  135.6280 C   0  0  0  0  0  2  0  0  0  0  0  0
  188.5380  174.1700  135.4270 C   0  0  0  0  0  2  0  0  0  0  0  0
  188.8900  172.9650  136.2770 C   0  0  0  0  0  1  0  0  0  0  0  0
  1  7  2  0  0  0  0
  2 20  1  0  0  0  0
  3  4  1  0  0  0  0
  4 17  2  0  0  0  0
  5 14  2  0  0  0  0
  5 15  1  0  0  0  0
  6  9  1  0  0  0  0
  6  2  2  0  0  0  0
  7 14  1  0  0  0  0
  8 10  1  0  0  0  0
  8  3  1  0  0  0  0
  9 10  2  0  0  0  0
 10 18  1  0  0  0  0
 12 13  2  0  0  0  0
 13  5  1  0  0  0  0
 14  6  1  0  0  0  0
 15 19  2  0  0  0  0
 16  1  1  0  0  0  0
 16 13  1  0  0  0  0
 18 11  2  0  0  0  0
 18 17  1  0  0  0  0
 19  2  1  0  0  0  0
 20 11  1  0  0  0  0
 21 27  1  1  0  0  0
 22 21  1  0  0  0  0
 23 28  1  1  0  0  0
 23 25  1  0  0  0  0
 25 24  1  6  0  0  0
 25 22  1  0  0  0  0
 26 21  1  0  0  0  0
 29 11  1  6  0  0  0
 29 23  1  0  0  0  0
 29 26  1  0  0  0  0
 30 16  1  0  0  0  0
 31 30  1  0  0  0  0
 31 32  1  0  0  0  0
M  END
>  <MODEL>
1

>  <REMARK>
 VINA RESULT:      -9.9      0.000      0.000
  Name = 
  3 active torsions:
  status: ('A' for Active; 'I' for Inactive)
    1  A    between atoms: C_1  and  C_10
    2  A    between atoms: C_10  and  N_24
    3  A    between atoms: C_16  and  C_32
                            x       y       z     vdW  Elec       q    Type
                         _______ _______ _______ _____ _____    ______ ____

>  <TORSDO>
F 3

$$$$
=
 OpenBabel10272413353D

 32 36  0  0  1  0  0  0  0  0999 V2000
  188.5120  177.2780  144.3750 C   0  0  0  0  0  3  0  0  0  0  0  0
  185.1730  178.9540  141.2830 C   0  0  0  0  0  0  0  0  0  0  0  0
  188.2640  178.0250  136.7840 C   0  0  0  0  0  2  0  0  0  0  0  0
  187.1230  177.0940  136.4920 C   0  0  0  0  0  3  0  0  0  0  0  0
  185.9200  178.1280  143.8590 C   0  0  0  0  0  0  0  0  0  0  0  0
  186.4900  178.5080  141.5040 C   0  0  0  0  0  0  0  0  0  0  0  0
  188.1700  177.6760  143.0840 C   0  0  0  0  0  3  0  0  0  0  0  0
  188.5520  178.0960  138.2840 C   0  0  0  0  0  2  0  0  0  0  0  0
  187.4980  178.4700  140.4130 C   0  0  0  0  0  3  0  0  0  0  0  0
  187.3010  178.2950  139.0990 C   0  0  0  0  0  0  0  0  0  0  0  0
  184.7980  178.4190  138.9150 C   0  0  0  0  0  0  0  0  0  0  0  0
  185.4650  177.7220  146.0900 O   0  0  0  0  0  0  0  0  0  0  0  0
  186.3060  177.7150  145.1470 C   0  0  0  0  0  0  0  0  0  0  0  0
  186.8680  178.1100  142.8080 C   0  0  0  0  0  0  0  0  0  0  0  0
  184.6130  178.5580  143.6040 C   0  0  0  0  0  3  0  0  0  0  0  0
  187.5910  177.3040  145.3780 N   0  0  0  0  0  0  0  0  0  0  0  0
  186.0350  177.1020  137.2620 C   0  0  0  0  0  3  0  0  0  0  0  0
  185.9830  177.9460  138.4770 C   0  0  0  0  0  0  0  0  0  0  0  0
  184.2470  178.9740  142.3270 C   0  0  0  0  0  3  0  0  0  0  0  0
  184.7500  179.4870  139.9620 C   0  0  0  0  0  2  0  0  0  0  0  0
  181.2190  178.5780  137.3870 C   0  0  2  0  0  3  0  0  0  0  0  0
  181.1210  177.0570  137.1970 C   0  0  0  0  0  2  0  0  0  0  0  0
  182.9900  176.6220  138.8720 C   0  0  2  0  0  3  0  0  0  0  0  0
  181.3970  174.9370  138.2660 O   0  0  0  0  0  1  0  0  0  0  0  0
  181.5430  176.3090  138.4610 C   0  0  2  0  0  3  0  0  0  0  0  0
  182.4050  179.0200  138.2550 C   0  0  0  0  0  2  0  0  0  0  0  0
  180.0340  179.0630  137.9400 O   0  0  0  0  0  1  0  0  0  0  0  0
  183.0720  176.6220  140.2670 O   0  0  0  0  0  1  0  0  0  0  0  0
  183.5030  177.9540  138.2880 C   0  0  1  0  0  3  0  0  0  0  0  0
  188.0110  176.8760  146.7080 C   0  0  0  0  0  2  0  0  0  0  0  0
  189.2150  177.6790  147.1850 C   0  0  0  0  0  2  0  0  0  0  0  0
  188.9130  178.3600  148.5060 C   0  0  0  0  0  1  0  0  0  0  0  0
  1 16  1  0  0  0  0
  2  6  2  0  0  0  0
  2 19  1  0  0  0  0
  3  8  1  0  0  0  0
  4  3  1  0  0  0  0
  4 17  2  0  0  0  0
  5 13  1  0  0  0  0
  6 14  1  0  0  0  0
  7  1  2  0  0  0  0
  8 10  1  0  0  0  0
  9  6  1  0  0  0  0
 10  9  2  0  0  0  0
 11 20  1  0  0  0  0
 13 16  1  0  0  0  0
 13 12  2  0  0  0  0
 14  7  1  0  0  0  0
 14  5  2  0  0  0  0
 15  5  1  0  0  0  0
 16 30  1  0  0  0  0
 17 18  1  0  0  0  0
 18 11  2  0  0  0  0
 18 10  1  0  0  0  0
 19 15  2  0  0  0  0
 20  2  1  0  0  0  0
 21 27  1  1  0  0  0
 21 26  1  0  0  0  0
 22 21  1  0  0  0  0
 22 25  1  0  0  0  0
 23 28  1  1  0  0  0
 25 24  1  6  0  0  0
 25 23  1  0  0  0  0
 26 29  1  0  0  0  0
 29 23  1  0  0  0  0
 29 11  1  1  0  0  0
 30 31  1  0  0  0  0
 31 32  1  0  0  0  0
M  END
>  <MODEL>
2

>  <REMARK>
 VINA RESULT:      -9.8      4.524      8.953
  Name = 
  3 active torsions:
  status: ('A' for Active; 'I' for Inactive)
    1  A    between atoms: C_1  and  C_10
    2  A    between atoms: C_10  and  N_24
    3  A    between atoms: C_16  and  C_32
                            x       y       z     vdW  Elec       q    Type
                         _______ _______ _______ _____ _____    ______ ____

>  <TORSDO>
F 3

$$$$
=
 OpenBabel10272413353D

 32 36  0  0  1  0  0  0  0  0999 V2000
  190.4970  176.8110  145.2620 C   0  0  0  0  0  3  0  0  0  0  0  0
  188.6000  178.0570  140.9780 C   0  0  0  0  0  0  0  0  0  0  0  0
  193.1080  176.6340  138.0930 C   0  0  0  0  0  2  0  0  0  0  0  0
  192.1270  175.6590  137.5080 C   0  0  0  0  0  3  0  0  0  0  0  0
  188.3110  177.5570  143.7240 C   0  0  0  0  0  0  0  0  0  0  0  0
  189.7260  177.6580  141.7230 C   0  0  0  0  0  0  0  0  0  0  0  0
  190.6720  177.0450  143.9000 C   0  0  0  0  0  3  0  0  0  0  0  0
  192.8200  176.8890  139.5730 C   0  0  0  0  0  2  0  0  0  0  0  0
  191.0640  177.5030  141.0970 C   0  0  0  0  0  3  0  0  0  0  0  0
  191.3630  177.1670  139.8350 C   0  0  0  0  0  0  0  0  0  0  0  0
  189.1130  177.2350  138.7200 C   0  0  0  0  0  0  0  0  0  0  0  0
  187.0480  177.4160  145.6570 O   0  0  0  0  0  0  0  0  0  0  0  0
  188.1780  177.3080  145.1020 C   0  0  0  0  0  0  0  0  0  0  0  0
  189.5800  177.4250  143.1110 C   0  0  0  0  0  0  0  0  0  0  0  0
  187.2060  177.9360  142.9530 C   0  0  0  0  0  3  0  0  0  0  0  0
  189.2720  176.9450  145.8400 N   0  0  0  0  0  0  0  0  0  0  0  0
  190.8310  175.7450  137.8120 C   0  0  0  0  0  3  0  0  0  0  0  0
  190.3590  176.7280  138.8120 C   0  0  0  0  0  0  0  0  0  0  0  0
  187.3530  178.1900  141.5920 C   0  0  0  0  0  3  0  0  0  0  0  0
  188.7140  178.4210  139.5420 C   0  0  0  0  0  2  0  0  0  0  0  0
  187.2600  174.6540  136.4660 C   0  0  2  0  0  3  0  0  0  0  0  0
  186.3520  175.7130  135.8240 C   0  0  0  0  0  2  0  0  0  0  0  0
  187.9050  177.6120  136.5060 C   0  0  2  0  0  3  0  0  0  0  0  0
  186.3040  177.8420  134.7390 O   0  0  0  0  0  1  0  0  0  0  0  0
  187.1540  176.9260  135.3560 C   0  0  2  0  0  3  0  0  0  0  0  0
  188.4220  175.2430  137.2780 C   0  0  0  0  0  2  0  0  0  0  0  0
  187.7660  173.8050  135.4820 O   0  0  0  0  0  1  0  0  0  0  0  0
  189.1200  178.1030  136.0220 O   0  0  0  0  0  1  0  0  0  0  0  0
  188.1280  176.6800  137.7150 C   0  0  1  0  0  3  0  0  0  0  0  0
  189.1550  176.6860  147.2720 C   0  0  0  0  0  2  0  0  0  0  0  0
  189.3230  177.9700  148.0750 C   0  0  0  0  0  2  0  0  0  0  0  0
  188.0600  178.2810  148.8530 C   0  0  0  0  0  1  0  0  0  0  0  0
  1 16  1  0  0  0  0
  2 19  2  0  0  0  0
  2  6  1  0  0  0  0
  3  8  1  0  0  0  0
  4 17  2  0  0  0  0
  4  3  1  0  0  0  0
  5 13  1  0  0  0  0
  6 14  2  0  0  0  0
  7  1  2  0  0  0  0
  8 10  1  0  0  0  0
  9  6  1  0  0  0  0
 10  9  2  0  0  0  0
 11 18  2  0  0  0  0
 11 20  1  0  0  0  0
 13 12  2  0  0  0  0
 13 16  1  0  0  0  0
 14  5  1  0  0  0  0
 14  7  1  0  0  0  0
 15  5  2  0  0  0  0
 16 30  1  0  0  0  0
 17 18  1  0  0  0  0
 18 10  1  0  0  0  0
 19 15  1  0  0  0  0
 20  2  1  0  0  0  0
 21 27  1  6  0  0  0
 21 26  1  0  0  0  0
 22 21  1  0  0  0  0
 23 28  1  6  0  0  0
 23 29  1  0  0  0  0
 25 24  1  1  0  0  0
 25 22  1  0  0  0  0
 25 23  1  0  0  0  0
 26 29  1  0  0  0  0
 29 11  1  6  0  0  0
 30 31  1  0  0  0  0
 31 32  1  0  0  0  0
M  END
>  <MODEL>
3

>  <REMARK>
 VINA RESULT:      -9.5      2.589      8.774
  Name = 
  3 active torsions:
  status: ('A' for Active; 'I' for Inactive)
    1  A    between atoms: C_1  and  C_10
    2  A    between atoms: C_10  and  N_24
    3  A    between atoms: C_16  and  C_32
                            x       y       z     vdW  Elec       q    Type
                         _______ _______ _______ _____ _____    ______ ____

>  <TORSDO>
F 3

$$$$
=
 OpenBabel10272413353D

 32 36  0  0  1  0  0  0  0  0999 V2000
  190.1460  176.8310  144.1380 C   0  0  0  0  0  3  0  0  0  0  0  0
  188.9770  178.1530  139.6220 C   0  0  0  0  0  0  0  0  0  0  0  0
  193.6320  176.1580  137.3820 C   0  0  0  0  0  2  0  0  0  0  0  0
  192.6320  175.2810  136.6860 C   0  0  0  0  0  3  0  0  0  0  0  0
  188.2780  177.7680  142.3120 C   0  0  0  0  0  0  0  0  0  0  0  0
  189.9440  177.6550  140.5150 C   0  0  0  0  0  0  0  0  0  0  0  0
  190.5220  177.0050  142.8070 C   0  0  0  0  0  3  0  0  0  0  0  0
  193.1850  176.4860  138.8080 C   0  0  0  0  0  2  0  0  0  0  0  0
  191.3260  177.3340  140.0760 C   0  0  0  0  0  3  0  0  0  0  0  0
  191.7470  176.9310  138.8690 C   0  0  0  0  0  0  0  0  0  0  0  0
  189.6830  177.2140  137.4640 C   0  0  0  0  0  0  0  0  0  0  0  0
  186.7650  177.8240  144.0610 O   0  0  0  0  0  0  0  0  0  0  0  0
  187.9390  177.5750  143.6630 C   0  0  0  0  0  0  0  0  0  0  0  0
  189.5920  177.4800  141.8750 C   0  0  0  0  0  0  0  0  0  0  0  0
  187.3330  178.2440  141.3950 C   0  0  0  0  0  3  0  0  0  0  0  0
  188.8790  177.1160  144.5460 N   0  0  0  0  0  0  0  0  0  0  0  0
  191.3260  175.5180  136.8140 C   0  0  0  0  0  3  0  0  0  0  0  0
  190.8420  176.5760  137.7290 C   0  0  0  0  0  0  0  0  0  0  0  0
  187.6840  178.4400  140.0630 C   0  0  0  0  0  3  0  0  0  0  0  0
  189.3180  178.4600  138.2080 C   0  0  0  0  0  2  0  0  0  0  0  0
  187.2290  177.3670  134.4440 C   0  0  2  0  0  3  0  0  0  0  0  0
  187.0930  175.8400  134.3460 C   0  0  0  0  0  2  0  0  0  0  0  0
  187.9410  175.5060  136.7240 C   0  0  2  0  0  3  0  0  0  0  0  0
  186.6580  173.8380  135.5770 O   0  0  0  0  0  1  0  0  0  0  0  0
  186.8210  175.2160  135.7140 C   0  0  2  0  0  3  0  0  0  0  0  0
  187.9220  177.8470  135.7270 C   0  0  0  0  0  2  0  0  0  0  0  0
  185.9710  177.9620  134.3460 O   0  0  0  0  0  1  0  0  0  0  0  0
  187.3770  175.6530  137.9930 O   0  0  0  0  0  1  0  0  0  0  0  0
  188.7820  176.7430  136.3450 C   0  0  1  0  0  3  0  0  0  0  0  0
  188.5470  176.9140  145.9530 C   0  0  0  0  0  2  0  0  0  0  0  0
  189.5630  177.6000  146.8570 C   0  0  0  0  0  2  0  0  0  0  0  0
  188.9380  177.9430  148.1960 C   0  0  0  0  0  1  0  0  0  0  0  0
  1 16  1  0  0  0  0
  2 19  2  0  0  0  0
  2  6  1  0  0  0  0
  3  8  1  0  0  0  0
  4 17  2  0  0  0  0
  4  3  1  0  0  0  0
  5 13  1  0  0  0  0
  6 14  2  0  0  0  0
  7  1  2  0  0  0  0
  8 10  1  0  0  0  0
  9  6  1  0  0  0  0
 10  9  2  0  0  0  0
 11 18  2  0  0  0  0
 11 20  1  0  0  0  0
 13 12  2  0  0  0  0
 13 16  1  0  0  0  0
 14  5  1  0  0  0  0
 14  7  1  0  0  0  0
 15  5  2  0  0  0  0
 16 30  1  0  0  0  0
 17 18  1  0  0  0  0
 18 10  1  0  0  0  0
 19 15  1  0  0  0  0
 20  2  1  0  0  0  0
 21 27  1  1  0  0  0
 21 26  1  0  0  0  0
 22 21  1  0  0  0  0
 22 25  1  0  0  0  0
 23 28  1  1  0  0  0
 25 24  1  6  0  0  0
 25 23  1  0  0  0  0
 26 29  1  0  0  0  0
 29 23  1  0  0  0  0
 29 11  1  1  0  0  0
 30 31  1  0  0  0  0
 31 32  1  0  0  0  0
M  END
>  <MODEL>
4

>  <REMARK>
 VINA RESULT:      -9.2      2.787      8.836
  Name = 
  3 active torsions:
  status: ('A' for Active; 'I' for Inactive)
    1  A    between atoms: C_1  and  C_10
    2  A    between atoms: C_10  and  N_24
    3  A    between atoms: C_16  and  C_32
                            x       y       z     vdW  Elec       q    Type
                         _______ _______ _______ _____ _____    ______ ____

>  <TORSDO>
F 3

$$$$
=
 OpenBabel10272413353D

 32 36  0  0  1  0  0  0  0  0999 V2000
  180.8860  178.1560  140.5300 C   0  0  0  0  0  3  0  0  0  0  0  0
  185.6260  178.8710  141.2620 C   0  0  0  0  0  0  0  0  0  0  0  0
  185.2420  178.6210  146.7810 C   0  0  0  0  0  2  0  0  0  0  0  0
  186.1230  177.4290  146.5440 C   0  0  0  0  0  3  0  0  0  0  0  0
  183.4750  178.3230  139.5450 C   0  0  0  0  0  0  0  0  0  0  0  0
  184.3290  178.7720  141.8000 C   0  0  0  0  0  0  0  0  0  0  0  0
  181.9340  178.4230  141.4100 C   0  0  0  0  0  3  0  0  0  0  0  0
  184.2340  178.8000  145.6440 C   0  0  0  0  0  2  0  0  0  0  0  0
  184.0660  178.9560  143.2500 C   0  0  0  0  0  3  0  0  0  0  0  0
  184.8780  178.7040  144.2860 C   0  0  0  0  0  0  0  0  0  0  0  0
  187.0570  178.1980  143.1420 C   0  0  0  0  0  0  0  0  0  0  0  0
  182.5870  177.8740  137.4570 O   0  0  0  0  0  0  0  0  0  0  0  0
  182.3900  178.0520  138.6920 C   0  0  0  0  0  0  0  0  0  0  0  0
  183.2450  178.5130  140.9280 C   0  0  0  0  0  0  0  0  0  0  0  0
  184.7790  178.4090  139.0420 C   0  0  0  0  0  3  0  0  0  0  0  0
  181.1220  177.9790  139.2010 N   0  0  0  0  0  0  0  0  0  0  0  0
  186.6130  177.1870  145.3280 C   0  0  0  0  0  3  0  0  0  0  0  0
  186.2090  178.0230  144.1760 C   0  0  0  0  0  0  0  0  0  0  0  0
  185.8430  178.6880  139.8950 C   0  0  0  0  0  3  0  0  0  0  0  0
  186.7870  179.2480  142.1100 C   0  0  0  0  0  2  0  0  0  0  0  0
  190.5400  176.7820  144.1590 C   0  0  2  0  0  3  0  0  0  0  0  0
  190.7200  176.0030  142.8470 C   0  0  0  0  0  2  0  0  0  0  0  0
  188.9670  177.4080  141.6480 C   0  0  2  0  0  3  0  0  0  0  0  0
  190.6260  176.1500  140.4630 O   0  0  0  0  0  1  0  0  0  0  0  0
  190.4070  176.8760  141.6330 C   0  0  2  0  0  3  0  0  0  0  0  0
  189.3740  177.7790  144.1330 C   0  0  0  0  0  2  0  0  0  0  0  0
  191.7190  177.4560  144.4740 O   0  0  0  0  0  1  0  0  0  0  0  0
  188.9540  178.6900  141.0930 O   0  0  0  0  0  1  0  0  0  0  0  0
  188.3450  177.4110  143.0600 C   0  0  1  0  0  3  0  0  0  0  0  0
  179.9820  177.7030  138.3320 C   0  0  0  0  0  2  0  0  0  0  0  0
  179.9820  176.2490  137.8770 C   0  0  0  0  0  2  0  0  0  0  0  0
  179.9820  176.1640  136.3630 C   0  0  0  0  0  1  0  0  0  0  0  0
  1  7  2  0  0  0  0
  2  6  1  0  0  0  0
  2 20  1  0  0  0  0
  4  3  1  0  0  0  0
  5 14  1  0  0  0  0
  6  9  1  0  0  0  0
  8  3  1  0  0  0  0
  9 10  2  0  0  0  0
 10  8  1  0  0  0  0
 11 18  2  0  0  0  0
 12 13  2  0  0  0  0
 13 16  1  0  0  0  0
 13  5  1  0  0  0  0
 14  7  1  0  0  0  0
 14  6  2  0  0  0  0
 15  5  2  0  0  0  0
 15 19  1  0  0  0  0
 16  1  1  0  0  0  0
 17  4  2  0  0  0  0
 18 10  1  0  0  0  0
 18 17  1  0  0  0  0
 19  2  2  0  0  0  0
 20 11  1  0  0  0  0
 21 27  1  6  0  0  0
 22 21  1  0  0  0  0
 23 28  1  1  0  0  0
 23 29  1  0  0  0  0
 25 24  1  6  0  0  0
 25 23  1  0  0  0  0
 25 22  1  0  0  0  0
 26 21  1  0  0  0  0
 29 11  1  6  0  0  0
 29 26  1  0  0  0  0
 30 16  1  0  0  0  0
 31 30  1  0  0  0  0
 32 31  1  0  0  0  0
M  END
>  <MODEL>
5

>  <REMARK>
 VINA RESULT:      -9.1      3.848      5.761
  Name = 
  3 active torsions:
  status: ('A' for Active; 'I' for Inactive)
    1  A    between atoms: C_1  and  C_10
    2  A    between atoms: C_10  and  N_24
    3  A    between atoms: C_16  and  C_32
                            x       y       z     vdW  Elec       q    Type
                         _______ _______ _______ _____ _____    ______ ____

>  <TORSDO>
F 3

$$$$
=
 OpenBabel10272413353D

 32 36  0  0  1  0  0  0  0  0999 V2000
  186.3630  178.3360  144.2860 C   0  0  0  0  0  3  0  0  0  0  0  0
  184.1530  178.7840  139.9940 C   0  0  0  0  0  0  0  0  0  0  0  0
  188.6590  177.4570  137.0610 C   0  0  0  0  0  2  0  0  0  0  0  0
  187.7680  176.3160  136.6670 C   0  0  0  0  0  3  0  0  0  0  0  0
  184.0430  178.6340  142.7940 C   0  0  0  0  0  0  0  0  0  0  0  0
  185.3480  178.6090  140.7180 C   0  0  0  0  0  0  0  0  0  0  0  0
  186.4510  178.3990  142.8970 C   0  0  0  0  0  3  0  0  0  0  0  0
  188.4110  177.8800  138.5100 C   0  0  0  0  0  2  0  0  0  0  0  0
  186.6670  178.5100  140.0410 C   0  0  0  0  0  3  0  0  0  0  0  0
  186.9450  178.0390  138.8170 C   0  0  0  0  0  0  0  0  0  0  0  0
  184.6540  177.7200  137.8370 C   0  0  0  0  0  0  0  0  0  0  0  0
  182.8890  178.6270  144.7990 O   0  0  0  0  0  0  0  0  0  0  0  0
  183.9990  178.5620  144.1980 C   0  0  0  0  0  0  0  0  0  0  0  0
  185.2900  178.5530  142.1310 C   0  0  0  0  0  0  0  0  0  0  0  0
  182.8700  178.7880  142.0460 C   0  0  0  0  0  3  0  0  0  0  0  0
  185.1580  178.4190  144.9130 N   0  0  0  0  0  0  0  0  0  0  0  0
  186.4850  176.3070  137.0320 C   0  0  0  0  0  3  0  0  0  0  0  0
  185.9520  177.3630  137.9210 C   0  0  0  0  0  0  0  0  0  0  0  0
  182.9280  178.8680  140.6580 C   0  0  0  0  0  3  0  0  0  0  0  0
  184.1630  178.9590  138.5180 C   0  0  0  0  0  2  0  0  0  0  0  0
  181.6780  176.9720  135.4380 C   0  0  2  0  0  3  0  0  0  0  0  0
  181.9180  175.4550  135.4470 C   0  0  0  0  0  2  0  0  0  0  0  0
  183.2910  175.5790  137.5880 C   0  0  2  0  0  3  0  0  0  0  0  0
  182.2690  173.5450  136.8400 O   0  0  0  0  0  1  0  0  0  0  0  0
  182.1000  174.9280  136.8700 C   0  0  2  0  0  3  0  0  0  0  0  0
  182.4720  177.7330  136.5090 C   0  0  0  0  0  2  0  0  0  0  0  0
  180.3180  177.2370  135.5950 O   0  0  0  0  0  1  0  0  0  0  0  0
  182.9800  175.7170  138.9430 O   0  0  0  0  0  1  0  0  0  0  0  0
  183.6940  176.9350  136.9720 C   0  0  1  0  0  3  0  0  0  0  0  0
  185.1330  178.3470  146.3700 C   0  0  0  0  0  2  0  0  0  0  0  0
  186.3520  179.0330  146.9720 C   0  0  0  0  0  2  0  0  0  0  0  0
  187.1960  178.0380  147.7450 C   0  0  0  0  0  1  0  0  0  0  0  0
  1 16  1  0  0  0  0
  2 19  2  0  0  0  0
  2  6  1  0  0  0  0
  3  8  1  0  0  0  0
  4 17  2  0  0  0  0
  4  3  1  0  0  0  0
  5 13  1  0  0  0  0
  6 14  2  0  0  0  0
  7  1  2  0  0  0  0
  8 10  1  0  0  0  0
  9  6  1  0  0  0  0
 10  9  2  0  0  0  0
 11 18  2  0  0  0  0
 11 20  1  0  0  0  0
 13 12  2  0  0  0  0
 13 16  1  0  0  0  0
 14  5  1  0  0  0  0
 14  7  1  0  0  0  0
 15  5  2  0  0  0  0
 16 30  1  0  0  0  0
 17 18  1  0  0  0  0
 18 10  1  0  0  0  0
 19 15  1  0  0  0  0
 20  2  1  0  0  0  0
 21 22  1  0  0  0  0
 21 27  1  1  0  0  0
 21 26  1  0  0  0  0
 22 25  1  0  0  0  0
 23 28  1  1  0  0  0
 25 24  1  6  0  0  0
 25 23  1  0  0  0  0
 26 29  1  0  0  0  0
 29 23  1  0  0  0  0
 29 11  1  1  0  0  0
 30 31  1  0  0  0  0
 31 32  1  0  0  0  0
M  END
>  <MODEL>
6

>  <REMARK>
 VINA RESULT:      -8.4      4.763      9.629
  Name = 
  3 active torsions:
  status: ('A' for Active; 'I' for Inactive)
    1  A    between atoms: C_1  and  C_10
    2  A    between atoms: C_10  and  N_24
    3  A    between atoms: C_16  and  C_32
                            x       y       z     vdW  Elec       q    Type
                         _______ _______ _______ _____ _____    ______ ____

>  <TORSDO>
F 3

$$$$
=
 OpenBabel10272413353D

 32 36  0  0  1  0  0  0  0  0999 V2000
  184.3990  177.1720  136.7640 C   0  0  0  0  0  3  0  0  0  0  0  0
  187.8050  178.5300  139.9370 C   0  0  0  0  0  0  0  0  0  0  0  0
  184.2470  179.1340  144.1380 C   0  0  0  0  0  2  0  0  0  0  0  0
  185.0960  178.0270  144.6950 C   0  0  0  0  0  3  0  0  0  0  0  0
  187.0730  177.4700  137.4430 C   0  0  0  0  0  0  0  0  0  0  0  0
  186.4390  178.3720  139.6350 C   0  0  0  0  0  0  0  0  0  0  0  0
  184.7300  177.6950  138.0130 C   0  0  0  0  0  3  0  0  0  0  0  0
  184.1010  179.0110  142.6210 C   0  0  0  0  0  2  0  0  0  0  0  0
  185.3740  178.7580  140.5960 C   0  0  0  0  0  3  0  0  0  0  0  0
  185.4210  178.7700  141.9350 C   0  0  0  0  0  0  0  0  0  0  0  0
  187.8540  178.3370  142.3850 C   0  0  0  0  0  0  0  0  0  0  0  0
  187.5800  176.5920  135.3650 O   0  0  0  0  0  0  0  0  0  0  0  0
  186.6950  176.9440  136.1950 C   0  0  0  0  0  0  0  0  0  0  0  0
  186.0740  177.8540  138.3690 C   0  0  0  0  0  0  0  0  0  0  0  0
  188.4230  177.6220  137.7810 C   0  0  0  0  0  3  0  0  0  0  0  0
  185.3700  176.8110  135.8810 N   0  0  0  0  0  0  0  0  0  0  0  0
  186.2070  177.6490  144.0620 C   0  0  0  0  0  3  0  0  0  0  0  0
  186.5590  178.2360  142.7500 C   0  0  0  0  0  0  0  0  0  0  0  0
  188.7830  178.1540  139.0150 C   0  0  0  0  0  3  0  0  0  0  0  0
  188.2460  179.1680  141.2040 C   0  0  0  0  0  2  0  0  0  0  0  0
  190.9860  178.0240  144.6800 C   0  0  2  0  0  3  0  0  0  0  0  0
  190.9540  176.4890  144.6880 C   0  0  0  0  0  2  0  0  0  0  0  0
  189.5020  176.4030  142.5970 C   0  0  2  0  0  3  0  0  0  0  0  0
  190.8170  174.5340  143.3190 O   0  0  0  0  0  1  0  0  0  0  0  0
  190.7950  175.9270  143.2760 C   0  0  2  0  0  3  0  0  0  0  0  0
  190.0590  178.6590  143.6340 C   0  0  0  0  0  2  0  0  0  0  0  0
  192.2910  178.4690  144.4720 O   0  0  0  0  0  1  0  0  0  0  0  0
  189.7450  176.5680  141.2310 O   0  0  0  0  0  1  0  0  0  0  0  0
  188.9420  177.6980  143.2200 C   0  0  1  0  0  3  0  0  0  0  0  0
  184.9580  176.2700  134.5890 C   0  0  0  0  0  2  0  0  0  0  0  0
  184.1280  175.0050  134.7660 C   0  0  0  0  0  2  0  0  0  0  0  0
  185.0150  173.8340  135.1440 C   0  0  0  0  0  1  0  0  0  0  0  0
  1  7  2  0  0  0  0
  2 20  1  0  0  0  0
  3  4  1  0  0  0  0
  5 15  2  0  0  0  0
  5 14  1  0  0  0  0
  6  2  1  0  0  0  0
  6  9  1  0  0  0  0
  7 14  1  0  0  0  0
  8  3  1  0  0  0  0
  9 10  2  0  0  0  0
 10  8  1  0  0  0  0
 10 18  1  0  0  0  0
 11 18  2  0  0  0  0
 12 13  2  0  0  0  0
 13  5  1  0  0  0  0
 14  6  2  0  0  0  0
 15 19  1  0  0  0  0
 16 13  1  0  0  0  0
 16  1  1  0  0  0  0
 17  4  2  0  0  0  0
 18 17  1  0  0  0  0
 19  2  2  0  0  0  0
 20 11  1  0  0  0  0
 21 27  1  6  0  0  0
 21 22  1  0  0  0  0
 23 28  1  6  0  0  0
 23 29  1  0  0  0  0
 23 25  1  0  0  0  0
 25 24  1  1  0  0  0
 25 22  1  0  0  0  0
 26 21  1  0  0  0  0
 29 11  1  6  0  0  0
 29 26  1  0  0  0  0
 30 31  1  0  0  0  0
 30 16  1  0  0  0  0
 31 32  1  0  0  0  0
M  END
>  <MODEL>
7

>  <REMARK>
 VINA RESULT:      -8.3      2.438      3.225
  Name = 
  3 active torsions:
  status: ('A' for Active; 'I' for Inactive)
    1  A    between atoms: C_1  and  C_10
    2  A    between atoms: C_10  and  N_24
    3  A    between atoms: C_16  and  C_32
                            x       y       z     vdW  Elec       q    Type
                         _______ _______ _______ _____ _____    ______ ____

>  <TORSDO>
F 3

$$$$
=
 OpenBabel10272413353D

 32 36  0  0  1  0  0  0  0  0999 V2000
  183.4880  178.7620  142.7640 C   0  0  0  0  0  3  0  0  0  0  0  0
  187.3000  178.4670  139.7820 C   0  0  0  0  0  0  0  0  0  0  0  0
  190.9600  177.6600  143.8580 C   0  0  0  0  0  2  0  0  0  0  0  0
  191.1160  176.3560  143.1300 C   0  0  0  0  0  3  0  0  0  0  0  0
  184.5250  178.5420  140.2000 C   0  0  0  0  0  0  0  0  0  0  0  0
  186.8080  178.5560  141.0980 C   0  0  0  0  0  0  0  0  0  0  0  0
  184.8700  178.7200  142.5900 C   0  0  0  0  0  3  0  0  0  0  0  0
  189.5150  178.1580  143.8000 C   0  0  0  0  0  2  0  0  0  0  0  0
  187.7170  178.6190  142.2720 C   0  0  0  0  0  3  0  0  0  0  0  0
  188.9440  178.0970  142.4080 C   0  0  0  0  0  0  0  0  0  0  0  0
  189.4520  177.3200  140.0730 C   0  0  0  0  0  0  0  0  0  0  0  0
  182.3410  178.5160  139.4410 O   0  0  0  0  0  0  0  0  0  0  0  0
  183.1370  178.5850  140.4200 C   0  0  0  0  0  0  0  0  0  0  0  0
  185.4090  178.6120  141.3030 C   0  0  0  0  0  0  0  0  0  0  0  0
  185.0440  178.4340  138.9040 C   0  0  0  0  0  3  0  0  0  0  0  0
  182.6490  178.6980  141.6940 N   0  0  0  0  0  0  0  0  0  0  0  0
  190.5140  176.1670  141.9560 C   0  0  0  0  0  3  0  0  0  0  0  0
  189.5970  177.1920  141.4090 C   0  0  0  0  0  0  0  0  0  0  0  0
  186.4210  178.4040  138.6990 C   0  0  0  0  0  3  0  0  0  0  0  0
  188.7570  178.5130  139.4980 C   0  0  0  0  0  2  0  0  0  0  0  0
  192.1910  175.3810  138.0940 C   0  0  2  0  0  3  0  0  0  0  0  0
  191.1750  174.5010  137.3510 C   0  0  0  0  0  2  0  0  0  0  0  0
  189.2640  176.1130  137.8350 C   0  0  2  0  0  3  0  0  0  0  0  0
  189.1650  174.5100  136.0560 O   0  0  0  0  0  1  0  0  0  0  0  0
  190.0390  175.3370  136.7610 C   0  0  2  0  0  3  0  0  0  0  0  0
  191.5580  176.5640  138.8400 C   0  0  0  0  0  2  0  0  0  0  0  0
  193.1490  175.8570  137.2000 O   0  0  0  0  0  1  0  0  0  0  0  0
  188.8600  177.3390  137.3010 O   0  0  0  0  0  1  0  0  0  0  0  0
  190.0760  176.3140  139.1310 C   0  0  1  0  0  3  0  0  0  0  0  0
  181.2120  178.7480  141.9420 C   0  0  0  0  0  2  0  0  0  0  0  0
  180.9150  179.3290  143.3190 C   0  0  0  0  0  2  0  0  0  0  0  0
  179.9910  178.4130  144.0960 C   0  0  0  0  0  1  0  0  0  0  0  0
  2  6  1  0  0  0  0
  4  3  1  0  0  0  0
  5 13  1  0  0  0  0
  5 14  1  0  0  0  0
  6 14  2  0  0  0  0
  6  9  1  0  0  0  0
  7  1  2  0  0  0  0
  8  3  1  0  0  0  0
  9 10  2  0  0  0  0
 10  8  1  0  0  0  0
 11 18  2  0  0  0  0
 12 13  2  0  0  0  0
 13 16  1  0  0  0  0
 14  7  1  0  0  0  0
 15  5  2  0  0  0  0
 16 30  1  0  0  0  0
 16  1  1  0  0  0  0
 17  4  2  0  0  0  0
 18 17  1  0  0  0  0
 18 10  1  0  0  0  0
 19 15  1  0  0  0  0
 19  2  2  0  0  0  0
 20  2  1  0  0  0  0
 20 11  1  0  0  0  0
 21 27  1  6  0  0  0
 21 26  1  0  0  0  0
 22 21  1  0  0  0  0
 23 28  1  6  0  0  0
 23 29  1  0  0  0  0
 25 24  1  1  0  0  0
 25 22  1  0  0  0  0
 25 23  1  0  0  0  0
 26 29  1  0  0  0  0
 29 11  1  6  0  0  0
 30 31  1  0  0  0  0
 31 32  1  0  0  0  0
M  END
>  <MODEL>
8

>  <REMARK>
 VINA RESULT:      -8.0      3.730      7.640
  Name = 
  3 active torsions:
  status: ('A' for Active; 'I' for Inactive)
    1  A    between atoms: C_1  and  C_10
    2  A    between atoms: C_10  and  N_24
    3  A    between atoms: C_16  and  C_32
                            x       y       z     vdW  Elec       q    Type
                         _______ _______ _______ _____ _____    ______ ____

>  <TORSDO>
F 3

$$$$
=
 OpenBabel10272413353D

 32 36  0  0  1  0  0  0  0  0999 V2000
  189.4000  177.5430  144.1180 C   0  0  0  0  0  3  0  0  0  0  0  0
  185.3190  178.7070  141.7720 C   0  0  0  0  0  0  0  0  0  0  0  0
  187.5870  178.2590  136.7390 C   0  0  0  0  0  2  0  0  0  0  0  0
  186.5590  177.1690  136.6410 C   0  0  0  0  0  3  0  0  0  0  0  0
  186.6630  177.9970  144.1310 C   0  0  0  0  0  0  0  0  0  0  0  0
  186.7050  178.4630  141.7230 C   0  0  0  0  0  0  0  0  0  0  0  0
  188.7610  177.8880  142.9280 C   0  0  0  0  0  3  0  0  0  0  0  0
  188.1450  178.3690  138.1590 C   0  0  0  0  0  2  0  0  0  0  0  0
  187.4780  178.5780  140.4600 C   0  0  0  0  0  3  0  0  0  0  0  0
  187.0590  178.3770  139.2020 C   0  0  0  0  0  0  0  0  0  0  0  0
  184.5770  178.1260  139.5030 C   0  0  0  0  0  0  0  0  0  0  0  0
  186.7110  177.5220  146.3940 O   0  0  0  0  0  0  0  0  0  0  0  0
  187.3460  177.6440  145.3090 C   0  0  0  0  0  0  0  0  0  0  0  0
  187.3820  178.1220  142.9190 C   0  0  0  0  0  0  0  0  0  0  0  0
  185.2820  178.2270  144.1430 C   0  0  0  0  0  3  0  0  0  0  0  0
  188.6970  177.4290  145.2780 N   0  0  0  0  0  0  0  0  0  0  0  0
  185.6510  177.0120  137.6050 C   0  0  0  0  0  3  0  0  0  0  0  0
  185.7110  177.8360  138.8320 C   0  0  0  0  0  0  0  0  0  0  0  0
  184.6190  178.5860  142.9730 C   0  0  0  0  0  3  0  0  0  0  0  0
  184.5760  179.1730  140.5730 C   0  0  0  0  0  2  0  0  0  0  0  0
  182.0780  175.4080  138.2640 C   0  0  2  0  0  3  0  0  0  0  0  0
  180.8580  176.3350  138.3700 C   0  0  0  0  0  2  0  0  0  0  0  0
  182.3140  178.4250  138.3680 C   0  0  2  0  0  3  0  0  0  0  0  0
  179.9880  178.4860  137.7950 O   0  0  0  0  0  1  0  0  0  0  0  0
  181.1310  177.6910  137.7200 C   0  0  2  0  0  3  0  0  0  0  0  0
  183.4230  176.1350  138.3950 C   0  0  0  0  0  2  0  0  0  0  0  0
  182.0420  174.7150  137.0540 O   0  0  0  0  0  1  0  0  0  0  0  0
  182.9950  179.1410  137.3810 O   0  0  0  0  0  1  0  0  0  0  0  0
  183.2680  177.4740  139.1200 C   0  0  1  0  0  3  0  0  0  0  0  0
  189.4240  177.0660  146.4900 C   0  0  0  0  0  2  0  0  0  0  0  0
  190.9240  177.0040  146.2290 C   0  0  0  0  0  2  0  0  0  0  0  0
  191.5860  176.0060  147.1590 C   0  0  0  0  0  1  0  0  0  0  0  0
  1 16  1  0  0  0  0
  2 19  1  0  0  0  0
  3  8  1  0  0  0  0
  4  3  1  0  0  0  0
  4 17  2  0  0  0  0
  5 15  1  0  0  0  0
  5 13  1  0  0  0  0
  6  2  2  0  0  0  0
  6 14  1  0  0  0  0
  7  1  2  0  0  0  0
  8 10  1  0  0  0  0
  9  6  1  0  0  0  0
 10  9  2  0  0  0  0
 11 20  1  0  0  0  0
 13 12  2  0  0  0  0
 14  7  1  0  0  0  0
 14  5  2  0  0  0  0
 16 13  1  0  0  0  0
 16 30  1  0  0  0  0
 17 18  1  0  0  0  0
 18 10  1  0  0  0  0
 18 11  2  0  0  0  0
 19 15  2  0  0  0  0
 20  2  1  0  0  0  0
 21 27  1  6  0  0  0
 21 22  1  0  0  0  0
 21 26  1  0  0  0  0
 23 28  1  6  0  0  0
 23 29  1  0  0  0  0
 25 24  1  1  0  0  0
 25 23  1  0  0  0  0
 25 22  1  0  0  0  0
 26 29  1  0  0  0  0
 29 11  1  6  0  0  0
 31 30  1  0  0  0  0
 31 32  1  0  0  0  0
M  END
>  <MODEL>
9

>  <REMARK>
 VINA RESULT:      -8.0      4.414      8.810
  Name = 
  3 active torsions:
  status: ('A' for Active; 'I' for Inactive)
    1  A    between atoms: C_1  and  C_10
    2  A    between atoms: C_10  and  N_24
    3  A    between atoms: C_16  and  C_32
                            x       y       z     vdW  Elec       q    Type
                         _______ _______ _______ _____ _____    ______ ____

>  <TORSDO>
F 3

$$$$
