=
 OpenBabel10272401133D

 27 31  0  0  1  0  0  0  0  0999 V2000
  188.5320  177.4000  143.5590 N   0  0  0  0  0  0  0  0  0  0  0  0
  188.7920  177.5380  142.1430 C   0  0  0  0  0  0  0  0  0  0  0  0
  189.7170  177.7630  138.1460 N   0  0  0  0  0  0  0  0  0  0  0  0
  191.2270  176.2090  136.9080 C   0  0  0  0  0  1  0  0  0  0  0  0
  188.2110  178.5910  141.3910 C   0  0  0  0  0  3  0  0  0  0  0  0
  190.6760  176.0600  139.3370 N   0  0  0  0  0  2  0  0  0  0  0  0
  189.8960  176.8040  140.1350 C   0  0  0  0  0  0  0  0  0  0  0  0
  190.5360  176.6800  138.1360 C   0  0  0  0  0  0  0  0  0  0  0  0
  189.3270  177.8160  139.4270 C   0  0  0  0  0  0  0  0  0  0  0  0
  189.6580  176.6280  141.4940 C   0  0  0  0  0  3  0  0  0  0  0  0
  188.4720  178.7400  140.0170 C   0  0  0  0  0  3  0  0  0  0  0  0
  189.6690  176.9680  145.6670 N   0  0  0  0  0  0  0  0  0  0  0  0
  191.7870  177.9540  144.9440 C   0  0  1  0  0  3  0  0  0  0  0  0
  189.2020  177.5890  146.9040 C   0  0  0  0  0  1  0  0  0  0  0  0
  191.7640  177.6890  143.4490 C   0  0  0  0  0  2  0  0  0  0  0  0
  189.3910  177.9430  144.6170 C   0  0  1  0  0  3  0  0  0  0  0  0
  191.7700  176.5130  147.0200 C   0  0  0  0  0  1  0  0  0  0  0  0
  190.8110  179.9120  144.0000 F   0  0  0  0  0  0  0  0  0  0  0  0
  190.6900  178.5390  144.0910 C   0  0  1  0  0  0  0  0  0  0  0  0
  191.1330  176.7910  145.6600 C   0  0  1  0  0  3  0  0  0  0  0  0
  187.3610  176.6520  144.0060 C   0  0  0  0  0  2  0  0  0  0  0  0
  184.3160  179.2730  145.4000 N   0  0  0  0  0  0  0  0  0  0  0  0
  186.3060  177.5870  144.4940 C   0  0  0  0  0  0  0  0  0  0  0  0
  185.5200  178.2960  143.5820 C   0  0  0  0  0  3  0  0  0  0  0  0
  184.5200  179.1450  144.0610 C   0  0  0  0  0  3  0  0  0  0  0  0
  185.0670  178.5870  146.3030 C   0  0  0  0  0  3  0  0  0  0  0  0
  186.0770  177.7280  145.8660 C   0  0  0  0  0  3  0  0  0  0  0  0
  1 21  1  0  0  0  0
  2  1  1  0  0  0  0
  3  9  1  0  0  0  0
  4  8  1  0  0  0  0
  5  2  2  0  0  0  0
  6  7  1  0  0  0  0
  7 10  2  0  0  0  0
  8  3  2  0  0  0  0
  8  6  1  0  0  0  0
  9 11  2  0  0  0  0
  9  7  1  0  0  0  0
 10  2  1  0  0  0  0
 11  5  1  0  0  0  0
 12 14  1  0  0  0  0
 13 15  1  6  0  0  0
 13 20  1  0  0  0  0
 15 19  1  0  0  0  0
 16  1  1  6  0  0  0
 16 12  1  0  0  0  0
 19 18  1  6  0  0  0
 19 16  1  0  0  0  0
 19 13  1  0  0  0  0
 20 12  1  0  0  0  0
 20 17  1  1  0  0  0
 21 23  1  0  0  0  0
 22 26  1  0  0  0  0
 23 27  1  0  0  0  0
 24 25  1  0  0  0  0
 24 23  2  0  0  0  0
 25 22  2  0  0  0  0
 27 26  2  0  0  0  0
M  END
>  <MODEL>
1

>  <REMARK>
 VINA RESULT:      -9.4      0.000      0.000
  Name = 
  4 active torsions:
  status: ('A' for Active; 'I' for Inactive)
    1  A    between atoms: N_1  and  C_2
    2  A    between atoms: N_1  and  C_15
    3  A    between atoms: N_1  and  C_18
    4  A    between atoms: C_9  and  C_15
                            x       y       z     vdW  Elec       q    Type
                         _______ _______ _______ _____ _____    ______ ____

>  <TORSDO>
F 4

$$$$
=
 OpenBabel10272401133D

 27 31  0  0  1  0  0  0  0  0999 V2000
  188.2340  177.3380  144.6490 N   0  0  0  0  0  0  0  0  0  0  0  0
  186.8810  177.8200  144.8190 C   0  0  0  0  0  0  0  0  0  0  0  0
  183.0140  179.1890  145.0520 N   0  0  0  0  0  0  0  0  0  0  0  0
  181.3850  179.2900  143.1630 C   0  0  0  0  0  1  0  0  0  0  0  0
  186.4210  178.2830  146.0780 C   0  0  0  0  0  3  0  0  0  0  0  0
  183.7320  178.4560  143.0060 N   0  0  0  0  0  2  0  0  0  0  0  0
  184.7130  178.3390  143.9120 C   0  0  0  0  0  0  0  0  0  0  0  0
  182.7170  178.9760  143.7430 C   0  0  0  0  0  0  0  0  0  0  0  0
  184.2860  178.7750  145.1270 C   0  0  0  0  0  0  0  0  0  0  0  0
  186.0020  177.8550  143.7110 C   0  0  0  0  0  3  0  0  0  0  0  0
  185.1110  178.7670  146.2470 C   0  0  0  0  0  3  0  0  0  0  0  0
  189.6660  176.9250  146.5730 N   0  0  0  0  0  0  0  0  0  0  0  0
  191.7470  177.3030  145.3430 C   0  0  1  0  0  3  0  0  0  0  0  0
  189.5950  177.7860  147.7510 C   0  0  0  0  0  1  0  0  0  0  0  0
  191.3680  176.8650  143.9400 C   0  0  0  0  0  2  0  0  0  0  0  0
  189.3820  177.7990  145.4380 C   0  0  1  0  0  3  0  0  0  0  0  0
  191.8640  176.1740  147.6030 C   0  0  0  0  0  1  0  0  0  0  0  0
  191.0120  179.2980  144.2690 F   0  0  0  0  0  0  0  0  0  0  0  0
  190.6390  178.0120  144.6060 C   0  0  1  0  0  0  0  0  0  0  0  0
  191.0320  176.4180  146.3450 C   0  0  1  0  0  3  0  0  0  0  0  0
  188.5230  176.3500  143.6140 C   0  0  0  0  0  2  0  0  0  0  0  0
  189.0860  178.2430  139.8480 N   0  0  0  0  0  0  0  0  0  0  0  0
  188.7360  177.0250  142.3010 C   0  0  0  0  0  0  0  0  0  0  0  0
  189.6400  176.4930  141.3780 C   0  0  0  0  0  3  0  0  0  0  0  0
  189.8040  177.1260  140.1440 C   0  0  0  0  0  3  0  0  0  0  0  0
  188.1970  178.7710  140.7310 C   0  0  0  0  0  3  0  0  0  0  0  0
  188.0040  178.1690  141.9760 C   0  0  0  0  0  3  0  0  0  0  0  0
  1  2  1  0  0  0  0
  2  5  1  0  0  0  0
  3  9  1  0  0  0  0
  4  8  1  0  0  0  0
  5 11  2  0  0  0  0
  6  8  1  0  0  0  0
  6  7  1  0  0  0  0
  7  9  2  0  0  0  0
  8  3  2  0  0  0  0
  9 11  1  0  0  0  0
 10  7  1  0  0  0  0
 10  2  2  0  0  0  0
 12 14  1  0  0  0  0
 13 15  1  6  0  0  0
 13 20  1  0  0  0  0
 15 19  1  0  0  0  0
 16  1  1  6  0  0  0
 16 12  1  0  0  0  0
 19 18  1  6  0  0  0
 19 13  1  0  0  0  0
 19 16  1  0  0  0  0
 20 12  1  0  0  0  0
 20 17  1  1  0  0  0
 21  1  1  0  0  0  0
 22 25  2  0  0  0  0
 22 26  1  0  0  0  0
 23 21  1  0  0  0  0
 24 23  2  0  0  0  0
 25 24  1  0  0  0  0
 26 27  2  0  0  0  0
 27 23  1  0  0  0  0
M  END
>  <MODEL>
2

>  <REMARK>
 VINA RESULT:      -7.8      1.290      5.514
  Name = 
  4 active torsions:
  status: ('A' for Active; 'I' for Inactive)
    1  A    between atoms: N_1  and  C_2
    2  A    between atoms: N_1  and  C_15
    3  A    between atoms: N_1  and  C_18
    4  A    between atoms: C_9  and  C_15
                            x       y       z     vdW  Elec       q    Type
                         _______ _______ _______ _____ _____    ______ ____

>  <TORSDO>
F 4

$$$$
=
 OpenBabel10272401133D

 27 31  0  0  1  0  0  0  0  0999 V2000
  187.6600  177.7520  143.8590 N   0  0  0  0  0  0  0  0  0  0  0  0
  186.2650  178.1240  143.7650 C   0  0  0  0  0  0  0  0  0  0  0  0
  182.3220  179.1550  143.2500 N   0  0  0  0  0  0  0  0  0  0  0  0
  181.0160  178.9190  141.1360 C   0  0  0  0  0  1  0  0  0  0  0  0
  185.5760  178.6670  144.8790 C   0  0  0  0  0  3  0  0  0  0  0  0
  183.4120  178.2880  141.4330 N   0  0  0  0  0  2  0  0  0  0  0  0
  184.2400  178.3530  142.4860 C   0  0  0  0  0  0  0  0  0  0  0  0
  182.2560  178.7860  141.9440 C   0  0  0  0  0  0  0  0  0  0  0  0
  183.5920  178.8670  143.5650 C   0  0  0  0  0  0  0  0  0  0  0  0
  185.5760  177.9690  142.5400 C   0  0  0  0  0  3  0  0  0  0  0  0
  184.2240  179.0450  144.7900 C   0  0  0  0  0  3  0  0  0  0  0  0
  190.0620  177.9240  143.5050 N   0  0  0  0  0  0  0  0  0  0  0  0
  189.9060  177.7560  141.0700 C   0  0  1  0  0  3  0  0  0  0  0  0
  190.7860  179.1300  143.8970 C   0  0  0  0  0  1  0  0  0  0  0  0
  188.6660  176.8980  140.8920 C   0  0  0  0  0  2  0  0  0  0  0  0
  188.7390  178.3850  143.0920 C   0  0  1  0  0  3  0  0  0  0  0  0
  192.1630  177.4390  142.1630 C   0  0  0  0  0  1  0  0  0  0  0  0
  188.1200  179.3180  140.8530 F   0  0  0  0  0  0  0  0  0  0  0  0
  188.5740  178.2390  141.5860 C   0  0  1  0  0  0  0  0  0  0  0  0
  190.6490  177.2960  142.3070 C   0  0  1  0  0  3  0  0  0  0  0  0
  188.0560  176.6600  144.7420 C   0  0  0  0  0  2  0  0  0  0  0  0
  189.0580  178.1160  148.6100 N   0  0  0  0  0  0  0  0  0  0  0  0
  188.4110  177.1900  146.0910 C   0  0  0  0  0  0  0  0  0  0  0  0
  187.4250  177.7570  146.9040 C   0  0  0  0  0  3  0  0  0  0  0  0
  187.7740  178.2220  148.1740 C   0  0  0  0  0  3  0  0  0  0  0  0
  190.0300  177.5620  147.8360 C   0  0  0  0  0  3  0  0  0  0  0  0
  189.7220  177.0850  146.5610 C   0  0  0  0  0  3  0  0  0  0  0  0
  1 21  1  0  0  0  0
  2  1  1  0  0  0  0
  2  5  1  0  0  0  0
  3  9  1  0  0  0  0
  4  8  1  0  0  0  0
  6  8  1  0  0  0  0
  6  7  1  0  0  0  0
  7 10  1  0  0  0  0
  7  9  2  0  0  0  0
  8  3  2  0  0  0  0
  9 11  1  0  0  0  0
 10  2  2  0  0  0  0
 11  5  2  0  0  0  0
 12 14  1  0  0  0  0
 13 15  1  6  0  0  0
 13 19  1  0  0  0  0
 13 20  1  0  0  0  0
 15 19  1  0  0  0  0
 16 12  1  0  0  0  0
 16  1  1  1  0  0  0
 19 18  1  6  0  0  0
 19 16  1  0  0  0  0
 20 17  1  6  0  0  0
 20 12  1  0  0  0  0
 21 23  1  0  0  0  0
 23 27  2  0  0  0  0
 23 24  1  0  0  0  0
 24 25  2  0  0  0  0
 25 22  1  0  0  0  0
 26 22  2  0  0  0  0
 27 26  1  0  0  0  0
M  END
>  <MODEL>
3

>  <REMARK>
 VINA RESULT:      -7.5      2.350      5.420
  Name = 
  4 active torsions:
  status: ('A' for Active; 'I' for Inactive)
    1  A    between atoms: N_1  and  C_2
    2  A    between atoms: N_1  and  C_15
    3  A    between atoms: N_1  and  C_18
    4  A    between atoms: C_9  and  C_15
                            x       y       z     vdW  Elec       q    Type
                         _______ _______ _______ _____ _____    ______ ____

>  <TORSDO>
F 4

$$$$
=
 OpenBabel10272401133D

 27 31  0  0  1  0  0  0  0  0999 V2000
  187.6420  177.5460  143.9170 N   0  0  0  0  0  0  0  0  0  0  0  0
  188.3270  177.4770  142.6460 C   0  0  0  0  0  0  0  0  0  0  0  0
  190.0840  177.4070  138.9320 N   0  0  0  0  0  0  0  0  0  0  0  0
  189.3570  178.7360  136.9490 C   0  0  0  0  0  1  0  0  0  0  0  0
  189.4450  176.6220  142.4620 C   0  0  0  0  0  3  0  0  0  0  0  0
  188.2790  178.7880  139.1990 N   0  0  0  0  0  2  0  0  0  0  0  0
  188.5460  178.1460  140.3450 C   0  0  0  0  0  0  0  0  0  0  0  0
  189.2400  178.3090  138.3670 C   0  0  0  0  0  0  0  0  0  0  0  0
  189.6190  177.3260  140.1860 C   0  0  0  0  0  0  0  0  0  0  0  0
  187.8690  178.2520  141.5560 C   0  0  0  0  0  3  0  0  0  0  0  0
  190.1060  176.5390  141.2240 C   0  0  0  0  0  3  0  0  0  0  0  0
  187.4780  177.8340  146.3290 N   0  0  0  0  0  0  0  0  0  0  0  0
  189.8910  177.6790  146.7010 C   0  0  1  0  0  3  0  0  0  0  0  0
  186.9430  179.0700  146.8950 C   0  0  0  0  0  1  0  0  0  0  0  0
  190.3260  176.7650  145.5700 C   0  0  0  0  0  2  0  0  0  0  0  0
  188.1630  178.2350  145.1030 C   0  0  1  0  0  3  0  0  0  0  0  0
  188.3430  177.4600  148.6880 C   0  0  0  0  0  1  0  0  0  0  0  0
  190.4850  179.1560  144.9290 F   0  0  0  0  0  0  0  0  0  0  0  0
  189.6700  178.0950  145.2690 C   0  0  1  0  0  0  0  0  0  0  0  0
  188.5230  177.2450  147.1860 C   0  0  1  0  0  3  0  0  0  0  0  0
  186.3570  176.8730  144.0800 C   0  0  0  0  0  2  0  0  0  0  0  0
  183.1340  179.4950  143.1710 N   0  0  0  0  0  0  0  0  0  0  0  0
  185.2400  177.8090  143.7590 C   0  0  0  0  0  0  0  0  0  0  0  0
  184.8770  178.0380  142.4300 C   0  0  0  0  0  3  0  0  0  0  0  0
  183.8100  178.8970  142.1530 C   0  0  0  0  0  3  0  0  0  0  0  0
  183.4690  179.2790  144.4720 C   0  0  0  0  0  3  0  0  0  0  0  0
  184.5290  178.4280  144.7900 C   0  0  0  0  0  3  0  0  0  0  0  0
  1 21  1  0  0  0  0
  2  1  1  0  0  0  0
  3  9  1  0  0  0  0
  4  8  1  0  0  0  0
  5  2  1  0  0  0  0
  6  7  1  0  0  0  0
  7 10  1  0  0  0  0
  8  3  2  0  0  0  0
  8  6  1  0  0  0  0
  9  7  2  0  0  0  0
  9 11  1  0  0  0  0
 10  2  2  0  0  0  0
 11  5  2  0  0  0  0
 12 14  1  0  0  0  0
 12 20  1  0  0  0  0
 13 15  1  6  0  0  0
 13 20  1  0  0  0  0
 16  1  1  6  0  0  0
 16 19  1  0  0  0  0
 16 12  1  0  0  0  0
 19 18  1  6  0  0  0
 19 15  1  0  0  0  0
 19 13  1  0  0  0  0
 20 17  1  1  0  0  0
 22 26  1  0  0  0  0
 23 21  1  0  0  0  0
 23 27  1  0  0  0  0
 24 23  2  0  0  0  0
 25 24  1  0  0  0  0
 25 22  2  0  0  0  0
 26 27  2  0  0  0  0
M  END
>  <MODEL>
4

>  <REMARK>
 VINA RESULT:      -7.2      1.544      2.274
  Name = 
  4 active torsions:
  status: ('A' for Active; 'I' for Inactive)
    1  A    between atoms: N_1  and  C_2
    2  A    between atoms: N_1  and  C_15
    3  A    between atoms: N_1  and  C_18
    4  A    between atoms: C_9  and  C_15
                            x       y       z     vdW  Elec       q    Type
                         _______ _______ _______ _____ _____    ______ ____

>  <TORSDO>
F 4

$$$$
=
 OpenBabel10272401133D

 27 31  0  0  1  0  0  0  0  0999 V2000
  189.4850  177.6360  143.9410 N   0  0  0  0  0  0  0  0  0  0  0  0
  189.4280  177.7110  142.4980 C   0  0  0  0  0  0  0  0  0  0  0  0
  189.4600  177.7640  138.3890 N   0  0  0  0  0  0  0  0  0  0  0  0
  190.7430  176.2060  136.9200 C   0  0  0  0  0  1  0  0  0  0  0  0
  188.6490  178.7000  141.8460 C   0  0  0  0  0  3  0  0  0  0  0  0
  190.7340  176.1620  139.4150 N   0  0  0  0  0  2  0  0  0  0  0  0
  190.1090  176.9160  140.3310 C   0  0  0  0  0  0  0  0  0  0  0  0
  190.3100  176.7130  138.2480 C   0  0  0  0  0  0  0  0  0  0  0  0
  189.3530  177.8670  139.7210 C   0  0  0  0  0  0  0  0  0  0  0  0
  190.1780  176.8020  141.7160 C   0  0  0  0  0  3  0  0  0  0  0  0
  188.6010  178.7880  140.4430 C   0  0  0  0  0  3  0  0  0  0  0  0
  188.1370  178.0520  145.9240 N   0  0  0  0  0  0  0  0  0  0  0  0
  186.0090  177.6150  144.8000 C   0  0  1  0  0  3  0  0  0  0  0  0
  188.2800  177.2100  147.1100 C   0  0  0  0  0  1  0  0  0  0  0  0
  186.3130  178.0380  143.3740 C   0  0  0  0  0  2  0  0  0  0  0  0
  188.3840  177.1660  144.7900 C   0  0  1  0  0  3  0  0  0  0  0  0
  185.9750  178.7760  147.0450 C   0  0  0  0  0  1  0  0  0  0  0  0
  186.7320  175.6180  143.7210 F   0  0  0  0  0  0  0  0  0  0  0  0
  187.0950  176.9160  144.0210 C   0  0  1  0  0  0  0  0  0  0  0  0
  186.7520  178.5280  145.7530 C   0  0  1  0  0  3  0  0  0  0  0  0
  190.6900  178.0760  144.6380 C   0  0  0  0  0  2  0  0  0  0  0  0
  192.5820  174.7290  146.4550 N   0  0  0  0  0  0  0  0  0  0  0  0
  191.3720  176.9110  145.2740 C   0  0  0  0  0  0  0  0  0  0  0  0
  191.6060  176.9010  146.6510 C   0  0  0  0  0  3  0  0  0  0  0  0
  192.2220  175.7880  147.2290 C   0  0  0  0  0  3  0  0  0  0  0  0
  192.3570  174.7180  145.1140 C   0  0  0  0  0  3  0  0  0  0  0  0
  191.7440  175.8100  144.4980 C   0  0  0  0  0  3  0  0  0  0  0  0
  1 21  1  0  0  0  0
  2  1  1  0  0  0  0
  3  9  1  0  0  0  0
  4  8  1  0  0  0  0
  5  2  1  0  0  0  0
  6  7  1  0  0  0  0
  7 10  1  0  0  0  0
  8  3  2  0  0  0  0
  8  6  1  0  0  0  0
  9  7  2  0  0  0  0
  9 11  1  0  0  0  0
 10  2  2  0  0  0  0
 11  5  2  0  0  0  0
 12 14  1  0  0  0  0
 13 15  1  6  0  0  0
 13 20  1  0  0  0  0
 15 19  1  0  0  0  0
 16  1  1  6  0  0  0
 16 12  1  0  0  0  0
 19 18  1  6  0  0  0
 19 16  1  0  0  0  0
 19 13  1  0  0  0  0
 20 12  1  0  0  0  0
 20 17  1  1  0  0  0
 21 23  1  0  0  0  0
 22 25  1  0  0  0  0
 23 24  1  0  0  0  0
 24 25  2  0  0  0  0
 26 22  2  0  0  0  0
 27 26  1  0  0  0  0
 27 23  2  0  0  0  0
M  END
>  <MODEL>
5

>  <REMARK>
 VINA RESULT:      -7.1      1.661      4.518
  Name = 
  4 active torsions:
  status: ('A' for Active; 'I' for Inactive)
    1  A    between atoms: N_1  and  C_2
    2  A    between atoms: N_1  and  C_15
    3  A    between atoms: N_1  and  C_18
    4  A    between atoms: C_9  and  C_15
                            x       y       z     vdW  Elec       q    Type
                         _______ _______ _______ _____ _____    ______ ____

>  <TORSDO>
F 4

$$$$
=
 OpenBabel10272401133D

 27 31  0  0  1  0  0  0  0  0999 V2000
  189.4300  177.2190  141.3370 N   0  0  0  0  0  0  0  0  0  0  0  0
  188.1240  177.7350  141.6830 C   0  0  0  0  0  0  0  0  0  0  0  0
  184.4270  179.0700  142.8790 N   0  0  0  0  0  0  0  0  0  0  0  0
  183.4400  178.7880  145.1540 C   0  0  0  0  0  1  0  0  0  0  0  0
  187.3270  178.4130  140.7250 C   0  0  0  0  0  3  0  0  0  0  0  0
  185.6870  177.9720  144.4420 N   0  0  0  0  0  2  0  0  0  0  0  0
  186.3490  178.0430  143.2780 C   0  0  0  0  0  0  0  0  0  0  0  0
  184.5240  178.6100  144.1530 C   0  0  0  0  0  0  0  0  0  0  0  0
  185.6000  178.6950  142.3500 C   0  0  0  0  0  0  0  0  0  0  0  0
  187.6150  177.5450  142.9890 C   0  0  0  0  0  3  0  0  0  0  0  0
  186.0510  178.9040  141.0510 C   0  0  0  0  0  3  0  0  0  0  0  0
  191.3580  176.7920  139.9140 N   0  0  0  0  0  0  0  0  0  0  0  0
  190.1280  177.1220  137.8260 C   0  0  1  0  0  3  0  0  0  0  0  0
  192.5290  177.6630  139.9700 C   0  0  0  0  0  1  0  0  0  0  0  0
  188.7270  176.6810  138.2120 C   0  0  0  0  0  2  0  0  0  0  0  0
  190.2170  177.6630  140.1810 C   0  0  1  0  0  3  0  0  0  0  0  0
  192.3950  176.0090  137.7320 C   0  0  0  0  0  1  0  0  0  0  0  0
  189.0380  179.1230  138.5220 F   0  0  0  0  0  0  0  0  0  0  0  0
  189.3840  177.8460  138.9200 C   0  0  1  0  0  0  0  0  0  0  0  0
  191.1350  176.2590  138.5570 C   0  0  1  0  0  3  0  0  0  0  0  0
  190.0260  176.1640  142.1500 C   0  0  0  0  0  2  0  0  0  0  0  0
  191.9470  177.8540  145.5470 N   0  0  0  0  0  0  0  0  0  0  0  0
  190.7190  176.7530  143.3330 C   0  0  0  0  0  0  0  0  0  0  0  0
  191.0700  178.1050  143.3390 C   0  0  0  0  0  3  0  0  0  0  0  0
  191.6930  178.6420  144.4680 C   0  0  0  0  0  3  0  0  0  0  0  0
  191.6070  176.5370  145.5630 C   0  0  0  0  0  3  0  0  0  0  0  0
  190.9830  175.9620  144.4540 C   0  0  0  0  0  3  0  0  0  0  0  0
  1  2  1  0  0  0  0
  1 21  1  0  0  0  0
  2 10  1  0  0  0  0
  3  8  2  0  0  0  0
  5 11  1  0  0  0  0
  5  2  2  0  0  0  0
  7  6  1  0  0  0  0
  8  6  1  0  0  0  0
  8  4  1  0  0  0  0
  9  3  1  0  0  0  0
  9  7  1  0  0  0  0
 10  7  2  0  0  0  0
 11  9  2  0  0  0  0
 12 14  1  0  0  0  0
 12 16  1  0  0  0  0
 13 15  1  1  0  0  0
 13 20  1  0  0  0  0
 13 19  1  0  0  0  0
 15 19  1  0  0  0  0
 16  1  1  1  0  0  0
 19 18  1  6  0  0  0
 19 16  1  0  0  0  0
 20 17  1  6  0  0  0
 20 12  1  0  0  0  0
 21 23  1  0  0  0  0
 22 26  1  0  0  0  0
 23 24  2  0  0  0  0
 23 27  1  0  0  0  0
 24 25  1  0  0  0  0
 25 22  2  0  0  0  0
 27 26  2  0  0  0  0
M  END
>  <MODEL>
6

>  <REMARK>
 VINA RESULT:      -7.1      1.912      6.227
  Name = 
  4 active torsions:
  status: ('A' for Active; 'I' for Inactive)
    1  A    between atoms: N_1  and  C_2
    2  A    between atoms: N_1  and  C_15
    3  A    between atoms: N_1  and  C_18
    4  A    between atoms: C_9  and  C_15
                            x       y       z     vdW  Elec       q    Type
                         _______ _______ _______ _____ _____    ______ ____

>  <TORSDO>
F 4

$$$$
=
 OpenBabel10272401133D

 27 31  0  0  1  0  0  0  0  0999 V2000
  188.1110  177.4380  143.1200 N   0  0  0  0  0  0  0  0  0  0  0  0
  187.4270  177.8980  141.9310 C   0  0  0  0  0  0  0  0  0  0  0  0
  185.2720  179.2100  138.6880 N   0  0  0  0  0  0  0  0  0  0  0  0
  182.9340  180.0810  138.7460 C   0  0  0  0  0  1  0  0  0  0  0  0
  188.0560  177.8530  140.6610 C   0  0  0  0  0  3  0  0  0  0  0  0
  184.2300  179.2860  140.7250 N   0  0  0  0  0  2  0  0  0  0  0  0
  185.4720  178.7990  140.8560 C   0  0  0  0  0  0  0  0  0  0  0  0
  184.1520  179.5230  139.3900 C   0  0  0  0  0  0  0  0  0  0  0  0
  186.0910  178.7540  139.6460 C   0  0  0  0  0  0  0  0  0  0  0  0
  186.1010  178.3800  142.0240 C   0  0  0  0  0  3  0  0  0  0  0  0
  187.3910  178.2840  139.4990 C   0  0  0  0  0  3  0  0  0  0  0  0
  189.8130  177.7060  144.8380 N   0  0  0  0  0  0  0  0  0  0  0  0
  191.4130  176.2070  143.7550 C   0  0  1  0  0  3  0  0  0  0  0  0
  190.4140  179.0140  145.0900 C   0  0  0  0  0  1  0  0  0  0  0  0
  190.4960  175.2360  143.0330 C   0  0  0  0  0  2  0  0  0  0  0  0
  189.5290  177.6820  143.4060 C   0  0  1  0  0  3  0  0  0  0  0  0
  191.8000  176.8500  146.1690 C   0  0  0  0  0  1  0  0  0  0  0  0
  191.1480  177.1350  141.5760 F   0  0  0  0  0  0  0  0  0  0  0  0
  190.4630  176.7110  142.6980 C   0  0  1  0  0  0  0  0  0  0  0  0
  190.7710  176.6090  145.0660 C   0  0  1  0  0  3  0  0  0  0  0  0
  187.3830  176.6500  144.1100 C   0  0  0  0  0  2  0  0  0  0  0  0
  185.6380  179.1540  147.0710 N   0  0  0  0  0  0  0  0  0  0  0  0
  186.7830  177.5440  145.1410 C   0  0  0  0  0  0  0  0  0  0  0  0
  185.6640  178.3220  144.8310 C   0  0  0  0  0  3  0  0  0  0  0  0
  185.1010  179.1310  145.8210 C   0  0  0  0  0  3  0  0  0  0  0  0
  186.7230  178.4010  147.3930 C   0  0  0  0  0  3  0  0  0  0  0  0
  187.3150  177.5780  146.4330 C   0  0  0  0  0  3  0  0  0  0  0  0
  1 21  1  0  0  0  0
  2 10  1  0  0  0  0
  2  1  1  0  0  0  0
  3  8  2  0  0  0  0
  3  9  1  0  0  0  0
  4  8  1  0  0  0  0
  5  2  2  0  0  0  0
  6  7  1  0  0  0  0
  7 10  2  0  0  0  0
  8  6  1  0  0  0  0
  9  7  1  0  0  0  0
 11  9  2  0  0  0  0
 11  5  1  0  0  0  0
 12 20  1  0  0  0  0
 12 14  1  0  0  0  0
 13 15  1  1  0  0  0
 13 20  1  0  0  0  0
 16  1  1  1  0  0  0
 16 12  1  0  0  0  0
 19 18  1  6  0  0  0
 19 15  1  0  0  0  0
 19 16  1  0  0  0  0
 19 13  1  0  0  0  0
 20 17  1  1  0  0  0
 21 23  1  0  0  0  0
 22 26  1  0  0  0  0
 23 27  1  0  0  0  0
 24 23  2  0  0  0  0
 24 25  1  0  0  0  0
 25 22  2  0  0  0  0
 27 26  2  0  0  0  0
M  END
>  <MODEL>
7

>  <REMARK>
 VINA RESULT:      -7.1      2.408      3.489
  Name = 
  4 active torsions:
  status: ('A' for Active; 'I' for Inactive)
    1  A    between atoms: N_1  and  C_2
    2  A    between atoms: N_1  and  C_15
    3  A    between atoms: N_1  and  C_18
    4  A    between atoms: C_9  and  C_15
                            x       y       z     vdW  Elec       q    Type
                         _______ _______ _______ _____ _____    ______ ____

>  <TORSDO>
F 4

$$$$
=
 OpenBabel10272401133D

 27 31  0  0  1  0  0  0  0  0999 V2000
  189.4650  177.6000  144.1480 N   0  0  0  0  0  0  0  0  0  0  0  0
  189.6150  177.5110  142.7130 C   0  0  0  0  0  0  0  0  0  0  0  0
  189.8460  177.4140  138.6110 N   0  0  0  0  0  0  0  0  0  0  0  0
  188.6230  178.9240  137.0450 C   0  0  0  0  0  1  0  0  0  0  0  0
  190.4580  176.5340  142.1230 C   0  0  0  0  0  3  0  0  0  0  0  0
  188.4720  178.9950  139.5350 N   0  0  0  0  0  2  0  0  0  0  0  0
  189.0550  178.2660  140.4970 C   0  0  0  0  0  0  0  0  0  0  0  0
  188.9830  178.4420  138.4040 C   0  0  0  0  0  0  0  0  0  0  0  0
  189.8710  177.3270  139.9480 C   0  0  0  0  0  0  0  0  0  0  0  0
  188.8960  178.3940  141.8740 C   0  0  0  0  0  3  0  0  0  0  0  0
  190.5970  176.4330  140.7270 C   0  0  0  0  0  3  0  0  0  0  0  0
  187.9200  178.0900  145.9630 N   0  0  0  0  0  0  0  0  0  0  0  0
  185.9170  177.6620  144.6260 C   0  0  1  0  0  3  0  0  0  0  0  0
  187.9180  177.2770  147.1770 C   0  0  0  0  0  1  0  0  0  0  0  0
  186.3810  178.0430  143.2320 C   0  0  0  0  0  2  0  0  0  0  0  0
  188.2700  177.1710  144.8840 C   0  0  1  0  0  3  0  0  0  0  0  0
  185.6650  178.8800  146.8270 C   0  0  0  0  0  1  0  0  0  0  0  0
  186.7120  175.6250  143.6800 F   0  0  0  0  0  0  0  0  0  0  0  0
  187.0660  176.9240  143.9870 C   0  0  1  0  0  0  0  0  0  0  0  0
  186.5710  178.5860  145.6330 C   0  0  1  0  0  3  0  0  0  0  0  0
  190.5400  178.1750  144.9510 C   0  0  0  0  0  2  0  0  0  0  0  0
  192.5380  175.1650  147.1960 N   0  0  0  0  0  0  0  0  0  0  0  0
  191.2230  177.1080  145.7390 C   0  0  0  0  0  0  0  0  0  0  0  0
  191.7880  176.0080  145.0890 C   0  0  0  0  0  3  0  0  0  0  0  0
  192.4470  175.0350  145.8440 C   0  0  0  0  0  3  0  0  0  0  0  0
  192.0000  176.2320  147.8450 C   0  0  0  0  0  3  0  0  0  0  0  0
  191.3330  177.2270  147.1270 C   0  0  0  0  0  3  0  0  0  0  0  0
  1 21  1  0  0  0  0
  2  1  1  0  0  0  0
  3  9  1  0  0  0  0
  4  8  1  0  0  0  0
  5  2  1  0  0  0  0
  6  7  1  0  0  0  0
  7 10  1  0  0  0  0
  8  3  2  0  0  0  0
  8  6  1  0  0  0  0
  9  7  2  0  0  0  0
  9 11  1  0  0  0  0
 10  2  2  0  0  0  0
 11  5  2  0  0  0  0
 12 14  1  0  0  0  0
 13 15  1  6  0  0  0
 13 20  1  0  0  0  0
 15 19  1  0  0  0  0
 16  1  1  6  0  0  0
 16 12  1  0  0  0  0
 19 18  1  6  0  0  0
 19 13  1  0  0  0  0
 19 16  1  0  0  0  0
 20 12  1  0  0  0  0
 20 17  1  1  0  0  0
 21 23  1  0  0  0  0
 22 26  1  0  0  0  0
 23 27  1  0  0  0  0
 24 23  2  0  0  0  0
 24 25  1  0  0  0  0
 25 22  2  0  0  0  0
 27 26  2  0  0  0  0
M  END
>  <MODEL>
8

>  <REMARK>
 VINA RESULT:      -7.1      1.890      4.697
  Name = 
  4 active torsions:
  status: ('A' for Active; 'I' for Inactive)
    1  A    between atoms: N_1  and  C_2
    2  A    between atoms: N_1  and  C_15
    3  A    between atoms: N_1  and  C_18
    4  A    between atoms: C_9  and  C_15
                            x       y       z     vdW  Elec       q    Type
                         _______ _______ _______ _____ _____    ______ ____

>  <TORSDO>
F 4

$$$$
=
 OpenBabel10272401133D

 27 31  0  0  1  0  0  0  0  0999 V2000
  187.4990  177.8510  144.4440 N   0  0  0  0  0  0  0  0  0  0  0  0
  188.6690  177.8100  143.5950 C   0  0  0  0  0  0  0  0  0  0  0  0
  191.8680  177.5390  141.0320 N   0  0  0  0  0  0  0  0  0  0  0  0
  191.8280  176.5300  138.7490 C   0  0  0  0  0  1  0  0  0  0  0  0
  189.9130  178.3290  144.0370 C   0  0  0  0  0  3  0  0  0  0  0  0
  189.8750  176.6870  140.2950 N   0  0  0  0  0  2  0  0  0  0  0  0
  189.7380  177.1910  141.5300 C   0  0  0  0  0  0  0  0  0  0  0  0
  191.1870  176.9220  140.0310 C   0  0  0  0  0  0  0  0  0  0  0  0
  190.9220  177.6970  141.9670 C   0  0  0  0  0  0  0  0  0  0  0  0
  188.5860  177.2250  142.3100 C   0  0  0  0  0  3  0  0  0  0  0  0
  191.0580  178.2780  143.2230 C   0  0  0  0  0  3  0  0  0  0  0  0
  185.4550  178.4220  143.2520 N   0  0  0  0  0  0  0  0  0  0  0  0
  184.1970  178.9550  145.2800 C   0  0  1  0  0  3  0  0  0  0  0  0
  185.4300  179.5430  142.3150 C   0  0  0  0  0  1  0  0  0  0  0  0
  184.8420  178.0360  146.3020 C   0  0  0  0  0  2  0  0  0  0  0  0
  186.4000  178.8120  144.2950 C   0  0  1  0  0  3  0  0  0  0  0  0
  182.9260  178.6220  143.1210 C   0  0  0  0  0  1  0  0  0  0  0  0
  185.9170  180.2720  146.2710 F   0  0  0  0  0  0  0  0  0  0  0  0
  185.6640  179.0930  145.5970 C   0  0  1  0  0  0  0  0  0  0  0  0
  184.1610  178.2520  143.9390 C   0  0  1  0  0  3  0  0  0  0  0  0
  187.3800  176.9090  145.5520 C   0  0  0  0  0  2  0  0  0  0  0  0
  190.3450  177.7790  148.4740 N   0  0  0  0  0  0  0  0  0  0  0  0
  188.4140  177.1970  146.5880 C   0  0  0  0  0  0  0  0  0  0  0  0
  189.6730  176.5960  146.5100 C   0  0  0  0  0  3  0  0  0  0  0  0
  190.6350  176.9020  147.4750 C   0  0  0  0  0  3  0  0  0  0  0  0
  189.1270  178.3790  148.5630 C   0  0  0  0  0  3  0  0  0  0  0  0
  188.1380  178.1000  147.6180 C   0  0  0  0  0  3  0  0  0  0  0  0
  1 21  1  0  0  0  0
  2  5  1  0  0  0  0
  2  1  1  0  0  0  0
  3  9  1  0  0  0  0
  4  8  1  0  0  0  0
  6  7  1  0  0  0  0
  7  9  2  0  0  0  0
  7 10  1  0  0  0  0
  8  6  1  0  0  0  0
  8  3  2  0  0  0  0
  9 11  1  0  0  0  0
 10  2  2  0  0  0  0
 11  5  2  0  0  0  0
 12 20  1  0  0  0  0
 12 16  1  0  0  0  0
 13 19  1  0  0  0  0
 13 15  1  1  0  0  0
 14 12  1  0  0  0  0
 16  1  1  1  0  0  0
 16 19  1  0  0  0  0
 19 18  1  1  0  0  0
 19 15  1  0  0  0  0
 20 17  1  6  0  0  0
 20 13  1  0  0  0  0
 21 23  1  0  0  0  0
 22 26  1  0  0  0  0
 23 27  1  0  0  0  0
 24 23  2  0  0  0  0
 24 25  1  0  0  0  0
 25 22  2  0  0  0  0
 27 26  2  0  0  0  0
M  END
>  <MODEL>
9

>  <REMARK>
 VINA RESULT:      -7.0      1.871      4.858
  Name = 
  4 active torsions:
  status: ('A' for Active; 'I' for Inactive)
    1  A    between atoms: N_1  and  C_2
    2  A    between atoms: N_1  and  C_15
    3  A    between atoms: N_1  and  C_18
    4  A    between atoms: C_9  and  C_15
                            x       y       z     vdW  Elec       q    Type
                         _______ _______ _______ _____ _____    ______ ____

>  <TORSDO>
F 4

$$$$
