=
 OpenBabel10272415193D

 34 39  0  0  1  0  0  0  0  0999 V2000
  186.6070  178.2350  144.1360 C   0  0  0  0  0  0  0  0  0  0  0  0
  187.9120  177.9190  147.5550 C   0  0  0  0  0  3  0  0  0  0  0  0
  185.8220  178.2010  146.7600 O   0  0  0  0  0  0  0  0  0  0  0  0
  186.1380  178.5800  141.8190 C   0  0  0  0  0  0  0  0  0  0  0  0
  186.9870  178.2520  142.8260 N   0  0  0  0  0  0  0  0  0  0  0  0
  184.3730  178.8950  143.4340 C   0  0  0  0  0  0  0  0  0  0  0  0
  182.9440  179.2590  143.6690 C   0  0  0  0  0  1  0  0  0  0  0  0
  184.8190  178.9090  142.1130 C   0  0  0  0  0  3  0  0  0  0  0  0
  186.5710  178.5960  140.4520 N   0  0  0  0  0  2  0  0  0  0  0  0
  184.9070  178.4700  145.8370 C   0  0  0  0  0  0  0  0  0  0  0  0
  185.2720  178.5500  144.4760 C   0  0  0  0  0  0  0  0  0  0  0  0
  183.7210  178.6680  146.2110 O   0  0  0  0  0  0  0  0  0  0  0  0
  189.4020  177.9670  147.5220 C   0  0  0  0  0  2  0  0  0  0  0  0
  190.0050  176.8180  146.7970 C   0  0  0  0  0  0  0  0  0  0  0  0
  189.7050  176.5780  145.5230 C   0  0  0  0  0  3  0  0  0  0  0  0
  187.1020  177.9650  146.4910 C   0  0  0  0  0  0  0  0  0  0  0  0
  188.6700  177.2640  144.7290 C   0  0  0  0  0  3  0  0  0  0  0  0
  187.5260  177.8560  145.1370 C   0  0  0  0  0  0  0  0  0  0  0  0
  190.1360  177.3910  140.4040 C   0  0  0  0  0  3  0  0  0  0  0  0
  188.0530  178.2300  138.6240 C   0  0  0  0  0  3  0  0  0  0  0  0
  191.3880  176.1940  137.0660 N   0  0  0  0  0  0  0  0  0  0  0  0
  192.4990  175.4530  136.5400 C   0  0  0  0  0  0  0  0  0  0  0  0
  191.2890  176.4380  138.4790 C   0  0  0  0  0  3  0  0  0  0  0  0
  192.5550  175.1760  135.3130 O   0  0  0  0  0  0  0  0  0  0  0  0
  190.3100  177.2060  138.9590 C   0  0  0  0  0  0  0  0  0  0  0  0
  193.5520  175.0270  137.3990 N   0  0  0  0  0  1  0  0  0  0  0  0
  189.3120  177.3480  136.6520 C   0  0  0  0  0  3  0  0  0  0  0  0
  189.4040  177.9650  138.0200 C   0  0  1  0  0  3  0  0  0  0  0  0
  190.2900  176.5540  136.2070 C   0  0  0  0  0  3  0  0  0  0  0  0
  187.8730  178.2630  139.9530 C   0  0  0  0  0  0  0  0  0  0  0  0
  188.9910  177.9040  140.8650 C   0  0  0  0  0  3  0  0  0  0  0  0
  191.0200  175.9590  147.4900 C   0  0  2  0  0  3  0  0  0  0  0  0
  192.0270  176.7780  148.1680 C   0  0  0  0  0  2  0  0  0  0  0  0
  192.3480  176.1540  146.8790 N   0  0  0  0  0  2  0  0  0  0  0  0
  1 11  2  0  0  0  0
  1 18  1  0  0  0  0
  4  8  1  0  0  0  0
  4  5  2  0  0  0  0
  5  1  1  0  0  0  0
  6  7  1  0  0  0  0
  6 11  1  0  0  0  0
  8  6  2  0  0  0  0
  9  4  1  0  0  0  0
 10 12  2  0  0  0  0
 10  3  1  0  0  0  0
 11 10  1  0  0  0  0
 13  2  1  0  0  0  0
 14 13  1  0  0  0  0
 15 14  2  0  0  0  0
 16  3  1  0  0  0  0
 16  2  2  0  0  0  0
 17 18  2  0  0  0  0
 17 15  1  0  0  0  0
 18 16  1  0  0  0  0
 19 31  2  0  0  0  0
 20 30  2  0  0  0  0
 21 23  1  0  0  0  0
 22 21  1  0  0  0  0
 22 26  1  0  0  0  0
 23 25  2  0  0  0  0
 24 22  2  0  0  0  0
 25 19  1  0  0  0  0
 28 27  1  6  0  0  0
 28 20  1  0  0  0  0
 28 25  1  0  0  0  0
 29 27  2  0  0  0  0
 29 21  1  0  0  0  0
 30  9  1  0  0  0  0
 30 31  1  0  0  0  0
 32 14  1  6  0  0  0
 32 33  1  0  0  0  0
 34 32  1  0  0  0  0
 34 33  1  0  0  0  0
M  END
>  <MODEL>
1

>  <REMARK>
 VINA RESULT:     -12.0      0.000      0.000
  Name = 
  2 active torsions:
  status: ('A' for Active; 'I' for Inactive)
    1  A    between atoms: C_3  and  C_25
    2  A    between atoms: N_18  and  C_30
                            x       y       z     vdW  Elec       q    Type
                         _______ _______ _______ _____ _____    ______ ____

>  <TORSDO>
F 2

$$$$
=
 OpenBabel10272415193D

 34 39  0  0  1  0  0  0  0  0999 V2000
  184.9060  178.5120  142.8880 C   0  0  0  0  0  0  0  0  0  0  0  0
  185.2340  178.6340  146.5450 C   0  0  0  0  0  3  0  0  0  0  0  0
  183.4300  178.5810  145.1940 O   0  0  0  0  0  0  0  0  0  0  0  0
  185.0670  178.6120  140.5060 C   0  0  0  0  0  0  0  0  0  0  0  0
  185.6320  178.4760  141.7330 N   0  0  0  0  0  0  0  0  0  0  0  0
  182.9000  178.8200  141.5470 C   0  0  0  0  0  0  0  0  0  0  0  0
  181.4320  179.0130  141.3500 C   0  0  0  0  0  1  0  0  0  0  0  0
  183.6910  178.7890  140.4000 C   0  0  0  0  0  3  0  0  0  0  0  0
  185.8580  178.5780  139.3110 N   0  0  0  0  0  2  0  0  0  0  0  0
  182.7850  178.6560  144.0370 C   0  0  0  0  0  0  0  0  0  0  0  0
  183.5040  178.6760  142.8230 C   0  0  0  0  0  0  0  0  0  0  0  0
  181.5280  178.7270  144.0560 O   0  0  0  0  0  0  0  0  0  0  0  0
  186.6610  178.8720  146.9050 C   0  0  0  0  0  2  0  0  0  0  0  0
  187.5570  177.7590  146.4980 C   0  0  0  0  0  0  0  0  0  0  0  0
  187.6500  177.3840  145.2250 C   0  0  0  0  0  3  0  0  0  0  0  0
  184.7510  178.4920  145.3050 C   0  0  0  0  0  0  0  0  0  0  0  0
  186.8110  177.8660  144.1130 C   0  0  0  0  0  3  0  0  0  0  0  0
  185.5440  178.3350  144.1340 C   0  0  0  0  0  0  0  0  0  0  0  0
  189.4080  177.8870  140.3570 C   0  0  0  0  0  3  0  0  0  0  0  0
  187.8150  178.2280  137.9990 C   0  0  0  0  0  3  0  0  0  0  0  0
  191.6450  176.5230  137.6590 N   0  0  0  0  0  0  0  0  0  0  0  0
  192.9300  175.8930  137.5490 C   0  0  0  0  0  0  0  0  0  0  0  0
  191.1380  176.9020  138.9500 C   0  0  0  0  0  3  0  0  0  0  0  0
  193.3500  175.4950  136.4300 O   0  0  0  0  0  0  0  0  0  0  0  0
  189.9890  177.5730  139.0470 C   0  0  0  0  0  0  0  0  0  0  0  0
  193.7470  175.7140  138.7020 N   0  0  0  0  0  1  0  0  0  0  0  0
  189.6530  177.3240  136.5640 C   0  0  0  0  0  3  0  0  0  0  0  0
  189.3000  178.0910  137.8080 C   0  0  1  0  0  3  0  0  0  0  0  0
  190.7930  176.6310  136.5040 C   0  0  0  0  0  3  0  0  0  0  0  0
  187.2760  178.3790  139.2180 C   0  0  0  0  0  0  0  0  0  0  0  0
  188.1320  178.2810  140.4290 C   0  0  0  0  0  3  0  0  0  0  0  0
  188.4230  177.0950  147.5280 C   0  0  2  0  0  3  0  0  0  0  0  0
  188.8860  178.0600  148.5270 C   0  0  0  0  0  2  0  0  0  0  0  0
  189.7950  177.6320  147.4560 N   0  0  0  0  0  2  0  0  0  0  0  0
  1 18  1  0  0  0  0
  2 13  1  0  0  0  0
  3 16  1  0  0  0  0
  4  5  2  0  0  0  0
  5  1  1  0  0  0  0
  6 11  1  0  0  0  0
  7  6  1  0  0  0  0
  8  4  1  0  0  0  0
  8  6  2  0  0  0  0
  9  4  1  0  0  0  0
 10 12  2  0  0  0  0
 10  3  1  0  0  0  0
 11  1  2  0  0  0  0
 11 10  1  0  0  0  0
 14 13  1  0  0  0  0
 15 14  2  0  0  0  0
 16  2  2  0  0  0  0
 17 18  2  0  0  0  0
 17 15  1  0  0  0  0
 18 16  1  0  0  0  0
 19 31  2  0  0  0  0
 20 30  2  0  0  0  0
 21 23  1  0  0  0  0
 22 21  1  0  0  0  0
 22 26  1  0  0  0  0
 23 25  2  0  0  0  0
 24 22  2  0  0  0  0
 25 19  1  0  0  0  0
 28 27  1  6  0  0  0
 28 20  1  0  0  0  0
 28 25  1  0  0  0  0
 29 27  2  0  0  0  0
 29 21  1  0  0  0  0
 30  9  1  0  0  0  0
 30 31  1  0  0  0  0
 32 14  1  6  0  0  0
 32 33  1  0  0  0  0
 34 32  1  0  0  0  0
 34 33  1  0  0  0  0
M  END
>  <MODEL>
2

>  <REMARK>
 VINA RESULT:     -11.7      1.434      2.077
  Name = 
  2 active torsions:
  status: ('A' for Active; 'I' for Inactive)
    1  A    between atoms: C_3  and  C_25
    2  A    between atoms: N_18  and  C_30
                            x       y       z     vdW  Elec       q    Type
                         _______ _______ _______ _____ _____    ______ ____

>  <TORSDO>
F 2

$$$$
=
 OpenBabel10272415193D

 34 39  0  0  1  0  0  0  0  0999 V2000
  184.5980  178.6370  142.2390 C   0  0  0  0  0  0  0  0  0  0  0  0
  185.5650  178.1300  138.7320 C   0  0  0  0  0  3  0  0  0  0  0  0
  183.6190  178.7530  139.6840 O   0  0  0  0  0  0  0  0  0  0  0  0
  184.2740  178.7000  144.6050 C   0  0  0  0  0  0  0  0  0  0  0  0
  185.0760  178.5840  143.5160 N   0  0  0  0  0  0  0  0  0  0  0  0
  182.3660  178.9630  143.1510 C   0  0  0  0  0  0  0  0  0  0  0  0
  180.8910  179.1670  143.0500 C   0  0  0  0  0  1  0  0  0  0  0  0
  182.9070  178.8880  144.4340 C   0  0  0  0  0  3  0  0  0  0  0  0
  184.8060  178.6310  145.9350 N   0  0  0  0  0  2  0  0  0  0  0  0
  182.7710  178.9420  140.6870 C   0  0  0  0  0  0  0  0  0  0  0  0
  183.2160  178.8410  142.0220 C   0  0  0  0  0  0  0  0  0  0  0  0
  181.5680  179.1910  140.4130 O   0  0  0  0  0  0  0  0  0  0  0  0
  186.9190  177.5070  138.6770 C   0  0  0  0  0  2  0  0  0  0  0  0
  187.9860  178.3860  139.2240 C   0  0  0  0  0  0  0  0  0  0  0  0
  187.9330  178.8300  140.4760 C   0  0  0  0  0  3  0  0  0  0  0  0
  184.9130  178.4930  139.8420 C   0  0  0  0  0  0  0  0  0  0  0  0
  186.8020  178.6720  141.4080 C   0  0  0  0  0  3  0  0  0  0  0  0
  185.4830  178.5410  141.1450 C   0  0  0  0  0  0  0  0  0  0  0  0
  187.8600  178.2790  148.1070 C   0  0  0  0  0  3  0  0  0  0  0  0
  187.0580  178.1110  145.3610 C   0  0  0  0  0  3  0  0  0  0  0  0
  190.7740  176.5120  146.5150 N   0  0  0  0  0  0  0  0  0  0  0  0
  192.0170  175.9190  146.9160 C   0  0  0  0  0  0  0  0  0  0  0  0
  189.9100  177.1090  147.4970 C   0  0  0  0  0  3  0  0  0  0  0  0
  192.7450  175.3330  146.0720 O   0  0  0  0  0  0  0  0  0  0  0  0
  188.8010  177.7440  147.1160 C   0  0  0  0  0  0  0  0  0  0  0  0
  192.4460  175.9910  148.2730 N   0  0  0  0  0  1  0  0  0  0  0  0
  189.2210  177.0190  144.7420 C   0  0  0  0  0  3  0  0  0  0  0  0
  188.5280  177.9930  145.6520 C   0  0  1  0  0  3  0  0  0  0  0  0
  190.3110  176.3690  145.1590 C   0  0  0  0  0  3  0  0  0  0  0  0
  186.1810  178.4690  146.3100 C   0  0  0  0  0  0  0  0  0  0  0  0
  186.6310  178.6320  147.7170 C   0  0  0  0  0  3  0  0  0  0  0  0
  189.1750  178.7180  138.3720 C   0  0  2  0  0  3  0  0  0  0  0  0
  189.2290  177.8620  137.1860 C   0  0  0  0  0  2  0  0  0  0  0  0
  190.1020  177.5720  138.3300 N   0  0  0  0  0  2  0  0  0  0  0  0
  1  5  1  0  0  0  0
  2 16  2  0  0  0  0
  3 16  1  0  0  0  0
  3 10  1  0  0  0  0
  4  9  1  0  0  0  0
  5  4  2  0  0  0  0
  6  8  2  0  0  0  0
  7  6  1  0  0  0  0
  8  4  1  0  0  0  0
  9 30  1  0  0  0  0
 10 11  1  0  0  0  0
 11  1  2  0  0  0  0
 11  6  1  0  0  0  0
 12 10  2  0  0  0  0
 13  2  1  0  0  0  0
 13 14  1  0  0  0  0
 14 15  2  0  0  0  0
 15 17  1  0  0  0  0
 16 18  1  0  0  0  0
 18 17  2  0  0  0  0
 18  1  1  0  0  0  0
 20 28  1  0  0  0  0
 20 30  2  0  0  0  0
 21 22  1  0  0  0  0
 21 23  1  0  0  0  0
 22 26  1  0  0  0  0
 24 22  2  0  0  0  0
 25 23  2  0  0  0  0
 25 19  1  0  0  0  0
 27 29  2  0  0  0  0
 28 27  1  6  0  0  0
 28 25  1  0  0  0  0
 29 21  1  0  0  0  0
 30 31  1  0  0  0  0
 31 19  2  0  0  0  0
 32 14  1  1  0  0  0
 33 34  1  0  0  0  0
 33 32  1  0  0  0  0
 34 32  1  0  0  0  0
M  END
>  <MODEL>
3

>  <REMARK>
 VINA RESULT:     -11.1      3.003      7.407
  Name = 
  2 active torsions:
  status: ('A' for Active; 'I' for Inactive)
    1  A    between atoms: C_3  and  C_25
    2  A    between atoms: N_18  and  C_30
                            x       y       z     vdW  Elec       q    Type
                         _______ _______ _______ _____ _____    ______ ____

>  <TORSDO>
F 2

$$$$
=
 OpenBabel10272415193D

 34 39  0  0  1  0  0  0  0  0999 V2000
  186.3760  178.2050  143.6120 C   0  0  0  0  0  0  0  0  0  0  0  0
  182.8820  178.5490  142.5330 C   0  0  0  0  0  3  0  0  0  0  0  0
  183.8490  178.6540  144.5670 O   0  0  0  0  0  0  0  0  0  0  0  0
  188.6960  177.7550  143.9690 C   0  0  0  0  0  0  0  0  0  0  0  0
  187.6400  177.9830  143.1470 N   0  0  0  0  0  0  0  0  0  0  0  0
  187.2360  177.9840  145.8770 C   0  0  0  0  0  0  0  0  0  0  0  0
  187.1120  177.9630  147.3650 C   0  0  0  0  0  1  0  0  0  0  0  0
  188.5040  177.7500  145.3470 C   0  0  0  0  0  3  0  0  0  0  0  0
  190.0100  177.5170  143.4490 N   0  0  0  0  0  2  0  0  0  0  0  0
  184.8320  178.5060  145.4460 C   0  0  0  0  0  0  0  0  0  0  0  0
  186.1420  178.2220  145.0060 C   0  0  0  0  0  0  0  0  0  0  0  0
  184.5590  178.6060  146.6710 O   0  0  0  0  0  0  0  0  0  0  0  0
  182.7700  178.1750  141.0940 C   0  0  0  0  0  2  0  0  0  0  0  0
  183.5180  179.0920  140.1950 C   0  0  0  0  0  0  0  0  0  0  0  0
  184.8290  179.2710  140.3360 C   0  0  0  0  0  3  0  0  0  0  0  0
  184.0120  178.5800  143.2500 C   0  0  0  0  0  0  0  0  0  0  0  0
  185.6640  178.7550  141.4360 C   0  0  0  0  0  3  0  0  0  0  0  0
  185.3240  178.4670  142.7100 C   0  0  0  0  0  0  0  0  0  0  0  0
  192.2050  177.2380  140.4040 C   0  0  0  0  0  3  0  0  0  0  0  0
  189.4470  177.4980  141.1350 C   0  0  0  0  0  3  0  0  0  0  0  0
  190.4280  176.3280  137.2160 N   0  0  0  0  0  0  0  0  0  0  0  0
  190.7610  175.8780  135.8940 C   0  0  0  0  0  0  0  0  0  0  0  0
  191.4700  176.5660  138.1790 C   0  0  0  0  0  3  0  0  0  0  0  0
  189.8510  175.6010  135.0690 O   0  0  0  0  0  0  0  0  0  0  0  0
  191.1710  177.0750  139.3750 C   0  0  0  0  0  0  0  0  0  0  0  0
  192.1230  175.7440  135.4990 N   0  0  0  0  0  1  0  0  0  0  0  0
  188.7220  176.9220  138.8120 C   0  0  0  0  0  3  0  0  0  0  0  0
  189.7750  177.5670  139.6700 C   0  0  1  0  0  3  0  0  0  0  0  0
  189.0520  176.3880  137.6320 C   0  0  0  0  0  3  0  0  0  0  0  0
  190.4070  177.5100  142.0710 C   0  0  0  0  0  0  0  0  0  0  0  0
  191.8380  177.4570  141.6700 C   0  0  0  0  0  3  0  0  0  0  0  0
  182.7980  179.7700  139.0690 C   0  0  2  0  0  3  0  0  0  0  0  0
  181.4650  179.1970  138.8760 C   0  0  0  0  0  2  0  0  0  0  0  0
  182.5560  178.8120  137.9740 N   0  0  0  0  0  2  0  0  0  0  0  0
  1 11  2  0  0  0  0
  2 16  2  0  0  0  0
  3 10  1  0  0  0  0
  4  8  1  0  0  0  0
  5  1  1  0  0  0  0
  5  4  2  0  0  0  0
  6  7  1  0  0  0  0
  8  6  2  0  0  0  0
  9  4  1  0  0  0  0
 10 12  2  0  0  0  0
 11 10  1  0  0  0  0
 11  6  1  0  0  0  0
 13  2  1  0  0  0  0
 14 15  2  0  0  0  0
 14 13  1  0  0  0  0
 15 17  1  0  0  0  0
 16  3  1  0  0  0  0
 17 18  2  0  0  0  0
 18 16  1  0  0  0  0
 18  1  1  0  0  0  0
 19 31  2  0  0  0  0
 20 30  2  0  0  0  0
 21 29  1  0  0  0  0
 21 23  1  0  0  0  0
 22 21  1  0  0  0  0
 23 25  2  0  0  0  0
 24 22  2  0  0  0  0
 25 28  1  0  0  0  0
 25 19  1  0  0  0  0
 26 22  1  0  0  0  0
 28 27  1  6  0  0  0
 28 20  1  0  0  0  0
 29 27  2  0  0  0  0
 30  9  1  0  0  0  0
 31 30  1  0  0  0  0
 32 14  1  1  0  0  0
 33 32  1  0  0  0  0
 34 33  1  0  0  0  0
 34 32  1  0  0  0  0
M  END
>  <MODEL>
4

>  <REMARK>
 VINA RESULT:     -11.1      1.916      5.587
  Name = 
  2 active torsions:
  status: ('A' for Active; 'I' for Inactive)
    1  A    between atoms: C_3  and  C_25
    2  A    between atoms: N_18  and  C_30
                            x       y       z     vdW  Elec       q    Type
                         _______ _______ _______ _____ _____    ______ ____

>  <TORSDO>
F 2

$$$$
=
 OpenBabel10272415193D

 34 39  0  0  1  0  0  0  0  0999 V2000
  185.5100  178.3880  143.0640 C   0  0  0  0  0  0  0  0  0  0  0  0
  182.0070  178.7560  142.0230 C   0  0  0  0  0  3  0  0  0  0  0  0
  182.9970  178.8620  144.0450 O   0  0  0  0  0  0  0  0  0  0  0  0
  187.8300  177.9210  143.3970 C   0  0  0  0  0  0  0  0  0  0  0  0
  186.7660  178.1540  142.5850 N   0  0  0  0  0  0  0  0  0  0  0  0
  186.3930  178.1700  145.3200 C   0  0  0  0  0  0  0  0  0  0  0  0
  186.2850  178.1570  146.8090 C   0  0  0  0  0  1  0  0  0  0  0  0
  187.6530  177.9240  144.7770 C   0  0  0  0  0  3  0  0  0  0  0  0
  189.1360  177.6700  142.8630 N   0  0  0  0  0  2  0  0  0  0  0  0
  183.9890  178.7100  144.9130 C   0  0  0  0  0  0  0  0  0  0  0  0
  185.2910  178.4130  144.4600 C   0  0  0  0  0  0  0  0  0  0  0  0
  183.7300  178.8180  146.1410 O   0  0  0  0  0  0  0  0  0  0  0  0
  181.8750  178.3760  140.5870 C   0  0  0  0  0  2  0  0  0  0  0  0
  182.6210  179.2830  139.6750 C   0  0  0  0  0  0  0  0  0  0  0  0
  183.9340  179.4520  139.8000 C   0  0  0  0  0  3  0  0  0  0  0  0
  183.1440  178.7810  142.7270 C   0  0  0  0  0  0  0  0  0  0  0  0
  184.7780  178.9350  140.8930 C   0  0  0  0  0  3  0  0  0  0  0  0
  184.4490  178.6540  142.1730 C   0  0  0  0  0  0  0  0  0  0  0  0
  191.1090  176.9110  139.7490 C   0  0  0  0  0  3  0  0  0  0  0  0
  188.6280  178.0830  140.5730 C   0  0  0  0  0  3  0  0  0  0  0  0
  189.1560  177.0240  136.5360 N   0  0  0  0  0  0  0  0  0  0  0  0
  189.3160  176.6150  135.1700 C   0  0  0  0  0  0  0  0  0  0  0  0
  190.2030  176.7720  137.4900 C   0  0  0  0  0  3  0  0  0  0  0  0
  188.3760  176.7690  134.3460 O   0  0  0  0  0  0  0  0  0  0  0  0
  190.0980  177.2350  138.7360 C   0  0  0  0  0  0  0  0  0  0  0  0
  190.5390  176.0340  134.7290 N   0  0  0  0  0  1  0  0  0  0  0  0
  187.7670  178.0380  138.2250 C   0  0  0  0  0  3  0  0  0  0  0  0
  188.9730  178.1690  139.1120 C   0  0  1  0  0  3  0  0  0  0  0  0
  187.8920  177.5390  136.9920 C   0  0  0  0  0  3  0  0  0  0  0  0
  189.5170  177.6540  141.4800 C   0  0  0  0  0  0  0  0  0  0  0  0
  190.8340  177.1240  141.0390 C   0  0  0  0  0  3  0  0  0  0  0  0
  181.8930  179.9630  138.5540 C   0  0  2  0  0  3  0  0  0  0  0  0
  182.2320  181.3850  138.4920 C   0  0  0  0  0  2  0  0  0  0  0  0
  180.9590  180.9690  139.0940 N   0  0  0  0  0  2  0  0  0  0  0  0
  1 11  2  0  0  0  0
  2 16  2  0  0  0  0
  3 10  1  0  0  0  0
  4  8  1  0  0  0  0
  5  1  1  0  0  0  0
  5  4  2  0  0  0  0
  6  7  1  0  0  0  0
  8  6  2  0  0  0  0
  9  4  1  0  0  0  0
 10 12  2  0  0  0  0
 11 10  1  0  0  0  0
 11  6  1  0  0  0  0
 13  2  1  0  0  0  0
 14 15  2  0  0  0  0
 14 13  1  0  0  0  0
 15 17  1  0  0  0  0
 16  3  1  0  0  0  0
 17 18  2  0  0  0  0
 18 16  1  0  0  0  0
 18  1  1  0  0  0  0
 19 31  2  0  0  0  0
 20 30  2  0  0  0  0
 21 29  1  0  0  0  0
 21 23  1  0  0  0  0
 22 21  1  0  0  0  0
 23 25  2  0  0  0  0
 24 22  2  0  0  0  0
 25 28  1  0  0  0  0
 25 19  1  0  0  0  0
 26 22  1  0  0  0  0
 28 27  1  6  0  0  0
 28 20  1  0  0  0  0
 29 27  2  0  0  0  0
 30  9  1  0  0  0  0
 31 30  1  0  0  0  0
 32 34  1  0  0  0  0
 32 14  1  1  0  0  0
 33 32  1  0  0  0  0
 33 34  1  0  0  0  0
M  END
>  <MODEL>
5

>  <REMARK>
 VINA RESULT:     -11.1      2.403      5.983
  Name = 
  2 active torsions:
  status: ('A' for Active; 'I' for Inactive)
    1  A    between atoms: C_3  and  C_25
    2  A    between atoms: N_18  and  C_30
                            x       y       z     vdW  Elec       q    Type
                         _______ _______ _______ _____ _____    ______ ____

>  <TORSDO>
F 2

$$$$
=
 OpenBabel10272415193D

 34 39  0  0  1  0  0  0  0  0999 V2000
  189.0740  177.5440  144.4930 C   0  0  0  0  0  0  0  0  0  0  0  0
  191.8140  177.2450  142.0650 C   0  0  0  0  0  3  0  0  0  0  0  0
  191.7650  177.0720  144.3130 O   0  0  0  0  0  0  0  0  0  0  0  0
  187.1090  177.9750  145.7840 C   0  0  0  0  0  0  0  0  0  0  0  0
  187.7330  177.7760  144.5940 N   0  0  0  0  0  0  0  0  0  0  0  0
  189.2210  177.6900  146.9170 C   0  0  0  0  0  0  0  0  0  0  0  0
  189.9450  177.6640  148.2230 C   0  0  0  0  0  1  0  0  0  0  0  0
  187.8500  177.9370  146.9610 C   0  0  0  0  0  3  0  0  0  0  0  0
  185.7000  178.2260  145.8560 N   0  0  0  0  0  2  0  0  0  0  0  0
  191.2310  177.1890  145.5220 C   0  0  0  0  0  0  0  0  0  0  0  0
  189.8590  177.4830  145.6670 C   0  0  0  0  0  0  0  0  0  0  0  0
  191.9820  177.0500  146.5230 O   0  0  0  0  0  0  0  0  0  0  0  0
  191.3300  177.6650  140.7190 C   0  0  0  0  0  2  0  0  0  0  0  0
  190.2690  176.7750  140.1790 C   0  0  0  0  0  0  0  0  0  0  0  0
  189.1300  176.5880  140.8400 C   0  0  0  0  0  3  0  0  0  0  0  0
  191.0780  177.1870  143.1810 C   0  0  0  0  0  0  0  0  0  0  0  0
  188.8240  177.0660  142.2000 C   0  0  0  0  0  3  0  0  0  0  0  0
  189.6610  177.3140  143.2310 C   0  0  0  0  0  0  0  0  0  0  0  0
  182.4970  178.7880  143.9610 C   0  0  0  0  0  3  0  0  0  0  0  0
  185.2530  178.1380  143.5190 C   0  0  0  0  0  3  0  0  0  0  0  0
  182.8950  179.3970  140.2700 N   0  0  0  0  0  0  0  0  0  0  0  0
  182.1070  179.8760  139.1720 C   0  0  0  0  0  0  0  0  0  0  0  0
  182.3250  179.3230  141.5880 C   0  0  0  0  0  3  0  0  0  0  0  0
  182.6200  180.0090  138.0290 O   0  0  0  0  0  0  0  0  0  0  0  0
  183.0240  178.7890  142.5910 C   0  0  0  0  0  0  0  0  0  0  0  0
  180.7320  180.2030  139.3590 N   0  0  0  0  0  1  0  0  0  0  0  0
  185.0180  178.5780  141.0680 C   0  0  0  0  0  3  0  0  0  0  0  0
  184.3420  178.1030  142.3230 C   0  0  1  0  0  3  0  0  0  0  0  0
  184.3010  179.1420  140.0920 C   0  0  0  0  0  3  0  0  0  0  0  0
  184.7730  178.2760  144.7630 C   0  0  0  0  0  0  0  0  0  0  0  0
  183.3240  178.5320  144.9790 C   0  0  0  0  0  3  0  0  0  0  0  0
  190.4570  176.1350  138.8360 C   0  0  2  0  0  3  0  0  0  0  0  0
  191.7290  176.5390  138.2340 C   0  0  0  0  0  2  0  0  0  0  0  0
  190.4820  177.1680  137.7830 N   0  0  0  0  0  2  0  0  0  0  0  0
  1  5  1  0  0  0  0
  1 11  2  0  0  0  0
  2 16  2  0  0  0  0
  3 10  1  0  0  0  0
  4  9  1  0  0  0  0
  4  8  1  0  0  0  0
  5  4  2  0  0  0  0
  6  8  2  0  0  0  0
  6  7  1  0  0  0  0
 10 11  1  0  0  0  0
 10 12  2  0  0  0  0
 11  6  1  0  0  0  0
 13  2  1  0  0  0  0
 14 13  1  0  0  0  0
 14 15  2  0  0  0  0
 15 17  1  0  0  0  0
 16 18  1  0  0  0  0
 16  3  1  0  0  0  0
 17 18  2  0  0  0  0
 18  1  1  0  0  0  0
 19 31  2  0  0  0  0
 20 30  2  0  0  0  0
 21 23  1  0  0  0  0
 22 26  1  0  0  0  0
 22 21  1  0  0  0  0
 23 25  2  0  0  0  0
 24 22  2  0  0  0  0
 25 19  1  0  0  0  0
 28 27  1  6  0  0  0
 28 25  1  0  0  0  0
 28 20  1  0  0  0  0
 29 21  1  0  0  0  0
 29 27  2  0  0  0  0
 30 31  1  0  0  0  0
 30  9  1  0  0  0  0
 32 14  1  1  0  0  0
 33 32  1  0  0  0  0
 34 33  1  0  0  0  0
 34 32  1  0  0  0  0
M  END
>  <MODEL>
6

>  <REMARK>
 VINA RESULT:     -10.9      3.077      7.460
  Name = 
  2 active torsions:
  status: ('A' for Active; 'I' for Inactive)
    1  A    between atoms: C_3  and  C_25
    2  A    between atoms: N_18  and  C_30
                            x       y       z     vdW  Elec       q    Type
                         _______ _______ _______ _____ _____    ______ ____

>  <TORSDO>
F 2

$$$$
=
 OpenBabel10272415193D

 34 39  0  0  1  0  0  0  0  0999 V2000
  188.5410  177.5710  143.7810 C   0  0  0  0  0  0  0  0  0  0  0  0
  191.8400  177.1730  142.2150 C   0  0  0  0  0  3  0  0  0  0  0  0
  191.1210  176.8330  144.3250 O   0  0  0  0  0  0  0  0  0  0  0  0
  186.3250  178.1070  144.4970 C   0  0  0  0  0  0  0  0  0  0  0  0
  187.2520  177.9360  143.5200 N   0  0  0  0  0  0  0  0  0  0  0  0
  187.9820  177.5130  146.1480 C   0  0  0  0  0  0  0  0  0  0  0  0
  188.2880  177.3090  147.5950 C   0  0  0  0  0  1  0  0  0  0  0  0
  186.6830  177.8990  145.8260 C   0  0  0  0  0  3  0  0  0  0  0  0
  184.9800  178.4980  144.1920 N   0  0  0  0  0  2  0  0  0  0  0  0
  190.2670  176.9120  145.3370 C   0  0  0  0  0  0  0  0  0  0  0  0
  188.9400  177.3370  145.1160 C   0  0  0  0  0  0  0  0  0  0  0  0
  190.6780  176.6180  146.4900 O   0  0  0  0  0  0  0  0  0  0  0  0
  191.8060  177.7450  140.8390 C   0  0  0  0  0  2  0  0  0  0  0  0
  190.8830  177.0170  139.9290 C   0  0  0  0  0  0  0  0  0  0  0  0
  189.5890  176.9000  140.2150 C   0  0  0  0  0  3  0  0  0  0  0  0
  190.8070  177.1080  143.0630 C   0  0  0  0  0  0  0  0  0  0  0  0
  188.9370  177.3010  141.4750 C   0  0  0  0  0  3  0  0  0  0  0  0
  189.4520  177.3790  142.7210 C   0  0  0  0  0  0  0  0  0  0  0  0
  184.7930  179.1630  140.4920 C   0  0  0  0  0  3  0  0  0  0  0  0
  183.1110  178.5050  142.7170 C   0  0  0  0  0  3  0  0  0  0  0  0
  181.6260  178.0290  138.8100 N   0  0  0  0  0  0  0  0  0  0  0  0
  181.1360  177.8170  137.4780 C   0  0  0  0  0  0  0  0  0  0  0  0
  182.9720  178.4910  139.0180 C   0  0  0  0  0  3  0  0  0  0  0  0
  179.9830  177.3460  137.2910 O   0  0  0  0  0  0  0  0  0  0  0  0
  183.3970  178.7810  140.2480 C   0  0  0  0  0  0  0  0  0  0  0  0
  181.9470  178.1390  136.3510 N   0  0  0  0  0  1  0  0  0  0  0  0
  181.2190  177.9360  141.1840 C   0  0  0  0  0  3  0  0  0  0  0  0
  182.4310  178.7950  141.4070 C   0  0  1  0  0  3  0  0  0  0  0  0
  180.8320  177.6300  139.9420 C   0  0  0  0  0  3  0  0  0  0  0  0
  184.4210  178.7300  142.8920 C   0  0  0  0  0  0  0  0  0  0  0  0
  185.2650  179.1510  141.7420 C   0  0  0  0  0  3  0  0  0  0  0  0
  191.4050  176.4660  138.6350 C   0  0  2  0  0  3  0  0  0  0  0  0
  190.3090  176.1410  137.7220 C   0  0  0  0  0  2  0  0  0  0  0  0
  190.9710  175.0660  138.4710 N   0  0  0  0  0  2  0  0  0  0  0  0
  1 11  2  0  0  0  0
  2 16  2  0  0  0  0
  3 10  1  0  0  0  0
  4  8  1  0  0  0  0
  5  1  1  0  0  0  0
  5  4  2  0  0  0  0
  6  7  1  0  0  0  0
  8  6  2  0  0  0  0
  9  4  1  0  0  0  0
 10 12  2  0  0  0  0
 11 10  1  0  0  0  0
 11  6  1  0  0  0  0
 13  2  1  0  0  0  0
 14 15  2  0  0  0  0
 14 13  1  0  0  0  0
 15 17  1  0  0  0  0
 16  3  1  0  0  0  0
 17 18  2  0  0  0  0
 18 16  1  0  0  0  0
 18  1  1  0  0  0  0
 19 31  2  0  0  0  0
 20 30  2  0  0  0  0
 21 23  1  0  0  0  0
 21 29  1  0  0  0  0
 22 21  1  0  0  0  0
 23 25  2  0  0  0  0
 24 22  2  0  0  0  0
 25 19  1  0  0  0  0
 25 28  1  0  0  0  0
 26 22  1  0  0  0  0
 28 27  1  6  0  0  0
 28 20  1  0  0  0  0
 29 27  2  0  0  0  0
 30  9  1  0  0  0  0
 31 30  1  0  0  0  0
 32 14  1  1  0  0  0
 33 34  1  0  0  0  0
 33 32  1  0  0  0  0
 34 32  1  0  0  0  0
M  END
>  <MODEL>
7

>  <REMARK>
 VINA RESULT:     -10.7      3.251      7.220
  Name = 
  2 active torsions:
  status: ('A' for Active; 'I' for Inactive)
    1  A    between atoms: C_3  and  C_25
    2  A    between atoms: N_18  and  C_30
                            x       y       z     vdW  Elec       q    Type
                         _______ _______ _______ _____ _____    ______ ____

>  <TORSDO>
F 2

$$$$
=
 OpenBabel10272415193D

 34 39  0  0  1  0  0  0  0  0999 V2000
  188.5360  177.5560  144.7190 C   0  0  0  0  0  0  0  0  0  0  0  0
  185.2790  178.0370  146.3480 C   0  0  0  0  0  3  0  0  0  0  0  0
  187.3740  177.9200  147.1720 O   0  0  0  0  0  0  0  0  0  0  0  0
  190.4380  177.0550  143.3610 C   0  0  0  0  0  0  0  0  0  0  0  0
  189.1260  177.3760  143.5020 N   0  0  0  0  0  0  0  0  0  0  0  0
  190.6850  177.0910  145.7620 C   0  0  0  0  0  0  0  0  0  0  0  0
  191.6020  176.9130  146.9270 C   0  0  0  0  0  1  0  0  0  0  0  0
  191.2330  176.9050  144.4940 C   0  0  0  0  0  3  0  0  0  0  0  0
  191.0260  176.8640  142.0680 N   0  0  0  0  0  2  0  0  0  0  0  0
  188.6770  177.6720  147.1290 C   0  0  0  0  0  0  0  0  0  0  0  0
  189.3130  177.4270  145.8930 C   0  0  0  0  0  0  0  0  0  0  0  0
  189.3170  177.6450  148.2130 O   0  0  0  0  0  0  0  0  0  0  0  0
  184.1920  177.8180  145.3520 C   0  0  0  0  0  2  0  0  0  0  0  0
  184.1990  178.8200  144.2540 C   0  0  0  0  0  0  0  0  0  0  0  0
  185.2650  178.9740  143.4730 C   0  0  0  0  0  3  0  0  0  0  0  0
  186.5930  177.9840  146.0990 C   0  0  0  0  0  0  0  0  0  0  0  0
  186.5820  178.3390  143.6640 C   0  0  0  0  0  3  0  0  0  0  0  0
  187.1760  177.9190  144.8030 C   0  0  0  0  0  0  0  0  0  0  0  0
  190.1420  176.2220  138.4660 C   0  0  0  0  0  3  0  0  0  0  0  0
  189.2850  177.7720  140.7200 C   0  0  0  0  0  3  0  0  0  0  0  0
  186.7010  177.3340  137.4290 N   0  0  0  0  0  0  0  0  0  0  0  0
  185.7990  177.1420  136.3310 C   0  0  0  0  0  0  0  0  0  0  0  0
  187.9860  176.6880  137.4270 C   0  0  0  0  0  3  0  0  0  0  0  0
  184.6460  177.6480  136.3580 O   0  0  0  0  0  0  0  0  0  0  0  0
  188.8640  176.9400  138.3990 C   0  0  0  0  0  0  0  0  0  0  0  0
  186.1970  176.3810  135.1940 N   0  0  0  0  0  1  0  0  0  0  0  0
  187.1310  178.3320  139.5810 C   0  0  0  0  0  3  0  0  0  0  0  0
  188.5920  178.0280  139.4100 C   0  0  1  0  0  3  0  0  0  0  0  0
  186.2650  178.0380  138.6070 C   0  0  0  0  0  3  0  0  0  0  0  0
  190.3790  177.0000  140.7950 C   0  0  0  0  0  0  0  0  0  0  0  0
  190.8580  176.2660  139.5940 C   0  0  0  0  0  3  0  0  0  0  0  0
  182.9600  179.6190  143.9760 C   0  0  2  0  0  3  0  0  0  0  0  0
  181.7610  178.7890  144.0960 C   0  0  0  0  0  2  0  0  0  0  0  0
  182.2910  179.1090  142.7650 N   0  0  0  0  0  2  0  0  0  0  0  0
  1 18  1  0  0  0  0
  1 11  2  0  0  0  0
  4  5  2  0  0  0  0
  4  8  1  0  0  0  0
  5  1  1  0  0  0  0
  6 11  1  0  0  0  0
  6  7  1  0  0  0  0
  8  6  2  0  0  0  0
  9  4  1  0  0  0  0
 10  3  1  0  0  0  0
 10 12  2  0  0  0  0
 11 10  1  0  0  0  0
 13  2  1  0  0  0  0
 14 13  1  0  0  0  0
 15 17  1  0  0  0  0
 15 14  2  0  0  0  0
 16  2  2  0  0  0  0
 16  3  1  0  0  0  0
 17 18  2  0  0  0  0
 18 16  1  0  0  0  0
 19 31  2  0  0  0  0
 20 30  2  0  0  0  0
 21 29  1  0  0  0  0
 22 24  2  0  0  0  0
 22 21  1  0  0  0  0
 23 21  1  0  0  0  0
 23 25  2  0  0  0  0
 25 19  1  0  0  0  0
 25 28  1  0  0  0  0
 26 22  1  0  0  0  0
 28 27  1  1  0  0  0
 28 20  1  0  0  0  0
 29 27  2  0  0  0  0
 30  9  1  0  0  0  0
 31 30  1  0  0  0  0
 32 33  1  0  0  0  0
 32 14  1  1  0  0  0
 34 32  1  0  0  0  0
 34 33  1  0  0  0  0
M  END
>  <MODEL>
8

>  <REMARK>
 VINA RESULT:     -10.7      2.561      5.622
  Name = 
  2 active torsions:
  status: ('A' for Active; 'I' for Inactive)
    1  A    between atoms: C_3  and  C_25
    2  A    between atoms: N_18  and  C_30
                            x       y       z     vdW  Elec       q    Type
                         _______ _______ _______ _____ _____    ______ ____

>  <TORSDO>
F 2

$$$$
=
 OpenBabel10272415193D

 34 39  0  0  1  0  0  0  0  0999 V2000
  183.5350  178.5810  141.8590 C   0  0  0  0  0  0  0  0  0  0  0  0
  184.0230  177.9540  138.2730 C   0  0  0  0  0  3  0  0  0  0  0  0
  182.2370  178.6660  139.4490 O   0  0  0  0  0  0  0  0  0  0  0  0
  183.5230  178.7150  144.2450 C   0  0  0  0  0  0  0  0  0  0  0  0
  184.1730  178.5450  143.0650 N   0  0  0  0  0  0  0  0  0  0  0  0
  181.4510  179.0050  143.0420 C   0  0  0  0  0  0  0  0  0  0  0  0
  179.9820  179.2550  143.1260 C   0  0  0  0  0  1  0  0  0  0  0  0
  182.1510  178.9440  144.2460 C   0  0  0  0  0  3  0  0  0  0  0  0
  184.2210  178.6620  145.4960 N   0  0  0  0  0  2  0  0  0  0  0  0
  181.5320  178.9080  140.5470 C   0  0  0  0  0  0  0  0  0  0  0  0
  182.1440  178.8260  141.8160 C   0  0  0  0  0  0  0  0  0  0  0  0
  180.3110  179.1900  140.4240 O   0  0  0  0  0  0  0  0  0  0  0  0
  185.3390  177.2840  138.0630 C   0  0  0  0  0  2  0  0  0  0  0  0
  186.4940  178.1410  138.4410 C   0  0  0  0  0  0  0  0  0  0  0  0
  186.6170  178.6190  139.6760 C   0  0  0  0  0  3  0  0  0  0  0  0
  183.5310  178.3660  139.4470 C   0  0  0  0  0  0  0  0  0  0  0  0
  185.6120  178.5220  140.7510 C   0  0  0  0  0  3  0  0  0  0  0  0
  184.2680  178.4280  140.6630 C   0  0  0  0  0  0  0  0  0  0  0  0
  187.4920  178.0670  147.2600 C   0  0  0  0  0  3  0  0  0  0  0  0
  186.3920  178.2290  144.6190 C   0  0  0  0  0  3  0  0  0  0  0  0
  190.2000  176.5230  145.1550 N   0  0  0  0  0  0  0  0  0  0  0  0
  191.4760  175.8940  145.3420 C   0  0  0  0  0  0  0  0  0  0  0  0
  189.4540  176.9920  146.2910 C   0  0  0  0  0  3  0  0  0  0  0  0
  192.1020  175.4190  144.3580 O   0  0  0  0  0  0  0  0  0  0  0  0
  188.3150  177.6620  146.1140 C   0  0  0  0  0  0  0  0  0  0  0  0
  192.0510  175.8030  146.6430 N   0  0  0  0  0  1  0  0  0  0  0  0
  188.4660  177.2330  143.6380 C   0  0  0  0  0  3  0  0  0  0  0  0
  187.8850  178.0860  144.7300 C   0  0  1  0  0  3  0  0  0  0  0  0
  189.5900  176.5430  143.8510 C   0  0  0  0  0  3  0  0  0  0  0  0
  185.6270  178.4650  145.6950 C   0  0  0  0  0  0  0  0  0  0  0  0
  186.2310  178.4580  147.0530 C   0  0  0  0  0  3  0  0  0  0  0  0
  187.5710  178.4120  137.4340 C   0  0  2  0  0  3  0  0  0  0  0  0
  187.4960  177.4710  136.3160 C   0  0  0  0  0  2  0  0  0  0  0  0
  188.5000  177.2680  137.3670 N   0  0  0  0  0  2  0  0  0  0  0  0
  1  5  1  0  0  0  0
  2 16  2  0  0  0  0
  3 10  1  0  0  0  0
  4  8  1  0  0  0  0
  4  9  1  0  0  0  0
  5  4  2  0  0  0  0
  6  7  1  0  0  0  0
  6  8  2  0  0  0  0
  9 30  1  0  0  0  0
 10 11  1  0  0  0  0
 11  1  2  0  0  0  0
 11  6  1  0  0  0  0
 12 10  2  0  0  0  0
 13  2  1  0  0  0  0
 13 14  1  0  0  0  0
 14 15  2  0  0  0  0
 15 17  1  0  0  0  0
 16  3  1  0  0  0  0
 16 18  1  0  0  0  0
 18 17  2  0  0  0  0
 18  1  1  0  0  0  0
 20 28  1  0  0  0  0
 20 30  2  0  0  0  0
 21 22  1  0  0  0  0
 21 23  1  0  0  0  0
 22 26  1  0  0  0  0
 24 22  2  0  0  0  0
 25 23  2  0  0  0  0
 25 19  1  0  0  0  0
 27 29  2  0  0  0  0
 28 27  1  6  0  0  0
 28 25  1  0  0  0  0
 29 21  1  0  0  0  0
 30 31  1  0  0  0  0
 31 19  2  0  0  0  0
 32 14  1  1  0  0  0
 33 34  1  0  0  0  0
 33 32  1  0  0  0  0
 34 32  1  0  0  0  0
M  END
>  <MODEL>
9

>  <REMARK>
 VINA RESULT:     -10.4      3.294      7.437
  Name = 
  2 active torsions:
  status: ('A' for Active; 'I' for Inactive)
    1  A    between atoms: C_3  and  C_25
    2  A    between atoms: N_18  and  C_30
                            x       y       z     vdW  Elec       q    Type
                         _______ _______ _______ _____ _____    ______ ____

>  <TORSDO>
F 2

$$$$
