=
 OpenBabel10272414513D

 37 42  0  0  1  0  0  0  0  0999 V2000
  182.6710  177.6810  136.3080 C   0  0  2  0  0  3  0  0  0  0  0  0
  183.9750  177.0010  136.8340 C   0  0  1  0  0  0  0  0  0  0  0  0
  181.0430  179.6390  136.5770 C   0  0  1  0  0  3  0  0  0  0  0  0
  184.4770  175.7800  136.0180 C   0  0  1  0  0  0  0  0  0  0  0  0
  182.6120  174.6230  135.3570 C   0  0  0  0  0  2  0  0  0  0  0  0
  180.9780  179.4900  135.1900 O   0  0  0  0  0  0  0  0  0  0  0  0
  180.5290  177.1290  135.0700 C   0  0  0  0  0  0  0  0  0  0  0  0
  182.2530  178.8990  137.1390 C   0  0  0  0  0  2  0  0  0  0  0  0
  179.9900  176.2490  134.3470 O   0  0  0  0  0  0  0  0  0  0  0  0
  183.6720  175.4420  134.9090 O   0  0  0  0  0  0  0  0  0  0  0  0
  181.5580  176.7550  136.0120 N   0  0  0  0  0  0  0  0  0  0  0  0
  185.1950  177.1370  135.8930 C   0  0  1  0  0  0  0  0  0  0  0  0
  181.6820  175.3370  136.3480 C   0  0  0  0  0  2  0  0  0  0  0  0
  179.9840  178.5270  134.9920 C   0  0  0  0  0  2  0  0  0  0  0  0
  184.9650  177.9130  134.5940 C   0  0  0  0  0  1  0  0  0  0  0  0
  184.7320  173.7710  137.5550 C   0  0  0  0  0  3  0  0  0  0  0  0
  185.2950  174.6530  136.6210 C   0  0  0  0  0  0  0  0  0  0  0  0
  186.5880  174.4010  136.1410 C   0  0  0  0  0  3  0  0  0  0  0  0
  188.5850  173.0990  136.1760 F   0  0  0  0  0  0  0  0  0  0  0  0
  186.7700  172.4690  137.5880 C   0  0  0  0  0  3  0  0  0  0  0  0
  187.3300  173.3220  136.6320 C   0  0  0  0  0  0  0  0  0  0  0  0
  185.4690  172.6900  138.0440 C   0  0  0  0  0  3  0  0  0  0  0  0
  183.3990  178.5470  140.6860 C   0  0  0  0  0  2  0  0  0  0  0  0
  182.9860  176.6120  139.1780 C   0  0  0  0  0  2  0  0  0  0  0  0
  184.6450  178.8640  139.9100 C   0  0  0  0  0  3  0  0  0  0  0  0
  185.0410  178.1170  138.8690 C   0  0  0  0  0  3  0  0  0  0  0  0
  184.2490  176.9320  138.3580 C   0  0  2  0  0  3  0  0  0  0  0  0
  182.3610  177.8660  139.7870 C   0  0  1  0  0  3  0  0  0  0  0  0
  181.0370  177.5240  140.4850 C   0  0  0  0  0  0  0  0  0  0  0  0
  180.0510  178.6510  140.7040 C   0  0  0  0  0  2  0  0  0  0  0  0
  180.3810  176.1840  140.2100 C   0  0  0  0  0  1  0  0  0  0  0  0
  180.8210  178.0620  141.8830 C   0  0  0  0  0  2  0  0  0  0  0  0
  181.7250  181.2640  138.1850 O   0  0  0  0  0  1  0  0  0  0  0  0
  181.1150  181.1110  136.9390 C   0  0  0  0  0  2  0  0  0  0  0  0
  186.5510  177.3290  136.5850 C   0  0  0  0  0  2  0  0  0  0  0  0
  187.5590  179.5350  136.5880 N   0  0  0  0  0  1  0  0  0  0  0  0
  187.4310  178.3070  135.8260 C   0  0  0  0  0  2  0  0  0  0  0  0
  1  2  1  0  0  0  0
  1  8  1  1  0  0  0
  2 27  1  1  0  0  0
  3 34  1  6  0  0  0
  3  8  1  0  0  0  0
  4 17  1  1  0  0  0
  4  2  1  0  0  0  0
  5 13  1  0  0  0  0
  6  3  1  0  0  0  0
  7 11  1  0  0  0  0
  9  7  2  0  0  0  0
 10  5  1  0  0  0  0
 10  4  1  0  0  0  0
 11  1  1  0  0  0  0
 11 13  1  0  0  0  0
 12 15  1  6  0  0  0
 12  4  1  0  0  0  0
 12 35  1  0  0  0  0
 12  2  1  0  0  0  0
 14  7  1  0  0  0  0
 14  6  1  0  0  0  0
 16 22  1  0  0  0  0
 17 16  2  0  0  0  0
 18 17  1  0  0  0  0
 18 21  2  0  0  0  0
 19 21  1  0  0  0  0
 20 22  2  0  0  0  0
 21 20  1  0  0  0  0
 25 23  1  0  0  0  0
 26 25  2  0  0  0  0
 27 26  1  1  0  0  0
 27 24  1  0  0  0  0
 28 24  1  1  0  0  0
 28 29  1  0  0  0  0
 28 23  1  0  0  0  0
 29 30  1  0  0  0  0
 29 32  1  0  0  0  0
 30 32  1  0  0  0  0
 31 29  1  0  0  0  0
 34 33  1  0  0  0  0
 37 35  1  0  0  0  0
 37 36  1  0  0  0  0
M  END
>  <MODEL>
1

>  <REMARK>
 VINA RESULT:      -4.0      0.000      0.000
  Name = 
  6 active torsions:
  status: ('A' for Active; 'I' for Inactive)
    1  A    between atoms: C_3  and  C_30
    2  A    between atoms: C_4  and  C_28
    3  A    between atoms: C_5  and  C_23
    4  A    between atoms: C_6  and  C_7
    5  A    between atoms: C_14  and  C_31
    6  A    between atoms: C_14  and  C_37
                            x       y       z     vdW  Elec       q    Type
                         _______ _______ _______ _____ _____    ______ ____

>  <TORSDO>
F 6

$$$$
=
 OpenBabel10272414513D

 37 42  0  0  1  0  0  0  0  0999 V2000
  183.3680  177.6340  137.3320 C   0  0  2  0  0  3  0  0  0  0  0  0
  183.0480  177.7480  138.8570 C   0  0  1  0  0  0  0  0  0  0  0  0
  182.6190  176.6920  135.0720 C   0  0  1  0  0  3  0  0  0  0  0  0
  183.9830  178.6770  139.6760 C   0  0  1  0  0  0  0  0  0  0  0  0
  186.0950  178.3880  138.8340 C   0  0  0  0  0  2  0  0  0  0  0  0
  183.1820  177.8930  134.6320 O   0  0  0  0  0  0  0  0  0  0  0  0
  185.3230  177.7440  135.7210 C   0  0  0  0  0  0  0  0  0  0  0  0
  182.3860  176.7290  136.5780 C   0  0  0  0  0  2  0  0  0  0  0  0
  186.5210  178.1220  135.6270 O   0  0  0  0  0  0  0  0  0  0  0  0
  185.0100  179.2880  138.9260 O   0  0  0  0  0  0  0  0  0  0  0  0
  184.7860  177.3690  137.0090 N   0  0  0  0  0  0  0  0  0  0  0  0
  182.5620  179.1450  139.3080 C   0  0  1  0  0  0  0  0  0  0  0  0
  185.7390  177.0960  138.0840 C   0  0  0  0  0  2  0  0  0  0  0  0
  184.5360  177.5940  134.4500 C   0  0  0  0  0  2  0  0  0  0  0  0
  182.4570  180.2120  138.2150 C   0  0  0  0  0  1  0  0  0  0  0  0
  185.5410  178.1890  141.6240 C   0  0  0  0  0  3  0  0  0  0  0  0
  184.2540  178.4910  141.1570 C   0  0  0  0  0  0  0  0  0  0  0  0
  183.2390  178.7590  142.0870 C   0  0  0  0  0  3  0  0  0  0  0  0
  182.4980  178.9060  144.3480 F   0  0  0  0  0  0  0  0  0  0  0  0
  184.7700  178.3300  143.9120 C   0  0  0  0  0  3  0  0  0  0  0  0
  183.4910  178.6650  143.4590 C   0  0  0  0  0  0  0  0  0  0  0  0
  185.7960  178.0980  142.9940 C   0  0  0  0  0  3  0  0  0  0  0  0
  180.4400  174.4740  139.0630 C   0  0  0  0  0  2  0  0  0  0  0  0
  182.8190  175.1850  138.9200 C   0  0  0  0  0  2  0  0  0  0  0  0
  180.1160  175.7600  139.7690 C   0  0  0  0  0  3  0  0  0  0  0  0
  181.0580  176.6740  140.0440 C   0  0  0  0  0  3  0  0  0  0  0  0
  182.5050  176.5170  139.6250 C   0  0  2  0  0  3  0  0  0  0  0  0
  181.6300  174.6630  138.1160 C   0  0  1  0  0  3  0  0  0  0  0  0
  182.0230  173.4070  137.3250 C   0  0  0  0  0  0  0  0  0  0  0  0
  181.2130  173.0770  136.0900 C   0  0  0  0  0  2  0  0  0  0  0  0
  183.4890  173.0340  137.2110 C   0  0  0  0  0  1  0  0  0  0  0  0
  181.0690  172.2320  137.3540 C   0  0  0  0  0  2  0  0  0  0  0  0
  180.2640  177.0620  135.0200 O   0  0  0  0  0  1  0  0  0  0  0  0
  181.3120  176.4330  134.3460 C   0  0  0  0  0  2  0  0  0  0  0  0
  181.4760  179.1540  140.3920 C   0  0  0  0  0  2  0  0  0  0  0  0
  179.9820  180.8350  141.2990 N   0  0  0  0  0  1  0  0  0  0  0  0
  180.3830  180.1600  140.0780 C   0  0  0  0  0  2  0  0  0  0  0  0
  1  8  1  1  0  0  0
  1  2  1  0  0  0  0
  2 12  1  0  0  0  0
  2 27  1  1  0  0  0
  2  4  1  0  0  0  0
  3 34  1  6  0  0  0
  3  8  1  0  0  0  0
  4 17  1  1  0  0  0
  5 10  1  0  0  0  0
  6  3  1  0  0  0  0
  7 11  1  0  0  0  0
  9  7  2  0  0  0  0
 10  4  1  0  0  0  0
 11  1  1  0  0  0  0
 11 13  1  0  0  0  0
 12 15  1  6  0  0  0
 12  4  1  0  0  0  0
 12 35  1  0  0  0  0
 13  5  1  0  0  0  0
 14  6  1  0  0  0  0
 14  7  1  0  0  0  0
 16 22  1  0  0  0  0
 17 16  2  0  0  0  0
 17 18  1  0  0  0  0
 18 21  2  0  0  0  0
 21 20  1  0  0  0  0
 21 19  1  0  0  0  0
 22 20  2  0  0  0  0
 23 25  1  0  0  0  0
 25 26  2  0  0  0  0
 27 24  1  6  0  0  0
 27 26  1  0  0  0  0
 28 29  1  1  0  0  0
 28 24  1  0  0  0  0
 28 23  1  0  0  0  0
 29 32  1  0  0  0  0
 30 29  1  0  0  0  0
 30 32  1  0  0  0  0
 31 29  1  0  0  0  0
 34 33  1  0  0  0  0
 37 35  1  0  0  0  0
 37 36  1  0  0  0  0
M  END
>  <MODEL>
2

>  <REMARK>
 VINA RESULT:      -3.7      2.987      5.966
  Name = 
  6 active torsions:
  status: ('A' for Active; 'I' for Inactive)
    1  A    between atoms: C_3  and  C_30
    2  A    between atoms: C_4  and  C_28
    3  A    between atoms: C_5  and  C_23
    4  A    between atoms: C_6  and  C_7
    5  A    between atoms: C_14  and  C_31
    6  A    between atoms: C_14  and  C_37
                            x       y       z     vdW  Elec       q    Type
                         _______ _______ _______ _____ _____    ______ ____

>  <TORSDO>
F 6

$$$$
=
 OpenBabel10272414513D

 37 42  0  0  1  0  0  0  0  0999 V2000
  190.2740  176.0690  136.5220 C   0  0  2  0  0  3  0  0  0  0  0  0
  191.7110  175.5300  136.8130 C   0  0  1  0  0  0  0  0  0  0  0  0
  188.5770  177.9330  136.9700 C   0  0  1  0  0  3  0  0  0  0  0  0
  192.1350  174.2700  136.0110 C   0  0  1  0  0  0  0  0  0  0  0  0
  190.2790  172.9350  135.8580 C   0  0  0  0  0  2  0  0  0  0  0  0
  188.2410  177.6450  135.6450 O   0  0  0  0  0  0  0  0  0  0  0  0
  187.9770  175.2590  135.8170 C   0  0  0  0  0  0  0  0  0  0  0  0
  189.9340  177.3320  137.3200 C   0  0  0  0  0  2  0  0  0  0  0  0
  187.3770  174.2800  135.2990 O   0  0  0  0  0  0  0  0  0  0  0  0
  191.1510  173.7740  135.1300 O   0  0  0  0  0  0  0  0  0  0  0  0
  189.2060  175.0470  136.5460 N   0  0  0  0  0  0  0  0  0  0  0  0
  192.6950  175.6530  135.6260 C   0  0  1  0  0  0  0  0  0  0  0  0
  189.5160  173.6800  136.9630 C   0  0  0  0  0  2  0  0  0  0  0  0
  187.3110  176.6050  135.7420 C   0  0  0  0  0  2  0  0  0  0  0  0
  192.1380  176.2810  134.3460 C   0  0  0  0  0  1  0  0  0  0  0  0
  193.3930  172.0690  135.8210 C   0  0  0  0  0  3  0  0  0  0  0  0
  193.1520  173.2640  136.5160 C   0  0  0  0  0  0  0  0  0  0  0  0
  193.9640  173.5880  137.6130 C   0  0  0  0  0  3  0  0  0  0  0  0
  195.7210  173.0190  139.1200 F   0  0  0  0  0  0  0  0  0  0  0  0
  195.1650  171.5010  137.3680 C   0  0  0  0  0  3  0  0  0  0  0  0
  194.9570  172.7040  138.0470 C   0  0  0  0  0  0  0  0  0  0  0  0
  194.3870  171.1870  136.2510 C   0  0  0  0  0  3  0  0  0  0  0  0
  192.2520  177.6960  140.3590 C   0  0  0  0  0  2  0  0  0  0  0  0
  191.2100  175.6830  139.3320 C   0  0  0  0  0  2  0  0  0  0  0  0
  193.3320  177.6470  139.3160 C   0  0  0  0  0  3  0  0  0  0  0  0
  193.3640  176.6960  138.3720 C   0  0  0  0  0  3  0  0  0  0  0  0
  192.2970  175.6270  138.2440 C   0  0  2  0  0  3  0  0  0  0  0  0
  190.9460  177.1090  139.8110 C   0  0  1  0  0  3  0  0  0  0  0  0
  189.7700  177.1380  140.7970 C   0  0  0  0  0  0  0  0  0  0  0  0
  190.0300  177.6950  142.1800 C   0  0  0  0  0  2  0  0  0  0  0  0
  188.3750  177.4260  140.2760 C   0  0  0  0  0  1  0  0  0  0  0  0
  189.8230  176.1950  141.9810 C   0  0  0  0  0  2  0  0  0  0  0  0
  187.4690  180.0130  136.6030 O   0  0  0  0  0  1  0  0  0  0  0  0
  188.5970  179.4350  137.1870 C   0  0  0  0  0  2  0  0  0  0  0  0
  194.1430  176.0000  135.9950 C   0  0  0  0  0  2  0  0  0  0  0  0
  195.4020  177.9700  135.3490 N   0  0  0  0  0  1  0  0  0  0  0  0
  194.8520  176.7190  134.8600 C   0  0  0  0  0  2  0  0  0  0  0  0
  1 11  1  0  0  0  0
  1  2  1  0  0  0  0
  1  8  1  1  0  0  0
  2 27  1  1  0  0  0
  3 34  1  6  0  0  0
  3  8  1  0  0  0  0
  4 17  1  1  0  0  0
  4  2  1  0  0  0  0
  5 13  1  0  0  0  0
  6 14  1  0  0  0  0
  6  3  1  0  0  0  0
  7 11  1  0  0  0  0
  9  7  2  0  0  0  0
 10  5  1  0  0  0  0
 10  4  1  0  0  0  0
 11 13  1  0  0  0  0
 12 15  1  6  0  0  0
 12 35  1  0  0  0  0
 12  4  1  0  0  0  0
 12  2  1  0  0  0  0
 14  7  1  0  0  0  0
 16 22  2  0  0  0  0
 16 17  1  0  0  0  0
 17 18  2  0  0  0  0
 18 21  1  0  0  0  0
 20 21  2  0  0  0  0
 21 19  1  0  0  0  0
 22 20  1  0  0  0  0
 25 23  1  0  0  0  0
 26 25  2  0  0  0  0
 27 26  1  6  0  0  0
 27 24  1  0  0  0  0
 28 24  1  1  0  0  0
 28 23  1  0  0  0  0
 28 29  1  0  0  0  0
 29 32  1  0  0  0  0
 29 30  1  0  0  0  0
 31 29  1  0  0  0  0
 32 30  1  0  0  0  0
 33 34  1  0  0  0  0
 37 36  1  0  0  0  0
 37 35  1  0  0  0  0
M  END
>  <MODEL>
3

>  <REMARK>
 VINA RESULT:      -3.3      5.676      8.091
  Name = 
  6 active torsions:
  status: ('A' for Active; 'I' for Inactive)
    1  A    between atoms: C_3  and  C_30
    2  A    between atoms: C_4  and  C_28
    3  A    between atoms: C_5  and  C_23
    4  A    between atoms: C_6  and  C_7
    5  A    between atoms: C_14  and  C_31
    6  A    between atoms: C_14  and  C_37
                            x       y       z     vdW  Elec       q    Type
                         _______ _______ _______ _____ _____    ______ ____

>  <TORSDO>
F 6

$$$$
=
 OpenBabel10272414513D

 37 42  0  0  1  0  0  0  0  0999 V2000
  184.1410  176.2070  136.3150 C   0  0  2  0  0  3  0  0  0  0  0  0
  185.2710  176.9820  137.0660 C   0  0  1  0  0  0  0  0  0  0  0  0
  181.6750  176.1950  135.6260 C   0  0  1  0  0  3  0  0  0  0  0  0
  186.6960  176.3770  136.9530 C   0  0  1  0  0  0  0  0  0  0  0  0
  186.4480  174.0990  137.0210 C   0  0  0  0  0  2  0  0  0  0  0  0
  182.2200  175.5700  134.5010 O   0  0  0  0  0  0  0  0  0  0  0  0
  183.5150  173.8590  135.5920 C   0  0  0  0  0  0  0  0  0  0  0  0
  182.7690  176.8780  136.4400 C   0  0  0  0  0  2  0  0  0  0  0  0
  183.9890  172.7040  135.4250 O   0  0  0  0  0  0  0  0  0  0  0  0
  186.7730  175.1930  136.1880 O   0  0  0  0  0  0  0  0  0  0  0  0
  184.1140  174.7490  136.5590 N   0  0  0  0  0  0  0  0  0  0  0  0
  186.3260  177.6330  136.1420 C   0  0  1  0  0  0  0  0  0  0  0  0
  185.0090  174.1610  137.5550 C   0  0  0  0  0  2  0  0  0  0  0  0
  182.2600  174.2140  134.8450 C   0  0  0  0  0  2  0  0  0  0  0  0
  186.1220  177.4390  134.6370 C   0  0  0  0  0  1  0  0  0  0  0  0
  189.0880  176.1480  137.7810 C   0  0  0  0  0  3  0  0  0  0  0  0
  187.7680  176.5650  138.0090 C   0  0  0  0  0  0  0  0  0  0  0  0
  187.4750  177.2880  139.1740 C   0  0  0  0  0  3  0  0  0  0  0  0
  188.1710  178.2170  141.2560 F   0  0  0  0  0  0  0  0  0  0  0  0
  189.7740  177.0850  139.9030 C   0  0  0  0  0  3  0  0  0  0  0  0
  188.4700  177.5350  140.1250 C   0  0  0  0  0  0  0  0  0  0  0  0
  190.0840  176.3970  138.7280 C   0  0  0  0  0  3  0  0  0  0  0  0
  182.6340  179.1710  139.4770 C   0  0  0  0  0  2  0  0  0  0  0  0
  183.8260  177.0060  139.1960 C   0  0  0  0  0  2  0  0  0  0  0  0
  183.7400  179.8580  138.7290 C   0  0  0  0  0  3  0  0  0  0  0  0
  184.8060  179.1880  138.2660 C   0  0  0  0  0  3  0  0  0  0  0  0
  184.9610  177.6880  138.4100 C   0  0  2  0  0  3  0  0  0  0  0  0
  182.4880  177.7180  139.0110 C   0  0  1  0  0  3  0  0  0  0  0  0
  181.3610  176.9360  139.7010 C   0  0  0  0  0  0  0  0  0  0  0  0
  179.9840  177.5630  139.7170 C   0  0  0  0  0  2  0  0  0  0  0  0
  181.3420  175.4230  139.5990 C   0  0  0  0  0  1  0  0  0  0  0  0
  180.8130  177.4920  140.9980 C   0  0  0  0  0  2  0  0  0  0  0  0
  180.7090  178.3410  136.0110 O   0  0  0  0  0  1  0  0  0  0  0  0
  180.6280  177.2070  135.2010 C   0  0  0  0  0  2  0  0  0  0  0  0
  186.8590  178.9980  136.5980 C   0  0  0  0  0  2  0  0  0  0  0  0
  188.9980  179.8610  137.3460 N   0  0  0  0  0  1  0  0  0  0  0  0
  188.3310  179.1640  136.2630 C   0  0  0  0  0  2  0  0  0  0  0  0
  1  8  1  1  0  0  0
  1 11  1  0  0  0  0
  1  2  1  0  0  0  0
  2 27  1  1  0  0  0
  3 34  1  6  0  0  0
  3  8  1  0  0  0  0
  4  2  1  0  0  0  0
  4 17  1  1  0  0  0
  5 13  1  0  0  0  0
  6 14  1  0  0  0  0
  6  3  1  0  0  0  0
  7 11  1  0  0  0  0
  9  7  2  0  0  0  0
 10  4  1  0  0  0  0
 10  5  1  0  0  0  0
 11 13  1  0  0  0  0
 12 15  1  6  0  0  0
 12 35  1  0  0  0  0
 12  4  1  0  0  0  0
 12  2  1  0  0  0  0
 14  7  1  0  0  0  0
 16 17  2  0  0  0  0
 16 22  1  0  0  0  0
 17 18  1  0  0  0  0
 18 21  2  0  0  0  0
 20 21  1  0  0  0  0
 21 19  1  0  0  0  0
 22 20  2  0  0  0  0
 25 23  1  0  0  0  0
 26 25  2  0  0  0  0
 27 26  1  6  0  0  0
 27 24  1  0  0  0  0
 28 24  1  1  0  0  0
 28 23  1  0  0  0  0
 28 29  1  0  0  0  0
 29 30  1  0  0  0  0
 29 32  1  0  0  0  0
 30 32  1  0  0  0  0
 31 29  1  0  0  0  0
 34 33  1  0  0  0  0
 37 35  1  0  0  0  0
 37 36  1  0  0  0  0
M  END
>  <MODEL>
4

>  <REMARK>
 VINA RESULT:      -2.6      2.260      3.462
  Name = 
  6 active torsions:
  status: ('A' for Active; 'I' for Inactive)
    1  A    between atoms: C_3  and  C_30
    2  A    between atoms: C_4  and  C_28
    3  A    between atoms: C_5  and  C_23
    4  A    between atoms: C_6  and  C_7
    5  A    between atoms: C_14  and  C_31
    6  A    between atoms: C_14  and  C_37
                            x       y       z     vdW  Elec       q    Type
                         _______ _______ _______ _____ _____    ______ ____

>  <TORSDO>
F 6

$$$$
=
 OpenBabel10272414513D

 37 42  0  0  1  0  0  0  0  0999 V2000
  186.6050  177.3310  137.5410 C   0  0  2  0  0  3  0  0  0  0  0  0
  185.0650  177.1560  137.3510 C   0  0  1  0  0  0  0  0  0  0  0  0
  188.4810  177.9940  139.1520 C   0  0  1  0  0  3  0  0  0  0  0  0
  184.6170  176.5360  136.0000 C   0  0  1  0  0  0  0  0  0  0  0  0
  186.0120  177.3870  134.3930 C   0  0  0  0  0  2  0  0  0  0  0  0
  189.1460  176.9890  138.4440 O   0  0  0  0  0  0  0  0  0  0  0  0
  188.7170  177.7430  136.1990 C   0  0  0  0  0  0  0  0  0  0  0  0
  186.9780  177.9160  138.9080 C   0  0  0  0  0  2  0  0  0  0  0  0
  189.1790  177.7110  135.0280 O   0  0  0  0  0  0  0  0  0  0  0  0
  185.6720  176.2230  135.1180 O   0  0  0  0  0  0  0  0  0  0  0  0
  187.3060  177.9740  136.4090 N   0  0  0  0  0  0  0  0  0  0  0  0
  184.5890  175.6860  137.2850 C   0  0  1  0  0  0  0  0  0  0  0  0
  186.5370  178.5170  135.2900 C   0  0  0  0  0  2  0  0  0  0  0  0
  189.6920  177.6490  137.3390 C   0  0  0  0  0  2  0  0  0  0  0  0
  185.6740  174.6160  137.4180 C   0  0  0  0  0  1  0  0  0  0  0  0
  182.3970  175.7640  135.0320 C   0  0  0  0  0  3  0  0  0  0  0  0
  183.2680  176.8130  135.3620 C   0  0  0  0  0  0  0  0  0  0  0  0
  182.8230  178.1360  135.2260 C   0  0  0  0  0  3  0  0  0  0  0  0
  181.1410  179.6880  134.5610 F   0  0  0  0  0  0  0  0  0  0  0  0
  180.7060  177.3540  134.3510 C   0  0  0  0  0  3  0  0  0  0  0  0
  181.5530  178.4070  134.7080 C   0  0  0  0  0  0  0  0  0  0  0  0
  181.1260  176.0330  134.5190 C   0  0  0  0  0  3  0  0  0  0  0  0
  182.2830  178.2330  140.2940 C   0  0  0  0  0  2  0  0  0  0  0  0
  184.5310  178.7030  139.3370 C   0  0  0  0  0  2  0  0  0  0  0  0
  181.8280  177.7550  138.9450 C   0  0  0  0  0  3  0  0  0  0  0  0
  182.6410  177.7630  137.8790 C   0  0  0  0  0  3  0  0  0  0  0  0
  184.0890  178.2000  137.9510 C   0  0  2  0  0  3  0  0  0  0  0  0
  183.7870  177.9990  140.4700 C   0  0  1  0  0  3  0  0  0  0  0  0
  184.3460  178.4310  141.8330 C   0  0  0  0  0  0  0  0  0  0  0  0
  185.5480  179.3520  141.8360 C   0  0  0  0  0  2  0  0  0  0  0  0
  183.3860  178.6770  142.9810 C   0  0  0  0  0  1  0  0  0  0  0  0
  185.6990  177.8880  142.2420 C   0  0  0  0  0  2  0  0  0  0  0  0
  189.9520  177.1370  140.8230 O   0  0  0  0  0  1  0  0  0  0  0  0
  188.7780  177.8670  140.6350 C   0  0  0  0  0  2  0  0  0  0  0  0
  183.2400  175.3930  137.9550 C   0  0  0  0  0  2  0  0  0  0  0  0
  181.3730  173.8870  137.5980 N   0  0  0  0  0  1  0  0  0  0  0  0
  182.8150  173.9500  137.7470 C   0  0  0  0  0  2  0  0  0  0  0  0
  1  8  1  1  0  0  0
  2  1  1  0  0  0  0
  2 27  1  1  0  0  0
  3 34  1  1  0  0  0
  4 17  1  6  0  0  0
  4 12  1  0  0  0  0
  4  2  1  0  0  0  0
  5 10  1  0  0  0  0
  5 13  1  0  0  0  0
  6  3  1  0  0  0  0
  7 11  1  0  0  0  0
  7 14  1  0  0  0  0
  8  3  1  0  0  0  0
  9  7  2  0  0  0  0
 10  4  1  0  0  0  0
 11  1  1  0  0  0  0
 12  2  1  0  0  0  0
 12 15  1  1  0  0  0
 12 35  1  0  0  0  0
 13 11  1  0  0  0  0
 14  6  1  0  0  0  0
 16 17  1  0  0  0  0
 18 17  2  0  0  0  0
 19 21  1  0  0  0  0
 20 22  1  0  0  0  0
 20 21  2  0  0  0  0
 21 18  1  0  0  0  0
 22 16  2  0  0  0  0
 23 28  1  0  0  0  0
 25 23  1  0  0  0  0
 26 25  2  0  0  0  0
 27 26  1  1  0  0  0
 27 24  1  0  0  0  0
 28 24  1  6  0  0  0
 28 29  1  0  0  0  0
 29 30  1  0  0  0  0
 29 32  1  0  0  0  0
 29 31  1  0  0  0  0
 30 32  1  0  0  0  0
 34 33  1  0  0  0  0
 36 37  1  0  0  0  0
 37 35  1  0  0  0  0
M  END
>  <MODEL>
5

>  <REMARK>
 VINA RESULT:      -2.3      3.158      5.995
  Name = 
  6 active torsions:
  status: ('A' for Active; 'I' for Inactive)
    1  A    between atoms: C_3  and  C_30
    2  A    between atoms: C_4  and  C_28
    3  A    between atoms: C_5  and  C_23
    4  A    between atoms: C_6  and  C_7
    5  A    between atoms: C_14  and  C_31
    6  A    between atoms: C_14  and  C_37
                            x       y       z     vdW  Elec       q    Type
                         _______ _______ _______ _____ _____    ______ ____

>  <TORSDO>
F 6

$$$$
=
 OpenBabel10272414513D

 37 42  0  0  1  0  0  0  0  0999 V2000
  185.2800  178.4960  138.3360 C   0  0  2  0  0  3  0  0  0  0  0  0
  183.7560  178.4290  138.6750 C   0  0  1  0  0  0  0  0  0  0  0  0
  187.0790  178.0630  136.5670 C   0  0  1  0  0  3  0  0  0  0  0  0
  183.3410  179.0370  140.0410 C   0  0  1  0  0  0  0  0  0  0  0  0
  185.0040  178.5070  141.5270 C   0  0  0  0  0  2  0  0  0  0  0  0
  187.6320  179.1970  137.1680 O   0  0  0  0  0  0  0  0  0  0  0  0
  187.5480  178.5000  139.4700 C   0  0  0  0  0  0  0  0  0  0  0  0
  185.6140  177.9090  136.9600 C   0  0  0  0  0  2  0  0  0  0  0  0
  188.1070  178.6660  140.5860 O   0  0  0  0  0  0  0  0  0  0  0  0
  184.4080  179.5620  140.8010 O   0  0  0  0  0  0  0  0  0  0  0  0
  186.1810  178.0340  139.4120 N   0  0  0  0  0  0  0  0  0  0  0  0
  183.0520  179.8040  138.7370 C   0  0  1  0  0  0  0  0  0  0  0  0
  185.6220  177.4320  140.6220 C   0  0  0  0  0  2  0  0  0  0  0  0
  188.3820  178.6910  138.2350 C   0  0  0  0  0  2  0  0  0  0  0  0
  183.9270  181.0280  138.4560 C   0  0  0  0  0  1  0  0  0  0  0  0
  181.3240  177.5240  140.3600 C   0  0  0  0  0  3  0  0  0  0  0  0
  182.1230  178.5800  140.8220 C   0  0  0  0  0  0  0  0  0  0  0  0
  181.8670  179.1230  142.0900 C   0  0  0  0  0  3  0  0  0  0  0  0
  180.5420  179.2060  144.0690 F   0  0  0  0  0  0  0  0  0  0  0  0
  179.9820  177.6300  142.3700 C   0  0  0  0  0  3  0  0  0  0  0  0
  180.7920  178.6610  142.8550 C   0  0  0  0  0  0  0  0  0  0  0  0
  180.2520  177.0580  141.1250 C   0  0  0  0  0  3  0  0  0  0  0  0
  183.0780  175.3310  135.9350 C   0  0  0  0  0  2  0  0  0  0  0  0
  183.6960  175.8860  138.2800 C   0  0  0  0  0  2  0  0  0  0  0  0
  182.2960  176.6110  135.8570 C   0  0  0  0  0  3  0  0  0  0  0  0
  182.2040  177.4510  136.8980 C   0  0  0  0  0  3  0  0  0  0  0  0
  182.9160  177.2120  138.2140 C   0  0  2  0  0  3  0  0  0  0  0  0
  184.2460  175.4720  136.9170 C   0  0  1  0  0  3  0  0  0  0  0  0
  185.1260  174.2200  137.0480 C   0  0  0  0  0  0  0  0  0  0  0  0
  184.7140  172.9920  136.2650 C   0  0  0  0  0  2  0  0  0  0  0  0
  186.6270  174.3830  137.1840 C   0  0  0  0  0  1  0  0  0  0  0  0
  184.5460  173.0300  137.7820 C   0  0  0  0  0  2  0  0  0  0  0  0
  186.0740  177.6260  134.4490 O   0  0  0  0  0  1  0  0  0  0  0  0
  187.2100  178.1590  135.0580 C   0  0  0  0  0  2  0  0  0  0  0  0
  181.6160  179.8410  138.1970 C   0  0  0  0  0  2  0  0  0  0  0  0
  180.3330  181.3570  139.5880 N   0  0  0  0  0  1  0  0  0  0  0  0
  181.0110  181.2290  138.3120 C   0  0  0  0  0  2  0  0  0  0  0  0
  1  8  1  6  0  0  0
  1  2  1  0  0  0  0
  1 11  1  0  0  0  0
  2 27  1  6  0  0  0
  2 12  1  0  0  0  0
  2  4  1  0  0  0  0
  3 34  1  6  0  0  0
  3  8  1  0  0  0  0
  3  6  1  0  0  0  0
  4 10  1  0  0  0  0
  4 17  1  1  0  0  0
  6 14  1  0  0  0  0
  7  9  2  0  0  0  0
 10  5  1  0  0  0  0
 11  7  1  0  0  0  0
 11 13  1  0  0  0  0
 12 15  1  6  0  0  0
 12  4  1  0  0  0  0
 13  5  1  0  0  0  0
 14  7  1  0  0  0  0
 16 17  2  0  0  0  0
 16 22  1  0  0  0  0
 17 18  1  0  0  0  0
 18 21  2  0  0  0  0
 20 21  1  0  0  0  0
 21 19  1  0  0  0  0
 22 20  2  0  0  0  0
 25 23  1  0  0  0  0
 25 26  2  0  0  0  0
 27 26  1  6  0  0  0
 27 24  1  0  0  0  0
 28 23  1  6  0  0  0
 28 29  1  0  0  0  0
 28 24  1  0  0  0  0
 29 31  1  0  0  0  0
 29 32  1  0  0  0  0
 30 29  1  0  0  0  0
 30 32  1  0  0  0  0
 33 34  1  0  0  0  0
 35 37  1  0  0  0  0
 35 12  1  0  0  0  0
 37 36  1  0  0  0  0
M  END
>  <MODEL>
6

>  <REMARK>
 VINA RESULT:      -2.3      3.238      6.939
  Name = 
  6 active torsions:
  status: ('A' for Active; 'I' for Inactive)
    1  A    between atoms: C_3  and  C_30
    2  A    between atoms: C_4  and  C_28
    3  A    between atoms: C_5  and  C_23
    4  A    between atoms: C_6  and  C_7
    5  A    between atoms: C_14  and  C_31
    6  A    between atoms: C_14  and  C_37
                            x       y       z     vdW  Elec       q    Type
                         _______ _______ _______ _____ _____    ______ ____

>  <TORSDO>
F 6

$$$$
=
 OpenBabel10272414513D

 37 42  0  0  1  0  0  0  0  0999 V2000
  186.8510  175.7000  136.2510 C   0  0  2  0  0  3  0  0  0  0  0  0
  185.3720  175.8800  136.7200 C   0  0  1  0  0  0  0  0  0  0  0  0
  188.5960  174.0770  135.3150 C   0  0  1  0  0  3  0  0  0  0  0  0
  184.9500  177.3300  137.0830 C   0  0  1  0  0  0  0  0  0  0  0  0
  186.7470  178.2940  138.1280 C   0  0  0  0  0  2  0  0  0  0  0  0
  189.0170  175.2440  134.6730 O   0  0  0  0  0  0  0  0  0  0  0  0
  189.1540  176.7100  136.5770 C   0  0  0  0  0  0  0  0  0  0  0  0
  187.1890  174.2530  135.8770 C   0  0  0  0  0  2  0  0  0  0  0  0
  189.7430  177.7360  137.0090 O   0  0  0  0  0  0  0  0  0  0  0  0
  185.9730  178.2920  136.9470 O   0  0  0  0  0  0  0  0  0  0  0  0
  187.8640  176.3420  137.1150 N   0  0  0  0  0  0  0  0  0  0  0  0
  184.4870  176.7020  135.7540 C   0  0  1  0  0  0  0  0  0  0  0  0
  187.4590  176.9570  138.3780 C   0  0  0  0  0  2  0  0  0  0  0  0
  189.8860  175.8480  135.5880 C   0  0  0  0  0  2  0  0  0  0  0  0
  185.1680  177.2160  134.4830 C   0  0  0  0  0  1  0  0  0  0  0  0
  184.0020  177.3600  139.4410 C   0  0  0  0  0  3  0  0  0  0  0  0
  183.8510  177.6540  138.0770 C   0  0  0  0  0  0  0  0  0  0  0  0
  182.7280  178.3820  137.6580 C   0  0  0  0  0  3  0  0  0  0  0  0
  180.6510  179.4400  138.1560 F   0  0  0  0  0  0  0  0  0  0  0  0
  181.8850  178.4260  139.9260 C   0  0  0  0  0  3  0  0  0  0  0  0
  181.7410  178.7550  138.5760 C   0  0  0  0  0  0  0  0  0  0  0  0
  183.0180  177.7340  140.3600 C   0  0  0  0  0  3  0  0  0  0  0  0
  182.6280  172.7230  136.9680 C   0  0  0  0  0  2  0  0  0  0  0  0
  185.0330  173.3520  137.0600 C   0  0  0  0  0  2  0  0  0  0  0  0
  182.2690  174.0940  137.4650 C   0  0  0  0  0  3  0  0  0  0  0  0
  183.2030  175.0120  137.7520 C   0  0  0  0  0  3  0  0  0  0  0  0
  184.6850  174.7680  137.5520 C   0  0  2  0  0  3  0  0  0  0  0  0
  183.9380  172.7640  136.1730 C   0  0  1  0  0  3  0  0  0  0  0  0
  184.3790  171.4100  135.5980 C   0  0  0  0  0  0  0  0  0  0  0  0
  185.8470  171.0540  135.6940 C   0  0  0  0  0  2  0  0  0  0  0  0
  183.4520  170.2160  135.7240 C   0  0  0  0  0  1  0  0  0  0  0  0
  185.2300  171.4230  134.3460 C   0  0  0  0  0  2  0  0  0  0  0  0
  189.1850  171.7920  134.9710 O   0  0  0  0  0  1  0  0  0  0  0  0
  188.6310  172.9090  134.3460 C   0  0  0  0  0  2  0  0  0  0  0  0
  183.0330  176.2300  135.6200 C   0  0  0  0  0  2  0  0  0  0  0  0
  181.0160  177.1290  134.6170 N   0  0  0  0  0  1  0  0  0  0  0  0
  182.3920  176.7540  134.3460 C   0  0  0  0  0  2  0  0  0  0  0  0
  1  8  1  1  0  0  0
  1  2  1  0  0  0  0
  1 11  1  0  0  0  0
  2  4  1  0  0  0  0
  2 27  1  1  0  0  0
  3 34  1  6  0  0  0
  3  8  1  0  0  0  0
  4 17  1  1  0  0  0
  5 13  1  0  0  0  0
  6  3  1  0  0  0  0
  6 14  1  0  0  0  0
  7  9  2  0  0  0  0
  7 11  1  0  0  0  0
 10  4  1  0  0  0  0
 10  5  1  0  0  0  0
 11 13  1  0  0  0  0
 12 15  1  6  0  0  0
 12  2  1  0  0  0  0
 12  4  1  0  0  0  0
 14  7  1  0  0  0  0
 16 22  1  0  0  0  0
 17 16  2  0  0  0  0
 18 17  1  0  0  0  0
 18 21  2  0  0  0  0
 19 21  1  0  0  0  0
 20 22  2  0  0  0  0
 21 20  1  0  0  0  0
 23 25  1  0  0  0  0
 25 26  2  0  0  0  0
 27 24  1  6  0  0  0
 27 26  1  0  0  0  0
 28 29  1  1  0  0  0
 28 23  1  0  0  0  0
 28 24  1  0  0  0  0
 29 30  1  0  0  0  0
 29 31  1  0  0  0  0
 32 29  1  0  0  0  0
 32 30  1  0  0  0  0
 34 33  1  0  0  0  0
 35 12  1  0  0  0  0
 37 36  1  0  0  0  0
 37 35  1  0  0  0  0
M  END
>  <MODEL>
7

>  <REMARK>
 VINA RESULT:      -2.1      3.181      7.224
  Name = 
  6 active torsions:
  status: ('A' for Active; 'I' for Inactive)
    1  A    between atoms: C_3  and  C_30
    2  A    between atoms: C_4  and  C_28
    3  A    between atoms: C_5  and  C_23
    4  A    between atoms: C_6  and  C_7
    5  A    between atoms: C_14  and  C_31
    6  A    between atoms: C_14  and  C_37
                            x       y       z     vdW  Elec       q    Type
                         _______ _______ _______ _____ _____    ______ ____

>  <TORSDO>
F 6

$$$$
=
 OpenBabel10272414513D

 37 42  0  0  1  0  0  0  0  0999 V2000
  187.3560  176.3730  136.4900 C   0  0  2  0  0  3  0  0  0  0  0  0
  185.8100  176.3170  136.7100 C   0  0  1  0  0  0  0  0  0  0  0  0
  189.4070  175.1710  135.5410 C   0  0  1  0  0  3  0  0  0  0  0  0
  185.1670  177.5950  137.3130 C   0  0  1  0  0  0  0  0  0  0  0  0
  186.6480  178.4040  138.8640 C   0  0  0  0  0  2  0  0  0  0  0  0
  189.7840  176.4890  135.2740 O   0  0  0  0  0  0  0  0  0  0  0  0
  189.4410  177.4440  137.4570 C   0  0  0  0  0  0  0  0  0  0  0  0
  187.9190  175.0940  135.8610 C   0  0  0  0  0  2  0  0  0  0  0  0
  189.8290  178.3720  138.2140 O   0  0  0  0  0  0  0  0  0  0  0  0
  186.0780  178.6360  137.5930 O   0  0  0  0  0  0  0  0  0  0  0  0
  188.1360  176.8560  137.6490 N   0  0  0  0  0  0  0  0  0  0  0  0
  185.0000  177.2830  135.8140 C   0  0  1  0  0  0  0  0  0  0  0  0
  187.4650  177.1050  138.9250 C   0  0  0  0  0  2  0  0  0  0  0  0
  190.4180  176.9120  136.4470 C   0  0  0  0  0  2  0  0  0  0  0  0
  185.8080  178.1470  134.8430 C   0  0  0  0  0  1  0  0  0  0  0  0
  183.6410  176.5460  139.0540 C   0  0  0  0  0  3  0  0  0  0  0  0
  183.8930  177.5780  138.1380 C   0  0  0  0  0  0  0  0  0  0  0  0
  183.0200  178.6740  138.0880 C   0  0  0  0  0  3  0  0  0  0  0  0
  181.0320  179.7620  138.8250 F   0  0  0  0  0  0  0  0  0  0  0  0
  181.6190  177.6590  139.7820 C   0  0  0  0  0  3  0  0  0  0  0  0
  181.8790  178.7080  138.8960 C   0  0  0  0  0  0  0  0  0  0  0  0
  182.5040  176.5810  139.8650 C   0  0  0  0  0  3  0  0  0  0  0  0
  184.7660  172.3610  135.8030 C   0  0  0  0  0  2  0  0  0  0  0  0
  186.1410  173.8270  137.2700 C   0  0  0  0  0  2  0  0  0  0  0  0
  183.7650  173.4720  135.6610 C   0  0  0  0  0  3  0  0  0  0  0  0
  183.9220  174.6520  136.2780 C   0  0  0  0  0  3  0  0  0  0  0  0
  185.1360  174.9840  137.1220 C   0  0  2  0  0  3  0  0  0  0  0  0
  186.1710  172.9280  136.0360 C   0  0  1  0  0  3  0  0  0  0  0  0
  187.2740  171.8680  136.1670 C   0  0  0  0  0  0  0  0  0  0  0  0
  187.9140  171.3630  134.8920 C   0  0  0  0  0  2  0  0  0  0  0  0
  188.2280  171.9370  137.3440 C   0  0  0  0  0  1  0  0  0  0  0  0
  186.9630  170.4680  135.6830 C   0  0  0  0  0  2  0  0  0  0  0  0
  190.8650  173.5180  134.6290 O   0  0  0  0  0  1  0  0  0  0  0  0
  189.7340  174.2860  134.3510 C   0  0  0  0  0  2  0  0  0  0  0  0
  183.6520  176.7490  135.3100 C   0  0  0  0  0  2  0  0  0  0  0  0
  181.4610  177.7160  134.9270 N   0  0  0  0  0  1  0  0  0  0  0  0
  182.8650  177.8220  134.5770 C   0  0  0  0  0  2  0  0  0  0  0  0
  1  8  1  1  0  0  0
  1  2  1  0  0  0  0
  1 11  1  0  0  0  0
  2 27  1  1  0  0  0
  2  4  1  0  0  0  0
  3 34  1  6  0  0  0
  3  8  1  0  0  0  0
  4 10  1  0  0  0  0
  4 17  1  1  0  0  0
  5 13  1  0  0  0  0
  6  3  1  0  0  0  0
  6 14  1  0  0  0  0
  7 11  1  0  0  0  0
  7  9  2  0  0  0  0
 10  5  1  0  0  0  0
 11 13  1  0  0  0  0
 12 15  1  6  0  0  0
 12  2  1  0  0  0  0
 12  4  1  0  0  0  0
 14  7  1  0  0  0  0
 16 22  1  0  0  0  0
 17 16  2  0  0  0  0
 18 17  1  0  0  0  0
 18 21  2  0  0  0  0
 19 21  1  0  0  0  0
 20 22  2  0  0  0  0
 21 20  1  0  0  0  0
 25 23  1  0  0  0  0
 25 26  2  0  0  0  0
 27 26  1  6  0  0  0
 27 24  1  0  0  0  0
 28 23  1  1  0  0  0
 28 29  1  0  0  0  0
 28 24  1  0  0  0  0
 29 31  1  0  0  0  0
 30 32  1  0  0  0  0
 30 29  1  0  0  0  0
 32 29  1  0  0  0  0
 34 33  1  0  0  0  0
 35 12  1  0  0  0  0
 37 36  1  0  0  0  0
 37 35  1  0  0  0  0
M  END
>  <MODEL>
8

>  <REMARK>
 VINA RESULT:      -2.0      3.267      7.495
  Name = 
  6 active torsions:
  status: ('A' for Active; 'I' for Inactive)
    1  A    between atoms: C_3  and  C_30
    2  A    between atoms: C_4  and  C_28
    3  A    between atoms: C_5  and  C_23
    4  A    between atoms: C_6  and  C_7
    5  A    between atoms: C_14  and  C_31
    6  A    between atoms: C_14  and  C_37
                            x       y       z     vdW  Elec       q    Type
                         _______ _______ _______ _____ _____    ______ ____

>  <TORSDO>
F 6

$$$$
=
 OpenBabel10272414513D

 37 42  0  0  1  0  0  0  0  0999 V2000
  187.1060  175.7840  136.3000 C   0  0  2  0  0  3  0  0  0  0  0  0
  185.6360  176.0560  136.7540 C   0  0  1  0  0  0  0  0  0  0  0  0
  188.7560  174.0540  135.3830 C   0  0  1  0  0  3  0  0  0  0  0  0
  185.3010  177.5290  137.1120 C   0  0  1  0  0  0  0  0  0  0  0  0
  187.1440  178.3800  138.1760 C   0  0  0  0  0  2  0  0  0  0  0  0
  189.2560  175.1920  134.7460 O   0  0  0  0  0  0  0  0  0  0  0  0
  189.4630  176.6480  136.6510 C   0  0  0  0  0  0  0  0  0  0  0  0
  187.3570  174.3170  135.9300 C   0  0  0  0  0  2  0  0  0  0  0  0
  190.1110  177.6360  137.0890 O   0  0  0  0  0  0  0  0  0  0  0  0
  186.3840  178.4260  136.9870 O   0  0  0  0  0  0  0  0  0  0  0  0
  188.1480  176.3610  137.1750 N   0  0  0  0  0  0  0  0  0  0  0  0
  184.8150  176.9300  135.7780 C   0  0  1  0  0  0  0  0  0  0  0  0
  187.7690  177.0010  138.4340 C   0  0  0  0  0  2  0  0  0  0  0  0
  190.1510  175.7410  135.6700 C   0  0  0  0  0  2  0  0  0  0  0  0
  185.5400  177.4000  134.5150 C   0  0  0  0  0  1  0  0  0  0  0  0
  182.9750  178.4010  137.6460 C   0  0  0  0  0  3  0  0  0  0  0  0
  184.2140  177.9220  138.0950 C   0  0  0  0  0  0  0  0  0  0  0  0
  184.3940  177.6750  139.4630 C   0  0  0  0  0  3  0  0  0  0  0  0
  183.5660  177.7390  141.6970 F   0  0  0  0  0  0  0  0  0  0  0  0
  182.1550  178.4720  139.9210 C   0  0  0  0  0  3  0  0  0  0  0  0
  183.3740  177.9630  140.3760 C   0  0  0  0  0  0  0  0  0  0  0  0
  181.9530  178.6860  138.5560 C   0  0  0  0  0  3  0  0  0  0  0  0
  182.7320  173.0410  136.9590 C   0  0  0  0  0  2  0  0  0  0  0  0
  185.1630  173.5510  137.1110 C   0  0  0  0  0  2  0  0  0  0  0  0
  182.4280  174.4340  137.4320 C   0  0  0  0  0  3  0  0  0  0  0  0
  183.3990  175.3080  137.7340 C   0  0  0  0  0  3  0  0  0  0  0  0
  184.8720  174.9890  137.5780 C   0  0  2  0  0  3  0  0  0  0  0  0
  184.0640  173.0080  136.2000 C   0  0  1  0  0  3  0  0  0  0  0  0
  184.4520  171.6270  135.6520 C   0  0  0  0  0  0  0  0  0  0  0  0
  185.9120  171.2350  135.7140 C   0  0  0  0  0  2  0  0  0  0  0  0
  183.4990  170.4620  135.8410 C   0  0  0  0  0  1  0  0  0  0  0  0
  185.2640  171.5820  134.3750 C   0  0  0  0  0  2  0  0  0  0  0  0
  189.3520  171.7790  134.9900 O   0  0  0  0  0  1  0  0  0  0  0  0
  188.7280  172.8860  134.4140 C   0  0  0  0  0  2  0  0  0  0  0  0
  183.3350  176.5500  135.6280 C   0  0  0  0  0  2  0  0  0  0  0  0
  181.2940  177.0400  134.4140 N   0  0  0  0  0  1  0  0  0  0  0  0
  182.7420  177.1120  134.3470 C   0  0  0  0  0  2  0  0  0  0  0  0
  1  8  1  1  0  0  0
  1  2  1  0  0  0  0
  1 11  1  0  0  0  0
  2  4  1  0  0  0  0
  2 27  1  1  0  0  0
  3 34  1  6  0  0  0
  3  8  1  0  0  0  0
  4 17  1  1  0  0  0
  5 13  1  0  0  0  0
  6  3  1  0  0  0  0
  6 14  1  0  0  0  0
  7  9  2  0  0  0  0
  7 11  1  0  0  0  0
 10  4  1  0  0  0  0
 10  5  1  0  0  0  0
 11 13  1  0  0  0  0
 12 15  1  6  0  0  0
 12  2  1  0  0  0  0
 12  4  1  0  0  0  0
 14  7  1  0  0  0  0
 16 17  2  0  0  0  0
 16 22  1  0  0  0  0
 17 18  1  0  0  0  0
 18 21  2  0  0  0  0
 20 21  1  0  0  0  0
 21 19  1  0  0  0  0
 22 20  2  0  0  0  0
 23 25  1  0  0  0  0
 25 26  2  0  0  0  0
 27 24  1  6  0  0  0
 27 26  1  0  0  0  0
 28 29  1  1  0  0  0
 28 23  1  0  0  0  0
 28 24  1  0  0  0  0
 29 30  1  0  0  0  0
 29 31  1  0  0  0  0
 32 29  1  0  0  0  0
 32 30  1  0  0  0  0
 34 33  1  0  0  0  0
 35 12  1  0  0  0  0
 37 36  1  0  0  0  0
 37 35  1  0  0  0  0
M  END
>  <MODEL>
9

>  <REMARK>
 VINA RESULT:      -1.9      3.102      7.194
  Name = 
  6 active torsions:
  status: ('A' for Active; 'I' for Inactive)
    1  A    between atoms: C_3  and  C_30
    2  A    between atoms: C_4  and  C_28
    3  A    between atoms: C_5  and  C_23
    4  A    between atoms: C_6  and  C_7
    5  A    between atoms: C_14  and  C_31
    6  A    between atoms: C_14  and  C_37
                            x       y       z     vdW  Elec       q    Type
                         _______ _______ _______ _____ _____    ______ ____

>  <TORSDO>
F 6

$$$$
