=
 OpenBabel10272400023D

 34 41  0  0  1  0  0  0  0  0999 V2000
  187.1870  177.7600  145.5440 C   0  0  0  0  0  0  0  0  0  0  0  0
  188.9590  177.5970  143.8330 C   0  0  0  0  0  0  0  0  0  0  0  0
  186.6710  178.0520  143.2120 C   0  0  0  0  0  0  0  0  0  0  0  0
  186.3420  178.3350  140.9030 C   0  0  0  0  0  0  0  0  0  0  0  0
  189.4860  177.3050  146.1840 C   0  0  0  0  0  3  0  0  0  0  0  0
  180.9630  179.4250  143.3080 C   0  0  1  0  0  0  0  0  0  0  0  0
  180.5540  180.1170  142.1580 O   0  0  0  0  0  0  0  0  0  0  0  0
  189.8960  177.3510  144.8390 C   0  0  0  0  0  3  0  0  0  0  0  0
  188.3550  177.8930  141.5790 C   0  0  0  0  0  0  0  0  0  0  0  0
  183.0560  178.7610  142.4950 N   0  0  0  0  0  0  0  0  0  0  0  0
  187.6030  177.7960  144.2080 C   0  0  2  0  0  3  0  0  0  0  0  0
  180.7180  178.7160  142.0380 C   0  0  1  0  0  3  0  0  0  0  0  0
  187.1150  178.3360  139.7400 C   0  0  0  0  0  3  0  0  0  0  0  0
  188.1400  177.5070  146.5360 C   0  0  0  0  0  3  0  0  0  0  0  0
  185.3180  178.2900  143.4700 C   0  0  0  0  0  0  0  0  0  0  0  0
  182.4380  179.3930  143.6420 C   0  0  0  0  0  2  0  0  0  0  0  0
  185.8290  177.9760  145.8460 C   0  0  0  0  0  3  0  0  0  0  0  0
  189.3280  177.6530  142.5060 N   0  0  0  0  0  0  0  0  0  0  0  0
  185.0110  178.5620  141.0680 N   0  0  0  0  0  0  0  0  0  0  0  0
  182.0950  178.4040  141.4650 C   0  0  0  0  0  2  0  0  0  0  0  0
  184.4680  178.5460  142.3410 C   0  0  0  0  0  0  0  0  0  0  0  0
  188.4280  178.0500  140.2040 C   0  0  0  0  0  0  0  0  0  0  0  0
  179.9820  179.2410  144.2790 O   0  0  0  0  0  1  0  0  0  0  0  0
  187.1020  178.0770  141.9530 N   0  0  0  0  0  0  0  0  0  0  0  0
  184.8980  178.2370  144.8160 C   0  0  0  0  0  3  0  0  0  0  0  0
  190.1530  176.8300  138.9520 C   0  0  0  0  0  3  0  0  0  0  0  0
  189.6590  177.9750  139.4100 C   0  0  0  0  0  3  0  0  0  0  0  0
  193.2090  177.3100  139.5670 C   0  0  0  0  0  1  0  0  0  0  0  0
  191.3990  176.8300  138.1300 C   0  0  1  0  0  3  0  0  0  0  0  0
  192.5120  176.2290  138.8920 N   0  0  0  0  0  0  0  0  0  0  0  0
  193.6820  176.1900  136.6840 C   0  0  0  0  0  2  0  0  0  0  0  0
  192.3700  176.2020  135.8980 C   0  0  0  0  0  2  0  0  0  0  0  0
  191.1440  176.1090  136.8020 C   0  0  0  0  0  2  0  0  0  0  0  0
  193.5030  175.5310  138.0540 C   0  0  0  0  0  2  0  0  0  0  0  0
  1 17  1  0  0  0  0
  1 14  2  0  0  0  0
  2 11  1  0  0  0  0
  2  8  1  0  0  0  0
  3 15  2  0  0  0  0
  4 19  1  0  0  0  0
  4 24  1  0  0  0  0
  5 14  1  0  0  0  0
  6 16  1  0  0  0  0
  6 23  1  1  0  0  0
  7  6  1  0  0  0  0
  8  5  2  0  0  0  0
  9 24  1  0  0  0  0
  9 18  1  0  0  0  0
 10 16  1  0  0  0  0
 11  3  1  1  0  0  0
 11  1  1  0  0  0  0
 12 20  1  6  0  0  0
 12  7  1  0  0  0  0
 12  6  1  0  0  0  0
 13 22  1  0  0  0  0
 13  4  2  0  0  0  0
 15 25  1  0  0  0  0
 18  2  2  0  0  0  0
 19 21  2  0  0  0  0
 20 10  1  0  0  0  0
 21 10  1  0  0  0  0
 21 15  1  0  0  0  0
 22  9  2  0  0  0  0
 24  3  1  0  0  0  0
 25 17  2  0  0  0  0
 26 27  2  0  0  0  0
 27 22  1  0  0  0  0
 29 30  1  0  0  0  0
 29 26  1  1  0  0  0
 30 28  1  0  0  0  0
 31 34  1  0  0  0  0
 32 31  1  0  0  0  0
 32 33  1  0  0  0  0
 33 29  1  0  0  0  0
 34 30  1  0  0  0  0
M  END
>  <MODEL>
1

>  <REMARK>
 VINA RESULT:     -10.4      0.000      0.000
  Name = 
  2 active torsions:
  status: ('A' for Active; 'I' for Inactive)
    1  A    between atoms: C_3  and  C_13
    2  A    between atoms: C_17  and  C_29
                            x       y       z     vdW  Elec       q    Type
                         _______ _______ _______ _____ _____    ______ ____

>  <TORSDO>
F 2

$$$$
=
 OpenBabel10272400023D

 34 41  0  0  1  0  0  0  0  0999 V2000
  190.0350  177.3770  140.4000 C   0  0  0  0  0  0  0  0  0  0  0  0
  188.0050  178.0410  139.1610 C   0  0  0  0  0  0  0  0  0  0  0  0
  188.0050  177.9220  141.5720 C   0  0  0  0  0  0  0  0  0  0  0  0
  185.9570  178.5090  142.5610 C   0  0  0  0  0  0  0  0  0  0  0  0
  190.0510  177.4960  137.9730 C   0  0  0  0  0  3  0  0  0  0  0  0
  189.6210  177.5550  147.2050 C   0  0  1  0  0  0  0  0  0  0  0  0
  188.7870  178.2950  148.0560 O   0  0  0  0  0  0  0  0  0  0  0  0
  188.7030  177.8990  137.9590 C   0  0  0  0  0  3  0  0  0  0  0  0
  186.0690  178.5510  140.3950 C   0  0  0  0  0  0  0  0  0  0  0  0
  188.2530  177.6790  145.3100 N   0  0  0  0  0  0  0  0  0  0  0  0
  188.6920  177.7710  140.3760 C   0  0  0  0  0  0  0  0  0  0  0  0
  188.2960  177.0460  147.6060 C   0  0  1  0  0  3  0  0  0  0  0  0
  184.6940  178.9410  142.1490 C   0  0  0  0  0  3  0  0  0  0  0  0
  190.7140  177.2360  139.1860 C   0  0  0  0  0  3  0  0  0  0  0  0
  188.5900  177.7110  142.8240 C   0  0  0  0  0  0  0  0  0  0  0  0
  189.6230  177.8900  145.7300 C   0  0  0  0  0  2  0  0  0  0  0  0
  190.6570  177.1360  141.6400 C   0  0  0  0  0  3  0  0  0  0  0  0
  186.6860  178.4380  139.1820 N   0  0  0  0  0  0  0  0  0  0  0  0
  186.4460  178.3090  143.8150 N   0  0  0  0  0  2  0  0  0  0  0  0
  187.3910  177.2510  146.3980 C   0  0  0  0  0  2  0  0  0  0  0  0
  187.7600  177.9100  143.9790 C   0  0  0  0  0  0  0  0  0  0  0  0
  184.7900  178.9660  140.7300 C   0  0  0  0  0  0  0  0  0  0  0  0
  190.7000  176.9260  147.8210 O   0  0  0  0  0  1  0  0  0  0  0  0
  186.7290  178.2960  141.5110 N   0  0  0  0  0  0  0  0  0  0  0  0
  189.9390  177.2990  142.8460 C   0  0  0  0  0  3  0  0  0  0  0  0
  182.5530  178.8460  139.7230 C   0  0  0  0  0  3  0  0  0  0  0  0
  183.7630  179.3920  139.7740 C   0  0  0  0  0  3  0  0  0  0  0  0
  180.2710  181.0220  139.7990 C   0  0  0  0  0  1  0  0  0  0  0  0
  181.5490  179.3440  138.7380 C   0  0  1  0  0  3  0  0  0  0  0  0
  181.3770  180.8040  138.8810 N   0  0  0  0  0  0  0  0  0  0  0  0
  180.1750  180.6310  136.6960 C   0  0  0  0  0  2  0  0  0  0  0  0
  180.8970  179.3390  136.3100 C   0  0  0  0  0  2  0  0  0  0  0  0
  181.9700  178.9430  137.3200 C   0  0  0  0  0  2  0  0  0  0  0  0
  181.0370  181.4920  137.6230 C   0  0  0  0  0  2  0  0  0  0  0  0
  1 17  1  0  0  0  0
  2 18  2  0  0  0  0
  2 11  1  0  0  0  0
  3 15  1  0  0  0  0
  4 19  1  0  0  0  0
  5 14  1  0  0  0  0
  6 12  1  0  0  0  0
  6 23  1  1  0  0  0
  6  7  1  0  0  0  0
  8  5  2  0  0  0  0
  8  2  1  0  0  0  0
  9 22  2  0  0  0  0
  9 24  1  0  0  0  0
 10 16  1  0  0  0  0
 10 20  1  0  0  0  0
 11  1  1  0  0  0  0
 11  3  2  0  0  0  0
 12 20  1  6  0  0  0
 12  7  1  0  0  0  0
 13  4  2  0  0  0  0
 14  1  2  0  0  0  0
 15 25  1  0  0  0  0
 15 21  2  0  0  0  0
 16  6  1  0  0  0  0
 17 25  2  0  0  0  0
 18  9  1  0  0  0  0
 19 21  1  0  0  0  0
 21 10  1  0  0  0  0
 22 13  1  0  0  0  0
 24  3  1  0  0  0  0
 24  4  1  0  0  0  0
 26 27  2  0  0  0  0
 27 22  1  0  0  0  0
 29 30  1  0  0  0  0
 29 26  1  1  0  0  0
 30 28  1  0  0  0  0
 31 34  1  0  0  0  0
 32 31  1  0  0  0  0
 32 33  1  0  0  0  0
 33 29  1  0  0  0  0
 34 30  1  0  0  0  0
M  END
>  <MODEL>
2

>  <REMARK>
 VINA RESULT:     -10.0      3.527      7.945
  Name = 
  2 active torsions:
  status: ('A' for Active; 'I' for Inactive)
    1  A    between atoms: C_3  and  C_13
    2  A    between atoms: C_17  and  C_29
                            x       y       z     vdW  Elec       q    Type
                         _______ _______ _______ _____ _____    ______ ____

>  <TORSDO>
F 2

$$$$
=
 OpenBabel10272400023D

 34 41  0  0  1  0  0  0  0  0999 V2000
  189.3130  177.1250  145.8050 C   0  0  0  0  0  0  0  0  0  0  0  0
  191.0250  176.8400  144.0480 C   0  0  0  0  0  0  0  0  0  0  0  0
  188.7520  177.4270  143.4840 C   0  0  0  0  0  0  0  0  0  0  0  0
  188.3770  177.7090  141.1830 C   0  0  0  0  0  0  0  0  0  0  0  0
  191.5980  176.5380  146.3870 C   0  0  0  0  0  3  0  0  0  0  0  0
  183.1420  179.1410  143.7200 C   0  0  1  0  0  0  0  0  0  0  0  0
  182.7430  179.8470  142.5750 O   0  0  0  0  0  0  0  0  0  0  0  0
  191.9730  176.5480  145.0320 C   0  0  0  0  0  3  0  0  0  0  0  0
  190.3780  177.1530  141.8090 C   0  0  0  0  0  0  0  0  0  0  0  0
  185.1670  178.3460  142.8580 N   0  0  0  0  0  0  0  0  0  0  0  0
  189.6940  177.1240  144.4580 C   0  0  2  0  0  3  0  0  0  0  0  0
  182.8190  178.4380  142.4650 C   0  0  1  0  0  3  0  0  0  0  0  0
  189.1160  177.6530  139.9990 C   0  0  0  0  0  3  0  0  0  0  0  0
  190.2760  176.8240  146.7730 C   0  0  0  0  0  3  0  0  0  0  0  0
  187.4230  177.7480  143.7770 C   0  0  0  0  0  0  0  0  0  0  0  0
  184.6200  179.0240  144.0150 C   0  0  0  0  0  2  0  0  0  0  0  0
  187.9800  177.4250  146.1410 C   0  0  0  0  0  3  0  0  0  0  0  0
  191.3600  176.8630  142.7110 N   0  0  0  0  0  0  0  0  0  0  0  0
  187.0670  178.0170  141.3810 N   0  0  0  0  0  0  0  0  0  0  0  0
  184.1590  178.0380  141.8580 C   0  0  0  0  0  2  0  0  0  0  0  0
  186.5600  178.0440  142.6680 C   0  0  0  0  0  0  0  0  0  0  0  0
  190.4220  177.2930  140.4300 C   0  0  0  0  0  0  0  0  0  0  0  0
  182.1780  179.0250  144.7190 O   0  0  0  0  0  1  0  0  0  0  0  0
  189.1490  177.4150  142.2140 N   0  0  0  0  0  0  0  0  0  0  0  0
  187.0380  177.7320  145.1340 C   0  0  0  0  0  3  0  0  0  0  0  0
  191.7070  176.2600  138.6100 C   0  0  0  0  0  3  0  0  0  0  0  0
  191.6240  177.1370  139.6040 C   0  0  0  0  0  3  0  0  0  0  0  0
  194.6860  175.4130  139.2090 C   0  0  0  0  0  1  0  0  0  0  0  0
  192.9540  176.1710  137.7950 C   0  0  1  0  0  3  0  0  0  0  0  0
  193.7390  174.9850  138.1930 N   0  0  0  0  0  0  0  0  0  0  0  0
  195.0270  175.4360  136.0990 C   0  0  0  0  0  2  0  0  0  0  0  0
  193.8650  176.1930  135.4520 C   0  0  0  0  0  2  0  0  0  0  0  0
  192.6000  176.1620  136.3040 C   0  0  0  0  0  2  0  0  0  0  0  0
  194.5210  174.3900  137.0950 C   0  0  0  0  0  2  0  0  0  0  0  0
  1 17  1  0  0  0  0
  1 14  2  0  0  0  0
  2 11  1  0  0  0  0
  2  8  1  0  0  0  0
  3 15  2  0  0  0  0
  4 19  1  0  0  0  0
  4 24  1  0  0  0  0
  5 14  1  0  0  0  0
  6 16  1  0  0  0  0
  6 23  1  1  0  0  0
  7  6  1  0  0  0  0
  8  5  2  0  0  0  0
  9 24  1  0  0  0  0
  9 18  1  0  0  0  0
 10 16  1  0  0  0  0
 11  3  1  1  0  0  0
 11  1  1  0  0  0  0
 12 20  1  6  0  0  0
 12  7  1  0  0  0  0
 12  6  1  0  0  0  0
 13 22  1  0  0  0  0
 13  4  2  0  0  0  0
 15 25  1  0  0  0  0
 18  2  2  0  0  0  0
 19 21  2  0  0  0  0
 20 10  1  0  0  0  0
 21 10  1  0  0  0  0
 21 15  1  0  0  0  0
 22  9  2  0  0  0  0
 24  3  1  0  0  0  0
 25 17  2  0  0  0  0
 26 27  2  0  0  0  0
 27 22  1  0  0  0  0
 29 30  1  0  0  0  0
 29 26  1  1  0  0  0
 30 28  1  0  0  0  0
 31 34  1  0  0  0  0
 32 31  1  0  0  0  0
 32 33  1  0  0  0  0
 33 29  1  0  0  0  0
 34 30  1  0  0  0  0
M  END
>  <MODEL>
3

>  <REMARK>
 VINA RESULT:      -9.6      1.362      2.111
  Name = 
  2 active torsions:
  status: ('A' for Active; 'I' for Inactive)
    1  A    between atoms: C_3  and  C_13
    2  A    between atoms: C_17  and  C_29
                            x       y       z     vdW  Elec       q    Type
                         _______ _______ _______ _____ _____    ______ ____

>  <TORSDO>
F 2

$$$$
=
 OpenBabel10272400023D

 34 41  0  0  1  0  0  0  0  0999 V2000
  190.4450  177.3130  140.2490 C   0  0  0  0  0  0  0  0  0  0  0  0
  188.2270  178.0420  139.4450 C   0  0  0  0  0  0  0  0  0  0  0  0
  188.6510  177.7220  141.8000 C   0  0  0  0  0  0  0  0  0  0  0  0
  186.8060  178.1870  143.1780 C   0  0  0  0  0  0  0  0  0  0  0  0
  190.0340  177.6360  137.8760 C   0  0  0  0  0  3  0  0  0  0  0  0
  191.2320  176.9120  147.0110 C   0  0  1  0  0  0  0  0  0  0  0  0
  190.5580  177.5620  148.0560 O   0  0  0  0  0  0  0  0  0  0  0  0
  188.7040  178.0140  138.1320 C   0  0  0  0  0  3  0  0  0  0  0  0
  186.5370  178.4120  141.0380 C   0  0  0  0  0  0  0  0  0  0  0  0
  189.5520  177.1700  145.4020 N   0  0  0  0  0  0  0  0  0  0  0  0
  189.1180  177.6830  140.4930 C   0  0  0  0  0  0  0  0  0  0  0  0
  189.9990  176.3470  147.5930 C   0  0  1  0  0  3  0  0  0  0  0  0
  185.4900  178.6290  143.0310 C   0  0  0  0  0  3  0  0  0  0  0  0
  190.9010  177.2860  138.9280 C   0  0  0  0  0  3  0  0  0  0  0  0
  189.4470  177.4170  142.9080 C   0  0  0  0  0  0  0  0  0  0  0  0
  190.9740  177.3690  145.5930 C   0  0  0  0  0  2  0  0  0  0  0  0
  191.2760  176.9800  141.3360 C   0  0  0  0  0  3  0  0  0  0  0  0
  186.9310  178.4130  139.7310 N   0  0  0  0  0  0  0  0  0  0  0  0
  187.5080  177.8910  144.3060 N   0  0  0  0  0  2  0  0  0  0  0  0
  188.8950  176.6370  146.5830 C   0  0  0  0  0  2  0  0  0  0  0  0
  188.8320  177.5030  144.2030 C   0  0  0  0  0  0  0  0  0  0  0  0
  185.3350  178.7750  141.6250 C   0  0  0  0  0  0  0  0  0  0  0  0
  192.4040  176.2520  147.3730 O   0  0  0  0  0  1  0  0  0  0  0  0
  187.3830  178.0770  141.9940 N   0  0  0  0  0  0  0  0  0  0  0  0
  190.7800  177.0280  142.6590 C   0  0  0  0  0  3  0  0  0  0  0  0
  183.3060  178.4510  140.2800 C   0  0  0  0  0  3  0  0  0  0  0  0
  184.1550  179.2610  140.9030 C   0  0  0  0  0  3  0  0  0  0  0  0
  180.1890  178.0640  140.5680 C   0  0  0  0  0  1  0  0  0  0  0  0
  182.1120  179.0140  139.5830 C   0  0  1  0  0  3  0  0  0  0  0  0
  181.0240  179.2540  140.5500 N   0  0  0  0  0  0  0  0  0  0  0  0
  179.9830  180.5560  138.6890 C   0  0  0  0  0  2  0  0  0  0  0  0
  181.3290  180.8080  138.0050 C   0  0  0  0  0  2  0  0  0  0  0  0
  182.5070  180.2840  138.8220 C   0  0  0  0  0  2  0  0  0  0  0  0
  180.1510  180.3890  140.2010 C   0  0  0  0  0  2  0  0  0  0  0  0
  1 11  1  0  0  0  0
  1 17  1  0  0  0  0
  2 18  2  0  0  0  0
  2 11  1  0  0  0  0
  3 24  1  0  0  0  0
  3 15  1  0  0  0  0
  4 19  1  0  0  0  0
  5  8  2  0  0  0  0
  5 14  1  0  0  0  0
  6 23  1  1  0  0  0
  6 12  1  0  0  0  0
  6  7  1  0  0  0  0
  8  2  1  0  0  0  0
  9 22  2  0  0  0  0
  9 24  1  0  0  0  0
 10 16  1  0  0  0  0
 10 20  1  0  0  0  0
 11  3  2  0  0  0  0
 12 20  1  6  0  0  0
 12  7  1  0  0  0  0
 13  4  2  0  0  0  0
 14  1  2  0  0  0  0
 15 21  2  0  0  0  0
 16  6  1  0  0  0  0
 17 25  2  0  0  0  0
 18  9  1  0  0  0  0
 21 19  1  0  0  0  0
 21 10  1  0  0  0  0
 22 13  1  0  0  0  0
 24  4  1  0  0  0  0
 25 15  1  0  0  0  0
 26 27  2  0  0  0  0
 27 22  1  0  0  0  0
 29 26  1  1  0  0  0
 29 30  1  0  0  0  0
 30 28  1  0  0  0  0
 31 34  1  0  0  0  0
 32 31  1  0  0  0  0
 32 33  1  0  0  0  0
 33 29  1  0  0  0  0
 34 30  1  0  0  0  0
M  END
>  <MODEL>
4

>  <REMARK>
 VINA RESULT:      -9.5      3.542      8.382
  Name = 
  2 active torsions:
  status: ('A' for Active; 'I' for Inactive)
    1  A    between atoms: C_3  and  C_13
    2  A    between atoms: C_17  and  C_29
                            x       y       z     vdW  Elec       q    Type
                         _______ _______ _______ _____ _____    ______ ____

>  <TORSDO>
F 2

$$$$
=
 OpenBabel10272400023D

 34 41  0  0  1  0  0  0  0  0999 V2000
  184.5550  178.5420  145.0560 C   0  0  0  0  0  0  0  0  0  0  0  0
  183.8830  178.7630  142.6900 C   0  0  0  0  0  0  0  0  0  0  0  0
  186.1720  178.2910  143.2920 C   0  0  0  0  0  0  0  0  0  0  0  0
  187.6160  178.0500  141.4550 C   0  0  0  0  0  0  0  0  0  0  0  0
  182.2450  179.0140  144.4640 C   0  0  0  0  0  3  0  0  0  0  0  0
  191.0570  176.8420  146.2090 C   0  0  1  0  0  0  0  0  0  0  0  0
  191.9880  176.1680  145.4040 O   0  0  0  0  0  0  0  0  0  0  0  0
  182.5670  179.0000  143.0950 C   0  0  0  0  0  3  0  0  0  0  0  0
  185.5360  178.5040  141.0380 C   0  0  0  0  0  0  0  0  0  0  0  0
  189.6570  177.5490  144.4710 N   0  0  0  0  0  0  0  0  0  0  0  0
  184.8660  178.5390  143.6910 C   0  0  0  0  0  0  0  0  0  0  0  0
  191.9090  177.5730  145.2520 C   0  0  1  0  0  3  0  0  0  0  0  0
  187.5330  178.0830  140.0610 C   0  0  0  0  0  3  0  0  0  0  0  0
  183.2330  178.7870  145.4400 C   0  0  0  0  0  3  0  0  0  0  0  0
  187.2120  178.0300  144.1890 C   0  0  0  0  0  0  0  0  0  0  0  0
  189.6150  176.8860  145.7580 C   0  0  0  0  0  2  0  0  0  0  0  0
  185.5770  178.3020  145.9940 C   0  0  0  0  0  3  0  0  0  0  0  0
  184.2300  178.7380  141.3570 N   0  0  0  0  0  0  0  0  0  0  0  0
  188.6840  177.8030  142.2610 N   0  0  0  0  0  2  0  0  0  0  0  0
  191.0060  177.9150  144.0720 C   0  0  0  0  0  2  0  0  0  0  0  0
  188.5140  177.7860  143.6330 C   0  0  0  0  0  0  0  0  0  0  0  0
  186.1650  178.3760  139.8090 C   0  0  0  0  0  0  0  0  0  0  0  0
  191.4180  176.9940  147.5460 O   0  0  0  0  0  1  0  0  0  0  0  0
  186.4320  178.2970  141.9870 N   0  0  0  0  0  0  0  0  0  0  0  0
  186.8990  178.0500  145.5640 C   0  0  0  0  0  3  0  0  0  0  0  0
  184.7220  177.5260  138.0120 C   0  0  0  0  0  3  0  0  0  0  0  0
  185.4990  178.4840  138.5070 C   0  0  0  0  0  3  0  0  0  0  0  0
  185.6280  177.1690  135.0120 C   0  0  0  0  0  1  0  0  0  0  0  0
  184.0580  177.7130  136.6890 C   0  0  1  0  0  3  0  0  0  0  0  0
  184.4860  176.6560  135.7510 N   0  0  0  0  0  0  0  0  0  0  0  0
  182.5860  177.4700  134.3460 C   0  0  0  0  0  2  0  0  0  0  0  0
  181.8440  178.0580  135.5480 C   0  0  0  0  0  2  0  0  0  0  0  0
  182.5370  177.7490  136.8720 C   0  0  0  0  0  2  0  0  0  0  0  0
  183.4610  176.2850  134.7600 C   0  0  0  0  0  2  0  0  0  0  0  0
  1 14  2  0  0  0  0
  1 17  1  0  0  0  0
  2  8  1  0  0  0  0
  2 11  1  0  0  0  0
  3 11  2  0  0  0  0
  3 15  1  0  0  0  0
  4 24  1  0  0  0  0
  4 19  1  0  0  0  0
  5 14  1  0  0  0  0
  6 23  1  1  0  0  0
  7  6  1  0  0  0  0
  8  5  2  0  0  0  0
  9 18  1  0  0  0  0
  9 24  1  0  0  0  0
 10 16  1  0  0  0  0
 11  1  1  0  0  0  0
 12 20  1  6  0  0  0
 12  7  1  0  0  0  0
 12  6  1  0  0  0  0
 13  4  2  0  0  0  0
 15 25  1  0  0  0  0
 16  6  1  0  0  0  0
 18  2  2  0  0  0  0
 19 21  1  0  0  0  0
 20 10  1  0  0  0  0
 21 15  2  0  0  0  0
 21 10  1  0  0  0  0
 22 13  1  0  0  0  0
 22  9  2  0  0  0  0
 24  3  1  0  0  0  0
 25 17  2  0  0  0  0
 26 27  2  0  0  0  0
 27 22  1  0  0  0  0
 28 30  1  0  0  0  0
 29 33  1  0  0  0  0
 29 26  1  1  0  0  0
 30 29  1  0  0  0  0
 31 34  1  0  0  0  0
 31 32  1  0  0  0  0
 32 33  1  0  0  0  0
 34 30  1  0  0  0  0
M  END
>  <MODEL>
5

>  <REMARK>
 VINA RESULT:      -9.4      4.157      7.123
  Name = 
  2 active torsions:
  status: ('A' for Active; 'I' for Inactive)
    1  A    between atoms: C_3  and  C_13
    2  A    between atoms: C_17  and  C_29
                            x       y       z     vdW  Elec       q    Type
                         _______ _______ _______ _____ _____    ______ ____

>  <TORSDO>
F 2

$$$$
=
 OpenBabel10272400023D

 34 41  0  0  1  0  0  0  0  0999 V2000
  186.9050  177.9450  146.4890 C   0  0  0  0  0  0  0  0  0  0  0  0
  188.8230  177.4570  145.0130 C   0  0  0  0  0  0  0  0  0  0  0  0
  186.6460  177.9560  144.0960 C   0  0  0  0  0  0  0  0  0  0  0  0
  186.5700  177.9510  141.7480 C   0  0  0  0  0  0  0  0  0  0  0  0
  189.0920  177.4490  147.4250 C   0  0  0  0  0  3  0  0  0  0  0  0
  181.0680  179.6520  143.4030 C   0  0  1  0  0  0  0  0  0  0  0  0
  180.8250  180.2090  142.1380 O   0  0  0  0  0  0  0  0  0  0  0  0
  189.6360  177.2940  146.1380 C   0  0  0  0  0  3  0  0  0  0  0  0
  188.4700  177.4880  142.6880 C   0  0  0  0  0  0  0  0  0  0  0  0
  183.1790  178.7690  142.9110 N   0  0  0  0  0  0  0  0  0  0  0  0
  187.4540  177.7810  145.2120 C   0  0  2  0  0  3  0  0  0  0  0  0
  180.9010  178.7970  142.2130 C   0  0  1  0  0  3  0  0  0  0  0  0
  187.4530  177.7540  140.6840 C   0  0  0  0  0  3  0  0  0  0  0  0
  187.7340  177.7720  147.6020 C   0  0  0  0  0  3  0  0  0  0  0  0
  185.2940  178.3030  144.1750 C   0  0  0  0  0  0  0  0  0  0  0  0
  182.4960  179.5810  143.8960 C   0  0  0  0  0  2  0  0  0  0  0  0
  185.5420  178.2770  146.6130 C   0  0  0  0  0  3  0  0  0  0  0  0
  189.3260  177.3170  143.7370 N   0  0  0  0  0  0  0  0  0  0  0  0
  185.2480  178.2720  141.7390 N   0  0  0  0  0  0  0  0  0  0  0  0
  182.3030  178.3340  141.8360 C   0  0  0  0  0  2  0  0  0  0  0  0
  184.5810  178.4550  142.9380 C   0  0  0  0  0  0  0  0  0  0  0  0
  188.6900  177.4570  141.3200 C   0  0  0  0  0  0  0  0  0  0  0  0
  179.9840  179.6540  144.2780 O   0  0  0  0  0  1  0  0  0  0  0  0
  187.2010  177.7900  142.8980 N   0  0  0  0  0  0  0  0  0  0  0  0
  184.7390  178.4520  145.4640 C   0  0  0  0  0  3  0  0  0  0  0  0
  190.1480  176.3240  139.7010 C   0  0  0  0  0  3  0  0  0  0  0  0
  189.9850  177.2080  140.6790 C   0  0  0  0  0  3  0  0  0  0  0  0
  191.2580  174.5910  137.3110 C   0  0  0  0  0  1  0  0  0  0  0  0
  191.4920  176.1380  139.0780 C   0  0  1  0  0  3  0  0  0  0  0  0
  191.3600  176.0090  137.6140 N   0  0  0  0  0  0  0  0  0  0  0  0
  193.8390  176.3350  137.6060 C   0  0  0  0  0  2  0  0  0  0  0  0
  193.8270  177.0590  138.9540 C   0  0  0  0  0  2  0  0  0  0  0  0
  192.4150  177.2930  139.4820 C   0  0  0  0  0  2  0  0  0  0  0  0
  192.5160  176.5290  136.8610 C   0  0  0  0  0  2  0  0  0  0  0  0
  1 17  1  0  0  0  0
  1 14  2  0  0  0  0
  2 11  1  0  0  0  0
  2  8  1  0  0  0  0
  3 15  2  0  0  0  0
  4 24  1  0  0  0  0
  5 14  1  0  0  0  0
  6 16  1  0  0  0  0
  6 23  1  1  0  0  0
  7 12  1  0  0  0  0
  7  6  1  0  0  0  0
  8  5  2  0  0  0  0
  9 24  1  0  0  0  0
  9 18  1  0  0  0  0
 10 21  1  0  0  0  0
 10 16  1  0  0  0  0
 11  3  1  6  0  0  0
 11  1  1  0  0  0  0
 12 20  1  6  0  0  0
 12  6  1  0  0  0  0
 13 22  1  0  0  0  0
 13  4  2  0  0  0  0
 15 25  1  0  0  0  0
 18  2  2  0  0  0  0
 19  4  1  0  0  0  0
 19 21  2  0  0  0  0
 20 10  1  0  0  0  0
 21 15  1  0  0  0  0
 22  9  2  0  0  0  0
 24  3  1  0  0  0  0
 25 17  2  0  0  0  0
 26 27  2  0  0  0  0
 27 22  1  0  0  0  0
 28 30  1  0  0  0  0
 29 33  1  0  0  0  0
 29 26  1  1  0  0  0
 30 29  1  0  0  0  0
 31 32  1  0  0  0  0
 32 33  1  0  0  0  0
 34 31  1  0  0  0  0
 34 30  1  0  0  0  0
M  END
>  <MODEL>
6

>  <REMARK>
 VINA RESULT:      -8.8      0.938      1.446
  Name = 
  2 active torsions:
  status: ('A' for Active; 'I' for Inactive)
    1  A    between atoms: C_3  and  C_13
    2  A    between atoms: C_17  and  C_29
                            x       y       z     vdW  Elec       q    Type
                         _______ _______ _______ _____ _____    ______ ____

>  <TORSDO>
F 2

$$$$
=
 OpenBabel10272400023D

 34 41  0  0  1  0  0  0  0  0999 V2000
  188.7270  177.4970  143.9660 C   0  0  0  0  0  0  0  0  0  0  0  0
  190.8330  177.0260  142.7680 C   0  0  0  0  0  0  0  0  0  0  0  0
  188.8100  177.5560  141.5620 C   0  0  0  0  0  0  0  0  0  0  0  0
  189.0680  177.5970  139.2270 C   0  0  0  0  0  0  0  0  0  0  0  0
  190.7570  176.9690  145.1930 C   0  0  0  0  0  3  0  0  0  0  0  0
  183.3920  179.3000  140.1190 C   0  0  1  0  0  0  0  0  0  0  0  0
  183.3330  179.8820  138.8440 O   0  0  0  0  0  0  0  0  0  0  0  0
  191.4780  176.8360  143.9930 C   0  0  0  0  0  3  0  0  0  0  0  0
  190.8130  177.1040  140.4170 C   0  0  0  0  0  0  0  0  0  0  0  0
  185.5490  178.4140  139.9130 N   0  0  0  0  0  0  0  0  0  0  0  0
  189.4510  177.3540  142.7770 C   0  0  2  0  0  3  0  0  0  0  0  0
  183.3930  178.4690  138.9000 C   0  0  1  0  0  3  0  0  0  0  0  0
  190.0920  177.4150  138.2960 C   0  0  0  0  0  3  0  0  0  0  0  0
  189.3890  177.2970  145.1820 C   0  0  0  0  0  3  0  0  0  0  0  0
  187.4620  177.9100  141.4550 C   0  0  0  0  0  0  0  0  0  0  0  0
  184.7360  179.2110  140.8080 C   0  0  0  0  0  2  0  0  0  0  0  0
  187.3610  177.8350  143.9030 C   0  0  0  0  0  3  0  0  0  0  0  0
  191.5110  176.9080  141.5740 N   0  0  0  0  0  0  0  0  0  0  0  0
  187.7610  177.9260  139.0370 N   0  0  0  0  0  0  0  0  0  0  0  0
  184.8330  178.0050  138.7160 C   0  0  0  0  0  2  0  0  0  0  0  0
  186.9320  178.0900  140.1330 C   0  0  0  0  0  0  0  0  0  0  0  0
  191.2250  177.0990  139.0940 C   0  0  0  0  0  0  0  0  0  0  0  0
  182.1960  179.2920  140.8310 O   0  0  0  0  0  1  0  0  0  0  0  0
  189.5290  177.4100  140.4520 N   0  0  0  0  0  0  0  0  0  0  0  0
  186.7300  178.0370  142.6550 C   0  0  0  0  0  3  0  0  0  0  0  0
  192.9050  175.9210  137.7440 C   0  0  0  0  0  3  0  0  0  0  0  0
  192.5980  176.8540  138.6380 C   0  0  0  0  0  3  0  0  0  0  0  0
  195.3690  174.2880  138.8460 C   0  0  0  0  0  1  0  0  0  0  0  0
  194.3220  175.7420  137.3090 C   0  0  1  0  0  3  0  0  0  0  0  0
  194.7500  174.3470  137.5320 N   0  0  0  0  0  0  0  0  0  0  0  0
  196.7000  174.9720  136.0980 C   0  0  0  0  0  2  0  0  0  0  0  0
  195.9360  176.1090  135.4170 C   0  0  0  0  0  2  0  0  0  0  0  0
  194.4730  176.1710  135.8460 C   0  0  0  0  0  2  0  0  0  0  0  0
  195.7500  173.8650  136.5620 C   0  0  0  0  0  2  0  0  0  0  0  0
  1 14  2  0  0  0  0
  2 11  1  0  0  0  0
  2  8  1  0  0  0  0
  4 24  1  0  0  0  0
  6 16  1  0  0  0  0
  6 23  1  1  0  0  0
  7 12  1  0  0  0  0
  7  6  1  0  0  0  0
  8  5  2  0  0  0  0
  9 24  1  0  0  0  0
  9 18  1  0  0  0  0
 10 21  1  0  0  0  0
 10 16  1  0  0  0  0
 11  3  1  1  0  0  0
 11  1  1  0  0  0  0
 12 20  1  6  0  0  0
 12  6  1  0  0  0  0
 13 22  1  0  0  0  0
 13  4  2  0  0  0  0
 14  5  1  0  0  0  0
 15  3  2  0  0  0  0
 15 25  1  0  0  0  0
 17  1  1  0  0  0  0
 18  2  2  0  0  0  0
 19  4  1  0  0  0  0
 19 21  2  0  0  0  0
 20 10  1  0  0  0  0
 21 15  1  0  0  0  0
 22  9  2  0  0  0  0
 24  3  1  0  0  0  0
 25 17  2  0  0  0  0
 26 27  2  0  0  0  0
 27 22  1  0  0  0  0
 29 30  1  0  0  0  0
 29 26  1  6  0  0  0
 30 28  1  0  0  0  0
 31 34  1  0  0  0  0
 32 33  1  0  0  0  0
 32 31  1  0  0  0  0
 33 29  1  0  0  0  0
 34 30  1  0  0  0  0
M  END
>  <MODEL>
7

>  <REMARK>
 VINA RESULT:      -8.8      2.060      3.190
  Name = 
  2 active torsions:
  status: ('A' for Active; 'I' for Inactive)
    1  A    between atoms: C_3  and  C_13
    2  A    between atoms: C_17  and  C_29
                            x       y       z     vdW  Elec       q    Type
                         _______ _______ _______ _____ _____    ______ ____

>  <TORSDO>
F 2

$$$$
=
 OpenBabel10272400023D

 34 41  0  0  1  0  0  0  0  0999 V2000
  184.5660  178.5650  144.7410 C   0  0  0  0  0  0  0  0  0  0  0  0
  183.3680  178.7980  142.5950 C   0  0  0  0  0  0  0  0  0  0  0  0
  185.7400  178.3520  142.6510 C   0  0  0  0  0  0  0  0  0  0  0  0
  186.7280  178.1490  140.5300 C   0  0  0  0  0  0  0  0  0  0  0  0
  182.1770  179.0090  144.6990 C   0  0  0  0  0  3  0  0  0  0  0  0
  191.1780  176.9450  144.3560 C   0  0  1  0  0  0  0  0  0  0  0  0
  191.9080  176.2920  143.3510 O   0  0  0  0  0  0  0  0  0  0  0  0
  182.1770  179.0130  143.2930 C   0  0  0  0  0  2  0  0  0  0  0  0
  184.6030  178.5780  140.6050 C   0  0  0  0  0  0  0  0  0  0  0  0
  189.4100  177.6480  142.9930 N   0  0  0  0  0  0  0  0  0  0  0  0
  184.5560  178.5780  143.3420 C   0  0  0  0  0  0  0  0  0  0  0  0
  191.7800  177.6960  143.2390 C   0  0  1  0  0  3  0  0  0  0  0  0
  186.3270  178.1940  139.1920 C   0  0  0  0  0  3  0  0  0  0  0  0
  183.3640  178.7880  145.4210 C   0  0  0  0  0  3  0  0  0  0  0  0
  186.9600  178.0970  143.2840 C   0  0  0  0  0  0  0  0  0  0  0  0
  189.6710  176.9730  144.2480 C   0  0  0  0  0  2  0  0  0  0  0  0
  185.7780  178.3300  145.4180 C   0  0  0  0  0  3  0  0  0  0  0  0
  183.4010  178.7910  141.2170 N   0  0  0  0  0  0  0  0  0  0  0  0
  187.9550  177.9100  141.0670 N   0  0  0  0  0  0  0  0  0  0  0  0
  190.6280  178.0360  142.3010 C   0  0  0  0  0  2  0  0  0  0  0  0
  188.1030  177.8770  142.4420 C   0  0  0  0  0  0  0  0  0  0  0  0
  184.9340  178.4700  139.2640 C   0  0  0  0  0  0  0  0  0  0  0  0
  191.8340  177.0890  145.5770 O   0  0  0  0  0  1  0  0  0  0  0  0
  185.6940  178.3740  141.3210 N   0  0  0  0  0  0  0  0  0  0  0  0
  186.9700  178.1000  144.6940 C   0  0  0  0  0  3  0  0  0  0  0  0
  182.9640  177.7500  137.9880 C   0  0  0  0  0  3  0  0  0  0  0  0
  183.9880  178.5810  138.1490 C   0  0  0  0  0  3  0  0  0  0  0  0
  180.1760  179.1790  137.6190 C   0  0  0  0  0  1  0  0  0  0  0  0
  182.0250  177.9350  136.8410 C   0  0  1  0  0  3  0  0  0  0  0  0
  181.4270  179.2840  136.8860 N   0  0  0  0  0  0  0  0  0  0  0  0
  180.6780  178.7650  134.5590 C   0  0  0  0  0  2  0  0  0  0  0  0
  181.7870  177.7320  134.3470 C   0  0  0  0  0  2  0  0  0  0  0  0
  182.7580  177.6660  135.5230 C   0  0  0  0  0  2  0  0  0  0  0  0
  181.1060  179.8410  135.5600 C   0  0  0  0  0  2  0  0  0  0  0  0
  1 17  1  0  0  0  0
  1 14  1  0  0  0  0
  2  8  1  0  0  0  0
  2 11  1  0  0  0  0
  3 15  2  0  0  0  0
  3 11  1  0  0  0  0
  4 19  1  0  0  0  0
  4 24  1  0  0  0  0
  5 14  2  0  0  0  0
  6 23  1  1  0  0  0
  7  6  1  0  0  0  0
  8  5  1  0  0  0  0
  9 18  1  0  0  0  0
  9 24  1  0  0  0  0
 10 16  1  0  0  0  0
 11  1  2  0  0  0  0
 12 20  1  6  0  0  0
 12  7  1  0  0  0  0
 12  6  1  0  0  0  0
 13 22  1  0  0  0  0
 13  4  2  0  0  0  0
 15 25  1  0  0  0  0
 16  6  1  0  0  0  0
 18  2  2  0  0  0  0
 19 21  2  0  0  0  0
 20 10  1  0  0  0  0
 21 10  1  0  0  0  0
 21 15  1  0  0  0  0
 22  9  2  0  0  0  0
 24  3  1  0  0  0  0
 25 17  2  0  0  0  0
 26 27  2  0  0  0  0
 27 22  1  0  0  0  0
 29 30  1  0  0  0  0
 29 26  1  1  0  0  0
 30 28  1  0  0  0  0
 31 34  1  0  0  0  0
 32 31  1  0  0  0  0
 32 33  1  0  0  0  0
 33 29  1  0  0  0  0
 34 30  1  0  0  0  0
M  END
>  <MODEL>
8

>  <REMARK>
 VINA RESULT:      -8.6      4.205      7.761
  Name = 
  2 active torsions:
  status: ('A' for Active; 'I' for Inactive)
    1  A    between atoms: C_3  and  C_13
    2  A    between atoms: C_17  and  C_29
                            x       y       z     vdW  Elec       q    Type
                         _______ _______ _______ _____ _____    ______ ____

>  <TORSDO>
F 2

$$$$
=
 OpenBabel10272400023D

 34 41  0  0  1  0  0  0  0  0999 V2000
  190.9630  177.3120  141.9440 C   0  0  0  0  0  0  0  0  0  0  0  0
  188.7690  178.0870  142.7710 C   0  0  0  0  0  0  0  0  0  0  0  0
  189.1310  177.6610  140.4220 C   0  0  0  0  0  0  0  0  0  0  0  0
  187.2390  178.0250  139.0790 C   0  0  0  0  0  0  0  0  0  0  0  0
  190.6110  177.7330  144.3110 C   0  0  0  0  0  3  0  0  0  0  0  0
  191.3620  175.9030  135.2840 C   0  0  1  0  0  0  0  0  0  0  0  0
  190.3710  175.5390  134.3600 O   0  0  0  0  0  0  0  0  0  0  0  0
  189.2750  178.1030  144.0730 C   0  0  0  0  0  3  0  0  0  0  0  0
  187.0420  178.4020  141.2060 C   0  0  0  0  0  0  0  0  0  0  0  0
  189.9310  176.9220  136.8310 N   0  0  0  0  0  0  0  0  0  0  0  0
  189.6340  177.6900  141.7160 C   0  0  2  0  0  3  0  0  0  0  0  0
  190.5990  176.9240  134.5430 C   0  0  1  0  0  3  0  0  0  0  0  0
  185.9080  178.4130  139.2480 C   0  0  0  0  0  3  0  0  0  0  0  0
  191.4510  177.3410  143.2540 C   0  0  0  0  0  3  0  0  0  0  0  0
  189.8850  177.2600  139.3150 C   0  0  0  0  0  0  0  0  0  0  0  0
  190.9980  175.9450  136.7510 C   0  0  0  0  0  2  0  0  0  0  0  0
  191.7620  176.9190  140.8540 C   0  0  0  0  0  3  0  0  0  0  0  0
  187.4630  178.4390  142.5040 N   0  0  0  0  0  0  0  0  0  0  0  0
  187.9080  177.6640  137.9500 N   0  0  0  0  0  0  0  0  0  0  0  0
  189.5890  177.4870  135.5360 C   0  0  0  0  0  2  0  0  0  0  0  0
  189.2330  177.2760  138.0360 C   0  0  0  0  0  0  0  0  0  0  0  0
  185.7990  178.6510  140.6460 C   0  0  0  0  0  0  0  0  0  0  0  0
  192.6760  175.7290  134.8550 O   0  0  0  0  0  1  0  0  0  0  0  0
  187.8650  178.0280  140.2430 N   0  0  0  0  0  0  0  0  0  0  0  0
  191.2280  176.8960  139.5460 C   0  0  0  0  0  3  0  0  0  0  0  0
  183.4050  178.4990  141.1740 C   0  0  0  0  0  3  0  0  0  0  0  0
  184.5990  179.0400  141.3930 C   0  0  0  0  0  3  0  0  0  0  0  0
  180.4060  179.2270  140.5220 C   0  0  0  0  0  1  0  0  0  0  0  0
  182.2300  178.9270  141.9890 C   0  0  1  0  0  3  0  0  0  0  0  0
  180.9970  178.3010  141.4730 N   0  0  0  0  0  0  0  0  0  0  0  0
  179.9870  179.0900  143.6190 C   0  0  0  0  0  2  0  0  0  0  0  0
  181.3400  179.1370  144.3310 C   0  0  0  0  0  2  0  0  0  0  0  0
  182.4770  178.6000  143.4660 C   0  0  0  0  0  2  0  0  0  0  0  0
  179.9820  178.0370  142.5080 C   0  0  0  0  0  2  0  0  0  0  0  0
  1 14  2  0  0  0  0
  2  8  1  0  0  0  0
  4 13  2  0  0  0  0
  4 24  1  0  0  0  0
  6 23  1  6  0  0  0
  6 16  1  0  0  0  0
  7 12  1  0  0  0  0
  7  6  1  0  0  0  0
  8  5  2  0  0  0  0
  9 18  1  0  0  0  0
 10 21  1  0  0  0  0
 11  3  1  1  0  0  0
 11  1  1  0  0  0  0
 11  2  1  0  0  0  0
 12  6  1  0  0  0  0
 12 20  1  1  0  0  0
 13 22  1  0  0  0  0
 14  5  1  0  0  0  0
 15 25  1  0  0  0  0
 15  3  2  0  0  0  0
 16 10  1  0  0  0  0
 17  1  1  0  0  0  0
 18  2  2  0  0  0  0
 19 21  2  0  0  0  0
 19  4  1  0  0  0  0
 20 10  1  0  0  0  0
 21 15  1  0  0  0  0
 22  9  2  0  0  0  0
 22 27  1  0  0  0  0
 24  3  1  0  0  0  0
 24  9  1  0  0  0  0
 25 17  2  0  0  0  0
 26 27  2  0  0  0  0
 28 30  1  0  0  0  0
 29 26  1  6  0  0  0
 29 33  1  0  0  0  0
 30 29  1  0  0  0  0
 30 34  1  0  0  0  0
 31 32  1  0  0  0  0
 33 32  1  0  0  0  0
 34 31  1  0  0  0  0
M  END
>  <MODEL>
9

>  <REMARK>
 VINA RESULT:      -7.9      3.895      8.921
  Name = 
  2 active torsions:
  status: ('A' for Active; 'I' for Inactive)
    1  A    between atoms: C_3  and  C_13
    2  A    between atoms: C_17  and  C_29
                            x       y       z     vdW  Elec       q    Type
                         _______ _______ _______ _____ _____    ______ ____

>  <TORSDO>
F 2

$$$$
